
  -OEChem-04052301203D

 86 94  0     1  0  0  0  0  0999 V2000
  -37.4881  -33.6012   15.9578 C   0  0  0  0  0  0  0  0  0  0  0  0
  -37.7010  -32.2276   16.0159 C   0  0  0  0  0  0  0  0  0  0  0  0
  -22.9896   -9.9024   19.9774 C   0  0  0  0  0  0  0  0  0  0  0  0
  -23.7247   -9.9342   22.2786 C   0  0  0  0  0  0  0  0  0  0  0  0
  -36.4776  -34.1818   16.7231 C   0  0  0  0  0  0  0  0  0  0  0  0
  -36.9042  -31.4340   16.8403 C   0  0  0  0  0  0  0  0  0  0  0  0
  -35.0490  -25.6996   15.7537 C   0  0  0  0  0  0  0  0  0  0  0  0
  -22.2204   -8.7686   20.2387 C   0  0  0  0  0  0  0  0  0  0  0  0
  -22.9554   -8.8004   22.5400 C   0  0  0  0  0  0  0  0  0  0  0  0
  -35.5252  -24.4621   16.1847 C   0  0  0  0  0  0  0  0  0  0  0  0
  -21.4686   -5.7036   23.7272 C   0  0  0  0  0  0  0  0  0  0  0  0
  -22.0544   -4.6804   24.4725 C   0  0  0  0  0  0  0  0  0  0  0  0
  -30.3350  -19.9376   19.0284 C   0  0  0  0  0  0  0  0  0  0  0  0
  -33.8934  -24.4599   17.9614 C   0  0  0  0  0  0  0  0  0  0  0  0
  -31.6991  -18.2222   20.0450 C   0  0  0  0  0  0  0  0  0  0  0  0
  -23.7728   -4.4396   22.7913 C   0  0  0  0  0  0  0  0  0  0  0  0
  -23.7418  -10.4852   20.9973 C   0  0  0  0  0  0  0  0  0  0  0  0
  -29.2873  -19.6158   19.8911 C   0  0  0  0  0  0  0  0  0  0  0  0
  -24.1349  -13.0007   20.8379 C   0  0  0  0  0  0  0  0  0  0  0  0
  -35.6617  -33.3936   17.5499 C   0  0  0  0  0  0  0  0  0  0  0  0
  -33.9969  -26.3326   16.4310 C   0  0  0  0  0  0  0  0  0  0  0  0
  -35.8827  -32.0048   17.6184 C   0  0  0  0  0  0  0  0  0  0  0  0
  -33.4041  -25.7041   17.5354 C   0  0  0  0  0  0  0  0  0  0  0  0
  -30.6514  -17.9004   20.9078 C   0  0  0  0  0  0  0  0  0  0  0  0
  -22.2033   -8.2176   21.5200 C   0  0  0  0  0  0  0  0  0  0  0  0
  -34.9493  -23.8434   17.2904 C   0  0  0  0  0  0  0  0  0  0  0  0
  -22.0349   -6.0948   22.5139 C   0  0  0  0  0  0  0  0  0  0  0  0
  -31.5409  -19.2408   19.1053 C   0  0  0  0  0  0  0  0  0  0  0  0
  -29.4455  -18.5972   20.8308 C   0  0  0  0  0  0  0  0  0  0  0  0
  -23.2065   -4.0484   24.0046 C   0  0  0  0  0  0  0  0  0  0  0  0
  -23.1870   -5.4628   22.0460 C   0  0  0  0  0  0  0  0  0  0  0  0
  -24.5371  -11.6561   20.7278 C   0  0  0  0  0  0  0  0  0  0  0  0
  -25.2455  -13.7222   20.4741 C   0  0  0  0  0  0  0  0  0  0  0  0
  -27.9544  -21.6743   19.9287 C   0  0  0  0  0  0  0  0  0  0  0  0
  -28.0386  -20.3598   19.7892 C   0  0  0  0  0  0  0  0  0  0  0  0
  -22.8704  -13.5485   21.2338 C   0  0  0  0  0  0  0  0  0  0  0  0
  -33.6737  -29.0695   18.0149 C   0  0  0  0  0  0  0  0  0  0  0  0
  -30.5545  -28.1860   18.1258 C   0  0  0  0  0  0  0  0  0  0  0  0
  -28.2500  -25.6712   18.0171 C   0  0  0  0  0  0  0  0  0  0  0  0
  -30.7460  -14.6366   20.7060 C   0  0  0  0  0  0  0  0  0  0  0  0
  -34.6128  -34.0726   18.3946 C   0  0  0  0  0  0  0  0  0  0  0  0
  -33.4771  -27.6549   15.9373 C   0  0  0  0  0  0  0  0  0  0  0  0
  -32.2587  -26.3325   18.2850 C   0  0  0  0  0  0  0  0  0  0  0  0
  -33.5684  -33.1121   18.9574 C   0  0  0  0  0  0  0  0  0  0  0  0
  -29.5873  -12.2338   18.3479 C   0  0  0  0  0  0  0  0  0  0  0  0
  -34.2422  -31.8795   19.5520 C   0  0  0  0  0  0  0  0  0  0  0  0
  -28.1397  -11.9759   18.7697 C   0  0  0  0  0  0  0  0  0  0  0  0
  -30.4956  -12.4574   19.5550 C   0  0  0  0  0  0  0  0  0  0  0  0
  -28.5938  -13.2496   20.9076 C   0  0  0  0  0  0  0  0  0  0  0  0
  -35.0230  -31.1072   18.4817 C   0  0  1  0  0  0  0  0  0  0  0  0
  -32.7418  -28.4474   17.0137 C   0  0  1  0  0  0  0  0  0  0  0  0
  -27.6292  -13.0737   19.7223 C   0  0  2  0  0  0  0  0  0  0  0  0
  -25.7803  -25.2542   18.1734 C   0  0  0  0  0  0  0  0  0  0  0  0
  -30.6846  -28.5641   21.1507 C   0  0  0  0  0  0  0  0  0  0  0  0
  -28.5595  -27.2533   21.3359 C   0  0  0  0  0  0  0  0  0  0  0  0
  -28.5873  -29.4101   20.0829 C   0  0  0  0  0  0  0  0  0  0  0  0
  -28.1483  -24.5516   15.2793 C   0  0  0  0  0  0  0  0  0  0  0  0
  -28.3778  -18.9676   22.9234 C   0  0  0  0  0  0  0  0  0  0  0  0
  -30.8411  -16.8065   21.9066 C   0  0  0  0  0  0  0  0  0  0  0  0
  -34.8478  -20.3177   18.0729 C   0  0  0  0  0  0  0  0  0  0  0  0
  -34.4751  -21.7663   18.3471 C   0  0  0  0  0  0  0  0  0  1  0  0
  -33.8891  -19.3468   18.7442 C   0  0  0  0  0  0  0  0  0  0  0  0
  -29.7054  -27.3778   19.0771 C   0  0  1  0  0  0  0  0  0  0  0  0
  -26.9520  -25.5271   17.2431 C   0  0  2  0  0  0  0  0  0  0  0  0
  -29.4070  -28.1401   20.3989 C   0  0  0  0  0  0  0  0  0  0  0  0
  -25.8042  -11.5283   20.3254 N   0  0  0  0  0  0  0  0  0  0  0  0
  -26.2079  -12.8018   20.1793 N   0  0  0  0  0  0  0  0  0  0  0  0
  -31.7901  -27.6287   17.7675 N   0  0  0  0  0  0  0  0  0  0  0  0
  -29.9560  -13.5117   20.4170 N   0  0  0  0  0  0  0  0  0  0  0  0
  -25.4831  -15.0478   20.3806 N   0  0  0  0  0  0  0  0  0  0  0  0
  -21.8371  -12.6654   21.5753 N   0  0  0  0  0  0  0  0  0  0  0  0
  -34.1204  -30.3284   17.6612 N   0  0  0  0  0  0  0  0  0  0  0  0
  -28.5144  -26.9877   18.3303 N   0  0  0  0  0  0  0  0  0  0  0  0
  -30.1564  -15.5914   21.5253 N   0  0  0  0  0  0  0  0  0  0  0  0
  -27.0513  -24.4027   16.2700 N   0  3  0  0  0  0  0  0  0  0  0  0
  -22.6580  -14.7844   21.2674 O   0  0  0  0  0  0  0  0  0  0  0  0
  -33.9646  -28.4536   19.0336 O   0  0  0  0  0  0  0  0  0  0  0  0
  -30.1336  -29.2685   17.7102 O   0  0  0  0  0  0  0  0  0  0  0  0
  -28.9566  -24.7114   18.3172 O   0  0  0  0  0  0  0  0  0  0  0  0
  -31.8901  -14.7818   20.2622 O   0  0  0  0  0  0  0  0  0  0  0  0
  -21.4526   -7.1114   21.7755 O   0  0  0  0  0  0  0  0  0  0  0  0
  -28.4256  -18.2747   21.6792 O   0  0  0  0  0  0  0  0  0  0  0  0
  -35.4126  -22.6359   17.7136 O   0  0  0  0  0  0  0  0  0  1  0  0
  -32.5705  -19.5570   18.2576 O   0  0  0  0  0  0  0  0  0  0  0  0
  -23.7698   -3.0669   24.7212 F   0  0  0  0  0  0  0  0  0  0  0  0
  -23.7362   -5.8351   20.8817 F   0  0  0  0  0  0  0  0  0  0  0  0
  1  2  1  0  0  0  0
  1  5  2  0  0  0  0
  2  6  2  0  0  0  0
  3  8  2  0  0  0  0
  3 17  1  0  0  0  0
  4  9  1  0  0  0  0
  4 17  2  0  0  0  0
  5 20  1  0  0  0  0
  6 22  1  0  0  0  0
  7 10  2  0  0  0  0
  7 21  1  0  0  0  0
  8 25  1  0  0  0  0
  9 25  2  0  0  0  0
 10 26  1  0  0  0  0
 11 12  2  0  0  0  0
 11 27  1  0  0  0  0
 12 30  1  0  0  0  0
 13 18  1  0  0  0  0
 13 28  2  0  0  0  0
 14 23  1  0  0  0  0
 14 26  2  0  0  0  0
 15 24  2  0  0  0  0
 15 28  1  0  0  0  0
 16 30  2  0  0  0  0
 16 31  1  0  0  0  0
 17 32  1  0  0  0  0
 18 29  2  0  0  0  0
 18 35  1  0  0  0  0
 19 32  1  0  0  0  0
 19 33  2  0  0  0  0
 19 36  1  0  0  0  0
 20 22  2  0  0  0  0
 20 41  1  0  0  0  0
 21 23  2  0  0  0  0
 21 42  1  0  0  0  0
 22 50  1  0  0  0  0
 23 43  1  0  0  0  0
 24 29  1  0  0  0  0
 24 59  1  0  0  0  0
 25 81  1  0  0  0  0
 26 83  1  0  0  0  0
 27 31  2  0  0  0  0
 27 81  1  0  0  0  0
 28 84  1  0  0  0  0
 29 82  1  0  0  0  0
 30 85  1  0  0  0  0
 31 86  1  0  0  0  0
 32 66  2  0  0  0  0
 33 67  1  0  0  0  0
 33 70  1  0  0  0  0
 34 35  2  0  0  0  0
 36 71  1  0  0  0  0
 36 76  2  0  0  0  0
 37 51  1  0  0  0  0
 37 72  1  0  0  0  0
 37 77  2  0  0  0  0
 38 63  1  0  0  0  0
 38 68  1  0  0  0  0
 38 78  2  0  0  0  0
 39 64  1  0  0  0  0
 39 73  1  0  0  0  0
 39 79  2  0  0  0  0
 40 69  1  0  0  0  0
 40 74  1  0  0  0  0
 40 80  2  0  0  0  0
 41 44  1  0  0  0  0
 42 51  1  0  0  0  0
 43 68  1  0  0  0  0
 44 46  1  0  0  0  0
 45 47  1  0  0  0  0
 45 48  1  0  0  0  0
 46 50  1  0  0  0  0
 47 52  1  0  0  0  0
 48 69  1  0  0  0  0
 49 52  1  0  0  0  0
 49 69  1  0  0  0  0
 50 72  1  0  0  0  0
 51 68  1  0  0  0  0
 52 67  1  0  0  0  0
 53 64  1  0  0  0  0
 54 65  1  0  0  0  0
 55 65  1  0  0  0  0
 56 65  1  0  0  0  0
 57 75  1  0  0  0  0
 58 82  1  0  0  0  0
 59 74  1  0  0  0  0
 60 61  1  0  0  0  0
 60 62  1  0  0  0  0
 61 83  1  0  0  0  0
 62 84  1  0  0  0  0
 63 65  1  0  0  0  0
 63 73  1  0  0  0  0
 64 75  1  0  0  0  0
 66 67  1  0  0  0  0
M  CHG  1  75   1
M  ISO  4  40 100  61 101  74 100  83 101
M  END
> <Batch ID>
0108

> <Smiles>
C=Cc1cc(OCC[101CH2:1][101O:1]c2ccc3c(c2)CN(C(=O)C(NC(=O)C(C)NC)C(C)(C)C)C(C(=O)NC2CCCc4ccccc42)C3)cc(C[100NH:0][100C:0](=O)N2CCCC(n3nc(-c4ccc(Oc5ccc(F)cc5F)cc4)c(C(N)=O)c3N)C2)c1OC

> <Shape>
0.247

> <Color>
0.194

> <Negative vol penalty>
0.000

$$$$

  -OEChem-04052301203D

 84 92  0     1  0  0  0  0  0999 V2000
  -25.1218  -35.4038   22.9051 C   0  0  0  0  0  0  0  0  0  0  0  0
  -25.8275  -34.2206   22.7112 C   0  0  0  0  0  0  0  0  0  0  0  0
  -23.9886  -12.1999   21.1014 C   0  0  0  0  0  0  0  0  0  0  0  0
  -24.9321  -12.3114   18.8801 C   0  0  0  0  0  0  0  0  0  0  0  0
  -23.8269  -35.3653   23.4204 C   0  0  0  0  0  0  0  0  0  0  0  0
  -25.2389  -32.9983   23.0334 C   0  0  0  0  0  0  0  0  0  0  0  0
  -25.9622  -29.4900   19.4538 C   0  0  0  0  0  0  0  0  0  0  0  0
  -30.7692  -20.2607   16.8687 C   0  0  0  0  0  0  0  0  0  0  0  0
  -31.0997  -21.5597   17.2547 C   0  0  0  0  0  0  0  0  0  0  0  0
  -23.1314  -11.1810   20.6862 C   0  0  0  0  0  0  0  0  0  0  0  0
  -24.0749  -11.2924   18.4648 C   0  0  0  0  0  0  0  0  0  0  0  0
  -27.2102  -28.8700   19.4129 C   0  0  0  0  0  0  0  0  0  0  0  0
  -23.3123   -7.8543   20.1088 C   0  0  0  0  0  0  0  0  0  0  0  0
  -23.1730   -6.7445   20.9422 C   0  0  0  0  0  0  0  0  0  0  0  0
  -26.2949  -26.9642   20.5745 C   0  0  0  0  0  0  0  0  0  0  0  0
  -28.7548  -22.1380   17.3168 C   0  0  0  0  0  0  0  0  0  0  0  0
  -20.8065   -7.1892   21.1391 C   0  0  0  0  0  0  0  0  0  0  0  0
  -24.8890  -12.7652   20.1983 C   0  0  0  0  0  0  0  0  0  0  0  0
  -27.0660  -13.6753   21.1677 C   0  0  0  0  0  0  0  0  0  0  0  0
  -23.2185  -34.1413   23.7401 C   0  0  0  0  0  0  0  0  0  0  0  0
  -24.8719  -28.8553   20.0661 C   0  0  0  0  0  0  0  0  0  0  0  0
  -23.9350  -32.9435   23.5548 C   0  0  0  0  0  0  0  0  0  0  0  0
  -25.0335  -27.5772   20.6196 C   0  0  0  0  0  0  0  0  0  0  0  0
  -29.4314  -19.9004   16.7067 C   0  0  0  0  0  0  0  0  0  0  0  0
  -28.4242  -20.8390   16.9308 C   0  0  0  0  0  0  0  0  0  0  0  0
  -30.0926  -22.4983   17.4788 C   0  0  0  0  0  0  0  0  0  0  0  0
  -23.1745  -10.7272   19.3679 C   0  0  0  0  0  0  0  0  0  0  0  0
  -27.3775  -27.6082   19.9758 C   0  0  0  0  0  0  0  0  0  0  0  0
  -22.1986   -8.6317   19.7906 C   0  0  0  0  0  0  0  0  0  0  0  0
  -21.9202   -6.4119   21.4573 C   0  0  0  0  0  0  0  0  0  0  0  0
  -20.9457   -8.2991   20.3057 C   0  0  0  0  0  0  0  0  0  0  0  0
  -25.7743  -13.8183   20.6265 C   0  0  0  0  0  0  0  0  0  0  0  0
  -27.4819  -14.9621   21.4081 C   0  0  0  0  0  0  0  0  0  0  0  0
  -27.8223  -12.4858   21.4298 C   0  0  0  0  0  0  0  0  0  0  0  0
  -22.9920  -29.5174   22.5423 C   0  0  0  0  0  0  0  0  0  0  0  0
  -21.3798  -26.8943   21.5213 C   0  0  0  0  0  0  0  0  0  0  0  0
  -29.5570  -24.8701   18.1358 C   0  0  0  0  0  0  0  0  0  0  0  0
  -21.4355  -23.9458   19.8036 C   0  0  0  0  0  0  0  0  0  0  0  0
  -25.9805  -20.2450   19.0232 C   0  0  0  0  0  0  0  0  0  0  0  0
  -21.8343  -34.1531   24.3388 C   0  0  0  0  0  0  0  0  0  0  0  0
  -23.5257  -29.5261   20.0783 C   0  0  0  0  0  0  0  0  0  0  0  0
  -23.8898  -26.8446   21.2707 C   0  0  0  0  0  0  0  0  0  0  0  0
  -21.1437  -32.7921   24.3034 C   0  0  0  0  0  0  0  0  0  0  0  0
  -25.7857  -19.3119   22.4536 C   0  0  0  0  0  0  0  0  0  0  0  0
  -22.0937  -31.6988   24.7820 C   0  0  0  0  0  0  0  0  0  0  0  0
  -25.8773  -17.7852   22.4232 C   0  0  0  0  0  0  0  0  0  0  0  0
  -24.9976  -19.8538   21.2632 C   0  0  0  0  0  0  0  0  0  0  0  0
  -25.5678  -17.8717   19.9141 C   0  0  0  0  0  0  0  0  0  0  0  0
  -23.3215  -31.5963   23.8690 C   0  0  1  0  0  0  0  0  0  0  0  0
  -22.6093  -29.0068   21.1820 C   0  0  1  0  0  0  0  0  0  0  0  0
  -26.4012  -17.2819   21.0647 C   0  0  2  0  0  0  0  0  0  0  0  0
  -29.1021  -18.5039   16.2921 C   0  0  0  0  0  0  0  0  0  0  0  0
  -19.9754  -22.0038   19.1759 C   0  0  0  0  0  0  0  0  0  0  0  0
  -21.6414  -25.7858   24.3520 C   0  0  0  0  0  0  0  0  0  0  0  0
  -21.0435  -23.5287   23.4486 C   0  0  0  0  0  0  0  0  0  0  0  0
  -19.4110  -25.4079   23.2856 C   0  0  0  0  0  0  0  0  0  0  0  0
  -21.7420  -24.5004   16.9126 C   0  0  0  0  0  0  0  0  0  0  0  0
  -26.9851  -20.4753   16.7656 C   0  0  0  0  0  0  0  0  0  0  0  0
  -30.3365  -26.1196   18.5299 C   0  0  0  0  0  0  0  0  0  0  0  0
  -29.4413  -27.3118   18.8319 C   0  0  0  0  0  0  0  0  0  1  0  0
  -21.4594  -25.4134   21.8036 C   0  0  1  0  0  0  0  0  0  0  0  0
  -20.4959  -23.3706   18.7592 C   0  0  2  0  0  0  0  0  0  0  0  0
  -20.9110  -25.0483   23.2120 C   0  0  0  0  0  0  0  0  0  0  0  0
  -25.3946  -15.0951   20.5288 N   0  0  0  0  0  0  0  0  0  0  0  0
  -26.4540  -15.7662   21.0119 N   0  0  0  0  0  0  0  0  0  0  0  0
  -22.5947  -27.5448   21.2632 N   0  0  0  0  0  0  0  0  0  0  0  0
  -25.5462  -19.3400   20.0058 N   0  0  0  0  0  0  0  0  0  0  0  0
  -28.6229  -15.4729   21.9176 N   0  0  0  0  0  0  0  0  0  0  0  0
  -27.2451  -11.2460   21.1232 N   0  0  0  0  0  0  0  0  0  0  0  0
  -30.4274  -23.8158   17.8723 N   0  0  0  0  0  0  0  0  0  0  0  0
  -22.9864  -30.8951   22.6482 N   0  0  0  0  0  0  0  0  0  0  0  0
  -20.7684  -24.7503   20.7030 N   0  0  0  0  0  0  0  0  0  0  0  0
  -26.4927  -19.6746   17.8643 N   0  0  0  0  0  0  0  0  0  0  0  0
  -21.1987  -23.2276   17.4528 N   0  3  0  0  0  0  0  0  0  0  0  0
  -28.9693  -12.5205   21.9364 O   0  0  0  0  0  0  0  0  0  0  0  0
  -23.2703  -28.7203   23.4305 O   0  0  0  0  0  0  0  0  0  0  0  0
  -20.2795  -27.4519   21.5224 O   0  0  0  0  0  0  0  0  0  0  0  0
  -28.3321  -24.8567   18.0759 O   0  0  0  0  0  0  0  0  0  0  0  0
  -22.6401  -23.7026   19.8220 O   0  0  0  0  0  0  0  0  0  0  0  0
  -25.9214  -21.4705   19.1701 O   0  0  0  0  0  0  0  0  0  0  0  0
  -22.3383   -9.7327   18.9625 O   0  0  0  0  0  0  0  0  0  0  0  0
  -28.5948  -27.0011   19.9378 O   0  0  0  0  0  0  0  0  0  1  0  0
  -21.7863   -5.3452   22.2563 F   0  0  0  0  0  0  0  0  0  0  0  0
  -19.8720   -9.0414   20.0026 F   0  0  0  0  0  0  0  0  0  0  0  0
  1  2  1  0  0  0  0
  1  5  2  0  0  0  0
  2  6  2  0  0  0  0
  3 10  2  0  0  0  0
  3 18  1  0  0  0  0
  4 11  1  0  0  0  0
  4 18  2  0  0  0  0
  5 20  1  0  0  0  0
  6 22  1  0  0  0  0
  7 12  2  0  0  0  0
  7 21  1  0  0  0  0
  8  9  2  0  0  0  0
  8 24  1  0  0  0  0
  9 26  1  0  0  0  0
 10 27  1  0  0  0  0
 11 27  2  0  0  0  0
 12 28  1  0  0  0  0
 13 14  2  0  0  0  0
 13 29  1  0  0  0  0
 14 30  1  0  0  0  0
 15 23  1  0  0  0  0
 15 28  2  0  0  0  0
 16 25  1  0  0  0  0
 16 26  2  0  0  0  0
 17 30  2  0  0  0  0
 17 31  1  0  0  0  0
 18 32  1  0  0  0  0
 19 32  1  0  0  0  0
 19 33  2  0  0  0  0
 19 34  1  0  0  0  0
 20 22  2  0  0  0  0
 20 40  1  0  0  0  0
 21 23  2  0  0  0  0
 21 41  1  0  0  0  0
 22 49  1  0  0  0  0
 23 42  1  0  0  0  0
 24 25  2  0  0  0  0
 24 52  1  0  0  0  0
 25 58  1  0  0  0  0
 26 70  1  0  0  0  0
 27 81  1  0  0  0  0
 28 82  1  0  0  0  0
 29 31  2  0  0  0  0
 29 81  1  0  0  0  0
 30 83  1  0  0  0  0
 31 84  1  0  0  0  0
 32 64  2  0  0  0  0
 33 65  1  0  0  0  0
 33 68  1  0  0  0  0
 34 69  1  0  0  0  0
 34 75  2  0  0  0  0
 35 50  1  0  0  0  0
 35 71  1  0  0  0  0
 35 76  2  0  0  0  0
 36 61  1  0  0  0  0
 36 66  1  0  0  0  0
 36 77  2  0  0  0  0
 37 59  1  0  0  0  0
 37 70  1  0  0  0  0
 37 78  2  0  0  0  0
 38 62  1  0  0  0  0
 38 72  1  0  0  0  0
 38 79  2  0  0  0  0
 39 67  1  0  0  0  0
 39 73  1  0  0  0  0
 39 80  2  0  0  0  0
 40 43  1  0  0  0  0
 41 50  1  0  0  0  0
 42 66  1  0  0  0  0
 43 45  1  0  0  0  0
 44 46  1  0  0  0  0
 44 47  1  0  0  0  0
 45 49  1  0  0  0  0
 46 51  1  0  0  0  0
 47 67  1  0  0  0  0
 48 51  1  0  0  0  0
 48 67  1  0  0  0  0
 49 71  1  0  0  0  0
 50 66  1  0  0  0  0
 51 65  1  0  0  0  0
 53 62  1  0  0  0  0
 54 63  1  0  0  0  0
 55 63  1  0  0  0  0
 56 63  1  0  0  0  0
 57 74  1  0  0  0  0
 58 73  1  0  0  0  0
 59 60  1  0  0  0  0
 60 82  1  0  0  0  0
 61 63  1  0  0  0  0
 61 72  1  0  0  0  0
 62 74  1  0  0  0  0
 64 65  1  0  0  0  0
M  CHG  1  74   1
M  ISO  4  39 100  60 101  73 100  82 101
M  END
> <Batch ID>
0108

> <Smiles>
CNC(C)C(=O)NC(C(=O)N1Cc2cc([101O:1][101CH2:1]CC(=O)Nc3ccc(C)c(C[100NH:0][100C:0](=O)N4CCCC(n5nc(-c6ccc(Oc7ccc(F)cc7F)cc6)c(C(N)=O)c5N)C4)c3)ccc2CC1C(=O)NC1CCCc2ccccc21)C(C)(C)C

> <Shape>
0.244

> <Color>
0.075

> <Negative vol penalty>
0.000

$$$$

  -OEChem-04052301203D

 84 92  0     1  0  0  0  0  0999 V2000
  -28.0341  -30.2907   27.9774 C   0  0  0  0  0  0  0  0  0  0  0  0
  -27.9794  -29.4094   26.9024 C   0  0  0  0  0  0  0  0  0  0  0  0
  -24.7268   -8.7393   21.5716 C   0  0  0  0  0  0  0  0  0  0  0  0
  -22.9819  -10.2263   20.8091 C   0  0  0  0  0  0  0  0  0  0  0  0
  -26.9099  -31.0409   28.3201 C   0  0  0  0  0  0  0  0  0  0  0  0
  -26.8002  -29.2770   26.1700 C   0  0  0  0  0  0  0  0  0  0  0  0
  -27.6108  -29.2475   21.1713 C   0  0  0  0  0  0  0  0  0  0  0  0
  -23.8285   -8.1369   22.4524 C   0  0  0  0  0  0  0  0  0  0  0  0
  -22.0836   -9.6238   21.6898 C   0  0  0  0  0  0  0  0  0  0  0  0
  -28.0840  -28.0623   20.6099 C   0  0  0  0  0  0  0  0  0  0  0  0
  -21.3350   -5.8585   22.2957 C   0  0  0  0  0  0  0  0  0  0  0  0
  -21.3264   -4.4652   22.3605 C   0  0  0  0  0  0  0  0  0  0  0  0
  -25.8494  -27.5242   19.8775 C   0  0  0  0  0  0  0  0  0  0  0  0
  -24.5181  -17.9876   18.9212 C   0  0  0  0  0  0  0  0  0  0  0  0
  -26.3805  -19.0387   20.0455 C   0  0  0  0  0  0  0  0  0  0  0  0
  -21.8931   -4.5709   24.7068 C   0  0  0  0  0  0  0  0  0  0  0  0
  -24.3035   -9.7841   20.7500 C   0  0  0  0  0  0  0  0  0  0  0  0
  -25.4957  -10.0351   18.5087 C   0  0  0  0  0  0  0  0  0  0  0  0
  -25.7193  -30.9248   27.5856 C   0  0  0  0  0  0  0  0  0  0  0  0
  -26.2492  -29.5753   21.0993 C   0  0  0  0  0  0  0  0  0  0  0  0
  -25.6587  -30.0254   26.5040 C   0  0  0  0  0  0  0  0  0  0  0  0
  -25.3619  -28.7154   20.4365 C   0  0  0  0  0  0  0  0  0  0  0  0
  -23.7862  -19.1701   19.0281 C   0  0  0  0  0  0  0  0  0  0  0  0
  -24.3514  -20.2870   19.6436 C   0  0  0  0  0  0  0  0  0  0  0  0
  -25.8153  -17.9218   19.4299 C   0  0  0  0  0  0  0  0  0  0  0  0
  -22.5069   -8.5791   22.5115 C   0  0  0  0  0  0  0  0  0  0  0  0
  -27.2028  -27.1990   19.9655 C   0  0  0  0  0  0  0  0  0  0  0  0
  -21.6227   -6.6081   23.4364 C   0  0  0  0  0  0  0  0  0  0  0  0
  -25.6485  -20.2212   20.1524 C   0  0  0  0  0  0  0  0  0  0  0  0
  -21.6054   -3.8214   23.5661 C   0  0  0  0  0  0  0  0  0  0  0  0
  -21.9017   -5.9642   24.6419 C   0  0  0  0  0  0  0  0  0  0  0  0
  -25.2311  -10.4072   19.8404 C   0  0  0  0  0  0  0  0  0  0  0  0
  -26.4449  -10.9323   18.0837 C   0  0  0  0  0  0  0  0  0  0  0  0
  -24.9337   -8.9735   17.7259 C   0  0  0  0  0  0  0  0  0  0  0  0
  -23.9419  -30.0554   23.2322 C   0  0  0  0  0  0  0  0  0  0  0  0
  -22.2300  -30.9038   20.6108 C   0  0  0  0  0  0  0  0  0  0  0  0
  -21.7945  -30.6688   17.2341 C   0  0  0  0  0  0  0  0  0  0  0  0
  -27.8576  -16.4872   19.7723 C   0  0  0  0  0  0  0  0  0  0  0  0
  -24.5158  -31.7217   28.0230 C   0  0  0  0  0  0  0  0  0  0  0  0
  -25.7592  -30.8704   21.6866 C   0  0  0  0  0  0  0  0  0  0  0  0
  -23.8943  -29.0309   20.3142 C   0  0  0  0  0  0  0  0  0  0  0  0
  -23.4190  -31.7993   26.9641 C   0  0  0  0  0  0  0  0  0  0  0  0
  -30.0214  -13.6601   19.7273 C   0  0  0  0  0  0  0  0  0  0  0  0
  -23.1546  -30.4207   26.3673 C   0  0  0  0  0  0  0  0  0  0  0  0
  -29.0629  -12.4715   19.6238 C   0  0  0  0  0  0  0  0  0  0  0  0
  -29.4521  -14.7730   20.6053 C   0  0  0  0  0  0  0  0  0  0  0  0
  -27.1482  -14.0411   20.1309 C   0  0  0  0  0  0  0  0  0  0  0  0
  -24.4053  -29.8722   25.6700 C   0  0  1  0  0  0  0  0  0  0  0  0
  -24.2669  -30.8561   22.0031 C   0  0  1  0  0  0  0  0  0  0  0  0
  -27.6500  -12.9219   19.2039 C   0  0  2  0  0  0  0  0  0  0  0  0
  -22.3991  -19.2151   18.4756 C   0  0  0  0  0  0  0  0  0  0  0  0
  -23.5721  -21.5580   19.7591 C   0  0  0  0  0  0  0  0  0  0  0  0
  -20.2865  -31.4431   15.3838 C   0  0  0  0  0  0  0  0  0  0  0  0
  -20.1175  -28.8859   21.4914 C   0  0  0  0  0  0  0  0  0  0  0  0
  -19.1434  -29.0055   19.1882 C   0  0  0  0  0  0  0  0  0  0  0  0
  -19.2005  -31.0448   20.6238 C   0  0  0  0  0  0  0  0  0  0  0  0
  -24.0087  -32.0713   15.8595 C   0  0  0  0  0  0  0  0  0  0  0  0
  -28.7489  -23.9253   19.8321 C   0  0  0  0  0  0  0  0  0  0  0  0
  -27.4806  -23.3163   20.4199 C   0  0  0  0  0  0  0  0  0  0  0  0
  -28.7948  -25.4337   20.0368 C   0  0  0  0  0  0  0  0  0  1  0  0
  -27.4135  -21.8150   20.1779 C   0  0  0  0  0  0  0  0  0  0  0  0
  -21.3525  -30.1721   19.6241 C   0  0  1  0  0  0  0  0  0  0  0  0
  -21.5547  -31.7279   16.1733 C   0  0  2  0  0  0  0  0  0  0  0  0
  -19.9807  -29.7699   20.2357 C   0  0  0  0  0  0  0  0  0  0  0  0
  -25.9539  -11.4587   20.2353 N   0  0  0  0  0  0  0  0  0  0  0  0
  -26.6821  -11.7549   19.1453 N   0  0  0  0  0  0  0  0  0  0  0  0
  -23.4625  -30.3061   20.9101 N   0  0  0  0  0  0  0  0  0  0  0  0
  -28.1140  -15.1509   20.1455 N   0  0  0  0  0  0  0  0  0  0  0  0
  -27.0914  -11.0897   16.9091 N   0  0  0  0  0  0  0  0  0  0  0  0
  -23.9703   -8.1450   18.3174 N   0  0  0  0  0  0  0  0  0  0  0  0
  -26.5590  -16.7207   19.3208 N   0  0  0  0  0  0  0  0  0  0  0  0
  -24.5780  -30.4978   24.3764 N   0  0  0  0  0  0  0  0  0  0  0  0
  -21.2540  -31.0318   18.4495 N   0  0  0  0  0  0  0  0  0  0  0  0
  -22.7001  -31.7761   15.2212 N   0  3  0  0  0  0  0  0  0  0  0  0
  -25.2877   -8.7554   16.5424 O   0  0  0  0  0  0  0  0  0  0  0  0
  -23.1699  -29.1073   23.1490 O   0  0  0  0  0  0  0  0  0  0  0  0
  -21.8396  -31.9701   21.0925 O   0  0  0  0  0  0  0  0  0  0  0  0
  -22.3976  -29.6224   17.0063 O   0  0  0  0  0  0  0  0  0  0  0  0
  -28.7337  -17.3544   19.8219 O   0  0  0  0  0  0  0  0  0  0  0  0
  -21.6300   -7.9913   23.3706 O   0  0  0  0  0  0  0  0  0  0  0  0
  -27.6619  -26.0412   19.4173 O   0  0  0  0  0  0  0  0  0  1  0  0
  -26.2206  -21.3084   20.7605 O   0  0  0  0  0  0  0  0  0  0  0  0
  -21.5956   -2.4834   23.6285 F   0  0  0  0  0  0  0  0  0  0  0  0
  -22.1776   -6.6790   25.7414 F   0  0  0  0  0  0  0  0  0  0  0  0
  1  2  1  0  0  0  0
  1  5  2  0  0  0  0
  2  6  2  0  0  0  0
  3  8  2  0  0  0  0
  3 17  1  0  0  0  0
  4  9  1  0  0  0  0
  4 17  2  0  0  0  0
  5 19  1  0  0  0  0
  6 21  1  0  0  0  0
  7 10  2  0  0  0  0
  7 20  1  0  0  0  0
  8 26  1  0  0  0  0
  9 26  2  0  0  0  0
 10 27  1  0  0  0  0
 11 12  2  0  0  0  0
 11 28  1  0  0  0  0
 12 30  1  0  0  0  0
 13 22  1  0  0  0  0
 13 27  2  0  0  0  0
 14 23  2  0  0  0  0
 14 25  1  0  0  0  0
 15 25  2  0  0  0  0
 15 29  1  0  0  0  0
 16 30  2  0  0  0  0
 16 31  1  0  0  0  0
 17 32  1  0  0  0  0
 18 32  1  0  0  0  0
 18 33  2  0  0  0  0
 18 34  1  0  0  0  0
 19 21  2  0  0  0  0
 19 39  1  0  0  0  0
 20 22  2  0  0  0  0
 20 40  1  0  0  0  0
 21 48  1  0  0  0  0
 22 41  1  0  0  0  0
 23 24  1  0  0  0  0
 23 51  1  0  0  0  0
 24 29  2  0  0  0  0
 24 52  1  0  0  0  0
 25 71  1  0  0  0  0
 26 80  1  0  0  0  0
 27 81  1  0  0  0  0
 28 31  2  0  0  0  0
 28 80  1  0  0  0  0
 29 82  1  0  0  0  0
 30 83  1  0  0  0  0
 31 84  1  0  0  0  0
 32 65  2  0  0  0  0
 33 66  1  0  0  0  0
 33 69  1  0  0  0  0
 34 70  1  0  0  0  0
 34 75  2  0  0  0  0
 35 49  1  0  0  0  0
 35 72  1  0  0  0  0
 35 76  2  0  0  0  0
 36 62  1  0  0  0  0
 36 67  1  0  0  0  0
 36 77  2  0  0  0  0
 37 63  1  0  0  0  0
 37 73  1  0  0  0  0
 37 78  2  0  0  0  0
 38 68  1  0  0  0  0
 38 71  1  0  0  0  0
 38 79  2  0  0  0  0
 39 42  1  0  0  0  0
 40 49  1  0  0  0  0
 41 67  1  0  0  0  0
 42 44  1  0  0  0  0
 43 45  1  0  0  0  0
 43 46  1  0  0  0  0
 44 48  1  0  0  0  0
 45 50  1  0  0  0  0
 46 68  1  0  0  0  0
 47 50  1  0  0  0  0
 47 68  1  0  0  0  0
 48 72  1  0  0  0  0
 49 67  1  0  0  0  0
 50 66  1  0  0  0  0
 53 63  1  0  0  0  0
 54 64  1  0  0  0  0
 55 64  1  0  0  0  0
 56 64  1  0  0  0  0
 57 74  1  0  0  0  0
 58 59  1  0  0  0  0
 58 60  1  0  0  0  0
 59 61  1  0  0  0  0
 60 81  1  0  0  0  0
 61 82  1  0  0  0  0
 62 64  1  0  0  0  0
 62 73  1  0  0  0  0
 63 74  1  0  0  0  0
 65 66  1  0  0  0  0
M  CHG  1  74   1
M  ISO  4  38 100  60 101  71 100  81 101
M  END
> <Batch ID>
0108

> <Smiles>
CNC(C)C(=O)NC(C(=O)N1Cc2cc([101O:1][101CH2:1]CCCOc3cc([100NH:0][100C:0](=O)N4CCCC(n5nc(-c6ccc(Oc7ccc(F)cc7F)cc6)c(C(N)=O)c5N)C4)cc(C)c3C)ccc2CC1C(=O)NC1CCCc2ccccc21)C(C)(C)C

> <Shape>
0.257

> <Color>
0.111

> <Negative vol penalty>
0.000

$$$$

  -OEChem-04052301203D

 87 96  0     1  0  0  0  0  0999 V2000
  -28.5384  -11.3801   20.1284 C   0  0  0  0  0  0  0  0  0  0  0  0
  -28.7357  -12.7093   19.7685 C   0  0  0  0  0  0  0  0  0  0  0  0
  -24.2539  -27.4896   20.7015 C   0  0  0  0  0  0  0  0  0  0  0  0
  -24.6641  -29.7535   21.4388 C   0  0  0  0  0  0  0  0  0  0  0  0
  -27.2605  -10.9307   20.4583 C   0  0  0  0  0  0  0  0  0  0  0  0
  -27.6548  -13.5898   19.7372 C   0  0  0  0  0  0  0  0  0  0  0  0
  -28.7160  -18.0459   21.8964 C   0  0  0  0  0  0  0  0  0  0  0  0
  -31.3325  -23.5858   22.5238 C   0  0  0  0  0  0  0  0  0  0  0  0
  -31.3576  -24.0654   23.8334 C   0  0  0  0  0  0  0  0  0  0  0  0
  -22.8793  -27.7124   20.7819 C   0  0  0  0  0  0  0  0  0  0  0  0
  -23.2895  -29.9763   21.5192 C   0  0  0  0  0  0  0  0  0  0  0  0
  -29.4669  -18.9525   21.1495 C   0  0  0  0  0  0  0  0  0  0  0  0
  -20.5128  -27.8328   23.1922 C   0  0  0  0  0  0  0  0  0  0  0  0
  -19.7313  -26.8468   23.7942 C   0  0  0  0  0  0  0  0  0  0  0  0
  -27.4471  -20.1352   20.5657 C   0  0  0  0  0  0  0  0  0  0  0  0
  -29.4119  -24.9737   22.0523 C   0  0  0  0  0  0  0  0  0  0  0  0
  -18.4814  -26.5851   21.7432 C   0  0  0  0  0  0  0  0  0  0  0  0
  -25.1463  -28.5101   21.0300 C   0  0  0  0  0  0  0  0  0  0  0  0
  -27.3044  -27.9205   19.8041 C   0  0  0  0  0  0  0  0  0  0  0  0
  -26.1650  -11.8084   20.4404 C   0  0  0  0  0  0  0  0  0  0  0  0
  -27.3215  -18.1709   21.9748 C   0  0  0  0  0  0  0  0  0  0  0  0
  -26.3608  -13.1514   20.0659 C   0  0  0  0  0  0  0  0  0  0  0  0
  -26.6810  -19.2303   21.3163 C   0  0  0  0  0  0  0  0  0  0  0  0
  -29.4370  -25.4533   23.3619 C   0  0  0  0  0  0  0  0  0  0  0  0
  -30.3596  -24.0400   21.6333 C   0  0  0  0  0  0  0  0  0  0  0  0
  -30.4099  -24.9991   24.2524 C   0  0  0  0  0  0  0  0  0  0  0  0
  -22.3971  -28.9558   21.1907 C   0  0  0  0  0  0  0  0  0  0  0  0
  -28.8322  -19.9957   20.4817 C   0  0  0  0  0  0  0  0  0  0  0  0
  -20.2786  -28.1951   21.8656 C   0  0  0  0  0  0  0  0  0  0  0  0
  -18.7156  -26.2229   23.0698 C   0  0  0  0  0  0  0  0  0  0  0  0
  -19.2630  -27.5712   21.1412 C   0  0  0  0  0  0  0  0  0  0  0  0
  -26.5663  -28.2803   20.9477 C   0  0  0  0  0  0  0  0  0  0  0  0
  -28.6005  -27.8243   20.2483 C   0  0  0  0  0  0  0  0  0  0  0  0
  -29.4159  -23.9172   19.2831 C   0  0  0  0  0  0  0  0  0  0  0  0
  -26.8582  -27.6936   18.4606 C   0  0  0  0  0  0  0  0  0  0  0  0
  -24.8552  -16.3569   21.1198 C   0  0  0  0  0  0  0  0  0  0  0  0
  -23.1403  -18.6515   22.6418 C   0  0  0  0  0  0  0  0  0  0  0  0
  -22.9467  -21.8798   23.7315 C   0  0  0  0  0  0  0  0  0  0  0  0
  -30.6274  -26.8416   25.9404 C   0  0  0  0  0  0  0  0  0  0  0  0
  -24.7945  -11.2654   20.7591 C   0  0  0  0  0  0  0  0  0  0  0  0
  -26.5286  -17.2003   22.8064 C   0  0  0  0  0  0  0  0  0  0  0  0
  -25.1885  -19.4204   21.3852 C   0  0  0  0  0  0  0  0  0  0  0  0
  -29.7884  -23.1652   18.0273 C   0  0  0  0  0  0  0  0  0  0  0  0
  -23.7651  -12.3506   21.0639 C   0  0  0  0  0  0  0  0  0  0  0  0
  -31.2251  -22.7480   18.2785 C   0  0  0  0  0  0  0  0  0  0  0  0
  -31.5791  -29.5254   23.5773 C   0  0  0  0  0  0  0  0  0  0  0  0
  -23.8418  -13.4658   20.0260 C   0  0  0  0  0  0  0  0  0  0  0  0
  -30.4170  -29.5324   22.5859 C   0  0  0  0  0  0  0  0  0  0  0  0
  -31.1407  -29.0545   24.9606 C   0  0  0  0  0  0  0  0  0  0  0  0
  -29.3056  -27.7252   23.9572 C   0  0  0  0  0  0  0  0  0  0  0  0
  -25.2176  -14.1428   20.0442 C   0  0  1  0  0  0  0  0  0  0  0  0
  -25.0612  -17.1219   22.3966 C   0  0  1  0  0  0  0  0  0  0  0  0
  -29.7301  -28.1574   22.5456 C   0  0  1  0  0  0  0  0  0  0  0  0
  -31.2886  -22.5612   19.7903 C   0  0  2  0  0  0  0  0  0  0  0  0
  -26.9882  -25.9361   23.6000 C   0  0  0  0  0  0  0  0  0  0  0  0
  -21.4058  -23.4724   24.9090 C   0  0  0  0  0  0  0  0  0  0  0  0
  -21.4788  -18.9215   20.0970 C   0  0  0  0  0  0  0  0  0  0  0  0
  -20.6256  -21.1077   20.9692 C   0  0  0  0  0  0  0  0  0  0  0  0
  -20.1574  -19.0001   22.2189 C   0  0  0  0  0  0  0  0  0  0  0  0
  -30.5838  -24.5014   26.6840 C   0  0  0  0  0  0  0  0  0  0  0  0
  -24.8687  -22.2848   25.9453 C   0  0  0  0  0  0  0  0  0  0  0  0
  -28.4111  -26.4546   23.7832 C   0  0  0  0  0  0  0  0  0  0  0  0
  -30.8986  -21.1348   20.1846 C   0  0  0  0  0  0  0  0  0  1  0  0
  -22.4984  -19.9549   22.2320 C   0  0  1  0  0  0  0  0  0  0  0  0
  -22.5368  -22.4685   25.0693 C   0  0  2  0  0  0  0  0  0  0  0  0
  -21.2180  -19.7416   21.3762 C   0  0  0  0  0  0  0  0  0  0  0  0
  -27.3301  -28.4042   22.0364 N   0  0  0  0  0  0  0  0  0  0  0  0
  -28.5615  -28.1205   21.5790 N   0  0  0  0  0  0  0  0  0  0  0  0
  -30.3357  -23.5495   20.2881 N   0  0  0  0  0  0  0  0  0  0  0  0
  -24.4563  -18.4417   22.2059 N   0  0  0  0  0  0  0  0  0  0  0  0
  -30.4354  -27.7733   24.8996 N   0  0  0  0  0  0  0  0  0  0  0  0
  -29.7584  -27.5161   19.6264 N   0  0  0  0  0  0  0  0  0  0  0  0
  -26.8279  -28.7789   17.5743 N   0  0  0  0  0  0  0  0  0  0  0  0
  -25.3171  -15.0553   21.1630 N   0  0  0  0  0  0  0  0  0  0  0  0
  -22.2760  -20.7053   23.4633 N   0  0  0  0  0  0  0  0  0  0  0  0
  -30.4540  -25.4839   25.6103 N   0  0  0  0  0  0  0  0  0  0  0  0
  -23.6926  -23.1605   25.7067 N   0  3  0  0  0  0  0  0  0  0  0  0
  -28.4511  -24.6666   19.3305 O   0  0  0  0  0  0  0  0  0  0  0  0
  -26.4816  -26.5652   18.0625 O   0  0  0  0  0  0  0  0  0  0  0  0
  -24.3157  -16.9065   20.1666 O   0  0  0  0  0  0  0  0  0  0  0  0
  -22.5003  -17.8521   23.3296 O   0  0  0  0  0  0  0  0  0  0  0  0
  -23.7760  -22.4108   22.9961 O   0  0  0  0  0  0  0  0  0  0  0  0
  -30.8810  -27.1968   27.0980 O   0  0  0  0  0  0  0  0  0  0  0  0
  -21.0559  -29.1737   21.2691 O   0  0  0  0  0  0  0  0  0  0  0  0
  -29.5627  -20.8817   19.7514 O   0  0  0  0  0  0  0  0  0  1  0  0
  -17.9662  -25.2749   23.6476 F   0  0  0  0  0  0  0  0  0  0  0  0
  -19.0340  -27.9141   19.8661 F   0  0  0  0  0  0  0  0  0  0  0  0
  1  2  1  0  0  0  0
  1  5  2  0  0  0  0
  2  6  2  0  0  0  0
  3 10  2  0  0  0  0
  3 18  1  0  0  0  0
  4 11  1  0  0  0  0
  4 18  2  0  0  0  0
  5 20  1  0  0  0  0
  6 22  1  0  0  0  0
  7 12  2  0  0  0  0
  7 21  1  0  0  0  0
  8  9  2  0  0  0  0
  8 25  1  0  0  0  0
  9 26  1  0  0  0  0
 10 27  1  0  0  0  0
 11 27  2  0  0  0  0
 12 28  1  0  0  0  0
 13 14  2  0  0  0  0
 13 29  1  0  0  0  0
 14 30  1  0  0  0  0
 15 23  1  0  0  0  0
 15 28  2  0  0  0  0
 16 24  1  0  0  0  0
 16 25  2  0  0  0  0
 17 30  2  0  0  0  0
 17 31  1  0  0  0  0
 18 32  1  0  0  0  0
 19 32  1  0  0  0  0
 19 33  2  0  0  0  0
 19 35  1  0  0  0  0
 20 22  2  0  0  0  0
 20 40  1  0  0  0  0
 21 23  2  0  0  0  0
 21 41  1  0  0  0  0
 22 51  1  0  0  0  0
 23 42  1  0  0  0  0
 24 26  2  0  0  0  0
 24 62  1  0  0  0  0
 25 69  1  0  0  0  0
 26 76  1  0  0  0  0
 27 84  1  0  0  0  0
 28 85  1  0  0  0  0
 29 31  2  0  0  0  0
 29 84  1  0  0  0  0
 30 86  1  0  0  0  0
 31 87  1  0  0  0  0
 32 67  2  0  0  0  0
 33 68  1  0  0  0  0
 33 72  1  0  0  0  0
 34 43  1  0  0  0  0
 34 69  1  0  0  0  0
 34 78  2  0  0  0  0
 35 73  1  0  0  0  0
 35 79  2  0  0  0  0
 36 52  1  0  0  0  0
 36 74  1  0  0  0  0
 36 80  2  0  0  0  0
 37 64  1  0  0  0  0
 37 70  1  0  0  0  0
 37 81  2  0  0  0  0
 38 65  1  0  0  0  0
 38 75  1  0  0  0  0
 38 82  2  0  0  0  0
 39 71  1  0  0  0  0
 39 76  1  0  0  0  0
 39 83  2  0  0  0  0
 40 44  1  0  0  0  0
 41 52  1  0  0  0  0
 42 70  1  0  0  0  0
 43 45  1  0  0  0  0
 44 47  1  0  0  0  0
 45 54  1  0  0  0  0
 46 48  1  0  0  0  0
 46 49  1  0  0  0  0
 47 51  1  0  0  0  0
 48 53  1  0  0  0  0
 49 71  1  0  0  0  0
 50 53  1  0  0  0  0
 50 71  1  0  0  0  0
 51 74  1  0  0  0  0
 52 70  1  0  0  0  0
 53 68  1  0  0  0  0
 54 63  1  0  0  0  0
 54 69  1  0  0  0  0
 55 62  1  0  0  0  0
 56 65  1  0  0  0  0
 57 66  1  0  0  0  0
 58 66  1  0  0  0  0
 59 66  1  0  0  0  0
 60 76  1  0  0  0  0
 61 77  1  0  0  0  0
 63 85  1  0  0  0  0
 64 66  1  0  0  0  0
 64 75  1  0  0  0  0
 65 77  1  0  0  0  0
 67 68  1  0  0  0  0
M  CHG  1  77   1
M  ISO  4  39 100  63 101  76 100  85 101
M  END
> <Batch ID>
0108

> <Smiles>
CCc1cc(N2C(=O)CCC2[101CH2:1][101O:1]c2ccc3c(c2)CN(C(=O)C(NC(=O)C(C)NC)C(C)(C)C)C(C(=O)NC2CCCc4ccccc42)C3)ccc1[100N:0](C)[100C:0](=O)N1CCCC(n2nc(-c3ccc(Oc4ccc(F)cc4F)cc3)c(C(N)=O)c2N)C1

> <Shape>
0.221

> <Color>
0.062

> <Negative vol penalty>
0.000

$$$$

  -OEChem-04052301203D

 89 98  0     1  0  0  0  0  0999 V2000
  -16.9140  -30.1333   24.7005 C   0  0  0  0  0  0  0  0  0  0  0  0
  -18.1980  -30.5417   25.0433 C   0  0  0  0  0  0  0  0  0  0  0  0
  -26.7312   -9.1569   23.4419 C   0  0  0  0  0  0  0  0  0  0  0  0
  -26.9737   -8.4939   21.1314 C   0  0  0  0  0  0  0  0  0  0  0  0
  -16.7317  -29.2061   23.6767 C   0  0  0  0  0  0  0  0  0  0  0  0
  -19.2992  -30.0322   24.3545 C   0  0  0  0  0  0  0  0  0  0  0  0
  -26.9515  -28.9728   22.4721 C   0  0  0  0  0  0  0  0  0  0  0  0
  -27.6271   -8.1579   23.8226 C   0  0  0  0  0  0  0  0  0  0  0  0
  -27.8697   -7.4949   21.5120 C   0  0  0  0  0  0  0  0  0  0  0  0
  -27.8271  -28.1057   21.8201 C   0  0  0  0  0  0  0  0  0  0  0  0
  -31.1272   -7.2731   22.3836 C   0  0  0  0  0  0  0  0  0  0  0  0
  -32.2947   -7.1316   21.6336 C   0  0  0  0  0  0  0  0  0  0  0  0
  -26.4987  -28.2821   19.8142 C   0  0  0  0  0  0  0  0  0  0  0  0
  -27.8505  -20.9471   18.0270 C   0  0  0  0  0  0  0  0  0  0  0  0
  -28.1413  -18.9632   19.9666 C   0  0  0  0  0  0  0  0  0  0  0  0
  -31.6676   -4.8638   21.0851 C   0  0  0  0  0  0  0  0  0  0  0  0
  -26.4045   -9.3249   22.0963 C   0  0  0  0  0  0  0  0  0  0  0  0
  -24.1377  -10.4950   22.1080 C   0  0  0  0  0  0  0  0  0  0  0  0
  -17.8326  -28.6760   22.9839 C   0  0  0  0  0  0  0  0  0  0  0  0
  -25.8349  -29.4934   21.8022 C   0  0  0  0  0  0  0  0  0  0  0  0
  -19.1344  -29.1135   23.3021 C   0  0  0  0  0  0  0  0  0  0  0  0
  -25.6119  -29.1576   20.4592 C   0  0  0  0  0  0  0  0  0  0  0  0
  -27.2682  -19.6942   17.8358 C   0  0  0  0  0  0  0  0  0  0  0  0
  -28.7237  -20.2162   20.1578 C   0  0  0  0  0  0  0  0  0  0  0  0
  -28.5784  -21.2081   19.1879 C   0  0  0  0  0  0  0  0  0  0  0  0
  -27.4136  -18.7022   18.8056 C   0  0  0  0  0  0  0  0  0  0  0  0
  -28.1964   -7.3269   22.8577 C   0  0  0  0  0  0  0  0  0  0  0  0
  -27.5992  -27.7579   20.4919 C   0  0  0  0  0  0  0  0  0  0  0  0
  -30.2299   -6.2099   22.4845 C   0  0  0  0  0  0  0  0  0  0  0  0
  -32.5649   -5.9270   20.9843 C   0  0  0  0  0  0  0  0  0  0  0  0
  -30.5001   -5.0053   21.8352 C   0  0  0  0  0  0  0  0  0  0  0  0
  -25.4786  -10.3563   21.7025 C   0  0  0  0  0  0  0  0  0  0  0  0
  -23.6982  -11.6239   21.4608 C   0  0  0  0  0  0  0  0  0  0  0  0
  -28.6960  -24.8073   18.7085 C   0  0  0  0  0  0  0  0  0  0  0  0
  -28.3997  -23.6739   19.3997 C   0  0  0  0  0  0  0  0  0  0  0  0
  -31.0374  -22.6987   17.8312 C   0  0  0  0  0  0  0  0  0  0  0  0
  -23.3589   -9.6766   22.9908 C   0  0  0  0  0  0  0  0  0  0  0  0
  -22.6878  -29.3068   22.2072 C   0  0  0  0  0  0  0  0  0  0  0  0
  -22.6407  -31.4718   19.7921 C   0  0  0  0  0  0  0  0  0  0  0  0
  -24.3801  -31.9737   16.6712 C   0  0  0  0  0  0  0  0  0  0  0  0
  -26.8847  -16.3307   19.4988 C   0  0  0  0  0  0  0  0  0  0  0  0
  -17.5773  -27.6812   21.8791 C   0  0  0  0  0  0  0  0  0  0  0  0
  -24.9148  -30.4486   22.5115 C   0  0  0  0  0  0  0  0  0  0  0  0
  -24.4390  -29.7052   19.6891 C   0  0  0  0  0  0  0  0  0  0  0  0
  -29.8386  -24.9318   17.7060 C   0  0  0  0  0  0  0  0  0  0  0  0
  -30.2545  -23.6611   16.9654 C   0  0  0  0  0  0  0  0  0  0  0  0
  -30.6303  -22.5539   19.2771 C   0  0  0  0  0  0  0  0  0  0  0  0
  -18.8157  -26.8703   21.5115 C   0  0  0  0  0  0  0  0  0  0  0  0
  -25.1207  -13.7028   17.3293 C   0  0  0  0  0  0  0  0  0  0  0  0
  -20.0004  -27.7999   21.2953 C   0  0  0  0  0  0  0  0  0  0  0  0
  -24.3219  -12.9771   18.4094 C   0  0  0  0  0  0  0  0  0  0  0  0
  -25.4893  -15.1230   17.7396 C   0  0  0  0  0  0  0  0  0  0  0  0
  -26.1903  -13.9674   19.8442 C   0  0  0  0  0  0  0  0  0  0  0  0
  -20.3491  -28.5497   22.5873 C   0  0  1  0  0  0  0  0  0  0  0  0
  -23.5242  -30.5133   21.8874 C   0  0  1  0  0  0  0  0  0  0  0  0
  -24.8072  -13.2978   19.8369 C   0  0  2  0  0  0  0  0  0  0  0  0
  -26.4948  -19.4422   16.5823 C   0  0  0  0  0  0  0  0  0  0  0  0
  -29.4979  -20.4691   21.4105 C   0  0  0  0  0  0  0  0  0  0  0  0
  -27.2245  -23.6441   20.3604 C   0  0  0  0  0  0  0  0  0  0  0  0
  -24.8486  -34.0766   15.3844 C   0  0  0  0  0  0  0  0  0  0  0  0
  -20.0814  -30.7748   18.2841 C   0  0  0  0  0  0  0  0  0  0  0  0
  -21.1802  -31.5847   16.1853 C   0  0  0  0  0  0  0  0  0  0  0  0
  -20.7958  -33.1627   18.0788 C   0  0  0  0  0  0  0  0  0  0  0  0
  -27.2914  -31.4426   16.6379 C   0  0  0  0  0  0  0  0  0  0  0  0
  -27.9023  -26.0901   18.8237 C   0  0  0  0  0  0  0  0  0  1  0  0
  -22.5884  -31.3919   18.2855 C   0  0  1  0  0  0  0  0  0  0  0  0
  -25.4021  -33.0533   16.3638 C   0  0  2  0  0  0  0  0  0  0  0  0
  -21.1734  -31.7079   17.7240 C   0  0  0  0  0  0  0  0  0  0  0  0
  -25.8656  -11.3200   20.8625 N   0  0  0  0  0  0  0  0  0  0  0  0
  -24.7612  -12.0750   20.7349 N   0  0  0  0  0  0  0  0  0  0  0  0
  -29.1658  -22.4931   19.3662 N   0  0  0  0  0  0  0  0  0  0  0  0
  -23.5644  -30.6305   20.4284 N   0  0  0  0  0  0  0  0  0  0  0  0
  -26.1940  -15.1871   19.0282 N   0  0  0  0  0  0  0  0  0  0  0  0
  -22.5102  -12.2647   21.4473 N   0  0  0  0  0  0  0  0  0  0  0  0
  -22.6357   -8.6067   22.4462 N   0  0  0  0  0  0  0  0  0  0  0  0
  -26.8301  -17.4227   18.6287 N   0  0  0  0  0  0  0  0  0  0  0  0
  -21.3334  -29.5674   22.2916 N   0  0  0  0  0  0  0  0  0  0  0  0
  -23.6382  -32.2773   17.7931 N   0  0  0  0  0  0  0  0  0  0  0  0
  -26.6294  -32.4509   15.7707 N   0  3  0  0  0  0  0  0  0  0  0  0
  -31.9728  -22.0453   17.3671 O   0  0  0  0  0  0  0  0  0  0  0  0
  -23.2929   -9.8977   24.2238 O   0  0  0  0  0  0  0  0  0  0  0  0
  -23.2308  -28.2195   22.3642 O   0  0  0  0  0  0  0  0  0  0  0  0
  -21.8946  -32.2572   20.3823 O   0  0  0  0  0  0  0  0  0  0  0  0
  -24.2502  -30.9640   15.9827 O   0  0  0  0  0  0  0  0  0  0  0  0
  -27.4617  -16.3363   20.5883 O   0  0  0  0  0  0  0  0  0  0  0  0
  -29.0709   -6.3522   23.2288 O   0  0  0  0  0  0  0  0  0  0  0  0
  -28.4520  -26.9112   19.8533 O   0  0  0  0  0  0  0  0  0  1  0  0
  -33.6853   -5.7918   20.2629 F   0  0  0  0  0  0  0  0  0  0  0  0
  -29.6412   -3.9807   21.9274 F   0  0  0  0  0  0  0  0  0  0  0  0
  1  2  1  0  0  0  0
  1  5  2  0  0  0  0
  2  6  2  0  0  0  0
  3  8  2  0  0  0  0
  3 17  1  0  0  0  0
  4  9  1  0  0  0  0
  4 17  2  0  0  0  0
  5 19  1  0  0  0  0
  6 21  1  0  0  0  0
  7 10  2  0  0  0  0
  7 20  1  0  0  0  0
  8 27  1  0  0  0  0
  9 27  2  0  0  0  0
 10 28  1  0  0  0  0
 11 12  2  0  0  0  0
 11 29  1  0  0  0  0
 12 30  1  0  0  0  0
 13 22  1  0  0  0  0
 13 28  2  0  0  0  0
 14 23  2  0  0  0  0
 14 25  1  0  0  0  0
 15 24  1  0  0  0  0
 15 26  2  0  0  0  0
 16 30  2  0  0  0  0
 16 31  1  0  0  0  0
 17 32  1  0  0  0  0
 18 32  1  0  0  0  0
 18 33  2  0  0  0  0
 18 37  1  0  0  0  0
 19 21  2  0  0  0  0
 19 42  1  0  0  0  0
 20 22  2  0  0  0  0
 20 43  1  0  0  0  0
 21 54  1  0  0  0  0
 22 44  1  0  0  0  0
 23 26  1  0  0  0  0
 23 57  1  0  0  0  0
 24 25  2  0  0  0  0
 24 58  1  0  0  0  0
 25 71  1  0  0  0  0
 26 76  1  0  0  0  0
 27 86  1  0  0  0  0
 28 87  1  0  0  0  0
 29 31  2  0  0  0  0
 29 86  1  0  0  0  0
 30 88  1  0  0  0  0
 31 89  1  0  0  0  0
 32 69  2  0  0  0  0
 33 70  1  0  0  0  0
 33 74  1  0  0  0  0
 34 35  2  0  0  0  0
 34 45  1  0  0  0  0
 34 65  1  0  0  0  0
 35 59  1  0  0  0  0
 35 71  1  0  0  0  0
 36 46  1  0  0  0  0
 36 47  1  0  0  0  0
 36 80  2  0  0  0  0
 37 75  1  0  0  0  0
 37 81  2  0  0  0  0
 38 55  1  0  0  0  0
 38 77  1  0  0  0  0
 38 82  2  0  0  0  0
 39 66  1  0  0  0  0
 39 72  1  0  0  0  0
 39 83  2  0  0  0  0
 40 67  1  0  0  0  0
 40 78  1  0  0  0  0
 40 84  2  0  0  0  0
 41 73  1  0  0  0  0
 41 76  1  0  0  0  0
 41 85  2  0  0  0  0
 42 48  1  0  0  0  0
 43 55  1  0  0  0  0
 44 72  1  0  0  0  0
 45 46  1  0  0  0  0
 47 71  1  0  0  0  0
 48 50  1  0  0  0  0
 49 51  1  0  0  0  0
 49 52  1  0  0  0  0
 50 54  1  0  0  0  0
 51 56  1  0  0  0  0
 52 73  1  0  0  0  0
 53 56  1  0  0  0  0
 53 73  1  0  0  0  0
 54 77  1  0  0  0  0
 55 72  1  0  0  0  0
 56 70  1  0  0  0  0
 60 67  1  0  0  0  0
 61 68  1  0  0  0  0
 62 68  1  0  0  0  0
 63 68  1  0  0  0  0
 64 79  1  0  0  0  0
 65 87  1  0  0  0  0
 66 68  1  0  0  0  0
 66 78  1  0  0  0  0
 67 79  1  0  0  0  0
 69 70  1  0  0  0  0
M  CHG  1  79   1
M  ISO  4  41 100  65 101  76 100  87 101
M  END
> <Batch ID>
0108

> <Smiles>
CNC(C)C(=O)NC(C(=O)N1Cc2cc([101O:1][101CH2:1]C3=C(C)N(c4cc(C)c([100NH:0][100C:0](=O)N5CCCC(n6nc(-c7ccc(Oc8ccc(F)cc8F)cc7)c(C(N)=O)c6N)C5)cc4C)CC(=O)CC3)ccc2CC1C(=O)NC1CCCc2ccccc21)C(C)(C)C

> <Shape>
0.256

> <Color>
0.119

> <Negative vol penalty>
0.000

$$$$

  -OEChem-04052301202D

  0  0  0     0  0  0  0  0  0999 V2000
M  END
$$$$

  -OEChem-04052301203D

 87 96  0     1  0  0  0  0  0999 V2000
  -20.5049  -35.7760   16.8992 C   0  0  0  0  0  0  0  0  0  0  0  0
  -20.9287  -34.4872   16.5912 C   0  0  0  0  0  0  0  0  0  0  0  0
  -25.1397  -10.3536   23.2662 C   0  0  0  0  0  0  0  0  0  0  0  0
  -24.8068  -12.6611   23.9000 C   0  0  0  0  0  0  0  0  0  0  0  0
  -21.2340  -36.5519   17.7994 C   0  0  0  0  0  0  0  0  0  0  0  0
  -22.0824  -33.9739   17.1826 C   0  0  0  0  0  0  0  0  0  0  0  0
  -24.8929  -27.8107   19.5133 C   0  0  0  0  0  0  0  0  0  0  0  0
  -31.2518  -19.4525   19.4545 C   0  0  0  0  0  0  0  0  0  0  0  0
  -30.7576  -18.2132   19.0476 C   0  0  0  0  0  0  0  0  0  0  0  0
  -25.0680   -9.9751   24.6068 C   0  0  0  0  0  0  0  0  0  0  0  0
  -24.7350  -12.2826   25.2406 C   0  0  0  0  0  0  0  0  0  0  0  0
  -26.0405  -27.0307   19.3774 C   0  0  0  0  0  0  0  0  0  0  0  0
  -22.6604   -9.4602   26.9244 C   0  0  0  0  0  0  0  0  0  0  0  0
  -21.8819   -8.3476   27.2430 C   0  0  0  0  0  0  0  0  0  0  0  0
  -27.1759  -28.4331   20.9784 C   0  0  0  0  0  0  0  0  0  0  0  0
  -28.6264  -18.7302   20.0613 C   0  0  0  0  0  0  0  0  0  0  0  0
  -23.8304   -7.2439   28.1498 C   0  0  0  0  0  0  0  0  0  0  0  0
  -25.0092  -11.6967   22.9128 C   0  0  0  0  0  0  0  0  0  0  0  0
  -24.0179  -12.1861   20.6138 C   0  0  0  0  0  0  0  0  0  0  0  0
  -22.3919  -36.0443   18.4095 C   0  0  0  0  0  0  0  0  0  0  0  0
  -24.8817  -28.9161   20.3761 C   0  0  0  0  0  0  0  0  0  0  0  0
  -22.8284  -34.7442   18.0908 C   0  0  0  0  0  0  0  0  0  0  0  0
  -26.0261  -29.2240   21.1254 C   0  0  0  0  0  0  0  0  0  0  0  0
  -30.4332  -20.3307   20.1648 C   0  0  0  0  0  0  0  0  0  0  0  0
  -29.4449  -17.8521   19.3510 C   0  0  0  0  0  0  0  0  0  0  0  0
  -24.8656  -10.9395   25.5940 C   0  0  0  0  0  0  0  0  0  0  0  0
  -27.1832  -27.3436   20.1079 C   0  0  0  0  0  0  0  0  0  0  0  0
  -24.0239   -9.4647   27.2184 C   0  0  0  0  0  0  0  0  0  0  0  0
  -29.1205  -19.9695   20.4682 C   0  0  0  0  0  0  0  0  0  0  0  0
  -22.4668   -7.2395   27.8557 C   0  0  0  0  0  0  0  0  0  0  0  0
  -24.6089   -8.3566   27.8312 C   0  0  0  0  0  0  0  0  0  0  0  0
  -25.0837  -12.0885   21.5282 C   0  0  0  0  0  0  0  0  0  0  0  0
  -24.6070  -12.5938   19.4420 C   0  0  0  0  0  0  0  0  0  0  0  0
  -29.7802  -23.8528   20.2455 C   0  0  0  0  0  0  0  0  0  0  0  0
  -22.6202  -11.9310   20.8064 C   0  0  0  0  0  0  0  0  0  0  0  0
  -24.4750  -32.0467   20.0054 C   0  0  0  0  0  0  0  0  0  0  0  0
  -24.5597  -32.0475   23.2481 C   0  0  0  0  0  0  0  0  0  0  0  0
  -25.5645  -30.5025   26.1204 C   0  0  0  0  0  0  0  0  0  0  0  0
  -29.6234  -15.6046   18.2270 C   0  0  0  0  0  0  0  0  0  0  0  0
  -23.1732  -36.9376   19.3402 C   0  0  0  0  0  0  0  0  0  0  0  0
  -23.6273  -29.7314   20.5315 C   0  0  0  0  0  0  0  0  0  0  0  0
  -26.0592  -30.3881   22.0805 C   0  0  0  0  0  0  0  0  0  0  0  0
  -24.1766  -36.1833   20.2089 C   0  0  0  0  0  0  0  0  0  0  0  0
  -28.7517  -12.3577   17.0544 C   0  0  0  0  0  0  0  0  0  0  0  0
  -24.9772  -35.1964   19.3652 C   0  0  0  0  0  0  0  0  0  0  0  0
  -27.6111  -11.9316   17.9815 C   0  0  0  0  0  0  0  0  0  0  0  0
  -29.7601  -23.8404   17.8600 C   0  0  0  0  0  0  0  0  0  0  0  0
  -29.8150  -13.1646   17.7974 C   0  0  0  0  0  0  0  0  0  0  0  0
  -30.7507  -22.8054   18.3588 C   0  0  0  0  0  0  0  0  0  0  0  0
  -28.1654  -13.8929   19.4759 C   0  0  0  0  0  0  0  0  0  0  0  0
  -24.0611  -34.1430   18.7306 C   0  0  1  0  0  0  0  0  0  0  0  0
  -29.5837  -24.7775   19.0571 C   0  0  1  0  0  0  0  0  0  0  0  0
  -23.8914  -31.1408   21.0525 C   0  0  1  0  0  0  0  0  0  0  0  0
  -27.0378  -13.1328   18.7586 C   0  0  2  0  0  0  0  0  0  0  0  0
  -25.5198  -30.7618   28.6161 C   0  0  0  0  0  0  0  0  0  0  0  0
  -26.7552  -34.1585   23.0656 C   0  0  0  0  0  0  0  0  0  0  0  0
  -27.3159  -33.6818   25.4587 C   0  0  0  0  0  0  0  0  0  0  0  0
  -25.0618  -34.5669   24.8601 C   0  0  0  0  0  0  0  0  0  0  0  0
  -24.0366  -27.9921   26.4702 C   0  0  0  0  0  0  0  0  0  0  0  0
  -26.9812  -20.3660   21.4283 C   0  0  0  0  0  0  0  0  0  0  0  0
  -30.9822  -21.6603   20.5949 C   0  0  0  0  0  0  0  0  0  0  0  0
  -28.2409  -25.4819   19.0728 C   0  0  0  0  0  0  0  0  0  1  0  0
  -25.6455  -32.1741   24.2892 C   0  0  1  0  0  0  0  0  0  0  0  0
  -24.8189  -30.1738   27.4013 C   0  0  2  0  0  0  0  0  0  0  0  0
  -26.1949  -33.6245   24.3990 C   0  0  0  0  0  0  0  0  0  0  0  0
  -26.2609  -12.4083   20.9841 N   0  0  0  0  0  0  0  0  0  0  0  0
  -25.9382  -12.7107   19.7151 N   0  0  0  0  0  0  0  0  0  0  0  0
  -30.4814  -22.7431   19.7764 N   0  0  0  0  0  0  0  0  0  0  0  0
  -24.8099  -31.1589   22.1928 N   0  0  0  0  0  0  0  0  0  0  0  0
  -29.1992  -14.2883   18.5065 N   0  0  0  0  0  0  0  0  0  0  0  0
  -24.1111  -12.8600   18.2150 N   0  0  0  0  0  0  0  0  0  0  0  0
  -22.1845  -11.5194   22.0733 N   0  0  0  0  0  0  0  0  0  0  0  0
  -28.9435  -16.5928   18.9382 N   0  0  0  0  0  0  0  0  0  0  0  0
  -23.6880  -33.1429   19.7079 N   0  0  0  0  0  0  0  0  0  0  0  0
  -25.0839  -31.6523   25.5304 N   0  0  0  0  0  0  0  0  0  0  0  0
  -24.7251  -28.6974   27.5817 N   0  3  0  0  0  0  0  0  0  0  0  0
  -29.4249  -24.0887   21.3907 O   0  0  0  0  0  0  0  0  0  0  0  0
  -21.7847  -12.0484   19.8781 O   0  0  0  0  0  0  0  0  0  0  0  0
  -25.5597  -31.7724   19.5056 O   0  0  0  0  0  0  0  0  0  0  0  0
  -23.5245  -32.7070   23.3707 O   0  0  0  0  0  0  0  0  0  0  0  0
  -26.4840  -29.8106   25.6886 O   0  0  0  0  0  0  0  0  0  0  0  0
  -30.5048  -15.8398   17.3964 O   0  0  0  0  0  0  0  0  0  0  0  0
  -24.7954  -10.5704   26.9022 O   0  0  0  0  0  0  0  0  0  0  0  0
  -28.3081  -20.8155   21.1616 O   0  0  0  0  0  0  0  0  0  0  0  0
  -28.3048  -26.5844   19.9766 O   0  0  0  0  0  0  0  0  0  1  0  0
  -21.7188   -6.1717   28.1631 F   0  0  0  0  0  0  0  0  0  0  0  0
  -25.9181   -8.3555   28.1172 F   0  0  0  0  0  0  0  0  0  0  0  0
  1  2  1  0  0  0  0
  1  5  2  0  0  0  0
  2  6  2  0  0  0  0
  3 10  2  0  0  0  0
  3 18  1  0  0  0  0
  4 11  1  0  0  0  0
  4 18  2  0  0  0  0
  5 20  1  0  0  0  0
  6 22  1  0  0  0  0
  7 12  2  0  0  0  0
  7 21  1  0  0  0  0
  8  9  2  0  0  0  0
  8 24  1  0  0  0  0
  9 25  1  0  0  0  0
 10 26  1  0  0  0  0
 11 26  2  0  0  0  0
 12 27  1  0  0  0  0
 13 14  2  0  0  0  0
 13 28  1  0  0  0  0
 14 30  1  0  0  0  0
 15 23  1  0  0  0  0
 15 27  2  0  0  0  0
 16 25  2  0  0  0  0
 16 29  1  0  0  0  0
 17 30  2  0  0  0  0
 17 31  1  0  0  0  0
 18 32  1  0  0  0  0
 19 32  1  0  0  0  0
 19 33  2  0  0  0  0
 19 35  1  0  0  0  0
 20 22  2  0  0  0  0
 20 40  1  0  0  0  0
 21 23  2  0  0  0  0
 21 41  1  0  0  0  0
 22 51  1  0  0  0  0
 23 42  1  0  0  0  0
 24 29  2  0  0  0  0
 24 61  1  0  0  0  0
 25 73  1  0  0  0  0
 26 83  1  0  0  0  0
 27 85  1  0  0  0  0
 28 31  2  0  0  0  0
 28 83  1  0  0  0  0
 29 84  1  0  0  0  0
 30 86  1  0  0  0  0
 31 87  1  0  0  0  0
 32 66  2  0  0  0  0
 33 67  1  0  0  0  0
 33 71  1  0  0  0  0
 34 52  1  0  0  0  0
 34 68  1  0  0  0  0
 34 77  2  0  0  0  0
 35 72  1  0  0  0  0
 35 78  2  0  0  0  0
 36 53  1  0  0  0  0
 36 74  1  0  0  0  0
 36 79  2  0  0  0  0
 37 63  1  0  0  0  0
 37 69  1  0  0  0  0
 37 80  2  0  0  0  0
 38 64  1  0  0  0  0
 38 75  1  0  0  0  0
 38 81  2  0  0  0  0
 39 70  1  0  0  0  0
 39 73  1  0  0  0  0
 39 82  2  0  0  0  0
 40 43  1  0  0  0  0
 41 53  1  0  0  0  0
 42 69  1  0  0  0  0
 43 45  1  0  0  0  0
 44 46  1  0  0  0  0
 44 48  1  0  0  0  0
 45 51  1  0  0  0  0
 46 54  1  0  0  0  0
 47 49  1  0  0  0  0
 47 52  1  0  0  0  0
 48 70  1  0  0  0  0
 49 68  1  0  0  0  0
 50 54  1  0  0  0  0
 50 70  1  0  0  0  0
 51 74  1  0  0  0  0
 52 62  1  0  0  0  0
 53 69  1  0  0  0  0
 54 67  1  0  0  0  0
 55 64  1  0  0  0  0
 56 65  1  0  0  0  0
 57 65  1  0  0  0  0
 58 65  1  0  0  0  0
 59 76  1  0  0  0  0
 60 84  1  0  0  0  0
 61 68  1  0  0  0  0
 62 85  1  0  0  0  0
 63 65  1  0  0  0  0
 63 75  1  0  0  0  0
 64 76  1  0  0  0  0
 66 67  1  0  0  0  0
M  CHG  1  76   1
M  ISO  4  39 100  62 101  73 100  85 101
M  END
> <Batch ID>
0108

> <Smiles>
CNC(C)C(=O)NC(C(=O)N1Cc2cc([101O:1][101CH2:1]C3CCN(Cc4ccc([100NH:0][100C:0](=O)N5CCCC(n6nc(-c7ccc(Oc8ccc(F)cc8F)cc7)c(C(N)=O)c6N)C5)cc4OC)C3=O)ccc2CC1C(=O)NC1CCCc2ccccc21)C(C)(C)C

> <Shape>
0.275

> <Color>
0.100

> <Negative vol penalty>
0.000

$$$$

  -OEChem-04052301203D

 88 97  0     1  0  0  0  0  0999 V2000
  -32.6427  -16.6504   18.6150 C   0  0  0  0  0  0  0  0  0  0  0  0
  -32.8854  -16.5188   19.9785 C   0  0  0  0  0  0  0  0  0  0  0  0
  -29.2134  -27.3910   18.3008 C   0  0  0  0  0  0  0  0  0  0  0  0
  -29.0389  -26.1472   20.3646 C   0  0  0  0  0  0  0  0  0  0  0  0
  -21.6706  -26.9692   25.4970 C   0  0  0  0  0  0  0  0  0  0  0  0
  -31.4743  -17.2693   18.1727 C   0  0  0  0  0  0  0  0  0  0  0  0
  -31.9602  -17.0070   20.9006 C   0  0  0  0  0  0  0  0  0  0  0  0
  -25.9525  -17.2028   26.7592 C   0  0  0  0  0  0  0  0  0  0  0  0
  -21.5400  -25.6634   25.9696 C   0  0  0  0  0  0  0  0  0  0  0  0
  -30.4635  -26.8200   18.0623 C   0  0  0  0  0  0  0  0  0  0  0  0
  -30.2889  -25.5761   20.1261 C   0  0  0  0  0  0  0  0  0  0  0  0
  -24.8027  -17.9673   26.9520 C   0  0  0  0  0  0  0  0  0  0  0  0
  -31.5705  -23.0979   18.2191 C   0  0  0  0  0  0  0  0  0  0  0  0
  -31.7040  -21.7248   18.4252 C   0  0  0  0  0  0  0  0  0  0  0  0
  -24.2270  -17.6768   24.6275 C   0  0  0  0  0  0  0  0  0  0  0  0
  -21.0962  -24.8946   23.7225 C   0  0  0  0  0  0  0  0  0  0  0  0
  -33.4066  -22.1399   20.0882 C   0  0  0  0  0  0  0  0  0  0  0  0
  -28.5011  -27.0547   19.4520 C   0  0  0  0  0  0  0  0  0  0  0  0
  -21.5138  -27.2378   24.1373 C   0  0  0  0  0  0  0  0  0  0  0  0
  -26.0629  -27.5501   18.8886 C   0  0  0  0  0  0  0  0  0  0  0  0
  -30.5298  -17.7568   19.0897 C   0  0  0  0  0  0  0  0  0  0  0  0
  -26.2544  -16.6778   25.4944 C   0  0  0  0  0  0  0  0  0  0  0  0
  -30.7787  -17.6343   20.4700 C   0  0  0  0  0  0  0  0  0  0  0  0
  -25.3800  -16.9039   24.4218 C   0  0  0  0  0  0  0  0  0  0  0  0
  -21.2266  -26.2005   23.2500 C   0  0  0  0  0  0  0  0  0  0  0  0
  -21.2529  -24.6261   25.0823 C   0  0  0  0  0  0  0  0  0  0  0  0
  -31.0012  -25.9125   18.9749 C   0  0  0  0  0  0  0  0  0  0  0  0
  -23.9412  -18.2069   25.8854 C   0  0  0  0  0  0  0  0  0  0  0  0
  -32.3551  -23.9920   18.9476 C   0  0  0  0  0  0  0  0  0  0  0  0
  -32.6220  -21.2458   19.3597 C   0  0  0  0  0  0  0  0  0  0  0  0
  -33.2732  -23.5130   19.8822 C   0  0  0  0  0  0  0  0  0  0  0  0
  -27.2101  -27.6447   19.6991 C   0  0  0  0  0  0  0  0  0  0  0  0
  -25.1091  -28.2778   19.5573 C   0  0  0  0  0  0  0  0  0  0  0  0
  -21.6127  -20.9254   25.4309 C   0  0  0  0  0  0  0  0  0  0  0  0
  -21.9205  -22.2153   25.1524 C   0  0  0  0  0  0  0  0  0  0  0  0
  -20.4233  -20.6627   26.3066 C   0  0  0  0  0  0  0  0  0  0  0  0
  -21.6561  -28.6106   23.6709 C   0  0  0  0  0  0  0  0  0  0  0  0
  -25.8763  -26.8656   17.6426 C   0  0  0  0  0  0  0  0  0  0  0  0
  -22.5499  -29.5688   24.3609 C   0  0  0  0  0  0  0  0  0  0  0  0
  -28.6375  -17.0460   23.4233 C   0  0  0  0  0  0  0  0  0  0  0  0
  -27.0963  -14.6809   21.8254 C   0  0  0  0  0  0  0  0  0  0  0  0
  -23.6801  -13.8252   21.0412 C   0  0  0  0  0  0  0  0  0  0  0  0
  -29.3038  -18.4606   18.5641 C   0  0  0  0  0  0  0  0  0  0  0  0
  -27.4849  -15.8328   25.3090 C   0  0  0  0  0  0  0  0  0  0  0  0
  -25.6482  -16.3458   23.0488 C   0  0  0  0  0  0  0  0  0  0  0  0
  -19.8193  -21.8315   27.0445 C   0  0  0  0  0  0  0  0  0  0  0  0
  -28.1977  -18.6161   19.6046 C   0  0  0  0  0  0  0  0  0  0  0  0
  -25.5041  -31.4091   23.4993 C   0  0  0  0  0  0  0  0  0  0  0  0
  -28.7727  -19.1230   20.9233 C   0  0  0  0  0  0  0  0  0  0  0  0
  -26.1366  -30.5643   22.3939 C   0  0  0  0  0  0  0  0  0  0  0  0
  -19.8025  -23.0770   26.1795 C   0  0  0  0  0  0  0  0  0  0  0  0
  -24.8080  -30.5373   24.5393 C   0  0  0  0  0  0  0  0  0  0  0  0
  -24.4150  -28.7615   22.8538 C   0  0  0  0  0  0  0  0  0  0  0  0
  -29.7875  -18.1290   21.5010 C   0  0  1  0  0  0  0  0  0  0  0  0
  -27.9595  -15.7783   23.8602 C   0  0  1  0  0  0  0  0  0  0  0  0
  -25.1039  -29.6088   21.7699 C   0  0  2  0  0  0  0  0  0  0  0  0
  -21.0548  -26.4606   21.7889 C   0  0  0  0  0  0  0  0  0  0  0  0
  -23.2140  -22.5404   24.4298 C   0  0  0  0  0  0  0  0  0  0  0  0
  -22.6210  -11.5975   20.5796 C   0  0  0  0  0  0  0  0  0  0  0  0
  -27.6257  -15.3609   18.8984 C   0  0  0  0  0  0  0  0  0  0  0  0
  -25.4214  -14.3186   18.3300 C   0  0  0  0  0  0  0  0  0  0  0  0
  -27.2279  -12.9335   19.3501 C   0  0  0  0  0  0  0  0  0  0  0  0
  -21.6595  -14.2149   23.1682 C   0  0  0  0  0  0  0  0  0  0  0  0
  -22.3467  -19.7051   24.9534 C   0  0  0  0  0  0  0  0  0  1  0  0
  -26.0118  -14.6300   20.7765 C   0  0  1  0  0  0  0  0  0  0  0  0
  -22.8750  -12.6762   21.6210 C   0  0  2  0  0  0  0  0  0  0  0  0
  -26.5732  -14.3320   19.3575 C   0  0  0  0  0  0  0  0  0  0  0  0
  -27.0057  -28.3750   20.7986 N   0  0  0  0  0  0  0  0  0  0  0  0
  -21.0213  -29.0818   22.6334 N   0  0  0  0  0  0  0  0  0  0  0  0
  -25.7192  -28.7460   20.6836 N   0  0  0  0  0  0  0  0  0  0  0  0
  -21.1180  -23.2954   25.5647 N   0  0  0  0  0  0  0  0  0  0  0  0
  -23.8617  -29.6180   23.9104 N   0  0  0  0  0  0  0  0  0  0  0  0
  -26.8674  -15.5311   22.9165 N   0  0  0  0  0  0  0  0  0  0  0  0
  -23.8164  -28.5564   19.2857 N   0  0  0  0  0  0  0  0  0  0  0  0
  -25.4427  -25.5331   17.6707 N   0  0  0  0  0  0  0  0  0  0  0  0
  -29.1054  -17.0147   22.1235 N   0  0  0  0  0  0  0  0  0  0  0  0
  -25.0329  -13.6566   21.2483 N   0  0  0  0  0  0  0  0  0  0  0  0
  -21.5593  -13.1661   22.1209 N   0  3  0  0  0  0  0  0  0  0  0  0
  -20.0053  -19.5196   26.4844 O   0  0  0  0  0  0  0  0  0  0  0  0
  -26.1035  -27.4141   16.5376 O   0  0  0  0  0  0  0  0  0  0  0  0
  -22.0329  -30.2183   25.2605 O   0  0  0  0  0  0  0  0  0  0  0  0
  -28.7279  -17.9837   24.2070 O   0  0  0  0  0  0  0  0  0  0  0  0
  -28.1060  -13.9863   21.6854 O   0  0  0  0  0  0  0  0  0  0  0  0
  -23.1612  -14.7752   20.4592 O   0  0  0  0  0  0  0  0  0  0  0  0
  -32.2209  -25.3549   18.7425 O   0  0  0  0  0  0  0  0  0  0  0  0
  -22.8185  -18.9533   26.0707 O   0  0  0  0  0  0  0  0  0  1  0  0
  -32.7490  -19.9273   19.5586 F   0  0  0  0  0  0  0  0  0  0  0  0
  -34.0289  -24.3671   20.5858 F   0  0  0  0  0  0  0  0  0  0  0  0
  1  2  1  0  0  0  0
  1  6  2  0  0  0  0
  2  7  2  0  0  0  0
  3 10  2  0  0  0  0
  3 18  1  0  0  0  0
  4 11  1  0  0  0  0
  4 18  2  0  0  0  0
  5  9  2  0  0  0  0
  5 19  1  0  0  0  0
  6 21  1  0  0  0  0
  7 23  1  0  0  0  0
  8 12  2  0  0  0  0
  8 22  1  0  0  0  0
  9 26  1  0  0  0  0
 10 27  1  0  0  0  0
 11 27  2  0  0  0  0
 12 28  1  0  0  0  0
 13 14  2  0  0  0  0
 13 29  1  0  0  0  0
 14 30  1  0  0  0  0
 15 24  1  0  0  0  0
 15 28  2  0  0  0  0
 16 25  1  0  0  0  0
 16 26  2  0  0  0  0
 17 30  2  0  0  0  0
 17 31  1  0  0  0  0
 18 32  1  0  0  0  0
 19 25  2  0  0  0  0
 19 37  1  0  0  0  0
 20 32  1  0  0  0  0
 20 33  2  0  0  0  0
 20 38  1  0  0  0  0
 21 23  2  0  0  0  0
 21 43  1  0  0  0  0
 22 24  2  0  0  0  0
 22 44  1  0  0  0  0
 23 54  1  0  0  0  0
 24 45  1  0  0  0  0
 25 57  1  0  0  0  0
 26 71  1  0  0  0  0
 27 85  1  0  0  0  0
 28 86  1  0  0  0  0
 29 31  2  0  0  0  0
 29 85  1  0  0  0  0
 30 87  1  0  0  0  0
 31 88  1  0  0  0  0
 32 68  2  0  0  0  0
 33 70  1  0  0  0  0
 33 74  1  0  0  0  0
 34 35  2  0  0  0  0
 34 36  1  0  0  0  0
 34 64  1  0  0  0  0
 35 58  1  0  0  0  0
 35 71  1  0  0  0  0
 36 46  1  0  0  0  0
 36 79  2  0  0  0  0
 37 39  1  0  0  0  0
 37 69  2  0  0  0  0
 38 75  1  0  0  0  0
 38 80  2  0  0  0  0
 39 72  1  0  0  0  0
 39 81  2  0  0  0  0
 40 55  1  0  0  0  0
 40 76  1  0  0  0  0
 40 82  2  0  0  0  0
 41 65  1  0  0  0  0
 41 73  1  0  0  0  0
 41 83  2  0  0  0  0
 42 66  1  0  0  0  0
 42 77  1  0  0  0  0
 42 84  2  0  0  0  0
 43 47  1  0  0  0  0
 44 55  1  0  0  0  0
 45 73  1  0  0  0  0
 46 51  1  0  0  0  0
 47 49  1  0  0  0  0
 48 50  1  0  0  0  0
 48 52  1  0  0  0  0
 49 54  1  0  0  0  0
 50 56  1  0  0  0  0
 51 71  1  0  0  0  0
 52 72  1  0  0  0  0
 53 56  1  0  0  0  0
 53 72  1  0  0  0  0
 54 76  1  0  0  0  0
 55 73  1  0  0  0  0
 56 70  1  0  0  0  0
 59 66  1  0  0  0  0
 60 67  1  0  0  0  0
 61 67  1  0  0  0  0
 62 67  1  0  0  0  0
 63 78  1  0  0  0  0
 64 86  1  0  0  0  0
 65 67  1  0  0  0  0
 65 77  1  0  0  0  0
 66 78  1  0  0  0  0
 68 70  1  0  0  0  0
M  CHG  1  78   1
M  ISO  4  37 100  39 100  64 101  86 101
M  END
> <Batch ID>
0108

> <Smiles>
CNC(C)C(=O)NC(C(=O)N1Cc2cc([101O:1][101CH2:1]C3=C(C)N(c4ccc([100C:0](=N)[100C:0](=O)N5CCCC(n6nc(-c7ccc(Oc8ccc(F)cc8F)cc7)c(C(N)=O)c6N)C5)c(C)c4)CCC3=O)ccc2CC1C(=O)NC1CCCc2ccccc21)C(C)(C)C

> <Shape>
0.222

> <Color>
0.055

> <Negative vol penalty>
0.000

$$$$

  -OEChem-04052301203D

 87 96  0     1  0  0  0  0  0999 V2000
  -18.5793  -30.5317   24.4887 C   0  0  0  0  0  0  0  0  0  0  0  0
  -19.9657  -30.5014   24.3765 C   0  0  0  0  0  0  0  0  0  0  0  0
  -25.4297  -13.9112   21.5163 C   0  0  0  0  0  0  0  0  0  0  0  0
  -26.2494  -12.7622   19.5555 C   0  0  0  0  0  0  0  0  0  0  0  0
  -17.8137  -29.5065   23.9350 C   0  0  0  0  0  0  0  0  0  0  0  0
  -20.5873  -29.4452   23.7115 C   0  0  0  0  0  0  0  0  0  0  0  0
  -25.6689  -29.7209   20.3045 C   0  0  0  0  0  0  0  0  0  0  0  0
  -30.2612  -24.9765   20.8322 C   0  0  0  0  0  0  0  0  0  0  0  0
  -29.9183  -23.8788   20.0429 C   0  0  0  0  0  0  0  0  0  0  0  0
  -24.6130  -12.8204   21.8141 C   0  0  0  0  0  0  0  0  0  0  0  0
  -25.4327  -11.6713   19.8533 C   0  0  0  0  0  0  0  0  0  0  0  0
  -27.0021  -29.4233   20.5829 C   0  0  0  0  0  0  0  0  0  0  0  0
  -22.0444  -10.4832   22.8925 C   0  0  0  0  0  0  0  0  0  0  0  0
  -20.7255  -10.7414   23.2660 C   0  0  0  0  0  0  0  0  0  0  0  0
  -28.4766  -24.4306   22.3666 C   0  0  0  0  0  0  0  0  0  0  0  0
  -26.7035  -27.2256   19.6341 C   0  0  0  0  0  0  0  0  0  0  0  0
  -20.3347  -11.8204   21.1399 C   0  0  0  0  0  0  0  0  0  0  0  0
  -26.2479  -13.8821   20.3869 C   0  0  0  0  0  0  0  0  0  0  0  0
  -28.1337  -23.3328   21.5772 C   0  0  0  0  0  0  0  0  0  0  0  0
  -28.4154  -15.2221   20.5067 C   0  0  0  0  0  0  0  0  0  0  0  0
  -18.4257  -28.4421   23.2544 C   0  0  0  0  0  0  0  0  0  0  0  0
  -24.8385  -28.7676   19.6976 C   0  0  0  0  0  0  0  0  0  0  0  0
  -19.8292  -28.4040   23.1493 C   0  0  0  0  0  0  0  0  0  0  0  0
  -25.3607  -27.5145   19.3466 C   0  0  0  0  0  0  0  0  0  0  0  0
  -29.5403  -25.2524   21.9941 C   0  0  0  0  0  0  0  0  0  0  0  0
  -28.8546  -23.0570   20.4153 C   0  0  0  0  0  0  0  0  0  0  0  0
  -24.6145  -11.7005   20.9826 C   0  0  0  0  0  0  0  0  0  0  0  0
  -27.5189  -28.1745   20.2504 C   0  0  0  0  0  0  0  0  0  0  0  0
  -22.5084  -10.8936   21.6427 C   0  0  0  0  0  0  0  0  0  0  0  0
  -19.8707  -11.4100   22.3897 C   0  0  0  0  0  0  0  0  0  0  0  0
  -21.6536  -11.5622   20.7665 C   0  0  0  0  0  0  0  0  0  0  0  0
  -27.0914  -15.0088   20.0784 C   0  0  0  0  0  0  0  0  0  0  0  0
  -28.7675  -16.4261   19.9473 C   0  0  0  0  0  0  0  0  0  0  0  0
  -29.7274  -26.4852   24.2019 C   0  0  0  0  0  0  0  0  0  0  0  0
  -25.7743  -22.9386   22.1187 C   0  0  0  0  0  0  0  0  0  0  0  0
  -27.0163  -22.4961   21.9990 C   0  0  0  0  0  0  0  0  0  0  0  0
  -29.2521  -14.4049   21.3360 C   0  0  0  0  0  0  0  0  0  0  0  0
  -22.1788  -27.2463   20.5431 C   0  0  0  0  0  0  0  0  0  0  0  0
  -22.3092  -26.1370   17.4976 C   0  0  0  0  0  0  0  0  0  0  0  0
  -24.2046  -25.4417   14.7461 C   0  0  0  0  0  0  0  0  0  0  0  0
  -27.2520  -21.8074   18.9781 C   0  0  0  0  0  0  0  0  0  0  0  0
  -17.5593  -27.3324   22.7135 C   0  0  0  0  0  0  0  0  0  0  0  0
  -23.4097  -29.1136   19.3796 C   0  0  0  0  0  0  0  0  0  0  0  0
  -24.5164  -26.4633   18.6753 C   0  0  0  0  0  0  0  0  0  0  0  0
  -30.2561  -27.8362   24.6221 C   0  0  0  0  0  0  0  0  0  0  0  0
  -18.2728  -26.4417   21.6996 C   0  0  0  0  0  0  0  0  0  0  0  0
  -31.1401  -28.2466   23.4597 C   0  0  0  0  0  0  0  0  0  0  0  0
  -26.4729  -19.2441   16.4419 C   0  0  0  0  0  0  0  0  0  0  0  0
  -19.6553  -26.0509   22.2120 C   0  0  0  0  0  0  0  0  0  0  0  0
  -26.6113  -17.9387   17.2235 C   0  0  0  0  0  0  0  0  0  0  0  0
  -26.0398  -20.3992   17.3398 C   0  0  0  0  0  0  0  0  0  0  0  0
  -27.0604  -19.2957   19.3073 C   0  0  0  0  0  0  0  0  0  0  0  0
  -20.5389  -27.2879   22.4139 C   0  0  1  0  0  0  0  0  0  0  0  0
  -22.5175  -27.8857   19.2262 C   0  0  1  0  0  0  0  0  0  0  0  0
  -27.5373  -18.1221   18.4383 C   0  0  1  0  0  0  0  0  0  0  0  0
  -30.4722  -27.6001   22.2512 C   0  0  2  0  0  0  0  0  0  0  0  0
  -24.0366  -24.5070   12.4233 C   0  0  0  0  0  0  0  0  0  0  0  0
  -22.1129  -23.3181   18.6488 C   0  0  0  0  0  0  0  0  0  0  0  0
  -22.8951  -22.4366   16.4399 C   0  0  0  0  0  0  0  0  0  0  0  0
  -20.7494  -23.7003   16.5875 C   0  0  0  0  0  0  0  0  0  0  0  0
  -29.6040  -21.0289   19.1575 C   0  0  0  0  0  0  0  0  0  0  0  0
  -25.1407  -27.9743   13.5344 C   0  0  0  0  0  0  0  0  0  0  0  0
  -29.4080  -28.5226   21.6525 C   0  0  0  0  0  0  0  0  0  1  0  0
  -22.9386  -24.9435   16.8206 C   0  0  1  0  0  0  0  0  0  0  0  0
  -24.0037  -25.7653   13.2767 C   0  0  2  0  0  0  0  0  0  0  0  0
  -22.1897  -23.6185   17.1386 C   0  0  0  0  0  0  0  0  0  0  0  0
  -26.6335  -15.9981   19.3066 N   0  0  0  0  0  0  0  0  0  0  0  0
  -27.6754  -16.8447   19.2456 N   0  0  0  0  0  0  0  0  0  0  0  0
  -29.8933  -26.3790   22.8046 N   0  0  0  0  0  0  0  0  0  0  0  0
  -23.1239  -26.8472   18.3908 N   0  0  0  0  0  0  0  0  0  0  0  0
  -26.9093  -20.5229   18.5104 N   0  0  0  0  0  0  0  0  0  0  0  0
  -29.9016  -17.1570   19.9922 N   0  0  0  0  0  0  0  0  0  0  0  0
  -28.7330  -13.1990   21.8266 N   0  0  0  0  0  0  0  0  0  0  0  0
  -21.0450  -27.7603   21.1430 N   0  0  0  0  0  0  0  0  0  0  0  0
  -23.0030  -25.2672   15.3995 N   0  0  0  0  0  0  0  0  0  0  0  0
  -28.5243  -21.9281   19.5779 N   0  0  0  0  0  0  0  0  0  0  0  0
  -25.0736  -26.6858   12.7981 N   0  3  0  0  0  0  0  0  0  0  0  0
  -29.2331  -25.7029   25.0009 O   0  0  0  0  0  0  0  0  0  0  0  0
  -30.4197  -14.7421   21.6466 O   0  0  0  0  0  0  0  0  0  0  0  0
  -22.8923  -26.3518   20.9817 O   0  0  0  0  0  0  0  0  0  0  0  0
  -21.1400  -26.4326   17.2381 O   0  0  0  0  0  0  0  0  0  0  0  0
  -25.3163  -25.3490   15.2619 O   0  0  0  0  0  0  0  0  0  0  0  0
  -26.4934  -22.7748   18.8431 O   0  0  0  0  0  0  0  0  0  0  0  0
  -23.8178  -10.6358   21.2731 O   0  0  0  0  0  0  0  0  0  0  0  0
  -28.8198  -27.8812   20.5216 O   0  0  0  0  0  0  0  0  0  1  0  0
  -18.6037  -11.6565   22.7479 F   0  0  0  0  0  0  0  0  0  0  0  0
  -22.0933  -11.9578   19.5640 F   0  0  0  0  0  0  0  0  0  0  0  0
  1  2  1  0  0  0  0
  1  5  2  0  0  0  0
  2  6  2  0  0  0  0
  3 10  2  0  0  0  0
  3 18  1  0  0  0  0
  4 11  1  0  0  0  0
  4 18  2  0  0  0  0
  5 21  1  0  0  0  0
  6 23  1  0  0  0  0
  7 12  2  0  0  0  0
  7 22  1  0  0  0  0
  8  9  2  0  0  0  0
  8 25  1  0  0  0  0
  9 26  1  0  0  0  0
 10 27  1  0  0  0  0
 11 27  2  0  0  0  0
 12 28  1  0  0  0  0
 13 14  2  0  0  0  0
 13 29  1  0  0  0  0
 14 30  1  0  0  0  0
 15 19  1  0  0  0  0
 15 25  2  0  0  0  0
 16 24  1  0  0  0  0
 16 28  2  0  0  0  0
 17 30  2  0  0  0  0
 17 31  1  0  0  0  0
 18 32  1  0  0  0  0
 19 26  2  0  0  0  0
 19 36  1  0  0  0  0
 20 32  1  0  0  0  0
 20 33  2  0  0  0  0
 20 37  1  0  0  0  0
 21 23  2  0  0  0  0
 21 42  1  0  0  0  0
 22 24  2  0  0  0  0
 22 43  1  0  0  0  0
 23 53  1  0  0  0  0
 24 44  1  0  0  0  0
 25 69  1  0  0  0  0
 26 76  1  0  0  0  0
 27 84  1  0  0  0  0
 28 85  1  0  0  0  0
 29 31  2  0  0  0  0
 29 84  1  0  0  0  0
 30 86  1  0  0  0  0
 31 87  1  0  0  0  0
 32 67  2  0  0  0  0
 33 68  1  0  0  0  0
 33 72  1  0  0  0  0
 34 45  1  0  0  0  0
 34 69  1  0  0  0  0
 34 78  2  0  0  0  0
 35 36  2  0  0  0  0
 37 73  1  0  0  0  0
 37 79  2  0  0  0  0
 38 54  1  0  0  0  0
 38 74  1  0  0  0  0
 38 80  2  0  0  0  0
 39 64  1  0  0  0  0
 39 70  1  0  0  0  0
 39 81  2  0  0  0  0
 40 65  1  0  0  0  0
 40 75  1  0  0  0  0
 40 82  2  0  0  0  0
 41 71  1  0  0  0  0
 41 76  1  0  0  0  0
 41 83  2  0  0  0  0
 42 46  1  0  0  0  0
 43 54  1  0  0  0  0
 44 70  1  0  0  0  0
 45 47  1  0  0  0  0
 46 49  1  0  0  0  0
 47 56  1  0  0  0  0
 48 50  1  0  0  0  0
 48 51  1  0  0  0  0
 49 53  1  0  0  0  0
 50 55  1  0  0  0  0
 51 71  1  0  0  0  0
 52 55  1  0  0  0  0
 52 71  1  0  0  0  0
 53 74  1  0  0  0  0
 54 70  1  0  0  0  0
 55 68  1  0  0  0  0
 56 63  1  0  0  0  0
 56 69  1  0  0  0  0
 57 65  1  0  0  0  0
 58 66  1  0  0  0  0
 59 66  1  0  0  0  0
 60 66  1  0  0  0  0
 61 76  1  0  0  0  0
 62 77  1  0  0  0  0
 63 85  1  0  0  0  0
 64 66  1  0  0  0  0
 64 75  1  0  0  0  0
 65 77  1  0  0  0  0
 67 68  1  0  0  0  0
M  CHG  1  77   1
M  ISO  4  41 100  63 101  76 100  85 101
M  END
> <Batch ID>
0108

> <Smiles>
C=Cc1cc(N2C(=O)CCC2[101CH2:1][101O:1]c2ccc3c(c2)CN(C(=O)C(NC(=O)C(C)NC)C(C)(C)C)C(C(=O)NC2CCCc4ccccc42)C3)ccc1[100N:0](C)[100C:0](=O)N1CCCC(n2nc(-c3ccc(Oc4ccc(F)cc4F)cc3)c(C(N)=O)c2N)C1

> <Shape>
0.246

> <Color>
0.071

> <Negative vol penalty>
0.000

$$$$

  -OEChem-04052301203D

 83 91  0     1  0  0  0  0  0999 V2000
  -27.8882  -10.4389   20.0810 C   0  0  0  0  0  0  0  0  0  0  0  0
  -28.4545  -11.5865   19.5354 C   0  0  0  0  0  0  0  0  0  0  0  0
  -18.7066  -26.8710   20.1226 C   0  0  0  0  0  0  0  0  0  0  0  0
  -19.9524  -25.2595   21.4220 C   0  0  0  0  0  0  0  0  0  0  0  0
  -26.5803  -10.4699   20.5631 C   0  0  0  0  0  0  0  0  0  0  0  0
  -27.7129  -12.7656   19.4706 C   0  0  0  0  0  0  0  0  0  0  0  0
  -29.8241  -18.4812   20.0872 C   0  0  0  0  0  0  0  0  0  0  0  0
  -29.5063  -27.6403   20.8491 C   0  0  0  0  0  0  0  0  0  0  0  0
  -30.2311  -26.8031   20.0010 C   0  0  0  0  0  0  0  0  0  0  0  0
  -18.0379  -25.8321   19.4752 C   0  0  0  0  0  0  0  0  0  0  0  0
  -19.2836  -24.2206   20.7746 C   0  0  0  0  0  0  0  0  0  0  0  0
  -30.1689  -19.4594   19.1555 C   0  0  0  0  0  0  0  0  0  0  0  0
  -19.4505  -22.6217   17.8003 C   0  0  0  0  0  0  0  0  0  0  0  0
  -20.2106  -21.5410   17.3530 C   0  0  0  0  0  0  0  0  0  0  0  0
  -27.9761  -20.4391   19.3815 C   0  0  0  0  0  0  0  0  0  0  0  0
  -28.8891  -25.7359   22.2017 C   0  0  0  0  0  0  0  0  0  0  0  0
  -18.9259  -20.0552   18.7598 C   0  0  0  0  0  0  0  0  0  0  0  0
  -19.6639  -26.5847   21.0959 C   0  0  0  0  0  0  0  0  0  0  0  0
  -19.9666  -28.3116   22.9490 C   0  0  0  0  0  0  0  0  0  0  0  0
  -25.8256  -11.6525   20.5131 C   0  0  0  0  0  0  0  0  0  0  0  0
  -28.5469  -18.4682   20.6659 C   0  0  0  0  0  0  0  0  0  0  0  0
  -26.3933  -12.8121   19.9514 C   0  0  0  0  0  0  0  0  0  0  0  0
  -27.6184  -19.4612   20.3222 C   0  0  0  0  0  0  0  0  0  0  0  0
  -28.8354  -27.1067   21.9495 C   0  0  0  0  0  0  0  0  0  0  0  0
  -29.6139  -24.8987   21.3536 C   0  0  0  0  0  0  0  0  0  0  0  0
  -30.2849  -25.4323   20.2532 C   0  0  0  0  0  0  0  0  0  0  0  0
  -18.3264  -24.5069   19.8012 C   0  0  0  0  0  0  0  0  0  0  0  0
  -29.2439  -20.4368   18.8004 C   0  0  0  0  0  0  0  0  0  0  0  0
  -18.4282  -22.4191   18.7274 C   0  0  0  0  0  0  0  0  0  0  0  0
  -19.9483  -20.2578   17.8328 C   0  0  0  0  0  0  0  0  0  0  0  0
  -18.1659  -21.1359   19.2071 C   0  0  0  0  0  0  0  0  0  0  0  0
  -20.3554  -27.6575   21.7646 C   0  0  0  0  0  0  0  0  0  0  0  0
  -20.9508  -29.2451   23.1646 C   0  0  0  0  0  0  0  0  0  0  0  0
  -30.3632  -24.1151   18.3867 C   0  0  0  0  0  0  0  0  0  0  0  0
  -18.8185  -28.0949   23.7800 C   0  0  0  0  0  0  0  0  0  0  0  0
  -26.1139  -16.4226   20.6855 C   0  0  0  0  0  0  0  0  0  0  0  0
  -24.8639  -18.5332   22.8081 C   0  0  0  0  0  0  0  0  0  0  0  0
  -24.7846  -21.7238   24.0165 C   0  0  0  0  0  0  0  0  0  0  0  0
  -26.6943  -29.5723   21.5043 C   0  0  0  0  0  0  0  0  0  0  0  0
  -24.3996  -11.6250   21.0035 C   0  0  0  0  0  0  0  0  0  0  0  0
  -28.1996  -17.4220   21.6893 C   0  0  0  0  0  0  0  0  0  0  0  0
  -26.2409  -19.5033   20.9298 C   0  0  0  0  0  0  0  0  0  0  0  0
  -23.8099  -13.0130   21.2401 C   0  0  0  0  0  0  0  0  0  0  0  0
  -24.1294  -31.9450   20.8197 C   0  0  0  0  0  0  0  0  0  0  0  0
  -24.1172  -13.9315   20.0617 C   0  0  0  0  0  0  0  0  0  0  0  0
  -22.8362  -31.1742   21.0911 C   0  0  0  0  0  0  0  0  0  0  0  0
  -25.1987  -31.0511   20.1955 C   0  0  0  0  0  0  0  0  0  0  0  0
  -24.1968  -29.0455   21.2190 C   0  0  0  0  0  0  0  0  0  0  0  0
  -25.6292  -14.1168   19.8862 C   0  0  1  0  0  0  0  0  0  0  0  0
  -26.6968  -17.2007   21.8312 C   0  0  1  0  0  0  0  0  0  0  0  0
  -23.1073  -29.8914   21.9000 C   0  0  2  0  0  0  0  0  0  0  0  0
  -29.6572  -23.4339   21.6439 C   0  0  0  0  0  0  0  0  0  0  0  0
  -23.6352  -23.1539   25.7286 C   0  0  0  0  0  0  0  0  0  0  0  0
  -22.3781  -18.6452   21.0422 C   0  0  0  0  0  0  0  0  0  0  0  0
  -21.7029  -20.7345   22.2452 C   0  0  0  0  0  0  0  0  0  0  0  0
  -21.9111  -18.5877   23.4984 C   0  0  0  0  0  0  0  0  0  0  0  0
  -27.3312  -22.3101   25.4059 C   0  0  0  0  0  0  0  0  0  0  0  0
  -28.0611  -28.0028   22.8561 C   0  0  0  0  0  0  0  0  0  0  0  0
  -31.0474  -23.2254   17.3836 C   0  0  0  0  0  0  0  0  0  0  0  0
  -30.9509  -21.7746   17.8244 C   0  0  0  0  0  0  0  0  0  1  0  0
  -24.0017  -19.7682   22.7061 C   0  0  1  0  0  0  0  0  0  0  0  0
  -24.8340  -22.2657   25.4337 C   0  0  2  0  0  0  0  0  0  0  0  0
  -22.5237  -19.4322   22.3599 C   0  0  0  0  0  0  0  0  0  0  0  0
  -21.4974  -28.1350   21.2629 N   0  0  0  0  0  0  0  0  0  0  0  0
  -31.0193  -24.6041   19.3878 N   0  0  0  0  0  0  0  0  0  0  0  0
  -21.8347  -29.0992   22.1362 N   0  0  0  0  0  0  0  0  0  0  0  0
  -25.9467  -18.4551   21.9209 N   0  0  0  0  0  0  0  0  0  0  0  0
  -25.4091  -29.8532   21.0119 N   0  0  0  0  0  0  0  0  0  0  0  0
  -21.1377  -30.1683   24.1316 N   0  0  0  0  0  0  0  0  0  0  0  0
  -17.9071  -27.0954   23.4128 N   0  0  0  0  0  0  0  0  0  0  0  0
  -26.1406  -15.0527   20.8645 N   0  0  0  0  0  0  0  0  0  0  0  0
  -24.1720  -20.4897   23.9626 N   0  0  0  0  0  0  0  0  0  0  0  0
  -26.8052  -28.4211   22.2744 N   0  0  0  0  0  0  0  0  0  0  0  0
  -26.0740  -23.0664   25.6392 N   0  3  0  0  0  0  0  0  0  0  0  0
  -18.5986  -28.7786   24.8084 O   0  0  0  0  0  0  0  0  0  0  0  0
  -25.6714  -17.0209   19.7120 O   0  0  0  0  0  0  0  0  0  0  0  0
  -24.5909  -17.6729   23.6489 O   0  0  0  0  0  0  0  0  0  0  0  0
  -25.2404  -22.3359   23.0531 O   0  0  0  0  0  0  0  0  0  0  0  0
  -27.6696  -30.2970   21.2790 O   0  0  0  0  0  0  0  0  0  0  0  0
  -17.6739  -23.4929   19.1699 O   0  0  0  0  0  0  0  0  0  0  0  0
  -29.5776  -21.3924   17.8907 O   0  0  0  0  0  0  0  0  0  1  0  0
  -20.6773  -19.2199   17.4020 F   0  0  0  0  0  0  0  0  0  0  0  0
  -17.1842  -20.9349   20.0969 F   0  0  0  0  0  0  0  0  0  0  0  0
  1  2  1  0  0  0  0
  1  5  2  0  0  0  0
  2  6  2  0  0  0  0
  3 10  2  0  0  0  0
  3 18  1  0  0  0  0
  4 11  1  0  0  0  0
  4 18  2  0  0  0  0
  5 20  1  0  0  0  0
  6 22  1  0  0  0  0
  7 12  2  0  0  0  0
  7 21  1  0  0  0  0
  8  9  2  0  0  0  0
  8 24  1  0  0  0  0
  9 26  1  0  0  0  0
 10 27  1  0  0  0  0
 11 27  2  0  0  0  0
 12 28  1  0  0  0  0
 13 14  2  0  0  0  0
 13 29  1  0  0  0  0
 14 30  1  0  0  0  0
 15 23  1  0  0  0  0
 15 28  2  0  0  0  0
 16 24  2  0  0  0  0
 16 25  1  0  0  0  0
 17 30  2  0  0  0  0
 17 31  1  0  0  0  0
 18 32  1  0  0  0  0
 19 32  1  0  0  0  0
 19 33  2  0  0  0  0
 19 35  1  0  0  0  0
 20 22  2  0  0  0  0
 20 40  1  0  0  0  0
 21 23  2  0  0  0  0
 21 41  1  0  0  0  0
 22 49  1  0  0  0  0
 23 42  1  0  0  0  0
 24 58  1  0  0  0  0
 25 26  2  0  0  0  0
 25 52  1  0  0  0  0
 26 65  1  0  0  0  0
 27 80  1  0  0  0  0
 28 81  1  0  0  0  0
 29 31  2  0  0  0  0
 29 80  1  0  0  0  0
 30 82  1  0  0  0  0
 31 83  1  0  0  0  0
 32 64  2  0  0  0  0
 33 66  1  0  0  0  0
 33 69  1  0  0  0  0
 34 59  1  0  0  0  0
 34 65  2  0  0  0  0
 35 70  1  0  0  0  0
 35 75  2  0  0  0  0
 36 50  1  0  0  0  0
 36 71  1  0  0  0  0
 36 76  2  0  0  0  0
 37 61  1  0  0  0  0
 37 67  1  0  0  0  0
 37 77  2  0  0  0  0
 38 62  1  0  0  0  0
 38 72  1  0  0  0  0
 38 78  2  0  0  0  0
 39 68  1  0  0  0  0
 39 73  1  0  0  0  0
 39 79  2  0  0  0  0
 40 43  1  0  0  0  0
 41 50  1  0  0  0  0
 42 67  1  0  0  0  0
 43 45  1  0  0  0  0
 44 46  1  0  0  0  0
 44 47  1  0  0  0  0
 45 49  1  0  0  0  0
 46 51  1  0  0  0  0
 47 68  1  0  0  0  0
 48 51  1  0  0  0  0
 48 68  1  0  0  0  0
 49 71  1  0  0  0  0
 50 67  1  0  0  0  0
 51 66  1  0  0  0  0
 53 62  1  0  0  0  0
 54 63  1  0  0  0  0
 55 63  1  0  0  0  0
 56 63  1  0  0  0  0
 57 74  1  0  0  0  0
 58 73  1  0  0  0  0
 59 60  1  0  0  0  0
 60 81  1  0  0  0  0
 61 63  1  0  0  0  0
 61 72  1  0  0  0  0
 62 74  1  0  0  0  0
 64 66  1  0  0  0  0
M  CHG  1  74   1
M  ISO  4  39 100  60 101  73 100  81 101
M  END
> <Batch ID>
0108

> <Smiles>
CNC(C)C(=O)NC(C(=O)N1Cc2cc([101O:1][101CH2:1]CC=Nc3ccc(C[100NH:0][100C:0](=O)N4CCCC(n5nc(-c6ccc(Oc7ccc(F)cc7F)cc6)c(C(N)=O)c5N)C4)cc3C)ccc2CC1C(=O)NC1CCCc2ccccc21)C(C)(C)C

> <Shape>
0.246

> <Color>
0.050

> <Negative vol penalty>
0.000

$$$$

  -OEChem-04052301203D

 88 97  0     1  0  0  0  0  0999 V2000
  -29.9448  -36.4037   20.8863 C   0  0  0  0  0  0  0  0  0  0  0  0
  -29.9641  -35.0464   20.5814 C   0  0  0  0  0  0  0  0  0  0  0  0
  -23.0335   -9.8465   20.1729 C   0  0  0  0  0  0  0  0  0  0  0  0
  -23.7336  -10.0966   22.4717 C   0  0  0  0  0  0  0  0  0  0  0  0
  -28.9849  -18.5969   24.2751 C   0  0  0  0  0  0  0  0  0  0  0  0
  -29.1379  -36.8729   21.9220 C   0  0  0  0  0  0  0  0  0  0  0  0
  -29.1774  -34.1574   21.3129 C   0  0  0  0  0  0  0  0  0  0  0  0
  -26.3916  -29.1228   19.2156 C   0  0  0  0  0  0  0  0  0  0  0  0
  -28.4550  -19.6753   23.5666 C   0  0  0  0  0  0  0  0  0  0  0  0
  -22.2472   -8.7516   20.5315 C   0  0  0  0  0  0  0  0  0  0  0  0
  -22.9473   -9.0018   22.8303 C   0  0  0  0  0  0  0  0  0  0  0  0
  -26.7379  -27.7730   19.2571 C   0  0  0  0  0  0  0  0  0  0  0  0
  -19.6810   -8.3712   23.4253 C   0  0  0  0  0  0  0  0  0  0  0  0
  -18.8931   -8.4884   24.5703 C   0  0  0  0  0  0  0  0  0  0  0  0
  -25.3714  -27.4891   21.2247 C   0  0  0  0  0  0  0  0  0  0  0  0
  -29.5422  -18.8893   21.5572 C   0  0  0  0  0  0  0  0  0  0  0  0
  -20.0530   -6.6144   25.5602 C   0  0  0  0  0  0  0  0  0  0  0  0
  -23.7768  -10.5190   21.1430 C   0  0  0  0  0  0  0  0  0  0  0  0
  -29.7936  -17.6648   23.6247 C   0  0  0  0  0  0  0  0  0  0  0  0
  -24.2015  -13.0026   20.7443 C   0  0  0  0  0  0  0  0  0  0  0  0
  -28.3335  -35.9905   22.6602 C   0  0  0  0  0  0  0  0  0  0  0  0
  -25.5399  -29.6693   20.1864 C   0  0  0  0  0  0  0  0  0  0  0  0
  -28.3600  -34.6151   22.3603 C   0  0  0  0  0  0  0  0  0  0  0  0
  -25.0138  -28.8456   21.1918 C   0  0  0  0  0  0  0  0  0  0  0  0
  -28.7336  -19.8214   22.2076 C   0  0  0  0  0  0  0  0  0  0  0  0
  -30.0722  -17.8110   22.2658 C   0  0  0  0  0  0  0  0  0  0  0  0
  -22.2041   -8.3293   21.8602 C   0  0  0  0  0  0  0  0  0  0  0  0
  -26.2301  -26.9565   20.2634 C   0  0  0  0  0  0  0  0  0  0  0  0
  -20.6548   -7.3756   23.3476 C   0  0  0  0  0  0  0  0  0  0  0  0
  -19.0791   -7.6100   25.6378 C   0  0  0  0  0  0  0  0  0  0  0  0
  -20.8409   -6.4972   24.4151 C   0  0  0  0  0  0  0  0  0  0  0  0
  -24.5896  -11.6497   20.7731 C   0  0  0  0  0  0  0  0  0  0  0  0
  -25.3259  -13.6737   20.3297 C   0  0  0  0  0  0  0  0  0  0  0  0
  -28.3830  -24.1063   20.5401 C   0  0  0  0  0  0  0  0  0  0  0  0
  -28.7337  -22.8970   20.0746 C   0  0  0  0  0  0  0  0  0  0  0  0
  -30.3339  -16.5483   24.3886 C   0  0  0  0  0  0  0  0  0  0  0  0
  -22.9376  -13.5994   21.0638 C   0  0  0  0  0  0  0  0  0  0  0  0
  -25.8244  -31.9277   22.4050 C   0  0  0  0  0  0  0  0  0  0  0  0
  -22.6529  -31.3815   22.8115 C   0  0  0  0  0  0  0  0  0  0  0  0
  -20.0173  -29.2377   22.4877 C   0  0  0  0  0  0  0  0  0  0  0  0
  -30.8324  -14.5509   20.5608 C   0  0  0  0  0  0  0  0  0  0  0  0
  -27.5136  -36.5379   23.8016 C   0  0  0  0  0  0  0  0  0  0  0  0
  -25.1547  -31.1214   20.1122 C   0  0  0  0  0  0  0  0  0  0  0  0
  -24.0795  -29.3790   22.2459 C   0  0  0  0  0  0  0  0  0  0  0  0
  -28.5850  -24.2084   22.0171 C   0  0  0  0  0  0  0  0  0  0  0  0
  -26.4256  -35.5817   24.2835 C   0  0  0  0  0  0  0  0  0  0  0  0
  -29.6820  -11.9401   18.4309 C   0  0  0  0  0  0  0  0  0  0  0  0
  -26.9880  -34.1737   24.4505 C   0  0  0  0  0  0  0  0  0  0  0  0
  -28.2252  -11.7394   18.8522 C   0  0  0  0  0  0  0  0  0  0  0  0
  -30.5742  -12.2719   19.6249 C   0  0  0  0  0  0  0  0  0  0  0  0
  -28.6614  -13.2121   20.8621 C   0  0  0  0  0  0  0  0  0  0  0  0
  -29.4307  -22.9838   22.3099 C   0  0  0  0  0  0  0  0  0  0  0  0
  -27.5018  -33.6228   23.1148 C   0  0  1  0  0  0  0  0  0  0  0  0
  -24.6891  -31.6853   21.4511 C   0  0  1  0  0  0  0  0  0  0  0  0
  -27.7130  -12.9305   19.6842 C   0  0  2  0  0  0  0  0  0  0  0  0
  -28.7491  -22.4170   18.6627 C   0  0  0  0  0  0  0  0  0  0  0  0
  -17.5558  -29.0592   22.9422 C   0  0  0  0  0  0  0  0  0  0  0  0
  -23.2336  -30.9564   25.7767 C   0  0  0  0  0  0  0  0  0  0  0  0
  -20.9857  -29.8751   25.9905 C   0  0  0  0  0  0  0  0  0  0  0  0
  -21.1572  -32.2653   25.2975 C   0  0  0  0  0  0  0  0  0  0  0  0
  -19.3959  -28.8738   19.6171 C   0  0  0  0  0  0  0  0  0  0  0  0
  -30.9344  -16.8271   21.5444 C   0  0  0  0  0  0  0  0  0  0  0  0
  -28.1628  -20.9807   21.4453 C   0  0  0  0  0  0  0  0  0  0  0  0
  -27.8493  -25.2791   19.7941 C   0  0  0  0  0  0  0  0  0  1  0  0
  -21.8296  -30.4515   23.6696 C   0  0  1  0  0  0  0  0  0  0  0  0
  -18.6215  -29.4352   21.9245 C   0  0  2  0  0  0  0  0  0  0  0  0
  -21.8206  -30.8772   25.1650 C   0  0  0  0  0  0  0  0  0  0  0  0
  -25.8612  -11.4702   20.4058 N   0  0  0  0  0  0  0  0  0  0  0  0
  -26.2818  -12.7191   20.1423 N   0  0  0  0  0  0  0  0  0  0  0  0
  -23.7376  -30.8066   22.1343 N   0  0  0  0  0  0  0  0  0  0  0  0
  -30.0338  -13.4111   20.3706 N   0  0  0  0  0  0  0  0  0  0  0  0
  -25.5802  -14.9812   20.1107 N   0  0  0  0  0  0  0  0  0  0  0  0
  -21.8889  -12.7645   21.4733 N   0  0  0  0  0  0  0  0  0  0  0  0
  -26.3966  -33.1804   22.2918 N   0  0  0  0  0  0  0  0  0  0  0  0
  -20.5069  -30.3944   23.0567 N   0  0  0  0  0  0  0  0  0  0  0  0
  -30.2415  -15.5874   21.2729 N   0  0  0  0  0  0  0  0  0  0  0  0
  -29.1775  -22.0461   21.1482 N   0  3  1  0  0  0  0  0  0  0  0  0
  -18.4292  -28.5935   20.7098 N   0  3  0  0  0  0  0  0  0  0  0  0
  -30.1103  -16.3861   25.5901 O   0  0  0  0  0  0  0  0  0  0  0  0
  -22.7390  -14.8346   20.9727 O   0  0  0  0  0  0  0  0  0  0  0  0
  -26.1557  -31.0442   23.1869 O   0  0  0  0  0  0  0  0  0  0  0  0
  -22.3406  -32.5727   22.7390 O   0  0  0  0  0  0  0  0  0  0  0  0
  -20.6123  -28.1637   22.4320 O   0  0  0  0  0  0  0  0  0  0  0  0
  -31.9847  -14.6403   20.1236 O   0  0  0  0  0  0  0  0  0  0  0  0
  -21.4368   -7.2611   22.2105 O   0  0  0  0  0  0  0  0  0  0  0  0
  -26.5670  -25.6387   20.3066 O   0  0  0  0  0  0  0  0  0  1  0  0
  -18.3235   -7.7236   26.7379 F   0  0  0  0  0  0  0  0  0  0  0  0
  -21.7757   -5.5394   24.3468 F   0  0  0  0  0  0  0  0  0  0  0  0
  1  2  1  0  0  0  0
  1  6  2  0  0  0  0
  2  7  2  0  0  0  0
  3 10  2  0  0  0  0
  3 18  1  0  0  0  0
  4 11  1  0  0  0  0
  4 18  2  0  0  0  0
  5  9  2  0  0  0  0
  5 19  1  0  0  0  0
  6 21  1  0  0  0  0
  7 23  1  0  0  0  0
  8 12  2  0  0  0  0
  8 22  1  0  0  0  0
  9 25  1  0  0  0  0
 10 27  1  0  0  0  0
 11 27  2  0  0  0  0
 12 28  1  0  0  0  0
 13 14  2  0  0  0  0
 13 29  1  0  0  0  0
 14 30  1  0  0  0  0
 15 24  1  0  0  0  0
 15 28  2  0  0  0  0
 16 25  2  0  0  0  0
 16 26  1  0  0  0  0
 17 30  2  0  0  0  0
 17 31  1  0  0  0  0
 18 32  1  0  0  0  0
 19 26  2  0  0  0  0
 19 36  1  0  0  0  0
 20 32  1  0  0  0  0
 20 33  2  0  0  0  0
 20 37  1  0  0  0  0
 21 23  2  0  0  0  0
 21 42  1  0  0  0  0
 22 24  2  0  0  0  0
 22 43  1  0  0  0  0
 23 53  1  0  0  0  0
 24 44  1  0  0  0  0
 25 63  1  0  0  0  0
 26 62  1  0  0  0  0
 27 85  1  0  0  0  0
 28 86  1  0  0  0  0
 29 31  2  0  0  0  0
 29 85  1  0  0  0  0
 30 87  1  0  0  0  0
 31 88  1  0  0  0  0
 32 68  2  0  0  0  0
 33 69  1  0  0  0  0
 33 72  1  0  0  0  0
 34 35  2  0  0  0  0
 34 45  1  0  0  0  0
 34 64  1  0  0  0  0
 35 56  1  0  0  0  0
 35 77  1  0  0  0  0
 36 79  2  0  0  0  0
 37 73  1  0  0  0  0
 37 80  2  0  0  0  0
 38 54  1  0  0  0  0
 38 74  1  0  0  0  0
 38 81  2  0  0  0  0
 39 65  1  0  0  0  0
 39 70  1  0  0  0  0
 39 82  2  0  0  0  0
 40 66  1  0  0  0  0
 40 75  1  0  0  0  0
 40 83  2  0  0  0  0
 41 71  1  0  0  0  0
 41 76  1  0  0  0  0
 41 84  2  0  0  0  0
 42 46  1  0  0  0  0
 43 54  1  0  0  0  0
 44 70  1  0  0  0  0
 45 52  1  0  0  0  0
 46 48  1  0  0  0  0
 47 49  1  0  0  0  0
 47 50  1  0  0  0  0
 48 53  1  0  0  0  0
 49 55  1  0  0  0  0
 50 71  1  0  0  0  0
 51 55  1  0  0  0  0
 51 71  1  0  0  0  0
 52 77  1  0  0  0  0
 53 74  1  0  0  0  0
 54 70  1  0  0  0  0
 55 69  1  0  0  0  0
 57 66  1  0  0  0  0
 58 67  1  0  0  0  0
 59 67  1  0  0  0  0
 60 67  1  0  0  0  0
 61 78  1  0  0  0  0
 62 76  1  0  0  0  0
 63 77  1  0  0  0  0
 64 86  1  0  0  0  0
 65 67  1  0  0  0  0
 65 75  1  0  0  0  0
 66 78  1  0  0  0  0
 68 69  1  0  0  0  0
M  CHG  2  77   1  78   1
M  ISO  4  41 100  64 101  76 100  86 101
M  END
> <Batch ID>
0108

> <Smiles>
CNC(C)C(=O)NC(C(=O)N1Cc2cc([101O:1][101CH2:1]C3=C(C)N(Cc4ccc(C=O)c(C[100NH:0][100C:0](=O)N5CCCC(n6nc(-c7ccc(Oc8ccc(F)cc8F)cc7)c(C(N)=O)c6N)C5)c4)CC3)ccc2CC1C(=O)NC1CCCc2ccccc21)C(C)(C)C

> <Shape>
0.354

> <Color>
0.217

> <Negative vol penalty>
0.000

$$$$

  -OEChem-04052301203D

 86 94  0     1  0  0  0  0  0999 V2000
  -26.6272  -17.7985   16.8699 C   0  0  0  0  0  0  0  0  0  0  0  0
  -26.3512  -19.0849   16.4179 C   0  0  0  0  0  0  0  0  0  0  0  0
  -23.1483  -13.9602   21.5108 C   0  0  0  0  0  0  0  0  0  0  0  0
  -25.0524  -15.0126   22.5613 C   0  0  0  0  0  0  0  0  0  0  0  0
  -18.4143  -27.2689   21.8158 C   0  0  0  0  0  0  0  0  0  0  0  0
  -26.7766  -17.5577   18.2351 C   0  0  0  0  0  0  0  0  0  0  0  0
  -26.2233  -20.1311   17.3308 C   0  0  0  0  0  0  0  0  0  0  0  0
  -27.4424  -27.1609   17.9728 C   0  0  0  0  0  0  0  0  0  0  0  0
  -19.2983  -28.3439   21.7240 C   0  0  0  0  0  0  0  0  0  0  0  0
  -23.9865  -12.9874   20.9661 C   0  0  0  0  0  0  0  0  0  0  0  0
  -25.8907  -14.0398   22.0167 C   0  0  0  0  0  0  0  0  0  0  0  0
  -26.7891  -28.3390   18.3321 C   0  0  0  0  0  0  0  0  0  0  0  0
  -27.3339  -13.3830   19.0306 C   0  0  0  0  0  0  0  0  0  0  0  0
  -28.5271  -13.8087   18.4471 C   0  0  0  0  0  0  0  0  0  0  0  0
  -27.1461  -27.8196   20.6606 C   0  0  0  0  0  0  0  0  0  0  0  0
  -20.9008  -27.1414   23.0742 C   0  0  0  0  0  0  0  0  0  0  0  0
  -29.7756  -12.4685   20.0227 C   0  0  0  0  0  0  0  0  0  0  0  0
  -23.6813  -14.9729   22.3084 C   0  0  0  0  0  0  0  0  0  0  0  0
  -18.7735  -26.1301   22.5369 C   0  0  0  0  0  0  0  0  0  0  0  0
  -22.1557  -15.9333   24.1133 C   0  0  0  0  0  0  0  0  0  0  0  0
  -26.6601  -18.6033   19.1645 C   0  0  0  0  0  0  0  0  0  0  0  0
  -27.9438  -26.2965   18.9566 C   0  0  0  0  0  0  0  0  0  0  0  0
  -26.3700  -19.9038   18.7098 C   0  0  0  0  0  0  0  0  0  0  0  0
  -27.8077  -26.6325   20.3111 C   0  0  0  0  0  0  0  0  0  0  0  0
  -20.0168  -26.0664   23.1660 C   0  0  0  0  0  0  0  0  0  0  0  0
  -20.5415  -28.2802   22.3532 C   0  0  0  0  0  0  0  0  0  0  0  0
  -25.3577  -13.0271   21.2191 C   0  0  0  0  0  0  0  0  0  0  0  0
  -26.6383  -28.6671   19.6763 C   0  0  0  0  0  0  0  0  0  0  0  0
  -27.3614  -12.5002   20.1102 C   0  0  0  0  0  0  0  0  0  0  0  0
  -29.7480  -13.3514   18.9431 C   0  0  0  0  0  0  0  0  0  0  0  0
  -28.5823  -12.0429   20.6062 C   0  0  0  0  0  0  0  0  0  0  0  0
  -22.8160  -15.9784   22.8708 C   0  0  0  0  0  0  0  0  0  0  0  0
  -21.4654  -17.1190   24.1785 C   0  0  0  0  0  0  0  0  0  0  0  0
  -17.4008  -24.3494   21.5571 C   0  0  0  0  0  0  0  0  0  0  0  0
  -17.8287  -25.0238   22.6139 C   0  0  0  0  0  0  0  0  0  0  0  0
  -22.1654  -14.9111   25.1186 C   0  0  0  0  0  0  0  0  0  0  0  0
  -27.3637  -23.2893   19.8072 C   0  0  0  0  0  0  0  0  0  0  0  0
  -29.8731  -23.7802   21.8032 C   0  0  0  0  0  0  0  0  0  0  0  0
  -22.7068  -29.4772   22.8234 C   0  0  0  0  0  0  0  0  0  0  0  0
  -31.8074  -25.9951   23.5350 C   0  0  0  0  0  0  0  0  0  0  0  0
  -21.2883  -22.5578   23.6005 C   0  0  0  0  0  0  0  0  0  0  0  0
  -26.7830  -18.2855   20.6337 C   0  0  0  0  0  0  0  0  0  0  0  0
  -28.6696  -25.0428   18.5520 C   0  0  0  0  0  0  0  0  0  0  0  0
  -28.3458  -25.7485   21.4054 C   0  0  0  0  0  0  0  0  0  0  0  0
  -27.0033  -19.5180   21.5071 C   0  0  0  0  0  0  0  0  0  0  0  0
  -20.5793  -20.6147   20.6308 C   0  0  0  0  0  0  0  0  0  0  0  0
  -26.0311  -20.6277   21.1196 C   0  0  0  0  0  0  0  0  0  0  0  0
  -21.0481  -19.2229   21.0589 C   0  0  0  0  0  0  0  0  0  0  0  0
  -21.4934  -21.7017   21.1885 C   0  0  0  0  0  0  0  0  0  0  0  0
  -22.1251  -20.2794   23.0994 C   0  0  0  0  0  0  0  0  0  0  0  0
  -26.2485  -21.0694   19.6673 C   0  0  1  0  0  0  0  0  0  0  0  0
  -28.6874  -23.9823   19.6485 C   0  0  1  0  0  0  0  0  0  0  0  0
  -21.2290  -19.1377   22.5861 C   0  0  2  0  0  0  0  0  0  0  0  0
  -33.7600  -26.0951   25.1082 C   0  0  0  0  0  0  0  0  0  0  0  0
  -28.0772  -22.8495   24.0875 C   0  0  0  0  0  0  0  0  0  0  0  0
  -29.7153  -23.8543   25.6922 C   0  0  0  0  0  0  0  0  0  0  0  0
  -30.4245  -21.9929   24.1906 C   0  0  0  0  0  0  0  0  0  0  0  0
  -33.4086  -27.5974   21.6303 C   0  0  0  0  0  0  0  0  0  0  0  0
  -20.4354  -24.8622   23.9466 C   0  0  0  0  0  0  0  0  0  0  0  0
  -23.3319  -30.8225   22.4810 C   0  0  0  0  0  0  0  0  0  0  0  0
  -24.1337  -30.7848   21.1846 C   0  0  0  0  0  0  0  0  0  0  0  0
  -25.3030  -29.8151   21.2748 C   0  0  0  0  0  0  0  0  0  1  0  0
  -30.0325  -24.2919   23.2145 C   0  0  1  0  0  0  0  0  0  0  0  0
  -33.3140  -26.1377   23.6549 C   0  0  2  0  0  0  0  0  0  0  0  0
  -29.5504  -23.2630   24.2759 C   0  0  0  0  0  0  0  0  0  0  0  0
  -22.5675  -17.1035   22.1953 N   0  0  0  0  0  0  0  0  0  0  0  0
  -21.7432  -17.7764   23.0162 N   0  0  0  0  0  0  0  0  0  0  0  0
  -29.0422  -24.5305   20.9592 N   0  0  0  0  0  0  0  0  0  0  0  0
  -21.6083  -21.5758   22.6483 N   0  0  0  0  0  0  0  0  0  0  0  0
  -20.6540  -17.6528   25.1160 N   0  0  0  0  0  0  0  0  0  0  0  0
  -22.9278  -13.7573   24.8910 N   0  0  0  0  0  0  0  0  0  0  0  0
  -21.4372  -29.3721   22.2623 N   0  0  0  0  0  0  0  0  0  0  0  0
  -27.4087  -21.9289   19.5688 N   0  0  0  0  0  0  0  0  0  0  0  0
  -31.4317  -24.6811   23.3520 N   0  0  0  0  0  0  0  0  0  0  0  0
  -20.8119  -23.7594   23.0904 N   0  0  0  0  0  0  0  0  0  0  0  0
  -33.7606  -27.4309   23.0639 N   0  3  0  0  0  0  0  0  0  0  0  0
  -21.5042  -15.0105   26.1799 O   0  0  0  0  0  0  0  0  0  0  0  0
  -26.3750  -23.9403   20.1240 O   0  0  0  0  0  0  0  0  0  0  0  0
  -30.4699  -22.7565   21.4601 O   0  0  0  0  0  0  0  0  0  0  0  0
  -23.2918  -28.6420   23.5050 O   0  0  0  0  0  0  0  0  0  0  0  0
  -31.0404  -26.9531   23.6010 O   0  0  0  0  0  0  0  0  0  0  0  0
  -21.4127  -22.3755   24.8163 O   0  0  0  0  0  0  0  0  0  0  0  0
  -26.1758  -12.0779   20.6880 O   0  0  0  0  0  0  0  0  0  0  0  0
  -26.0004  -29.8160   20.0297 O   0  0  0  0  0  0  0  0  0  1  0  0
  -30.8938  -13.7590   18.3817 F   0  0  0  0  0  0  0  0  0  0  0  0
  -28.6151  -11.1937   21.6424 F   0  0  0  0  0  0  0  0  0  0  0  0
  1  2  1  0  0  0  0
  1  6  2  0  0  0  0
  2  7  2  0  0  0  0
  3 10  2  0  0  0  0
  3 18  1  0  0  0  0
  4 11  1  0  0  0  0
  4 18  2  0  0  0  0
  5  9  2  0  0  0  0
  5 19  1  0  0  0  0
  6 21  1  0  0  0  0
  7 23  1  0  0  0  0
  8 12  2  0  0  0  0
  8 22  1  0  0  0  0
  9 26  1  0  0  0  0
 10 27  1  0  0  0  0
 11 27  2  0  0  0  0
 12 28  1  0  0  0  0
 13 14  2  0  0  0  0
 13 29  1  0  0  0  0
 14 30  1  0  0  0  0
 15 24  1  0  0  0  0
 15 28  2  0  0  0  0
 16 25  1  0  0  0  0
 16 26  2  0  0  0  0
 17 30  2  0  0  0  0
 17 31  1  0  0  0  0
 18 32  1  0  0  0  0
 19 25  2  0  0  0  0
 19 35  1  0  0  0  0
 20 32  1  0  0  0  0
 20 33  2  0  0  0  0
 20 36  1  0  0  0  0
 21 23  2  0  0  0  0
 21 42  1  0  0  0  0
 22 24  2  0  0  0  0
 22 43  1  0  0  0  0
 23 51  1  0  0  0  0
 24 44  1  0  0  0  0
 25 59  1  0  0  0  0
 26 72  1  0  0  0  0
 27 83  1  0  0  0  0
 28 84  1  0  0  0  0
 29 31  2  0  0  0  0
 29 83  1  0  0  0  0
 30 85  1  0  0  0  0
 31 86  1  0  0  0  0
 32 66  2  0  0  0  0
 33 67  1  0  0  0  0
 33 70  1  0  0  0  0
 34 35  2  0  0  0  0
 36 71  1  0  0  0  0
 36 77  2  0  0  0  0
 37 52  1  0  0  0  0
 37 73  1  0  0  0  0
 37 78  2  0  0  0  0
 38 63  1  0  0  0  0
 38 68  1  0  0  0  0
 38 79  2  0  0  0  0
 39 60  1  0  0  0  0
 39 72  1  0  0  0  0
 39 80  2  0  0  0  0
 40 64  1  0  0  0  0
 40 74  1  0  0  0  0
 40 81  2  0  0  0  0
 41 69  1  0  0  0  0
 41 75  1  0  0  0  0
 41 82  2  0  0  0  0
 42 45  1  0  0  0  0
 43 52  1  0  0  0  0
 44 68  1  0  0  0  0
 45 47  1  0  0  0  0
 46 48  1  0  0  0  0
 46 49  1  0  0  0  0
 47 51  1  0  0  0  0
 48 53  1  0  0  0  0
 49 69  1  0  0  0  0
 50 53  1  0  0  0  0
 50 69  1  0  0  0  0
 51 73  1  0  0  0  0
 52 68  1  0  0  0  0
 53 67  1  0  0  0  0
 54 64  1  0  0  0  0
 55 65  1  0  0  0  0
 56 65  1  0  0  0  0
 57 65  1  0  0  0  0
 58 76  1  0  0  0  0
 59 75  1  0  0  0  0
 60 61  1  0  0  0  0
 61 62  1  0  0  0  0
 62 84  1  0  0  0  0
 63 65  1  0  0  0  0
 63 74  1  0  0  0  0
 64 76  1  0  0  0  0
 66 67  1  0  0  0  0
M  CHG  1  76   1
M  ISO  4  41 100  62 101  75 100  84 101
M  END
> <Batch ID>
0108

> <Smiles>
C=Cc1ccc(NC(=O)CC[101CH2:1][101O:1]c2ccc3c(c2)CN(C(=O)C(NC(=O)C(C)NC)C(C)(C)C)C(C(=O)NC2CCCc4ccccc42)C3)cc1C[100NH:0][100C:0](=O)N1CCCC(n2nc(-c3ccc(Oc4ccc(F)cc4F)cc3)c(C(N)=O)c2N)C1

> <Shape>
0.195

> <Color>
0.081

> <Negative vol penalty>
0.000

$$$$

  -OEChem-04052301203D

 92101  0     1  0  0  0  0  0999 V2000
  -28.7719  -29.4016   27.5942 C   0  0  0  0  0  0  0  0  0  0  0  0
  -28.5980  -28.6741   26.4211 C   0  0  0  0  0  0  0  0  0  0  0  0
  -23.0809   -9.7389   19.8980 C   0  0  0  0  0  0  0  0  0  0  0  0
  -24.5062   -9.3399   21.8076 C   0  0  0  0  0  0  0  0  0  0  0  0
  -27.6930  -30.0814   28.1579 C   0  0  0  0  0  0  0  0  0  0  0  0
  -27.3448  -28.6251   25.8117 C   0  0  0  0  0  0  0  0  0  0  0  0
  -27.5956  -29.2885   20.7975 C   0  0  0  0  0  0  0  0  0  0  0  0
  -22.5464   -8.4572   20.0292 C   0  0  0  0  0  0  0  0  0  0  0  0
  -23.9716   -8.0583   21.9388 C   0  0  0  0  0  0  0  0  0  0  0  0
  -28.0032  -28.1979   20.0306 C   0  0  0  0  0  0  0  0  0  0  0  0
  -21.1614   -6.6481   23.1777 C   0  0  0  0  0  0  0  0  0  0  0  0
  -20.8072   -6.2232   24.4582 C   0  0  0  0  0  0  0  0  0  0  0  0
  -25.7010  -27.7313   19.4816 C   0  0  0  0  0  0  0  0  0  0  0  0
  -30.2064  -19.4661   21.1120 C   0  0  0  0  0  0  0  0  0  0  0  0
  -27.5958  -20.3183   20.6210 C   0  0  0  0  0  0  0  0  0  0  0  0
  -22.3683   -4.3878   24.2810 C   0  0  0  0  0  0  0  0  0  0  0  0
  -24.0608  -10.1802   20.7872 C   0  0  0  0  0  0  0  0  0  0  0  0
  -23.9186  -12.7263   20.7166 C   0  0  0  0  0  0  0  0  0  0  0  0
  -26.4282  -30.0486   27.5498 C   0  0  0  0  0  0  0  0  0  0  0  0
  -26.2346  -29.6027   20.9213 C   0  0  0  0  0  0  0  0  0  0  0  0
  -26.2476  -29.3040   26.3685 C   0  0  0  0  0  0  0  0  0  0  0  0
  -25.2789  -28.8279   20.2486 C   0  0  0  0  0  0  0  0  0  0  0  0
  -29.9650  -20.4673   20.1714 C   0  0  0  0  0  0  0  0  0  0  0  0
  -29.1426  -18.8909   21.8071 C   0  0  0  0  0  0  0  0  0  0  0  0
  -28.6597  -20.8935   19.9259 C   0  0  0  0  0  0  0  0  0  0  0  0
  -22.9917   -7.6169   21.0496 C   0  0  0  0  0  0  0  0  0  0  0  0
  -27.0556  -27.4173   19.3748 C   0  0  0  0  0  0  0  0  0  0  0  0
  -22.1190   -5.9428   22.4488 C   0  0  0  0  0  0  0  0  0  0  0  0
  -27.8373  -19.3170   21.5617 C   0  0  0  0  0  0  0  0  0  0  0  0
  -21.4107   -5.0931   25.0098 C   0  0  0  0  0  0  0  0  0  0  0  0
  -22.7225   -4.8126   23.0005 C   0  0  0  0  0  0  0  0  0  0  0  0
  -24.6138  -11.5039   20.6519 C   0  0  0  0  0  0  0  0  0  0  0  0
  -24.8869  -13.6823   20.5295 C   0  0  0  0  0  0  0  0  0  0  0  0
  -27.3077  -23.9782   18.3127 C   0  0  0  0  0  0  0  0  0  0  0  0
  -27.7725  -23.1397   19.2703 C   0  0  0  0  0  0  0  0  0  0  0  0
  -27.5722  -23.6203   16.8801 C   0  0  0  0  0  0  0  0  0  0  0  0
  -22.5224  -12.9754   20.9271 C   0  0  0  0  0  0  0  0  0  0  0  0
  -24.1783  -29.7536   23.3405 C   0  0  0  0  0  0  0  0  0  0  0  0
  -22.1864  -30.9255   21.0643 C   0  0  0  0  0  0  0  0  0  0  0  0
  -21.9953  -30.1634   17.7432 C   0  0  0  0  0  0  0  0  0  0  0  0
  -29.9688  -15.7335   21.5840 C   0  0  0  0  0  0  0  0  0  0  0  0
  -25.2809  -30.7605   28.2219 C   0  0  0  0  0  0  0  0  0  0  0  0
  -25.8131  -30.7984   21.7307 C   0  0  0  0  0  0  0  0  0  0  0  0
  -23.8069  -29.1353   20.3329 C   0  0  0  0  0  0  0  0  0  0  0  0
  -28.5653  -22.5199   16.6002 C   0  0  0  0  0  0  0  0  0  0  0  0
  -24.0734  -30.9653   27.3107 C   0  0  0  0  0  0  0  0  0  0  0  0
  -29.7049  -13.2434   19.0529 C   0  0  0  0  0  0  0  0  0  0  0  0
  -23.7439  -29.6770   26.5635 C   0  0  0  0  0  0  0  0  0  0  0  0
  -28.3026  -12.6659   19.2527 C   0  0  0  0  0  0  0  0  0  0  0  0
  -28.4269  -21.3885   17.6005 C   0  0  0  0  0  0  0  0  0  0  0  0
  -30.3622  -13.6026   20.3837 C   0  0  0  0  0  0  0  0  0  0  0  0
  -28.1616  -13.9136   21.4487 C   0  0  0  0  0  0  0  0  0  0  0  0
  -24.9094  -29.2472   25.6643 C   0  0  1  0  0  0  0  0  0  0  0  0
  -24.3652  -30.7190   22.2044 C   0  0  1  0  0  0  0  0  0  0  0  0
  -27.4364  -13.5881   20.1317 C   0  0  2  0  0  0  0  0  0  0  0  0
  -27.6949  -23.5479   20.7292 C   0  0  0  0  0  0  0  0  0  0  0  0
  -33.0948  -22.6480   19.5766 C   0  0  0  0  0  0  0  0  0  0  0  0
  -22.1096  -30.1709   15.2364 C   0  0  0  0  0  0  0  0  0  0  0  0
  -19.4514  -29.8903   21.9348 C   0  0  0  0  0  0  0  0  0  0  0  0
  -18.7796  -29.8420   19.5235 C   0  0  0  0  0  0  0  0  0  0  0  0
  -19.3904  -32.0062   20.6031 C   0  0  0  0  0  0  0  0  0  0  0  0
  -23.8064  -32.5039   17.7171 C   0  0  0  0  0  0  0  0  0  0  0  0
  -25.4867  -19.2620   21.9187 C   0  0  0  0  0  0  0  0  0  0  0  0
  -31.1223  -21.0662   19.4403 C   0  0  0  0  0  0  0  0  0  0  0  0
  -29.4202  -17.8203   22.8102 C   0  0  0  0  0  0  0  0  0  0  0  0
  -26.5447  -25.2535   18.5307 C   0  0  0  0  0  0  0  0  0  1  0  0
  -31.8979  -22.0649   20.3109 C   0  0  0  0  0  0  0  0  0  0  0  0
  -21.2046  -30.3219   20.0893 C   0  0  1  0  0  0  0  0  0  0  0  0
  -22.2181  -31.0078   16.5015 C   0  0  2  0  0  0  0  0  0  0  0  0
  -19.7293  -30.5007   20.5466 C   0  0  0  0  0  0  0  0  0  0  0  0
  -25.9226  -11.6656   20.4401 N   0  0  0  0  0  0  0  0  0  0  0  0
  -26.0575  -13.0009   20.3700 N   0  0  0  0  0  0  0  0  0  0  0  0
  -28.3953  -21.9136   18.9715 N   0  0  0  0  0  0  0  0  0  0  0  0
  -23.4443  -30.3109   21.1416 N   0  0  0  0  0  0  0  0  0  0  0  0
  -29.4902  -14.4800   21.1683 N   0  0  0  0  0  0  0  0  0  0  0  0
  -24.8426  -15.0309   20.4875 N   0  0  0  0  0  0  0  0  0  0  0  0
  -22.0630  -13.1359   22.2414 N   0  0  0  0  0  0  0  0  0  0  0  0
  -24.9377  -30.0455   24.4575 N   0  0  0  0  0  0  0  0  0  0  0  0
  -21.5032  -30.9142   18.7899 N   0  0  0  0  0  0  0  0  0  0  0  0
  -29.0760  -16.5050   22.3178 N   0  0  0  0  0  0  0  0  0  0  0  0
  -23.5702  -31.6337   16.5365 N   0  3  0  0  0  0  0  0  0  0  0  0
  -27.0612  -24.2583   15.9610 O   0  0  0  0  0  0  0  0  0  0  0  0
  -21.7036  -13.0370   19.9787 O   0  0  0  0  0  0  0  0  0  0  0  0
  -23.4016  -28.8143   23.2137 O   0  0  0  0  0  0  0  0  0  0  0  0
  -21.8522  -31.9104   21.7275 O   0  0  0  0  0  0  0  0  0  0  0  0
  -22.2304  -28.9576   17.7798 O   0  0  0  0  0  0  0  0  0  0  0  0
  -31.1054  -16.1375   21.3162 O   0  0  0  0  0  0  0  0  0  0  0  0
  -22.4702   -6.3663   21.1780 O   0  0  0  0  0  0  0  0  0  0  0  0
  -26.7868  -18.7665   22.2322 O   0  0  0  0  0  0  0  0  0  0  0  0
  -27.4507  -26.3519   18.6261 O   0  0  0  0  0  0  0  0  0  1  0  0
  -21.0716   -4.6861   26.2401 F   0  0  0  0  0  0  0  0  0  0  0  0
  -23.6439   -4.1316   22.3055 F   0  0  0  0  0  0  0  0  0  0  0  0
  1  2  1  0  0  0  0
  1  5  2  0  0  0  0
  2  6  2  0  0  0  0
  3  8  2  0  0  0  0
  3 17  1  0  0  0  0
  4  9  1  0  0  0  0
  4 17  2  0  0  0  0
  5 19  1  0  0  0  0
  6 21  1  0  0  0  0
  7 10  2  0  0  0  0
  7 20  1  0  0  0  0
  8 26  1  0  0  0  0
  9 26  2  0  0  0  0
 10 27  1  0  0  0  0
 11 12  2  0  0  0  0
 11 28  1  0  0  0  0
 12 30  1  0  0  0  0
 13 22  1  0  0  0  0
 13 27  2  0  0  0  0
 14 23  1  0  0  0  0
 14 24  2  0  0  0  0
 15 25  1  0  0  0  0
 15 29  2  0  0  0  0
 16 30  2  0  0  0  0
 16 31  1  0  0  0  0
 17 32  1  0  0  0  0
 18 32  1  0  0  0  0
 18 33  2  0  0  0  0
 18 37  1  0  0  0  0
 19 21  2  0  0  0  0
 19 42  1  0  0  0  0
 20 22  2  0  0  0  0
 20 43  1  0  0  0  0
 21 53  1  0  0  0  0
 22 44  1  0  0  0  0
 23 25  2  0  0  0  0
 23 64  1  0  0  0  0
 24 29  1  0  0  0  0
 24 65  1  0  0  0  0
 25 73  1  0  0  0  0
 26 88  1  0  0  0  0
 27 90  1  0  0  0  0
 28 31  2  0  0  0  0
 28 88  1  0  0  0  0
 29 89  1  0  0  0  0
 30 91  1  0  0  0  0
 31 92  1  0  0  0  0
 32 71  2  0  0  0  0
 33 72  1  0  0  0  0
 33 76  1  0  0  0  0
 34 35  2  0  0  0  0
 34 36  1  0  0  0  0
 34 66  1  0  0  0  0
 35 56  1  0  0  0  0
 35 73  1  0  0  0  0
 36 45  1  0  0  0  0
 36 82  2  0  0  0  0
 37 77  1  0  0  0  0
 37 83  2  0  0  0  0
 38 54  1  0  0  0  0
 38 78  1  0  0  0  0
 38 84  2  0  0  0  0
 39 68  1  0  0  0  0
 39 74  1  0  0  0  0
 39 85  2  0  0  0  0
 40 69  1  0  0  0  0
 40 79  1  0  0  0  0
 40 86  2  0  0  0  0
 41 75  1  0  0  0  0
 41 80  1  0  0  0  0
 41 87  2  0  0  0  0
 42 46  1  0  0  0  0
 43 54  1  0  0  0  0
 44 74  1  0  0  0  0
 45 50  1  0  0  0  0
 46 48  1  0  0  0  0
 47 49  1  0  0  0  0
 47 51  1  0  0  0  0
 48 53  1  0  0  0  0
 49 55  1  0  0  0  0
 50 73  1  0  0  0  0
 51 75  1  0  0  0  0
 52 55  1  0  0  0  0
 52 75  1  0  0  0  0
 53 78  1  0  0  0  0
 54 74  1  0  0  0  0
 55 72  1  0  0  0  0
 57 67  1  0  0  0  0
 58 69  1  0  0  0  0
 59 70  1  0  0  0  0
 60 70  1  0  0  0  0
 61 70  1  0  0  0  0
 62 81  1  0  0  0  0
 63 89  1  0  0  0  0
 64 67  1  0  0  0  0
 65 80  1  0  0  0  0
 66 90  1  0  0  0  0
 68 70  1  0  0  0  0
 68 79  1  0  0  0  0
 69 81  1  0  0  0  0
 71 72  1  0  0  0  0
M  CHG  1  81   1
M  ISO  4  41 100  66 101  80 100  90 101
M  END
> <Batch ID>
0108

> <Smiles>
CCCc1cc(C[100NH:0][100C:0](=O)N2CCCC(n3nc(-c4ccc(Oc5ccc(F)cc5F)cc4)c(C(N)=O)c3N)C2)c(OC)cc1N1CCC(=O)C([101CH2:1][101O:1]c2ccc3c(c2)CN(C(=O)C(NC(=O)C(C)NC)C(C)(C)C)C(C(=O)NC2CCCc4ccccc42)C3)=C1C

> <Shape>
0.327

> <Color>
0.188

> <Negative vol penalty>
0.000

$$$$

  -OEChem-04052301203D

 91100  0     1  0  0  0  0  0999 V2000
  -27.5320  -35.6285   27.1705 C   0  0  0  0  0  0  0  0  0  0  0  0
  -27.4444  -35.5740   25.7840 C   0  0  0  0  0  0  0  0  0  0  0  0
  -24.3256  -19.4839   22.8325 C   0  0  0  0  0  0  0  0  0  0  0  0
  -25.4752  -17.9922   24.3459 C   0  0  0  0  0  0  0  0  0  0  0  0
  -27.5551  -34.4482   27.9105 C   0  0  0  0  0  0  0  0  0  0  0  0
  -27.3677  -34.3397   25.1379 C   0  0  0  0  0  0  0  0  0  0  0  0
  -26.8839  -29.2363   19.0598 C   0  0  0  0  0  0  0  0  0  0  0  0
  -24.7134  -20.5737   23.6120 C   0  0  0  0  0  0  0  0  0  0  0  0
  -25.8631  -19.0820   25.1254 C   0  0  0  0  0  0  0  0  0  0  0  0
  -27.1015  -27.9059   18.7040 C   0  0  0  0  0  0  0  0  0  0  0  0
  -27.4903  -22.4488   24.0662 C   0  0  0  0  0  0  0  0  0  0  0  0
  -27.9857  -23.5737   23.4069 C   0  0  0  0  0  0  0  0  0  0  0  0
  -26.9622  -19.7148   17.6510 C   0  0  0  0  0  0  0  0  0  0  0  0
  -25.6532  -27.1956   20.4977 C   0  0  0  0  0  0  0  0  0  0  0  0
  -28.0090  -18.7018   19.5784 C   0  0  0  0  0  0  0  0  0  0  0  0
  -26.2033  -24.9082   24.3446 C   0  0  0  0  0  0  0  0  0  0  0  0
  -24.7064  -18.1932   23.1995 C   0  0  0  0  0  0  0  0  0  0  0  0
  -26.6037  -18.4512   17.1815 C   0  0  0  0  0  0  0  0  0  0  0  0
  -22.9912  -16.6599   22.0973 C   0  0  0  0  0  0  0  0  0  0  0  0
  -27.4913  -33.1990   27.2715 C   0  0  0  0  0  0  0  0  0  0  0  0
  -26.0565  -29.5564   20.1458 C   0  0  0  0  0  0  0  0  0  0  0  0
  -27.3655  -33.1379   25.8688 C   0  0  0  0  0  0  0  0  0  0  0  0
  -25.4247  -28.5309   20.8636 C   0  0  0  0  0  0  0  0  0  0  0  0
  -26.9478  -17.3129   17.9106 C   0  0  0  0  0  0  0  0  0  0  0  0
  -27.6649  -19.8402   18.8494 C   0  0  0  0  0  0  0  0  0  0  0  0
  -25.4822  -20.3727   24.7584 C   0  0  0  0  0  0  0  0  0  0  0  0
  -26.4885  -26.8852   19.4248 C   0  0  0  0  0  0  0  0  0  0  0  0
  -26.3513  -22.5535   24.8646 C   0  0  0  0  0  0  0  0  0  0  0  0
  -27.3422  -24.8034   23.5461 C   0  0  0  0  0  0  0  0  0  0  0  0
  -27.6505  -17.4382   19.1090 C   0  0  0  0  0  0  0  0  0  0  0  0
  -25.7078  -23.7832   25.0038 C   0  0  0  0  0  0  0  0  0  0  0  0
  -24.3055  -17.0670   22.3950 C   0  0  0  0  0  0  0  0  0  0  0  0
  -23.1471  -15.5480   21.3061 C   0  0  0  0  0  0  0  0  0  0  0  0
  -27.5195  -23.4464   19.7913 C   0  0  0  0  0  0  0  0  0  0  0  0
  -27.1257  -22.1585   19.6389 C   0  0  0  0  0  0  0  0  0  0  0  0
  -28.9672  -23.7749   19.5653 C   0  0  0  0  0  0  0  0  0  0  0  0
  -24.7026  -18.9374   15.7103 C   0  0  0  0  0  0  0  0  0  0  0  0
  -25.8716  -18.3531   15.9254 C   0  0  0  0  0  0  0  0  0  0  0  0
  -21.7412  -17.2353   22.4998 C   0  0  0  0  0  0  0  0  0  0  0  0
  -26.4800  -31.0293   22.9306 C   0  0  0  0  0  0  0  0  0  0  0  0
  -23.2602  -30.7026   23.1499 C   0  0  0  0  0  0  0  0  0  0  0  0
  -20.8163  -28.1514   22.4176 C   0  0  0  0  0  0  0  0  0  0  0  0
  -28.0038  -13.9165   17.9461 C   0  0  0  0  0  0  0  0  0  0  0  0
  -27.5121  -31.9532   28.1217 C   0  0  0  0  0  0  0  0  0  0  0  0
  -25.8107  -30.9974   20.5002 C   0  0  0  0  0  0  0  0  0  0  0  0
  -24.5113  -28.8224   22.0251 C   0  0  0  0  0  0  0  0  0  0  0  0
  -29.8803  -22.6900   19.0474 C   0  0  0  0  0  0  0  0  0  0  0  0
  -27.8731  -30.6999   27.3311 C   0  0  0  0  0  0  0  0  0  0  0  0
  -26.1525  -11.9300   20.4617 C   0  0  0  0  0  0  0  0  0  0  0  0
  -27.0255  -30.6186   26.0703 C   0  0  0  0  0  0  0  0  0  0  0  0
  -25.4156  -13.0052   21.2586 C   0  0  0  0  0  0  0  0  0  0  0  0
  -29.4664  -21.3180   19.5503 C   0  0  0  0  0  0  0  0  0  0  0  0
  -27.4506  -12.4597   19.8601 C   0  0  0  0  0  0  0  0  0  0  0  0
  -26.5381  -14.7576   19.8269 C   0  0  0  0  0  0  0  0  0  0  0  0
  -27.3118  -31.8060   25.1423 C   0  0  1  0  0  0  0  0  0  0  0  0
  -25.3577  -31.1887   21.9443 C   0  0  1  0  0  0  0  0  0  0  0  0
  -25.2025  -14.2693   20.4077 C   0  0  2  0  0  0  0  0  0  0  0  0
  -25.6868  -21.7699   19.9184 C   0  0  0  0  0  0  0  0  0  0  0  0
  -18.3844  -28.3427   21.8287 C   0  0  0  0  0  0  0  0  0  0  0  0
  -22.8032  -30.3187   26.1422 C   0  0  0  0  0  0  0  0  0  0  0  0
  -20.8048  -28.9166   25.5863 C   0  0  0  0  0  0  0  0  0  0  0  0
  -20.8688  -31.3171   24.9111 C   0  0  0  0  0  0  0  0  0  0  0  0
  -28.5247  -15.3753   16.0278 C   0  0  0  0  0  0  0  0  0  0  0  0
  -21.1787  -26.5988   19.9242 C   0  0  0  0  0  0  0  0  0  0  0  0
  -26.5795  -15.9444   17.4343 C   0  0  0  0  0  0  0  0  0  0  0  0
  -26.6410  -24.6183   20.1273 C   0  0  0  0  0  0  0  0  0  1  0  0
  -22.3272  -29.6482   23.6947 C   0  0  1  0  0  0  0  0  0  0  0  0
  -19.7967  -28.1657   21.2930 C   0  0  2  0  0  0  0  0  0  0  0  0
  -21.7267  -30.0434   25.0733 C   0  0  0  0  0  0  0  0  0  0  0  0
  -25.2284  -16.2779   21.8385 N   0  0  0  0  0  0  0  0  0  0  0  0
  -24.4929  -15.3638   21.1831 N   0  0  0  0  0  0  0  0  0  0  0  0
  -28.0291  -21.1256   19.3269 N   0  0  0  0  0  0  0  0  0  0  0  0
  -24.3075  -30.2468   22.3367 N   0  0  0  0  0  0  0  0  0  0  0  0
  -27.2260  -13.6852   19.0926 N   0  0  0  0  0  0  0  0  0  0  0  0
  -22.2630  -14.7197   20.7107 N   0  0  0  0  0  0  0  0  0  0  0  0
  -21.7621  -18.3767   23.3130 N   0  0  0  0  0  0  0  0  0  0  0  0
  -26.3466  -31.8068   24.0651 N   0  0  0  0  0  0  0  0  0  0  0  0
  -21.3315  -29.4080   22.6559 N   0  0  0  0  0  0  0  0  0  0  0  0
  -27.7521  -15.0966   17.2300 N   0  0  0  0  0  0  0  0  0  0  0  0
  -19.8522  -26.8884   20.5272 N   0  3  0  0  0  0  0  0  0  0  0  0
  -29.3902  -24.9168   19.7444 O   0  0  0  0  0  0  0  0  0  0  0  0
  -20.6383  -16.7421   22.1624 O   0  0  0  0  0  0  0  0  0  0  0  0
  -27.3982  -30.2570   22.6814 O   0  0  0  0  0  0  0  0  0  0  0  0
  -23.0626  -31.8876   23.4295 O   0  0  0  0  0  0  0  0  0  0  0  0
  -21.1221  -27.1285   23.0265 O   0  0  0  0  0  0  0  0  0  0  0  0
  -28.8670  -13.1095   17.5780 O   0  0  0  0  0  0  0  0  0  0  0  0
  -25.8611  -21.4359   25.5191 O   0  0  0  0  0  0  0  0  0  0  0  0
  -26.6997  -25.5858   19.0800 O   0  0  0  0  0  0  0  0  0  1  0  0
  -27.8190  -25.8840   22.9142 F   0  0  0  0  0  0  0  0  0  0  0  0
  -27.9867  -16.3507   19.8170 F   0  0  0  0  0  0  0  0  0  0  0  0
  -24.6139  -23.8903   25.7705 F   0  0  0  0  0  0  0  0  0  0  0  0
  1  2  1  0  0  0  0
  1  5  2  0  0  0  0
  2  6  2  0  0  0  0
  3  8  2  0  0  0  0
  3 17  1  0  0  0  0
  4  9  1  0  0  0  0
  4 17  2  0  0  0  0
  5 20  1  0  0  0  0
  6 22  1  0  0  0  0
  7 10  2  0  0  0  0
  7 21  1  0  0  0  0
  8 26  1  0  0  0  0
  9 26  2  0  0  0  0
 10 27  1  0  0  0  0
 11 12  2  0  0  0  0
 11 28  1  0  0  0  0
 12 29  1  0  0  0  0
 13 18  1  0  0  0  0
 13 25  2  0  0  0  0
 14 23  1  0  0  0  0
 14 27  2  0  0  0  0
 15 25  1  0  0  0  0
 15 30  2  0  0  0  0
 16 29  2  0  0  0  0
 16 31  1  0  0  0  0
 17 32  1  0  0  0  0
 18 24  2  0  0  0  0
 18 38  1  0  0  0  0
 19 32  1  0  0  0  0
 19 33  2  0  0  0  0
 19 39  1  0  0  0  0
 20 22  2  0  0  0  0
 20 44  1  0  0  0  0
 21 23  2  0  0  0  0
 21 45  1  0  0  0  0
 22 55  1  0  0  0  0
 23 46  1  0  0  0  0
 24 30  1  0  0  0  0
 24 65  1  0  0  0  0
 25 72  1  0  0  0  0
 26 87  1  0  0  0  0
 27 88  1  0  0  0  0
 28 31  2  0  0  0  0
 28 87  1  0  0  0  0
 29 89  1  0  0  0  0
 30 90  1  0  0  0  0
 31 91  1  0  0  0  0
 32 70  2  0  0  0  0
 33 71  1  0  0  0  0
 33 75  1  0  0  0  0
 34 35  2  0  0  0  0
 34 36  1  0  0  0  0
 34 66  1  0  0  0  0
 35 58  1  0  0  0  0
 35 72  1  0  0  0  0
 36 47  1  0  0  0  0
 36 81  2  0  0  0  0
 37 38  2  0  0  0  0
 39 76  1  0  0  0  0
 39 82  2  0  0  0  0
 40 56  1  0  0  0  0
 40 77  1  0  0  0  0
 40 83  2  0  0  0  0
 41 67  1  0  0  0  0
 41 73  1  0  0  0  0
 41 84  2  0  0  0  0
 42 68  1  0  0  0  0
 42 78  1  0  0  0  0
 42 85  2  0  0  0  0
 43 74  1  0  0  0  0
 43 79  1  0  0  0  0
 43 86  2  0  0  0  0
 44 48  1  0  0  0  0
 45 56  1  0  0  0  0
 46 73  1  0  0  0  0
 47 52  1  0  0  0  0
 48 50  1  0  0  0  0
 49 51  1  0  0  0  0
 49 53  1  0  0  0  0
 50 55  1  0  0  0  0
 51 57  1  0  0  0  0
 52 72  1  0  0  0  0
 53 74  1  0  0  0  0
 54 57  1  0  0  0  0
 54 74  1  0  0  0  0
 55 77  1  0  0  0  0
 56 73  1  0  0  0  0
 57 71  1  0  0  0  0
 59 68  1  0  0  0  0
 60 69  1  0  0  0  0
 61 69  1  0  0  0  0
 62 69  1  0  0  0  0
 63 79  1  0  0  0  0
 64 80  1  0  0  0  0
 65 79  1  0  0  0  0
 66 88  1  0  0  0  0
 67 69  1  0  0  0  0
 67 78  1  0  0  0  0
 68 80  1  0  0  0  0
 70 71  1  0  0  0  0
M  CHG  1  80   1
M  ISO  4  43 100  66 101  79 100  88 101
M  END
> <Batch ID>
0108

> <Smiles>
C=Cc1cc(N2CCC(=O)C([101CH2:1][101O:1]c3ccc4c(c3)CN(C(=O)C(NC(=O)C(C)NC)C(C)(C)C)C(C(=O)NC3CCCc5ccccc53)C4)=C2C)cc(F)c1C[100N:0](C)[100C:0](=O)N1CCCC(n2nc(-c3ccc(Oc4ccc(F)cc4F)cc3)c(C(N)=O)c2N)C1

> <Shape>
0.246

> <Color>
0.085

> <Negative vol penalty>
0.000

$$$$

  -OEChem-04052301203D

 88 97  0     1  0  0  0  0  0999 V2000
  -29.6323  -31.7802   26.2891 C   0  0  0  0  0  0  0  0  0  0  0  0
  -29.3729  -30.7166   25.4307 C   0  0  0  0  0  0  0  0  0  0  0  0
  -23.2345   -9.6910   19.8923 C   0  0  0  0  0  0  0  0  0  0  0  0
  -24.3561   -9.2834   21.9930 C   0  0  0  0  0  0  0  0  0  0  0  0
  -28.5754  -32.5031   26.8407 C   0  0  0  0  0  0  0  0  0  0  0  0
  -28.0562  -30.3746   25.1242 C   0  0  0  0  0  0  0  0  0  0  0  0
  -27.3780  -29.4920   20.1839 C   0  0  0  0  0  0  0  0  0  0  0  0
  -22.6582   -8.4223   19.9537 C   0  0  0  0  0  0  0  0  0  0  0  0
  -23.7798   -8.0147   22.0545 C   0  0  0  0  0  0  0  0  0  0  0  0
  -27.8049  -28.2590   19.6929 C   0  0  0  0  0  0  0  0  0  0  0  0
  -20.7881   -6.6770   22.8797 C   0  0  0  0  0  0  0  0  0  0  0  0
  -20.2412   -6.2737   24.0978 C   0  0  0  0  0  0  0  0  0  0  0  0
  -25.5343  -27.4482   19.7718 C   0  0  0  0  0  0  0  0  0  0  0  0
  -28.2648  -19.9972   21.4625 C   0  0  0  0  0  0  0  0  0  0  0  0
  -30.3712  -20.1775   20.2930 C   0  0  0  0  0  0  0  0  0  0  0  0
  -21.7702   -4.4043   24.1653 C   0  0  0  0  0  0  0  0  0  0  0  0
  -24.0835  -10.1216   20.9118 C   0  0  0  0  0  0  0  0  0  0  0  0
  -24.1522  -12.6314   21.3631 C   0  0  0  0  0  0  0  0  0  0  0  0
  -27.2454  -32.1760   26.5332 C   0  0  0  0  0  0  0  0  0  0  0  0
  -26.0254  -29.7093   20.4833 C   0  0  0  0  0  0  0  0  0  0  0  0
  -26.9805  -31.0930   25.6732 C   0  0  0  0  0  0  0  0  0  0  0  0
  -25.0924  -28.6857   20.2641 C   0  0  0  0  0  0  0  0  0  0  0  0
  -28.7028  -18.8205   22.0701 C   0  0  0  0  0  0  0  0  0  0  0  0
  -29.9751  -18.3223   21.7892 C   0  0  0  0  0  0  0  0  0  0  0  0
  -29.0989  -20.6757   20.5739 C   0  0  0  0  0  0  0  0  0  0  0  0
  -22.9308   -7.5841   21.0349 C   0  0  0  0  0  0  0  0  0  0  0  0
  -26.8835  -27.2359   19.4895 C   0  0  0  0  0  0  0  0  0  0  0  0
  -21.8260   -5.9440   22.3043 C   0  0  0  0  0  0  0  0  0  0  0  0
  -20.7322   -5.1374   24.7406 C   0  0  0  0  0  0  0  0  0  0  0  0
  -30.8093  -19.0008   20.9006 C   0  0  0  0  0  0  0  0  0  0  0  0
  -22.3171   -4.8076   22.9471 C   0  0  0  0  0  0  0  0  0  0  0  0
  -24.6796  -11.4319   20.8486 C   0  0  0  0  0  0  0  0  0  0  0  0
  -25.0913  -13.5827   21.0473 C   0  0  0  0  0  0  0  0  0  0  0  0
  -27.7703  -22.8395   20.4187 C   0  0  0  0  0  0  0  0  0  0  0  0
  -27.4384  -23.6821   19.4199 C   0  0  0  0  0  0  0  0  0  0  0  0
  -26.0909  -23.3811   22.0588 C   0  0  0  0  0  0  0  0  0  0  0  0
  -27.3479  -22.9839   21.7861 C   0  0  0  0  0  0  0  0  0  0  0  0
  -22.9234  -12.8649   22.0640 C   0  0  0  0  0  0  0  0  0  0  0  0
  -24.3968  -30.4131   23.1208 C   0  0  0  0  0  0  0  0  0  0  0  0
  -21.9095  -30.6545   21.0525 C   0  0  0  0  0  0  0  0  0  0  0  0
  -20.5435  -29.7814   18.0494 C   0  0  0  0  0  0  0  0  0  0  0  0
  -30.4052  -15.2578   20.7278 C   0  0  0  0  0  0  0  0  0  0  0  0
  -26.1351  -32.9565   27.1910 C   0  0  0  0  0  0  0  0  0  0  0  0
  -25.5769  -31.0537   20.9870 C   0  0  0  0  0  0  0  0  0  0  0  0
  -23.6259  -28.8747   20.5506 C   0  0  0  0  0  0  0  0  0  0  0  0
  -28.1335  -23.2827   18.1428 C   0  0  0  0  0  0  0  0  0  0  0  0
  -24.7770  -32.7669   26.5203 C   0  0  0  0  0  0  0  0  0  0  0  0
  -29.1302  -13.3412   18.0116 C   0  0  0  0  0  0  0  0  0  0  0  0
  -24.5161  -31.2882   26.2516 C   0  0  0  0  0  0  0  0  0  0  0  0
  -27.8190  -12.7679   18.5521 C   0  0  0  0  0  0  0  0  0  0  0  0
  -29.0596  -22.1340   18.5745 C   0  0  0  0  0  0  0  0  0  0  0  0
  -30.2059  -13.4069   19.0935 C   0  0  0  0  0  0  0  0  0  0  0  0
  -28.4952  -13.5459   20.8621 C   0  0  0  0  0  0  0  0  0  0  0  0
  -25.5664  -30.7072   25.2971 C   0  0  1  0  0  0  0  0  0  0  0  0
  -24.2535  -30.9972   21.7438 C   0  0  1  0  0  0  0  0  0  0  0  0
  -27.3628  -13.5120   19.8215 C   0  0  2  0  0  0  0  0  0  0  0  0
  -27.7919  -18.1113   23.0176 C   0  0  0  0  0  0  0  0  0  0  0  0
  -18.4824  -30.1038   16.6546 C   0  0  0  0  0  0  0  0  0  0  0  0
  -20.3987  -28.6932   22.8359 C   0  0  0  0  0  0  0  0  0  0  0  0
  -18.7908  -28.3269   20.9522 C   0  0  0  0  0  0  0  0  0  0  0  0
  -19.0199  -30.5921   21.9715 C   0  0  0  0  0  0  0  0  0  0  0  0
  -22.0805  -31.0560   15.8650 C   0  0  0  0  0  0  0  0  0  0  0  0
  -30.4624  -17.0638   22.4290 C   0  0  0  0  0  0  0  0  0  0  0  0
  -26.5548  -24.8817   19.4150 C   0  0  0  0  0  0  0  0  0  1  0  0
  -20.8766  -29.6986   20.5064 C   0  0  1  0  0  0  0  0  0  0  0  0
  -19.8821  -30.6117   16.9642 C   0  0  2  0  0  0  0  0  0  0  0  0
  -19.7994  -29.3232   21.5628 C   0  0  0  0  0  0  0  0  0  0  0  0
  -25.8619  -11.6028   20.2511 N   0  0  0  0  0  0  0  0  0  0  0  0
  -26.0852  -12.9209   20.3882 N   0  0  0  0  0  0  0  0  0  0  0  0
  -28.6576  -21.8631   19.9610 N   0  0  0  0  0  0  0  0  0  0  0  0
  -23.2376  -30.2051   21.0476 N   0  0  0  0  0  0  0  0  0  0  0  0
  -29.7102  -14.1265   20.2693 N   0  0  0  0  0  0  0  0  0  0  0  0
  -25.1556  -14.9123   21.2718 N   0  0  0  0  0  0  0  0  0  0  0  0
  -22.0745  -11.7761   22.3052 N   0  0  0  0  0  0  0  0  0  0  0  0
  -25.2806  -31.0975   23.9331 N   0  0  0  0  0  0  0  0  0  0  0  0
  -20.3401  -30.3221   19.3015 N   0  0  0  0  0  0  0  0  0  0  0  0
  -29.8644  -15.8845   21.8438 N   0  0  0  0  0  0  0  0  0  0  0  0
  -20.6876  -30.5628   15.7113 N   0  3  0  0  0  0  0  0  0  0  0  0
  -22.5805  -14.0081   22.4501 O   0  0  0  0  0  0  0  0  0  0  0  0
  -23.7521  -29.4161   23.4242 O   0  0  0  0  0  0  0  0  0  0  0  0
  -21.5522  -31.7620   21.4616 O   0  0  0  0  0  0  0  0  0  0  0  0
  -21.1741  -28.7539   17.8107 O   0  0  0  0  0  0  0  0  0  0  0  0
  -31.4286  -15.6812   20.1798 O   0  0  0  0  0  0  0  0  0  0  0  0
  -22.3685   -6.3461   21.0953 O   0  0  0  0  0  0  0  0  0  0  0  0
  -27.2976  -26.0311   19.0110 O   0  0  0  0  0  0  0  0  0  1  0  0
  -20.2079   -4.7511   25.9111 F   0  0  0  0  0  0  0  0  0  0  0  0
  -32.0335  -18.5304   20.6237 F   0  0  0  0  0  0  0  0  0  0  0  0
  -23.3149   -4.1000   22.3999 F   0  0  0  0  0  0  0  0  0  0  0  0
  1  2  1  0  0  0  0
  1  5  2  0  0  0  0
  2  6  2  0  0  0  0
  3  8  2  0  0  0  0
  3 17  1  0  0  0  0
  4  9  1  0  0  0  0
  4 17  2  0  0  0  0
  5 19  1  0  0  0  0
  6 21  1  0  0  0  0
  7 10  2  0  0  0  0
  7 20  1  0  0  0  0
  8 26  1  0  0  0  0
  9 26  2  0  0  0  0
 10 27  1  0  0  0  0
 11 12  2  0  0  0  0
 11 28  1  0  0  0  0
 12 29  1  0  0  0  0
 13 22  1  0  0  0  0
 13 27  2  0  0  0  0
 14 23  2  0  0  0  0
 14 25  1  0  0  0  0
 15 25  2  0  0  0  0
 15 30  1  0  0  0  0
 16 29  2  0  0  0  0
 16 31  1  0  0  0  0
 17 32  1  0  0  0  0
 18 32  1  0  0  0  0
 18 33  2  0  0  0  0
 18 38  1  0  0  0  0
 19 21  2  0  0  0  0
 19 43  1  0  0  0  0
 20 22  2  0  0  0  0
 20 44  1  0  0  0  0
 21 54  1  0  0  0  0
 22 45  1  0  0  0  0
 23 24  1  0  0  0  0
 23 57  1  0  0  0  0
 24 30  2  0  0  0  0
 24 63  1  0  0  0  0
 25 70  1  0  0  0  0
 26 84  1  0  0  0  0
 27 85  1  0  0  0  0
 28 31  2  0  0  0  0
 28 84  1  0  0  0  0
 29 86  1  0  0  0  0
 30 87  1  0  0  0  0
 31 88  1  0  0  0  0
 32 68  2  0  0  0  0
 33 69  1  0  0  0  0
 33 73  1  0  0  0  0
 34 35  2  0  0  0  0
 34 37  1  0  0  0  0
 34 70  1  0  0  0  0
 35 46  1  0  0  0  0
 35 64  1  0  0  0  0
 36 37  2  0  0  0  0
 38 74  1  0  0  0  0
 38 79  2  0  0  0  0
 39 55  1  0  0  0  0
 39 75  1  0  0  0  0
 39 80  2  0  0  0  0
 40 65  1  0  0  0  0
 40 71  1  0  0  0  0
 40 81  2  0  0  0  0
 41 66  1  0  0  0  0
 41 76  1  0  0  0  0
 41 82  2  0  0  0  0
 42 72  1  0  0  0  0
 42 77  1  0  0  0  0
 42 83  2  0  0  0  0
 43 47  1  0  0  0  0
 44 55  1  0  0  0  0
 45 71  1  0  0  0  0
 46 51  1  0  0  0  0
 47 49  1  0  0  0  0
 48 50  1  0  0  0  0
 48 52  1  0  0  0  0
 49 54  1  0  0  0  0
 50 56  1  0  0  0  0
 51 70  1  0  0  0  0
 52 72  1  0  0  0  0
 53 56  1  0  0  0  0
 53 72  1  0  0  0  0
 54 75  1  0  0  0  0
 55 71  1  0  0  0  0
 56 69  1  0  0  0  0
 58 66  1  0  0  0  0
 59 67  1  0  0  0  0
 60 67  1  0  0  0  0
 61 67  1  0  0  0  0
 62 78  1  0  0  0  0
 63 77  1  0  0  0  0
 64 85  1  0  0  0  0
 65 67  1  0  0  0  0
 65 76  1  0  0  0  0
 66 78  1  0  0  0  0
 68 69  1  0  0  0  0
M  CHG  1  78   1
M  ISO  4  42 100  64 101  77 100  85 101
M  END
> <Batch ID>
0108

> <Smiles>
C=CC1=C([101CH2:1][101O:1]c2ccc3c(c2)CN(C(=O)C(NC(=O)C(C)NC)C(C)(C)C)C(C(=O)NC2CCCc4ccccc42)C3)CCN1c1cc(C)c(C[100NH:0][100C:0](=O)N2CCCC(n3nc(-c4ccc(Oc5ccc(F)cc5F)cc4)c(C(N)=O)c3N)C2)c(F)c1

> <Shape>
0.394

> <Color>
0.172

> <Negative vol penalty>
0.000

$$$$

  -OEChem-04052301203D

 88 97  0     1  0  0  0  0  0999 V2000
  -26.8374  -38.2080   22.0458 C   0  0  0  0  0  0  0  0  0  0  0  0
  -27.4818  -37.2063   21.3270 C   0  0  0  0  0  0  0  0  0  0  0  0
  -23.0433   -9.8864   20.8732 C   0  0  0  0  0  0  0  0  0  0  0  0
  -25.3913   -9.3874   20.5997 C   0  0  0  0  0  0  0  0  0  0  0  0
  -26.0704  -37.8797   23.1629 C   0  0  0  0  0  0  0  0  0  0  0  0
  -27.3605  -35.8756   21.7257 C   0  0  0  0  0  0  0  0  0  0  0  0
  -27.1062  -29.2421   19.0332 C   0  0  0  0  0  0  0  0  0  0  0  0
  -22.7847   -8.5373   21.1149 C   0  0  0  0  0  0  0  0  0  0  0  0
  -25.1327   -8.0382   20.8414 C   0  0  0  0  0  0  0  0  0  0  0  0
  -27.7131  -27.9957   19.1811 C   0  0  0  0  0  0  0  0  0  0  0  0
  -23.0840   -6.3659   23.6894 C   0  0  0  0  0  0  0  0  0  0  0  0
  -22.2437   -6.0480   24.7564 C   0  0  0  0  0  0  0  0  0  0  0  0
  -26.2974  -27.5386   21.0801 C   0  0  0  0  0  0  0  0  0  0  0  0
  -27.8518  -19.2716   16.9270 C   0  0  0  0  0  0  0  0  0  0  0  0
  -29.4513  -19.6101   19.1874 C   0  0  0  0  0  0  0  0  0  0  0  0
  -20.7186   -4.9598   23.2309 C   0  0  0  0  0  0  0  0  0  0  0  0
  -24.3466  -10.3115   20.6155 C   0  0  0  0  0  0  0  0  0  0  0  0
  -24.9352  -12.6930   21.3152 C   0  0  0  0  0  0  0  0  0  0  0  0
  -25.9319  -36.5433   23.5698 C   0  0  0  0  0  0  0  0  0  0  0  0
  -26.0963  -29.6513   19.9158 C   0  0  0  0  0  0  0  0  0  0  0  0
  -26.5921  -35.5291   22.8501 C   0  0  0  0  0  0  0  0  0  0  0  0
  -25.6776  -28.7897   20.9397 C   0  0  0  0  0  0  0  0  0  0  0  0
  -28.2294  -20.5529   17.3286 C   0  0  0  0  0  0  0  0  0  0  0  0
  -29.0292  -20.7222   18.4588 C   0  0  0  0  0  0  0  0  0  0  0  0
  -28.2738  -18.1595   17.6557 C   0  0  0  0  0  0  0  0  0  0  0  0
  -23.8293   -7.6131   21.0990 C   0  0  0  0  0  0  0  0  0  0  0  0
  -27.3107  -27.1449   20.2065 C   0  0  0  0  0  0  0  0  0  0  0  0
  -22.7416   -5.9809   22.3932 C   0  0  0  0  0  0  0  0  0  0  0  0
  -29.0736  -18.3288   18.7859 C   0  0  0  0  0  0  0  0  0  0  0  0
  -21.0610   -5.3449   24.5271 C   0  0  0  0  0  0  0  0  0  0  0  0
  -21.5589   -5.2778   22.1639 C   0  0  0  0  0  0  0  0  0  0  0  0
  -24.6143  -11.7050   20.3652 C   0  0  0  0  0  0  0  0  0  0  0  0
  -25.0940  -13.8404   20.5771 C   0  0  0  0  0  0  0  0  0  0  0  0
  -28.5755  -23.0834   19.2634 C   0  0  0  0  0  0  0  0  0  0  0  0
  -25.0772  -12.5834   22.7377 C   0  0  0  0  0  0  0  0  0  0  0  0
  -25.7651  -32.0302   21.9979 C   0  0  0  0  0  0  0  0  0  0  0  0
  -22.7476  -30.8675   22.2535 C   0  0  0  0  0  0  0  0  0  0  0  0
  -20.6261  -28.2158   21.9151 C   0  0  0  0  0  0  0  0  0  0  0  0
  -27.0922  -16.5364   16.1340 C   0  0  0  0  0  0  0  0  0  0  0  0
  -25.1309  -36.2418   24.8116 C   0  0  0  0  0  0  0  0  0  0  0  0
  -25.4331  -30.9880   19.7264 C   0  0  0  0  0  0  0  0  0  0  0  0
  -24.5837  -29.1734   21.9012 C   0  0  0  0  0  0  0  0  0  0  0  0
  -24.7479  -34.7704   24.9472 C   0  0  0  0  0  0  0  0  0  0  0  0
  -23.9994  -14.8187   15.7329 C   0  0  0  0  0  0  0  0  0  0  0  0
  -25.9528  -33.8773   24.6690 C   0  0  0  0  0  0  0  0  0  0  0  0
  -23.9101  -13.9367   16.9804 C   0  0  0  0  0  0  0  0  0  0  0  0
  -30.8012  -23.9095   19.0959 C   0  0  0  0  0  0  0  0  0  0  0  0
  -25.4334  -14.9290   15.2178 C   0  0  0  0  0  0  0  0  0  0  0  0
  -30.8220  -22.3954   19.0323 C   0  0  0  0  0  0  0  0  0  0  0  0
  -26.3320  -14.4713   17.4655 C   0  0  0  0  0  0  0  0  0  0  0  0
  -26.4645  -34.0716   23.2366 C   0  0  1  0  0  0  0  0  0  0  0  0
  -29.4661  -24.2103   19.7614 C   0  0  1  0  0  0  0  0  0  0  0  0
  -24.7713  -31.5121   20.9970 C   0  0  1  0  0  0  0  0  0  0  0  0
  -24.9166  -14.3827   18.0591 C   0  0  2  0  0  0  0  0  0  0  0  0
  -26.2403  -21.7935   16.4394 C   0  0  0  0  0  0  0  0  0  0  0  0
  -18.2251  -27.5604   22.2362 C   0  0  0  0  0  0  0  0  0  0  0  0
  -23.1931  -30.7220   25.2685 C   0  0  0  0  0  0  0  0  0  0  0  0
  -21.1991  -29.2156   25.4202 C   0  0  0  0  0  0  0  0  0  0  0  0
  -20.9346  -31.5518   24.5866 C   0  0  0  0  0  0  0  0  0  0  0  0
  -20.2928  -27.5866   19.0425 C   0  0  0  0  0  0  0  0  0  0  0  0
  -28.6553  -16.8273   20.5820 C   0  0  0  0  0  0  0  0  0  0  0  0
  -27.7615  -21.7261   16.5302 C   0  0  0  0  0  0  0  0  0  0  0  0
  -28.9275  -25.5873   19.4218 C   0  0  0  0  0  0  0  0  0  1  0  0
  -22.0701  -29.8336   23.1201 C   0  0  1  0  0  0  0  0  0  0  0  0
  -19.2620  -28.0943   21.2602 C   0  0  2  0  0  0  0  0  0  0  0  0
  -21.8712  -30.3240   24.5821 C   0  0  0  0  0  0  0  0  0  0  0  0
  -24.5712  -12.1829   19.1187 N   0  0  0  0  0  0  0  0  0  0  0  0
  -24.8670  -13.4838   19.2804 N   0  0  0  0  0  0  0  0  0  0  0  0
  -29.4268  -22.0247   18.8854 N   0  0  0  0  0  0  0  0  0  0  0  0
  -23.9704  -30.4932   21.6787 N   0  0  0  0  0  0  0  0  0  0  0  0
  -26.3294  -15.3602   16.2930 N   0  0  0  0  0  0  0  0  0  0  0  0
  -25.4041  -15.1095   20.9173 N   0  0  0  0  0  0  0  0  0  0  0  0
  -24.8796  -11.3307   23.3344 N   0  0  0  0  0  0  0  0  0  0  0  0
  -27.8827  -16.8642   17.2350 N   0  0  0  0  0  0  0  0  0  0  0  0
  -25.6154  -33.3709   22.2972 N   0  0  0  0  0  0  0  0  0  0  0  0
  -20.8321  -29.4756   22.4363 N   0  0  0  0  0  0  0  0  0  0  0  0
  -19.3283  -27.1703   20.0929 N   0  3  0  0  0  0  0  0  0  0  0  0
  -27.3543  -23.1380   19.2803 O   0  0  0  0  0  0  0  0  0  0  0  0
  -25.3543  -13.5707   23.4602 O   0  0  0  0  0  0  0  0  0  0  0  0
  -26.6045  -31.2695   22.4651 O   0  0  0  0  0  0  0  0  0  0  0  0
  -22.2081  -31.9642   22.0868 O   0  0  0  0  0  0  0  0  0  0  0  0
  -21.4273  -27.2850   21.9631 O   0  0  0  0  0  0  0  0  0  0  0  0
  -27.0269  -17.2185   15.1081 O   0  0  0  0  0  0  0  0  0  0  0  0
  -23.5774   -6.2966   21.3351 O   0  0  0  0  0  0  0  0  0  0  0  0
  -29.4956  -17.2556   19.5127 O   0  0  0  0  0  0  0  0  0  0  0  0
  -27.9018  -25.9280   20.3535 O   0  0  0  0  0  0  0  0  0  1  0  0
  -20.2549   -5.0383   25.5519 F   0  0  0  0  0  0  0  0  0  0  0  0
  -21.2253   -4.9042   20.9210 F   0  0  0  0  0  0  0  0  0  0  0  0
  1  2  1  0  0  0  0
  1  5  2  0  0  0  0
  2  6  2  0  0  0  0
  3  8  2  0  0  0  0
  3 17  1  0  0  0  0
  4  9  1  0  0  0  0
  4 17  2  0  0  0  0
  5 19  1  0  0  0  0
  6 21  1  0  0  0  0
  7 10  2  0  0  0  0
  7 20  1  0  0  0  0
  8 26  1  0  0  0  0
  9 26  2  0  0  0  0
 10 27  1  0  0  0  0
 11 12  2  0  0  0  0
 11 28  1  0  0  0  0
 12 30  1  0  0  0  0
 13 22  1  0  0  0  0
 13 27  2  0  0  0  0
 14 23  1  0  0  0  0
 14 25  2  0  0  0  0
 15 24  1  0  0  0  0
 15 29  2  0  0  0  0
 16 30  2  0  0  0  0
 16 31  1  0  0  0  0
 17 32  1  0  0  0  0
 18 32  1  0  0  0  0
 18 33  2  0  0  0  0
 18 35  1  0  0  0  0
 19 21  2  0  0  0  0
 19 40  1  0  0  0  0
 20 22  2  0  0  0  0
 20 41  1  0  0  0  0
 21 51  1  0  0  0  0
 22 42  1  0  0  0  0
 23 24  2  0  0  0  0
 23 62  1  0  0  0  0
 24 69  1  0  0  0  0
 25 29  1  0  0  0  0
 25 74  1  0  0  0  0
 26 84  1  0  0  0  0
 27 86  1  0  0  0  0
 28 31  2  0  0  0  0
 28 84  1  0  0  0  0
 29 85  1  0  0  0  0
 30 87  1  0  0  0  0
 31 88  1  0  0  0  0
 32 67  2  0  0  0  0
 33 68  1  0  0  0  0
 33 72  1  0  0  0  0
 34 52  1  0  0  0  0
 34 69  1  0  0  0  0
 34 78  2  0  0  0  0
 35 73  1  0  0  0  0
 35 79  2  0  0  0  0
 36 53  1  0  0  0  0
 36 75  1  0  0  0  0
 36 80  2  0  0  0  0
 37 64  1  0  0  0  0
 37 70  1  0  0  0  0
 37 81  2  0  0  0  0
 38 65  1  0  0  0  0
 38 76  1  0  0  0  0
 38 82  2  0  0  0  0
 39 71  1  0  0  0  0
 39 74  1  0  0  0  0
 39 83  2  0  0  0  0
 40 43  1  0  0  0  0
 41 53  1  0  0  0  0
 42 70  1  0  0  0  0
 43 45  1  0  0  0  0
 44 46  1  0  0  0  0
 44 48  1  0  0  0  0
 45 51  1  0  0  0  0
 46 54  1  0  0  0  0
 47 49  1  0  0  0  0
 47 52  1  0  0  0  0
 48 71  1  0  0  0  0
 49 69  1  0  0  0  0
 50 54  1  0  0  0  0
 50 71  1  0  0  0  0
 51 75  1  0  0  0  0
 52 63  1  0  0  0  0
 53 70  1  0  0  0  0
 54 68  1  0  0  0  0
 55 62  1  0  0  0  0
 56 65  1  0  0  0  0
 57 66  1  0  0  0  0
 58 66  1  0  0  0  0
 59 66  1  0  0  0  0
 60 77  1  0  0  0  0
 61 85  1  0  0  0  0
 63 86  1  0  0  0  0
 64 66  1  0  0  0  0
 64 76  1  0  0  0  0
 65 77  1  0  0  0  0
 67 68  1  0  0  0  0
M  CHG  1  77   1
M  ISO  4  39 100  63 101  74 100  86 101
M  END
> <Batch ID>
0108

> <Smiles>
CCc1cc([100NH:0][100C:0](=O)N2CCCC(n3nc(-c4ccc(Oc5ccc(F)cc5F)cc4)c(C(N)=O)c3N)C2)c(OC)cc1N1CCC([101CH2:1][101O:1]c2ccc3c(c2)CN(C(=O)C(NC(=O)C(C)NC)C(C)(C)C)C(C(=O)NC2CCCc4ccccc42)C3)C1=O

> <Shape>
0.313

> <Color>
0.121

> <Negative vol penalty>
0.000

$$$$

  -OEChem-04052301203D

 84 92  0     1  0  0  0  0  0999 V2000
  -30.2229  -33.4539   26.4258 C   0  0  0  0  0  0  0  0  0  0  0  0
  -30.3579  -32.8209   25.1944 C   0  0  0  0  0  0  0  0  0  0  0  0
  -24.3743  -10.3974   23.0704 C   0  0  0  0  0  0  0  0  0  0  0  0
  -24.3104  -12.1102   24.7732 C   0  0  0  0  0  0  0  0  0  0  0  0
  -29.2900  -32.9860   27.3504 C   0  0  0  0  0  0  0  0  0  0  0  0
  -29.5607  -31.7187   24.8872 C   0  0  0  0  0  0  0  0  0  0  0  0
  -27.3184  -30.2147   19.3903 C   0  0  0  0  0  0  0  0  0  0  0  0
  -23.8935   -9.4653   23.9900 C   0  0  0  0  0  0  0  0  0  0  0  0
  -23.8296  -11.1781   25.6927 C   0  0  0  0  0  0  0  0  0  0  0  0
  -27.7436  -29.3085   18.4199 C   0  0  0  0  0  0  0  0  0  0  0  0
  -20.9191   -8.6239   25.3605 C   0  0  0  0  0  0  0  0  0  0  0  0
  -19.8979   -7.7700   24.9441 C   0  0  0  0  0  0  0  0  0  0  0  0
  -26.2109  -27.6632   19.2934 C   0  0  0  0  0  0  0  0  0  0  0  0
  -30.0433  -20.0192   19.7385 C   0  0  0  0  0  0  0  0  0  0  0  0
  -27.6702  -20.1891   20.1589 C   0  0  0  0  0  0  0  0  0  0  0  0
  -21.3163   -5.8626   25.3769 C   0  0  0  0  0  0  0  0  0  0  0  0
  -24.5828  -11.7198   23.4620 C   0  0  0  0  0  0  0  0  0  0  0  0
  -24.3205  -13.5045   21.6582 C   0  0  0  0  0  0  0  0  0  0  0  0
  -28.4743  -31.8836   27.0506 C   0  0  0  0  0  0  0  0  0  0  0  0
  -26.3426  -29.8477   20.3281 C   0  0  0  0  0  0  0  0  0  0  0  0
  -28.6170  -31.2348   25.8092 C   0  0  0  0  0  0  0  0  0  0  0  0
  -25.7733  -28.5674   20.2732 C   0  0  0  0  0  0  0  0  0  0  0  0
  -30.0512  -21.3272   19.2542 C   0  0  0  0  0  0  0  0  0  0  0  0
  -27.6781  -21.4972   19.6746 C   0  0  0  0  0  0  0  0  0  0  0  0
  -28.8528  -19.4501   20.1908 C   0  0  0  0  0  0  0  0  0  0  0  0
  -23.6211   -9.8556   25.3011 C   0  0  0  0  0  0  0  0  0  0  0  0
  -27.1919  -28.0316   18.3731 C   0  0  0  0  0  0  0  0  0  0  0  0
  -22.1390   -8.0973   25.7849 C   0  0  0  0  0  0  0  0  0  0  0  0
  -28.8686  -22.0662   19.2223 C   0  0  0  0  0  0  0  0  0  0  0  0
  -20.0964   -6.3893   24.9524 C   0  0  0  0  0  0  0  0  0  0  0  0
  -22.3376   -6.7167   25.7932 C   0  0  0  0  0  0  0  0  0  0  0  0
  -25.0800  -12.6830   22.5127 C   0  0  0  0  0  0  0  0  0  0  0  0
  -25.2545  -14.2324   20.9622 C   0  0  0  0  0  0  0  0  0  0  0  0
  -22.8980  -13.6010   21.5071 C   0  0  0  0  0  0  0  0  0  0  0  0
  -26.2643  -29.5743   23.4940 C   0  0  0  0  0  0  0  0  0  0  0  0
  -23.1090  -29.0256   22.9787 C   0  0  0  0  0  0  0  0  0  0  0  0
  -20.6588  -27.9990   20.8364 C   0  0  0  0  0  0  0  0  0  0  0  0
  -29.9300  -17.2506   20.7806 C   0  0  0  0  0  0  0  0  0  0  0  0
  -27.5132  -31.3849   28.1004 C   0  0  0  0  0  0  0  0  0  0  0  0
  -25.8755  -30.8457   21.3519 C   0  0  0  0  0  0  0  0  0  0  0  0
  -24.7080  -28.1310   21.2443 C   0  0  0  0  0  0  0  0  0  0  0  0
  -26.4457  -30.4424   27.5505 C   0  0  0  0  0  0  0  0  0  0  0  0
  -30.2801  -13.7094   20.6589 C   0  0  0  0  0  0  0  0  0  0  0  0
  -27.0768  -29.3949   26.6388 C   0  0  0  0  0  0  0  0  0  0  0  0
  -28.8959  -13.1943   21.0600 C   0  0  0  0  0  0  0  0  0  0  0  0
  -30.6635  -14.9682   21.4348 C   0  0  0  0  0  0  0  0  0  0  0  0
  -28.2926  -15.5393   21.7836 C   0  0  0  0  0  0  0  0  0  0  0  0
  -27.7532  -30.0517   25.4294 C   0  0  1  0  0  0  0  0  0  0  0  0
  -25.2459  -30.1931   22.5787 C   0  0  1  0  0  0  0  0  0  0  0  0
  -27.8351  -14.3097   20.9821 C   0  0  2  0  0  0  0  0  0  0  0  0
  -31.3349  -21.9192   18.7735 C   0  0  0  0  0  0  0  0  0  0  0  0
  -18.1808  -27.6231   20.7126 C   0  0  0  0  0  0  0  0  0  0  0  0
  -23.4210  -26.4542   24.5913 C   0  0  0  0  0  0  0  0  0  0  0  0
  -21.2357  -25.6791   23.6468 C   0  0  0  0  0  0  0  0  0  0  0  0
  -21.3232  -27.7321   25.0611 C   0  0  0  0  0  0  0  0  0  0  0  0
  -20.3469  -29.9953   18.6739 C   0  0  0  0  0  0  0  0  0  0  0  0
  -26.4027  -22.2734   19.6501 C   0  0  0  0  0  0  0  0  0  0  0  0
  -28.6361  -25.0033   17.0109 C   0  0  0  0  0  0  0  0  0  0  0  0
  -27.5575  -25.7604   17.7697 C   0  0  0  0  0  0  0  0  0  1  0  0
  -28.6413  -23.5223   17.3558 C   0  0  0  0  0  0  0  0  0  0  0  0
  -22.2657  -27.8013   22.7161 C   0  0  1  0  0  0  0  0  0  0  0  0
  -19.3155  -28.6076   20.4764 C   0  0  2  0  0  0  0  0  0  0  0  0
  -22.0829  -26.9239   23.9866 C   0  0  0  0  0  0  0  0  0  0  0  0
  -26.3951  -12.8708   22.3739 N   0  0  0  0  0  0  0  0  0  0  0  0
  -26.4693  -13.8185   21.4240 N   0  0  0  0  0  0  0  0  0  0  0  0
  -24.2892  -29.1406   22.2306 N   0  0  0  0  0  0  0  0  0  0  0  0
  -29.6140  -15.9822   21.3119 N   0  0  0  0  0  0  0  0  0  0  0  0
  -25.1469  -15.1796   20.0064 N   0  0  0  0  0  0  0  0  0  0  0  0
  -22.0846  -12.7807   22.3007 N   0  0  0  0  0  0  0  0  0  0  0  0
  -28.8450  -18.1209   20.6816 N   0  0  0  0  0  0  0  0  0  0  0  0
  -26.7645  -30.4410   24.4469 N   0  0  0  0  0  0  0  0  0  0  0  0
  -21.0160  -28.2829   22.1376 N   0  0  0  0  0  0  0  0  0  0  0  0
  -26.1579  -23.0442   20.8995 N   0  3  0  0  0  0  0  0  0  0  0  0
  -19.2972  -29.0107   19.0418 N   0  3  0  0  0  0  0  0  0  0  0  0
  -22.3645  -14.3795   20.6807 O   0  0  0  0  0  0  0  0  0  0  0  0
  -26.5722  -28.3973   23.3475 O   0  0  0  0  0  0  0  0  0  0  0  0
  -22.7307  -29.8531   23.8117 O   0  0  0  0  0  0  0  0  0  0  0  0
  -21.3230  -27.3348   20.0438 O   0  0  0  0  0  0  0  0  0  0  0  0
  -31.0732  -17.5338   20.4133 O   0  0  0  0  0  0  0  0  0  0  0  0
  -23.1517   -8.9464   26.1987 O   0  0  0  0  0  0  0  0  0  0  0  0
  -27.6055  -27.1449   17.4273 O   0  0  0  0  0  0  0  0  0  1  0  0
  -28.8756  -23.3518   18.7471 O   0  0  0  0  0  0  0  0  0  0  0  0
  -19.1150   -5.5693   24.5541 F   0  0  0  0  0  0  0  0  0  0  0  0
  -23.5070   -6.2048   26.2010 F   0  0  0  0  0  0  0  0  0  0  0  0
  1  2  1  0  0  0  0
  1  5  2  0  0  0  0
  2  6  2  0  0  0  0
  3  8  2  0  0  0  0
  3 17  1  0  0  0  0
  4  9  1  0  0  0  0
  4 17  2  0  0  0  0
  5 19  1  0  0  0  0
  6 21  1  0  0  0  0
  7 10  2  0  0  0  0
  7 20  1  0  0  0  0
  8 26  1  0  0  0  0
  9 26  2  0  0  0  0
 10 27  1  0  0  0  0
 11 12  2  0  0  0  0
 11 28  1  0  0  0  0
 12 30  1  0  0  0  0
 13 22  1  0  0  0  0
 13 27  2  0  0  0  0
 14 23  2  0  0  0  0
 14 25  1  0  0  0  0
 15 24  1  0  0  0  0
 15 25  2  0  0  0  0
 16 30  2  0  0  0  0
 16 31  1  0  0  0  0
 17 32  1  0  0  0  0
 18 32  1  0  0  0  0
 18 33  2  0  0  0  0
 18 34  1  0  0  0  0
 19 21  2  0  0  0  0
 19 39  1  0  0  0  0
 20 22  2  0  0  0  0
 20 40  1  0  0  0  0
 21 48  1  0  0  0  0
 22 41  1  0  0  0  0
 23 29  1  0  0  0  0
 23 51  1  0  0  0  0
 24 29  2  0  0  0  0
 24 57  1  0  0  0  0
 25 70  1  0  0  0  0
 26 80  1  0  0  0  0
 27 81  1  0  0  0  0
 28 31  2  0  0  0  0
 28 80  1  0  0  0  0
 29 82  1  0  0  0  0
 30 83  1  0  0  0  0
 31 84  1  0  0  0  0
 32 64  2  0  0  0  0
 33 65  1  0  0  0  0
 33 68  1  0  0  0  0
 34 69  1  0  0  0  0
 34 75  2  0  0  0  0
 35 49  1  0  0  0  0
 35 71  1  0  0  0  0
 35 76  2  0  0  0  0
 36 61  1  0  0  0  0
 36 66  1  0  0  0  0
 36 77  2  0  0  0  0
 37 62  1  0  0  0  0
 37 72  1  0  0  0  0
 37 78  2  0  0  0  0
 38 67  1  0  0  0  0
 38 70  1  0  0  0  0
 38 79  2  0  0  0  0
 39 42  1  0  0  0  0
 40 49  1  0  0  0  0
 41 66  1  0  0  0  0
 42 44  1  0  0  0  0
 43 45  1  0  0  0  0
 43 46  1  0  0  0  0
 44 48  1  0  0  0  0
 45 50  1  0  0  0  0
 46 67  1  0  0  0  0
 47 50  1  0  0  0  0
 47 67  1  0  0  0  0
 48 71  1  0  0  0  0
 49 66  1  0  0  0  0
 50 65  1  0  0  0  0
 52 62  1  0  0  0  0
 53 63  1  0  0  0  0
 54 63  1  0  0  0  0
 55 63  1  0  0  0  0
 56 74  1  0  0  0  0
 57 73  1  0  0  0  0
 58 59  1  0  0  0  0
 58 60  1  0  0  0  0
 59 81  1  0  0  0  0
 60 82  1  0  0  0  0
 61 63  1  0  0  0  0
 61 72  1  0  0  0  0
 62 74  1  0  0  0  0
 64 65  1  0  0  0  0
M  CHG  2  73   1  74   1
M  ISO  4  38 100  59 101  70 100  81 101
M  END
> <Batch ID>
0108

> <Smiles>
CNC(C)C(=O)NC(C(=O)N1Cc2cc([101O:1][101CH2:1]CCOc3c(C)cc([100NH:0][100C:0](=O)N4CCCC(n5nc(-c6ccc(Oc7ccc(F)cc7F)cc6)c(C(N)=O)c5N)C4)cc3CN)ccc2CC1C(=O)NC1CCCc2ccccc21)C(C)(C)C

> <Shape>
0.261

> <Color>
0.117

> <Negative vol penalty>
0.000

$$$$

  -OEChem-04052301203D

 86 94  0     1  0  0  0  0  0999 V2000
  -25.6720  -17.8321   12.6875 C   0  0  0  0  0  0  0  0  0  0  0  0
  -26.2147  -16.7336   13.3446 C   0  0  0  0  0  0  0  0  0  0  0  0
  -23.9520  -29.4575   20.0845 C   0  0  0  0  0  0  0  0  0  0  0  0
  -25.7283  -29.1163   21.6862 C   0  0  0  0  0  0  0  0  0  0  0  0
  -25.0146  -18.8207   13.4166 C   0  0  0  0  0  0  0  0  0  0  0  0
  -26.0899  -16.6175   14.7295 C   0  0  0  0  0  0  0  0  0  0  0  0
  -28.3410  -12.4616   18.5750 C   0  0  0  0  0  0  0  0  0  0  0  0
  -23.7261  -30.7312   20.6064 C   0  0  0  0  0  0  0  0  0  0  0  0
  -25.5025  -30.3900   22.2080 C   0  0  0  0  0  0  0  0  0  0  0  0
  -29.4825  -12.2957   19.3581 C   0  0  0  0  0  0  0  0  0  0  0  0
  -23.2950  -31.8709   24.2972 C   0  0  0  0  0  0  0  0  0  0  0  0
  -23.2556  -32.0050   25.6850 C   0  0  0  0  0  0  0  0  0  0  0  0
  -30.2114  -19.2563   20.3902 C   0  0  0  0  0  0  0  0  0  0  0  0
  -28.2883  -13.1543   21.2701 C   0  0  0  0  0  0  0  0  0  0  0  0
  -27.7603  -18.6771   21.5898 C   0  0  0  0  0  0  0  0  0  0  0  0
  -25.1144  -33.5455   25.5889 C   0  0  0  0  0  0  0  0  0  0  0  0
  -24.9531  -28.6500   20.6245 C   0  0  0  0  0  0  0  0  0  0  0  0
  -30.0741  -18.1151   21.1803 C   0  0  0  0  0  0  0  0  0  0  0  0
  -26.0627  -26.9863   19.0407 C   0  0  0  0  0  0  0  0  0  0  0  0
  -24.8930  -18.7221   14.8125 C   0  0  0  0  0  0  0  0  0  0  0  0
  -27.1658  -12.9861   19.1320 C   0  0  0  0  0  0  0  0  0  0  0  0
  -25.4091  -17.5929   15.4803 C   0  0  0  0  0  0  0  0  0  0  0  0
  -27.1324  -13.3234   20.4926 C   0  0  0  0  0  0  0  0  0  0  0  0
  -28.8485  -17.8254   21.7801 C   0  0  0  0  0  0  0  0  0  0  0  0
  -27.8977  -19.8184   20.7998 C   0  0  0  0  0  0  0  0  0  0  0  0
  -24.5014  -31.1975   21.6681 C   0  0  0  0  0  0  0  0  0  0  0  0
  -29.4571  -12.6448   20.7052 C   0  0  0  0  0  0  0  0  0  0  0  0
  -24.2441  -32.5740   23.5552 C   0  0  0  0  0  0  0  0  0  0  0  0
  -24.1653  -32.8424   26.3309 C   0  0  0  0  0  0  0  0  0  0  0  0
  -29.1232  -20.1080   20.1999 C   0  0  0  0  0  0  0  0  0  0  0  0
  -25.1538  -33.4113   24.2010 C   0  0  0  0  0  0  0  0  0  0  0  0
  -25.1865  -27.3340   20.0862 C   0  0  0  0  0  0  0  0  0  0  0  0
  -25.9198  -25.6265   18.9108 C   0  0  0  0  0  0  0  0  0  0  0  0
  -31.2507  -17.2278   21.3687 C   0  0  0  0  0  0  0  0  0  0  0  0
  -26.9285  -27.8182   18.2570 C   0  0  0  0  0  0  0  0  0  0  0  0
  -25.3969  -15.5748   18.6091 C   0  0  0  0  0  0  0  0  0  0  0  0
  -23.4144  -14.1785   20.7638 C   0  0  0  0  0  0  0  0  0  0  0  0
  -23.0351  -12.0082   23.3700 C   0  0  0  0  0  0  0  0  0  0  0  0
  -25.5065  -20.5379   21.1330 C   0  0  0  0  0  0  0  0  0  0  0  0
  -24.1646  -19.8171   15.5512 C   0  0  0  0  0  0  0  0  0  0  0  0
  -25.9350  -13.1338   18.2802 C   0  0  0  0  0  0  0  0  0  0  0  0
  -25.8897  -13.8716   21.1434 C   0  0  0  0  0  0  0  0  0  0  0  0
  -24.4688  -19.8301   17.0457 C   0  0  0  0  0  0  0  0  0  0  0  0
  -22.5195  -22.4644   20.9260 C   0  0  0  0  0  0  0  0  0  0  0  0
  -24.3065  -18.4312   17.6214 C   0  0  0  0  0  0  0  0  0  0  0  0
  -23.0191  -23.8745   20.6031 C   0  0  0  0  0  0  0  0  0  0  0  0
  -23.4612  -21.7341   21.8818 C   0  0  0  0  0  0  0  0  0  0  0  0
  -25.3669  -23.1062   21.1368 C   0  0  0  0  0  0  0  0  0  0  0  0
  -25.3122  -17.4606   16.9894 C   0  0  1  0  0  0  0  0  0  0  0  0
  -24.9472  -14.1582   18.8300 C   0  0  1  0  0  0  0  0  0  0  0  0
  -24.4848  -23.8576   20.1264 C   0  0  2  0  0  0  0  0  0  0  0  0
  -28.6734  -16.6094   22.6304 C   0  0  0  0  0  0  0  0  0  0  0  0
  -21.3034  -11.1065   24.9466 C   0  0  0  0  0  0  0  0  0  0  0  0
  -30.7341  -12.5976   23.8610 C   0  0  0  0  0  0  0  0  0  0  0  0
  -23.4968  -16.7881   22.3429 C   0  0  0  0  0  0  0  0  0  0  0  0
  -22.5715  -15.5459   24.3099 C   0  0  0  0  0  0  0  0  0  0  0  0
  -21.2390  -15.7210   22.2084 C   0  0  0  0  0  0  0  0  0  0  0  0
  -23.4318   -9.2384   22.4057 C   0  0  0  0  0  0  0  0  0  0  0  0
  -32.0542  -14.1717   22.3916 C   0  0  0  0  0  0  0  0  0  0  0  0
  -32.1427  -14.9320   21.0697 C   0  0  0  0  0  0  0  0  0  0  0  0
  -23.2706  -14.2173   22.2661 C   0  0  1  0  0  0  0  0  0  0  0  0
  -22.0240  -10.9044   23.6227 C   0  0  2  0  0  0  0  0  0  0  0  0
  -30.7449  -13.3903   22.5604 C   0  0  1  0  0  0  0  0  0  1  0  0
  -22.6686  -15.5596   22.7694 C   0  0  0  0  0  0  0  0  0  0  0  0
  -24.5350  -26.2801   20.5850 N   0  0  0  0  0  0  0  0  0  0  0  0
  -25.0021  -25.2568   19.8496 N   0  0  0  0  0  0  0  0  0  0  0  0
  -24.7139  -14.0035   20.2673 N   0  0  0  0  0  0  0  0  0  0  0  0
  -24.8306  -21.7548   21.3630 N   0  0  0  0  0  0  0  0  0  0  0  0
  -26.4907  -24.7229   18.0862 N   0  0  0  0  0  0  0  0  0  0  0  0
  -26.9528  -29.1942   18.5221 N   0  0  0  0  0  0  0  0  0  0  0  0
  -26.7905  -20.6817   20.6084 N   0  0  0  0  0  0  0  0  0  0  0  0
  -31.1040  -15.9152   20.9342 N   0  0  0  0  0  0  0  0  0  0  0  0
  -24.9907  -16.1123   17.4027 N   0  0  0  0  0  0  0  0  0  0  0  0
  -22.4924  -13.0388   22.6322 N   0  0  0  0  0  0  0  0  0  0  0  0
  -22.7023   -9.5779   23.6545 N   0  3  0  0  0  0  0  0  0  0  0  0
  -32.2613  -17.6768   21.9029 O   0  0  0  0  0  0  0  0  0  0  0  0
  -27.6468  -27.3573   17.3377 O   0  0  0  0  0  0  0  0  0  0  0  0
  -26.0618  -16.1388   19.4702 O   0  0  0  0  0  0  0  0  0  0  0  0
  -22.4098  -14.2920   20.0571 O   0  0  0  0  0  0  0  0  0  0  0  0
  -24.1897  -11.9624   23.7888 O   0  0  0  0  0  0  0  0  0  0  0  0
  -24.9746  -19.4476   21.3575 O   0  0  0  0  0  0  0  0  0  0  0  0
  -24.2814  -32.4403   22.1774 O   0  0  0  0  0  0  0  0  0  0  0  0
  -30.5701  -12.4845   21.4717 O   0  0  0  0  0  0  0  0  0  1  0  0
  -24.1264  -32.9723   27.6634 F   0  0  0  0  0  0  0  0  0  0  0  0
  -29.2668  -21.2027   19.4395 F   0  0  0  0  0  0  0  0  0  0  0  0
  -26.0671  -34.0902   23.4934 F   0  0  0  0  0  0  0  0  0  0  0  0
  1  2  1  0  0  0  0
  1  5  2  0  0  0  0
  2  6  2  0  0  0  0
  3  8  2  0  0  0  0
  3 17  1  0  0  0  0
  4  9  1  0  0  0  0
  4 17  2  0  0  0  0
  5 20  1  0  0  0  0
  6 22  1  0  0  0  0
  7 10  2  0  0  0  0
  7 21  1  0  0  0  0
  8 26  1  0  0  0  0
  9 26  2  0  0  0  0
 10 27  1  0  0  0  0
 11 12  2  0  0  0  0
 11 28  1  0  0  0  0
 12 29  1  0  0  0  0
 13 18  1  0  0  0  0
 13 30  2  0  0  0  0
 14 23  1  0  0  0  0
 14 27  2  0  0  0  0
 15 24  1  0  0  0  0
 15 25  2  0  0  0  0
 16 29  2  0  0  0  0
 16 31  1  0  0  0  0
 17 32  1  0  0  0  0
 18 24  2  0  0  0  0
 18 34  1  0  0  0  0
 19 32  1  0  0  0  0
 19 33  2  0  0  0  0
 19 35  1  0  0  0  0
 20 22  2  0  0  0  0
 20 40  1  0  0  0  0
 21 23  2  0  0  0  0
 21 41  1  0  0  0  0
 22 49  1  0  0  0  0
 23 42  1  0  0  0  0
 24 52  1  0  0  0  0
 25 30  1  0  0  0  0
 25 71  1  0  0  0  0
 26 82  1  0  0  0  0
 27 83  1  0  0  0  0
 28 31  2  0  0  0  0
 28 82  1  0  0  0  0
 29 84  1  0  0  0  0
 30 85  1  0  0  0  0
 31 86  1  0  0  0  0
 32 65  2  0  0  0  0
 33 66  1  0  0  0  0
 33 69  1  0  0  0  0
 34 72  1  0  0  0  0
 34 76  2  0  0  0  0
 35 70  1  0  0  0  0
 35 77  2  0  0  0  0
 36 50  1  0  0  0  0
 36 73  1  0  0  0  0
 36 78  2  0  0  0  0
 37 61  1  0  0  0  0
 37 67  1  0  0  0  0
 37 79  2  0  0  0  0
 38 62  1  0  0  0  0
 38 74  1  0  0  0  0
 38 80  2  0  0  0  0
 39 68  1  0  0  0  0
 39 71  1  0  0  0  0
 39 81  2  0  0  0  0
 40 43  1  0  0  0  0
 41 50  1  0  0  0  0
 42 67  1  0  0  0  0
 43 45  1  0  0  0  0
 44 46  1  0  0  0  0
 44 47  1  0  0  0  0
 45 49  1  0  0  0  0
 46 51  1  0  0  0  0
 47 68  1  0  0  0  0
 48 51  1  0  0  0  0
 48 68  1  0  0  0  0
 49 73  1  0  0  0  0
 50 67  1  0  0  0  0
 51 66  1  0  0  0  0
 53 62  1  0  0  0  0
 54 63  1  0  0  0  0
 55 64  1  0  0  0  0
 56 64  1  0  0  0  0
 57 64  1  0  0  0  0
 58 75  1  0  0  0  0
 59 60  1  0  0  0  0
 59 63  1  0  0  0  0
 60 72  1  0  0  0  0
 61 64  1  0  0  0  0
 61 74  1  0  0  0  0
 62 75  1  0  0  0  0
 63 83  1  0  0  0  0
 65 66  1  0  0  0  0
M  CHG  1  75   1
M  ISO  4  39 100  63 101  71 100  83 101
M  END
> <Batch ID>
0108

> <Smiles>
CNC(C)C(=O)NC(C(=O)N1Cc2cc([101O:1][101CH:1](C)CCNC(=O)c3cc(F)c([100NH:0][100C:0](=O)N4CCCC(n5nc(-c6ccc(Oc7ccc(F)cc7F)cc6)c(C(N)=O)c5N)C4)cc3C)ccc2CC1C(=O)NC1CCCc2ccccc21)C(C)(C)C

> <Shape>
0.230

> <Color>
0.055

> <Negative vol penalty>
0.000

$$$$

  -OEChem-04052301203D

 81 89  0     1  0  0  0  0  0999 V2000
  -22.4736  -27.0667   20.4334 C   0  0  0  0  0  0  0  0  0  0  0  0
  -23.2191  -25.9431   20.0914 C   0  0  0  0  0  0  0  0  0  0  0  0
  -23.0549   -9.8846   19.9527 C   0  0  0  0  0  0  0  0  0  0  0  0
  -23.8690   -9.8711   22.2273 C   0  0  0  0  0  0  0  0  0  0  0  0
  -21.3995  -27.4586   19.6354 C   0  0  0  0  0  0  0  0  0  0  0  0
  -22.8904  -25.2100   18.9517 C   0  0  0  0  0  0  0  0  0  0  0  0
  -26.9553  -23.9807   16.1931 C   0  0  0  0  0  0  0  0  0  0  0  0
  -22.3161   -8.7299   20.2102 C   0  0  0  0  0  0  0  0  0  0  0  0
  -23.1301   -8.7163   22.4849 C   0  0  0  0  0  0  0  0  0  0  0  0
  -27.7331  -22.9155   16.6450 C   0  0  0  0  0  0  0  0  0  0  0  0
  -19.9164   -7.9158   23.1569 C   0  0  0  0  0  0  0  0  0  0  0  0
  -19.1874   -7.8662   24.3450 C   0  0  0  0  0  0  0  0  0  0  0  0
  -26.6651  -21.4633   15.0420 C   0  0  0  0  0  0  0  0  0  0  0  0
  -29.1537  -17.1703   19.9259 C   0  0  0  0  0  0  0  0  0  0  0  0
  -20.4440   -5.9215   25.0350 C   0  0  0  0  0  0  0  0  0  0  0  0
  -23.8314  -10.4552   20.9612 C   0  0  0  0  0  0  0  0  0  0  0  0
  -24.1727  -12.9810   20.8550 C   0  0  0  0  0  0  0  0  0  0  0  0
  -21.0635  -26.7356   18.4800 C   0  0  0  0  0  0  0  0  0  0  0  0
  -26.0172  -23.7923   15.1679 C   0  0  0  0  0  0  0  0  0  0  0  0
  -21.8100  -25.5919   18.1382 C   0  0  0  0  0  0  0  0  0  0  0  0
  -25.8784  -22.5283   14.5771 C   0  0  0  0  0  0  0  0  0  0  0  0
  -22.3536   -8.1458   21.4763 C   0  0  0  0  0  0  0  0  0  0  0  0
  -27.5860  -21.6560   16.0715 C   0  0  0  0  0  0  0  0  0  0  0  0
  -20.9092   -6.9681   22.9078 C   0  0  0  0  0  0  0  0  0  0  0  0
  -28.3873  -18.3714   19.9162 C   0  0  0  0  0  0  0  0  0  0  0  0
  -19.4512   -6.8692   25.2841 C   0  0  0  0  0  0  0  0  0  0  0  0
  -21.1730   -5.9711   23.8468 C   0  0  0  0  0  0  0  0  0  0  0  0
  -24.5953  -11.6476   20.6956 C   0  0  0  0  0  0  0  0  0  0  0  0
  -29.4336  -16.7455   21.2060 C   0  0  0  0  0  0  0  0  0  0  0  0
  -28.1105  -18.8188   21.1894 C   0  0  0  0  0  0  0  0  0  0  0  0
  -25.2567  -13.7328   20.4725 C   0  0  0  0  0  0  0  0  0  0  0  0
  -22.9131  -13.4941   21.3084 C   0  0  0  0  0  0  0  0  0  0  0  0
  -30.1701  -15.5983   21.6273 C   0  0  0  0  0  0  0  0  0  0  0  0
  -30.7719  -14.6477   20.6643 C   0  0  0  0  0  0  0  0  0  0  0  0
  -22.8593  -24.0720   14.9379 C   0  0  0  0  0  0  0  0  0  0  0  0
  -23.4260  -23.4773   11.7998 C   0  0  0  0  0  0  0  0  0  0  0  0
  -25.4766  -22.1226    9.4320 C   0  0  0  0  0  0  0  0  0  0  0  0
  -19.8647  -27.1704   17.6747 C   0  0  0  0  0  0  0  0  0  0  0  0
  -25.2049  -24.9576   14.6734 C   0  0  0  0  0  0  0  0  0  0  0  0
  -24.8999  -22.2783   13.4597 C   0  0  0  0  0  0  0  0  0  0  0  0
  -19.8140  -26.5564   16.2780 C   0  0  0  0  0  0  0  0  0  0  0  0
  -29.5402  -12.4099   18.1480 C   0  0  0  0  0  0  0  0  0  0  0  0
  -20.0961  -25.0587   16.3426 C   0  0  0  0  0  0  0  0  0  0  0  0
  -28.1224  -12.0917   18.6219 C   0  0  0  0  0  0  0  0  0  0  0  0
  -30.4925  -12.5996   19.3242 C   0  0  0  0  0  0  0  0  0  0  0  0
  -28.6209  -13.3208   20.7820 C   0  0  0  0  0  0  0  0  0  0  0  0
  -21.4999  -24.7851   16.8960 C   0  0  1  0  0  0  0  0  0  0  0  0
  -23.9162  -24.5342   13.9751 C   0  0  1  0  0  0  0  0  0  0  0  0
  -27.6242  -13.1497   19.6224 C   0  0  2  0  0  0  0  0  0  0  0  0
  -27.3478  -20.0165   21.6071 C   0  0  0  0  0  0  0  0  0  0  0  0
  -25.6549  -21.7584    6.9555 C   0  0  0  0  0  0  0  0  0  0  0  0
  -21.3810  -21.2206   11.9870 C   0  0  0  0  0  0  0  0  0  0  0  0
  -22.2836  -20.3179    9.8332 C   0  0  0  0  0  0  0  0  0  0  0  0
  -21.2418  -22.5836    9.8949 C   0  0  0  0  0  0  0  0  0  0  0  0
  -27.9635  -23.7178    9.2592 C   0  0  0  0  0  0  0  0  0  0  0  0
  -27.7703  -19.3107   16.4206 C   0  0  0  0  0  0  0  0  0  1  0  0
  -28.3209  -18.4488   17.5402 C   0  0  0  0  0  0  0  0  0  0  0  0
  -23.5146  -22.2355   10.9460 C   0  0  1  0  0  0  0  0  0  0  0  0
  -26.0014  -22.6746    8.1188 C   0  0  2  0  0  0  0  0  0  0  0  0
  -22.1224  -21.5933   10.6876 C   0  0  0  0  0  0  0  0  0  0  0  0
  -25.8498  -11.5545   20.2467 N   0  0  0  0  0  0  0  0  0  0  0  0
  -30.3870  -15.2757   22.8898 N   0  0  0  0  0  0  0  0  0  0  0  0
  -26.2248  -12.8388   20.1206 N   0  0  0  0  0  0  0  0  0  0  0  0
  -29.9726  -13.5831   20.2720 N   0  0  0  0  0  0  0  0  0  0  0  0
  -24.1241  -23.4480   13.0154 N   0  0  0  0  0  0  0  0  0  0  0  0
  -25.4666  -15.0647   20.4060 N   0  0  0  0  0  0  0  0  0  0  0  0
  -21.9085  -12.5828   21.6617 N   0  0  0  0  0  0  0  0  0  0  0  0
  -22.4997  -25.0203   15.8765 N   0  0  0  0  0  0  0  0  0  0  0  0
  -24.2279  -22.6235    9.7340 N   0  0  0  0  0  0  0  0  0  0  0  0
  -27.4831  -22.8234    8.1747 N   0  3  0  0  0  0  0  0  0  0  0  0
  -22.6794  -14.7244   21.3820 O   0  0  0  0  0  0  0  0  0  0  0  0
  -31.9169  -14.9042   20.3157 O   0  0  0  0  0  0  0  0  0  0  0  0
  -22.4027  -22.9394   14.8358 O   0  0  0  0  0  0  0  0  0  0  0  0
  -22.7677  -24.4407   11.3995 O   0  0  0  0  0  0  0  0  0  0  0  0
  -26.1094  -21.3239   10.1192 O   0  0  0  0  0  0  0  0  0  0  0  0
  -21.6326   -7.0191   21.7280 O   0  0  0  0  0  0  0  0  0  0  0  0
  -28.3435  -20.6144   16.5111 O   0  0  0  0  0  0  0  0  0  1  0  0
  -27.9620  -19.0255   18.7899 O   0  0  0  0  0  0  0  0  0  0  0  0
  -18.7521   -6.8226   26.4257 F   0  0  0  0  0  0  0  0  0  0  0  0
  -22.1264   -5.0586   23.6136 F   0  0  0  0  0  0  0  0  0  0  0  0
  -28.7736  -17.7927   22.3893 S   0  0  0  0  0  0  0  0  0  0  0  0
  1  2  1  0  0  0  0
  1  5  2  0  0  0  0
  2  6  2  0  0  0  0
  3  8  2  0  0  0  0
  3 16  1  0  0  0  0
  4  9  1  0  0  0  0
  4 16  2  0  0  0  0
  5 18  1  0  0  0  0
  6 20  1  0  0  0  0
  7 10  2  0  0  0  0
  7 19  1  0  0  0  0
  8 22  1  0  0  0  0
  9 22  2  0  0  0  0
 10 23  1  0  0  0  0
 11 12  2  0  0  0  0
 11 24  1  0  0  0  0
 12 26  1  0  0  0  0
 13 21  1  0  0  0  0
 13 23  2  0  0  0  0
 14 25  1  0  0  0  0
 14 29  2  0  0  0  0
 15 26  2  0  0  0  0
 15 27  1  0  0  0  0
 16 28  1  0  0  0  0
 17 28  1  0  0  0  0
 17 31  2  0  0  0  0
 17 32  1  0  0  0  0
 18 20  2  0  0  0  0
 18 38  1  0  0  0  0
 19 21  2  0  0  0  0
 19 39  1  0  0  0  0
 20 47  1  0  0  0  0
 21 40  1  0  0  0  0
 22 76  1  0  0  0  0
 23 77  1  0  0  0  0
 24 27  2  0  0  0  0
 24 76  1  0  0  0  0
 25 30  2  0  0  0  0
 25 78  1  0  0  0  0
 26 79  1  0  0  0  0
 27 80  1  0  0  0  0
 28 61  2  0  0  0  0
 29 33  1  0  0  0  0
 29 81  1  0  0  0  0
 30 50  1  0  0  0  0
 30 81  1  0  0  0  0
 31 63  1  0  0  0  0
 31 66  1  0  0  0  0
 32 67  1  0  0  0  0
 32 71  2  0  0  0  0
 33 34  1  0  0  0  0
 33 62  2  0  0  0  0
 34 64  1  0  0  0  0
 34 72  2  0  0  0  0
 35 48  1  0  0  0  0
 35 68  1  0  0  0  0
 35 73  2  0  0  0  0
 36 58  1  0  0  0  0
 36 65  1  0  0  0  0
 36 74  2  0  0  0  0
 37 59  1  0  0  0  0
 37 69  1  0  0  0  0
 37 75  2  0  0  0  0
 38 41  1  0  0  0  0
 39 48  1  0  0  0  0
 40 65  1  0  0  0  0
 41 43  1  0  0  0  0
 42 44  1  0  0  0  0
 42 45  1  0  0  0  0
 43 47  1  0  0  0  0
 44 49  1  0  0  0  0
 45 64  1  0  0  0  0
 46 49  1  0  0  0  0
 46 64  1  0  0  0  0
 47 68  1  0  0  0  0
 48 65  1  0  0  0  0
 49 63  1  0  0  0  0
 51 59  1  0  0  0  0
 52 60  1  0  0  0  0
 53 60  1  0  0  0  0
 54 60  1  0  0  0  0
 55 70  1  0  0  0  0
 56 57  1  0  0  0  0
 56 77  1  0  0  0  0
 57 78  1  0  0  0  0
 58 60  1  0  0  0  0
 58 69  1  0  0  0  0
 59 70  1  0  0  0  0
 61 63  1  0  0  0  0
M  CHG  1  70   1
M  ISO  4  33 100  34 100  56 101  77 101
M  END
> <Batch ID>
0108

> <Smiles>
CNC(C)C(=O)NC(C(=O)N1Cc2cc([101O:1][101CH2:1]COc3cc([100C:0](=N)[100C:0](=O)N4CCCC(n5nc(-c6ccc(Oc7ccc(F)cc7F)cc6)c(C(N)=O)c5N)C4)sc3C)ccc2CC1C(=O)NC1CCCc2ccccc21)C(C)(C)C

> <Shape>
0.201

> <Color>
0.189

> <Negative vol penalty>
0.000

$$$$

  -OEChem-04052301203D

 84 92  0     1  0  0  0  0  0999 V2000
  -23.4916  -31.8824   24.4889 C   0  0  0  0  0  0  0  0  0  0  0  0
  -23.6250  -30.5170   24.7193 C   0  0  0  0  0  0  0  0  0  0  0  0
  -22.9046  -10.0211   20.0201 C   0  0  0  0  0  0  0  0  0  0  0  0
  -23.5835   -9.9970   22.3386 C   0  0  0  0  0  0  0  0  0  0  0  0
  -23.6246  -32.3863   23.1957 C   0  0  0  0  0  0  0  0  0  0  0  0
  -23.8903  -29.6543   23.6564 C   0  0  0  0  0  0  0  0  0  0  0  0
  -29.7759  -25.5008   23.6318 C   0  0  0  0  0  0  0  0  0  0  0  0
  -22.0490   -8.9458   20.2594 C   0  0  0  0  0  0  0  0  0  0  0  0
  -22.7279   -8.9217   22.5780 C   0  0  0  0  0  0  0  0  0  0  0  0
  -30.7692  -24.5216   23.6511 C   0  0  0  0  0  0  0  0  0  0  0  0
  -22.7285   -5.5780   22.0771 C   0  0  0  0  0  0  0  0  0  0  0  0
  -23.2216   -4.5128   22.8305 C   0  0  0  0  0  0  0  0  0  0  0  0
  -30.8439  -18.6086   21.6686 C   0  0  0  0  0  0  0  0  0  0  0  0
  -30.0925  -23.7766   21.4522 C   0  0  0  0  0  0  0  0  0  0  0  0
  -32.3458  -16.6161   22.9164 C   0  0  0  0  0  0  0  0  0  0  0  0
  -21.4866   -4.8714   24.4732 C   0  0  0  0  0  0  0  0  0  0  0  0
  -23.6719  -10.5467   21.0596 C   0  0  0  0  0  0  0  0  0  0  0  0
  -31.9834  -18.9479   22.3980 C   0  0  0  0  0  0  0  0  0  0  0  0
  -24.2501  -13.0272   20.9170 C   0  0  0  0  0  0  0  0  0  0  0  0
  -23.9013  -31.5306   22.1178 C   0  0  0  0  0  0  0  0  0  0  0  0
  -28.9460  -25.6319   22.5148 C   0  0  0  0  0  0  0  0  0  0  0  0
  -24.0258  -30.1470   22.3473 C   0  0  0  0  0  0  0  0  0  0  0  0
  -29.1039  -24.7638   21.4220 C   0  0  0  0  0  0  0  0  0  0  0  0
  -30.4553  -17.2731   21.5632 C   0  0  0  0  0  0  0  0  0  0  0  0
  -31.2063  -16.2769   22.1870 C   0  0  0  0  0  0  0  0  0  0  0  0
  -21.9606   -8.3961   21.5384 C   0  0  0  0  0  0  0  0  0  0  0  0
  -30.9269  -23.6614   22.5641 C   0  0  0  0  0  0  0  0  0  0  0  0
  -21.6145   -6.2901   22.5218 C   0  0  0  0  0  0  0  0  0  0  0  0
  -32.7344  -17.9516   23.0218 C   0  0  0  0  0  0  0  0  0  0  0  0
  -22.6007   -4.1594   24.0285 C   0  0  0  0  0  0  0  0  0  0  0  0
  -20.9936   -5.9367   23.7198 C   0  0  0  0  0  0  0  0  0  0  0  0
  -24.5563  -11.6571   20.8129 C   0  0  0  0  0  0  0  0  0  0  0  0
  -25.4187  -13.6666   20.5823 C   0  0  0  0  0  0  0  0  0  0  0  0
  -29.9963  -14.6496   24.3227 C   0  0  0  0  0  0  0  0  0  0  0  0
  -32.3723  -20.3648   22.4964 C   0  0  0  0  0  0  0  0  0  0  0  0
  -30.5171  -14.1267   23.2104 C   0  0  0  0  0  0  0  0  0  0  0  0
  -31.5243  -21.4009   22.4873 C   0  0  0  0  0  0  0  0  0  1  0  0
  -23.0194  -13.6649   21.2835 C   0  0  0  0  0  0  0  0  0  0  0  0
  -26.1188  -27.4787   20.8802 C   0  0  0  0  0  0  0  0  0  0  0  0
  -28.2024  -26.9264   18.6976 C   0  0  0  0  0  0  0  0  0  0  0  0
  -30.9245  -26.4921   16.6879 C   0  0  0  0  0  0  0  0  0  0  0  0
  -30.9020  -14.2374   20.8303 C   0  0  0  0  0  0  0  0  0  0  0  0
  -23.9896  -32.1157   20.7305 C   0  0  0  0  0  0  0  0  0  0  0  0
  -27.8229  -26.6323   22.4760 C   0  0  0  0  0  0  0  0  0  0  0  0
  -28.1657  -24.9191   20.2563 C   0  0  0  0  0  0  0  0  0  0  0  0
  -24.6423  -31.1807   19.7156 C   0  0  0  0  0  0  0  0  0  0  0  0
  -29.6862  -11.8941   18.5457 C   0  0  0  0  0  0  0  0  0  0  0  0
  -24.0641  -29.7744   19.8362 C   0  0  0  0  0  0  0  0  0  0  0  0
  -28.2185  -11.7246   18.9368 C   0  0  0  0  0  0  0  0  0  0  0  0
  -30.5713  -12.0128   19.7811 C   0  0  0  0  0  0  0  0  0  0  0  0
  -28.7081  -12.9647   21.1025 C   0  0  0  0  0  0  0  0  0  0  0  0
  -24.3383  -29.1823   21.2240 C   0  0  1  0  0  0  0  0  0  0  0  0
  -27.5837  -27.2169   21.0723 C   0  0  1  0  0  0  0  0  0  0  0  0
  -27.7668  -12.8477   19.8869 C   0  0  2  0  0  0  0  0  0  0  0  0
  -29.2307  -16.9382   20.7746 C   0  0  0  0  0  0  0  0  0  0  0  0
  -31.7295  -26.9003   14.3464 C   0  0  0  0  0  0  0  0  0  0  0  0
  -26.5188  -24.5809   17.7138 C   0  0  0  0  0  0  0  0  0  0  0  0
  -28.0223  -24.4309   15.7175 C   0  0  0  0  0  0  0  0  0  0  0  0
  -26.6784  -26.4951   16.1123 C   0  0  0  0  0  0  0  0  0  0  0  0
  -33.1247  -28.2361   17.6244 C   0  0  0  0  0  0  0  0  0  0  0  0
  -33.6707  -18.5220   25.1323 C   0  0  0  0  0  0  0  0  0  0  0  0
  -28.6671  -26.0081   17.5957 C   0  0  1  0  0  0  0  0  0  0  0  0
  -31.6571  -27.4477   15.7634 C   0  0  2  0  0  0  0  0  0  0  0  0
  -27.4823  -25.3770   16.8111 C   0  0  0  0  0  0  0  0  0  0  0  0
  -25.8203  -11.4380   20.4410 N   0  0  0  0  0  0  0  0  0  0  0  0
  -26.3187  -12.6791   20.3084 N   0  0  0  0  0  0  0  0  0  0  0  0
  -27.9754  -26.3458   19.9513 N   0  0  0  0  0  0  0  0  0  0  0  0
  -30.1069  -13.0866   20.6600 N   0  0  0  0  0  0  0  0  0  0  0  0
  -25.7540  -14.9716   20.4984 N   0  0  0  0  0  0  0  0  0  0  0  0
  -21.9167  -12.8587   21.5973 N   0  0  0  0  0  0  0  0  0  0  0  0
  -25.7079  -28.7239   21.3162 N   0  0  0  0  0  0  0  0  0  0  0  0
  -29.5809  -26.7906   16.7704 N   0  0  0  0  0  0  0  0  0  0  0  0
  -30.8186  -14.8846   22.0905 N   0  0  0  0  0  0  0  0  0  0  0  0
  -33.0468  -27.6764   16.2505 N   0  3  0  0  0  0  0  0  0  0  0  0
  -22.8964  -14.9128   21.3155 O   0  0  0  0  0  0  0  0  0  0  0  0
  -25.4123  -26.6157   20.3724 O   0  0  0  0  0  0  0  0  0  0  0  0
  -28.0388  -28.1254   18.4547 O   0  0  0  0  0  0  0  0  0  0  0  0
  -31.4872  -25.5706   17.2751 O   0  0  0  0  0  0  0  0  0  0  0  0
  -31.6502  -14.6502   19.9347 O   0  0  0  0  0  0  0  0  0  0  0  0
  -21.1257   -7.3470   21.7723 O   0  0  0  0  0  0  0  0  0  0  0  0
  -31.9016  -22.7106   22.5876 O   0  0  0  0  0  0  0  0  0  1  0  0
  -33.8507  -18.2566   23.7432 O   0  0  0  0  0  0  0  0  0  0  0  0
  -23.0734   -3.1354   24.7511 F   0  0  0  0  0  0  0  0  0  0  0  0
  -19.9223   -6.6163   24.1515 F   0  0  0  0  0  0  0  0  0  0  0  0
  1  2  1  0  0  0  0
  1  5  2  0  0  0  0
  2  6  2  0  0  0  0
  3  8  2  0  0  0  0
  3 17  1  0  0  0  0
  4  9  1  0  0  0  0
  4 17  2  0  0  0  0
  5 20  1  0  0  0  0
  6 22  1  0  0  0  0
  7 10  2  0  0  0  0
  7 21  1  0  0  0  0
  8 26  1  0  0  0  0
  9 26  2  0  0  0  0
 10 27  1  0  0  0  0
 11 12  2  0  0  0  0
 11 28  1  0  0  0  0
 12 30  1  0  0  0  0
 13 18  2  0  0  0  0
 13 24  1  0  0  0  0
 14 23  1  0  0  0  0
 14 27  2  0  0  0  0
 15 25  1  0  0  0  0
 15 29  2  0  0  0  0
 16 30  2  0  0  0  0
 16 31  1  0  0  0  0
 17 32  1  0  0  0  0
 18 29  1  0  0  0  0
 18 35  1  0  0  0  0
 19 32  1  0  0  0  0
 19 33  2  0  0  0  0
 19 38  1  0  0  0  0
 20 22  2  0  0  0  0
 20 43  1  0  0  0  0
 21 23  2  0  0  0  0
 21 44  1  0  0  0  0
 22 52  1  0  0  0  0
 23 45  1  0  0  0  0
 24 25  2  0  0  0  0
 24 55  1  0  0  0  0
 25 73  1  0  0  0  0
 26 80  1  0  0  0  0
 27 81  1  0  0  0  0
 28 31  2  0  0  0  0
 28 80  1  0  0  0  0
 29 82  1  0  0  0  0
 30 83  1  0  0  0  0
 31 84  1  0  0  0  0
 32 65  2  0  0  0  0
 33 66  1  0  0  0  0
 33 69  1  0  0  0  0
 34 36  2  0  0  0  0
 35 37  2  0  0  0  0
 36 73  1  0  0  0  0
 37 81  1  0  0  0  0
 38 70  1  0  0  0  0
 38 75  2  0  0  0  0
 39 53  1  0  0  0  0
 39 71  1  0  0  0  0
 39 76  2  0  0  0  0
 40 62  1  0  0  0  0
 40 67  1  0  0  0  0
 40 77  2  0  0  0  0
 41 63  1  0  0  0  0
 41 72  1  0  0  0  0
 41 78  2  0  0  0  0
 42 68  1  0  0  0  0
 42 73  1  0  0  0  0
 42 79  2  0  0  0  0
 43 46  1  0  0  0  0
 44 53  1  0  0  0  0
 45 67  1  0  0  0  0
 46 48  1  0  0  0  0
 47 49  1  0  0  0  0
 47 50  1  0  0  0  0
 48 52  1  0  0  0  0
 49 54  1  0  0  0  0
 50 68  1  0  0  0  0
 51 54  1  0  0  0  0
 51 68  1  0  0  0  0
 52 71  1  0  0  0  0
 53 67  1  0  0  0  0
 54 66  1  0  0  0  0
 56 63  1  0  0  0  0
 57 64  1  0  0  0  0
 58 64  1  0  0  0  0
 59 64  1  0  0  0  0
 60 74  1  0  0  0  0
 61 82  1  0  0  0  0
 62 64  1  0  0  0  0
 62 72  1  0  0  0  0
 63 74  1  0  0  0  0
 65 66  1  0  0  0  0
M  CHG  1  74   1
M  ISO  4  37 101  42 100  73 100  81 101
M  END
> <Batch ID>
0108

> <Smiles>
C=C[100N:0](c1cc(OC)c(C=[101CH:1][101O:1]c2ccc3c(c2)CN(C(=O)C(NC(=O)C(C)NC)C(C)(C)C)C(C(=O)NC2CCCc4ccccc42)C3)cc1C)[100C:0](=O)N1CCCC(n2nc(-c3ccc(Oc4ccc(F)cc4F)cc3)c(C(N)=O)c2N)C1

> <Shape>
0.293

> <Color>
0.208

> <Negative vol penalty>
0.000

$$$$

  -OEChem-04052301203D

 86 94  0     1  0  0  0  0  0999 V2000
  -27.4005  -17.4986   19.9923 C   0  0  0  0  0  0  0  0  0  0  0  0
  -26.4922  -18.3379   19.3550 C   0  0  0  0  0  0  0  0  0  0  0  0
  -24.3547  -14.9092   18.8208 C   0  0  0  0  0  0  0  0  0  0  0  0
  -23.5591  -14.6446   21.0867 C   0  0  0  0  0  0  0  0  0  0  0  0
  -28.2121  -17.9966   21.0107 C   0  0  0  0  0  0  0  0  0  0  0  0
  -26.3943  -19.6755   19.7367 C   0  0  0  0  0  0  0  0  0  0  0  0
  -25.0216  -26.1661   17.0341 C   0  0  0  0  0  0  0  0  0  0  0  0
  -25.3131  -13.9202   19.0418 C   0  0  0  0  0  0  0  0  0  0  0  0
  -24.5175  -13.6555   21.3077 C   0  0  0  0  0  0  0  0  0  0  0  0
  -24.2024  -27.2728   17.2530 C   0  0  0  0  0  0  0  0  0  0  0  0
  -28.2050  -11.7171   19.1228 C   0  0  0  0  0  0  0  0  0  0  0  0
  -29.5039  -11.9592   18.6759 C   0  0  0  0  0  0  0  0  0  0  0  0
  -25.7110  -28.0420   18.9711 C   0  0  0  0  0  0  0  0  0  0  0  0
  -20.8338  -25.6665   24.8422 C   0  0  0  0  0  0  0  0  0  0  0  0
  -21.5974  -27.9384   24.5383 C   0  0  0  0  0  0  0  0  0  0  0  0
  -29.6306  -13.9073   20.0991 C   0  0  0  0  0  0  0  0  0  0  0  0
  -23.4777  -15.2715   19.8433 C   0  0  0  0  0  0  0  0  0  0  0  0
  -21.1768  -16.1151   19.1348 C   0  0  0  0  0  0  0  0  0  0  0  0
  -28.1309  -19.3433   21.3985 C   0  0  0  0  0  0  0  0  0  0  0  0
  -26.1880  -25.9831   17.7908 C   0  0  0  0  0  0  0  0  0  0  0  0
  -27.2046  -20.1916   20.7622 C   0  0  0  0  0  0  0  0  0  0  0  0
  -26.5447  -26.9336   18.7580 C   0  0  0  0  0  0  0  0  0  0  0  0
  -20.4517  -25.6156   23.5017 C   0  0  0  0  0  0  0  0  0  0  0  0
  -20.6424  -26.7261   22.6795 C   0  0  0  0  0  0  0  0  0  0  0  0
  -21.2153  -27.8875   23.1977 C   0  0  0  0  0  0  0  0  0  0  0  0
  -25.3945  -13.2933   20.2852 C   0  0  0  0  0  0  0  0  0  0  0  0
  -24.5455  -28.2094   18.2236 C   0  0  0  0  0  0  0  0  0  0  0  0
  -27.6188  -12.5702   20.0579 C   0  0  0  0  0  0  0  0  0  0  0  0
  -30.2167  -13.0543   19.1640 C   0  0  0  0  0  0  0  0  0  0  0  0
  -21.4066  -26.8280   25.3605 C   0  0  0  0  0  0  0  0  0  0  0  0
  -28.3316  -13.6653   20.5460 C   0  0  0  0  0  0  0  0  0  0  0  0
  -22.4878  -16.2935   19.6158 C   0  0  0  0  0  0  0  0  0  0  0  0
  -20.6490  -17.3827   19.0984 C   0  0  0  0  0  0  0  0  0  0  0  0
  -20.4969  -14.9114   18.7550 C   0  0  0  0  0  0  0  0  0  0  0  0
  -27.2211  -23.7641   19.8186 C   0  0  0  0  0  0  0  0  0  0  0  0
  -29.9591  -25.5005   19.7152 C   0  0  0  0  0  0  0  0  0  0  0  0
  -22.4138  -29.9902   22.5016 C   0  0  0  0  0  0  0  0  0  0  0  0
  -31.4623  -28.5076   19.1284 C   0  0  0  0  0  0  0  0  0  0  0  0
  -20.7433  -22.2146   22.1076 C   0  0  0  0  0  0  0  0  0  0  0  0
  -28.9954  -19.8244   22.5368 C   0  0  0  0  0  0  0  0  0  0  0  0
  -27.0750  -24.7980   17.5239 C   0  0  0  0  0  0  0  0  0  0  0  0
  -27.7969  -26.7938   19.5832 C   0  0  0  0  0  0  0  0  0  0  0  0
  -29.0940  -21.3451   22.6262 C   0  0  0  0  0  0  0  0  0  0  0  0
  -22.5482  -21.9470   18.9822 C   0  0  0  0  0  0  0  0  0  0  0  0
  -27.7127  -21.9784   22.4929 C   0  0  0  0  0  0  0  0  0  0  0  0
  -22.5866  -20.4309   18.7820 C   0  0  0  0  0  0  0  0  0  0  0  0
  -22.7057  -22.3143   20.4548 C   0  0  0  0  0  0  0  0  0  0  0  0
  -21.7482  -20.1561   21.1614 C   0  0  0  0  0  0  0  0  0  0  0  0
  -27.0864  -21.6546   21.1311 C   0  0  1  0  0  0  0  0  0  0  0  0
  -27.9702  -24.4433   18.7072 C   0  0  1  0  0  0  0  0  0  0  0  0
  -21.5715  -19.7191   19.6959 C   0  0  2  0  0  0  0  0  0  0  0  0
  -20.2310  -26.6671   21.2415 C   0  0  0  0  0  0  0  0  0  0  0  0
  -33.7077  -29.6275   19.1630 C   0  0  0  0  0  0  0  0  0  0  0  0
  -29.8469  -25.6259   22.7618 C   0  0  0  0  0  0  0  0  0  0  0  0
  -31.5087  -27.4965   22.6765 C   0  0  0  0  0  0  0  0  0  0  0  0
  -32.1298  -25.2386   21.8170 C   0  0  0  0  0  0  0  0  0  0  0  0
  -31.3291  -29.1230   16.2366 C   0  0  0  0  0  0  0  0  0  0  0  0
  -19.8423  -24.3590   22.9718 C   0  0  0  0  0  0  0  0  0  0  0  0
  -22.2666  -31.0479   21.4165 C   0  0  0  0  0  0  0  0  0  0  0  0
  -22.3662  -30.4652   20.0110 C   0  0  0  0  0  0  0  0  0  0  0  0
  -23.7250  -29.8271   19.7618 C   0  0  0  0  0  0  0  0  0  1  0  0
  -30.5155  -26.6668   20.4957 C   0  0  1  0  0  0  0  0  0  0  0  0
  -32.6903  -28.8785   18.3165 C   0  0  2  0  0  0  0  0  0  0  0  0
  -30.9755  -26.2589   21.9237 C   0  0  0  0  0  0  0  0  0  0  0  0
  -22.7753  -17.5735   19.8667 N   0  0  0  0  0  0  0  0  0  0  0  0
  -21.6376  -18.2109   19.5422 N   0  0  0  0  0  0  0  0  0  0  0  0
  -28.6282  -25.6148   19.2894 N   0  0  0  0  0  0  0  0  0  0  0  0
  -21.6982  -21.6182   21.2674 N   0  0  0  0  0  0  0  0  0  0  0  0
  -19.4405  -17.8584   18.7303 N   0  0  0  0  0  0  0  0  0  0  0  0
  -21.1861  -13.6950   18.8542 N   0  0  0  0  0  0  0  0  0  0  0  0
  -21.4167  -29.0263   22.3820 N   0  0  0  0  0  0  0  0  0  0  0  0
  -27.6658  -22.4859   20.0978 N   0  0  0  0  0  0  0  0  0  0  0  0
  -31.5706  -27.2442   19.6701 N   0  0  0  0  0  0  0  0  0  0  0  0
  -20.7672  -23.6030   22.1568 N   0  0  0  0  0  0  0  0  0  0  0  0
  -32.3080  -29.7443   17.1654 N   0  3  0  0  0  0  0  0  0  0  0  0
  -19.3187  -14.9161   18.3244 O   0  0  0  0  0  0  0  0  0  0  0  0
  -26.3082  -24.3564   20.3821 O   0  0  0  0  0  0  0  0  0  0  0  0
  -30.6811  -24.5270   19.4856 O   0  0  0  0  0  0  0  0  0  0  0  0
  -23.3091  -30.0363   23.3387 O   0  0  0  0  0  0  0  0  0  0  0  0
  -30.5045  -29.2644   19.2710 O   0  0  0  0  0  0  0  0  0  0  0  0
  -19.9258  -21.5583   22.7619 O   0  0  0  0  0  0  0  0  0  0  0  0
  -26.3294  -12.3280   20.5012 O   0  0  0  0  0  0  0  0  0  0  0  0
  -23.7473  -29.2902   18.4398 O   0  0  0  0  0  0  0  0  0  1  0  0
  -31.4647  -13.2857   18.7359 F   0  0  0  0  0  0  0  0  0  0  0  0
  -21.7716  -26.8778   26.6484 F   0  0  0  0  0  0  0  0  0  0  0  0
  -27.7741  -14.4877   21.4453 F   0  0  0  0  0  0  0  0  0  0  0  0
  1  2  1  0  0  0  0
  1  5  2  0  0  0  0
  2  6  2  0  0  0  0
  3  8  2  0  0  0  0
  3 17  1  0  0  0  0
  4  9  1  0  0  0  0
  4 17  2  0  0  0  0
  5 19  1  0  0  0  0
  6 21  1  0  0  0  0
  7 10  2  0  0  0  0
  7 20  1  0  0  0  0
  8 26  1  0  0  0  0
  9 26  2  0  0  0  0
 10 27  1  0  0  0  0
 11 12  2  0  0  0  0
 11 28  1  0  0  0  0
 12 29  1  0  0  0  0
 13 22  1  0  0  0  0
 13 27  2  0  0  0  0
 14 23  2  0  0  0  0
 14 30  1  0  0  0  0
 15 25  1  0  0  0  0
 15 30  2  0  0  0  0
 16 29  2  0  0  0  0
 16 31  1  0  0  0  0
 17 32  1  0  0  0  0
 18 32  1  0  0  0  0
 18 33  2  0  0  0  0
 18 34  1  0  0  0  0
 19 21  2  0  0  0  0
 19 40  1  0  0  0  0
 20 22  2  0  0  0  0
 20 41  1  0  0  0  0
 21 49  1  0  0  0  0
 22 42  1  0  0  0  0
 23 24  1  0  0  0  0
 23 58  1  0  0  0  0
 24 25  2  0  0  0  0
 24 52  1  0  0  0  0
 25 71  1  0  0  0  0
 26 82  1  0  0  0  0
 27 83  1  0  0  0  0
 28 31  2  0  0  0  0
 28 82  1  0  0  0  0
 29 84  1  0  0  0  0
 30 85  1  0  0  0  0
 31 86  1  0  0  0  0
 32 65  2  0  0  0  0
 33 66  1  0  0  0  0
 33 69  1  0  0  0  0
 34 70  1  0  0  0  0
 34 76  2  0  0  0  0
 35 50  1  0  0  0  0
 35 72  1  0  0  0  0
 35 77  2  0  0  0  0
 36 62  1  0  0  0  0
 36 67  1  0  0  0  0
 36 78  2  0  0  0  0
 37 59  1  0  0  0  0
 37 71  1  0  0  0  0
 37 79  2  0  0  0  0
 38 63  1  0  0  0  0
 38 73  1  0  0  0  0
 38 80  2  0  0  0  0
 39 68  1  0  0  0  0
 39 74  1  0  0  0  0
 39 81  2  0  0  0  0
 40 43  1  0  0  0  0
 41 50  1  0  0  0  0
 42 67  1  0  0  0  0
 43 45  1  0  0  0  0
 44 46  1  0  0  0  0
 44 47  1  0  0  0  0
 45 49  1  0  0  0  0
 46 51  1  0  0  0  0
 47 68  1  0  0  0  0
 48 51  1  0  0  0  0
 48 68  1  0  0  0  0
 49 72  1  0  0  0  0
 50 67  1  0  0  0  0
 51 66  1  0  0  0  0
 53 63  1  0  0  0  0
 54 64  1  0  0  0  0
 55 64  1  0  0  0  0
 56 64  1  0  0  0  0
 57 75  1  0  0  0  0
 58 74  1  0  0  0  0
 59 60  1  0  0  0  0
 60 61  1  0  0  0  0
 61 83  1  0  0  0  0
 62 64  1  0  0  0  0
 62 73  1  0  0  0  0
 63 75  1  0  0  0  0
 65 66  1  0  0  0  0
M  CHG  1  75   1
M  ISO  4  39 100  61 101  74 100  83 101
M  END
> <Batch ID>
0108

> <Smiles>
CNC(C)C(=O)NC(C(=O)N1Cc2cc([101O:1][101CH2:1]CCC(=O)Nc3cc(F)cc(C[100NH:0][100C:0](=O)N4CCCC(n5nc(-c6ccc(Oc7ccc(F)cc7F)cc6)c(C(N)=O)c5N)C4)c3C)ccc2CC1C(=O)NC1CCCc2ccccc21)C(C)(C)C

> <Shape>
0.218

> <Color>
0.061

> <Negative vol penalty>
0.000

$$$$

  -OEChem-04052301203D

 85 93  0     1  0  0  0  0  0999 V2000
  -29.9839  -25.4135   17.3399 C   0  0  0  0  0  0  0  0  0  0  0  0
  -28.5979  -25.4782   17.4413 C   0  0  0  0  0  0  0  0  0  0  0  0
  -25.7846  -16.1835   20.0305 C   0  0  0  0  0  0  0  0  0  0  0  0
  -24.6166  -15.3710   21.9831 C   0  0  0  0  0  0  0  0  0  0  0  0
  -30.7802  -25.8482   18.3987 C   0  0  0  0  0  0  0  0  0  0  0  0
  -28.0074  -25.9767   18.6020 C   0  0  0  0  0  0  0  0  0  0  0  0
  -22.8357  -29.2332   18.9951 C   0  0  0  0  0  0  0  0  0  0  0  0
  -26.2285  -14.8896   19.7577 C   0  0  0  0  0  0  0  0  0  0  0  0
  -25.0605  -14.0771   21.7103 C   0  0  0  0  0  0  0  0  0  0  0  0
  -21.5242  -28.8769   19.3062 C   0  0  0  0  0  0  0  0  0  0  0  0
  -27.9653  -11.8580   18.7493 C   0  0  0  0  0  0  0  0  0  0  0  0
  -29.3054  -11.6906   18.4006 C   0  0  0  0  0  0  0  0  0  0  0  0
  -22.6757  -24.2153   23.8825 C   0  0  0  0  0  0  0  0  0  0  0  0
  -21.8963  -29.5318   21.5979 C   0  0  0  0  0  0  0  0  0  0  0  0
  -19.9099  -23.8901   23.7173 C   0  0  0  0  0  0  0  0  0  0  0  0
  -29.9752  -12.6244   20.5257 C   0  0  0  0  0  0  0  0  0  0  0  0
  -24.9787  -16.4242   21.1433 C   0  0  0  0  0  0  0  0  0  0  0  0
  -22.0112  -23.4130   24.8100 C   0  0  0  0  0  0  0  0  0  0  0  0
  -23.3348  -18.3671   20.9695 C   0  0  0  0  0  0  0  0  0  0  0  0
  -30.1993  -26.3612   19.5691 C   0  0  0  0  0  0  0  0  0  0  0  0
  -23.6921  -29.7322   19.9871 C   0  0  0  0  0  0  0  0  0  0  0  0
  -28.7966  -26.4174   19.6779 C   0  0  0  0  0  0  0  0  0  0  0  0
  -23.2174  -29.8962   21.2962 C   0  0  0  0  0  0  0  0  0  0  0  0
  -20.6283  -23.2503   24.7274 C   0  0  0  0  0  0  0  0  0  0  0  0
  -25.8664  -13.8364   20.5975 C   0  0  0  0  0  0  0  0  0  0  0  0
  -21.0552  -29.0234   20.6084 C   0  0  0  0  0  0  0  0  0  0  0  0
  -27.6301  -12.4088   19.9863 C   0  0  0  0  0  0  0  0  0  0  0  0
  -21.9573  -24.8551   22.8724 C   0  0  0  0  0  0  0  0  0  0  0  0
  -20.5744  -24.6924   22.7898 C   0  0  0  0  0  0  0  0  0  0  0  0
  -30.3104  -12.0737   19.2887 C   0  0  0  0  0  0  0  0  0  0  0  0
  -28.6351  -12.7919   20.8745 C   0  0  0  0  0  0  0  0  0  0  0  0
  -24.5204  -17.7606   21.4261 C   0  0  0  0  0  0  0  0  0  0  0  0
  -23.3633  -19.6284   21.5124 C   0  0  0  0  0  0  0  0  0  0  0  0
  -22.7905  -22.7573   25.8526 C   0  0  0  0  0  0  0  0  0  0  0  0
  -22.3003  -17.8376   20.1298 C   0  0  0  0  0  0  0  0  0  0  0  0
  -24.2588  -22.9300   25.9383 C   0  0  0  0  0  0  0  0  0  0  0  0
  -26.4368  -28.7723   21.2712 C   0  0  0  0  0  0  0  0  0  0  0  0
  -26.2802  -31.6365   22.7858 C   0  0  0  0  0  0  0  0  0  0  0  0
  -24.3498  -34.2111   23.9225 C   0  0  0  0  0  0  0  0  0  0  0  0
  -31.1003  -26.7749   20.7056 C   0  0  0  0  0  0  0  0  0  0  0  0
  -25.0959  -30.1371   19.6295 C   0  0  0  0  0  0  0  0  0  0  0  0
  -24.0905  -30.4463   22.3933 C   0  0  0  0  0  0  0  0  0  0  0  0
  -30.4021  -27.6383   21.7532 C   0  0  0  0  0  0  0  0  0  0  0  0
  -27.0683  -22.1329   23.8579 C   0  0  0  0  0  0  0  0  0  0  0  0
  -29.0513  -27.0362   22.1270 C   0  0  0  0  0  0  0  0  0  0  0  0
  -26.5701  -20.9486   23.0303 C   0  0  0  0  0  0  0  0  0  0  0  0
  -26.4843  -22.1145   25.2668 C   0  0  0  0  0  0  0  0  0  0  0  0
  -24.4856  -20.8813   24.4711 C   0  0  0  0  0  0  0  0  0  0  0  0
  -28.1191  -26.9748   20.9109 C   0  0  1  0  0  0  0  0  0  0  0  0
  -26.0376  -30.1519   20.8297 C   0  0  1  0  0  0  0  0  0  0  0  0
  -25.0325  -20.8811   23.0329 C   0  0  2  0  0  0  0  0  0  0  0  0
  -24.5014  -36.3920   25.1546 C   0  0  0  0  0  0  0  0  0  0  0  0
  -26.6296  -30.1250   25.4132 C   0  0  0  0  0  0  0  0  0  0  0  0
  -25.8327  -32.1713   26.6158 C   0  0  0  0  0  0  0  0  0  0  0  0
  -27.9233  -32.2596   25.2577 C   0  0  0  0  0  0  0  0  0  0  0  0
  -23.2727  -35.7217   21.6167 C   0  0  0  0  0  0  0  0  0  0  0  0
  -23.0949  -25.0015   20.7891 C   0  0  0  0  0  0  0  0  0  0  0  0
  -18.1888  -26.8605   21.0067 C   0  0  0  0  0  0  0  0  0  0  0  0
  -19.1879  -27.6234   20.1511 C   0  0  0  0  0  0  0  0  0  1  0  0
  -18.8478  -26.2259   22.2214 C   0  0  0  0  0  0  0  0  0  0  0  0
  -25.6877  -32.1282   24.0843 C   0  0  1  0  0  0  0  0  0  0  0  0
  -24.4996  -35.7161   23.7923 C   0  0  2  0  0  0  0  0  0  0  0  0
  -26.5022  -31.6588   25.3227 C   0  0  0  0  0  0  0  0  0  0  0  0
  -25.2489  -18.5701   22.1993 N   0  0  0  0  0  0  0  0  0  0  0  0
  -22.2600  -21.9909   26.7645 N   0  0  0  0  0  0  0  0  0  0  0  0
  -24.5193  -19.6982   22.2328 N   0  0  0  0  0  0  0  0  0  0  0  0
  -25.0266  -22.0136   25.2334 N   0  0  0  0  0  0  0  0  0  0  0  0
  -25.4572  -30.8220   21.9952 N   0  0  0  0  0  0  0  0  0  0  0  0
  -19.9364  -22.4421   25.6568 N   0  0  0  0  0  0  0  0  0  0  0  0
  -22.5120  -20.6736   21.4390 N   0  0  0  0  0  0  0  0  0  0  0  0
  -22.4288  -16.5238   19.6591 N   0  0  0  0  0  0  0  0  0  0  0  0
  -27.5612  -28.2814   20.6354 N   0  0  0  0  0  0  0  0  0  0  0  0
  -25.5738  -33.5772   23.9582 N   0  0  0  0  0  0  0  0  0  0  0  0
  -23.3785  -36.2806   22.9890 N   0  3  0  0  0  0  0  0  0  0  0  0
  -21.2998  -18.5153   19.7931 O   0  0  0  0  0  0  0  0  0  0  0  0
  -24.6403  -23.8679   26.6262 O   0  0  0  0  0  0  0  0  0  0  0  0
  -25.7747  -28.1964   22.1265 O   0  0  0  0  0  0  0  0  0  0  0  0
  -27.4283  -31.9689   22.4808 O   0  0  0  0  0  0  0  0  0  0  0  0
  -23.2564  -33.6538   23.9897 O   0  0  0  0  0  0  0  0  0  0  0  0
  -26.2992  -12.5737   20.3314 O   0  0  0  0  0  0  0  0  0  0  0  0
  -22.6172  -25.6372   21.9731 O   0  0  0  0  0  0  0  0  0  0  0  0
  -19.7757  -28.6757   20.9149 O   0  0  0  0  0  0  0  0  0  1  0  0
  -19.8575  -25.3176   21.8029 O   0  0  0  0  0  0  0  0  0  0  0  0
  -31.5972  -11.9114   18.9543 F   0  0  0  0  0  0  0  0  0  0  0  0
  -28.3192  -13.3205   22.0647 F   0  0  0  0  0  0  0  0  0  0  0  0
  1  2  1  0  0  0  0
  1  5  2  0  0  0  0
  2  6  2  0  0  0  0
  3  8  2  0  0  0  0
  3 17  1  0  0  0  0
  4  9  1  0  0  0  0
  4 17  2  0  0  0  0
  5 20  1  0  0  0  0
  6 22  1  0  0  0  0
  7 10  2  0  0  0  0
  7 21  1  0  0  0  0
  8 25  1  0  0  0  0
  9 25  2  0  0  0  0
 10 26  1  0  0  0  0
 11 12  2  0  0  0  0
 11 27  1  0  0  0  0
 12 30  1  0  0  0  0
 13 18  2  0  0  0  0
 13 28  1  0  0  0  0
 14 23  1  0  0  0  0
 14 26  2  0  0  0  0
 15 24  2  0  0  0  0
 15 29  1  0  0  0  0
 16 30  2  0  0  0  0
 16 31  1  0  0  0  0
 17 32  1  0  0  0  0
 18 24  1  0  0  0  0
 18 34  1  0  0  0  0
 19 32  1  0  0  0  0
 19 33  2  0  0  0  0
 19 35  1  0  0  0  0
 20 22  2  0  0  0  0
 20 40  1  0  0  0  0
 21 23  2  0  0  0  0
 21 41  1  0  0  0  0
 22 49  1  0  0  0  0
 23 42  1  0  0  0  0
 24 69  1  0  0  0  0
 25 80  1  0  0  0  0
 26 82  1  0  0  0  0
 27 31  2  0  0  0  0
 27 80  1  0  0  0  0
 28 29  2  0  0  0  0
 28 81  1  0  0  0  0
 29 83  1  0  0  0  0
 30 84  1  0  0  0  0
 31 85  1  0  0  0  0
 32 64  2  0  0  0  0
 33 66  1  0  0  0  0
 33 70  1  0  0  0  0
 34 36  1  0  0  0  0
 34 65  2  0  0  0  0
 35 71  1  0  0  0  0
 35 75  2  0  0  0  0
 36 67  1  0  0  0  0
 36 76  2  0  0  0  0
 37 50  1  0  0  0  0
 37 72  1  0  0  0  0
 37 77  2  0  0  0  0
 38 61  1  0  0  0  0
 38 68  1  0  0  0  0
 38 78  2  0  0  0  0
 39 62  1  0  0  0  0
 39 73  1  0  0  0  0
 39 79  2  0  0  0  0
 40 43  1  0  0  0  0
 41 50  1  0  0  0  0
 42 68  1  0  0  0  0
 43 45  1  0  0  0  0
 44 46  1  0  0  0  0
 44 47  1  0  0  0  0
 45 49  1  0  0  0  0
 46 51  1  0  0  0  0
 47 67  1  0  0  0  0
 48 51  1  0  0  0  0
 48 67  1  0  0  0  0
 49 72  1  0  0  0  0
 50 68  1  0  0  0  0
 51 66  1  0  0  0  0
 52 62  1  0  0  0  0
 53 63  1  0  0  0  0
 54 63  1  0  0  0  0
 55 63  1  0  0  0  0
 56 74  1  0  0  0  0
 57 81  1  0  0  0  0
 58 59  1  0  0  0  0
 58 60  1  0  0  0  0
 59 82  1  0  0  0  0
 60 83  1  0  0  0  0
 61 63  1  0  0  0  0
 61 73  1  0  0  0  0
 62 74  1  0  0  0  0
 64 66  1  0  0  0  0
M  CHG  1  74   1
M  ISO  4  34 100  36 100  59 101  82 101
M  END
> <Batch ID>
0108

> <Smiles>
CNC(C)C(=O)NC(C(=O)N1Cc2cc([101O:1][101CH2:1]CCOc3cc(N)c([100C:0](=N)[100C:0](=O)N4CCCC(n5nc(-c6ccc(Oc7ccc(F)cc7F)cc6)c(C(N)=O)c5N)C4)cc3OC)ccc2CC1C(=O)NC1CCCc2ccccc21)C(C)(C)C

> <Shape>
0.292

> <Color>
0.072

> <Negative vol penalty>
0.000

$$$$

  -OEChem-04052301203D

 82 90  0     1  0  0  0  0  0999 V2000
  -25.9958   -8.6387   25.3903 C   0  0  0  0  0  0  0  0  0  0  0  0
  -26.9309   -9.5838   24.9806 C   0  0  0  0  0  0  0  0  0  0  0  0
  -24.0992  -28.4672   22.5904 C   0  0  0  0  0  0  0  0  0  0  0  0
  -22.8621  -29.6727   20.9012 C   0  0  0  0  0  0  0  0  0  0  0  0
  -24.8721   -8.3856   24.6047 C   0  0  0  0  0  0  0  0  0  0  0  0
  -26.7434  -10.2756   23.7846 C   0  0  0  0  0  0  0  0  0  0  0  0
  -28.2924  -16.0828   22.6087 C   0  0  0  0  0  0  0  0  0  0  0  0
  -24.1082  -29.6056   23.3963 C   0  0  0  0  0  0  0  0  0  0  0  0
  -22.8711  -30.8111   21.7071 C   0  0  0  0  0  0  0  0  0  0  0  0
  -29.3909  -16.6482   21.9625 C   0  0  0  0  0  0  0  0  0  0  0  0
  -24.7684  -32.3018   25.7453 C   0  0  0  0  0  0  0  0  0  0  0  0
  -25.9687  -32.6506   26.3644 C   0  0  0  0  0  0  0  0  0  0  0  0
  -28.1197  -16.7638   19.9156 C   0  0  0  0  0  0  0  0  0  0  0  0
  -27.0225  -32.8642   24.2008 C   0  0  0  0  0  0  0  0  0  0  0  0
  -30.1385  -22.3675   20.0625 C   0  0  0  0  0  0  0  0  0  0  0  0
  -32.0537  -23.2331   19.3995 C   0  0  0  0  0  0  0  0  0  0  0  0
  -23.4762  -28.5007   21.3428 C   0  0  0  0  0  0  0  0  0  0  0  0
  -22.4979  -26.3043   20.4905 C   0  0  0  0  0  0  0  0  0  0  0  0
  -24.6658   -9.0816   23.4032 C   0  0  0  0  0  0  0  0  0  0  0  0
  -27.1009  -15.8433   21.9092 C   0  0  0  0  0  0  0  0  0  0  0  0
  -25.6165  -10.0307   22.9815 C   0  0  0  0  0  0  0  0  0  0  0  0
  -27.0067  -16.1977   20.5558 C   0  0  0  0  0  0  0  0  0  0  0  0
  -23.4941  -30.7776   22.9547 C   0  0  0  0  0  0  0  0  0  0  0  0
  -29.3056  -16.9861   20.6151 C   0  0  0  0  0  0  0  0  0  0  0  0
  -24.6951  -32.2342   24.3540 C   0  0  0  0  0  0  0  0  0  0  0  0
  -27.0958  -32.9318   25.5921 C   0  0  0  0  0  0  0  0  0  0  0  0
  -25.8222  -32.5154   23.5818 C   0  0  0  0  0  0  0  0  0  0  0  0
  -23.4670  -27.3252   20.5096 C   0  0  0  0  0  0  0  0  0  0  0  0
  -29.9553  -23.2742   19.0452 C   0  0  0  0  0  0  0  0  0  0  0  0
  -22.9444  -25.4248   19.5347 C   0  0  0  0  0  0  0  0  0  0  0  0
  -21.3010  -26.1636   21.2673 C   0  0  0  0  0  0  0  0  0  0  0  0
  -25.4065  -13.2530   21.1857 C   0  0  0  0  0  0  0  0  0  0  0  0
  -31.9147  -19.4087   19.9311 C   0  0  0  0  0  0  0  0  0  0  0  0
  -23.2958  -15.4314   20.0359 C   0  0  0  0  0  0  0  0  0  0  0  0
  -22.7499  -18.5679   18.8067 C   0  0  0  0  0  0  0  0  0  0  0  0
  -28.6162  -24.5911   17.4118 C   0  0  0  0  0  0  0  0  0  0  0  0
  -23.4600   -8.7399   22.5641 C   0  0  0  0  0  0  0  0  0  0  0  0
  -25.9162  -15.2574   22.6274 C   0  0  0  0  0  0  0  0  0  0  0  0
  -25.7435  -15.9797   19.7650 C   0  0  0  0  0  0  0  0  0  0  0  0
  -23.1447   -9.7847   21.4968 C   0  0  0  0  0  0  0  0  0  0  0  0
  -25.5192  -25.2362   15.5138 C   0  0  0  0  0  0  0  0  0  0  0  0
  -24.4135  -10.1859   20.7512 C   0  0  0  0  0  0  0  0  0  0  0  0
  -24.5854  -25.8185   16.5736 C   0  0  0  0  0  0  0  0  0  0  0  0
  -26.9822  -25.5479   15.8145 C   0  0  0  0  0  0  0  0  0  0  0  0
  -26.4858  -25.7034   18.2352 C   0  0  0  0  0  0  0  0  0  0  0  0
  -25.4356  -10.8194   21.7027 C   0  0  1  0  0  0  0  0  0  0  0  0
  -24.9212  -14.5835   21.6877 C   0  0  1  0  0  0  0  0  0  0  0  0
  -25.0076  -25.3695   17.9832 C   0  0  1  0  0  0  0  0  0  0  0  0
  -20.9269  -20.0455   17.9175 C   0  0  0  0  0  0  0  0  0  0  0  0
  -23.3472  -13.9022   17.3960 C   0  0  0  0  0  0  0  0  0  0  0  0
  -22.3042  -15.8971   16.3003 C   0  0  0  0  0  0  0  0  0  0  0  0
  -21.0800  -14.6848   18.1042 C   0  0  0  0  0  0  0  0  0  0  0  0
  -27.5040  -22.8479   18.7880 C   0  0  0  0  0  0  0  0  0  0  0  0
  -23.1438  -20.5509   20.9681 C   0  0  0  0  0  0  0  0  0  0  0  0
  -32.8968  -20.3089   20.6623 C   0  0  0  0  0  0  0  0  0  0  0  0
  -31.2614  -18.3299   20.7725 C   0  0  0  0  0  0  0  0  0  1  0  0
  -32.2181  -21.5197   21.3003 C   0  0  0  0  0  0  0  0  0  0  0  0
  -23.0790  -16.1111   18.7055 C   0  0  1  0  0  0  0  0  0  0  0  0
  -21.7079  -19.6171   19.1500 C   0  0  2  0  0  0  0  0  0  0  0  0
  -22.4772  -15.1513   17.6406 C   0  0  0  0  0  0  0  0  0  0  0  0
  -31.1513  -23.8093   18.6368 N   0  0  0  0  0  0  0  0  0  0  0  0
  -24.4548  -27.1149   19.6355 N   0  0  0  0  0  0  0  0  0  0  0  0
  -31.4877  -22.3516   20.2781 N   0  0  0  0  0  0  0  0  0  0  0  0
  -24.1087  -25.9517   19.0582 N   0  0  0  0  0  0  0  0  0  0  0  0
  -24.6147  -15.3983   20.5103 N   0  0  0  0  0  0  0  0  0  0  0  0
  -27.3453  -25.1527   17.1760 N   0  0  0  0  0  0  0  0  0  0  0  0
  -22.4509  -24.2599   19.0638 N   0  0  0  0  0  0  0  0  0  0  0  0
  -20.9920  -27.1586   22.2047 N   0  0  0  0  0  0  0  0  0  0  0  0
  -25.0698  -12.1879   21.9991 N   0  0  0  0  0  0  0  0  0  0  0  0
  -22.2627  -17.2893   18.9773 N   0  0  0  0  0  0  0  0  0  0  0  0
  -28.6899  -23.6446   18.4566 N   0  0  0  0  0  0  0  0  0  0  0  0
  -22.3600  -20.8225   19.7356 N   0  3  0  0  0  0  0  0  0  0  0  0
  -20.5369  -25.1762   21.1456 O   0  0  0  0  0  0  0  0  0  0  0  0
  -26.0383  -13.1968   20.1372 O   0  0  0  0  0  0  0  0  0  0  0  0
  -31.6607  -19.5400   18.7348 O   0  0  0  0  0  0  0  0  0  0  0  0
  -22.3293  -14.9539   20.6356 O   0  0  0  0  0  0  0  0  0  0  0  0
  -23.8815  -18.8540   18.4218 O   0  0  0  0  0  0  0  0  0  0  0  0
  -29.5995  -24.8900   16.7237 O   0  0  0  0  0  0  0  0  0  0  0  0
  -23.5025  -31.8886   23.7409 O   0  0  0  0  0  0  0  0  0  0  0  0
  -30.3765  -17.5374   19.9818 O   0  0  0  0  0  0  0  0  0  1  0  0
  -28.2479  -33.2682   26.1867 F   0  0  0  0  0  0  0  0  0  0  0  0
  -25.7576  -32.4532   22.2447 F   0  0  0  0  0  0  0  0  0  0  0  0
  1  2  1  0  0  0  0
  1  5  2  0  0  0  0
  2  6  2  0  0  0  0
  3  8  2  0  0  0  0
  3 17  1  0  0  0  0
  4  9  1  0  0  0  0
  4 17  2  0  0  0  0
  5 19  1  0  0  0  0
  6 21  1  0  0  0  0
  7 10  2  0  0  0  0
  7 20  1  0  0  0  0
  8 23  1  0  0  0  0
  9 23  2  0  0  0  0
 10 24  1  0  0  0  0
 11 12  2  0  0  0  0
 11 25  1  0  0  0  0
 12 26  1  0  0  0  0
 13 22  1  0  0  0  0
 13 24  2  0  0  0  0
 14 26  2  0  0  0  0
 14 27  1  0  0  0  0
 15 29  2  0  0  0  0
 15 63  1  0  0  0  0
 16 61  2  0  0  0  0
 16 63  1  0  0  0  0
 17 28  1  0  0  0  0
 18 28  1  0  0  0  0
 18 30  2  0  0  0  0
 18 31  1  0  0  0  0
 19 21  2  0  0  0  0
 19 37  1  0  0  0  0
 20 22  2  0  0  0  0
 20 38  1  0  0  0  0
 21 46  1  0  0  0  0
 22 39  1  0  0  0  0
 23 79  1  0  0  0  0
 24 80  1  0  0  0  0
 25 27  2  0  0  0  0
 25 79  1  0  0  0  0
 26 81  1  0  0  0  0
 27 82  1  0  0  0  0
 28 62  2  0  0  0  0
 29 61  1  0  0  0  0
 29 71  1  0  0  0  0
 30 64  1  0  0  0  0
 30 67  1  0  0  0  0
 31 68  1  0  0  0  0
 31 73  2  0  0  0  0
 32 47  1  0  0  0  0
 32 69  1  0  0  0  0
 32 74  2  0  0  0  0
 33 55  1  0  0  0  0
 33 56  1  0  0  0  0
 33 75  2  0  0  0  0
 34 58  1  0  0  0  0
 34 65  1  0  0  0  0
 34 76  2  0  0  0  0
 35 59  1  0  0  0  0
 35 70  1  0  0  0  0
 35 77  2  0  0  0  0
 36 66  1  0  0  0  0
 36 71  1  0  0  0  0
 36 78  2  0  0  0  0
 37 40  1  0  0  0  0
 38 47  1  0  0  0  0
 39 65  1  0  0  0  0
 40 42  1  0  0  0  0
 41 43  1  0  0  0  0
 41 44  1  0  0  0  0
 42 46  1  0  0  0  0
 43 48  1  0  0  0  0
 44 66  1  0  0  0  0
 45 48  1  0  0  0  0
 45 66  1  0  0  0  0
 46 69  1  0  0  0  0
 47 65  1  0  0  0  0
 48 64  1  0  0  0  0
 49 59  1  0  0  0  0
 50 60  1  0  0  0  0
 51 60  1  0  0  0  0
 52 60  1  0  0  0  0
 53 71  1  0  0  0  0
 54 72  1  0  0  0  0
 55 57  1  0  0  0  0
 56 80  1  0  0  0  0
 57 63  1  0  0  0  0
 58 60  1  0  0  0  0
 58 70  1  0  0  0  0
 59 72  1  0  0  0  0
 62 64  1  0  0  0  0
M  CHG  1  72   1
M  ISO  4  36 100  56 101  71 100  80 101
M  END
> <Batch ID>
0108

> <Smiles>
CNC(C)C(=O)NC(C(=O)N1Cc2cc([101O:1][101CH2:1]C(=O)CCn3cnc([100N:0](C)[100C:0](=O)N4CCCC(n5nc(-c6ccc(Oc7ccc(F)cc7F)cc6)c(C(N)=O)c5N)C4)c3)ccc2CC1C(=O)NC1CCCc2ccccc21)C(C)(C)C

> <Shape>
0.222

> <Color>
0.057

> <Negative vol penalty>
0.000

$$$$

  -OEChem-04052301203D

 86 94  0     1  0  0  0  0  0999 V2000
  -16.5827  -30.0350   23.3085 C   0  0  0  0  0  0  0  0  0  0  0  0
  -17.6608  -30.8213   23.7020 C   0  0  0  0  0  0  0  0  0  0  0  0
  -25.0568  -15.3884   20.1486 C   0  0  0  0  0  0  0  0  0  0  0  0
  -27.4132  -15.1588   20.6302 C   0  0  0  0  0  0  0  0  0  0  0  0
  -16.7929  -28.7166   22.9067 C   0  0  0  0  0  0  0  0  0  0  0  0
  -18.9497  -30.2892   23.6950 C   0  0  0  0  0  0  0  0  0  0  0  0
  -25.7688  -32.1912   22.6005 C   0  0  0  0  0  0  0  0  0  0  0  0
  -24.9096  -14.0026   20.2085 C   0  0  0  0  0  0  0  0  0  0  0  0
  -27.2659  -13.7730   20.6901 C   0  0  0  0  0  0  0  0  0  0  0  0
  -27.0186  -32.1205   23.2145 C   0  0  0  0  0  0  0  0  0  0  0  0
  -24.6487  -11.6264   22.5999 C   0  0  0  0  0  0  0  0  0  0  0  0
  -23.5604  -11.1203   23.3104 C   0  0  0  0  0  0  0  0  0  0  0  0
  -27.2714  -29.8550   22.4254 C   0  0  0  0  0  0  0  0  0  0  0  0
  -31.0044  -25.3960   20.5615 C   0  0  0  0  0  0  0  0  0  0  0  0
  -31.4114  -25.2654   17.8047 C   0  0  0  0  0  0  0  0  0  0  0  0
  -22.7529  -10.0415   21.3051 C   0  0  0  0  0  0  0  0  0  0  0  0
  -26.3087  -15.9665   20.3594 C   0  0  0  0  0  0  0  0  0  0  0  0
  -26.3340  -18.3134   21.3588 C   0  0  0  0  0  0  0  0  0  0  0  0
  -18.0862  -28.1710   22.8856 C   0  0  0  0  0  0  0  0  0  0  0  0
  -25.2554  -31.0887   21.9024 C   0  0  0  0  0  0  0  0  0  0  0  0
  -19.1772  -28.9618   23.2939 C   0  0  0  0  0  0  0  0  0  0  0  0
  -26.0160  -29.9151   21.8013 C   0  0  0  0  0  0  0  0  0  0  0  0
  -31.3294  -24.1795   19.9614 C   0  0  0  0  0  0  0  0  0  0  0  0
  -31.5329  -24.1142   18.5830 C   0  0  0  0  0  0  0  0  0  0  0  0
  -30.8828  -26.5472   19.7832 C   0  0  0  0  0  0  0  0  0  0  0  0
  -26.0141  -13.1949   20.4793 C   0  0  0  0  0  0  0  0  0  0  0  0
  -27.7688  -30.9513   23.1295 C   0  0  0  0  0  0  0  0  0  0  0  0
  -24.7892  -11.3401   21.2419 C   0  0  0  0  0  0  0  0  0  0  0  0
  -22.6124  -10.3279   22.6631 C   0  0  0  0  0  0  0  0  0  0  0  0
  -31.0864  -26.4819   18.4048 C   0  0  0  0  0  0  0  0  0  0  0  0
  -23.8413  -10.5477   20.5946 C   0  0  0  0  0  0  0  0  0  0  0  0
  -26.4616  -17.3978   20.2971 C   0  0  0  0  0  0  0  0  0  0  0  0
  -26.5714  -19.5389   20.7858 C   0  0  0  0  0  0  0  0  0  0  0  0
  -26.0284  -18.0773   22.7396 C   0  0  0  0  0  0  0  0  0  0  0  0
  -22.7046  -29.2196   22.2243 C   0  0  0  0  0  0  0  0  0  0  0  0
  -23.7412  -27.9807   19.4114 C   0  0  0  0  0  0  0  0  0  0  0  0
  -26.3396  -27.4411   17.2656 C   0  0  0  0  0  0  0  0  0  0  0  0
  -29.8670  -22.0068   16.7160 C   0  0  0  0  0  0  0  0  0  0  0  0
  -18.2582  -26.7262   22.4887 C   0  0  0  0  0  0  0  0  0  0  0  0
  -23.9173  -31.1901   21.2230 C   0  0  0  0  0  0  0  0  0  0  0  0
  -25.5188  -28.7104   21.0464 C   0  0  0  0  0  0  0  0  0  0  0  0
  -19.7001  -26.3544   22.1524 C   0  0  0  0  0  0  0  0  0  0  0  0
  -26.4157  -21.3185   16.1759 C   0  0  0  0  0  0  0  0  0  0  0  0
  -20.6526  -26.8972   23.2131 C   0  0  0  0  0  0  0  0  0  0  0  0
  -26.0639  -20.3225   17.2822 C   0  0  0  0  0  0  0  0  0  0  0  0
  -27.8292  -21.0942   15.6431 C   0  0  0  0  0  0  0  0  0  0  0  0
  -28.5329  -20.0870   17.7795 C   0  0  0  0  0  0  0  0  0  0  0  0
  -20.5932  -28.4282   23.2763 C   0  0  1  0  0  0  0  0  0  0  0  0
  -23.2693  -29.8316   20.9737 C   0  0  1  0  0  0  0  0  0  0  0  0
  -27.1373  -20.3094   18.3872 C   0  0  2  0  0  0  0  0  0  0  0  0
  -31.4532  -22.9601   20.8146 C   0  0  0  0  0  0  0  0  0  0  0  0
  -26.8861  -26.3671   15.0644 C   0  0  0  0  0  0  0  0  0  0  0  0
  -23.6546  -25.2322   20.7337 C   0  0  0  0  0  0  0  0  0  0  0  0
  -25.0762  -24.3650   18.8642 C   0  0  0  0  0  0  0  0  0  0  0  0
  -22.8085  -25.2851   18.3808 C   0  0  0  0  0  0  0  0  0  0  0  0
  -31.0335  -29.8010   24.3464 C   0  0  0  0  0  0  0  0  0  0  0  0
  -28.8610  -28.5605   24.2649 C   0  0  0  0  0  0  0  0  0  0  0  0
  -27.1901  -30.0192   16.0870 C   0  0  0  0  0  0  0  0  0  0  0  0
  -31.8791  -22.8227   17.9180 C   0  0  0  0  0  0  0  0  0  0  0  0
  -29.9666  -29.3633   22.1088 C   0  0  0  0  0  0  0  0  0  0  0  0
  -30.3344  -27.9105   21.7997 C   0  0  0  0  0  0  0  0  0  0  0  0
  -24.6777  -26.8649   19.0151 C   0  0  1  0  0  0  0  0  0  0  0  0
  -26.4686  -27.6493   15.7675 C   0  0  2  0  0  0  0  0  0  0  0  0
  -24.0631  -25.4587   19.2644 C   0  0  0  0  0  0  0  0  0  0  0  0
  -29.7033  -29.6508   23.6011 C   0  0  0  0  0  0  0  0  0  1  0  0
  -26.7569  -17.9910   19.1373 N   0  0  0  0  0  0  0  0  0  0  0  0
  -26.8168  -19.2925   19.4670 N   0  0  0  0  0  0  0  0  0  0  0  0
  -24.2019  -28.8566   20.4046 N   0  0  0  0  0  0  0  0  0  0  0  0
  -28.7992  -21.0945   16.7409 N   0  0  0  0  0  0  0  0  0  0  0  0
  -26.5920  -20.7924   21.2864 N   0  0  0  0  0  0  0  0  0  0  0  0
  -25.8132  -16.7577   23.1600 N   0  0  0  0  0  0  0  0  0  0  0  0
  -30.5607  -27.7543   20.3812 N   0  0  0  0  0  0  0  0  0  0  0  0
  -21.3397  -29.0086   22.1806 N   0  0  0  0  0  0  0  0  0  0  0  0
  -25.0489  -27.1172   17.6269 N   0  0  0  0  0  0  0  0  0  0  0  0
  -30.7367  -21.9445   17.7979 N   0  0  0  0  0  0  0  0  0  0  0  0
  -27.4867  -28.6979   15.4760 N   0  3  0  0  0  0  0  0  0  0  0  0
  -25.9324  -19.0104   23.5724 O   0  0  0  0  0  0  0  0  0  0  0  0
  -23.4521  -28.9569   23.1592 O   0  0  0  0  0  0  0  0  0  0  0  0
  -22.6445  -28.0760   18.8549 O   0  0  0  0  0  0  0  0  0  0  0  0
  -27.2895  -27.5508   18.0376 O   0  0  0  0  0  0  0  0  0  0  0  0
  -30.0300  -22.8203   15.8003 O   0  0  0  0  0  0  0  0  0  0  0  0
  -25.8707  -11.8427   20.5381 O   0  0  0  0  0  0  0  0  0  0  0  0
  -28.9886  -30.8794   23.7284 O   0  0  0  0  0  0  0  0  0  1  0  0
  -21.5681   -9.8406   23.3459 F   0  0  0  0  0  0  0  0  0  0  0  0
  -30.9725  -27.5821   17.6475 F   0  0  0  0  0  0  0  0  0  0  0  0
  -23.9714  -10.2682   19.2904 F   0  0  0  0  0  0  0  0  0  0  0  0
  1  2  1  0  0  0  0
  1  5  2  0  0  0  0
  2  6  2  0  0  0  0
  3  8  2  0  0  0  0
  3 17  1  0  0  0  0
  4  9  1  0  0  0  0
  4 17  2  0  0  0  0
  5 19  1  0  0  0  0
  6 21  1  0  0  0  0
  7 10  2  0  0  0  0
  7 20  1  0  0  0  0
  8 26  1  0  0  0  0
  9 26  2  0  0  0  0
 10 27  1  0  0  0  0
 11 12  2  0  0  0  0
 11 28  1  0  0  0  0
 12 29  1  0  0  0  0
 13 22  1  0  0  0  0
 13 27  2  0  0  0  0
 14 23  2  0  0  0  0
 14 25  1  0  0  0  0
 15 24  2  0  0  0  0
 15 30  1  0  0  0  0
 16 29  2  0  0  0  0
 16 31  1  0  0  0  0
 17 32  1  0  0  0  0
 18 32  1  0  0  0  0
 18 33  2  0  0  0  0
 18 34  1  0  0  0  0
 19 21  2  0  0  0  0
 19 39  1  0  0  0  0
 20 22  2  0  0  0  0
 20 40  1  0  0  0  0
 21 48  1  0  0  0  0
 22 41  1  0  0  0  0
 23 24  1  0  0  0  0
 23 51  1  0  0  0  0
 24 59  1  0  0  0  0
 25 30  2  0  0  0  0
 25 72  1  0  0  0  0
 26 82  1  0  0  0  0
 27 83  1  0  0  0  0
 28 31  2  0  0  0  0
 28 82  1  0  0  0  0
 29 84  1  0  0  0  0
 30 85  1  0  0  0  0
 31 86  1  0  0  0  0
 32 66  2  0  0  0  0
 33 67  1  0  0  0  0
 33 70  1  0  0  0  0
 34 71  1  0  0  0  0
 34 77  2  0  0  0  0
 35 49  1  0  0  0  0
 35 73  1  0  0  0  0
 35 78  2  0  0  0  0
 36 62  1  0  0  0  0
 36 68  1  0  0  0  0
 36 79  2  0  0  0  0
 37 63  1  0  0  0  0
 37 74  1  0  0  0  0
 37 80  2  0  0  0  0
 38 69  1  0  0  0  0
 38 75  1  0  0  0  0
 38 81  2  0  0  0  0
 39 42  1  0  0  0  0
 40 49  1  0  0  0  0
 41 68  1  0  0  0  0
 42 44  1  0  0  0  0
 43 45  1  0  0  0  0
 43 46  1  0  0  0  0
 44 48  1  0  0  0  0
 45 50  1  0  0  0  0
 46 69  1  0  0  0  0
 47 50  1  0  0  0  0
 47 69  1  0  0  0  0
 48 73  1  0  0  0  0
 49 68  1  0  0  0  0
 50 67  1  0  0  0  0
 52 63  1  0  0  0  0
 53 64  1  0  0  0  0
 54 64  1  0  0  0  0
 55 64  1  0  0  0  0
 56 65  1  0  0  0  0
 57 65  1  0  0  0  0
 58 76  1  0  0  0  0
 59 75  1  0  0  0  0
 60 61  1  0  0  0  0
 60 65  1  0  0  0  0
 61 72  1  0  0  0  0
 62 64  1  0  0  0  0
 62 74  1  0  0  0  0
 63 76  1  0  0  0  0
 65 83  1  0  0  0  0
 66 67  1  0  0  0  0
M  CHG  1  76   1
M  ISO  4  38 100  65 101  75 100  83 101
M  END
> <Batch ID>
0108

> <Smiles>
CNC(C)C(=O)NC(C(=O)N1Cc2cc([101O:1][101C:1](C)(C)CCNc3cc(C)c(C[100NH:0][100C:0](=O)N4CCCC(n5nc(-c6ccc(Oc7ccc(F)cc7F)cc6)c(C(N)=O)c5N)C4)cc3F)ccc2CC1C(=O)NC1CCCc2ccccc21)C(C)(C)C

> <Shape>
0.281

> <Color>
0.112

> <Negative vol penalty>
0.000

$$$$

  -OEChem-04052301203D

 88 97  0     1  0  0  0  0  0999 V2000
  -32.1570  -15.4112   22.4354 C   0  0  0  0  0  0  0  0  0  0  0  0
  -31.0582  -16.1167   22.9153 C   0  0  0  0  0  0  0  0  0  0  0  0
  -24.2518  -28.9376   23.2127 C   0  0  0  0  0  0  0  0  0  0  0  0
  -23.9575  -30.1306   21.1326 C   0  0  0  0  0  0  0  0  0  0  0  0
  -32.0597  -14.7009   21.2396 C   0  0  0  0  0  0  0  0  0  0  0  0
  -29.8618  -16.1132   22.1991 C   0  0  0  0  0  0  0  0  0  0  0  0
  -22.7687  -16.3304   23.1776 C   0  0  0  0  0  0  0  0  0  0  0  0
  -23.9591  -30.1022   23.9222 C   0  0  0  0  0  0  0  0  0  0  0  0
  -23.6647  -31.2954   21.8421 C   0  0  0  0  0  0  0  0  0  0  0  0
  -21.6446  -17.0394   22.7565 C   0  0  0  0  0  0  0  0  0  0  0  0
  -25.3708  -33.6988   23.4985 C   0  0  0  0  0  0  0  0  0  0  0  0
  -25.9770  -34.8828   23.0789 C   0  0  0  0  0  0  0  0  0  0  0  0
  -24.3598  -20.1644   21.3830 C   0  0  0  0  0  0  0  0  0  0  0  0
  -21.5689  -15.7122   20.7436 C   0  0  0  0  0  0  0  0  0  0  0  0
  -24.1019  -20.3905   18.9958 C   0  0  0  0  0  0  0  0  0  0  0  0
  -23.8014  -35.8570   22.6850 C   0  0  0  0  0  0  0  0  0  0  0  0
  -24.2511  -28.9517   21.8179 C   0  0  0  0  0  0  0  0  0  0  0  0
  -23.6442  -26.7667   20.6495 C   0  0  0  0  0  0  0  0  0  0  0  0
  -30.8586  -14.6808   20.5133 C   0  0  0  0  0  0  0  0  0  0  0  0
  -23.3088  -15.3125   22.3784 C   0  0  0  0  0  0  0  0  0  0  0  0
  -29.7487  -15.4031   20.9918 C   0  0  0  0  0  0  0  0  0  0  0  0
  -25.7559  -20.2476   21.2593 C   0  0  0  0  0  0  0  0  0  0  0  0
  -22.6984  -14.9900   21.1580 C   0  0  0  0  0  0  0  0  0  0  0  0
  -26.3252  -20.3979   19.9809 C   0  0  0  0  0  0  0  0  0  0  0  0
  -25.4868  -20.4720   18.8573 C   0  0  0  0  0  0  0  0  0  0  0  0
  -23.5388  -20.2357   20.2580 C   0  0  0  0  0  0  0  0  0  0  0  0
  -23.6655  -31.2812   23.2369 C   0  0  0  0  0  0  0  0  0  0  0  0
  -21.0462  -16.7324   21.5380 C   0  0  0  0  0  0  0  0  0  0  0  0
  -23.9799  -33.5938   23.5113 C   0  0  0  0  0  0  0  0  0  0  0  0
  -25.1923  -35.9620   22.6722 C   0  0  0  0  0  0  0  0  0  0  0  0
  -23.1952  -34.6729   23.1046 C   0  0  0  0  0  0  0  0  0  0  0  0
  -24.5539  -27.7491   21.0845 C   0  0  0  0  0  0  0  0  0  0  0  0
  -24.4241  -25.8376   20.0053 C   0  0  0  0  0  0  0  0  0  0  0  0
  -22.2213  -26.7001   20.8131 C   0  0  0  0  0  0  0  0  0  0  0  0
  -26.0973  -14.8411   20.9274 C   0  0  0  0  0  0  0  0  0  0  0  0
  -24.8184  -11.9346   20.2645 C   0  0  0  0  0  0  0  0  0  0  0  0
  -21.1729  -20.2059   19.3952 C   0  0  0  0  0  0  0  0  0  0  0  0
  -22.0188  -10.0269   19.8528 C   0  0  0  0  0  0  0  0  0  0  0  0
  -28.8747  -22.7188   19.5533 C   0  0  0  0  0  0  0  0  0  0  0  0
  -30.8157  -13.9374   19.2017 C   0  0  0  0  0  0  0  0  0  0  0  0
  -24.5058  -14.5390   22.8593 C   0  0  0  0  0  0  0  0  0  0  0  0
  -26.6182  -20.1802   22.4962 C   0  0  0  0  0  0  0  0  0  0  0  0
  -23.2272  -13.8925   20.2724 C   0  0  0  0  0  0  0  0  0  0  0  0
  -27.8185  -20.4950   19.8035 C   0  0  0  0  0  0  0  0  0  0  0  0
  -29.3994  -13.6780   18.6946 C   0  0  0  0  0  0  0  0  0  0  0  0
  -27.3958  -21.4734   22.7465 C   0  0  0  0  0  0  0  0  0  0  0  0
  -29.2625  -25.9998   18.5678 C   0  0  0  0  0  0  0  0  0  0  0  0
  -28.5549  -14.9441   18.7986 C   0  0  0  0  0  0  0  0  0  0  0  0
  -28.0015  -26.6855   19.0930 C   0  0  0  0  0  0  0  0  0  0  0  0
  -28.6243  -21.6704   21.8518 C   0  0  0  0  0  0  0  0  0  0  0  0
  -29.8106  -25.0106   19.5901 C   0  0  0  0  0  0  0  0  0  0  0  0
  -27.5576  -24.6380   20.5356 C   0  0  0  0  0  0  0  0  0  0  0  0
  -28.4263  -15.4032   20.2561 C   0  0  1  0  0  0  0  0  0  0  0  0
  -25.2779  -13.8682   21.7273 C   0  0  1  0  0  0  0  0  0  0  0  0
  -26.9562  -25.6476   19.5373 C   0  0  1  0  0  0  0  0  0  0  0  0
  -26.0237  -20.6505   17.4721 C   0  0  0  0  0  0  0  0  0  0  0  0
  -21.2910   -7.6953   19.2771 C   0  0  0  0  0  0  0  0  0  0  0  0
  -25.4538  -12.4640   17.3275 C   0  0  0  0  0  0  0  0  0  0  0  0
  -23.8912  -10.6027   16.7261 C   0  0  0  0  0  0  0  0  0  0  0  0
  -25.9240  -10.1298   18.0923 C   0  0  0  0  0  0  0  0  0  0  0  0
  -20.6780   -9.6754   22.4677 C   0  0  0  0  0  0  0  0  0  0  0  0
  -19.7749  -20.0796   19.9845 C   0  0  0  0  0  0  0  0  0  0  0  0
  -19.0180  -18.8700   19.4471 C   0  0  0  0  0  0  0  0  0  0  0  0
  -19.7657  -17.5727   19.7187 C   0  0  0  0  0  0  0  0  0  1  0  0
  -23.9840  -11.3644   19.1431 C   0  0  1  0  0  0  0  0  0  0  0  0
  -21.6412   -8.6615   20.3982 C   0  0  2  0  0  0  0  0  0  0  0  0
  -24.8042  -11.1623   17.8378 C   0  0  0  0  0  0  0  0  0  0  0  0
  -25.8153  -27.4700   20.7453 N   0  0  0  0  0  0  0  0  0  0  0  0
  -25.7038  -26.3017   20.0905 N   0  0  0  0  0  0  0  0  0  0  0  0
  -24.4034  -13.1693   20.7833 N   0  0  0  0  0  0  0  0  0  0  0  0
  -28.3529  -21.7221   20.4042 N   0  0  0  0  0  0  0  0  0  0  0  0
  -28.7880  -24.0466   19.9960 N   0  0  0  0  0  0  0  0  0  0  0  0
  -24.1332  -24.6771   19.3800 N   0  0  0  0  0  0  0  0  0  0  0  0
  -21.5785  -27.7386   21.5006 N   0  0  0  0  0  0  0  0  0  0  0  0
  -22.1531  -20.1543   20.3995 N   0  0  0  0  0  0  0  0  0  0  0  0
  -27.4560  -14.5908   20.9582 N   0  0  0  0  0  0  0  0  0  0  0  0
  -23.3798  -10.1430   19.6643 N   0  0  0  0  0  0  0  0  0  0  0  0
  -20.4650   -8.7737   21.3064 N   0  3  0  0  0  0  0  0  0  0  0  0
  -21.5422  -25.7397   20.3773 O   0  0  0  0  0  0  0  0  0  0  0  0
  -25.5382  -15.7505   20.3257 O   0  0  0  0  0  0  0  0  0  0  0  0
  -25.7981  -11.3043   20.6702 O   0  0  0  0  0  0  0  0  0  0  0  0
  -21.3625  -20.3347   18.1903 O   0  0  0  0  0  0  0  0  0  0  0  0
  -21.1891  -10.9016   19.6141 O   0  0  0  0  0  0  0  0  0  0  0  0
  -29.3976  -22.4426   18.4662 O   0  0  0  0  0  0  0  0  0  0  0  0
  -23.3795  -32.4178   23.9289 O   0  0  0  0  0  0  0  0  0  0  0  0
  -19.9412  -17.4284   21.1213 O   0  0  0  0  0  0  0  0  0  1  0  0
  -25.7746  -37.0995   22.2708 F   0  0  0  0  0  0  0  0  0  0  0  0
  -21.8585  -34.5784   23.1158 F   0  0  0  0  0  0  0  0  0  0  0  0
  1  2  1  0  0  0  0
  1  5  2  0  0  0  0
  2  6  2  0  0  0  0
  3  8  2  0  0  0  0
  3 17  1  0  0  0  0
  4  9  1  0  0  0  0
  4 17  2  0  0  0  0
  5 19  1  0  0  0  0
  6 21  1  0  0  0  0
  7 10  2  0  0  0  0
  7 20  1  0  0  0  0
  8 27  1  0  0  0  0
  9 27  2  0  0  0  0
 10 28  1  0  0  0  0
 11 12  2  0  0  0  0
 11 29  1  0  0  0  0
 12 30  1  0  0  0  0
 13 22  1  0  0  0  0
 13 26  2  0  0  0  0
 14 23  1  0  0  0  0
 14 28  2  0  0  0  0
 15 25  2  0  0  0  0
 15 26  1  0  0  0  0
 16 30  2  0  0  0  0
 16 31  1  0  0  0  0
 17 32  1  0  0  0  0
 18 32  1  0  0  0  0
 18 33  2  0  0  0  0
 18 34  1  0  0  0  0
 19 21  2  0  0  0  0
 19 40  1  0  0  0  0
 20 23  2  0  0  0  0
 20 41  1  0  0  0  0
 21 53  1  0  0  0  0
 22 24  2  0  0  0  0
 22 42  1  0  0  0  0
 23 43  1  0  0  0  0
 24 25  1  0  0  0  0
 24 44  1  0  0  0  0
 25 56  1  0  0  0  0
 26 75  1  0  0  0  0
 27 85  1  0  0  0  0
 28 86  1  0  0  0  0
 29 31  2  0  0  0  0
 29 85  1  0  0  0  0
 30 87  1  0  0  0  0
 31 88  1  0  0  0  0
 32 68  2  0  0  0  0
 33 69  1  0  0  0  0
 33 73  1  0  0  0  0
 34 74  1  0  0  0  0
 34 79  2  0  0  0  0
 35 54  1  0  0  0  0
 35 76  1  0  0  0  0
 35 80  2  0  0  0  0
 36 65  1  0  0  0  0
 36 70  1  0  0  0  0
 36 81  2  0  0  0  0
 37 62  1  0  0  0  0
 37 75  1  0  0  0  0
 37 82  2  0  0  0  0
 38 66  1  0  0  0  0
 38 77  1  0  0  0  0
 38 83  2  0  0  0  0
 39 71  1  0  0  0  0
 39 72  1  0  0  0  0
 39 84  2  0  0  0  0
 40 45  1  0  0  0  0
 41 54  1  0  0  0  0
 42 46  1  0  0  0  0
 43 70  1  0  0  0  0
 44 71  1  0  0  0  0
 45 48  1  0  0  0  0
 46 50  1  0  0  0  0
 47 49  1  0  0  0  0
 47 51  1  0  0  0  0
 48 53  1  0  0  0  0
 49 55  1  0  0  0  0
 50 71  1  0  0  0  0
 51 72  1  0  0  0  0
 52 55  1  0  0  0  0
 52 72  1  0  0  0  0
 53 76  1  0  0  0  0
 54 70  1  0  0  0  0
 55 69  1  0  0  0  0
 57 66  1  0  0  0  0
 58 67  1  0  0  0  0
 59 67  1  0  0  0  0
 60 67  1  0  0  0  0
 61 78  1  0  0  0  0
 62 63  1  0  0  0  0
 63 64  1  0  0  0  0
 64 86  1  0  0  0  0
 65 67  1  0  0  0  0
 65 77  1  0  0  0  0
 66 78  1  0  0  0  0
 68 69  1  0  0  0  0
M  CHG  1  78   1
M  ISO  4  39 100  64 101  71 100  86 101
M  END
> <Batch ID>
0108

> <Smiles>
CNC(C)C(=O)NC(C(=O)N1Cc2cc([101O:1][101CH2:1]CCC(=O)Nc3cc(C)c4c(c3)CCC[100N:0]([100C:0](=O)N3CCCC(n5nc(-c6ccc(Oc7ccc(F)cc7F)cc6)c(C(N)=O)c5N)C3)C4)ccc2CC1C(=O)NC1CCCc2ccccc21)C(C)(C)C

> <Shape>
0.240

> <Color>
0.059

> <Negative vol penalty>
0.000

$$$$

  -OEChem-04052301203D

 87 96  0     1  0  0  0  0  0999 V2000
  -22.4591  -28.3927   13.6172 C   0  0  0  0  0  0  0  0  0  0  0  0
  -22.0813  -28.4736   14.9537 C   0  0  0  0  0  0  0  0  0  0  0  0
  -26.5465  -14.8851   21.4972 C   0  0  0  0  0  0  0  0  0  0  0  0
  -26.3594  -14.5331   19.1143 C   0  0  0  0  0  0  0  0  0  0  0  0
  -21.4581  -26.1981   23.9273 C   0  0  0  0  0  0  0  0  0  0  0  0
  -23.5466  -27.6021   13.2481 C   0  0  0  0  0  0  0  0  0  0  0  0
  -22.7902  -27.7631   15.9217 C   0  0  0  0  0  0  0  0  0  0  0  0
  -23.7747  -30.5422   20.0390 C   0  0  0  0  0  0  0  0  0  0  0  0
  -20.5844  -27.2842   23.9769 C   0  0  0  0  0  0  0  0  0  0  0  0
  -26.3731  -13.5180   21.7128 C   0  0  0  0  0  0  0  0  0  0  0  0
  -26.1861  -13.1659   19.3299 C   0  0  0  0  0  0  0  0  0  0  0  0
  -22.7329  -30.7260   20.9472 C   0  0  0  0  0  0  0  0  0  0  0  0
  -23.8120  -11.3135   21.7868 C   0  0  0  0  0  0  0  0  0  0  0  0
  -22.9342  -10.9239   22.7983 C   0  0  0  0  0  0  0  0  0  0  0  0
  -20.6160  -25.6206   21.7377 C   0  0  0  0  0  0  0  0  0  0  0  0
  -23.6570  -28.9936   22.3487 C   0  0  0  0  0  0  0  0  0  0  0  0
  -24.7397   -9.7793   23.9241 C   0  0  0  0  0  0  0  0  0  0  0  0
  -26.5395  -15.3927   20.1979 C   0  0  0  0  0  0  0  0  0  0  0  0
  -21.4739  -25.3662   22.8077 C   0  0  0  0  0  0  0  0  0  0  0  0
  -19.7422  -26.7068   21.7873 C   0  0  0  0  0  0  0  0  0  0  0  0
  -27.9333  -17.4877   19.7781 C   0  0  0  0  0  0  0  0  0  0  0  0
  -24.2751  -26.8892   14.2133 C   0  0  0  0  0  0  0  0  0  0  0  0
  -24.7611  -29.5735   20.2739 C   0  0  0  0  0  0  0  0  0  0  0  0
  -23.8876  -26.9612   15.5650 C   0  0  0  0  0  0  0  0  0  0  0  0
  -24.7116  -28.8012   21.4432 C   0  0  0  0  0  0  0  0  0  0  0  0
  -19.7265  -27.5386   22.9069 C   0  0  0  0  0  0  0  0  0  0  0  0
  -26.1930  -12.6584   20.6292 C   0  0  0  0  0  0  0  0  0  0  0  0
  -22.6724  -29.9497   22.1008 C   0  0  0  0  0  0  0  0  0  0  0  0
  -25.1537  -10.9360   21.8438 C   0  0  0  0  0  0  0  0  0  0  0  0
  -23.3980  -10.1568   23.8670 C   0  0  0  0  0  0  0  0  0  0  0  0
  -25.6175  -10.1689   22.9125 C   0  0  0  0  0  0  0  0  0  0  0  0
  -26.7179  -16.8050   19.9746 C   0  0  0  0  0  0  0  0  0  0  0  0
  -27.5665  -18.8008   19.6121 C   0  0  0  0  0  0  0  0  0  0  0  0
  -17.4395  -28.5549   22.9285 C   0  0  0  0  0  0  0  0  0  0  0  0
  -17.9399  -26.0777   20.2474 C   0  0  0  0  0  0  0  0  0  0  0  0
  -22.3862  -24.2346   22.7563 C   0  0  0  0  0  0  0  0  0  0  0  0
  -18.8594  -26.9407   20.6506 C   0  0  0  0  0  0  0  0  0  0  0  0
  -22.7793  -23.5958   21.6337 C   0  0  0  0  0  0  0  0  0  0  0  0
  -29.2739  -16.9802   19.7483 C   0  0  0  0  0  0  0  0  0  0  0  0
  -23.7224  -22.4649   21.7454 C   0  0  0  0  0  0  0  0  0  0  0  0
  -25.7287  -26.9465   18.7686 C   0  0  0  0  0  0  0  0  0  0  0  0
  -28.0435  -26.9667   21.0410 C   0  0  0  0  0  0  0  0  0  0  0  0
  -29.0407  -27.9533   24.1521 C   0  0  0  0  0  0  0  0  0  0  0  0
  -25.4141  -26.0104   13.7603 C   0  0  0  0  0  0  0  0  0  0  0  0
  -25.8930  -29.4060   19.2977 C   0  0  0  0  0  0  0  0  0  0  0  0
  -25.7571  -27.7619   21.7520 C   0  0  0  0  0  0  0  0  0  0  0  0
  -16.8708  -29.8911   23.3308 C   0  0  0  0  0  0  0  0  0  0  0  0
  -26.3435  -25.5852   14.8942 C   0  0  0  0  0  0  0  0  0  0  0  0
  -18.0193  -30.8528   23.1125 C   0  0  0  0  0  0  0  0  0  0  0  0
  -23.4194  -21.1403   18.3417 C   0  0  0  0  0  0  0  0  0  0  0  0
  -25.5352  -25.1037   16.0949 C   0  0  0  0  0  0  0  0  0  0  0  0
  -24.3284  -19.9167   18.4208 C   0  0  0  0  0  0  0  0  0  0  0  0
  -22.6977  -21.4028   19.6626 C   0  0  0  0  0  0  0  0  0  0  0  0
  -24.5261  -20.2899   20.9111 C   0  0  0  0  0  0  0  0  0  0  0  0
  -24.6468  -26.2248   16.6474 C   0  0  1  0  0  0  0  0  0  0  0  0
  -26.5594  -28.0364   19.3848 C   0  0  1  0  0  0  0  0  0  0  0  0
  -25.2982  -20.0348   19.6072 C   0  0  1  0  0  0  0  0  0  0  0  0
  -19.2752  -30.0080   23.3292 C   0  0  2  0  0  0  0  0  0  0  0  0
  -30.9707  -27.7863   25.7473 C   0  0  0  0  0  0  0  0  0  0  0  0
  -27.2483  -24.0953   21.6987 C   0  0  0  0  0  0  0  0  0  0  0  0
  -28.5034  -24.3151   23.8538 C   0  0  0  0  0  0  0  0  0  0  0  0
  -29.7132  -24.5173   21.6817 C   0  0  0  0  0  0  0  0  0  0  0  0
  -29.4268  -30.8874   24.1739 C   0  0  0  0  0  0  0  0  0  0  0  0
  -20.4052  -30.5695   22.4640 C   0  0  0  0  0  0  0  0  0  1  0  0
  -28.1850  -26.3880   22.4281 C   0  0  1  0  0  0  0  0  0  0  0  0
  -30.3230  -28.6030   24.6400 C   0  0  2  0  0  0  0  0  0  0  0  0
  -28.3916  -24.8471   22.4091 C   0  0  0  0  0  0  0  0  0  0  0  0
  -25.6583  -17.6173   19.9373 N   0  0  0  0  0  0  0  0  0  0  0  0
  -26.2068  -18.8240   19.7155 N   0  0  0  0  0  0  0  0  0  0  0  0
  -18.8439  -28.6567   22.9874 N   0  0  0  0  0  0  0  0  0  0  0  0
  -23.6404  -21.4533   20.7902 N   0  0  0  0  0  0  0  0  0  0  0  0
  -26.8404  -27.6313   20.7636 N   0  0  0  0  0  0  0  0  0  0  0  0
  -28.2777  -19.9264   19.3892 N   0  0  0  0  0  0  0  0  0  0  0  0
  -29.4723  -15.6056   19.9366 N   0  0  0  0  0  0  0  0  0  0  0  0
  -25.4326  -27.1509   17.4344 N   0  0  0  0  0  0  0  0  0  0  0  0
  -29.2658  -27.1279   23.0707 N   0  0  0  0  0  0  0  0  0  0  0  0
  -30.0439  -29.9693   25.1656 N   0  3  0  0  0  0  0  0  0  0  0  0
  -16.7354  -27.5795   22.7071 O   0  0  0  0  0  0  0  0  0  0  0  0
  -30.2677  -17.7261   19.5767 O   0  0  0  0  0  0  0  0  0  0  0  0
  -24.5232  -22.4827   22.6819 O   0  0  0  0  0  0  0  0  0  0  0  0
  -25.3833  -25.9901   19.4525 O   0  0  0  0  0  0  0  0  0  0  0  0
  -28.9692  -26.8403   20.2356 O   0  0  0  0  0  0  0  0  0  0  0  0
  -27.9492  -28.1546   24.6800 O   0  0  0  0  0  0  0  0  0  0  0  0
  -26.0241  -11.3243   20.8392 O   0  0  0  0  0  0  0  0  0  0  0  0
  -21.6562  -30.1266   22.9885 O   0  0  0  0  0  0  0  0  0  1  0  0
  -22.5553   -9.7840   24.8391 F   0  0  0  0  0  0  0  0  0  0  0  0
  -26.9055   -9.8041   22.9734 F   0  0  0  0  0  0  0  0  0  0  0  0
  1  2  1  0  0  0  0
  1  6  2  0  0  0  0
  2  7  2  0  0  0  0
  3 10  2  0  0  0  0
  3 18  1  0  0  0  0
  4 11  1  0  0  0  0
  4 18  2  0  0  0  0
  5  9  2  0  0  0  0
  5 19  1  0  0  0  0
  6 22  1  0  0  0  0
  7 24  1  0  0  0  0
  8 12  2  0  0  0  0
  8 23  1  0  0  0  0
  9 26  1  0  0  0  0
 10 27  1  0  0  0  0
 11 27  2  0  0  0  0
 12 28  1  0  0  0  0
 13 14  2  0  0  0  0
 13 29  1  0  0  0  0
 14 30  1  0  0  0  0
 15 19  2  0  0  0  0
 15 20  1  0  0  0  0
 16 25  1  0  0  0  0
 16 28  2  0  0  0  0
 17 30  2  0  0  0  0
 17 31  1  0  0  0  0
 18 32  1  0  0  0  0
 19 36  1  0  0  0  0
 20 26  2  0  0  0  0
 20 37  1  0  0  0  0
 21 32  1  0  0  0  0
 21 33  2  0  0  0  0
 21 39  1  0  0  0  0
 22 24  2  0  0  0  0
 22 44  1  0  0  0  0
 23 25  2  0  0  0  0
 23 45  1  0  0  0  0
 24 55  1  0  0  0  0
 25 46  1  0  0  0  0
 26 70  1  0  0  0  0
 27 84  1  0  0  0  0
 28 85  1  0  0  0  0
 29 31  2  0  0  0  0
 29 84  1  0  0  0  0
 30 86  1  0  0  0  0
 31 87  1  0  0  0  0
 32 68  2  0  0  0  0
 33 69  1  0  0  0  0
 33 73  1  0  0  0  0
 34 47  1  0  0  0  0
 34 70  1  0  0  0  0
 34 78  2  0  0  0  0
 35 37  2  0  0  0  0
 36 38  2  0  0  0  0
 38 40  1  0  0  0  0
 39 74  1  0  0  0  0
 39 79  2  0  0  0  0
 40 71  1  0  0  0  0
 40 80  2  0  0  0  0
 41 56  1  0  0  0  0
 41 75  1  0  0  0  0
 41 81  2  0  0  0  0
 42 65  1  0  0  0  0
 42 72  1  0  0  0  0
 42 82  2  0  0  0  0
 43 66  1  0  0  0  0
 43 76  1  0  0  0  0
 43 83  2  0  0  0  0
 44 48  1  0  0  0  0
 45 56  1  0  0  0  0
 46 72  1  0  0  0  0
 47 49  1  0  0  0  0
 48 51  1  0  0  0  0
 49 58  1  0  0  0  0
 50 52  1  0  0  0  0
 50 53  1  0  0  0  0
 51 55  1  0  0  0  0
 52 57  1  0  0  0  0
 53 71  1  0  0  0  0
 54 57  1  0  0  0  0
 54 71  1  0  0  0  0
 55 75  1  0  0  0  0
 56 72  1  0  0  0  0
 57 69  1  0  0  0  0
 58 64  1  0  0  0  0
 58 70  1  0  0  0  0
 59 66  1  0  0  0  0
 60 67  1  0  0  0  0
 61 67  1  0  0  0  0
 62 67  1  0  0  0  0
 63 77  1  0  0  0  0
 64 85  1  0  0  0  0
 65 67  1  0  0  0  0
 65 76  1  0  0  0  0
 66 77  1  0  0  0  0
 68 69  1  0  0  0  0
M  CHG  1  77   1
M  ISO  4  38 100  40 100  64 101  85 101
M  END
> <Batch ID>
0108

> <Smiles>
C=Cc1cc(C=[100CH:0][100C:0](=O)N2CCCC(n3nc(-c4ccc(Oc5ccc(F)cc5F)cc4)c(C(N)=O)c3N)C2)ccc1N1C(=O)CCC1[101CH2:1][101O:1]c1ccc2c(c1)CN(C(=O)C(NC(=O)C(C)NC)C(C)(C)C)C(C(=O)NC1CCCc3ccccc31)C2

> <Shape>
0.224

> <Color>
0.088

> <Negative vol penalty>
0.000

$$$$

  -OEChem-04052301203D

 88 97  0     1  0  0  0  0  0999 V2000
  -23.6787  -33.7552   13.0390 C   0  0  0  0  0  0  0  0  0  0  0  0
  -23.8290  -32.4874   13.5917 C   0  0  0  0  0  0  0  0  0  0  0  0
  -23.0605   -9.9077   19.9344 C   0  0  0  0  0  0  0  0  0  0  0  0
  -23.8402   -9.8786   22.2209 C   0  0  0  0  0  0  0  0  0  0  0  0
  -24.8019  -34.5411   12.7846 C   0  0  0  0  0  0  0  0  0  0  0  0
  -25.1027  -32.0043   13.8893 C   0  0  0  0  0  0  0  0  0  0  0  0
  -26.6638  -28.3792   18.5720 C   0  0  0  0  0  0  0  0  0  0  0  0
  -31.5936  -18.3665   20.0787 C   0  0  0  0  0  0  0  0  0  0  0  0
  -31.3399  -19.4316   19.2146 C   0  0  0  0  0  0  0  0  0  0  0  0
  -22.3060   -8.7600   20.1770 C   0  0  0  0  0  0  0  0  0  0  0  0
  -23.0857   -8.7308   22.4636 C   0  0  0  0  0  0  0  0  0  0  0  0
  -26.8726  -27.0038   18.6644 C   0  0  0  0  0  0  0  0  0  0  0  0
  -19.8542   -7.9615   23.0849 C   0  0  0  0  0  0  0  0  0  0  0  0
  -19.1070   -7.9158   24.2618 C   0  0  0  0  0  0  0  0  0  0  0  0
  -29.2428  -27.3507   18.3797 C   0  0  0  0  0  0  0  0  0  0  0  0
  -29.3911  -18.6208   21.0388 C   0  0  0  0  0  0  0  0  0  0  0  0
  -20.3330   -5.9559   24.9640 C   0  0  0  0  0  0  0  0  0  0  0  0
  -23.8277  -10.4671   20.9563 C   0  0  0  0  0  0  0  0  0  0  0  0
  -24.1966  -12.9895   20.8636 C   0  0  0  0  0  0  0  0  0  0  0  0
  -26.0894  -34.0712   13.0883 C   0  0  0  0  0  0  0  0  0  0  0  0
  -27.7435  -29.2512   18.3715 C   0  0  0  0  0  0  0  0  0  0  0  0
  -26.2443  -32.7841   13.6375 C   0  0  0  0  0  0  0  0  0  0  0  0
  -29.0453  -28.7369   18.2876 C   0  0  0  0  0  0  0  0  0  0  0  0
  -30.6192  -17.9610   20.9908 C   0  0  0  0  0  0  0  0  0  0  0  0
  -30.1119  -20.0914   19.2626 C   0  0  0  0  0  0  0  0  0  0  0  0
  -22.3186   -8.1715   21.4416 C   0  0  0  0  0  0  0  0  0  0  0  0
  -28.1619  -26.4891   18.5653 C   0  0  0  0  0  0  0  0  0  0  0  0
  -20.8407   -7.0044   22.8474 C   0  0  0  0  0  0  0  0  0  0  0  0
  -29.1375  -19.6860   20.1747 C   0  0  0  0  0  0  0  0  0  0  0  0
  -19.3464   -6.9130   25.2014 C   0  0  0  0  0  0  0  0  0  0  0  0
  -21.0802   -6.0017   23.7870 C   0  0  0  0  0  0  0  0  0  0  0  0
  -24.6077  -11.6524   20.7062 C   0  0  0  0  0  0  0  0  0  0  0  0
  -25.2939  -13.7312   20.4998 C   0  0  0  0  0  0  0  0  0  0  0  0
  -29.1938  -23.1989   17.5678 C   0  0  0  0  0  0  0  0  0  0  0  0
  -28.9444  -24.5125   17.5899 C   0  0  0  0  0  0  0  0  0  1  0  0
  -22.9356  -13.5143   21.2999 C   0  0  0  0  0  0  0  0  0  0  0  0
  -28.5766  -31.3025   16.0907 C   0  0  0  0  0  0  0  0  0  0  0  0
  -30.9482  -32.0526   18.1728 C   0  0  0  0  0  0  0  0  0  0  0  0
  -32.9107  -31.0960   20.7958 C   0  0  0  0  0  0  0  0  0  0  0  0
  -30.7901  -14.6872   20.6521 C   0  0  0  0  0  0  0  0  0  0  0  0
  -27.2767  -34.9382   12.7516 C   0  0  0  0  0  0  0  0  0  0  0  0
  -27.5045  -30.7345   18.3007 C   0  0  0  0  0  0  0  0  0  0  0  0
  -30.2406  -29.6322   18.0926 C   0  0  0  0  0  0  0  0  0  0  0  0
  -29.8216  -22.4613   16.4277 C   0  0  0  0  0  0  0  0  0  0  0  0
  -28.9959  -22.2665   18.7250 C   0  0  0  0  0  0  0  0  0  0  0  0
  -28.5656  -34.5012   13.4432 C   0  0  0  0  0  0  0  0  0  0  0  0
  -29.6053  -12.3445   18.2470 C   0  0  0  0  0  0  0  0  0  0  0  0
  -28.7542  -32.9928   13.3171 C   0  0  0  0  0  0  0  0  0  0  0  0
  -28.1685  -12.0615   18.6890 C   0  0  0  0  0  0  0  0  0  0  0  0
  -30.5626  -21.3244   17.1257 C   0  0  0  0  0  0  0  0  0  0  0  0
  -30.5352  -12.5406   19.4424 C   0  0  0  0  0  0  0  0  0  0  0  0
  -28.6538  -13.2759   20.8543 C   0  0  0  0  0  0  0  0  0  0  0  0
  -27.6077  -32.2347   13.9972 C   0  0  1  0  0  0  0  0  0  0  0  0
  -28.6204  -31.4859   17.5814 C   0  0  1  0  0  0  0  0  0  0  0  0
  -27.6676  -13.1263   19.6833 C   0  0  2  0  0  0  0  0  0  0  0  0
  -24.2613  -19.6305   19.8425 C   0  0  0  0  0  0  0  0  0  0  0  0
  -34.7845  -31.9093   22.2534 C   0  0  0  0  0  0  0  0  0  0  0  0
  -32.9273  -31.5480   15.9059 C   0  0  0  0  0  0  0  0  0  0  0  0
  -34.7519  -31.4382   17.6168 C   0  0  0  0  0  0  0  0  0  0  0  0
  -33.4477  -33.5439   17.3202 C   0  0  0  0  0  0  0  0  0  0  0  0
  -31.2526  -30.8942   23.2390 C   0  0  0  0  0  0  0  0  0  0  0  0
  -30.8906  -16.8218   21.9141 C   0  0  0  0  0  0  0  0  0  0  0  0
  -25.5404  -20.4123   20.0827 C   0  0  0  0  0  0  0  0  0  0  0  0
  -26.7721  -19.5251   19.9876 C   0  0  0  0  0  0  0  0  0  0  0  0
  -32.3500  -31.5509   18.4224 C   0  0  1  0  0  0  0  0  0  0  0  0
  -33.2765  -31.8007   22.0897 C   0  0  2  0  0  0  0  0  0  0  0  0
  -33.3467  -32.0029   17.3180 C   0  0  0  0  0  0  0  0  0  0  0  0
  -25.8678  -11.5476   20.2757 N   0  0  0  0  0  0  0  0  0  0  0  0
  -26.2579  -12.8284   20.1594 N   0  0  0  0  0  0  0  0  0  0  0  0
  -29.8741  -21.1449   18.4017 N   0  0  3  0  0  0  0  0  0  0  0  0
  -29.9546  -31.0747   18.0231 N   0  0  0  0  0  0  0  0  0  0  0  0
  -30.0039  -13.5644   20.3454 N   0  0  0  0  0  0  0  0  0  0  0  0
  -25.5185  -15.0611   20.4409 N   0  0  0  0  0  0  0  0  0  0  0  0
  -21.9166  -12.6123   21.6351 N   0  0  0  0  0  0  0  0  0  0  0  0
  -27.7883  -32.2274   15.4330 N   0  0  0  0  0  0  0  0  0  0  0  0
  -32.7077  -31.9908   19.7666 N   0  0  0  0  0  0  0  0  0  0  0  0
  -30.2086  -15.6124   21.5105 N   0  0  0  0  0  0  0  0  0  0  0  0
  -32.7294  -31.0550   23.2582 N   0  3  0  0  0  0  0  0  0  0  0  0
  -22.7136  -14.7466   21.3740 O   0  0  0  0  0  0  0  0  0  0  0  0
  -29.2120  -30.3902   15.5753 O   0  0  0  0  0  0  0  0  0  0  0  0
  -30.7412  -33.2675   18.1198 O   0  0  0  0  0  0  0  0  0  0  0  0
  -32.8182  -29.8737   20.7061 O   0  0  0  0  0  0  0  0  0  0  0  0
  -31.9239  -14.8556   20.1907 O   0  0  0  0  0  0  0  0  0  0  0  0
  -21.5822   -7.0516   21.6788 O   0  0  0  0  0  0  0  0  0  0  0  0
  -28.3684  -25.1470   18.6545 O   0  0  0  0  0  0  0  0  0  1  0  0
  -27.9312  -20.3174   20.2367 O   0  0  0  0  0  0  0  0  0  0  0  0
  -18.6299   -6.8702   26.3323 F   0  0  0  0  0  0  0  0  0  0  0  0
  -22.0275   -5.0801   23.5650 F   0  0  0  0  0  0  0  0  0  0  0  0
  1  2  1  0  0  0  0
  1  5  2  0  0  0  0
  2  6  2  0  0  0  0
  3 10  2  0  0  0  0
  3 18  1  0  0  0  0
  4 11  1  0  0  0  0
  4 18  2  0  0  0  0
  5 20  1  0  0  0  0
  6 22  1  0  0  0  0
  7 12  2  0  0  0  0
  7 21  1  0  0  0  0
  8  9  2  0  0  0  0
  8 24  1  0  0  0  0
  9 25  1  0  0  0  0
 10 26  1  0  0  0  0
 11 26  2  0  0  0  0
 12 27  1  0  0  0  0
 13 14  2  0  0  0  0
 13 28  1  0  0  0  0
 14 30  1  0  0  0  0
 15 23  1  0  0  0  0
 15 27  2  0  0  0  0
 16 24  2  0  0  0  0
 16 29  1  0  0  0  0
 17 30  2  0  0  0  0
 17 31  1  0  0  0  0
 18 32  1  0  0  0  0
 19 32  1  0  0  0  0
 19 33  2  0  0  0  0
 19 36  1  0  0  0  0
 20 22  2  0  0  0  0
 20 41  1  0  0  0  0
 21 23  2  0  0  0  0
 21 42  1  0  0  0  0
 22 53  1  0  0  0  0
 23 43  1  0  0  0  0
 24 62  1  0  0  0  0
 25 29  2  0  0  0  0
 25 70  1  0  0  0  0
 26 84  1  0  0  0  0
 27 85  1  0  0  0  0
 28 31  2  0  0  0  0
 28 84  1  0  0  0  0
 29 86  1  0  0  0  0
 30 87  1  0  0  0  0
 31 88  1  0  0  0  0
 32 68  2  0  0  0  0
 33 69  1  0  0  0  0
 33 73  1  0  0  0  0
 34 35  2  0  0  0  0
 34 44  1  0  0  0  0
 34 45  1  0  0  0  0
 35 85  1  0  0  0  0
 36 74  1  0  0  0  0
 36 79  2  0  0  0  0
 37 54  1  0  0  0  0
 37 75  1  0  0  0  0
 37 80  2  0  0  0  0
 38 65  1  0  0  0  0
 38 71  1  0  0  0  0
 38 81  2  0  0  0  0
 39 66  1  0  0  0  0
 39 76  1  0  0  0  0
 39 82  2  0  0  0  0
 40 72  1  0  0  0  0
 40 77  1  0  0  0  0
 40 83  2  0  0  0  0
 41 46  1  0  0  0  0
 42 54  1  0  0  0  0
 43 71  1  0  0  0  0
 44 50  1  0  0  0  0
 45 70  1  0  0  0  0
 46 48  1  0  0  0  0
 47 49  1  0  0  0  0
 47 51  1  0  0  0  0
 48 53  1  0  0  0  0
 49 55  1  0  0  0  0
 50 70  1  0  0  0  0
 51 72  1  0  0  0  0
 52 55  1  0  0  0  0
 52 72  1  0  0  0  0
 53 75  1  0  0  0  0
 54 71  1  0  0  0  0
 55 69  1  0  0  0  0
 56 63  1  0  0  0  0
 57 66  1  0  0  0  0
 58 67  1  0  0  0  0
 59 67  1  0  0  0  0
 60 67  1  0  0  0  0
 61 78  1  0  0  0  0
 62 77  1  0  0  0  0
 63 64  1  0  0  0  0
 64 86  1  0  0  0  0
 65 67  1  0  0  0  0
 65 76  1  0  0  0  0
 66 78  1  0  0  0  0
 68 69  1  0  0  0  0
M  CHG  1  78   1
M  ISO  4  35 101  40 100  77 100  85 101
M  END
> <Batch ID>
0108

> <Smiles>
CCCOc1cc(C[100NH:0][100C:0](=O)N2CCCC(n3nc(-c4ccc(Oc5ccc(F)cc5F)cc4)c(C(N)=O)c3N)C2)ccc1N1CCC(=[101CH:1][101O:1]c2ccc3c(c2)CN(C(=O)C(NC(=O)C(C)NC)C(C)(C)C)C(C(=O)NC2CCCc4ccccc42)C3)C1

> <Shape>
0.231

> <Color>
0.190

> <Negative vol penalty>
0.000

$$$$

  -OEChem-04052301203D

 87 96  0     1  0  0  0  0  0999 V2000
  -21.0542  -22.9080   17.1933 C   0  0  0  0  0  0  0  0  0  0  0  0
  -22.1870  -22.3443   17.7717 C   0  0  0  0  0  0  0  0  0  0  0  0
  -21.4441  -26.5008   23.5604 C   0  0  0  0  0  0  0  0  0  0  0  0
  -21.6433  -26.3291   21.1588 C   0  0  0  0  0  0  0  0  0  0  0  0
  -19.7862  -22.5104   17.6151 C   0  0  0  0  0  0  0  0  0  0  0  0
  -22.0523  -21.3834   18.7732 C   0  0  0  0  0  0  0  0  0  0  0  0
  -25.1557  -17.4372   18.1091 C   0  0  0  0  0  0  0  0  0  0  0  0
  -20.1416  -26.9792   23.4182 C   0  0  0  0  0  0  0  0  0  0  0  0
  -20.3408  -26.8074   21.0165 C   0  0  0  0  0  0  0  0  0  0  0  0
  -26.4922  -17.6112   18.4658 C   0  0  0  0  0  0  0  0  0  0  0  0
  -18.6332  -29.9008   22.6349 C   0  0  0  0  0  0  0  0  0  0  0  0
  -18.2612  -31.0038   23.4033 C   0  0  0  0  0  0  0  0  0  0  0  0
  -29.6140  -21.5105   21.2139 C   0  0  0  0  0  0  0  0  0  0  0  0
  -30.3681  -23.5658   22.2356 C   0  0  0  0  0  0  0  0  0  0  0  0
  -26.0799  -16.4638   20.5473 C   0  0  0  0  0  0  0  0  0  0  0  0
  -30.4199  -21.5025   23.4915 C   0  0  0  0  0  0  0  0  0  0  0  0
  -16.5184  -29.6921   24.4424 C   0  0  0  0  0  0  0  0  0  0  0  0
  -22.1950  -26.1758   22.4307 C   0  0  0  0  0  0  0  0  0  0  0  0
  -29.8481  -22.8833   21.1359 C   0  0  0  0  0  0  0  0  0  0  0  0
  -23.9507  -24.5204   23.2582 C   0  0  0  0  0  0  0  0  0  0  0  0
  -19.6359  -21.5371   18.6155 C   0  0  0  0  0  0  0  0  0  0  0  0
  -24.2672  -16.7837   18.9751 C   0  0  0  0  0  0  0  0  0  0  0  0
  -20.7811  -20.9734   19.2098 C   0  0  0  0  0  0  0  0  0  0  0  0
  -24.7332  -16.2805   20.1981 C   0  0  0  0  0  0  0  0  0  0  0  0
  -29.8999  -20.8200   22.3918 C   0  0  0  0  0  0  0  0  0  0  0  0
  -30.6540  -22.8754   23.4135 C   0  0  0  0  0  0  0  0  0  0  0  0
  -19.5899  -27.1325   22.1462 C   0  0  0  0  0  0  0  0  0  0  0  0
  -26.9538  -17.1270   19.6862 C   0  0  0  0  0  0  0  0  0  0  0  0
  -17.9478  -28.6934   22.7701 C   0  0  0  0  0  0  0  0  0  0  0  0
  -17.2038  -30.8995   24.3071 C   0  0  0  0  0  0  0  0  0  0  0  0
  -16.8904  -28.5891   23.6739 C   0  0  0  0  0  0  0  0  0  0  0  0
  -23.5407  -25.6821   22.5770 C   0  0  0  0  0  0  0  0  0  0  0  0
  -25.3155  -24.4968   23.1061 C   0  0  0  0  0  0  0  0  0  0  0  0
  -29.5496  -23.6031   19.9077 C   0  0  0  0  0  0  0  0  0  0  0  0
  -23.1678  -23.5494   23.9653 C   0  0  0  0  0  0  0  0  0  0  0  0
  -29.7861  -25.0605   19.7914 C   0  0  0  0  0  0  0  0  0  0  0  0
  -21.6109  -17.6157   20.5099 C   0  0  0  0  0  0  0  0  0  0  0  0
  -21.5504  -14.4716   21.3055 C   0  0  0  0  0  0  0  0  0  0  0  0
  -23.2793  -11.5648   21.7621 C   0  0  0  0  0  0  0  0  0  0  0  0
  -18.2450  -21.1738   19.0717 C   0  0  0  0  0  0  0  0  0  0  0  0
  -22.8347  -16.5805   18.5639 C   0  0  0  0  0  0  0  0  0  0  0  0
  -23.8244  -15.5539   21.1545 C   0  0  0  0  0  0  0  0  0  0  0  0
  -18.1868  -19.8773   19.8755 C   0  0  0  0  0  0  0  0  0  0  0  0
  -32.4474  -16.6728   20.4817 C   0  0  0  0  0  0  0  0  0  0  0  0
  -28.5090  -28.0087   21.3830 C   0  0  0  0  0  0  0  0  0  0  0  0
  -32.6917  -18.1737   20.4882 C   0  0  0  0  0  0  0  0  0  0  0  0
  -19.2879  -19.8536   20.9309 C   0  0  0  0  0  0  0  0  0  0  0  0
  -27.1204  -27.5809   21.8567 C   0  0  0  0  0  0  0  0  0  0  0  0
  -30.9592  -16.3643   20.3909 C   0  0  0  0  0  0  0  0  0  0  0  0
  -28.8818  -27.3354   20.0662 C   0  0  0  0  0  0  0  0  0  0  0  0
  -27.4080  -25.4090   20.5817 C   0  0  0  0  0  0  0  0  0  0  0  0
  -31.9111  -18.8587   21.5970 C   0  0  0  0  0  0  0  0  0  0  0  0
  -20.6759  -19.9101   20.2815 C   0  0  1  0  0  0  0  0  0  0  0  0
  -21.8997  -16.3534   19.7479 C   0  0  1  0  0  0  0  0  0  0  0  0
  -27.0079  -26.0474   21.9233 C   0  0  2  0  0  0  0  0  0  0  0  0
  -30.1519  -17.0504   21.5002 C   0  0  2  0  0  0  0  0  0  0  0  0
  -22.9636   -9.1724   22.4506 C   0  0  0  0  0  0  0  0  0  0  0  0
  -21.3307  -15.3423   24.2216 C   0  0  0  0  0  0  0  0  0  0  0  0
  -21.9709  -13.0166   24.8917 C   0  0  0  0  0  0  0  0  0  0  0  0
  -19.8741  -13.4073   23.5981 C   0  0  0  0  0  0  0  0  0  0  0  0
  -24.2260  -10.5647   19.1425 C   0  0  0  0  0  0  0  0  0  0  0  0
  -29.6479  -19.3434   22.4754 C   0  0  0  0  0  0  0  0  0  0  0  0
  -28.6627  -16.7748   21.3023 C   0  0  0  0  0  0  0  0  0  1  0  0
  -22.1083  -13.6446   22.4386 C   0  0  1  0  0  0  0  0  0  0  0  0
  -23.0123  -10.1485   21.2855 C   0  0  2  0  0  0  0  0  0  0  0  0
  -21.3379  -13.8681   23.7706 C   0  0  0  0  0  0  0  0  0  0  0  0
  -24.5624  -26.3484   22.0327 N   0  0  0  0  0  0  0  0  0  0  0  0
  -29.0638  -23.0288   18.8406 N   0  0  0  0  0  0  0  0  0  0  0  0
  -25.6280  -25.6029   22.3719 N   0  0  0  0  0  0  0  0  0  0  0  0
  -28.7294  -25.8844   20.1528 N   0  0  0  0  0  0  0  0  0  0  0  0
  -22.4310  -15.3858   20.7101 N   0  0  0  0  0  0  0  0  0  0  0  0
  -31.1796  -23.5655   24.5256 N   0  0  0  0  0  0  0  0  0  0  0  0
  -26.2669  -23.6380   23.5301 N   0  0  0  0  0  0  0  0  0  0  0  0
  -22.6762  -22.4440   23.2577 N   0  0  0  0  0  0  0  0  0  0  0  0
  -21.0369  -18.6146   19.7469 N   0  0  0  0  0  0  0  0  0  0  0  0
  -22.1085  -12.2619   21.9732 N   0  0  0  0  0  0  0  0  0  0  0  0
  -30.4329  -18.5507   21.4581 N   0  3  1  0  0  0  0  0  0  0  0  0
  -24.0827   -9.7073   20.3472 N   0  3  0  0  0  0  0  0  0  0  0  0
  -22.8981  -23.6673   25.1847 O   0  0  0  0  0  0  0  0  0  0  0  0
  -30.8949  -25.3841   19.3861 O   0  0  0  0  0  0  0  0  0  0  0  0
  -21.8870  -17.6783   21.7022 O   0  0  0  0  0  0  0  0  0  0  0  0
  -20.3787  -14.3072   20.9568 O   0  0  0  0  0  0  0  0  0  0  0  0
  -24.4130  -12.0072   21.9339 O   0  0  0  0  0  0  0  0  0  0  0  0
  -18.3189  -27.5990   22.0071 O   0  0  0  0  0  0  0  0  0  0  0  0
  -28.2578  -17.2961   20.0371 O   0  0  0  0  0  0  0  0  0  1  0  0
  -16.8476  -31.9584   25.0461 F   0  0  0  0  0  0  0  0  0  0  0  0
  -16.2290  -27.4315   23.8090 F   0  0  0  0  0  0  0  0  0  0  0  0
  1  2  1  0  0  0  0
  1  5  2  0  0  0  0
  2  6  2  0  0  0  0
  3  8  2  0  0  0  0
  3 18  1  0  0  0  0
  4  9  1  0  0  0  0
  4 18  2  0  0  0  0
  5 21  1  0  0  0  0
  6 23  1  0  0  0  0
  7 10  2  0  0  0  0
  7 22  1  0  0  0  0
  8 27  1  0  0  0  0
  9 27  2  0  0  0  0
 10 28  1  0  0  0  0
 11 12  2  0  0  0  0
 11 29  1  0  0  0  0
 12 30  1  0  0  0  0
 13 19  1  0  0  0  0
 13 25  2  0  0  0  0
 14 19  2  0  0  0  0
 14 26  1  0  0  0  0
 15 24  1  0  0  0  0
 15 28  2  0  0  0  0
 16 25  1  0  0  0  0
 16 26  2  0  0  0  0
 17 30  2  0  0  0  0
 17 31  1  0  0  0  0
 18 32  1  0  0  0  0
 19 34  1  0  0  0  0
 20 32  1  0  0  0  0
 20 33  2  0  0  0  0
 20 35  1  0  0  0  0
 21 23  2  0  0  0  0
 21 40  1  0  0  0  0
 22 24  2  0  0  0  0
 22 41  1  0  0  0  0
 23 53  1  0  0  0  0
 24 42  1  0  0  0  0
 25 62  1  0  0  0  0
 26 72  1  0  0  0  0
 27 84  1  0  0  0  0
 28 85  1  0  0  0  0
 29 31  2  0  0  0  0
 29 84  1  0  0  0  0
 30 86  1  0  0  0  0
 31 87  1  0  0  0  0
 32 67  2  0  0  0  0
 33 69  1  0  0  0  0
 33 73  1  0  0  0  0
 34 36  1  0  0  0  0
 34 68  2  0  0  0  0
 35 74  1  0  0  0  0
 35 79  2  0  0  0  0
 36 70  1  0  0  0  0
 36 80  2  0  0  0  0
 37 54  1  0  0  0  0
 37 75  1  0  0  0  0
 37 81  2  0  0  0  0
 38 64  1  0  0  0  0
 38 71  1  0  0  0  0
 38 82  2  0  0  0  0
 39 65  1  0  0  0  0
 39 76  1  0  0  0  0
 39 83  2  0  0  0  0
 40 43  1  0  0  0  0
 41 54  1  0  0  0  0
 42 71  1  0  0  0  0
 43 47  1  0  0  0  0
 44 46  1  0  0  0  0
 44 49  1  0  0  0  0
 45 48  1  0  0  0  0
 45 50  1  0  0  0  0
 46 52  1  0  0  0  0
 47 53  1  0  0  0  0
 48 55  1  0  0  0  0
 49 56  1  0  0  0  0
 50 70  1  0  0  0  0
 51 55  1  0  0  0  0
 51 70  1  0  0  0  0
 52 77  1  0  0  0  0
 53 75  1  0  0  0  0
 54 71  1  0  0  0  0
 55 69  1  0  0  0  0
 56 63  1  0  0  0  0
 56 77  1  0  0  0  0
 57 65  1  0  0  0  0
 58 66  1  0  0  0  0
 59 66  1  0  0  0  0
 60 66  1  0  0  0  0
 61 78  1  0  0  0  0
 62 77  1  0  0  0  0
 63 85  1  0  0  0  0
 64 66  1  0  0  0  0
 64 76  1  0  0  0  0
 65 78  1  0  0  0  0
 67 69  1  0  0  0  0
M  CHG  2  77   1  78   1
M  ISO  4  34 100  36 100  63 101  85 101
M  END
> <Batch ID>
0108

> <Smiles>
CNC(C)C(=O)NC(C(=O)N1Cc2cc([101O:1][101CH2:1]C3CCCCN3Cc3cc(N)cc([100C:0](=N)[100C:0](=O)N4CCCC(n5nc(-c6ccc(Oc7ccc(F)cc7F)cc6)c(C(N)=O)c5N)C4)c3)ccc2CC1C(=O)NC1CCCc2ccccc21)C(C)(C)C

> <Shape>
0.199

> <Color>
0.064

> <Negative vol penalty>
0.000

$$$$

  -OEChem-04052301203D

 88 97  0     1  0  0  0  0  0999 V2000
  -18.0648  -21.4100   19.8040 C   0  0  0  0  0  0  0  0  0  0  0  0
  -19.4509  -21.4365   19.9209 C   0  0  0  0  0  0  0  0  0  0  0  0
  -31.1863  -17.1834   24.1135 C   0  0  0  0  0  0  0  0  0  0  0  0
  -22.7975  -10.1414   20.0896 C   0  0  0  0  0  0  0  0  0  0  0  0
  -24.1743   -9.5621   21.9885 C   0  0  0  0  0  0  0  0  0  0  0  0
  -17.4572  -20.5092   18.9303 C   0  0  0  0  0  0  0  0  0  0  0  0
  -20.2300  -20.5614   19.1649 C   0  0  0  0  0  0  0  0  0  0  0  0
  -25.7619  -21.6761   16.7854 C   0  0  0  0  0  0  0  0  0  0  0  0
  -30.7383  -15.8644   24.1850 C   0  0  0  0  0  0  0  0  0  0  0  0
  -31.3211  -17.8080   22.8736 C   0  0  0  0  0  0  0  0  0  0  0  0
  -22.0609   -8.9703   20.2664 C   0  0  0  0  0  0  0  0  0  0  0  0
  -23.4376   -8.3910   22.1654 C   0  0  0  0  0  0  0  0  0  0  0  0
  -27.0493  -21.3569   17.2148 C   0  0  0  0  0  0  0  0  0  0  0  0
  -23.2782   -5.3140   20.7734 C   0  0  0  0  0  0  0  0  0  0  0  0
  -23.9835   -4.1345   21.0118 C   0  0  0  0  0  0  0  0  0  0  0  0
  -27.0324  -19.4063   15.7956 C   0  0  0  0  0  0  0  0  0  0  0  0
  -30.5600  -15.7946   21.7765 C   0  0  0  0  0  0  0  0  0  0  0  0
  -22.8567   -3.8898   23.1349 C   0  0  0  0  0  0  0  0  0  0  0  0
  -23.8543  -10.4374   20.9506 C   0  0  0  0  0  0  0  0  0  0  0  0
  -24.1342  -12.9689   20.8073 C   0  0  0  0  0  0  0  0  0  0  0  0
  -18.2298  -19.6292   18.1562 C   0  0  0  0  0  0  0  0  0  0  0  0
  -25.0947  -20.8555   15.8646 C   0  0  0  0  0  0  0  0  0  0  0  0
  -19.6321  -19.6470   18.2811 C   0  0  0  0  0  0  0  0  0  0  0  0
  -25.7376  -19.7187   15.3542 C   0  0  0  0  0  0  0  0  0  0  0  0
  -30.4251  -15.1700   23.0165 C   0  0  0  0  0  0  0  0  0  0  0  0
  -31.0080  -17.1136   21.7051 C   0  0  0  0  0  0  0  0  0  0  0  0
  -22.3809   -8.0950   21.3043 C   0  0  0  0  0  0  0  0  0  0  0  0
  -27.6837  -20.2202   16.7220 C   0  0  0  0  0  0  0  0  0  0  0  0
  -22.3621   -5.7815   21.7157 C   0  0  0  0  0  0  0  0  0  0  0  0
  -23.7727   -3.4224   22.1925 C   0  0  0  0  0  0  0  0  0  0  0  0
  -22.1514   -5.0694   22.8965 C   0  0  0  0  0  0  0  0  0  0  0  0
  -24.6160  -11.6467   20.7682 C   0  0  0  0  0  0  0  0  0  0  0  0
  -25.2436  -13.7455   20.5777 C   0  0  0  0  0  0  0  0  0  0  0  0
  -30.3265  -18.2781   18.2277 C   0  0  0  0  0  0  0  0  0  0  0  0
  -30.0997  -17.9544   19.5240 C   0  0  0  0  0  0  0  0  0  0  0  0
  -31.7504  -18.3667   17.7594 C   0  0  0  0  0  0  0  0  0  0  0  0
  -22.8030  -13.4519   21.0312 C   0  0  0  0  0  0  0  0  0  0  0  0
  -22.4274  -19.1274   15.9212 C   0  0  0  0  0  0  0  0  0  0  0  0
  -23.1019  -18.6975   12.7775 C   0  0  0  0  0  0  0  0  0  0  0  0
  -26.0356  -18.0572   10.7774 C   0  0  0  0  0  0  0  0  0  0  0  0
  -31.1400  -12.3009   21.4047 C   0  0  0  0  0  0  0  0  0  0  0  0
  -17.5257  -18.6409   17.2606 C   0  0  0  0  0  0  0  0  0  0  0  0
  -23.7165  -21.2282   15.3912 C   0  0  0  0  0  0  0  0  0  0  0  0
  -25.0725  -18.8159   14.3486 C   0  0  0  0  0  0  0  0  0  0  0  0
  -32.8490  -17.9582   18.7108 C   0  0  0  0  0  0  0  0  0  0  0  0
  -18.4409  -18.0041   16.2179 C   0  0  0  0  0  0  0  0  0  0  0  0
  -29.4908  -13.6747   18.3889 C   0  0  0  0  0  0  0  0  0  0  0  0
  -19.7453  -17.5450   16.8618 C   0  0  0  0  0  0  0  0  0  0  0  0
  -28.0184  -13.3528   18.6386 C   0  0  0  0  0  0  0  0  0  0  0  0
  -32.4873  -18.2648   20.1536 C   0  0  0  0  0  0  0  0  0  0  0  0
  -30.4147  -12.6731   19.0751 C   0  0  0  0  0  0  0  0  0  0  0  0
  -28.6910  -12.2013   20.7839 C   0  0  0  0  0  0  0  0  0  0  0  0
  -20.5126  -18.7305   17.4597 C   0  0  1  0  0  0  0  0  0  0  0  0
  -22.9325  -20.0410   14.8405 C   0  0  1  0  0  0  0  0  0  0  0  0
  -27.7339  -13.2187   20.1447 C   0  0  2  0  0  0  0  0  0  0  0  0
  -28.6803  -17.9152   20.0562 C   0  0  0  0  0  0  0  0  0  0  0  0
  -26.5255  -18.6045    8.3778 C   0  0  0  0  0  0  0  0  0  0  0  0
  -22.0785  -15.8763   12.2270 C   0  0  0  0  0  0  0  0  0  0  0  0
  -23.8649  -15.6425   10.4886 C   0  0  0  0  0  0  0  0  0  0  0  0
  -22.0992  -17.3860   10.2334 C   0  0  0  0  0  0  0  0  0  0  0  0
  -32.0410  -12.5955   23.6808 C   0  0  0  0  0  0  0  0  0  0  0  0
  -28.5119  -19.5112   11.4936 C   0  0  0  0  0  0  0  0  0  0  0  0
  -29.9468  -13.7596   23.0932 C   0  0  0  0  0  0  0  0  0  0  0  0
  -29.2874  -18.5222   17.1700 C   0  0  0  0  0  0  0  0  0  1  0  0
  -23.8986  -17.6911   11.9830 C   0  0  1  0  0  0  0  0  0  0  0  0
  -26.7164  -19.0254    9.8267 C   0  0  2  0  0  0  0  0  0  0  0  0
  -22.9920  -16.6554   11.2599 C   0  0  0  0  0  0  0  0  0  0  0  0
  -25.9291  -11.5832   20.5321 N   0  0  0  0  0  0  0  0  0  0  0  0
  -26.2819  -12.8752   20.4208 N   0  0  0  0  0  0  0  0  0  0  0  0
  -31.1447  -17.7491   20.4440 N   0  0  0  0  0  0  0  0  0  0  0  0
  -23.7225  -19.2193   13.9214 N   0  0  0  0  0  0  0  0  0  0  0  0
  -30.0944  -12.5330   20.4960 N   0  0  0  0  0  0  0  0  0  0  0  0
  -25.4224  -15.0811   20.4967 N   0  0  0  0  0  0  0  0  0  0  0  0
  -22.4024  -13.7212   22.3470 N   0  0  0  0  0  0  0  0  0  0  0  0
  -21.1852  -19.4750   16.4167 N   0  0  0  0  0  0  0  0  0  0  0  0
  -24.7551  -18.4627   11.0888 N   0  0  0  0  0  0  0  0  0  0  0  0
  -30.9793  -12.8008   22.7058 N   0  0  0  0  0  0  0  0  0  0  0  0
  -28.1783  -19.0873   10.1094 N   0  3  0  0  0  0  0  0  0  0  0  0
  -32.0154  -18.7113   16.6079 O   0  0  0  0  0  0  0  0  0  0  0  0
  -21.9872  -13.6235   20.0939 O   0  0  0  0  0  0  0  0  0  0  0  0
  -23.1133  -18.1767   16.2780 O   0  0  0  0  0  0  0  0  0  0  0  0
  -21.9734  -19.0146   12.3934 O   0  0  0  0  0  0  0  0  0  0  0  0
  -26.5836  -17.0409   11.1984 O   0  0  0  0  0  0  0  0  0  0  0  0
  -32.1631  -11.6905   21.0692 O   0  0  0  0  0  0  0  0  0  0  0  0
  -21.6621   -6.9523   21.4772 O   0  0  0  0  0  0  0  0  0  0  0  0
  -28.9400  -19.9060   17.1399 O   0  0  0  0  0  0  0  0  0  1  0  0
  -24.4490   -2.2889   22.4206 F   0  0  0  0  0  0  0  0  0  0  0  0
  -21.2718   -5.5129   23.8050 F   0  0  0  0  0  0  0  0  0  0  0  0
  1  2  1  0  0  0  0
  1  6  2  0  0  0  0
  2  7  2  0  0  0  0
  3  9  1  0  0  0  0
  3 10  2  0  0  0  0
  4 11  2  0  0  0  0
  4 19  1  0  0  0  0
  5 12  1  0  0  0  0
  5 19  2  0  0  0  0
  6 21  1  0  0  0  0
  7 23  1  0  0  0  0
  8 13  2  0  0  0  0
  8 22  1  0  0  0  0
  9 25  2  0  0  0  0
 10 26  1  0  0  0  0
 11 27  1  0  0  0  0
 12 27  2  0  0  0  0
 13 28  1  0  0  0  0
 14 15  2  0  0  0  0
 14 29  1  0  0  0  0
 15 30  1  0  0  0  0
 16 24  1  0  0  0  0
 16 28  2  0  0  0  0
 17 25  1  0  0  0  0
 17 26  2  0  0  0  0
 18 30  2  0  0  0  0
 18 31  1  0  0  0  0
 19 32  1  0  0  0  0
 20 32  1  0  0  0  0
 20 33  2  0  0  0  0
 20 37  1  0  0  0  0
 21 23  2  0  0  0  0
 21 42  1  0  0  0  0
 22 24  2  0  0  0  0
 22 43  1  0  0  0  0
 23 53  1  0  0  0  0
 24 44  1  0  0  0  0
 25 63  1  0  0  0  0
 26 70  1  0  0  0  0
 27 85  1  0  0  0  0
 28 86  1  0  0  0  0
 29 31  2  0  0  0  0
 29 85  1  0  0  0  0
 30 87  1  0  0  0  0
 31 88  1  0  0  0  0
 32 68  2  0  0  0  0
 33 69  1  0  0  0  0
 33 73  1  0  0  0  0
 34 35  2  0  0  0  0
 34 36  1  0  0  0  0
 34 64  1  0  0  0  0
 35 56  1  0  0  0  0
 35 70  1  0  0  0  0
 36 45  1  0  0  0  0
 36 79  2  0  0  0  0
 37 74  1  0  0  0  0
 37 80  2  0  0  0  0
 38 54  1  0  0  0  0
 38 75  1  0  0  0  0
 38 81  2  0  0  0  0
 39 65  1  0  0  0  0
 39 71  1  0  0  0  0
 39 82  2  0  0  0  0
 40 66  1  0  0  0  0
 40 76  1  0  0  0  0
 40 83  2  0  0  0  0
 41 72  1  0  0  0  0
 41 77  1  0  0  0  0
 41 84  2  0  0  0  0
 42 46  1  0  0  0  0
 43 54  1  0  0  0  0
 44 71  1  0  0  0  0
 45 50  1  0  0  0  0
 46 48  1  0  0  0  0
 47 49  1  0  0  0  0
 47 51  1  0  0  0  0
 48 53  1  0  0  0  0
 49 55  1  0  0  0  0
 50 70  1  0  0  0  0
 51 72  1  0  0  0  0
 52 55  1  0  0  0  0
 52 72  1  0  0  0  0
 53 75  1  0  0  0  0
 54 71  1  0  0  0  0
 55 69  1  0  0  0  0
 57 66  1  0  0  0  0
 58 67  1  0  0  0  0
 59 67  1  0  0  0  0
 60 67  1  0  0  0  0
 61 77  1  0  0  0  0
 62 78  1  0  0  0  0
 63 77  1  0  0  0  0
 64 86  1  0  0  0  0
 65 67  1  0  0  0  0
 65 76  1  0  0  0  0
 66 78  1  0  0  0  0
 68 69  1  0  0  0  0
M  CHG  1  78   1
M  ISO  4  41 100  64 101  77 100  86 101
M  END
> <Batch ID>
0108

> <Smiles>
CNC(C)C(=O)NC(C(=O)N1Cc2cc([101O:1][101CH2:1]C3=C(C)N(c4cccc(C[100N:0](C)[100C:0](=O)N5CCCC(n6nc(-c7ccc(Oc8ccc(F)cc8F)cc7)c(C(N)=O)c6N)C5)c4)CCC3=O)ccc2CC1C(=O)NC1CCCc2ccccc21)C(C)(C)C

> <Shape>
0.184

> <Color>
0.158

> <Negative vol penalty>
0.000

$$$$

  -OEChem-04052301203D

 86 94  0     1  0  0  0  0  0999 V2000
  -29.0265  -35.8878   20.6544 C   0  0  0  0  0  0  0  0  0  0  0  0
  -29.1623  -34.5057   20.7375 C   0  0  0  0  0  0  0  0  0  0  0  0
  -24.1010  -15.9784   23.5169 C   0  0  0  0  0  0  0  0  0  0  0  0
  -23.5485  -16.7333   21.2893 C   0  0  0  0  0  0  0  0  0  0  0  0
  -27.9976  -36.5286   21.3433 C   0  0  0  0  0  0  0  0  0  0  0  0
  -28.2698  -33.7638   21.5104 C   0  0  0  0  0  0  0  0  0  0  0  0
  -26.6560  -29.5879   19.1435 C   0  0  0  0  0  0  0  0  0  0  0  0
  -23.3593  -17.0290   24.0569 C   0  0  0  0  0  0  0  0  0  0  0  0
  -22.8066  -17.7839   21.8294 C   0  0  0  0  0  0  0  0  0  0  0  0
  -27.5244  -28.4976   19.1126 C   0  0  0  0  0  0  0  0  0  0  0  0
  -20.1038  -17.7472   24.6219 C   0  0  0  0  0  0  0  0  0  0  0  0
  -19.2451  -17.4566   25.6820 C   0  0  0  0  0  0  0  0  0  0  0  0
  -26.3103  -27.4867   20.9356 C   0  0  0  0  0  0  0  0  0  0  0  0
  -28.2305  -17.1344   17.8086 C   0  0  0  0  0  0  0  0  0  0  0  0
  -29.8824  -18.8529   19.2580 C   0  0  0  0  0  0  0  0  0  0  0  0
  -20.4522  -19.0093   27.0853 C   0  0  0  0  0  0  0  0  0  0  0  0
  -24.1957  -15.8306   22.1330 C   0  0  0  0  0  0  0  0  0  0  0  0
  -24.4998  -13.4560   21.2519 C   0  0  0  0  0  0  0  0  0  0  0  0
  -27.0862  -35.7931   22.1173 C   0  0  0  0  0  0  0  0  0  0  0  0
  -25.6131  -29.6409   20.0794 C   0  0  0  0  0  0  0  0  0  0  0  0
  -27.2285  -34.3955   22.2114 C   0  0  0  0  0  0  0  0  0  0  0  0
  -25.4285  -28.5776   20.9745 C   0  0  0  0  0  0  0  0  0  0  0  0
  -27.6967  -18.2770   18.4045 C   0  0  0  0  0  0  0  0  0  0  0  0
  -30.4161  -17.7102   18.6622 C   0  0  0  0  0  0  0  0  0  0  0  0
  -29.5902  -16.8509   17.9376 C   0  0  0  0  0  0  0  0  0  0  0  0
  -22.7120  -17.9317   23.2132 C   0  0  0  0  0  0  0  0  0  0  0  0
  -27.3534  -27.4482   20.0107 C   0  0  0  0  0  0  0  0  0  0  0  0
  -21.1367  -18.6688   24.7935 C   0  0  0  0  0  0  0  0  0  0  0  0
  -28.5226  -19.1363   19.1291 C   0  0  0  0  0  0  0  0  0  0  0  0
  -19.4193  -18.0877   26.9137 C   0  0  0  0  0  0  0  0  0  0  0  0
  -21.3109  -19.2999   26.0252 C   0  0  0  0  0  0  0  0  0  0  0  0
  -24.9623  -14.7459   21.5745 C   0  0  0  0  0  0  0  0  0  0  0  0
  -25.6056  -12.8086   20.7573 C   0  0  0  0  0  0  0  0  0  0  0  0
  -30.5388  -14.3610   15.3479 C   0  0  0  0  0  0  0  0  0  0  0  0
  -30.0523  -15.4517   15.9441 C   0  0  0  0  0  0  0  0  0  0  0  0
  -23.1880  -12.8934   21.3871 C   0  0  0  0  0  0  0  0  0  0  0  0
  -24.8460  -31.5836   22.4754 C   0  0  0  0  0  0  0  0  0  0  0  0
  -22.1649  -29.7607   22.5800 C   0  0  0  0  0  0  0  0  0  0  0  0
  -20.6608  -26.7775   21.8838 C   0  0  0  0  0  0  0  0  0  0  0  0
  -30.5944  -14.6051   18.1384 C   0  0  0  0  0  0  0  0  0  0  0  0
  -26.0187  -36.5351   22.8820 C   0  0  0  0  0  0  0  0  0  0  0  0
  -24.6687  -30.8116   20.0820 C   0  0  0  0  0  0  0  0  0  0  0  0
  -24.3120  -28.5768   21.9855 C   0  0  0  0  0  0  0  0  0  0  0  0
  -24.8889  -35.6364   23.3781 C   0  0  0  0  0  0  0  0  0  0  0  0
  -30.3698  -12.7360   21.0786 C   0  0  0  0  0  0  0  0  0  0  0  0
  -25.4543  -34.3772   24.0273 C   0  0  0  0  0  0  0  0  0  0  0  0
  -28.9171  -12.9140   21.5190 C   0  0  0  0  0  0  0  0  0  0  0  0
  -30.9389  -14.0395   20.5302 C   0  0  0  0  0  0  0  0  0  0  0  0
  -28.6912  -14.7983   19.8260 C   0  0  0  0  0  0  0  0  0  0  0  0
  -26.2653  -33.5535   23.0196 C   0  0  1  0  0  0  0  0  0  0  0  0
  -23.9540  -30.9997   21.4166 C   0  0  1  0  0  0  0  0  0  0  0  0
  -28.0639  -13.5044   20.3826 C   0  0  2  0  0  0  0  0  0  0  0  0
  -26.2387  -18.5634   18.2572 C   0  0  0  0  0  0  0  0  0  0  0  0
  -31.8760  -17.4311   18.8164 C   0  0  0  0  0  0  0  0  0  0  0  0
  -18.4729  -25.5716   22.1213 C   0  0  0  0  0  0  0  0  0  0  0  0
  -22.7378  -29.3098   25.5429 C   0  0  0  0  0  0  0  0  0  0  0  0
  -21.1262  -27.3946   25.4916 C   0  0  0  0  0  0  0  0  0  0  0  0
  -20.3302  -29.7059   24.9944 C   0  0  0  0  0  0  0  0  0  0  0  0
  -20.3710  -26.4854   18.9530 C   0  0  0  0  0  0  0  0  0  0  0  0
  -28.4035  -23.9977   19.6683 C   0  0  0  0  0  0  0  0  0  0  0  0
  -27.8551  -22.6290   20.0565 C   0  0  0  0  0  0  0  0  0  0  0  0
  -27.6701  -25.1216   20.3883 C   0  0  0  0  0  0  0  0  0  1  0  0
  -28.5586  -21.5077   19.3051 C   0  0  0  0  0  0  0  0  0  0  0  0
  -21.7598  -28.4952   23.2966 C   0  0  1  0  0  0  0  0  0  0  0  0
  -19.3335  -26.4481   21.2248 C   0  0  2  0  0  0  0  0  0  0  0  0
  -21.5108  -28.7270   24.8137 C   0  0  0  0  0  0  0  0  0  0  0  0
  -26.2606  -14.9100   21.3075 N   0  0  0  0  0  0  0  0  0  0  0  0
  -26.6235  -13.7147   20.8119 N   0  0  0  0  0  0  0  0  0  0  0  0
  -23.4187  -29.7466   21.9527 N   0  0  0  0  0  0  0  0  0  0  0  0
  -30.0979  -14.5704   19.4567 N   0  0  0  0  0  0  0  0  0  0  0  0
  -25.7968  -11.5584   20.2854 N   0  0  0  0  0  0  0  0  0  0  0  0
  -22.1674  -13.6969   21.9134 N   0  0  0  0  0  0  0  0  0  0  0  0
  -25.3817  -32.8136   22.1442 N   0  0  0  0  0  0  0  0  0  0  0  0
  -20.6060  -27.9692   22.5752 N   0  0  0  0  0  0  0  0  0  0  0  0
  -30.1249  -15.6590   17.3120 N   0  0  0  0  0  0  0  0  0  0  0  0
  -19.5579  -25.7283   19.9393 N   0  3  0  0  0  0  0  0  0  0  0  0
  -22.9324  -11.7079   21.0664 O   0  0  0  0  0  0  0  0  0  0  0  0
  -25.0332  -30.9648   23.5165 O   0  0  0  0  0  0  0  0  0  0  0  0
  -21.3941  -30.7237   22.5710 O   0  0  0  0  0  0  0  0  0  0  0  0
  -21.6465  -26.0485   21.7972 O   0  0  0  0  0  0  0  0  0  0  0  0
  -31.4134  -13.7721   17.7289 O   0  0  0  0  0  0  0  0  0  0  0  0
  -21.9879  -18.9568   23.7399 O   0  0  0  0  0  0  0  0  0  0  0  0
  -28.2000  -26.3831   19.9832 O   0  0  0  0  0  0  0  0  0  1  0  0
  -28.0139  -20.2631   19.7212 O   0  0  0  0  0  0  0  0  0  0  0  0
  -18.5936  -17.8097   27.9312 F   0  0  0  0  0  0  0  0  0  0  0  0
  -22.3007  -20.1871   26.1958 F   0  0  0  0  0  0  0  0  0  0  0  0
  1  2  1  0  0  0  0
  1  5  2  0  0  0  0
  2  6  2  0  0  0  0
  3  8  2  0  0  0  0
  3 17  1  0  0  0  0
  4  9  1  0  0  0  0
  4 17  2  0  0  0  0
  5 19  1  0  0  0  0
  6 21  1  0  0  0  0
  7 10  2  0  0  0  0
  7 20  1  0  0  0  0
  8 26  1  0  0  0  0
  9 26  2  0  0  0  0
 10 27  1  0  0  0  0
 11 12  2  0  0  0  0
 11 28  1  0  0  0  0
 12 30  1  0  0  0  0
 13 22  1  0  0  0  0
 13 27  2  0  0  0  0
 14 23  2  0  0  0  0
 14 25  1  0  0  0  0
 15 24  1  0  0  0  0
 15 29  2  0  0  0  0
 16 30  2  0  0  0  0
 16 31  1  0  0  0  0
 17 32  1  0  0  0  0
 18 32  1  0  0  0  0
 18 33  2  0  0  0  0
 18 36  1  0  0  0  0
 19 21  2  0  0  0  0
 19 41  1  0  0  0  0
 20 22  2  0  0  0  0
 20 42  1  0  0  0  0
 21 50  1  0  0  0  0
 22 43  1  0  0  0  0
 23 29  1  0  0  0  0
 23 53  1  0  0  0  0
 24 25  2  0  0  0  0
 24 54  1  0  0  0  0
 25 75  1  0  0  0  0
 26 82  1  0  0  0  0
 27 83  1  0  0  0  0
 28 31  2  0  0  0  0
 28 82  1  0  0  0  0
 29 84  1  0  0  0  0
 30 85  1  0  0  0  0
 31 86  1  0  0  0  0
 32 67  2  0  0  0  0
 33 68  1  0  0  0  0
 33 71  1  0  0  0  0
 34 35  2  0  0  0  0
 35 75  1  0  0  0  0
 36 72  1  0  0  0  0
 36 77  2  0  0  0  0
 37 51  1  0  0  0  0
 37 73  1  0  0  0  0
 37 78  2  0  0  0  0
 38 64  1  0  0  0  0
 38 69  1  0  0  0  0
 38 79  2  0  0  0  0
 39 65  1  0  0  0  0
 39 74  1  0  0  0  0
 39 80  2  0  0  0  0
 40 70  1  0  0  0  0
 40 75  1  0  0  0  0
 40 81  2  0  0  0  0
 41 44  1  0  0  0  0
 42 51  1  0  0  0  0
 43 69  1  0  0  0  0
 44 46  1  0  0  0  0
 45 47  1  0  0  0  0
 45 48  1  0  0  0  0
 46 50  1  0  0  0  0
 47 52  1  0  0  0  0
 48 70  1  0  0  0  0
 49 52  1  0  0  0  0
 49 70  1  0  0  0  0
 50 73  1  0  0  0  0
 51 69  1  0  0  0  0
 52 68  1  0  0  0  0
 55 65  1  0  0  0  0
 56 66  1  0  0  0  0
 57 66  1  0  0  0  0
 58 66  1  0  0  0  0
 59 76  1  0  0  0  0
 60 61  1  0  0  0  0
 60 62  1  0  0  0  0
 61 63  1  0  0  0  0
 62 83  1  0  0  0  0
 63 84  1  0  0  0  0
 64 66  1  0  0  0  0
 64 74  1  0  0  0  0
 65 76  1  0  0  0  0
 67 68  1  0  0  0  0
M  CHG  1  76   1
M  ISO  4  40 100  62 101  75 100  83 101
M  END
> <Batch ID>
0108

> <Smiles>
C=C[100N:0](c1cc(C)c(OCCC[101CH2:1][101O:1]c2ccc3c(c2)CN(C(=O)C(NC(=O)C(C)NC)C(C)(C)C)C(C(=O)NC2CCCc4ccccc42)C3)cc1C)[100C:0](=O)N1CCCC(n2nc(-c3ccc(Oc4ccc(F)cc4F)cc3)c(C(N)=O)c2N)C1

> <Shape>
0.281

> <Color>
0.091

> <Negative vol penalty>
0.000

$$$$

  -OEChem-04052301203D

 84 92  0     1  0  0  0  0  0999 V2000
  -17.9909  -26.4318   26.0050 C   0  0  0  0  0  0  0  0  0  0  0  0
  -19.0552  -25.9776   25.2327 C   0  0  0  0  0  0  0  0  0  0  0  0
  -22.8159  -10.1051   20.1070 C   0  0  0  0  0  0  0  0  0  0  0  0
  -23.5724  -10.1712   22.4005 C   0  0  0  0  0  0  0  0  0  0  0  0
  -17.3059  -27.5883   25.6346 C   0  0  0  0  0  0  0  0  0  0  0  0
  -19.4344  -26.6792   24.0888 C   0  0  0  0  0  0  0  0  0  0  0  0
  -24.4538  -27.2506   23.7352 C   0  0  0  0  0  0  0  0  0  0  0  0
  -21.9787   -9.0325   20.4140 C   0  0  0  0  0  0  0  0  0  0  0  0
  -22.7352   -9.0986   22.7076 C   0  0  0  0  0  0  0  0  0  0  0  0
  -25.1904  -26.1512   23.2964 C   0  0  0  0  0  0  0  0  0  0  0  0
  -22.7498   -5.7390   22.3285 C   0  0  0  0  0  0  0  0  0  0  0  0
  -23.2777   -4.7059   23.1029 C   0  0  0  0  0  0  0  0  0  0  0  0
  -25.2970  -27.1124   21.0864 C   0  0  0  0  0  0  0  0  0  0  0  0
  -29.8275  -18.6926   21.9212 C   0  0  0  0  0  0  0  0  0  0  0  0
  -21.5955   -5.1104   24.7893 C   0  0  0  0  0  0  0  0  0  0  0  0
  -28.8722  -19.3229   24.0061 C   0  0  0  0  0  0  0  0  0  0  0  0
  -23.6128  -10.6744   21.1002 C   0  0  0  0  0  0  0  0  0  0  0  0
  -24.1630  -13.1526   20.8483 C   0  0  0  0  0  0  0  0  0  0  0  0
  -17.6832  -28.3098   24.4910 C   0  0  0  0  0  0  0  0  0  0  0  0
  -24.1233  -28.2857   22.8487 C   0  0  0  0  0  0  0  0  0  0  0  0
  -18.7530  -27.8457   23.7020 C   0  0  0  0  0  0  0  0  0  0  0  0
  -24.5583  -28.2250   21.5171 C   0  0  0  0  0  0  0  0  0  0  0  0
  -30.3165  -17.5410   22.5280 C   0  0  0  0  0  0  0  0  0  0  0  0
  -29.0907  -19.6056   22.6674 C   0  0  0  0  0  0  0  0  0  0  0  0
  -21.9384   -8.5292   21.7143 C   0  0  0  0  0  0  0  0  0  0  0  0
  -25.6096  -26.0806   21.9711 C   0  0  0  0  0  0  0  0  0  0  0  0
  -21.6448   -6.4579   22.7846 C   0  0  0  0  0  0  0  0  0  0  0  0
  -22.7005   -4.3916   24.3332 C   0  0  0  0  0  0  0  0  0  0  0  0
  -21.0677   -6.1436   24.0149 C   0  0  0  0  0  0  0  0  0  0  0  0
  -24.4782  -11.7821   20.7836 C   0  0  0  0  0  0  0  0  0  0  0  0
  -30.0434  -17.3509   23.8730 C   0  0  0  0  0  0  0  0  0  0  0  0
  -25.3138  -13.7887   20.4512 C   0  0  0  0  0  0  0  0  0  0  0  0
  -22.9395  -13.7935   21.2329 C   0  0  0  0  0  0  0  0  0  0  0  0
  -21.4065  -29.5076   21.7399 C   0  0  0  0  0  0  0  0  0  0  0  0
  -27.4399  -22.8813   21.8758 C   0  0  0  0  0  0  0  0  0  0  0  0
  -23.3924  -31.6895   20.3915 C   0  0  0  0  0  0  0  0  0  0  0  0
  -26.5199  -32.4484   19.2558 C   0  0  0  0  0  0  0  0  0  0  0  0
  -30.8631  -14.3585   20.6127 C   0  0  0  0  0  0  0  0  0  0  0  0
  -16.8825  -29.5281   24.1044 C   0  0  0  0  0  0  0  0  0  0  0  0
  -23.3510  -29.4775   23.3443 C   0  0  0  0  0  0  0  0  0  0  0  0
  -24.2470  -29.3197   20.5305 C   0  0  0  0  0  0  0  0  0  0  0  0
  -17.5861  -30.4212   23.0858 C   0  0  0  0  0  0  0  0  0  0  0  0
  -29.5329  -11.9528   18.3500 C   0  0  0  0  0  0  0  0  0  0  0  0
  -18.1610  -29.5833   21.9482 C   0  0  0  0  0  0  0  0  0  0  0  0
  -28.0758  -11.8026   18.7907 C   0  0  0  0  0  0  0  0  0  0  0  0
  -30.4645  -12.1605   19.5420 C   0  0  0  0  0  0  0  0  0  0  0  0
  -28.6292  -13.1194   20.8784 C   0  0  0  0  0  0  0  0  0  0  0  0
  -19.2101  -28.5930   22.4680 C   0  0  1  0  0  0  0  0  0  0  0  0
  -22.6307  -30.2287   22.2287 C   0  0  1  0  0  0  0  0  0  0  0  0
  -27.6446  -12.9636   19.7069 C   0  0  2  0  0  0  0  0  0  0  0  0
  -30.5434  -16.1320   24.5772 C   0  0  0  0  0  0  0  0  0  0  0  0
  -27.8279  -34.2961   18.1730 C   0  0  0  0  0  0  0  0  0  0  0  0
  -22.0699  -31.0546   17.7161 C   0  0  0  0  0  0  0  0  0  0  0  0
  -23.9980  -32.1736   16.5766 C   0  0  0  0  0  0  0  0  0  0  0  0
  -22.5241  -33.4829   18.1051 C   0  0  0  0  0  0  0  0  0  0  0  0
  -28.3786  -32.6348   21.5513 C   0  0  0  0  0  0  0  0  0  0  0  0
  -31.1065  -16.5590   21.7342 C   0  0  0  0  0  0  0  0  0  0  0  0
  -27.8205  -21.7488   22.8056 C   0  0  0  0  0  0  0  0  0  0  0  0
  -26.6171  -23.9921   22.4991 C   0  0  0  0  0  0  0  0  0  1  0  0
  -24.1333  -31.7943   19.0804 C   0  0  1  0  0  0  0  0  0  0  0  0
  -27.4102  -33.6558   19.4877 C   0  0  2  0  0  0  0  0  0  0  0  0
  -23.1857  -32.1046   17.8874 C   0  0  0  0  0  0  0  0  0  0  0  0
  -29.3312  -18.2151   24.6304 N   0  0  0  0  0  0  0  0  0  0  0  0
  -25.7309  -11.5597   20.3773 N   0  0  0  0  0  0  0  0  0  0  0  0
  -26.2131  -12.7990   20.1830 N   0  0  0  0  0  0  0  0  0  0  0  0
  -23.4839  -30.4613   21.0616 N   0  0  0  0  0  0  0  0  0  0  0  0
  -30.0007  -13.2768   20.3695 N   0  0  0  0  0  0  0  0  0  0  0  0
  -25.6340  -15.0923   20.3088 N   0  0  0  0  0  0  0  0  0  0  0  0
  -21.8554  -12.9905   21.6129 N   0  0  0  0  0  0  0  0  0  0  0  0
  -28.5901  -20.7636   22.0898 N   0  0  0  0  0  0  0  0  0  0  0  0
  -20.4633  -29.2711   22.7216 N   0  0  0  0  0  0  0  0  0  0  0  0
  -25.1834  -32.7866   19.2831 N   0  0  0  0  0  0  0  0  0  0  0  0
  -30.3426  -15.3773   21.4013 N   0  0  0  0  0  0  0  0  0  0  0  0
  -28.6407  -33.2575   20.2282 N   0  3  0  0  0  0  0  0  0  0  0  0
  -22.8061  -15.0407   21.2238 O   0  0  0  0  0  0  0  0  0  0  0  0
  -21.3231  -29.1907   20.5591 O   0  0  0  0  0  0  0  0  0  0  0  0
  -27.7703  -22.9090   20.6910 O   0  0  0  0  0  0  0  0  0  0  0  0
  -22.7618  -32.6638   20.8094 O   0  0  0  0  0  0  0  0  0  0  0  0
  -26.9655  -31.3189   19.0655 O   0  0  0  0  0  0  0  0  0  0  0  0
  -32.0100  -14.4149   20.1560 O   0  0  0  0  0  0  0  0  0  0  0  0
  -21.1214   -7.4827   22.0143 O   0  0  0  0  0  0  0  0  0  0  0  0
  -26.3282  -25.0084   21.5400 O   0  0  0  0  0  0  0  0  0  1  0  0
  -23.2066   -3.3984   25.0760 F   0  0  0  0  0  0  0  0  0  0  0  0
  -20.0053   -6.8299   24.4578 F   0  0  0  0  0  0  0  0  0  0  0  0
  1  2  1  0  0  0  0
  1  5  2  0  0  0  0
  2  6  2  0  0  0  0
  3  8  2  0  0  0  0
  3 17  1  0  0  0  0
  4  9  1  0  0  0  0
  4 17  2  0  0  0  0
  5 19  1  0  0  0  0
  6 21  1  0  0  0  0
  7 10  2  0  0  0  0
  7 20  1  0  0  0  0
  8 25  1  0  0  0  0
  9 25  2  0  0  0  0
 10 26  1  0  0  0  0
 11 12  2  0  0  0  0
 11 27  1  0  0  0  0
 12 28  1  0  0  0  0
 13 22  1  0  0  0  0
 13 26  2  0  0  0  0
 14 23  1  0  0  0  0
 14 24  2  0  0  0  0
 15 28  2  0  0  0  0
 15 29  1  0  0  0  0
 16 24  1  0  0  0  0
 16 63  2  0  0  0  0
 17 30  1  0  0  0  0
 18 30  1  0  0  0  0
 18 32  2  0  0  0  0
 18 33  1  0  0  0  0
 19 21  2  0  0  0  0
 19 39  1  0  0  0  0
 20 22  2  0  0  0  0
 20 40  1  0  0  0  0
 21 48  1  0  0  0  0
 22 41  1  0  0  0  0
 23 31  2  0  0  0  0
 23 57  1  0  0  0  0
 24 70  1  0  0  0  0
 25 81  1  0  0  0  0
 26 82  1  0  0  0  0
 27 29  2  0  0  0  0
 27 81  1  0  0  0  0
 28 83  1  0  0  0  0
 29 84  1  0  0  0  0
 30 64  2  0  0  0  0
 31 51  1  0  0  0  0
 31 63  1  0  0  0  0
 32 65  1  0  0  0  0
 32 68  1  0  0  0  0
 33 69  1  0  0  0  0
 33 75  2  0  0  0  0
 34 49  1  0  0  0  0
 34 71  1  0  0  0  0
 34 76  2  0  0  0  0
 35 58  1  0  0  0  0
 35 59  1  0  0  0  0
 35 77  2  0  0  0  0
 36 60  1  0  0  0  0
 36 66  1  0  0  0  0
 36 78  2  0  0  0  0
 37 61  1  0  0  0  0
 37 72  1  0  0  0  0
 37 79  2  0  0  0  0
 38 67  1  0  0  0  0
 38 73  1  0  0  0  0
 38 80  2  0  0  0  0
 39 42  1  0  0  0  0
 40 49  1  0  0  0  0
 41 66  1  0  0  0  0
 42 44  1  0  0  0  0
 43 45  1  0  0  0  0
 43 46  1  0  0  0  0
 44 48  1  0  0  0  0
 45 50  1  0  0  0  0
 46 67  1  0  0  0  0
 47 50  1  0  0  0  0
 47 67  1  0  0  0  0
 48 71  1  0  0  0  0
 49 66  1  0  0  0  0
 50 65  1  0  0  0  0
 52 61  1  0  0  0  0
 53 62  1  0  0  0  0
 54 62  1  0  0  0  0
 55 62  1  0  0  0  0
 56 74  1  0  0  0  0
 57 73  1  0  0  0  0
 58 70  1  0  0  0  0
 59 82  1  0  0  0  0
 60 62  1  0  0  0  0
 60 72  1  0  0  0  0
 61 74  1  0  0  0  0
 64 65  1  0  0  0  0
M  CHG  1  74   1
M  ISO  4  38 100  59 101  73 100  82 101
M  END
> <Batch ID>
0108

> <Smiles>
CNC(C)C(=O)NC(C(=O)N1Cc2cc([101O:1][101CH2:1]C(=O)CNc3cnc(C)c(C[100NH:0][100C:0](=O)N4CCCC(n5nc(-c6ccc(Oc7ccc(F)cc7F)cc6)c(C(N)=O)c5N)C4)c3)ccc2CC1C(=O)NC1CCCc2ccccc21)C(C)(C)C

> <Shape>
0.295

> <Color>
0.212

> <Negative vol penalty>
0.000

$$$$

  -OEChem-04052301203D

 85 93  0     1  0  0  0  0  0999 V2000
  -19.7526   -9.7956   22.1715 C   0  0  0  0  0  0  0  0  0  0  0  0
  -20.4851  -10.7893   22.8130 C   0  0  0  0  0  0  0  0  0  0  0  0
  -24.3148  -29.4341   21.8996 C   0  0  0  0  0  0  0  0  0  0  0  0
  -24.9907  -31.4203   20.7016 C   0  0  0  0  0  0  0  0  0  0  0  0
  -20.3987   -8.8818   21.3401 C   0  0  0  0  0  0  0  0  0  0  0  0
  -21.8644  -10.8691   22.6242 C   0  0  0  0  0  0  0  0  0  0  0  0
  -23.4442  -15.6128   21.8207 C   0  0  0  0  0  0  0  0  0  0  0  0
  -23.8275  -30.2267   22.9388 C   0  0  0  0  0  0  0  0  0  0  0  0
  -24.5033  -32.2130   21.7408 C   0  0  0  0  0  0  0  0  0  0  0  0
  -23.5559  -16.4440   22.9345 C   0  0  0  0  0  0  0  0  0  0  0  0
  -25.0866  -31.9302   25.5727 C   0  0  0  0  0  0  0  0  0  0  0  0
  -25.3981  -31.5497   26.8779 C   0  0  0  0  0  0  0  0  0  0  0  0
  -28.3499  -20.9640   21.1679 C   0  0  0  0  0  0  0  0  0  0  0  0
  -27.8346  -23.1475   22.0644 C   0  0  0  0  0  0  0  0  0  0  0  0
  -25.9357  -16.0525   22.9805 C   0  0  0  0  0  0  0  0  0  0  0  0
  -23.0440  -31.3339   27.3769 C   0  0  0  0  0  0  0  0  0  0  0  0
  -24.8965  -30.0309   20.7810 C   0  0  0  0  0  0  0  0  0  0  0  0
  -28.6107  -22.3323   21.2405 C   0  0  0  0  0  0  0  0  0  0  0  0
  -24.6946  -28.7690   18.5732 C   0  0  0  0  0  0  0  0  0  0  0  0
  -21.7852   -8.9563   21.1334 C   0  0  0  0  0  0  0  0  0  0  0  0
  -24.5778  -14.9855   21.2842 C   0  0  0  0  0  0  0  0  0  0  0  0
  -22.5298   -9.9545   21.7903 C   0  0  0  0  0  0  0  0  0  0  0  0
  -25.8362  -15.2159   21.8584 C   0  0  0  0  0  0  0  0  0  0  0  0
  -27.3129  -20.4108   21.9191 C   0  0  0  0  0  0  0  0  0  0  0  0
  -26.7977  -22.5943   22.8157 C   0  0  0  0  0  0  0  0  0  0  0  0
  -23.9217  -31.6162   22.8594 C   0  0  0  0  0  0  0  0  0  0  0  0
  -24.8013  -16.6617   23.5163 C   0  0  0  0  0  0  0  0  0  0  0  0
  -23.7537  -32.0127   25.1695 C   0  0  0  0  0  0  0  0  0  0  0  0
  -26.5368  -21.2260   22.7431 C   0  0  0  0  0  0  0  0  0  0  0  0
  -24.3769  -31.2515   27.7800 C   0  0  0  0  0  0  0  0  0  0  0  0
  -22.7325  -31.7145   26.0716 C   0  0  0  0  0  0  0  0  0  0  0  0
  -25.4006  -29.2127   19.7075 C   0  0  0  0  0  0  0  0  0  0  0  0
  -25.6114  -28.0309   17.8652 C   0  0  0  0  0  0  0  0  0  0  0  0
  -29.7150  -22.9214   20.4404 C   0  0  0  0  0  0  0  0  0  0  0  0
  -23.3320  -29.0031   18.1935 C   0  0  0  0  0  0  0  0  0  0  0  0
  -25.4908  -11.9680   20.8785 C   0  0  0  0  0  0  0  0  0  0  0  0
  -27.9692  -13.3394   19.2977 C   0  0  0  0  0  0  0  0  0  0  0  0
  -29.9321  -16.0892   18.8156 C   0  0  0  0  0  0  0  0  0  0  0  0
  -30.5036  -25.0193   19.3912 C   0  0  0  0  0  0  0  0  0  0  0  0
  -22.4463   -7.9171   20.2629 C   0  0  0  0  0  0  0  0  0  0  0  0
  -24.4445  -14.1131   20.0663 C   0  0  0  0  0  0  0  0  0  0  0  0
  -27.0869  -14.5823   21.3082 C   0  0  0  0  0  0  0  0  0  0  0  0
  -23.8561   -8.3006   19.8205 C   0  0  0  0  0  0  0  0  0  0  0  0
  -30.3253  -27.6789   17.0692 C   0  0  0  0  0  0  0  0  0  0  0  0
  -24.6631   -8.8246   21.0041 C   0  0  0  0  0  0  0  0  0  0  0  0
  -28.9703  -28.3271   17.3659 C   0  0  0  0  0  0  0  0  0  0  0  0
  -31.0202  -27.2069   18.3456 C   0  0  0  0  0  0  0  0  0  0  0  0
  -28.8612  -26.9907   19.5075 C   0  0  0  0  0  0  0  0  0  0  0  0
  -24.0240  -10.0888   21.5912 C   0  0  1  0  0  0  0  0  0  0  0  0
  -25.5906  -13.1175   19.9160 C   0  0  1  0  0  0  0  0  0  0  0  0
  -28.0902  -27.4194   18.2485 C   0  0  1  0  0  0  0  0  0  0  0  0
  -27.0490  -18.9438   21.8280 C   0  0  0  0  0  0  0  0  0  0  0  0
  -25.9779  -23.4832   23.6920 C   0  0  0  0  0  0  0  0  0  0  0  0
  -31.9008  -16.8954   17.4846 C   0  0  0  0  0  0  0  0  0  0  0  0
  -29.8409  -11.7459   21.1054 C   0  0  0  0  0  0  0  0  0  0  0  0
  -31.7012  -13.2672   20.4032 C   0  0  0  0  0  0  0  0  0  0  0  0
  -30.5443  -11.8496   18.7077 C   0  0  0  0  0  0  0  0  0  0  0  0
  -28.3347  -18.2208   17.5259 C   0  0  0  0  0  0  0  0  0  0  0  0
  -24.5968  -19.6989   25.4772 C   0  0  0  0  0  0  0  0  0  0  0  0
  -23.9720  -18.5386   24.7185 C   0  0  0  0  0  0  0  0  0  1  0  0
  -25.8454  -20.2239   24.7860 C   0  0  0  0  0  0  0  0  0  0  0  0
  -29.3378  -13.8439   19.6871 C   0  0  1  0  0  0  0  0  0  0  0  0
  -30.3848  -16.7943   17.5497 C   0  0  2  0  0  0  0  0  0  0  0  0
  -30.3324  -12.6872   19.9876 C   0  0  0  0  0  0  0  0  0  0  0  0
  -26.6680  -28.7915   19.7234 N   0  0  0  0  0  0  0  0  0  0  0  0
  -26.7657  -28.0754   18.5904 N   0  0  0  0  0  0  0  0  0  0  0  0
  -26.9038  -13.7324   20.1200 N   0  0  0  0  0  0  0  0  0  0  0  0
  -30.1245  -26.3455   19.1196 N   0  0  0  0  0  0  0  0  0  0  0  0
  -25.5347  -27.3547   16.6994 N   0  0  0  0  0  0  0  0  0  0  0  0
  -22.5284  -29.7836   19.0357 N   0  0  0  0  0  0  0  0  0  0  0  0
  -29.5614  -24.2657   20.1000 N   0  0  0  0  0  0  0  0  0  0  0  0
  -24.3235  -11.2376   20.7635 N   0  0  0  0  0  0  0  0  0  0  0  0
  -29.7647  -14.7355   18.6142 N   0  0  0  0  0  0  0  0  0  0  0  0
  -29.8191  -18.1719   17.4936 N   0  3  0  0  0  0  0  0  0  0  0  0
  -30.6901  -22.2277   20.1649 O   0  0  0  0  0  0  0  0  0  0  0  0
  -22.8370  -28.5203   17.1469 O   0  0  0  0  0  0  0  0  0  0  0  0
  -26.4059  -11.7583   21.6662 O   0  0  0  0  0  0  0  0  0  0  0  0
  -27.8490  -12.6289   18.2965 O   0  0  0  0  0  0  0  0  0  0  0  0
  -29.7492  -16.6797   19.8779 O   0  0  0  0  0  0  0  0  0  0  0  0
  -31.5720  -24.5361   19.0033 O   0  0  0  0  0  0  0  0  0  0  0  0
  -23.4461  -32.3899   23.8731 O   0  0  0  0  0  0  0  0  0  0  0  0
  -24.9130  -17.4720   24.6039 O   0  0  0  0  0  0  0  0  0  1  0  0
  -25.5179  -20.6824   23.4813 O   0  0  0  0  0  0  0  0  0  0  0  0
  -24.6762  -30.8846   29.0330 F   0  0  0  0  0  0  0  0  0  0  0  0
  -21.4502  -31.7908   25.6898 F   0  0  0  0  0  0  0  0  0  0  0  0
  1  2  1  0  0  0  0
  1  5  2  0  0  0  0
  2  6  2  0  0  0  0
  3  8  2  0  0  0  0
  3 17  1  0  0  0  0
  4  9  1  0  0  0  0
  4 17  2  0  0  0  0
  5 20  1  0  0  0  0
  6 22  1  0  0  0  0
  7 10  2  0  0  0  0
  7 21  1  0  0  0  0
  8 26  1  0  0  0  0
  9 26  2  0  0  0  0
 10 27  1  0  0  0  0
 11 12  2  0  0  0  0
 11 28  1  0  0  0  0
 12 30  1  0  0  0  0
 13 18  1  0  0  0  0
 13 24  2  0  0  0  0
 14 18  2  0  0  0  0
 14 25  1  0  0  0  0
 15 23  1  0  0  0  0
 15 27  2  0  0  0  0
 16 30  2  0  0  0  0
 16 31  1  0  0  0  0
 17 32  1  0  0  0  0
 18 34  1  0  0  0  0
 19 32  1  0  0  0  0
 19 33  2  0  0  0  0
 19 35  1  0  0  0  0
 20 22  2  0  0  0  0
 20 40  1  0  0  0  0
 21 23  2  0  0  0  0
 21 41  1  0  0  0  0
 22 49  1  0  0  0  0
 23 42  1  0  0  0  0
 24 29  1  0  0  0  0
 24 52  1  0  0  0  0
 25 29  2  0  0  0  0
 25 53  1  0  0  0  0
 26 81  1  0  0  0  0
 27 82  1  0  0  0  0
 28 31  2  0  0  0  0
 28 81  1  0  0  0  0
 29 83  1  0  0  0  0
 30 84  1  0  0  0  0
 31 85  1  0  0  0  0
 32 65  2  0  0  0  0
 33 66  1  0  0  0  0
 33 69  1  0  0  0  0
 34 71  1  0  0  0  0
 34 75  2  0  0  0  0
 35 70  1  0  0  0  0
 35 76  2  0  0  0  0
 36 50  1  0  0  0  0
 36 72  1  0  0  0  0
 36 77  2  0  0  0  0
 37 62  1  0  0  0  0
 37 67  1  0  0  0  0
 37 78  2  0  0  0  0
 38 63  1  0  0  0  0
 38 73  1  0  0  0  0
 38 79  2  0  0  0  0
 39 68  1  0  0  0  0
 39 71  1  0  0  0  0
 39 80  2  0  0  0  0
 40 43  1  0  0  0  0
 41 50  1  0  0  0  0
 42 67  1  0  0  0  0
 43 45  1  0  0  0  0
 44 46  1  0  0  0  0
 44 47  1  0  0  0  0
 45 49  1  0  0  0  0
 46 51  1  0  0  0  0
 47 68  1  0  0  0  0
 48 51  1  0  0  0  0
 48 68  1  0  0  0  0
 49 72  1  0  0  0  0
 50 67  1  0  0  0  0
 51 66  1  0  0  0  0
 54 63  1  0  0  0  0
 55 64  1  0  0  0  0
 56 64  1  0  0  0  0
 57 64  1  0  0  0  0
 58 74  1  0  0  0  0
 59 60  1  0  0  0  0
 59 61  1  0  0  0  0
 60 82  1  0  0  0  0
 61 83  1  0  0  0  0
 62 64  1  0  0  0  0
 62 73  1  0  0  0  0
 63 74  1  0  0  0  0
 65 66  1  0  0  0  0
M  CHG  1  74   1
M  ISO  4  39 100  60 101  71 100  82 101
M  END
> <Batch ID>
0108

> <Smiles>
CNC(C)C(=O)NC(C(=O)N1Cc2cc([101O:1][101CH2:1]CCOc3c(C)cc(C(=O)[100NH:0][100C:0](=O)N4CCCC(n5nc(-c6ccc(Oc7ccc(F)cc7F)cc6)c(C(N)=O)c5N)C4)cc3C)ccc2CC1C(=O)NC1CCCc2ccccc21)C(C)(C)C

> <Shape>
0.264

> <Color>
0.058

> <Negative vol penalty>
0.000

$$$$

  -OEChem-04052301203D

 86 95  0     1  0  0  0  0  0999 V2000
  -16.6349  -29.1976   23.0837 C   0  0  0  0  0  0  0  0  0  0  0  0
  -17.6111  -29.3161   22.0996 C   0  0  0  0  0  0  0  0  0  0  0  0
  -26.4783  -13.3256   21.3374 C   0  0  0  0  0  0  0  0  0  0  0  0
  -25.3903  -14.6936   19.6695 C   0  0  0  0  0  0  0  0  0  0  0  0
  -16.9842  -28.7628   24.3616 C   0  0  0  0  0  0  0  0  0  0  0  0
  -18.9373  -29.0008   22.3931 C   0  0  0  0  0  0  0  0  0  0  0  0
  -24.8325  -26.2856   19.3614 C   0  0  0  0  0  0  0  0  0  0  0  0
  -25.2748  -12.6633   21.5793 C   0  0  0  0  0  0  0  0  0  0  0  0
  -24.1868  -14.0313   19.9113 C   0  0  0  0  0  0  0  0  0  0  0  0
  -26.1828  -26.5803   19.1781 C   0  0  0  0  0  0  0  0  0  0  0  0
  -23.4386  -10.2236   20.1271 C   0  0  0  0  0  0  0  0  0  0  0  0
  -23.4727   -8.8328   20.2269 C   0  0  0  0  0  0  0  0  0  0  0  0
  -26.6562  -25.7633   21.3979 C   0  0  0  0  0  0  0  0  0  0  0  0
  -29.2146  -24.2056   17.0996 C   0  0  0  0  0  0  0  0  0  0  0  0
  -28.0270  -22.3670   18.1223 C   0  0  0  0  0  0  0  0  0  0  0  0
  -30.0025  -23.2679   19.1821 C   0  0  0  0  0  0  0  0  0  0  0  0
  -22.6068   -8.9731   22.4780 C   0  0  0  0  0  0  0  0  0  0  0  0
  -26.5361  -14.3408   20.3825 C   0  0  0  0  0  0  0  0  0  0  0  0
  -28.7702  -14.6739   19.1971 C   0  0  0  0  0  0  0  0  0  0  0  0
  -18.3137  -28.4327   24.6681 C   0  0  0  0  0  0  0  0  0  0  0  0
  -24.3815  -25.7367   20.5704 C   0  0  0  0  0  0  0  0  0  0  0  0
  -19.3049  -28.5623   23.6766 C   0  0  0  0  0  0  0  0  0  0  0  0
  -25.3000  -25.4602   21.5931 C   0  0  0  0  0  0  0  0  0  0  0  0
  -28.1603  -23.2925   17.0872 C   0  0  0  0  0  0  0  0  0  0  0  0
  -30.1357  -24.1933   18.1470 C   0  0  0  0  0  0  0  0  0  0  0  0
  -28.9481  -22.3547   19.1698 C   0  0  0  0  0  0  0  0  0  0  0  0
  -24.1291  -13.0161   20.8663 C   0  0  0  0  0  0  0  0  0  0  0  0
  -27.0944  -26.3219   20.1975 C   0  0  0  0  0  0  0  0  0  0  0  0
  -22.9886  -10.9892   21.2028 C   0  0  0  0  0  0  0  0  0  0  0  0
  -23.0568   -8.2075   21.4023 C   0  0  0  0  0  0  0  0  0  0  0  0
  -22.5727  -10.3639   22.3782 C   0  0  0  0  0  0  0  0  0  0  0  0
  -27.7789  -15.0257   20.1326 C   0  0  0  0  0  0  0  0  0  0  0  0
  -29.7415  -15.6330   19.3490 C   0  0  0  0  0  0  0  0  0  0  0  0
  -31.4898  -26.2334   20.4379 C   0  0  0  0  0  0  0  0  0  0  0  0
  -28.8096  -13.5781   18.2733 C   0  0  0  0  0  0  0  0  0  0  0  0
  -22.3695  -26.6725   22.8464 C   0  0  0  0  0  0  0  0  0  0  0  0
  -22.9227  -23.6979   24.0162 C   0  0  0  0  0  0  0  0  0  0  0  0
  -24.9942  -20.9912   24.1877 C   0  0  0  0  0  0  0  0  0  0  0  0
  -29.6392  -21.2678   21.3348 C   0  0  0  0  0  0  0  0  0  0  0  0
  -18.6510  -28.0123   26.0767 C   0  0  0  0  0  0  0  0  0  0  0  0
  -22.9257  -25.3997   20.7424 C   0  0  0  0  0  0  0  0  0  0  0  0
  -24.8699  -24.8527   22.9025 C   0  0  0  0  0  0  0  0  0  0  0  0
  -31.0192  -27.5193   21.0721 C   0  0  0  0  0  0  0  0  0  0  0  0
  -20.0157  -27.3398   26.2014 C   0  0  0  0  0  0  0  0  0  0  0  0
  -30.7016  -28.4109   19.8752 C   0  0  0  0  0  0  0  0  0  0  0  0
  -31.6034  -18.5917   22.6222 C   0  0  0  0  0  0  0  0  0  0  0  0
  -21.0747  -28.1370   25.4465 C   0  0  0  0  0  0  0  0  0  0  0  0
  -30.9395  -17.3419   22.0398 C   0  0  0  0  0  0  0  0  0  0  0  0
  -30.5763  -19.6630   22.9844 C   0  0  0  0  0  0  0  0  0  0  0  0
  -28.9893  -18.7793   21.3203 C   0  0  0  0  0  0  0  0  0  0  0  0
  -20.7501  -28.2060   23.9494 C   0  0  1  0  0  0  0  0  0  0  0  0
  -22.4997  -25.3198   22.2051 C   0  0  1  0  0  0  0  0  0  0  0  0
  -29.9888  -17.6973   20.8798 C   0  0  2  0  0  0  0  0  0  0  0  0
  -30.2954  -27.4354   18.7748 C   0  0  2  0  0  0  0  0  0  0  0  0
  -27.1756  -23.3056   15.9672 C   0  0  0  0  0  0  0  0  0  0  0  0
  -25.1939  -18.7278   25.2531 C   0  0  0  0  0  0  0  0  0  0  0  0
  -23.6603  -25.0140   26.6683 C   0  0  0  0  0  0  0  0  0  0  0  0
  -24.7350  -22.8606   27.3582 C   0  0  0  0  0  0  0  0  0  0  0  0
  -22.2875  -22.9345   26.8818 C   0  0  0  0  0  0  0  0  0  0  0  0
  -25.0506  -19.6310   21.5598 C   0  0  0  0  0  0  0  0  0  0  0  0
  -31.2704  -25.1764   18.1603 C   0  0  0  0  0  0  0  0  0  0  0  0
  -28.7927  -27.1741   18.7673 C   0  0  0  0  0  0  0  0  0  1  0  0
  -23.9286  -23.0923   24.9651 C   0  0  1  0  0  0  0  0  0  0  0  0
  -24.7248  -19.5052   24.0331 C   0  0  2  0  0  0  0  0  0  0  0  0
  -23.6610  -23.4886   26.4445 C   0  0  0  0  0  0  0  0  0  0  0  0
  -28.0917  -16.1227   20.8275 N   0  0  0  0  0  0  0  0  0  0  0  0
  -29.2907  -16.4683   20.3283 N   0  0  0  0  0  0  0  0  0  0  0  0
  -31.0519  -26.2437   19.1153 N   0  0  0  0  0  0  0  0  0  0  0  0
  -23.4350  -24.5469   23.0249 N   0  0  0  0  0  0  0  0  0  0  0  0
  -29.7139  -19.9512   21.8364 N   0  0  0  0  0  0  0  0  0  0  0  0
  -30.9288  -15.8349   18.7390 N   0  0  0  0  0  0  0  0  0  0  0  0
  -27.7286  -12.6863   18.2481 N   0  0  0  0  0  0  0  0  0  0  0  0
  -28.8127  -21.4146   20.2213 N   0  0  0  0  0  0  0  0  0  0  0  0
  -21.0961  -26.9602   23.2993 N   0  0  0  0  0  0  0  0  0  0  0  0
  -23.9081  -21.6545   24.7185 N   0  0  0  0  0  0  0  0  0  0  0  0
  -25.4334  -18.9723   22.8352 N   0  3  0  0  0  0  0  0  0  0  0  0
  -32.1065  -25.3560   21.0237 O   0  0  0  0  0  0  0  0  0  0  0  0
  -29.7821  -13.3857   17.5048 O   0  0  0  0  0  0  0  0  0  0  0  0
  -23.3520  -27.4005   22.9258 O   0  0  0  0  0  0  0  0  0  0  0  0
  -21.7274  -23.4220   24.1452 O   0  0  0  0  0  0  0  0  0  0  0  0
  -26.0625  -21.5108   23.8729 O   0  0  0  0  0  0  0  0  0  0  0  0
  -30.2837  -22.1916   21.8382 O   0  0  0  0  0  0  0  0  0  0  0  0
  -22.9546  -12.3699   21.1019 O   0  0  0  0  0  0  0  0  0  0  0  0
  -28.4129  -26.6092   20.0215 O   0  0  0  0  0  0  0  0  0  1  0  0
  -23.0882   -6.8718   21.4974 F   0  0  0  0  0  0  0  0  0  0  0  0
  -22.1383  -11.0941   23.4145 F   0  0  0  0  0  0  0  0  0  0  0  0
  1  2  1  0  0  0  0
  1  5  2  0  0  0  0
  2  6  2  0  0  0  0
  3  8  2  0  0  0  0
  3 18  1  0  0  0  0
  4  9  1  0  0  0  0
  4 18  2  0  0  0  0
  5 20  1  0  0  0  0
  6 22  1  0  0  0  0
  7 10  2  0  0  0  0
  7 21  1  0  0  0  0
  8 27  1  0  0  0  0
  9 27  2  0  0  0  0
 10 28  1  0  0  0  0
 11 12  2  0  0  0  0
 11 29  1  0  0  0  0
 12 30  1  0  0  0  0
 13 23  1  0  0  0  0
 13 28  2  0  0  0  0
 14 24  2  0  0  0  0
 14 25  1  0  0  0  0
 15 24  1  0  0  0  0
 15 26  2  0  0  0  0
 16 25  2  0  0  0  0
 16 26  1  0  0  0  0
 17 30  2  0  0  0  0
 17 31  1  0  0  0  0
 18 32  1  0  0  0  0
 19 32  1  0  0  0  0
 19 33  2  0  0  0  0
 19 35  1  0  0  0  0
 20 22  2  0  0  0  0
 20 40  1  0  0  0  0
 21 23  2  0  0  0  0
 21 41  1  0  0  0  0
 22 51  1  0  0  0  0
 23 42  1  0  0  0  0
 24 55  1  0  0  0  0
 25 61  1  0  0  0  0
 26 73  1  0  0  0  0
 27 83  1  0  0  0  0
 28 84  1  0  0  0  0
 29 31  2  0  0  0  0
 29 83  1  0  0  0  0
 30 85  1  0  0  0  0
 31 86  1  0  0  0  0
 32 66  2  0  0  0  0
 33 67  1  0  0  0  0
 33 71  1  0  0  0  0
 34 43  1  0  0  0  0
 34 68  1  0  0  0  0
 34 77  2  0  0  0  0
 35 72  1  0  0  0  0
 35 78  2  0  0  0  0
 36 52  1  0  0  0  0
 36 74  1  0  0  0  0
 36 79  2  0  0  0  0
 37 63  1  0  0  0  0
 37 69  1  0  0  0  0
 37 80  2  0  0  0  0
 38 64  1  0  0  0  0
 38 75  1  0  0  0  0
 38 81  2  0  0  0  0
 39 70  1  0  0  0  0
 39 73  1  0  0  0  0
 39 82  2  0  0  0  0
 40 44  1  0  0  0  0
 41 52  1  0  0  0  0
 42 69  1  0  0  0  0
 43 45  1  0  0  0  0
 44 47  1  0  0  0  0
 45 54  1  0  0  0  0
 46 48  1  0  0  0  0
 46 49  1  0  0  0  0
 47 51  1  0  0  0  0
 48 53  1  0  0  0  0
 49 70  1  0  0  0  0
 50 53  1  0  0  0  0
 50 70  1  0  0  0  0
 51 74  1  0  0  0  0
 52 69  1  0  0  0  0
 53 67  1  0  0  0  0
 54 62  1  0  0  0  0
 54 68  1  0  0  0  0
 56 64  1  0  0  0  0
 57 65  1  0  0  0  0
 58 65  1  0  0  0  0
 59 65  1  0  0  0  0
 60 76  1  0  0  0  0
 61 68  1  0  0  0  0
 62 84  1  0  0  0  0
 63 65  1  0  0  0  0
 63 75  1  0  0  0  0
 64 76  1  0  0  0  0
 66 67  1  0  0  0  0
M  CHG  1  76   1
M  ISO  4  39 100  62 101  73 100  84 101
M  END
> <Batch ID>
0108

> <Smiles>
CNC(C)C(=O)NC(C(=O)N1Cc2cc([101O:1][101CH2:1]C3CCC(=O)N3Cc3cc(C)cc([100NH:0][100C:0](=O)N4CCCC(n5nc(-c6ccc(Oc7ccc(F)cc7F)cc6)c(C(N)=O)c5N)C4)c3)ccc2CC1C(=O)NC1CCCc2ccccc21)C(C)(C)C

> <Shape>
0.260

> <Color>
0.058

> <Negative vol penalty>
0.000

$$$$

  -OEChem-04052301203D

 87 95  0     1  0  0  0  0  0999 V2000
  -28.2686  -24.7192   16.9146 C   0  0  0  0  0  0  0  0  0  0  0  0
  -27.0689  -24.9127   17.5918 C   0  0  0  0  0  0  0  0  0  0  0  0
  -25.9385  -19.6832   19.5613 C   0  0  0  0  0  0  0  0  0  0  0  0
  -26.8550  -21.2752   17.9921 C   0  0  0  0  0  0  0  0  0  0  0  0
  -29.4526  -25.2419   17.4331 C   0  0  0  0  0  0  0  0  0  0  0  0
  -27.0526  -25.6282   18.7886 C   0  0  0  0  0  0  0  0  0  0  0  0
  -23.2494  -28.9648   19.0056 C   0  0  0  0  0  0  0  0  0  0  0  0
  -15.8579  -22.3841   21.6059 C   0  0  0  0  0  0  0  0  0  0  0  0
  -27.2240  -19.2215   19.8438 C   0  0  0  0  0  0  0  0  0  0  0  0
  -28.1406  -20.8135   18.2745 C   0  0  0  0  0  0  0  0  0  0  0  0
  -21.9802  -28.4657   19.2952 C   0  0  0  0  0  0  0  0  0  0  0  0
  -15.1793  -21.2233   21.2351 C   0  0  0  0  0  0  0  0  0  0  0  0
  -30.2364  -17.3785   20.7113 C   0  0  0  0  0  0  0  0  0  0  0  0
  -30.4330  -15.9989   20.7713 C   0  0  0  0  0  0  0  0  0  0  0  0
  -16.8630  -22.4974   19.4118 C   0  0  0  0  0  0  0  0  0  0  0  0
  -22.2349  -29.1660   21.5895 C   0  0  0  0  0  0  0  0  0  0  0  0
  -29.7043  -15.7954   18.4768 C   0  0  0  0  0  0  0  0  0  0  0  0
  -25.7540  -20.7101   18.6354 C   0  0  0  0  0  0  0  0  0  0  0  0
  -16.1844  -21.3365   19.0410 C   0  0  0  0  0  0  0  0  0  0  0  0
  -23.7339  -22.2264   18.9926 C   0  0  0  0  0  0  0  0  0  0  0  0
  -29.4494  -25.9725   18.6318 C   0  0  0  0  0  0  0  0  0  0  0  0
  -24.0266  -29.5595   20.0100 C   0  0  0  0  0  0  0  0  0  0  0  0
  -28.2379  -26.1601   19.3243 C   0  0  0  0  0  0  0  0  0  0  0  0
  -23.5126  -29.6742   21.3095 C   0  0  0  0  0  0  0  0  0  0  0  0
  -16.6997  -23.0213   20.6942 C   0  0  0  0  0  0  0  0  0  0  0  0
  -28.3251  -19.7866   19.2004 C   0  0  0  0  0  0  0  0  0  0  0  0
  -21.4740  -28.5636   20.5879 C   0  0  0  0  0  0  0  0  0  0  0  0
  -15.3425  -20.6995   19.9527 C   0  0  0  0  0  0  0  0  0  0  0  0
  -29.7736  -17.9666   19.5341 C   0  0  0  0  0  0  0  0  0  0  0  0
  -30.1670  -15.2073   19.6541 C   0  0  0  0  0  0  0  0  0  0  0  0
  -29.5076  -17.1750   18.4169 C   0  0  0  0  0  0  0  0  0  0  0  0
  -24.4262  -21.1871   18.3428 C   0  0  0  0  0  0  0  0  0  0  0  0
  -22.5231  -22.2885   18.3471 C   0  0  0  0  0  0  0  0  0  0  0  0
  -16.3710  -20.7963   17.6698 C   0  0  0  0  0  0  0  0  0  0  0  0
  -24.1482  -23.0612   20.0821 C   0  0  0  0  0  0  0  0  0  0  0  0
  -26.8370  -28.9158   21.3482 C   0  0  0  0  0  0  0  0  0  0  0  0
  -18.8221  -26.1086   20.9092 C   0  0  0  0  0  0  0  0  0  0  0  0
  -26.3348  -31.7500   22.8440 C   0  0  0  0  0  0  0  0  0  0  0  0
  -24.1093  -34.0975   23.9318 C   0  0  0  0  0  0  0  0  0  0  0  0
  -18.0617  -19.8806   16.1120 C   0  0  0  0  0  0  0  0  0  0  0  0
  -30.7615  -26.4778   19.1775 C   0  0  0  0  0  0  0  0  0  0  0  0
  -25.3829  -30.1170   19.6753 C   0  0  0  0  0  0  0  0  0  0  0  0
  -24.2987  -30.3219   22.4189 C   0  0  0  0  0  0  0  0  0  0  0  0
  -30.6016  -27.5445   20.2577 C   0  0  0  0  0  0  0  0  0  0  0  0
  -20.9458  -20.0687   14.0764 C   0  0  0  0  0  0  0  0  0  0  0  0
  -29.5481  -27.1195   21.2758 C   0  0  0  0  0  0  0  0  0  0  0  0
  -22.0529  -20.4699   15.0550 C   0  0  0  0  0  0  0  0  0  0  0  0
  -19.9516  -19.0976   14.7116 C   0  0  0  0  0  0  0  0  0  0  0  0
  -20.4845  -19.9373   16.9630 C   0  0  0  0  0  0  0  0  0  0  0  0
  -28.1758  -26.9519   20.6124 C   0  0  1  0  0  0  0  0  0  0  0  0
  -26.2949  -30.2408   20.8920 C   0  0  1  0  0  0  0  0  0  0  0  0
  -21.4716  -20.9688   16.3932 C   0  0  1  0  0  0  0  0  0  0  0  0
  -14.7356  -17.1741   19.5101 C   0  0  0  0  0  0  0  0  0  0  0  0
  -23.9945  -36.2859   25.1544 C   0  0  0  0  0  0  0  0  0  0  0  0
  -26.8019  -30.2960   25.4856 C   0  0  0  0  0  0  0  0  0  0  0  0
  -25.7602  -32.2449   26.6624 C   0  0  0  0  0  0  0  0  0  0  0  0
  -27.8526  -32.5609   25.3414 C   0  0  0  0  0  0  0  0  0  0  0  0
  -22.9132  -35.4707   21.5988 C   0  0  0  0  0  0  0  0  0  0  0  0
  -18.2622  -24.9000   20.1895 C   0  0  0  0  0  0  0  0  0  0  0  0
  -19.7828  -26.9628   20.1050 C   0  0  0  0  0  0  0  0  0  1  0  0
  -14.9346  -18.3961   20.3812 C   0  0  0  0  0  0  0  0  0  0  0  0
  -25.6674  -32.1772   24.1290 C   0  0  1  0  0  0  0  0  0  0  0  0
  -24.0930  -35.6093   23.7960 C   0  0  2  0  0  0  0  0  0  0  0  0
  -26.5063  -31.8057   25.3843 C   0  0  0  0  0  0  0  0  0  0  0  0
  -23.7144  -20.6289   17.3600 N   0  0  0  0  0  0  0  0  0  0  0  0
  -22.5622  -21.3201   17.3875 N   0  0  0  0  0  0  0  0  0  0  0  0
  -25.6222  -30.8461   22.0433 N   0  0  0  0  0  0  0  0  0  0  0  0
  -19.4406  -19.6477   15.9684 N   0  0  0  0  0  0  0  0  0  0  0  0
  -21.4395  -23.0764   18.5124 N   0  0  0  0  0  0  0  0  0  0  0  0
  -25.4240  -22.8634   20.6277 N   0  0  0  0  0  0  0  0  0  0  0  0
  -17.3743  -24.1763   21.0630 N   0  0  0  0  0  0  0  0  0  0  0  0
  -17.6791  -20.4473   17.3329 N   0  0  0  0  0  0  0  0  0  0  0  0
  -27.5636  -28.2432   20.3843 N   0  0  0  0  0  0  0  0  0  0  0  0
  -25.3953  -33.6040   23.9929 N   0  0  0  0  0  0  0  0  0  0  0  0
  -22.9309  -36.0427   22.9697 N   0  3  0  0  0  0  0  0  0  0  0  0
  -15.3903  -20.6532   16.9448 O   0  0  0  0  0  0  0  0  0  0  0  0
  -23.4028  -23.9451   20.5686 O   0  0  0  0  0  0  0  0  0  0  0  0
  -26.6139  -28.5327   22.4907 O   0  0  0  0  0  0  0  0  0  0  0  0
  -18.5247  -26.3887   22.0697 O   0  0  0  0  0  0  0  0  0  0  0  0
  -27.4442  -32.2071   22.5577 O   0  0  0  0  0  0  0  0  0  0  0  0
  -23.0836  -33.4222   23.9826 O   0  0  0  0  0  0  0  0  0  0  0  0
  -17.2459  -19.6405   15.2164 O   0  0  0  0  0  0  0  0  0  0  0  0
  -29.5797  -19.3365   19.4760 O   0  0  0  0  0  0  0  0  0  0  0  0
  -20.2357  -28.0767   20.8734 O   0  0  0  0  0  0  0  0  0  1  0  0
  -14.6697  -19.5652   19.6090 O   0  0  0  0  0  0  0  0  0  0  0  0
  -30.3573  -13.8827   19.7113 F   0  0  0  0  0  0  0  0  0  0  0  0
  -29.0640  -17.7344   17.2828 F   0  0  0  0  0  0  0  0  0  0  0  0
  1  2  1  0  0  0  0
  1  5  2  0  0  0  0
  2  6  2  0  0  0  0
  3  9  2  0  0  0  0
  3 18  1  0  0  0  0
  4 10  1  0  0  0  0
  4 18  2  0  0  0  0
  5 21  1  0  0  0  0
  6 23  1  0  0  0  0
  7 11  2  0  0  0  0
  7 22  1  0  0  0  0
  8 12  2  0  0  0  0
  8 25  1  0  0  0  0
  9 26  1  0  0  0  0
 10 26  2  0  0  0  0
 11 27  1  0  0  0  0
 12 28  1  0  0  0  0
 13 14  2  0  0  0  0
 13 29  1  0  0  0  0
 14 30  1  0  0  0  0
 15 19  1  0  0  0  0
 15 25  2  0  0  0  0
 16 24  1  0  0  0  0
 16 27  2  0  0  0  0
 17 30  2  0  0  0  0
 17 31  1  0  0  0  0
 18 32  1  0  0  0  0
 19 28  2  0  0  0  0
 19 34  1  0  0  0  0
 20 32  1  0  0  0  0
 20 33  2  0  0  0  0
 20 35  1  0  0  0  0
 21 23  2  0  0  0  0
 21 41  1  0  0  0  0
 22 24  2  0  0  0  0
 22 42  1  0  0  0  0
 23 50  1  0  0  0  0
 24 43  1  0  0  0  0
 25 71  1  0  0  0  0
 26 83  1  0  0  0  0
 27 84  1  0  0  0  0
 28 85  1  0  0  0  0
 29 31  2  0  0  0  0
 29 83  1  0  0  0  0
 30 86  1  0  0  0  0
 31 87  1  0  0  0  0
 32 65  2  0  0  0  0
 33 66  1  0  0  0  0
 33 69  1  0  0  0  0
 34 72  1  0  0  0  0
 34 76  2  0  0  0  0
 35 70  1  0  0  0  0
 35 77  2  0  0  0  0
 36 51  1  0  0  0  0
 36 73  1  0  0  0  0
 36 78  2  0  0  0  0
 37 59  1  0  0  0  0
 37 60  1  0  0  0  0
 37 79  2  0  0  0  0
 38 62  1  0  0  0  0
 38 67  1  0  0  0  0
 38 80  2  0  0  0  0
 39 63  1  0  0  0  0
 39 74  1  0  0  0  0
 39 81  2  0  0  0  0
 40 68  1  0  0  0  0
 40 72  1  0  0  0  0
 40 82  2  0  0  0  0
 41 44  1  0  0  0  0
 42 51  1  0  0  0  0
 43 67  1  0  0  0  0
 44 46  1  0  0  0  0
 45 47  1  0  0  0  0
 45 48  1  0  0  0  0
 46 50  1  0  0  0  0
 47 52  1  0  0  0  0
 48 68  1  0  0  0  0
 49 52  1  0  0  0  0
 49 68  1  0  0  0  0
 50 73  1  0  0  0  0
 51 67  1  0  0  0  0
 52 66  1  0  0  0  0
 53 61  1  0  0  0  0
 54 63  1  0  0  0  0
 55 64  1  0  0  0  0
 56 64  1  0  0  0  0
 57 64  1  0  0  0  0
 58 75  1  0  0  0  0
 59 71  1  0  0  0  0
 60 84  1  0  0  0  0
 61 85  1  0  0  0  0
 62 64  1  0  0  0  0
 62 74  1  0  0  0  0
 63 75  1  0  0  0  0
 65 66  1  0  0  0  0
M  CHG  1  75   1
M  ISO  4  40 100  60 101  72 100  84 101
M  END
> <Batch ID>
0108

> <Smiles>
CCOc1ccc(NCC(=O)[101CH2:1][101O:1]c2ccc3c(c2)CN(C(=O)C(NC(=O)C(C)NC)C(C)(C)C)C(C(=O)NC2CCCc4ccccc42)C3)cc1C(=O)[100NH:0][100C:0](=O)N1CCCC(n2nc(-c3ccc(Oc4ccc(F)cc4F)cc3)c(C(N)=O)c2N)C1

> <Shape>
0.244

> <Color>
0.056

> <Negative vol penalty>
0.000

$$$$

  -OEChem-04052301203D

 88 97  0     1  0  0  0  0  0999 V2000
  -18.9454  -27.1159   25.9545 C   0  0  0  0  0  0  0  0  0  0  0  0
  -20.3029  -26.8995   25.7407 C   0  0  0  0  0  0  0  0  0  0  0  0
  -24.4862   -9.0673   21.8680 C   0  0  0  0  0  0  0  0  0  0  0  0
  -23.1951   -9.3654   19.8477 C   0  0  0  0  0  0  0  0  0  0  0  0
  -30.8181  -20.3234   21.3153 C   0  0  0  0  0  0  0  0  0  0  0  0
  -18.1448  -27.5925   24.9173 C   0  0  0  0  0  0  0  0  0  0  0  0
  -20.8605  -27.1587   24.4891 C   0  0  0  0  0  0  0  0  0  0  0  0
  -26.4834  -29.2927   23.3340 C   0  0  0  0  0  0  0  0  0  0  0  0
  -31.0798  -21.6935   21.3198 C   0  0  0  0  0  0  0  0  0  0  0  0
  -23.5219   -8.1843   22.3539 C   0  0  0  0  0  0  0  0  0  0  0  0
  -22.2308   -8.4824   20.3336 C   0  0  0  0  0  0  0  0  0  0  0  0
  -27.6697  -28.6595   22.9660 C   0  0  0  0  0  0  0  0  0  0  0  0
  -22.6509   -4.9492   21.8973 C   0  0  0  0  0  0  0  0  0  0  0  0
  -23.0941   -3.7627   22.4816 C   0  0  0  0  0  0  0  0  0  0  0  0
  -27.2054  -29.1491   20.6500 C   0  0  0  0  0  0  0  0  0  0  0  0
  -29.8789  -21.9296   19.2367 C   0  0  0  0  0  0  0  0  0  0  0  0
  -22.0217   -4.3835   24.5557 C   0  0  0  0  0  0  0  0  0  0  0  0
  -24.3228   -9.6579   20.6149 C   0  0  0  0  0  0  0  0  0  0  0  0
  -30.0870  -19.7564   20.2715 C   0  0  0  0  0  0  0  0  0  0  0  0
  -26.4517  -10.2516   19.3410 C   0  0  0  0  0  0  0  0  0  0  0  0
  -18.6947  -27.8668   23.6551 C   0  0  0  0  0  0  0  0  0  0  0  0
  -25.6424  -29.8503   22.3602 C   0  0  0  0  0  0  0  0  0  0  0  0
  -20.0662  -27.6381   23.4336 C   0  0  0  0  0  0  0  0  0  0  0  0
  -26.0103  -29.7911   21.0085 C   0  0  0  0  0  0  0  0  0  0  0  0
  -29.6173  -20.5595   19.2322 C   0  0  0  0  0  0  0  0  0  0  0  0
  -30.6102  -22.4966   20.2805 C   0  0  0  0  0  0  0  0  0  0  0  0
  -22.3943   -7.8919   21.5868 C   0  0  0  0  0  0  0  0  0  0  0  0
  -28.0295  -28.5851   21.6236 C   0  0  0  0  0  0  0  0  0  0  0  0
  -21.8932   -5.8529   22.6422 C   0  0  0  0  0  0  0  0  0  0  0  0
  -22.7795   -3.4798   23.8107 C   0  0  0  0  0  0  0  0  0  0  0  0
  -21.5786   -5.5701   23.9714 C   0  0  0  0  0  0  0  0  0  0  0  0
  -25.3182  -10.5705   20.1126 C   0  0  0  0  0  0  0  0  0  0  0  0
  -27.0695  -11.4588   19.1233 C   0  0  0  0  0  0  0  0  0  0  0  0
  -30.1809  -26.1906   19.9923 C   0  0  0  0  0  0  0  0  0  0  0  0
  -29.8972  -24.9008   20.2966 C   0  0  0  0  0  0  0  0  0  0  0  0
  -31.5850  -26.5277   19.5802 C   0  0  0  0  0  0  0  0  0  0  0  0
  -29.8302  -18.3222   20.2962 C   0  0  0  0  0  0  0  0  0  0  0  0
  -29.1431  -17.6687   21.2549 C   0  0  0  0  0  0  0  0  0  0  0  0
  -26.9054   -8.9781   18.8636 C   0  0  0  0  0  0  0  0  0  0  0  0
  -28.9584  -16.2086   21.1325 C   0  0  0  0  0  0  0  0  0  0  0  0
  -22.6562  -29.3230   21.4073 C   0  0  0  0  0  0  0  0  0  0  0  0
  -23.1936  -31.9415   19.5695 C   0  0  0  0  0  0  0  0  0  0  0  0
  -25.4485  -33.9686   18.0034 C   0  0  0  0  0  0  0  0  0  0  0  0
  -17.7803  -28.3358   22.5513 C   0  0  0  0  0  0  0  0  0  0  0  0
  -24.3793  -30.5534   22.7759 C   0  0  0  0  0  0  0  0  0  0  0  0
  -25.1522  -30.3917   19.9261 C   0  0  0  0  0  0  0  0  0  0  0  0
  -32.5712  -25.4004   19.3912 C   0  0  0  0  0  0  0  0  0  0  0  0
  -18.5217  -28.9411   21.3621 C   0  0  0  0  0  0  0  0  0  0  0  0
  -25.4905  -16.1767   19.9474 C   0  0  0  0  0  0  0  0  0  0  0  0
  -19.6948  -28.0544   20.9568 C   0  0  0  0  0  0  0  0  0  0  0  0
  -25.2207  -14.6764   19.8692 C   0  0  0  0  0  0  0  0  0  0  0  0
  -32.2982  -24.2481   20.3419 C   0  0  0  0  0  0  0  0  0  0  0  0
  -26.4262  -16.5299   21.1025 C   0  0  0  0  0  0  0  0  0  0  0  0
  -27.4408  -14.2713   21.0038 C   0  0  0  0  0  0  0  0  0  0  0  0
  -20.7127  -27.9309   22.0971 C   0  0  1  0  0  0  0  0  0  0  0  0
  -23.3450  -30.6347   21.6574 C   0  0  1  0  0  0  0  0  0  0  0  0
  -26.5391  -13.8881   19.8200 C   0  0  1  0  0  0  0  0  0  0  0  0
  -28.8306  -19.9861   18.0977 C   0  0  0  0  0  0  0  0  0  0  0  0
  -28.5091  -24.5257   20.7784 C   0  0  0  0  0  0  0  0  0  0  0  0
  -25.5853  -36.0075   16.5467 C   0  0  0  0  0  0  0  0  0  0  0  0
  -22.3174  -30.2795   17.1653 C   0  0  0  0  0  0  0  0  0  0  0  0
  -23.3596  -32.0052   15.6807 C   0  0  0  0  0  0  0  0  0  0  0  0
  -21.4631  -32.6299   17.1759 C   0  0  0  0  0  0  0  0  0  0  0  0
  -27.0050  -35.4570   20.0335 C   0  0  0  0  0  0  0  0  0  0  0  0
  -29.2152  -27.3417   19.9792 C   0  0  0  0  0  0  0  0  0  1  0  0
  -23.7385  -32.1803   18.1821 C   0  0  1  0  0  0  0  0  0  0  0  0
  -25.5936  -35.4794   17.9729 C   0  0  2  0  0  0  0  0  0  0  0  0
  -22.7351  -31.7606   17.0710 C   0  0  0  0  0  0  0  0  0  0  0  0
  -25.2195  -11.8778   20.3680 N   0  0  0  0  0  0  0  0  0  0  0  0
  -26.2988  -12.3910   19.7535 N   0  0  0  0  0  0  0  0  0  0  0  0
  -30.8764  -23.8902   20.2852 N   0  0  0  0  0  0  0  0  0  0  0  0
  -27.6542  -15.7215   21.0670 N   0  0  0  0  0  0  0  0  0  0  0  0
  -23.9239  -31.0629   20.3823 N   0  0  0  0  0  0  0  0  0  0  0  0
  -28.1915  -11.8033   18.4562 N   0  0  0  0  0  0  0  0  0  0  0  0
  -26.1514   -7.8393   19.1783 N   0  0  0  0  0  0  0  0  0  0  0  0
  -21.5272  -29.1244   22.1789 N   0  0  0  0  0  0  0  0  0  0  0  0
  -24.1306  -33.5847   18.1337 N   0  0  0  0  0  0  0  0  0  0  0  0
  -26.8723  -35.8902   18.6186 N   0  3  0  0  0  0  0  0  0  0  0  0
  -31.9118  -27.6912   19.3471 O   0  0  0  0  0  0  0  0  0  0  0  0
  -27.9574   -8.8516   18.1922 O   0  0  0  0  0  0  0  0  0  0  0  0
  -29.9717  -15.5080   21.1006 O   0  0  0  0  0  0  0  0  0  0  0  0
  -23.1141  -28.5491   20.5748 O   0  0  0  0  0  0  0  0  0  0  0  0
  -22.1620  -32.5189   19.9218 O   0  0  0  0  0  0  0  0  0  0  0  0
  -26.4079  -33.2054   17.9164 O   0  0  0  0  0  0  0  0  0  0  0  0
  -21.4532   -7.0301   22.0605 O   0  0  0  0  0  0  0  0  0  0  0  0
  -29.1866  -27.9670   21.2615 O   0  0  0  0  0  0  0  0  0  1  0  0
  -23.2039   -2.3397   24.3712 F   0  0  0  0  0  0  0  0  0  0  0  0
  -20.8500   -6.4338   24.6917 F   0  0  0  0  0  0  0  0  0  0  0  0
  1  2  1  0  0  0  0
  1  6  2  0  0  0  0
  2  7  2  0  0  0  0
  3 10  2  0  0  0  0
  3 18  1  0  0  0  0
  4 11  1  0  0  0  0
  4 18  2  0  0  0  0
  5  9  2  0  0  0  0
  5 19  1  0  0  0  0
  6 21  1  0  0  0  0
  7 23  1  0  0  0  0
  8 12  2  0  0  0  0
  8 22  1  0  0  0  0
  9 26  1  0  0  0  0
 10 27  1  0  0  0  0
 11 27  2  0  0  0  0
 12 28  1  0  0  0  0
 13 14  2  0  0  0  0
 13 29  1  0  0  0  0
 14 30  1  0  0  0  0
 15 24  1  0  0  0  0
 15 28  2  0  0  0  0
 16 25  1  0  0  0  0
 16 26  2  0  0  0  0
 17 30  2  0  0  0  0
 17 31  1  0  0  0  0
 18 32  1  0  0  0  0
 19 25  2  0  0  0  0
 19 37  1  0  0  0  0
 20 32  1  0  0  0  0
 20 33  2  0  0  0  0
 20 39  1  0  0  0  0
 21 23  2  0  0  0  0
 21 44  1  0  0  0  0
 22 24  2  0  0  0  0
 22 45  1  0  0  0  0
 23 55  1  0  0  0  0
 24 46  1  0  0  0  0
 25 58  1  0  0  0  0
 26 71  1  0  0  0  0
 27 85  1  0  0  0  0
 28 86  1  0  0  0  0
 29 31  2  0  0  0  0
 29 85  1  0  0  0  0
 30 87  1  0  0  0  0
 31 88  1  0  0  0  0
 32 69  2  0  0  0  0
 33 70  1  0  0  0  0
 33 74  1  0  0  0  0
 34 35  2  0  0  0  0
 34 36  1  0  0  0  0
 34 65  1  0  0  0  0
 35 59  1  0  0  0  0
 35 71  1  0  0  0  0
 36 47  1  0  0  0  0
 36 79  2  0  0  0  0
 37 38  2  0  0  0  0
 38 40  1  0  0  0  0
 39 75  1  0  0  0  0
 39 80  2  0  0  0  0
 40 72  1  0  0  0  0
 40 81  2  0  0  0  0
 41 56  1  0  0  0  0
 41 76  1  0  0  0  0
 41 82  2  0  0  0  0
 42 66  1  0  0  0  0
 42 73  1  0  0  0  0
 42 83  2  0  0  0  0
 43 67  1  0  0  0  0
 43 77  1  0  0  0  0
 43 84  2  0  0  0  0
 44 48  1  0  0  0  0
 45 56  1  0  0  0  0
 46 73  1  0  0  0  0
 47 52  1  0  0  0  0
 48 50  1  0  0  0  0
 49 51  1  0  0  0  0
 49 53  1  0  0  0  0
 50 55  1  0  0  0  0
 51 57  1  0  0  0  0
 52 71  1  0  0  0  0
 53 72  1  0  0  0  0
 54 57  1  0  0  0  0
 54 72  1  0  0  0  0
 55 76  1  0  0  0  0
 56 73  1  0  0  0  0
 57 70  1  0  0  0  0
 60 67  1  0  0  0  0
 61 68  1  0  0  0  0
 62 68  1  0  0  0  0
 63 68  1  0  0  0  0
 64 78  1  0  0  0  0
 65 86  1  0  0  0  0
 66 68  1  0  0  0  0
 66 77  1  0  0  0  0
 67 78  1  0  0  0  0
 69 70  1  0  0  0  0
M  CHG  1  78   1
M  ISO  4  38 100  40 100  65 101  86 101
M  END
> <Batch ID>
0108

> <Smiles>
CNC(C)C(=O)NC(C(=O)N1Cc2cc([101O:1][101CH2:1]C3=C(C)N(c4ccc(C=[100CH:0][100C:0](=O)N5CCCC(n6nc(-c7ccc(Oc8ccc(F)cc8F)cc7)c(C(N)=O)c6N)C5)c(C)c4)CCC3=O)ccc2CC1C(=O)NC1CCCc2ccccc21)C(C)(C)C

> <Shape>
0.315

> <Color>
0.099

> <Negative vol penalty>
0.000

$$$$

  -OEChem-04052301203D

 89 97  0     1  0  0  0  0  0999 V2000
  -22.2865  -23.7229   21.8486 C   0  0  0  0  0  0  0  0  0  0  0  0
  -23.5931  -23.2463   21.8820 C   0  0  0  0  0  0  0  0  0  0  0  0
  -22.6564  -29.5826   21.4032 C   0  0  0  0  0  0  0  0  0  0  0  0
  -23.7351  -28.7540   23.3999 C   0  0  0  0  0  0  0  0  0  0  0  0
  -21.2364  -22.9045   22.2625 C   0  0  0  0  0  0  0  0  0  0  0  0
  -23.8504  -21.9512   22.3305 C   0  0  0  0  0  0  0  0  0  0  0  0
  -28.1914  -18.1432   20.2909 C   0  0  0  0  0  0  0  0  0  0  0  0
  -21.5679  -30.0049   22.1665 C   0  0  0  0  0  0  0  0  0  0  0  0
  -22.6467  -29.1763   24.1632 C   0  0  0  0  0  0  0  0  0  0  0  0
  -29.4597  -17.8224   20.7729 C   0  0  0  0  0  0  0  0  0  0  0  0
  -18.8427  -28.6127   23.6015 C   0  0  0  0  0  0  0  0  0  0  0  0
  -17.5649  -28.3305   23.1185 C   0  0  0  0  0  0  0  0  0  0  0  0
  -30.2822  -23.1404   22.1761 C   0  0  0  0  0  0  0  0  0  0  0  0
  -28.5413  -15.8886   21.8848 C   0  0  0  0  0  0  0  0  0  0  0  0
  -33.0376  -22.9239   21.7971 C   0  0  0  0  0  0  0  0  0  0  0  0
  -17.0660  -30.6937   23.0579 C   0  0  0  0  0  0  0  0  0  0  0  0
  -23.7400  -28.9571   22.0199 C   0  0  0  0  0  0  0  0  0  0  0  0
  -30.8554  -23.5539   20.9736 C   0  0  0  0  0  0  0  0  0  0  0  0
  -26.0193  -29.2601   20.9153 C   0  0  0  0  0  0  0  0  0  0  0  0
  -21.4799  -21.5955   22.7071 C   0  0  0  0  0  0  0  0  0  0  0  0
  -27.0848  -17.3439   20.6118 C   0  0  0  0  0  0  0  0  0  0  0  0
  -22.8026  -21.1150   22.7520 C   0  0  0  0  0  0  0  0  0  0  0  0
  -27.2605  -16.2000   21.4035 C   0  0  0  0  0  0  0  0  0  0  0  0
  -32.2330  -23.4456   20.7841 C   0  0  0  0  0  0  0  0  0  0  0  0
  -32.4644  -22.5104   22.9996 C   0  0  0  0  0  0  0  0  0  0  0  0
  -21.5631  -29.8017   23.5465 C   0  0  0  0  0  0  0  0  0  0  0  0
  -29.6343  -16.6965   21.5723 C   0  0  0  0  0  0  0  0  0  0  0  0
  -19.2321  -29.9353   23.8128 C   0  0  0  0  0  0  0  0  0  0  0  0
  -31.0867  -22.6187   23.1892 C   0  0  0  0  0  0  0  0  0  0  0  0
  -16.6766  -29.3710   22.8466 C   0  0  0  0  0  0  0  0  0  0  0  0
  -18.3438  -30.9758   23.5409 C   0  0  0  0  0  0  0  0  0  0  0  0
  -24.8643  -28.5202   21.2319 C   0  0  0  0  0  0  0  0  0  0  0  0
  -26.7765  -28.4050   20.1523 C   0  0  0  0  0  0  0  0  0  0  0  0
  -29.9922  -24.0961   19.9330 C   0  0  0  0  0  0  0  0  0  0  0  0
  -26.3759  -30.6005   21.2783 C   0  0  0  0  0  0  0  0  0  0  0  0
  -28.8962  -23.2916   19.3459 C   0  0  0  0  0  0  0  0  0  0  0  0
  -24.3564  -17.8129   22.1737 C   0  0  0  0  0  0  0  0  0  0  0  0
  -23.7093  -14.8011   21.1575 C   0  0  0  0  0  0  0  0  0  0  0  0
  -33.0271  -19.4947   24.1538 C   0  0  0  0  0  0  0  0  0  0  0  0
  -24.8984  -11.7816   20.1014 C   0  0  0  0  0  0  0  0  0  0  0  0
  -20.3173  -20.7644   23.1892 C   0  0  0  0  0  0  0  0  0  0  0  0
  -25.7279  -17.6887   20.0619 C   0  0  0  0  0  0  0  0  0  0  0  0
  -26.1084  -15.2978   21.7600 C   0  0  0  0  0  0  0  0  0  0  0  0
  -20.6360  -19.2755   23.2969 C   0  0  0  0  0  0  0  0  0  0  0  0
  -25.6261  -23.9654   18.0387 C   0  0  0  0  0  0  0  0  0  0  0  0
  -21.9734  -19.0653   23.9998 C   0  0  0  0  0  0  0  0  0  0  0  0
  -25.2165  -25.2506   18.7573 C   0  0  0  0  0  0  0  0  0  0  0  0
  -26.4773  -23.0717   18.9348 C   0  0  0  0  0  0  0  0  0  0  0  0
  -27.2840  -25.0402   20.2088 C   0  0  0  0  0  0  0  0  0  0  0  0
  -23.1194  -19.7075   23.2087 C   0  0  1  0  0  0  0  0  0  0  0  0
  -24.5840  -17.0912   20.8756 C   0  0  1  0  0  0  0  0  0  0  0  0
  -26.4461  -25.9812   19.3257 C   0  0  2  0  0  0  0  0  0  0  0  0
  -33.5751  -25.2280   19.6401 C   0  0  0  0  0  0  0  0  0  0  0  0
  -24.1290   -9.5044   19.3803 C   0  0  0  0  0  0  0  0  0  0  0  0
  -23.1297  -14.0790   24.0649 C   0  0  0  0  0  0  0  0  0  0  0  0
  -23.3052  -11.6643   23.4273 C   0  0  0  0  0  0  0  0  0  0  0  0
  -21.5350  -13.0961   22.4080 C   0  0  0  0  0  0  0  0  0  0  0  0
  -26.1182  -12.0902   17.4226 C   0  0  0  0  0  0  0  0  0  0  0  0
  -29.0962  -22.3651   24.4657 C   0  0  0  0  0  0  0  0  0  0  0  0
  -32.8724  -23.8806   19.5058 C   0  0  0  0  0  0  0  0  0  0  0  0
  -33.3455  -21.9526   24.0798 C   0  0  0  0  0  0  0  0  0  0  0  0
  -33.6994  -18.2025   23.7256 C   0  0  0  0  0  0  0  0  0  0  0  0
  -32.6961  -17.0935   23.4300 C   0  0  0  0  0  0  0  0  0  0  0  0
  -31.7718  -17.4631   22.2790 C   0  0  0  0  0  0  0  0  0  1  0  0
  -23.9430  -13.4143   21.7063 C   0  0  1  0  0  0  0  0  0  0  0  0
  -24.5137  -10.9033   18.9245 C   0  0  2  0  0  0  0  0  0  0  0  0
  -22.9998  -13.0813   22.8967 C   0  0  0  0  0  0  0  0  0  0  0  0
  -24.8817  -27.2897   20.7125 N   0  0  0  0  0  0  0  0  0  0  0  0
  -30.1197  -25.3037   19.4565 N   0  0  0  0  0  0  0  0  0  0  0  0
  -26.0568  -27.2500   20.0617 N   0  0  0  0  0  0  0  0  0  0  0  0
  -27.6147  -23.8055   19.4860 N   0  0  0  0  0  0  0  0  0  0  0  0
  -24.8003  -15.6806   21.2035 N   0  0  0  0  0  0  0  0  0  0  0  0
  -27.9809  -28.5360   19.5568 N   0  0  0  0  0  0  0  0  0  0  0  0
  -25.4830  -31.3393   22.0665 N   0  0  0  0  0  0  0  0  0  0  0  0
  -23.4809  -18.8778   22.0793 N   0  0  0  0  0  0  0  0  0  0  0  0
  -33.7729  -20.6052   23.7863 N   0  0  0  0  0  0  0  0  0  0  0  0
  -23.8219  -12.5017   20.5746 N   0  0  0  0  0  0  0  0  0  0  0  0
  -25.6518  -10.7899   17.9690 N   0  3  0  0  0  0  0  0  0  0  0  0
  -27.4471  -31.1332   20.9009 O   0  0  0  0  0  0  0  0  0  0  0  0
  -29.2402  -22.2529   18.7970 O   0  0  0  0  0  0  0  0  0  0  0  0
  -24.9313  -17.4309   23.1862 O   0  0  0  0  0  0  0  0  0  0  0  0
  -22.6018  -15.0910   20.6983 O   0  0  0  0  0  0  0  0  0  0  0  0
  -31.9544  -19.5317   24.7506 O   0  0  0  0  0  0  0  0  0  0  0  0
  -26.0388  -11.8218   20.5578 O   0  0  0  0  0  0  0  0  0  0  0  0
  -20.5013  -30.2139   24.2916 O   0  0  0  0  0  0  0  0  0  0  0  0
  -30.5107  -22.2187   24.3574 O   0  0  0  0  0  0  0  0  0  0  0  0
  -30.8710  -16.3814   22.0446 O   0  0  0  0  0  0  0  0  0  1  0  0
  -15.4501  -29.0999   22.3813 F   0  0  0  0  0  0  0  0  0  0  0  0
  -18.7126  -32.2485   23.7408 F   0  0  0  0  0  0  0  0  0  0  0  0
  1  2  1  0  0  0  0
  1  5  2  0  0  0  0
  2  6  2  0  0  0  0
  3  8  2  0  0  0  0
  3 17  1  0  0  0  0
  4  9  1  0  0  0  0
  4 17  2  0  0  0  0
  5 20  1  0  0  0  0
  6 22  1  0  0  0  0
  7 10  2  0  0  0  0
  7 21  1  0  0  0  0
  8 26  1  0  0  0  0
  9 26  2  0  0  0  0
 10 27  1  0  0  0  0
 11 12  2  0  0  0  0
 11 28  1  0  0  0  0
 12 30  1  0  0  0  0
 13 18  1  0  0  0  0
 13 29  2  0  0  0  0
 14 23  1  0  0  0  0
 14 27  2  0  0  0  0
 15 24  1  0  0  0  0
 15 25  2  0  0  0  0
 16 30  2  0  0  0  0
 16 31  1  0  0  0  0
 17 32  1  0  0  0  0
 18 24  2  0  0  0  0
 18 34  1  0  0  0  0
 19 32  1  0  0  0  0
 19 33  2  0  0  0  0
 19 35  1  0  0  0  0
 20 22  2  0  0  0  0
 20 41  1  0  0  0  0
 21 23  2  0  0  0  0
 21 42  1  0  0  0  0
 22 50  1  0  0  0  0
 23 43  1  0  0  0  0
 24 60  1  0  0  0  0
 25 29  1  0  0  0  0
 25 61  1  0  0  0  0
 26 85  1  0  0  0  0
 27 87  1  0  0  0  0
 28 31  2  0  0  0  0
 28 85  1  0  0  0  0
 29 86  1  0  0  0  0
 30 88  1  0  0  0  0
 31 89  1  0  0  0  0
 32 68  2  0  0  0  0
 33 70  1  0  0  0  0
 33 73  1  0  0  0  0
 34 36  1  0  0  0  0
 34 69  2  0  0  0  0
 35 74  1  0  0  0  0
 35 79  2  0  0  0  0
 36 71  1  0  0  0  0
 36 80  2  0  0  0  0
 37 51  1  0  0  0  0
 37 75  1  0  0  0  0
 37 81  2  0  0  0  0
 38 65  1  0  0  0  0
 38 72  1  0  0  0  0
 38 82  2  0  0  0  0
 39 62  1  0  0  0  0
 39 76  1  0  0  0  0
 39 83  2  0  0  0  0
 40 66  1  0  0  0  0
 40 77  1  0  0  0  0
 40 84  2  0  0  0  0
 41 44  1  0  0  0  0
 42 51  1  0  0  0  0
 43 72  1  0  0  0  0
 44 46  1  0  0  0  0
 45 47  1  0  0  0  0
 45 48  1  0  0  0  0
 46 50  1  0  0  0  0
 47 52  1  0  0  0  0
 48 71  1  0  0  0  0
 49 52  1  0  0  0  0
 49 71  1  0  0  0  0
 50 75  1  0  0  0  0
 51 72  1  0  0  0  0
 52 70  1  0  0  0  0
 53 60  1  0  0  0  0
 54 66  1  0  0  0  0
 55 67  1  0  0  0  0
 56 67  1  0  0  0  0
 57 67  1  0  0  0  0
 58 78  1  0  0  0  0
 59 86  1  0  0  0  0
 61 76  1  0  0  0  0
 62 63  1  0  0  0  0
 63 64  1  0  0  0  0
 64 87  1  0  0  0  0
 65 67  1  0  0  0  0
 65 77  1  0  0  0  0
 66 78  1  0  0  0  0
 68 70  1  0  0  0  0
M  CHG  1  78   1
M  ISO  4  34 100  36 100  64 101  87 101
M  END
> <Batch ID>
0108

> <Smiles>
CCc1cc(CNC(=O)CC[101CH2:1][101O:1]c2ccc3c(c2)CN(C(=O)C(NC(=O)C(C)NC)C(C)(C)C)C(C(=O)NC2CCCc4ccccc42)C3)c(OC)cc1[100C:0](=N)[100C:0](=O)N1CCCC(n2nc(-c3ccc(Oc4ccc(F)cc4F)cc3)c(C(N)=O)c2N)C1

> <Shape>
0.226

> <Color>
0.083

> <Negative vol penalty>
0.000

$$$$

  -OEChem-04052301203D

 86 95  0     1  0  0  0  0  0999 V2000
  -30.0472  -33.7583   18.1351 C   0  0  0  0  0  0  0  0  0  0  0  0
  -30.1726  -32.6296   18.9388 C   0  0  0  0  0  0  0  0  0  0  0  0
  -23.5555   -9.8642   22.3025 C   0  0  0  0  0  0  0  0  0  0  0  0
  -23.4533   -9.7258   19.8926 C   0  0  0  0  0  0  0  0  0  0  0  0
  -28.7970  -34.3483   17.9540 C   0  0  0  0  0  0  0  0  0  0  0  0
  -29.0479  -32.0910   19.5627 C   0  0  0  0  0  0  0  0  0  0  0  0
  -28.8401  -27.0461   19.1743 C   0  0  0  0  0  0  0  0  0  0  0  0
  -31.5536  -18.8504   21.4413 C   0  0  0  0  0  0  0  0  0  0  0  0
  -30.2312  -18.6304   23.4512 C   0  0  0  0  0  0  0  0  0  0  0  0
  -31.3317  -17.5049   21.1480 C   0  0  0  0  0  0  0  0  0  0  0  0
  -30.0092  -17.2849   23.1580 C   0  0  0  0  0  0  0  0  0  0  0  0
  -22.8138   -8.6870   22.4015 C   0  0  0  0  0  0  0  0  0  0  0  0
  -22.7117   -8.5486   19.9917 C   0  0  0  0  0  0  0  0  0  0  0  0
  -29.6584  -26.3075   20.0278 C   0  0  0  0  0  0  0  0  0  0  0  0
  -19.5750   -7.7551   22.1447 C   0  0  0  0  0  0  0  0  0  0  0  0
  -18.5281   -7.7252   23.0659 C   0  0  0  0  0  0  0  0  0  0  0  0
  -27.7725  -25.9038   21.4768 C   0  0  0  0  0  0  0  0  0  0  0  0
  -19.5901   -5.8829   24.2128 C   0  0  0  0  0  0  0  0  0  0  0  0
  -23.8752  -10.3836   21.0480 C   0  0  0  0  0  0  0  0  0  0  0  0
  -24.2941  -12.8679   21.4488 C   0  0  0  0  0  0  0  0  0  0  0  0
  -27.6548  -33.8108   18.5683 C   0  0  0  0  0  0  0  0  0  0  0  0
  -27.4819  -27.2285   19.4717 C   0  0  0  0  0  0  0  0  0  0  0  0
  -27.7814  -32.6751   19.3907 C   0  0  0  0  0  0  0  0  0  0  0  0
  -26.9385  -26.6429   20.6241 C   0  0  0  0  0  0  0  0  0  0  0  0
  -31.0034  -19.4132   22.5930 C   0  0  0  0  0  0  0  0  0  0  0  0
  -30.5595  -16.7222   22.0063 C   0  0  0  0  0  0  0  0  0  0  0  0
  -22.3919   -8.0292   21.2462 C   0  0  0  0  0  0  0  0  0  0  0  0
  -29.1254  -25.7387   21.1808 C   0  0  0  0  0  0  0  0  0  0  0  0
  -20.6294   -6.8489   22.2574 C   0  0  0  0  0  0  0  0  0  0  0  0
  -18.5357   -6.7891   24.1000 C   0  0  0  0  0  0  0  0  0  0  0  0
  -20.6370   -5.9128   23.2915 C   0  0  0  0  0  0  0  0  0  0  0  0
  -24.6408  -11.5999   20.9450 C   0  0  0  0  0  0  0  0  0  0  0  0
  -25.3442  -13.6780   21.0920 C   0  0  0  0  0  0  0  0  0  0  0  0
  -31.3584  -23.1096   22.2412 C   0  0  0  0  0  0  0  0  0  0  0  0
  -30.8571  -21.8619   22.0720 C   0  0  0  0  0  0  0  0  0  0  0  0
  -32.3875  -23.3188   23.3146 C   0  0  0  0  0  0  0  0  0  0  0  0
  -23.1271  -13.2768   22.1745 C   0  0  0  0  0  0  0  0  0  0  0  0
  -25.6353  -29.7453   20.0715 C   0  0  0  0  0  0  0  0  0  0  0  0
  -23.2670  -27.5292   20.0216 C   0  0  0  0  0  0  0  0  0  0  0  0
  -22.7801  -24.1676   21.2380 C   0  0  0  0  0  0  0  0  0  0  0  0
  -30.8068  -14.6416   20.6076 C   0  0  0  0  0  0  0  0  0  0  0  0
  -26.3323  -34.5112   18.3810 C   0  0  0  0  0  0  0  0  0  0  0  0
  -26.6066  -28.0055   18.5270 C   0  0  0  0  0  0  0  0  0  0  0  0
  -25.4822  -26.7922   20.9782 C   0  0  0  0  0  0  0  0  0  0  0  0
  -32.9126  -22.1125   24.0549 C   0  0  0  0  0  0  0  0  0  0  0  0
  -25.1298  -33.6578   18.7759 C   0  0  0  0  0  0  0  0  0  0  0  0
  -29.2377  -12.8396   17.9680 C   0  0  0  0  0  0  0  0  0  0  0  0
  -25.3711  -32.9871   20.1246 C   0  0  0  0  0  0  0  0  0  0  0  0
  -27.8734  -12.4607   18.5486 C   0  0  0  0  0  0  0  0  0  0  0  0
  -31.8532  -21.0337   24.1969 C   0  0  0  0  0  0  0  0  0  0  0  0
  -30.3392  -12.7838   19.0250 C   0  0  0  0  0  0  0  0  0  0  0  0
  -28.7043  -13.1762   20.8256 C   0  0  0  0  0  0  0  0  0  0  0  0
  -26.5809  -32.0468   20.0645 C   0  0  1  0  0  0  0  0  0  0  0  0
  -25.3512  -28.5591   19.1940 C   0  0  1  0  0  0  0  0  0  0  0  0
  -27.5518  -13.2807   19.8134 C   0  0  2  0  0  0  0  0  0  0  0  0
  -29.7704  -21.6170   21.0430 C   0  0  0  0  0  0  0  0  0  0  0  0
  -21.2937  -22.3282   20.3987 C   0  0  0  0  0  0  0  0  0  0  0  0
  -21.2796  -28.5900   22.0795 C   0  0  0  0  0  0  0  0  0  0  0  0
  -20.6258  -26.2226   22.5654 C   0  0  0  0  0  0  0  0  0  0  0  0
  -20.2670  -27.1710   20.2863 C   0  0  0  0  0  0  0  0  0  0  0  0
  -25.0528  -22.2889   20.9849 C   0  0  0  0  0  0  0  0  0  0  0  0
  -31.0239  -24.3278   21.4276 C   0  0  0  0  0  0  0  0  0  1  0  0
  -22.6169  -26.6359   21.0503 C   0  0  1  0  0  0  0  0  0  0  0  0
  -22.7022  -22.9017   20.4038 C   0  0  2  0  0  0  0  0  0  0  0  0
  -21.2244  -27.1632   21.4979 C   0  0  0  0  0  0  0  0  0  0  0  0
  -25.8190  -11.5996   20.3159 N   0  0  0  0  0  0  0  0  0  0  0  0
  -26.2218  -12.8773   20.4220 N   0  0  0  0  0  0  0  0  0  0  0  0
  -31.2307  -20.7813   22.8924 N   0  0  0  0  0  0  0  0  0  0  0  0
  -24.6686  -27.5662   20.0261 N   0  0  0  0  0  0  0  0  0  0  0  0
  -29.9671  -13.5867   20.1919 N   0  0  0  0  0  0  0  0  0  0  0  0
  -25.5933  -14.9901   21.2891 N   0  0  0  0  0  0  0  0  0  0  0  0
  -22.0169  -13.7341   21.4516 N   0  0  0  0  0  0  0  0  0  0  0  0
  -30.3340  -15.3554   21.7083 N   0  0  0  0  0  0  0  0  0  0  0  0
  -26.2246  -30.8060   19.4103 N   0  0  0  0  0  0  0  0  0  0  0  0
  -22.5909  -25.2974   20.4705 N   0  0  0  0  0  0  0  0  0  0  0  0
  -23.6289  -21.8673   20.9444 N   0  3  0  0  0  0  0  0  0  0  0  0
  -32.8350  -24.4411   23.5490 O   0  0  0  0  0  0  0  0  0  0  0  0
  -23.0764  -13.2534   23.4277 O   0  0  0  0  0  0  0  0  0  0  0  0
  -25.3403  -29.7020   21.2601 O   0  0  0  0  0  0  0  0  0  0  0  0
  -22.5576  -28.1651   19.2380 O   0  0  0  0  0  0  0  0  0  0  0  0
  -22.9844  -24.1552   22.4499 O   0  0  0  0  0  0  0  0  0  0  0  0
  -31.8539  -14.9104   20.0131 O   0  0  0  0  0  0  0  0  0  0  0  0
  -21.6684   -6.8804   21.3424 O   0  0  0  0  0  0  0  0  0  0  0  0
  -29.9221  -25.0178   22.0160 O   0  0  0  0  0  0  0  0  0  1  0  0
  -17.5311   -6.7615   24.9855 F   0  0  0  0  0  0  0  0  0  0  0  0
  -21.6478   -5.0404   23.4056 F   0  0  0  0  0  0  0  0  0  0  0  0
  1  2  1  0  0  0  0
  1  5  2  0  0  0  0
  2  6  2  0  0  0  0
  3 12  2  0  0  0  0
  3 19  1  0  0  0  0
  4 13  1  0  0  0  0
  4 19  2  0  0  0  0
  5 21  1  0  0  0  0
  6 23  1  0  0  0  0
  7 14  2  0  0  0  0
  7 22  1  0  0  0  0
  8 10  2  0  0  0  0
  8 25  1  0  0  0  0
  9 11  1  0  0  0  0
  9 25  2  0  0  0  0
 10 26  1  0  0  0  0
 11 26  2  0  0  0  0
 12 27  1  0  0  0  0
 13 27  2  0  0  0  0
 14 28  1  0  0  0  0
 15 16  2  0  0  0  0
 15 29  1  0  0  0  0
 16 30  1  0  0  0  0
 17 24  1  0  0  0  0
 17 28  2  0  0  0  0
 18 30  2  0  0  0  0
 18 31  1  0  0  0  0
 19 32  1  0  0  0  0
 20 32  1  0  0  0  0
 20 33  2  0  0  0  0
 20 37  1  0  0  0  0
 21 23  2  0  0  0  0
 21 42  1  0  0  0  0
 22 24  2  0  0  0  0
 22 43  1  0  0  0  0
 23 53  1  0  0  0  0
 24 44  1  0  0  0  0
 25 68  1  0  0  0  0
 26 73  1  0  0  0  0
 27 83  1  0  0  0  0
 28 84  1  0  0  0  0
 29 31  2  0  0  0  0
 29 83  1  0  0  0  0
 30 85  1  0  0  0  0
 31 86  1  0  0  0  0
 32 66  2  0  0  0  0
 33 67  1  0  0  0  0
 33 71  1  0  0  0  0
 34 35  2  0  0  0  0
 34 36  1  0  0  0  0
 34 62  1  0  0  0  0
 35 56  1  0  0  0  0
 35 68  1  0  0  0  0
 36 45  1  0  0  0  0
 36 77  2  0  0  0  0
 37 72  1  0  0  0  0
 37 78  2  0  0  0  0
 38 54  1  0  0  0  0
 38 74  1  0  0  0  0
 38 79  2  0  0  0  0
 39 63  1  0  0  0  0
 39 69  1  0  0  0  0
 39 80  2  0  0  0  0
 40 64  1  0  0  0  0
 40 75  1  0  0  0  0
 40 81  2  0  0  0  0
 41 70  1  0  0  0  0
 41 73  1  0  0  0  0
 41 82  2  0  0  0  0
 42 46  1  0  0  0  0
 43 54  1  0  0  0  0
 44 69  1  0  0  0  0
 45 50  1  0  0  0  0
 46 48  1  0  0  0  0
 47 49  1  0  0  0  0
 47 51  1  0  0  0  0
 48 53  1  0  0  0  0
 49 55  1  0  0  0  0
 50 68  1  0  0  0  0
 51 70  1  0  0  0  0
 52 55  1  0  0  0  0
 52 70  1  0  0  0  0
 53 74  1  0  0  0  0
 54 69  1  0  0  0  0
 55 67  1  0  0  0  0
 57 64  1  0  0  0  0
 58 65  1  0  0  0  0
 59 65  1  0  0  0  0
 60 65  1  0  0  0  0
 61 76  1  0  0  0  0
 62 84  1  0  0  0  0
 63 65  1  0  0  0  0
 63 75  1  0  0  0  0
 64 76  1  0  0  0  0
 66 67  1  0  0  0  0
M  CHG  1  76   1
M  ISO  4  41 100  62 101  73 100  84 101
M  END
> <Batch ID>
0108

> <Smiles>
CNC(C)C(=O)NC(C(=O)N1Cc2cc([101O:1][101CH2:1]C3=C(C)N(c4ccc([100NH:0][100C:0](=O)N5CCCC(n6nc(-c7ccc(Oc8ccc(F)cc8F)cc7)c(C(N)=O)c6N)C5)cc4)CCC3=O)ccc2CC1C(=O)NC1CCCc2ccccc21)C(C)(C)C

> <Shape>
0.262

> <Color>
0.151

> <Negative vol penalty>
0.000

$$$$

  -OEChem-04052301203D

 87 96  0     1  0  0  0  0  0999 V2000
  -16.7367  -28.8322   24.4526 C   0  0  0  0  0  0  0  0  0  0  0  0
  -17.6171  -27.9896   23.7815 C   0  0  0  0  0  0  0  0  0  0  0  0
  -23.2600  -12.4133   23.2605 C   0  0  0  0  0  0  0  0  0  0  0  0
  -23.9493  -10.2598   22.4092 C   0  0  0  0  0  0  0  0  0  0  0  0
  -16.7861  -30.2081   24.2325 C   0  0  0  0  0  0  0  0  0  0  0  0
  -18.5466  -28.5223   22.8890 C   0  0  0  0  0  0  0  0  0  0  0  0
  -28.9687  -16.8696   20.3944 C   0  0  0  0  0  0  0  0  0  0  0  0
  -23.1642  -26.5266   23.4718 C   0  0  0  0  0  0  0  0  0  0  0  0
  -27.9274  -17.7791   20.2064 C   0  0  0  0  0  0  0  0  0  0  0  0
  -22.5491  -11.7822   24.2812 C   0  0  0  0  0  0  0  0  0  0  0  0
  -23.2384   -9.6288   23.4300 C   0  0  0  0  0  0  0  0  0  0  0  0
  -23.3831  -25.2598   22.9323 C   0  0  0  0  0  0  0  0  0  0  0  0
  -20.0217   -8.8347   24.1031 C   0  0  0  0  0  0  0  0  0  0  0  0
  -19.2303   -7.7386   23.7598 C   0  0  0  0  0  0  0  0  0  0  0  0
  -29.0179  -19.3277   21.6943 C   0  0  0  0  0  0  0  0  0  0  0  0
  -24.4627  -26.2656   21.0240 C   0  0  0  0  0  0  0  0  0  0  0  0
  -20.5165   -6.3421   25.2540 C   0  0  0  0  0  0  0  0  0  0  0  0
  -23.9601  -11.6521   22.3244 C   0  0  0  0  0  0  0  0  0  0  0  0
  -24.1784  -13.1591   20.2777 C   0  0  0  0  0  0  0  0  0  0  0  0
  -17.7232  -30.7589   23.3442 C   0  0  0  0  0  0  0  0  0  0  0  0
  -23.5840  -27.6749   22.7851 C   0  0  0  0  0  0  0  0  0  0  0  0
  -18.6077  -29.9068   22.6558 C   0  0  0  0  0  0  0  0  0  0  0  0
  -30.0445  -17.1666   21.2505 C   0  0  0  0  0  0  0  0  0  0  0  0
  -30.0785  -18.4264   21.8823 C   0  0  0  0  0  0  0  0  0  0  0  0
  -24.2503  -27.5457   21.5581 C   0  0  0  0  0  0  0  0  0  0  0  0
  -27.9489  -19.0054   20.8610 C   0  0  0  0  0  0  0  0  0  0  0  0
  -22.5383  -10.3900   24.3660 C   0  0  0  0  0  0  0  0  0  0  0  0
  -24.0298  -25.1293   21.7069 C   0  0  0  0  0  0  0  0  0  0  0  0
  -21.0605   -8.6845   25.0217 C   0  0  0  0  0  0  0  0  0  0  0  0
  -19.4777   -6.4923   24.3353 C   0  0  0  0  0  0  0  0  0  0  0  0
  -21.3079   -7.4382   25.5972 C   0  0  0  0  0  0  0  0  0  0  0  0
  -24.6943  -12.3033   21.2694 C   0  0  0  0  0  0  0  0  0  0  0  0
  -25.2719  -13.5096   19.5241 C   0  0  0  0  0  0  0  0  0  0  0  0
  -22.8314  -13.5979   20.0575 C   0  0  0  0  0  0  0  0  0  0  0  0
  -22.1182  -30.2069   21.5425 C   0  0  0  0  0  0  0  0  0  0  0  0
  -25.1548  -31.2235   21.0250 C   0  0  0  0  0  0  0  0  0  0  0  0
  -28.2620  -29.7733   19.9026 C   0  0  0  0  0  0  0  0  0  0  0  0
  -25.4665  -23.3063   21.5564 C   0  0  0  0  0  0  0  0  0  1  0  0
  -31.0543  -13.8588   20.5814 C   0  0  0  0  0  0  0  0  0  0  0  0
  -17.7071  -32.2476   23.1032 C   0  0  0  0  0  0  0  0  0  0  0  0
  -23.3642  -29.0329   23.3932 C   0  0  0  0  0  0  0  0  0  0  0  0
  -31.2071  -18.8234   22.8010 C   0  0  0  0  0  0  0  0  0  0  0  0
  -24.7387  -28.7461   20.7907 C   0  0  0  0  0  0  0  0  0  0  0  0
  -18.9712  -32.7684   22.4240 C   0  0  0  0  0  0  0  0  0  0  0  0
  -32.4652  -17.9862   22.5943 C   0  0  0  0  0  0  0  0  0  0  0  0
  -29.5520  -11.9018   18.1443 C   0  0  0  0  0  0  0  0  0  0  0  0
  -19.3456  -31.8814   21.2409 C   0  0  0  0  0  0  0  0  0  0  0  0
  -32.1109  -16.5055   22.5909 C   0  0  0  0  0  0  0  0  0  0  0  0
  -28.0834  -11.8554   18.5640 C   0  0  0  0  0  0  0  0  0  0  0  0
  -30.4684  -11.7891   19.3568 C   0  0  0  0  0  0  0  0  0  0  0  0
  -28.7574  -12.8054   20.8267 C   0  0  0  0  0  0  0  0  0  0  0  0
  -19.6468  -30.4492   21.6986 C   0  0  1  0  0  0  0  0  0  0  0  0
  -31.1820  -16.1751   21.4158 C   0  0  1  0  0  0  0  0  0  0  0  0
  -23.3760  -30.1580   22.3629 C   0  0  1  0  0  0  0  0  0  0  0  0
  -27.7828  -12.9172   19.6363 C   0  0  2  0  0  0  0  0  0  0  0  0
  -30.6360  -30.4359   20.3741 C   0  0  0  0  0  0  0  0  0  0  0  0
  -24.9241  -32.8060   18.4264 C   0  0  0  0  0  0  0  0  0  0  0  0
  -27.2830  -32.1522   17.9004 C   0  0  0  0  0  0  0  0  0  0  0  0
  -26.7930  -33.5262   19.9240 C   0  0  0  0  0  0  0  0  0  0  0  0
  -30.1381  -14.4690   22.8602 C   0  0  0  0  0  0  0  0  0  0  0  0
  -28.9396  -27.0715   20.9026 C   0  0  0  0  0  0  0  0  0  0  0  0
  -25.5900  -21.9423   20.9084 C   0  0  0  0  0  0  0  0  0  0  0  0
  -26.8558  -21.2007   21.3210 C   0  0  0  0  0  0  0  0  0  0  0  0
  -26.1533  -31.0803   19.9019 C   0  0  1  0  0  0  0  0  0  0  0  0
  -29.4949  -29.5017   20.7455 C   0  0  2  0  0  0  0  0  0  0  0  0
  -26.2686  -32.3713   19.0431 C   0  0  0  0  0  0  0  0  0  0  0  0
  -26.0128  -12.1212   21.1584 N   0  0  0  0  0  0  0  0  0  0  0  0
  -26.3347  -12.8673   20.0880 N   0  0  0  0  0  0  0  0  0  0  0  0
  -24.4945  -30.0527   21.4238 N   0  0  0  0  0  0  0  0  0  0  0  0
  -30.1514  -12.8090   20.3569 N   0  0  0  0  0  0  0  0  0  0  0  0
  -25.4183  -14.3014   18.4406 N   0  0  0  0  0  0  0  0  0  0  0  0
  -22.0079  -12.8330   19.2202 N   0  0  0  0  0  0  0  0  0  0  0  0
  -26.9128  -19.9073   20.6807 N   0  0  0  0  0  0  0  0  0  0  0  0
  -20.9665  -30.3739   22.2877 N   0  0  0  0  0  0  0  0  0  0  0  0
  -27.4060  -30.6603   20.5206 N   0  0  0  0  0  0  0  0  0  0  0  0
  -30.7075  -14.8058   21.5567 N   0  0  0  0  0  0  0  0  0  0  0  0
  -29.9553  -28.0975   20.5524 N   0  3  0  0  0  0  0  0  0  0  0  0
  -22.3766  -14.6464   20.5745 O   0  0  0  0  0  0  0  0  0  0  0  0
  -22.1875  -30.1024   20.3235 O   0  0  0  0  0  0  0  0  0  0  0  0
  -24.9727  -32.3320   21.5346 O   0  0  0  0  0  0  0  0  0  0  0  0
  -28.0784  -29.2537   18.8040 O   0  0  0  0  0  0  0  0  0  0  0  0
  -26.2914  -23.8146   22.3035 O   0  0  0  0  0  0  0  0  0  0  0  0
  -32.1163  -13.9424   19.9510 O   0  0  0  0  0  0  0  0  0  0  0  0
  -21.8448   -9.7739   25.3621 O   0  0  0  0  0  0  0  0  0  0  0  0
  -24.2441  -23.8940   21.1777 O   0  0  0  0  0  0  0  0  0  1  0  0
  -18.7166   -5.4401   24.0067 F   0  0  0  0  0  0  0  0  0  0  0  0
  -22.3038   -7.2880   26.4812 F   0  0  0  0  0  0  0  0  0  0  0  0
  1  2  1  0  0  0  0
  1  5  2  0  0  0  0
  2  6  2  0  0  0  0
  3 10  2  0  0  0  0
  3 18  1  0  0  0  0
  4 11  1  0  0  0  0
  4 18  2  0  0  0  0
  5 20  1  0  0  0  0
  6 22  1  0  0  0  0
  7  9  2  0  0  0  0
  7 23  1  0  0  0  0
  8 12  2  0  0  0  0
  8 21  1  0  0  0  0
  9 26  1  0  0  0  0
 10 27  1  0  0  0  0
 11 27  2  0  0  0  0
 12 28  1  0  0  0  0
 13 14  2  0  0  0  0
 13 29  1  0  0  0  0
 14 30  1  0  0  0  0
 15 24  1  0  0  0  0
 15 26  2  0  0  0  0
 16 25  1  0  0  0  0
 16 28  2  0  0  0  0
 17 30  2  0  0  0  0
 17 31  1  0  0  0  0
 18 32  1  0  0  0  0
 19 32  1  0  0  0  0
 19 33  2  0  0  0  0
 19 34  1  0  0  0  0
 20 22  2  0  0  0  0
 20 40  1  0  0  0  0
 21 25  2  0  0  0  0
 21 41  1  0  0  0  0
 22 52  1  0  0  0  0
 23 24  2  0  0  0  0
 23 53  1  0  0  0  0
 24 42  1  0  0  0  0
 25 43  1  0  0  0  0
 26 73  1  0  0  0  0
 27 84  1  0  0  0  0
 28 85  1  0  0  0  0
 29 31  2  0  0  0  0
 29 84  1  0  0  0  0
 30 86  1  0  0  0  0
 31 87  1  0  0  0  0
 32 67  2  0  0  0  0
 33 68  1  0  0  0  0
 33 71  1  0  0  0  0
 34 72  1  0  0  0  0
 34 78  2  0  0  0  0
 35 54  1  0  0  0  0
 35 74  1  0  0  0  0
 35 79  2  0  0  0  0
 36 64  1  0  0  0  0
 36 69  1  0  0  0  0
 36 80  2  0  0  0  0
 37 65  1  0  0  0  0
 37 75  1  0  0  0  0
 37 81  2  0  0  0  0
 38 62  1  0  0  0  0
 38 82  2  0  0  0  0
 38 85  1  0  0  0  0
 39 70  1  0  0  0  0
 39 76  1  0  0  0  0
 39 83  2  0  0  0  0
 40 44  1  0  0  0  0
 41 54  1  0  0  0  0
 42 45  1  0  0  0  0
 43 69  1  0  0  0  0
 44 47  1  0  0  0  0
 45 48  1  0  0  0  0
 46 49  1  0  0  0  0
 46 50  1  0  0  0  0
 47 52  1  0  0  0  0
 48 53  1  0  0  0  0
 49 55  1  0  0  0  0
 50 70  1  0  0  0  0
 51 55  1  0  0  0  0
 51 70  1  0  0  0  0
 52 74  1  0  0  0  0
 53 76  1  0  0  0  0
 54 69  1  0  0  0  0
 55 68  1  0  0  0  0
 56 65  1  0  0  0  0
 57 66  1  0  0  0  0
 58 66  1  0  0  0  0
 59 66  1  0  0  0  0
 60 76  1  0  0  0  0
 61 77  1  0  0  0  0
 62 63  1  0  0  0  0
 63 73  1  0  0  0  0
 64 66  1  0  0  0  0
 64 75  1  0  0  0  0
 65 77  1  0  0  0  0
 67 68  1  0  0  0  0
M  CHG  1  77   1
M  ISO  4  38 101  39 100  76 100  85 101
M  END
> <Batch ID>
0108

> <Smiles>
CNC(C)C(=O)NC(C(=O)N1Cc2cc([101O:1][101C:1](=O)CCNc3ccc4c(c3)CCCC4[100N:0](C)[100C:0](=O)N3CCCC(n4nc(-c5ccc(Oc6ccc(F)cc6F)cc5)c(C(N)=O)c4N)C3)ccc2CC1C(=O)NC1CCCc2ccccc21)C(C)(C)C

> <Shape>
0.271

> <Color>
0.103

> <Negative vol penalty>
0.000

$$$$

  -OEChem-04052301203D

 86 94  0     1  0  0  0  0  0999 V2000
  -16.6980  -29.5561   23.1020 C   0  0  0  0  0  0  0  0  0  0  0  0
  -17.6729  -29.6936   22.1192 C   0  0  0  0  0  0  0  0  0  0  0  0
  -26.5993  -12.6508   21.9675 C   0  0  0  0  0  0  0  0  0  0  0  0
  -25.7588  -14.3202   20.4366 C   0  0  0  0  0  0  0  0  0  0  0  0
  -17.0661  -29.2312   24.4069 C   0  0  0  0  0  0  0  0  0  0  0  0
  -19.0169  -29.5071   22.4410 C   0  0  0  0  0  0  0  0  0  0  0  0
  -25.1502  -27.1043   19.6259 C   0  0  0  0  0  0  0  0  0  0  0  0
  -30.6206  -22.6271   21.9460 C   0  0  0  0  0  0  0  0  0  0  0  0
  -25.3586  -12.0137   21.9539 C   0  0  0  0  0  0  0  0  0  0  0  0
  -24.5181  -13.6830   20.4229 C   0  0  0  0  0  0  0  0  0  0  0  0
  -26.4741  -27.4973   19.4340 C   0  0  0  0  0  0  0  0  0  0  0  0
  -30.9214  -23.7069   21.1159 C   0  0  0  0  0  0  0  0  0  0  0  0
  -22.5207   -9.7434   22.0404 C   0  0  0  0  0  0  0  0  0  0  0  0
  -22.5063   -8.3545   21.9135 C   0  0  0  0  0  0  0  0  0  0  0  0
  -26.9858  -26.8606   21.7038 C   0  0  0  0  0  0  0  0  0  0  0  0
  -23.6367   -8.5371   19.7861 C   0  0  0  0  0  0  0  0  0  0  0  0
  -26.7994  -13.8041   21.2089 C   0  0  0  0  0  0  0  0  0  0  0  0
  -29.1695  -14.2233   20.3634 C   0  0  0  0  0  0  0  0  0  0  0  0
  -18.4144  -29.0312   24.7428 C   0  0  0  0  0  0  0  0  0  0  0  0
  -24.7310  -26.5959   20.8638 C   0  0  0  0  0  0  0  0  0  0  0  0
  -19.4035  -29.1805   23.7519 C   0  0  0  0  0  0  0  0  0  0  0  0
  -25.6567  -26.4595   21.9081 C   0  0  0  0  0  0  0  0  0  0  0  0
  -28.7755  -22.0326   20.5040 C   0  0  0  0  0  0  0  0  0  0  0  0
  -29.0763  -23.1124   19.6739 C   0  0  0  0  0  0  0  0  0  0  0  0
  -29.5476  -21.7899   21.6400 C   0  0  0  0  0  0  0  0  0  0  0  0
  -24.3180  -12.5297   21.1816 C   0  0  0  0  0  0  0  0  0  0  0  0
  -27.3914  -27.3782   20.4739 C   0  0  0  0  0  0  0  0  0  0  0  0
  -30.1493  -23.9496   19.9799 C   0  0  0  0  0  0  0  0  0  0  0  0
  -23.0930  -10.5293   21.0401 C   0  0  0  0  0  0  0  0  0  0  0  0
  -23.0644   -7.7513   20.7864 C   0  0  0  0  0  0  0  0  0  0  0  0
  -23.6511   -9.9261   19.9130 C   0  0  0  0  0  0  0  0  0  0  0  0
  -28.0807  -14.4631   21.2230 C   0  0  0  0  0  0  0  0  0  0  0  0
  -30.1394  -15.0995   20.7851 C   0  0  0  0  0  0  0  0  0  0  0  0
  -29.5181  -22.6434   16.4114 C   0  0  0  0  0  0  0  0  0  0  0  0
  -28.5600  -22.4373   17.3220 C   0  0  0  0  0  0  0  0  0  0  0  0
  -29.2930  -13.2917   19.2805 C   0  0  0  0  0  0  0  0  0  0  0  0
  -22.6221  -27.5016   23.0628 C   0  0  0  0  0  0  0  0  0  0  0  0
  -23.4023  -24.6605   24.4200 C   0  0  0  0  0  0  0  0  0  0  0  0
  -25.6857  -22.1491   24.7747 C   0  0  0  0  0  0  0  0  0  0  0  0
  -29.9408  -20.3349   23.6586 C   0  0  0  0  0  0  0  0  0  0  0  0
  -18.7679  -28.7277   26.1772 C   0  0  0  0  0  0  0  0  0  0  0  0
  -23.3057  -26.1515   21.0464 C   0  0  0  0  0  0  0  0  0  0  0  0
  -25.2619  -25.9007   23.2498 C   0  0  0  0  0  0  0  0  0  0  0  0
  -20.1814  -28.1787   26.3531 C   0  0  0  0  0  0  0  0  0  0  0  0
  -31.6633  -17.3981   24.7003 C   0  0  0  0  0  0  0  0  0  0  0  0
  -21.1807  -29.0123   25.5572 C   0  0  0  0  0  0  0  0  0  0  0  0
  -31.0434  -16.2913   23.8443 C   0  0  0  0  0  0  0  0  0  0  0  0
  -30.6277  -18.4419   25.1146 C   0  0  0  0  0  0  0  0  0  0  0  0
  -29.2335  -17.9141   23.1532 C   0  0  0  0  0  0  0  0  0  0  0  0
  -20.8697  -28.9618   24.0565 C   0  0  1  0  0  0  0  0  0  0  0  0
  -22.8700  -26.1273   22.5082 C   0  0  1  0  0  0  0  0  0  0  0  0
  -30.2511  -16.8738   22.6575 C   0  0  2  0  0  0  0  0  0  0  0  0
  -28.0795  -19.8150   19.5636 C   0  0  0  0  0  0  0  0  0  0  0  0
  -26.6256  -19.9447   25.5193 C   0  0  0  0  0  0  0  0  0  0  0  0
  -23.9979  -26.1940   26.9897 C   0  0  0  0  0  0  0  0  0  0  0  0
  -25.2366  -24.1830   27.8203 C   0  0  0  0  0  0  0  0  0  0  0  0
  -22.7971  -24.0257   27.3233 C   0  0  0  0  0  0  0  0  0  0  0  0
  -24.6076  -20.7548   22.3973 C   0  0  0  0  0  0  0  0  0  0  0  0
  -28.2536  -23.3807   18.4539 C   0  0  0  0  0  0  0  0  0  0  0  0
  -27.6236  -21.1361   20.1725 C   0  0  0  0  0  0  0  0  0  0  0  0
  -30.7138  -27.4062   19.0342 C   0  0  0  0  0  0  0  0  0  0  0  0
  -29.2136  -27.6463   18.9693 C   0  0  0  0  0  0  0  0  0  1  0  0
  -31.0546  -26.1419   19.8073 C   0  0  0  0  0  0  0  0  0  0  0  0
  -24.4428  -24.1994   25.4118 C   0  0  1  0  0  0  0  0  0  0  0  0
  -25.5406  -20.6394   24.7113 C   0  0  2  0  0  0  0  0  0  0  0  0
  -24.1259  -24.6629   26.8617 C   0  0  0  0  0  0  0  0  0  0  0  0
  -28.3346  -15.4169   22.1229 N   0  0  0  0  0  0  0  0  0  0  0  0
  -29.5940  -15.7841   21.8311 N   0  0  0  0  0  0  0  0  0  0  0  0
  -23.8554  -25.4860   23.3812 N   0  0  0  0  0  0  0  0  0  0  0  0
  -29.9197  -18.9521   23.9385 N   0  0  0  0  0  0  0  0  0  0  0  0
  -31.3971  -15.3435   20.3596 N   0  0  0  0  0  0  0  0  0  0  0  0
  -28.2006  -12.4663   18.9814 N   0  0  0  0  0  0  0  0  0  0  0  0
  -29.2606  -20.6985   22.4968 N   0  0  0  0  0  0  0  0  0  0  0  0
  -21.3241  -27.7109   23.4879 N   0  0  0  0  0  0  0  0  0  0  0  0
  -24.5428  -22.7524   25.2555 N   0  0  0  0  0  0  0  0  0  0  0  0
  -25.6317  -20.1691   23.3001 N   0  3  0  0  0  0  0  0  0  0  0  0
  -30.3469  -13.1828   18.6089 O   0  0  0  0  0  0  0  0  0  0  0  0
  -23.5408  -28.3115   23.1034 O   0  0  0  0  0  0  0  0  0  0  0  0
  -22.2320  -24.2957   24.5576 O   0  0  0  0  0  0  0  0  0  0  0  0
  -26.7118  -22.7345   24.4355 O   0  0  0  0  0  0  0  0  0  0  0  0
  -30.5426  -21.1340   24.3806 O   0  0  0  0  0  0  0  0  0  0  0  0
  -23.1072  -11.9081   21.1679 O   0  0  0  0  0  0  0  0  0  0  0  0
  -28.6840  -27.7616   20.2894 O   0  0  0  0  0  0  0  0  0  1  0  0
  -30.4601  -25.0157   19.1765 O   0  0  0  0  0  0  0  0  0  0  0  0
  -23.0519   -6.4173   20.6654 F   0  0  0  0  0  0  0  0  0  0  0  0
  -24.2034  -10.6758   18.9493 F   0  0  0  0  0  0  0  0  0  0  0  0
  1  2  1  0  0  0  0
  1  5  2  0  0  0  0
  2  6  2  0  0  0  0
  3  9  2  0  0  0  0
  3 17  1  0  0  0  0
  4 10  1  0  0  0  0
  4 17  2  0  0  0  0
  5 19  1  0  0  0  0
  6 21  1  0  0  0  0
  7 11  2  0  0  0  0
  7 20  1  0  0  0  0
  8 12  1  0  0  0  0
  8 25  2  0  0  0  0
  9 26  1  0  0  0  0
 10 26  2  0  0  0  0
 11 27  1  0  0  0  0
 12 28  2  0  0  0  0
 13 14  2  0  0  0  0
 13 29  1  0  0  0  0
 14 30  1  0  0  0  0
 15 22  1  0  0  0  0
 15 27  2  0  0  0  0
 16 30  2  0  0  0  0
 16 31  1  0  0  0  0
 17 32  1  0  0  0  0
 18 32  1  0  0  0  0
 18 33  2  0  0  0  0
 18 36  1  0  0  0  0
 19 21  2  0  0  0  0
 19 41  1  0  0  0  0
 20 22  2  0  0  0  0
 20 42  1  0  0  0  0
 21 50  1  0  0  0  0
 22 43  1  0  0  0  0
 23 24  2  0  0  0  0
 23 25  1  0  0  0  0
 23 60  1  0  0  0  0
 24 28  1  0  0  0  0
 24 59  1  0  0  0  0
 25 73  1  0  0  0  0
 26 82  1  0  0  0  0
 27 83  1  0  0  0  0
 28 84  1  0  0  0  0
 29 31  2  0  0  0  0
 29 82  1  0  0  0  0
 30 85  1  0  0  0  0
 31 86  1  0  0  0  0
 32 67  2  0  0  0  0
 33 68  1  0  0  0  0
 33 71  1  0  0  0  0
 34 35  2  0  0  0  0
 35 59  1  0  0  0  0
 36 72  1  0  0  0  0
 36 77  2  0  0  0  0
 37 51  1  0  0  0  0
 37 74  1  0  0  0  0
 37 78  2  0  0  0  0
 38 64  1  0  0  0  0
 38 69  1  0  0  0  0
 38 79  2  0  0  0  0
 39 65  1  0  0  0  0
 39 75  1  0  0  0  0
 39 80  2  0  0  0  0
 40 70  1  0  0  0  0
 40 73  1  0  0  0  0
 40 81  2  0  0  0  0
 41 44  1  0  0  0  0
 42 51  1  0  0  0  0
 43 69  1  0  0  0  0
 44 46  1  0  0  0  0
 45 47  1  0  0  0  0
 45 48  1  0  0  0  0
 46 50  1  0  0  0  0
 47 52  1  0  0  0  0
 48 70  1  0  0  0  0
 49 52  1  0  0  0  0
 49 70  1  0  0  0  0
 50 74  1  0  0  0  0
 51 69  1  0  0  0  0
 52 68  1  0  0  0  0
 53 60  1  0  0  0  0
 54 65  1  0  0  0  0
 55 66  1  0  0  0  0
 56 66  1  0  0  0  0
 57 66  1  0  0  0  0
 58 76  1  0  0  0  0
 61 62  1  0  0  0  0
 61 63  1  0  0  0  0
 62 83  1  0  0  0  0
 63 84  1  0  0  0  0
 64 66  1  0  0  0  0
 64 75  1  0  0  0  0
 65 76  1  0  0  0  0
 67 68  1  0  0  0  0
M  CHG  1  76   1
M  ISO  4  40 100  62 101  73 100  83 101
M  END
> <Batch ID>
0108

> <Smiles>
C=CCc1c(OCC[101CH2:1][101O:1]c2ccc3c(c2)CN(C(=O)C(NC(=O)C(C)NC)C(C)(C)C)C(C(=O)NC2CCCc4ccccc42)C3)ccc([100NH:0][100C:0](=O)N2CCCC(n3nc(-c4ccc(Oc5ccc(F)cc5F)cc4)c(C(N)=O)c3N)C2)c1CC

> <Shape>
0.260

> <Color>
0.093

> <Negative vol penalty>
0.000

$$$$

  -OEChem-04052301203D

 86 94  0     1  0  0  0  0  0999 V2000
  -30.3960  -35.6671   24.4572 C   0  0  0  0  0  0  0  0  0  0  0  0
  -30.0880  -34.5468   23.6920 C   0  0  0  0  0  0  0  0  0  0  0  0
  -23.2031  -10.3978   21.0015 C   0  0  0  0  0  0  0  0  0  0  0  0
  -24.7063   -8.9446   22.2122 C   0  0  0  0  0  0  0  0  0  0  0  0
  -29.5727  -36.0303   25.5221 C   0  0  0  0  0  0  0  0  0  0  0  0
  -28.9569  -33.7884   23.9920 C   0  0  0  0  0  0  0  0  0  0  0  0
  -25.3135  -30.8815   20.0195 C   0  0  0  0  0  0  0  0  0  0  0  0
  -22.3159   -9.3356   20.8280 C   0  0  0  0  0  0  0  0  0  0  0  0
  -23.8190   -7.8824   22.0388 C   0  0  0  0  0  0  0  0  0  0  0  0
  -25.2486  -29.5516   19.6062 C   0  0  0  0  0  0  0  0  0  0  0  0
  -20.9352   -6.7960   23.4258 C   0  0  0  0  0  0  0  0  0  0  0  0
  -20.6681   -5.9895   24.5320 C   0  0  0  0  0  0  0  0  0  0  0  0
  -27.2557  -20.3159   18.5765 C   0  0  0  0  0  0  0  0  0  0  0  0
  -23.5080  -29.1397   21.2248 C   0  0  0  0  0  0  0  0  0  0  0  0
  -29.4648  -19.4265   20.0296 C   0  0  0  0  0  0  0  0  0  0  0  0
  -21.5164   -4.0689   23.3366 C   0  0  0  0  0  0  0  0  0  0  0  0
  -24.3984  -10.2023   21.6936 C   0  0  0  0  0  0  0  0  0  0  0  0
  -27.4492  -18.9505   18.7854 C   0  0  0  0  0  0  0  0  0  0  0  0
  -25.3446  -12.2175   22.9392 C   0  0  0  0  0  0  0  0  0  0  0  0
  -28.4257  -35.2816   25.8294 C   0  0  0  0  0  0  0  0  0  0  0  0
  -24.4823  -31.3486   21.0478 C   0  0  0  0  0  0  0  0  0  0  0  0
  -28.1182  -34.1412   25.0629 C   0  0  0  0  0  0  0  0  0  0  0  0
  -23.5625  -30.4767   21.6475 C   0  0  0  0  0  0  0  0  0  0  0  0
  -28.5538  -18.5058   19.5120 C   0  0  0  0  0  0  0  0  0  0  0  0
  -22.6238   -8.0779   21.3466 C   0  0  0  0  0  0  0  0  0  0  0  0
  -24.3478  -28.6797   20.2108 C   0  0  0  0  0  0  0  0  0  0  0  0
  -21.4929   -6.2390   22.2749 C   0  0  0  0  0  0  0  0  0  0  0  0
  -28.1668  -21.2367   19.0940 C   0  0  0  0  0  0  0  0  0  0  0  0
  -20.9587   -4.6260   24.4874 C   0  0  0  0  0  0  0  0  0  0  0  0
  -29.2713  -20.7920   19.8205 C   0  0  0  0  0  0  0  0  0  0  0  0
  -21.7835   -4.8755   22.2303 C   0  0  0  0  0  0  0  0  0  0  0  0
  -25.3155  -11.2991   21.8726 C   0  0  0  0  0  0  0  0  0  0  0  0
  -26.3930  -13.0541   22.6434 C   0  0  0  0  0  0  0  0  0  0  0  0
  -26.2345  -17.8985   16.9325 C   0  0  0  0  0  0  0  0  0  0  0  0
  -26.4761  -18.0181   18.2288 C   0  0  0  0  0  0  0  0  0  0  0  0
  -24.4996  -12.3063   24.0940 C   0  0  0  0  0  0  0  0  0  0  0  0
  -24.9655  -32.5751   23.9402 C   0  0  0  0  0  0  0  0  0  0  0  0
  -21.7524  -33.0142   23.8640 C   0  0  0  0  0  0  0  0  0  0  0  0
  -18.7302  -32.0800   22.5835 C   0  0  0  0  0  0  0  0  0  0  0  0
  -28.9533  -16.1967   18.6731 C   0  0  0  0  0  0  0  0  0  0  0  0
  -27.5920  -35.6859   27.0194 C   0  0  0  0  0  0  0  0  0  0  0  0
  -24.5458  -32.7927   21.4638 C   0  0  0  0  0  0  0  0  0  0  0  0
  -22.6340  -30.9336   22.7419 C   0  0  0  0  0  0  0  0  0  0  0  0
  -26.2066  -35.0453   27.0385 C   0  0  0  0  0  0  0  0  0  0  0  0
  -30.0273  -12.7005   19.1561 C   0  0  0  0  0  0  0  0  0  0  0  0
  -26.3044  -33.5528   26.7391 C   0  0  0  0  0  0  0  0  0  0  0  0
  -28.8637  -12.0917   19.9367 C   0  0  0  0  0  0  0  0  0  0  0  0
  -29.5670  -13.8351   18.2456 C   0  0  0  0  0  0  0  0  0  0  0  0
  -27.6453  -14.2964   19.7371 C   0  0  0  0  0  0  0  0  0  0  0  0
  -26.8865  -33.3075   25.3417 C   0  0  1  0  0  0  0  0  0  0  0  0
  -24.0122  -33.0326   22.8727 C   0  0  1  0  0  0  0  0  0  0  0  0
  -28.0836  -13.1790   20.6958 C   0  0  1  0  0  0  0  0  0  0  0  0
  -16.2794  -32.5962   22.7411 C   0  0  0  0  0  0  0  0  0  0  0  0
  -21.6111  -31.5203   26.5208 C   0  0  0  0  0  0  0  0  0  0  0  0
  -19.1513  -31.2365   26.1506 C   0  0  0  0  0  0  0  0  0  0  0  0
  -20.1220  -33.5239   26.3701 C   0  0  0  0  0  0  0  0  0  0  0  0
  -29.0758  -16.6547   21.1113 C   0  0  0  0  0  0  0  0  0  0  0  0
  -18.5916  -32.8554   19.7306 C   0  0  0  0  0  0  0  0  0  0  0  0
  -25.4796  -25.2962   19.5813 C   0  0  0  0  0  0  0  0  0  0  0  0
  -26.7567  -24.6302   19.0810 C   0  0  0  0  0  0  0  0  0  0  0  0
  -25.4841  -26.7947   19.3099 C   0  0  0  0  0  0  0  0  0  1  0  0
  -26.7719  -23.1399   19.3902 C   0  0  0  0  0  0  0  0  0  0  0  0
  -20.5513  -32.1921   24.2644 C   0  0  1  0  0  0  0  0  0  0  0  0
  -17.5820  -32.8942   22.0149 C   0  0  2  0  0  0  0  0  0  0  0  0
  -20.3776  -32.1088   25.8072 C   0  0  0  0  0  0  0  0  0  0  0  0
  -26.2695  -11.5304   20.9668 N   0  0  0  0  0  0  0  0  0  0  0  0
  -26.9078  -12.6037   21.4634 N   0  0  0  0  0  0  0  0  0  0  0  0
  -22.7384  -32.3532   23.1180 N   0  0  0  0  0  0  0  0  0  0  0  0
  -28.7893  -14.8316   18.9829 N   0  0  0  0  0  0  0  0  0  0  0  0
  -26.9154  -14.1237   23.2801 N   0  0  0  0  0  0  0  0  0  0  0  0
  -23.4703  -11.3667   24.2427 N   0  0  0  0  0  0  0  0  0  0  0  0
  -25.8797  -33.5362   24.3275 N   0  0  0  0  0  0  0  0  0  0  0  0
  -19.4091  -32.7707   23.5649 N   0  0  0  0  0  0  0  0  0  0  0  0
  -28.7814  -17.0991   19.7450 N   0  0  0  0  0  0  0  0  0  0  0  0
  -17.3949  -32.5863   20.5688 N   0  3  0  0  0  0  0  0  0  0  0  0
  -24.6424  -13.2026   24.9599 O   0  0  0  0  0  0  0  0  0  0  0  0
  -24.8771  -31.4351   24.3809 O   0  0  0  0  0  0  0  0  0  0  0  0
  -21.8103  -34.2012   24.1948 O   0  0  0  0  0  0  0  0  0  0  0  0
  -18.9957  -30.9435   22.1983 O   0  0  0  0  0  0  0  0  0  0  0  0
  -29.2584  -16.5756   17.5359 O   0  0  0  0  0  0  0  0  0  0  0  0
  -21.7582   -7.0412   21.1777 O   0  0  0  0  0  0  0  0  0  0  0  0
  -24.2829  -27.3810   19.8097 O   0  0  0  0  0  0  0  0  0  1  0  0
  -27.9762  -22.5783   18.8871 O   0  0  0  0  0  0  0  0  0  0  0  0
  -20.7035   -3.8519   25.5504 F   0  0  0  0  0  0  0  0  0  0  0  0
  -30.1502  -21.6720   20.3196 F   0  0  0  0  0  0  0  0  0  0  0  0
  -22.3204   -4.3349   21.1279 F   0  0  0  0  0  0  0  0  0  0  0  0
  1  2  1  0  0  0  0
  1  5  2  0  0  0  0
  2  6  2  0  0  0  0
  3  8  2  0  0  0  0
  3 17  1  0  0  0  0
  4  9  1  0  0  0  0
  4 17  2  0  0  0  0
  5 20  1  0  0  0  0
  6 22  1  0  0  0  0
  7 10  2  0  0  0  0
  7 21  1  0  0  0  0
  8 25  1  0  0  0  0
  9 25  2  0  0  0  0
 10 26  1  0  0  0  0
 11 12  2  0  0  0  0
 11 27  1  0  0  0  0
 12 29  1  0  0  0  0
 13 18  1  0  0  0  0
 13 28  2  0  0  0  0
 14 23  1  0  0  0  0
 14 26  2  0  0  0  0
 15 24  1  0  0  0  0
 15 30  2  0  0  0  0
 16 29  2  0  0  0  0
 16 31  1  0  0  0  0
 17 32  1  0  0  0  0
 18 24  2  0  0  0  0
 18 35  1  0  0  0  0
 19 32  1  0  0  0  0
 19 33  2  0  0  0  0
 19 36  1  0  0  0  0
 20 22  2  0  0  0  0
 20 41  1  0  0  0  0
 21 23  2  0  0  0  0
 21 42  1  0  0  0  0
 22 50  1  0  0  0  0
 23 43  1  0  0  0  0
 24 74  1  0  0  0  0
 25 81  1  0  0  0  0
 26 82  1  0  0  0  0
 27 31  2  0  0  0  0
 27 81  1  0  0  0  0
 28 30  1  0  0  0  0
 28 83  1  0  0  0  0
 29 84  1  0  0  0  0
 30 85  1  0  0  0  0
 31 86  1  0  0  0  0
 32 66  2  0  0  0  0
 33 67  1  0  0  0  0
 33 70  1  0  0  0  0
 34 35  2  0  0  0  0
 36 71  1  0  0  0  0
 36 76  2  0  0  0  0
 37 51  1  0  0  0  0
 37 72  1  0  0  0  0
 37 77  2  0  0  0  0
 38 63  1  0  0  0  0
 38 68  1  0  0  0  0
 38 78  2  0  0  0  0
 39 64  1  0  0  0  0
 39 73  1  0  0  0  0
 39 79  2  0  0  0  0
 40 69  1  0  0  0  0
 40 74  1  0  0  0  0
 40 80  2  0  0  0  0
 41 44  1  0  0  0  0
 42 51  1  0  0  0  0
 43 68  1  0  0  0  0
 44 46  1  0  0  0  0
 45 47  1  0  0  0  0
 45 48  1  0  0  0  0
 46 50  1  0  0  0  0
 47 52  1  0  0  0  0
 48 69  1  0  0  0  0
 49 52  1  0  0  0  0
 49 69  1  0  0  0  0
 50 72  1  0  0  0  0
 51 68  1  0  0  0  0
 52 67  1  0  0  0  0
 53 64  1  0  0  0  0
 54 65  1  0  0  0  0
 55 65  1  0  0  0  0
 56 65  1  0  0  0  0
 57 74  1  0  0  0  0
 58 75  1  0  0  0  0
 59 60  1  0  0  0  0
 59 61  1  0  0  0  0
 60 62  1  0  0  0  0
 61 82  1  0  0  0  0
 62 83  1  0  0  0  0
 63 65  1  0  0  0  0
 63 73  1  0  0  0  0
 64 75  1  0  0  0  0
 66 67  1  0  0  0  0
M  CHG  1  75   1
M  ISO  4  40 100  61 101  74 100  82 101
M  END
> <Batch ID>
0108

> <Smiles>
C=Cc1cc(OCCC[101CH2:1][101O:1]c2ccc3c(c2)CN(C(=O)C(NC(=O)C(C)NC)C(C)(C)C)C(C(=O)NC2CCCc4ccccc42)C3)c(F)cc1[100N:0](C)[100C:0](=O)N1CCCC(n2nc(-c3ccc(Oc4ccc(F)cc4F)cc3)c(C(N)=O)c2N)C1

> <Shape>
0.281

> <Color>
0.118

> <Negative vol penalty>
0.000

$$$$

  -OEChem-04052301203D

 86 95  0     1  0  0  0  0  0999 V2000
  -30.4755  -23.5007   15.7190 C   0  0  0  0  0  0  0  0  0  0  0  0
  -29.2784  -24.1702   15.9464 C   0  0  0  0  0  0  0  0  0  0  0  0
  -25.6241  -14.7357   19.4281 C   0  0  0  0  0  0  0  0  0  0  0  0
  -24.6060  -14.5368   21.6100 C   0  0  0  0  0  0  0  0  0  0  0  0
  -31.3421  -23.2504   16.7808 C   0  0  0  0  0  0  0  0  0  0  0  0
  -28.9530  -24.6001   17.2333 C   0  0  0  0  0  0  0  0  0  0  0  0
  -23.9088  -27.2770   19.3588 C   0  0  0  0  0  0  0  0  0  0  0  0
  -23.5181  -25.1521   26.4458 C   0  0  0  0  0  0  0  0  0  0  0  0
  -24.3242  -24.3948   25.5959 C   0  0  0  0  0  0  0  0  0  0  0  0
  -25.8183  -13.3549   19.3927 C   0  0  0  0  0  0  0  0  0  0  0  0
  -24.8002  -13.1559   21.5747 C   0  0  0  0  0  0  0  0  0  0  0  0
  -22.6990  -26.8856   19.9305 C   0  0  0  0  0  0  0  0  0  0  0  0
  -23.3254  -10.4706   20.1482 C   0  0  0  0  0  0  0  0  0  0  0  0
  -22.2637   -9.6580   20.5457 C   0  0  0  0  0  0  0  0  0  0  0  0
  -23.6162  -27.2799   22.1265 C   0  0  0  0  0  0  0  0  0  0  0  0
  -22.3558  -23.5729   24.4613 C   0  0  0  0  0  0  0  0  0  0  0  0
  -23.6359   -8.7235   22.3009 C   0  0  0  0  0  0  0  0  0  0  0  0
  -25.0181  -15.3267   20.5367 C   0  0  0  0  0  0  0  0  0  0  0  0
  -23.6940  -17.4660   20.1150 C   0  0  0  0  0  0  0  0  0  0  0  0
  -31.0207  -23.6667   18.0833 C   0  0  0  0  0  0  0  0  0  0  0  0
  -24.9868  -27.6629   20.1683 C   0  0  0  0  0  0  0  0  0  0  0  0
  -29.8257  -24.3780   18.3140 C   0  0  0  0  0  0  0  0  0  0  0  0
  -24.8378  -27.6781   21.5625 C   0  0  0  0  0  0  0  0  0  0  0  0
  -22.1308  -25.1198   26.3035 C   0  0  0  0  0  0  0  0  0  0  0  0
  -21.5497  -24.3302   25.3113 C   0  0  0  0  0  0  0  0  0  0  0  0
  -23.7430  -23.6052   24.6037 C   0  0  0  0  0  0  0  0  0  0  0  0
  -25.4063  -12.5650   20.4660 C   0  0  0  0  0  0  0  0  0  0  0  0
  -22.5535  -26.8843   21.3147 C   0  0  0  0  0  0  0  0  0  0  0  0
  -24.5425  -10.4096   20.8271 C   0  0  0  0  0  0  0  0  0  0  0  0
  -22.4189   -8.7845   21.6220 C   0  0  0  0  0  0  0  0  0  0  0  0
  -24.6977   -9.5361   21.9034 C   0  0  0  0  0  0  0  0  0  0  0  0
  -24.8177  -16.7530   20.5741 C   0  0  0  0  0  0  0  0  0  0  0  0
  -23.9921  -18.7813   20.3749 C   0  0  0  0  0  0  0  0  0  0  0  0
  -19.4473  -24.5403   22.7048 C   0  0  0  0  0  0  0  0  0  0  0  0
  -22.4884  -16.9825   19.5079 C   0  0  0  0  0  0  0  0  0  0  0  0
  -27.9319  -26.5698   20.6533 C   0  0  0  0  0  0  0  0  0  0  0  0
  -28.2075  -29.2457   22.4661 C   0  0  0  0  0  0  0  0  0  0  0  0
  -26.6635  -31.6730   24.3021 C   0  0  0  0  0  0  0  0  0  0  0  0
  -25.9537  -22.7573   23.7434 C   0  0  0  0  0  0  0  0  0  0  0  0
  -31.9988  -23.3764   19.1943 C   0  0  0  0  0  0  0  0  0  0  0  0
  -26.2766  -28.1079   19.5352 C   0  0  0  0  0  0  0  0  0  0  0  0
  -25.9580  -28.1032   22.4751 C   0  0  0  0  0  0  0  0  0  0  0  0
  -31.3700  -23.4734   20.5804 C   0  0  0  0  0  0  0  0  0  0  0  0
  -28.3344  -20.9542   21.8048 C   0  0  0  0  0  0  0  0  0  0  0  0
  -30.5984  -24.7781   20.7110 C   0  0  0  0  0  0  0  0  0  0  0  0
  -27.5393  -19.7591   21.2740 C   0  0  0  0  0  0  0  0  0  0  0  0
  -18.6742  -26.7981   22.7912 C   0  0  0  0  0  0  0  0  0  0  0  0
  -27.9182  -21.3258   23.2269 C   0  0  0  0  0  0  0  0  0  0  0  0
  -19.4297  -26.4744   24.0662 C   0  0  0  0  0  0  0  0  0  0  0  0
  -25.6830  -20.3479   22.8848 C   0  0  0  0  0  0  0  0  0  0  0  0
  -29.4366  -24.8280   19.7106 C   0  0  1  0  0  0  0  0  0  0  0  0
  -19.1073  -25.7111   21.8019 C   0  0  1  0  0  0  0  0  0  0  0  0
  -27.4744  -27.9896   20.4726 C   0  0  1  0  0  0  0  0  0  0  0  0
  -26.0217  -19.9771   21.4317 C   0  0  2  0  0  0  0  0  0  0  0  0
  -21.2884  -25.9385   27.2258 C   0  0  0  0  0  0  0  0  0  0  0  0
  -27.1550  -33.7021   25.6945 C   0  0  0  0  0  0  0  0  0  0  0  0
  -29.1279  -27.4495   24.7545 C   0  0  0  0  0  0  0  0  0  0  0  0
  -28.6875  -29.3464   26.3280 C   0  0  0  0  0  0  0  0  0  0  0  0
  -30.4012  -29.5904   24.5318 C   0  0  0  0  0  0  0  0  0  0  0  0
  -25.1117  -33.4309   22.4964 C   0  0  0  0  0  0  0  0  0  0  0  0
  -20.0591  -24.2814   25.1381 C   0  0  0  0  0  0  0  0  0  0  0  0
  -20.3273  -26.1148   20.9860 C   0  0  0  0  0  0  0  0  0  1  0  0
  -27.9497  -29.5875   23.9138 C   0  0  1  0  0  0  0  0  0  0  0  0
  -26.8158  -33.1834   24.3057 C   0  0  2  0  0  0  0  0  0  0  0  0
  -29.0209  -28.9835   24.8652 C   0  0  0  0  0  0  0  0  0  0  0  0
  -25.7595  -17.5495   21.0867 N   0  0  0  0  0  0  0  0  0  0  0  0
  -25.2283  -18.7764   20.9512 N   0  0  0  0  0  0  0  0  0  0  0  0
  -19.6221  -25.0461   23.9901 N   0  0  0  0  0  0  0  0  0  0  0  0
  -27.2016  -28.5236   21.8085 N   0  0  0  0  0  0  0  0  0  0  0  0
  -26.4685  -21.5210   23.2991 N   0  0  0  0  0  0  0  0  0  0  0  0
  -23.3149  -19.9299   20.1644 N   0  0  0  0  0  0  0  0  0  0  0  0
  -22.3451  -15.6018   19.3143 N   0  0  0  0  0  0  0  0  0  0  0  0
  -24.5616  -22.8372   23.7388 N   0  0  0  0  0  0  0  0  0  0  0  0
  -28.8625  -26.1555   19.7196 N   0  0  0  0  0  0  0  0  0  0  0  0
  -27.8454  -31.0413   23.9776 N   0  0  0  0  0  0  0  0  0  0  0  0
  -25.5515  -33.8326   23.8574 N   0  3  0  0  0  0  0  0  0  0  0  0
  -19.5828  -23.3862   22.3249 O   0  0  0  0  0  0  0  0  0  0  0  0
  -21.5727  -17.7534   19.1328 O   0  0  0  0  0  0  0  0  0  0  0  0
  -27.4756  -25.9004   21.5727 O   0  0  0  0  0  0  0  0  0  0  0  0
  -29.2594  -29.6122   21.9363 O   0  0  0  0  0  0  0  0  0  0  0  0
  -25.6032  -31.1098   24.5649 O   0  0  0  0  0  0  0  0  0  0  0  0
  -26.6938  -23.6867   24.0757 O   0  0  0  0  0  0  0  0  0  0  0  0
  -25.5954  -11.2175   20.4318 O   0  0  0  0  0  0  0  0  0  0  0  0
  -21.3739  -26.5021   21.8754 O   0  0  0  0  0  0  0  0  0  1  0  0
  -21.3987   -8.0054   22.0045 F   0  0  0  0  0  0  0  0  0  0  0  0
  -25.8641   -9.4739   22.5602 F   0  0  0  0  0  0  0  0  0  0  0  0
  1  2  1  0  0  0  0
  1  5  2  0  0  0  0
  2  6  2  0  0  0  0
  3 10  2  0  0  0  0
  3 18  1  0  0  0  0
  4 11  1  0  0  0  0
  4 18  2  0  0  0  0
  5 20  1  0  0  0  0
  6 22  1  0  0  0  0
  7 12  2  0  0  0  0
  7 21  1  0  0  0  0
  8  9  2  0  0  0  0
  8 24  1  0  0  0  0
  9 26  1  0  0  0  0
 10 27  1  0  0  0  0
 11 27  2  0  0  0  0
 12 28  1  0  0  0  0
 13 14  2  0  0  0  0
 13 29  1  0  0  0  0
 14 30  1  0  0  0  0
 15 23  1  0  0  0  0
 15 28  2  0  0  0  0
 16 25  1  0  0  0  0
 16 26  2  0  0  0  0
 17 30  2  0  0  0  0
 17 31  1  0  0  0  0
 18 32  1  0  0  0  0
 19 32  1  0  0  0  0
 19 33  2  0  0  0  0
 19 35  1  0  0  0  0
 20 22  2  0  0  0  0
 20 40  1  0  0  0  0
 21 23  2  0  0  0  0
 21 41  1  0  0  0  0
 22 51  1  0  0  0  0
 23 42  1  0  0  0  0
 24 25  2  0  0  0  0
 24 55  1  0  0  0  0
 25 61  1  0  0  0  0
 26 73  1  0  0  0  0
 27 83  1  0  0  0  0
 28 84  1  0  0  0  0
 29 31  2  0  0  0  0
 29 83  1  0  0  0  0
 30 85  1  0  0  0  0
 31 86  1  0  0  0  0
 32 66  2  0  0  0  0
 33 67  1  0  0  0  0
 33 71  1  0  0  0  0
 34 52  1  0  0  0  0
 34 68  1  0  0  0  0
 34 77  2  0  0  0  0
 35 72  1  0  0  0  0
 35 78  2  0  0  0  0
 36 53  1  0  0  0  0
 36 74  1  0  0  0  0
 36 79  2  0  0  0  0
 37 63  1  0  0  0  0
 37 69  1  0  0  0  0
 37 80  2  0  0  0  0
 38 64  1  0  0  0  0
 38 75  1  0  0  0  0
 38 81  2  0  0  0  0
 39 70  1  0  0  0  0
 39 73  1  0  0  0  0
 39 82  2  0  0  0  0
 40 43  1  0  0  0  0
 41 53  1  0  0  0  0
 42 69  1  0  0  0  0
 43 45  1  0  0  0  0
 44 46  1  0  0  0  0
 44 48  1  0  0  0  0
 45 51  1  0  0  0  0
 46 54  1  0  0  0  0
 47 49  1  0  0  0  0
 47 52  1  0  0  0  0
 48 70  1  0  0  0  0
 49 68  1  0  0  0  0
 50 54  1  0  0  0  0
 50 70  1  0  0  0  0
 51 74  1  0  0  0  0
 52 62  1  0  0  0  0
 53 69  1  0  0  0  0
 54 67  1  0  0  0  0
 56 64  1  0  0  0  0
 57 65  1  0  0  0  0
 58 65  1  0  0  0  0
 59 65  1  0  0  0  0
 60 76  1  0  0  0  0
 61 68  1  0  0  0  0
 62 84  1  0  0  0  0
 63 65  1  0  0  0  0
 63 75  1  0  0  0  0
 64 76  1  0  0  0  0
 66 67  1  0  0  0  0
M  CHG  1  76   1
M  ISO  4  39 100  62 101  73 100  84 101
M  END
> <Batch ID>
0108

> <Smiles>
CNC(C)C(=O)NC(C(=O)N1Cc2cc([101O:1][101CH2:1]C3CCN(Cc4cc([100NH:0][100C:0](=O)N5CCCC(n6nc(-c7ccc(Oc8ccc(F)cc8F)cc7)c(C(N)=O)c6N)C5)ccc4C)C3=O)ccc2CC1C(=O)NC1CCCc2ccccc21)C(C)(C)C

> <Shape>
0.233

> <Color>
0.057

> <Negative vol penalty>
0.000

$$$$

  -OEChem-04052301203D

 85 93  0     1  0  0  0  0  0999 V2000
  -16.6094  -29.4202   23.8934 C   0  0  0  0  0  0  0  0  0  0  0  0
  -17.1625  -28.6368   22.8855 C   0  0  0  0  0  0  0  0  0  0  0  0
  -25.2012  -13.6453   19.5590 C   0  0  0  0  0  0  0  0  0  0  0  0
  -25.3750  -13.0022   21.8813 C   0  0  0  0  0  0  0  0  0  0  0  0
  -17.2766  -30.5633   24.3317 C   0  0  0  0  0  0  0  0  0  0  0  0
  -18.3827  -28.9967   22.3146 C   0  0  0  0  0  0  0  0  0  0  0  0
  -21.5176  -25.0550   21.7850 C   0  0  0  0  0  0  0  0  0  0  0  0
  -25.1925  -12.3010   19.1873 C   0  0  0  0  0  0  0  0  0  0  0  0
  -25.3663  -11.6578   21.5096 C   0  0  0  0  0  0  0  0  0  0  0  0
  -21.2803  -24.1919   20.7162 C   0  0  0  0  0  0  0  0  0  0  0  0
  -25.0267   -8.0514   21.1985 C   0  0  0  0  0  0  0  0  0  0  0  0
  -24.2158   -7.1815   21.9274 C   0  0  0  0  0  0  0  0  0  0  0  0
  -23.0289  -25.2782   19.4585 C   0  0  0  0  0  0  0  0  0  0  0  0
  -27.3701  -21.1906   19.8486 C   0  0  0  0  0  0  0  0  0  0  0  0
  -25.8460  -19.6659   18.0779 C   0  0  0  0  0  0  0  0  0  0  0  0
  -22.2714   -8.4745   21.3071 C   0  0  0  0  0  0  0  0  0  0  0  0
  -25.2924  -13.9960   20.9060 C   0  0  0  0  0  0  0  0  0  0  0  0
  -24.1884  -16.1894   21.5970 C   0  0  0  0  0  0  0  0  0  0  0  0
  -18.5103  -30.9321   23.7726 C   0  0  0  0  0  0  0  0  0  0  0  0
  -22.5066  -26.0450   21.6944 C   0  0  0  0  0  0  0  0  0  0  0  0
  -19.0664  -30.1466   22.7449 C   0  0  0  0  0  0  0  0  0  0  0  0
  -23.2785  -26.1510   20.5286 C   0  0  0  0  0  0  0  0  0  0  0  0
  -25.9837  -21.3402   19.8143 C   0  0  0  0  0  0  0  0  0  0  0  0
  -27.2324  -19.5164   18.1122 C   0  0  0  0  0  0  0  0  0  0  0  0
  -27.9945  -20.2787   18.9975 C   0  0  0  0  0  0  0  0  0  0  0  0
  -25.2751  -11.3072   20.1626 C   0  0  0  0  0  0  0  0  0  0  0  0
  -22.0340  -24.3052   19.5516 C   0  0  0  0  0  0  0  0  0  0  0  0
  -24.4601   -9.1329   20.5241 C   0  0  0  0  0  0  0  0  0  0  0  0
  -25.2217  -20.5778   18.9290 C   0  0  0  0  0  0  0  0  0  0  0  0
  -22.8381   -7.3930   21.9816 C   0  0  0  0  0  0  0  0  0  0  0  0
  -23.0824   -9.3444   20.5783 C   0  0  0  0  0  0  0  0  0  0  0  0
  -25.3020  -15.3845   21.2906 C   0  0  0  0  0  0  0  0  0  0  0  0
  -24.7248  -17.4175   21.8979 C   0  0  0  0  0  0  0  0  0  0  0  0
  -22.7938  -15.8567   21.6088 C   0  0  0  0  0  0  0  0  0  0  0  0
  -22.5169  -29.2218   21.8006 C   0  0  0  0  0  0  0  0  0  0  0  0
  -25.7356  -28.8254   21.7281 C   0  0  0  0  0  0  0  0  0  0  0  0
  -28.3942  -26.8587   20.8849 C   0  0  0  0  0  0  0  0  0  0  0  0
  -30.1271  -19.7469   20.2058 C   0  0  0  0  0  0  0  0  0  0  0  0
  -19.1712  -32.2023   24.2461 C   0  0  0  0  0  0  0  0  0  0  0  0
  -22.7684  -26.9509   22.8662 C   0  0  0  0  0  0  0  0  0  0  0  0
  -24.3659  -27.1837   20.3886 C   0  0  0  0  0  0  0  0  0  0  0  0
  -20.6416  -32.3082   23.8497 C   0  0  0  0  0  0  0  0  0  0  0  0
  -28.6827  -19.4855   23.6026 C   0  0  0  0  0  0  0  0  0  0  0  0
  -20.8264  -31.9398   22.3811 C   0  0  0  0  0  0  0  0  0  0  0  0
  -27.6125  -18.4086   23.4343 C   0  0  0  0  0  0  0  0  0  0  0  0
  -29.8353  -19.2970   22.6209 C   0  0  0  0  0  0  0  0  0  0  0  0
  -28.3248  -18.1523   21.0242 C   0  0  0  0  0  0  0  0  0  0  0  0
  -20.4002  -30.4905   22.1181 C   0  0  1  0  0  0  0  0  0  0  0  0
  -23.4524  -28.2561   22.4714 C   0  0  1  0  0  0  0  0  0  0  0  0
  -27.1334  -18.3435   21.9747 C   0  0  1  0  0  0  0  0  0  0  0  0
  -25.3329  -22.3223   20.7316 C   0  0  0  0  0  0  0  0  0  0  0  0
  -27.5646  -18.8255   15.7250 C   0  0  0  0  0  0  0  0  0  0  0  0
  -30.9031  -26.8196   20.9139 C   0  0  0  0  0  0  0  0  0  0  0  0
  -25.7902  -30.7256   19.3414 C   0  0  0  0  0  0  0  0  0  0  0  0
  -28.1045  -29.9142   18.8372 C   0  0  0  0  0  0  0  0  0  0  0  0
  -27.6339  -31.0742   20.9949 C   0  0  0  0  0  0  0  0  0  0  0  0
  -30.2084  -20.6743   17.9332 C   0  0  0  0  0  0  0  0  0  0  0  0
  -28.4525  -24.4805   22.6456 C   0  0  0  0  0  0  0  0  0  0  0  0
  -27.8750  -18.5322   17.1894 C   0  0  0  0  0  0  0  0  0  0  0  0
  -21.7811  -21.1720   17.7543 C   0  0  0  0  0  0  0  0  0  0  0  0
  -21.3235  -22.1574   18.8182 C   0  0  0  0  0  0  0  0  0  1  0  0
  -23.2966  -21.1193   17.6418 C   0  0  0  0  0  0  0  0  0  0  0  0
  -26.7758  -28.7228   20.6389 C   0  0  1  0  0  0  0  0  0  0  0  0
  -29.6321  -26.4507   21.6630 C   0  0  2  0  0  0  0  0  0  0  0  0
  -27.0544  -30.0909   19.9547 C   0  0  0  0  0  0  0  0  0  0  0  0
  -26.4585  -16.0457   21.3876 N   0  0  0  0  0  0  0  0  0  0  0  0
  -26.0745  -17.2791   21.7584 N   0  0  0  0  0  0  0  0  0  0  0  0
  -24.5795  -28.0502   21.5595 N   0  0  0  0  0  0  0  0  0  0  0  0
  -29.3594  -19.1765   21.2419 N   0  0  0  0  0  0  0  0  0  0  0  0
  -24.1689  -18.5916   22.2653 N   0  0  0  0  0  0  0  0  0  0  0  0
  -22.4161  -14.5491   21.2742 N   0  0  0  0  0  0  0  0  0  0  0  0
  -21.4239  -29.5726   22.5698 N   0  0  0  0  0  0  0  0  0  0  0  0
  -27.9499  -28.1113   21.2521 N   0  0  0  0  0  0  0  0  0  0  0  0
  -29.4293  -20.1394   19.0477 N   0  0  0  0  0  0  0  0  0  0  0  0
  -29.6351  -24.9789   21.8973 N   0  3  0  0  0  0  0  0  0  0  0  0
  -21.9077  -16.6985   21.8912 O   0  0  0  0  0  0  0  0  0  0  0  0
  -22.7689  -29.6204   20.6695 O   0  0  0  0  0  0  0  0  0  0  0  0
  -25.9443  -29.5605   22.6964 O   0  0  0  0  0  0  0  0  0  0  0  0
  -27.8754  -26.1397   20.0338 O   0  0  0  0  0  0  0  0  0  0  0  0
  -31.3577  -19.8490   20.2833 O   0  0  0  0  0  0  0  0  0  0  0  0
  -25.2665   -9.9952   19.8003 O   0  0  0  0  0  0  0  0  0  0  0  0
  -21.8040  -23.4644   18.5066 O   0  0  0  0  0  0  0  0  0  1  0  0
  -23.8585  -20.7130   18.8824 O   0  0  0  0  0  0  0  0  0  0  0  0
  -22.0593   -6.5567   22.6803 F   0  0  0  0  0  0  0  0  0  0  0  0
  -22.5321  -10.3811   19.9315 F   0  0  0  0  0  0  0  0  0  0  0  0
  1  2  1  0  0  0  0
  1  5  2  0  0  0  0
  2  6  2  0  0  0  0
  3  8  2  0  0  0  0
  3 17  1  0  0  0  0
  4  9  1  0  0  0  0
  4 17  2  0  0  0  0
  5 19  1  0  0  0  0
  6 21  1  0  0  0  0
  7 10  2  0  0  0  0
  7 20  1  0  0  0  0
  8 26  1  0  0  0  0
  9 26  2  0  0  0  0
 10 27  1  0  0  0  0
 11 12  2  0  0  0  0
 11 28  1  0  0  0  0
 12 30  1  0  0  0  0
 13 22  1  0  0  0  0
 13 27  2  0  0  0  0
 14 23  2  0  0  0  0
 14 25  1  0  0  0  0
 15 24  1  0  0  0  0
 15 29  2  0  0  0  0
 16 30  2  0  0  0  0
 16 31  1  0  0  0  0
 17 32  1  0  0  0  0
 18 32  1  0  0  0  0
 18 33  2  0  0  0  0
 18 34  1  0  0  0  0
 19 21  2  0  0  0  0
 19 39  1  0  0  0  0
 20 22  2  0  0  0  0
 20 40  1  0  0  0  0
 21 48  1  0  0  0  0
 22 41  1  0  0  0  0
 23 29  1  0  0  0  0
 23 51  1  0  0  0  0
 24 25  2  0  0  0  0
 24 59  1  0  0  0  0
 25 74  1  0  0  0  0
 26 81  1  0  0  0  0
 27 82  1  0  0  0  0
 28 31  2  0  0  0  0
 28 81  1  0  0  0  0
 29 83  1  0  0  0  0
 30 84  1  0  0  0  0
 31 85  1  0  0  0  0
 32 66  2  0  0  0  0
 33 67  1  0  0  0  0
 33 70  1  0  0  0  0
 34 71  1  0  0  0  0
 34 76  2  0  0  0  0
 35 49  1  0  0  0  0
 35 72  1  0  0  0  0
 35 77  2  0  0  0  0
 36 63  1  0  0  0  0
 36 68  1  0  0  0  0
 36 78  2  0  0  0  0
 37 64  1  0  0  0  0
 37 73  1  0  0  0  0
 37 79  2  0  0  0  0
 38 69  1  0  0  0  0
 38 74  1  0  0  0  0
 38 80  2  0  0  0  0
 39 42  1  0  0  0  0
 40 49  1  0  0  0  0
 41 68  1  0  0  0  0
 42 44  1  0  0  0  0
 43 45  1  0  0  0  0
 43 46  1  0  0  0  0
 44 48  1  0  0  0  0
 45 50  1  0  0  0  0
 46 69  1  0  0  0  0
 47 50  1  0  0  0  0
 47 69  1  0  0  0  0
 48 72  1  0  0  0  0
 49 68  1  0  0  0  0
 50 67  1  0  0  0  0
 52 59  1  0  0  0  0
 53 64  1  0  0  0  0
 54 65  1  0  0  0  0
 55 65  1  0  0  0  0
 56 65  1  0  0  0  0
 57 74  1  0  0  0  0
 58 75  1  0  0  0  0
 60 61  1  0  0  0  0
 60 62  1  0  0  0  0
 61 82  1  0  0  0  0
 62 83  1  0  0  0  0
 63 65  1  0  0  0  0
 63 73  1  0  0  0  0
 64 75  1  0  0  0  0
 66 67  1  0  0  0  0
M  CHG  1  75   1
M  ISO  4  38 100  61 101  74 100  82 101
M  END
> <Batch ID>
0108

> <Smiles>
CCc1cc(OCC[101CH2:1][101O:1]c2ccc3c(c2)CN(C(=O)C(NC(=O)C(C)NC)C(C)(C)C)C(C(=O)NC2CCCc4ccccc42)C3)c(C)cc1[100N:0](C)[100C:0](=O)N1CCCC(n2nc(-c3ccc(Oc4ccc(F)cc4F)cc3)c(C(N)=O)c2N)C1

> <Shape>
0.232

> <Color>
0.072

> <Negative vol penalty>
0.000

$$$$

  -OEChem-04052301203D

 84 93  0     1  0  0  0  0  0999 V2000
  -28.4163  -24.1568   17.0553 C   0  0  0  0  0  0  0  0  0  0  0  0
  -27.2095  -24.3716   17.7133 C   0  0  0  0  0  0  0  0  0  0  0  0
  -27.3122  -19.0528   21.9881 C   0  0  0  0  0  0  0  0  0  0  0  0
  -26.5686  -18.4704   19.7644 C   0  0  0  0  0  0  0  0  0  0  0  0
  -18.9016  -23.6797   19.4331 C   0  0  0  0  0  0  0  0  0  0  0  0
  -29.5951  -24.6946   17.5701 C   0  0  0  0  0  0  0  0  0  0  0  0
  -27.1811  -25.1235   18.8873 C   0  0  0  0  0  0  0  0  0  0  0  0
  -18.6762  -22.3191   19.2242 C   0  0  0  0  0  0  0  0  0  0  0  0
  -23.3786  -28.4673   18.9610 C   0  0  0  0  0  0  0  0  0  0  0  0
  -28.6300  -18.7848   21.6176 C   0  0  0  0  0  0  0  0  0  0  0  0
  -27.8864  -18.2025   19.3939 C   0  0  0  0  0  0  0  0  0  0  0  0
  -22.1060  -27.9780   19.2521 C   0  0  0  0  0  0  0  0  0  0  0  0
  -30.1250  -15.6994   19.7866 C   0  0  0  0  0  0  0  0  0  0  0  0
  -30.3702  -14.5327   19.0627 C   0  0  0  0  0  0  0  0  0  0  0  0
  -18.0832  -22.0599   21.5519 C   0  0  0  0  0  0  0  0  0  0  0  0
  -22.3367  -28.7482   21.5265 C   0  0  0  0  0  0  0  0  0  0  0  0
  -31.2581  -15.8492   17.2418 C   0  0  0  0  0  0  0  0  0  0  0  0
  -26.2815  -18.8955   21.0615 C   0  0  0  0  0  0  0  0  0  0  0  0
  -18.7179  -24.2304   20.7015 C   0  0  0  0  0  0  0  0  0  0  0  0
  -24.2428  -20.4020   21.3477 C   0  0  0  0  0  0  0  0  0  0  0  0
  -18.2669  -21.5092   20.2835 C   0  0  0  0  0  0  0  0  0  0  0  0
  -29.5797  -25.4616   18.7457 C   0  0  0  0  0  0  0  0  0  0  0  0
  -24.1455  -29.0921   19.9550 C   0  0  0  0  0  0  0  0  0  0  0  0
  -28.3610  -25.6710   19.4191 C   0  0  0  0  0  0  0  0  0  0  0  0
  -23.6178  -29.2468   21.2448 C   0  0  0  0  0  0  0  0  0  0  0  0
  -18.3087  -23.4205   21.7608 C   0  0  0  0  0  0  0  0  0  0  0  0
  -28.9171  -18.3597   20.3205 C   0  0  0  0  0  0  0  0  0  0  0  0
  -21.5860  -28.1158   20.5358 C   0  0  0  0  0  0  0  0  0  0  0  0
  -30.4462  -16.9411   19.2382 C   0  0  0  0  0  0  0  0  0  0  0  0
  -30.9368  -14.6075   17.7903 C   0  0  0  0  0  0  0  0  0  0  0  0
  -31.0129  -17.0159   17.9658 C   0  0  0  0  0  0  0  0  0  0  0  0
  -24.9200  -19.1715   21.4438 C   0  0  0  0  0  0  0  0  0  0  0  0
  -22.9857  -20.1411   21.8356 C   0  0  0  0  0  0  0  0  0  0  0  0
  -18.9618  -25.6547   20.8875 C   0  0  0  0  0  0  0  0  0  0  0  0
  -20.1259  -26.2922   20.6518 C   0  0  0  0  0  0  0  0  0  1  0  0
  -24.7086  -21.6677   20.8610 C   0  0  0  0  0  0  0  0  0  0  0  0
  -26.9409  -28.4882   21.3424 C   0  0  0  0  0  0  0  0  0  0  0  0
  -26.4251  -31.3673   22.7451 C   0  0  0  0  0  0  0  0  0  0  0  0
  -24.1901  -33.7482   23.7364 C   0  0  0  0  0  0  0  0  0  0  0  0
  -18.5195  -16.7376   21.7849 C   0  0  0  0  0  0  0  0  0  0  0  0
  -30.8863  -25.9827   19.2897 C   0  0  0  0  0  0  0  0  0  0  0  0
  -25.5058  -29.6383   19.6179 C   0  0  0  0  0  0  0  0  0  0  0  0
  -24.3925  -29.9279   22.3422 C   0  0  0  0  0  0  0  0  0  0  0  0
  -30.7157  -27.0821   20.3349 C   0  0  0  0  0  0  0  0  0  0  0  0
  -21.1446  -16.1082   24.2766 C   0  0  0  0  0  0  0  0  0  0  0  0
  -29.6511  -26.6892   21.3542 C   0  0  0  0  0  0  0  0  0  0  0  0
  -22.3218  -16.9152   23.7227 C   0  0  0  0  0  0  0  0  0  0  0  0
  -16.6190  -19.5041   20.3909 C   0  0  0  0  0  0  0  0  0  0  0  0
  -20.2229  -15.6022   23.1684 C   0  0  0  0  0  0  0  0  0  0  0  0
  -16.8248  -18.0005   20.4822 C   0  0  0  0  0  0  0  0  0  0  0  0
  -18.9143  -19.1026   20.8935 C   0  0  0  0  0  0  0  0  0  0  0  0
  -20.9387  -17.4309   21.6815 C   0  0  0  0  0  0  0  0  0  0  0  0
  -18.0206  -20.0335   20.0570 C   0  0  2  0  0  0  0  0  0  0  0  0
  -28.2858  -26.5019   20.6816 C   0  0  1  0  0  0  0  0  0  0  0  0
  -26.4048  -29.7989   20.8400 C   0  0  1  0  0  0  0  0  0  0  0  0
  -21.8377  -18.0277   22.7722 C   0  0  2  0  0  0  0  0  0  0  0  0
  -18.1022  -23.9761   23.1333 C   0  0  0  0  0  0  0  0  0  0  0  0
  -24.0641  -35.9732   24.8900 C   0  0  0  0  0  0  0  0  0  0  0  0
  -26.8627  -29.9948   25.4348 C   0  0  0  0  0  0  0  0  0  0  0  0
  -25.8101  -31.9794   26.5400 C   0  0  0  0  0  0  0  0  0  0  0  0
  -27.9168  -32.2536   25.2326 C   0  0  0  0  0  0  0  0  0  0  0  0
  -23.0203  -35.0498   21.3497 C   0  0  0  0  0  0  0  0  0  0  0  0
  -25.7444  -31.8340   24.0091 C   0  0  1  0  0  0  0  0  0  0  0  0
  -24.1766  -35.2552   23.5541 C   0  0  2  0  0  0  0  0  0  0  0  0
  -26.5694  -31.5008   25.2842 C   0  0  0  0  0  0  0  0  0  0  0  0
  -24.1563  -18.2011   21.9527 N   0  0  0  0  0  0  0  0  0  0  0  0
  -22.9863  -18.8217   22.1810 N   0  0  0  0  0  0  0  0  0  0  0  0
  -25.7204  -30.4397   21.9648 N   0  0  0  0  0  0  0  0  0  0  0  0
  -19.8238  -16.6975   22.2870 N   0  0  0  0  0  0  0  0  0  0  0  0
  -18.1777  -17.8401   20.9978 N   0  0  0  0  0  0  0  0  0  0  0  0
  -21.8909  -20.9139   21.9985 N   0  0  0  0  0  0  0  0  0  0  0  0
  -26.0276  -21.7605   20.3964 N   0  0  0  0  0  0  0  0  0  0  0  0
  -27.6772  -27.7860   20.4074 N   0  0  0  0  0  0  0  0  0  0  0  0
  -25.4750  -33.2562   23.8264 N   0  0  0  0  0  0  0  0  0  0  0  0
  -23.0238  -35.6637   22.7025 N   0  3  0  0  0  0  0  0  0  0  0  0
  -23.9818  -22.6901   20.8540 O   0  0  0  0  0  0  0  0  0  0  0  0
  -26.7053  -28.1405   22.4936 O   0  0  0  0  0  0  0  0  0  0  0  0
  -27.5379  -31.8148   22.4568 O   0  0  0  0  0  0  0  0  0  0  0  0
  -23.1634  -33.0753   23.7968 O   0  0  0  0  0  0  0  0  0  0  0  0
  -17.6934  -15.8623   22.0719 O   0  0  0  0  0  0  0  0  0  0  0  0
  -30.2029  -18.0984   19.9586 O   0  0  0  0  0  0  0  0  0  0  0  0
  -20.3362  -27.6353   20.8247 O   0  0  0  0  0  0  0  0  0  1  0  0
  -31.1736  -13.4870   17.0957 F   0  0  0  0  0  0  0  0  0  0  0  0
  -31.3248  -18.2059   17.4342 F   0  0  0  0  0  0  0  0  0  0  0  0
  1  2  1  0  0  0  0
  1  6  2  0  0  0  0
  2  7  2  0  0  0  0
  3 10  2  0  0  0  0
  3 18  1  0  0  0  0
  4 11  1  0  0  0  0
  4 18  2  0  0  0  0
  5  8  2  0  0  0  0
  5 19  1  0  0  0  0
  6 22  1  0  0  0  0
  7 24  1  0  0  0  0
  8 21  1  0  0  0  0
  9 12  2  0  0  0  0
  9 23  1  0  0  0  0
 10 27  1  0  0  0  0
 11 27  2  0  0  0  0
 12 28  1  0  0  0  0
 13 14  2  0  0  0  0
 13 29  1  0  0  0  0
 14 30  1  0  0  0  0
 15 21  2  0  0  0  0
 15 26  1  0  0  0  0
 16 25  1  0  0  0  0
 16 28  2  0  0  0  0
 17 30  2  0  0  0  0
 17 31  1  0  0  0  0
 18 32  1  0  0  0  0
 19 26  2  0  0  0  0
 19 34  1  0  0  0  0
 20 32  1  0  0  0  0
 20 33  2  0  0  0  0
 20 36  1  0  0  0  0
 21 53  1  0  0  0  0
 22 24  2  0  0  0  0
 22 41  1  0  0  0  0
 23 25  2  0  0  0  0
 23 42  1  0  0  0  0
 24 54  1  0  0  0  0
 25 43  1  0  0  0  0
 26 57  1  0  0  0  0
 27 81  1  0  0  0  0
 28 82  1  0  0  0  0
 29 31  2  0  0  0  0
 29 81  1  0  0  0  0
 30 83  1  0  0  0  0
 31 84  1  0  0  0  0
 32 66  2  0  0  0  0
 33 67  1  0  0  0  0
 33 71  1  0  0  0  0
 34 35  2  0  0  0  0
 35 82  1  0  0  0  0
 36 72  1  0  0  0  0
 36 76  2  0  0  0  0
 37 55  1  0  0  0  0
 37 73  1  0  0  0  0
 37 77  2  0  0  0  0
 38 63  1  0  0  0  0
 38 68  1  0  0  0  0
 38 78  2  0  0  0  0
 39 64  1  0  0  0  0
 39 74  1  0  0  0  0
 39 79  2  0  0  0  0
 40 69  1  0  0  0  0
 40 70  1  0  0  0  0
 40 80  2  0  0  0  0
 41 44  1  0  0  0  0
 42 55  1  0  0  0  0
 43 68  1  0  0  0  0
 44 46  1  0  0  0  0
 45 47  1  0  0  0  0
 45 49  1  0  0  0  0
 46 54  1  0  0  0  0
 47 56  1  0  0  0  0
 48 50  1  0  0  0  0
 48 53  1  0  0  0  0
 49 69  1  0  0  0  0
 50 70  1  0  0  0  0
 51 53  1  0  0  0  0
 51 70  1  0  0  0  0
 52 56  1  0  0  0  0
 52 69  1  0  0  0  0
 54 73  1  0  0  0  0
 55 68  1  0  0  0  0
 56 67  1  0  0  0  0
 58 64  1  0  0  0  0
 59 65  1  0  0  0  0
 60 65  1  0  0  0  0
 61 65  1  0  0  0  0
 62 75  1  0  0  0  0
 63 65  1  0  0  0  0
 63 74  1  0  0  0  0
 64 75  1  0  0  0  0
 66 67  1  0  0  0  0
M  CHG  1  75   1
M  ISO  4  35 101  40 100  70 100  82 101
M  END
> <Batch ID>
0108

> <Smiles>
CNC(C)C(=O)NC(C(=O)N1Cc2cc([101O:1][101CH:1]=Cc3ccc(C4CC[100N:0]([100C:0](=O)N5CCCC(n6nc(-c7ccc(Oc8ccc(F)cc8F)cc7)c(C(N)=O)c6N)C5)C4)cc3C)ccc2CC1C(=O)NC1CCCc2ccccc21)C(C)(C)C

> <Shape>
0.218

> <Color>
0.069

> <Negative vol penalty>
0.000

$$$$

  -OEChem-04052301203D

 84 92  0     1  0  0  0  0  0999 V2000
  -28.9207  -32.0902   26.3934 C   0  0  0  0  0  0  0  0  0  0  0  0
  -28.9865  -30.9892   25.5455 C   0  0  0  0  0  0  0  0  0  0  0  0
  -23.1760   -9.7997   20.0107 C   0  0  0  0  0  0  0  0  0  0  0  0
  -23.7846  -10.0462   22.3358 C   0  0  0  0  0  0  0  0  0  0  0  0
  -27.7378  -32.3743   27.0745 C   0  0  0  0  0  0  0  0  0  0  0  0
  -27.8696  -30.1710   25.3792 C   0  0  0  0  0  0  0  0  0  0  0  0
  -27.0292  -28.9937   20.5261 C   0  0  0  0  0  0  0  0  0  0  0  0
  -22.4694   -8.6373   20.3189 C   0  0  0  0  0  0  0  0  0  0  0  0
  -23.0779   -8.8838   22.6440 C   0  0  0  0  0  0  0  0  0  0  0  0
  -27.8310  -28.0014   19.9636 C   0  0  0  0  0  0  0  0  0  0  0  0
  -23.5512   -5.5443   22.4094 C   0  0  0  0  0  0  0  0  0  0  0  0
  -24.1637   -4.6181   23.2535 C   0  0  0  0  0  0  0  0  0  0  0  0
  -26.0555  -26.3985   20.2754 C   0  0  0  0  0  0  0  0  0  0  0  0
  -29.9548  -19.7629   21.4497 C   0  0  0  0  0  0  0  0  0  0  0  0
  -28.7547  -18.8739   19.5506 C   0  0  0  0  0  0  0  0  0  0  0  0
  -22.3492   -4.8559   24.8310 C   0  0  0  0  0  0  0  0  0  0  0  0
  -23.8337  -10.5042   21.0192 C   0  0  0  0  0  0  0  0  0  0  0  0
  -29.6558  -17.3767   21.2189 C   0  0  0  0  0  0  0  0  0  0  0  0
  -24.0704  -13.0229   20.6912 C   0  0  0  0  0  0  0  0  0  0  0  0
  -26.6030  -31.5648   26.9090 C   0  0  0  0  0  0  0  0  0  0  0  0
  -25.7364  -28.6928   20.9783 C   0  0  0  0  0  0  0  0  0  0  0  0
  -26.6709  -30.4438   26.0598 C   0  0  0  0  0  0  0  0  0  0  0  0
  -25.2384  -27.3893   20.8410 C   0  0  0  0  0  0  0  0  0  0  0  0
  -30.1554  -18.4684   21.9289 C   0  0  0  0  0  0  0  0  0  0  0  0
  -29.2544  -19.9657   20.2605 C   0  0  0  0  0  0  0  0  0  0  0  0
  -22.4202   -8.1793   21.6355 C   0  0  0  0  0  0  0  0  0  0  0  0
  -27.3452  -26.7030   19.8408 C   0  0  0  0  0  0  0  0  0  0  0  0
  -22.3378   -6.1264   22.7761 C   0  0  0  0  0  0  0  0  0  0  0  0
  -23.5627   -4.2739   24.4643 C   0  0  0  0  0  0  0  0  0  0  0  0
  -28.9554  -17.5794   20.0298 C   0  0  0  0  0  0  0  0  0  0  0  0
  -21.7368   -5.7821   23.9868 C   0  0  0  0  0  0  0  0  0  0  0  0
  -24.5644  -11.7047   20.7014 C   0  0  0  0  0  0  0  0  0  0  0  0
  -25.1495  -13.7912   20.3282 C   0  0  0  0  0  0  0  0  0  0  0  0
  -29.1869  -23.6319   19.6200 C   0  0  0  0  0  0  0  0  0  0  0  0
  -28.4293  -24.6419   20.0585 C   0  0  0  0  0  0  0  0  0  1  0  0
  -29.8529  -16.0159   21.7006 C   0  0  0  0  0  0  0  0  0  0  0  0
  -22.7538  -13.5095   20.9837 C   0  0  0  0  0  0  0  0  0  0  0  0
  -30.5796  -15.0111   20.8910 C   0  0  0  0  0  0  0  0  0  0  0  0
  -24.2662  -28.7885   23.7948 C   0  0  0  0  0  0  0  0  0  0  0  0
  -21.6576  -28.0334   22.0207 C   0  0  0  0  0  0  0  0  0  0  0  0
  -20.3958  -26.6474   19.1687 C   0  0  0  0  0  0  0  0  0  0  0  0
  -25.3611  -31.8845   27.7029 C   0  0  0  0  0  0  0  0  0  0  0  0
  -24.8743  -29.7804   21.5583 C   0  0  0  0  0  0  0  0  0  0  0  0
  -23.8499  -27.0191   21.2923 C   0  0  0  0  0  0  0  0  0  0  0  0
  -24.1085  -31.1841   27.1828 C   0  0  0  0  0  0  0  0  0  0  0  0
  -29.6772  -12.4815   18.5154 C   0  0  0  0  0  0  0  0  0  0  0  0
  -24.3945  -29.7104   26.9118 C   0  0  0  0  0  0  0  0  0  0  0  0
  -28.2385  -12.1353   18.8977 C   0  0  0  0  0  0  0  0  0  0  0  0
  -30.5119  -12.8327   19.7427 C   0  0  0  0  0  0  0  0  0  0  0  0
  -28.4878  -13.5893   20.9590 C   0  0  0  0  0  0  0  0  0  0  0  0
  -25.4731  -29.5468   25.8342 C   0  0  1  0  0  0  0  0  0  0  0  0
  -23.7620  -29.2466   22.4556 C   0  0  1  0  0  0  0  0  0  0  0  0
  -27.6067  -13.2559   19.7424 C   0  0  2  0  0  0  0  0  0  0  0  0
  -30.9089  -18.2799   23.2051 C   0  0  0  0  0  0  0  0  0  0  0  0
  -18.2236  -26.1418   18.0183 C   0  0  0  0  0  0  0  0  0  0  0  0
  -21.2027  -25.6862   23.9164 C   0  0  0  0  0  0  0  0  0  0  0  0
  -19.6520  -24.7025   22.2147 C   0  0  0  0  0  0  0  0  0  0  0  0
  -19.1246  -26.9088   23.2524 C   0  0  0  0  0  0  0  0  0  0  0  0
  -21.0884  -28.3597   16.8563 C   0  0  0  0  0  0  0  0  0  0  0  0
  -29.5344  -22.4378   20.4497 C   0  0  0  0  0  0  0  0  0  0  0  0
  -21.0060  -26.7479   21.5712 C   0  0  1  0  0  0  0  0  0  0  0  0
  -19.3548  -27.1449   18.1821 C   0  0  2  0  0  0  0  0  0  0  0  0
  -20.2732  -26.0176   22.7318 C   0  0  0  0  0  0  0  0  0  0  0  0
  -25.8567  -11.6358   20.3710 N   0  0  0  0  0  0  0  0  0  0  0  0
  -29.4144  -15.5965   22.8552 N   0  0  0  0  0  0  0  0  0  0  0  0
  -26.1839  -12.9203   20.1496 N   0  0  0  0  0  0  0  0  0  0  0  0
  -29.8665  -13.8731   20.5408 N   0  0  0  0  0  0  0  0  0  0  0  0
  -23.0479  -28.1161   21.8587 N   0  0  0  0  0  0  0  0  0  0  0  0
  -25.3050  -15.1199   20.1474 N   0  0  0  0  0  0  0  0  0  0  0  0
  -21.7634  -12.5840   21.3402 N   0  0  0  0  0  0  0  0  0  0  0  0
  -29.0547  -21.2527   19.7837 N   0  0  0  0  0  0  0  0  0  0  0  0
  -24.9121  -29.7720   24.5193 N   0  0  0  0  0  0  0  0  0  0  0  0
  -20.1444  -27.0983   20.4473 N   0  0  0  0  0  0  0  0  0  0  0  0
  -19.9752  -27.3759   16.8470 N   0  3  0  0  0  0  0  0  0  0  0  0
  -22.4600  -14.7270   20.9146 O   0  0  0  0  0  0  0  0  0  0  0  0
  -31.7385  -15.2934   20.6161 O   0  0  0  0  0  0  0  0  0  0  0  0
  -24.0814  -27.6289   24.1456 O   0  0  0  0  0  0  0  0  0  0  0  0
  -20.9580  -28.9337   22.4913 O   0  0  0  0  0  0  0  0  0  0  0  0
  -21.3357  -25.9275   18.8389 O   0  0  0  0  0  0  0  0  0  0  0  0
  -21.7306   -7.0452   21.9366 O   0  0  0  0  0  0  0  0  0  0  0  0
  -28.1259  -25.7324   19.2927 O   0  0  0  0  0  0  0  0  0  1  0  0
  -24.1502   -3.3832   25.2741 F   0  0  0  0  0  0  0  0  0  0  0  0
  -28.4702  -16.5383   19.3382 F   0  0  0  0  0  0  0  0  0  0  0  0
  -20.5704   -6.3371   24.3439 F   0  0  0  0  0  0  0  0  0  0  0  0
  1  2  1  0  0  0  0
  1  5  2  0  0  0  0
  2  6  2  0  0  0  0
  3  8  2  0  0  0  0
  3 17  1  0  0  0  0
  4  9  1  0  0  0  0
  4 17  2  0  0  0  0
  5 20  1  0  0  0  0
  6 22  1  0  0  0  0
  7 10  2  0  0  0  0
  7 21  1  0  0  0  0
  8 26  1  0  0  0  0
  9 26  2  0  0  0  0
 10 27  1  0  0  0  0
 11 12  2  0  0  0  0
 11 28  1  0  0  0  0
 12 29  1  0  0  0  0
 13 23  1  0  0  0  0
 13 27  2  0  0  0  0
 14 24  2  0  0  0  0
 14 25  1  0  0  0  0
 15 25  2  0  0  0  0
 15 30  1  0  0  0  0
 16 29  2  0  0  0  0
 16 31  1  0  0  0  0
 17 32  1  0  0  0  0
 18 24  1  0  0  0  0
 18 30  2  0  0  0  0
 18 36  1  0  0  0  0
 19 32  1  0  0  0  0
 19 33  2  0  0  0  0
 19 37  1  0  0  0  0
 20 22  2  0  0  0  0
 20 42  1  0  0  0  0
 21 23  2  0  0  0  0
 21 43  1  0  0  0  0
 22 51  1  0  0  0  0
 23 44  1  0  0  0  0
 24 54  1  0  0  0  0
 25 71  1  0  0  0  0
 26 80  1  0  0  0  0
 27 81  1  0  0  0  0
 28 31  2  0  0  0  0
 28 80  1  0  0  0  0
 29 82  1  0  0  0  0
 30 83  1  0  0  0  0
 31 84  1  0  0  0  0
 32 64  2  0  0  0  0
 33 66  1  0  0  0  0
 33 69  1  0  0  0  0
 34 35  2  0  0  0  0
 34 60  1  0  0  0  0
 35 81  1  0  0  0  0
 36 38  1  0  0  0  0
 36 65  2  0  0  0  0
 37 70  1  0  0  0  0
 37 75  2  0  0  0  0
 38 67  1  0  0  0  0
 38 76  2  0  0  0  0
 39 52  1  0  0  0  0
 39 72  1  0  0  0  0
 39 77  2  0  0  0  0
 40 61  1  0  0  0  0
 40 68  1  0  0  0  0
 40 78  2  0  0  0  0
 41 62  1  0  0  0  0
 41 73  1  0  0  0  0
 41 79  2  0  0  0  0
 42 45  1  0  0  0  0
 43 52  1  0  0  0  0
 44 68  1  0  0  0  0
 45 47  1  0  0  0  0
 46 48  1  0  0  0  0
 46 49  1  0  0  0  0
 47 51  1  0  0  0  0
 48 53  1  0  0  0  0
 49 67  1  0  0  0  0
 50 53  1  0  0  0  0
 50 67  1  0  0  0  0
 51 72  1  0  0  0  0
 52 68  1  0  0  0  0
 53 66  1  0  0  0  0
 55 62  1  0  0  0  0
 56 63  1  0  0  0  0
 57 63  1  0  0  0  0
 58 63  1  0  0  0  0
 59 74  1  0  0  0  0
 60 71  1  0  0  0  0
 61 63  1  0  0  0  0
 61 73  1  0  0  0  0
 62 74  1  0  0  0  0
 64 66  1  0  0  0  0
M  CHG  1  74   1
M  ISO  4  35 101  36 100  38 100  81 101
M  END
> <Batch ID>
0108

> <Smiles>
CNC(C)C(=O)NC(C(=O)N1Cc2cc([101O:1][101CH:1]=CCNc3cc(C)c([100C:0](=N)[100C:0](=O)N4CCCC(n5nc(-c6ccc(Oc7ccc(F)cc7F)cc6)c(C(N)=O)c5N)C4)c(F)c3)ccc2CC1C(=O)NC1CCCc2ccccc21)C(C)(C)C

> <Shape>
0.392

> <Color>
0.201

> <Negative vol penalty>
0.000

$$$$

  -OEChem-04052301203D

 89 98  0     1  0  0  0  0  0999 V2000
  -27.8280  -36.5761   27.1960 C   0  0  0  0  0  0  0  0  0  0  0  0
  -27.7880  -35.1888   27.2918 C   0  0  0  0  0  0  0  0  0  0  0  0
  -23.1303   -9.9944   19.8464 C   0  0  0  0  0  0  0  0  0  0  0  0
  -24.4814   -9.4319   21.7686 C   0  0  0  0  0  0  0  0  0  0  0  0
  -26.8923  -37.2467   26.4095 C   0  0  0  0  0  0  0  0  0  0  0  0
  -26.8114  -34.4713   26.6020 C   0  0  0  0  0  0  0  0  0  0  0  0
  -28.6224  -29.4360   21.7794 C   0  0  0  0  0  0  0  0  0  0  0  0
  -22.5624   -8.7207   19.8727 C   0  0  0  0  0  0  0  0  0  0  0  0
  -23.9135   -8.1581   21.7950 C   0  0  0  0  0  0  0  0  0  0  0  0
  -28.8871  -28.3118   20.9970 C   0  0  0  0  0  0  0  0  0  0  0  0
  -21.0319   -6.7386   22.8448 C   0  0  0  0  0  0  0  0  0  0  0  0
  -20.6255   -6.2373   24.0813 C   0  0  0  0  0  0  0  0  0  0  0  0
  -26.5236  -28.0467   20.5593 C   0  0  0  0  0  0  0  0  0  0  0  0
  -27.8601  -20.3846   21.4314 C   0  0  0  0  0  0  0  0  0  0  0  0
  -30.2458  -20.5022   21.0688 C   0  0  0  0  0  0  0  0  0  0  0  0
  -22.1491   -4.3794   23.8290 C   0  0  0  0  0  0  0  0  0  0  0  0
  -24.0898  -10.3500   20.7943 C   0  0  0  0  0  0  0  0  0  0  0  0
  -24.0083  -12.8978   20.8931 C   0  0  0  0  0  0  0  0  0  0  0  0
  -25.9097  -36.5363   25.7020 C   0  0  0  0  0  0  0  0  0  0  0  0
  -27.3070  -29.8795   21.9423 C   0  0  0  0  0  0  0  0  0  0  0  0
  -25.8608  -35.1330   25.8064 C   0  0  0  0  0  0  0  0  0  0  0  0
  -26.2535  -29.1796   21.3316 C   0  0  0  0  0  0  0  0  0  0  0  0
  -28.0461  -19.3168   22.3093 C   0  0  0  0  0  0  0  0  0  0  0  0
  -29.3320  -18.8417   22.5670 C   0  0  0  0  0  0  0  0  0  0  0  0
  -28.9599  -20.9773   20.8111 C   0  0  0  0  0  0  0  0  0  0  0  0
  -22.9540   -7.8025   20.8470 C   0  0  0  0  0  0  0  0  0  0  0  0
  -27.8402  -27.6187   20.3887 C   0  0  0  0  0  0  0  0  0  0  0  0
  -21.9969   -6.0602   22.1002 C   0  0  0  0  0  0  0  0  0  0  0  0
  -21.1841   -5.0578   24.5735 C   0  0  0  0  0  0  0  0  0  0  0  0
  -30.4319  -19.4344   21.9468 C   0  0  0  0  0  0  0  0  0  0  0  0
  -22.5555   -4.8806   22.5924 C   0  0  0  0  0  0  0  0  0  0  0  0
  -24.6771  -11.6655   20.7673 C   0  0  0  0  0  0  0  0  0  0  0  0
  -25.0040  -13.8396   20.8027 C   0  0  0  0  0  0  0  0  0  0  0  0
  -27.7434  -24.1725   19.3199 C   0  0  0  0  0  0  0  0  0  0  0  0
  -28.1793  -23.2950   20.2562 C   0  0  0  0  0  0  0  0  0  0  0  0
  -27.8565  -23.7796   17.8751 C   0  0  0  0  0  0  0  0  0  0  0  0
  -22.6120  -13.1671   21.0756 C   0  0  0  0  0  0  0  0  0  0  0  0
  -24.9934  -32.4122   23.4617 C   0  0  0  0  0  0  0  0  0  0  0  0
  -23.9729  -31.8640   20.6212 C   0  0  0  0  0  0  0  0  0  0  0  0
  -22.5712  -32.0516   17.5168 C   0  0  0  0  0  0  0  0  0  0  0  0
  -30.0935  -15.6867   22.1558 C   0  0  0  0  0  0  0  0  0  0  0  0
  -24.8903  -37.3083   24.9023 C   0  0  0  0  0  0  0  0  0  0  0  0
  -26.9697  -31.0494   22.8263 C   0  0  0  0  0  0  0  0  0  0  0  0
  -24.8512  -29.6726   21.5630 C   0  0  0  0  0  0  0  0  0  0  0  0
  -28.3174  -22.3810   17.5423 C   0  0  0  0  0  0  0  0  0  0  0  0
  -24.1194  -36.4472   23.9049 C   0  0  0  0  0  0  0  0  0  0  0  0
  -29.8574  -13.3804   19.4535 C   0  0  0  0  0  0  0  0  0  0  0  0
  -23.6447  -35.1580   24.5678 C   0  0  0  0  0  0  0  0  0  0  0  0
  -28.4363  -12.8262   19.5687 C   0  0  0  0  0  0  0  0  0  0  0  0
  -29.3059  -21.8548   18.5681 C   0  0  0  0  0  0  0  0  0  0  0  0
  -30.4779  -13.6324   20.8259 C   0  0  0  0  0  0  0  0  0  0  0  0
  -28.2506  -13.9260   21.8391 C   0  0  0  0  0  0  0  0  0  0  0  0
  -24.8319  -34.3177   25.0535 C   0  0  1  0  0  0  0  0  0  0  0  0
  -25.7835  -31.8789   22.3029 C   0  0  1  0  0  0  0  0  0  0  0  0
  -27.5626  -13.7084   20.4806 C   0  0  2  0  0  0  0  0  0  0  0  0
  -26.8534  -18.6980   22.9613 C   0  0  0  0  0  0  0  0  0  0  0  0
  -28.1428  -23.6752   21.7238 C   0  0  0  0  0  0  0  0  0  0  0  0
  -20.4139  -32.6037   16.3597 C   0  0  0  0  0  0  0  0  0  0  0  0
  -22.8236  -29.1752   21.4890 C   0  0  0  0  0  0  0  0  0  0  0  0
  -21.1766  -29.3534   19.6118 C   0  0  0  0  0  0  0  0  0  0  0  0
  -21.1695  -31.0503   21.4403 C   0  0  0  0  0  0  0  0  0  0  0  0
  -23.8135  -34.2762   16.0113 C   0  0  0  0  0  0  0  0  0  0  0  0
  -29.5521  -17.6991   23.5034 C   0  0  0  0  0  0  0  0  0  0  0  0
  -27.1048  -25.5090   19.5727 C   0  0  0  0  0  0  0  0  0  1  0  0
  -23.0435  -31.0647   19.7433 C   0  0  1  0  0  0  0  0  0  0  0  0
  -21.7520  -33.1390   16.8453 C   0  0  2  0  0  0  0  0  0  0  0  0
  -22.0813  -30.1621   20.5660 C   0  0  0  0  0  0  0  0  0  0  0  0
  -25.9957  -11.8082   20.6088 N   0  0  0  0  0  0  0  0  0  0  0  0
  -26.1634  -13.1413   20.6343 N   0  0  0  0  0  0  0  0  0  0  0  0
  -28.7712  -22.0637   19.9183 N   0  0  0  0  0  0  0  0  0  0  0  0
  -24.8141  -31.1409   21.4755 N   0  0  0  0  0  0  0  0  0  0  0  0
  -29.6005  -14.4765   21.6405 N   0  0  0  0  0  0  0  0  0  0  0  0
  -24.9920  -15.1886   20.8514 N   0  0  0  0  0  0  0  0  0  0  0  0
  -22.1127  -13.2500   22.3826 N   0  0  0  0  0  0  0  0  0  0  0  0
  -25.4488  -33.6250   23.9426 N   0  0  0  0  0  0  0  0  0  0  0  0
  -22.3680  -32.0277   18.8805 N   0  0  0  0  0  0  0  0  0  0  0  0
  -29.1946  -16.4291   22.9117 N   0  0  0  0  0  0  0  0  0  0  0  0
  -22.4887  -33.6943   15.6749 N   0  3  0  0  0  0  0  0  0  0  0  0
  -27.5283  -24.5599   16.9817 O   0  0  0  0  0  0  0  0  0  0  0  0
  -21.8270  -13.3131   20.1082 O   0  0  0  0  0  0  0  0  0  0  0  0
  -24.0395  -31.7720   23.8882 O   0  0  0  0  0  0  0  0  0  0  0  0
  -23.9515  -33.0964   20.5575 O   0  0  0  0  0  0  0  0  0  0  0  0
  -23.3139  -31.2963   16.8936 O   0  0  0  0  0  0  0  0  0  0  0  0
  -31.2474  -16.0791   21.9524 O   0  0  0  0  0  0  0  0  0  0  0  0
  -22.4000   -6.5596   20.8731 O   0  0  0  0  0  0  0  0  0  0  0  0
  -28.1061  -26.5246   19.6226 O   0  0  0  0  0  0  0  0  0  1  0  0
  -20.7948   -4.5773   25.7617 F   0  0  0  0  0  0  0  0  0  0  0  0
  -31.6717  -18.9852   22.1875 F   0  0  0  0  0  0  0  0  0  0  0  0
  -23.4839   -4.2251   21.8822 F   0  0  0  0  0  0  0  0  0  0  0  0
  1  2  1  0  0  0  0
  1  5  2  0  0  0  0
  2  6  2  0  0  0  0
  3  8  2  0  0  0  0
  3 17  1  0  0  0  0
  4  9  1  0  0  0  0
  4 17  2  0  0  0  0
  5 19  1  0  0  0  0
  6 21  1  0  0  0  0
  7 10  2  0  0  0  0
  7 20  1  0  0  0  0
  8 26  1  0  0  0  0
  9 26  2  0  0  0  0
 10 27  1  0  0  0  0
 11 12  2  0  0  0  0
 11 28  1  0  0  0  0
 12 29  1  0  0  0  0
 13 22  1  0  0  0  0
 13 27  2  0  0  0  0
 14 23  2  0  0  0  0
 14 25  1  0  0  0  0
 15 25  2  0  0  0  0
 15 30  1  0  0  0  0
 16 29  2  0  0  0  0
 16 31  1  0  0  0  0
 17 32  1  0  0  0  0
 18 32  1  0  0  0  0
 18 33  2  0  0  0  0
 18 37  1  0  0  0  0
 19 21  2  0  0  0  0
 19 42  1  0  0  0  0
 20 22  2  0  0  0  0
 20 43  1  0  0  0  0
 21 53  1  0  0  0  0
 22 44  1  0  0  0  0
 23 24  1  0  0  0  0
 23 56  1  0  0  0  0
 24 30  2  0  0  0  0
 24 63  1  0  0  0  0
 25 70  1  0  0  0  0
 26 85  1  0  0  0  0
 27 86  1  0  0  0  0
 28 31  2  0  0  0  0
 28 85  1  0  0  0  0
 29 87  1  0  0  0  0
 30 88  1  0  0  0  0
 31 89  1  0  0  0  0
 32 68  2  0  0  0  0
 33 69  1  0  0  0  0
 33 73  1  0  0  0  0
 34 35  2  0  0  0  0
 34 36  1  0  0  0  0
 34 64  1  0  0  0  0
 35 57  1  0  0  0  0
 35 70  1  0  0  0  0
 36 45  1  0  0  0  0
 36 79  2  0  0  0  0
 37 74  1  0  0  0  0
 37 80  2  0  0  0  0
 38 54  1  0  0  0  0
 38 75  1  0  0  0  0
 38 81  2  0  0  0  0
 39 65  1  0  0  0  0
 39 71  1  0  0  0  0
 39 82  2  0  0  0  0
 40 66  1  0  0  0  0
 40 76  1  0  0  0  0
 40 83  2  0  0  0  0
 41 72  1  0  0  0  0
 41 77  1  0  0  0  0
 41 84  2  0  0  0  0
 42 46  1  0  0  0  0
 43 54  1  0  0  0  0
 44 71  1  0  0  0  0
 45 50  1  0  0  0  0
 46 48  1  0  0  0  0
 47 49  1  0  0  0  0
 47 51  1  0  0  0  0
 48 53  1  0  0  0  0
 49 55  1  0  0  0  0
 50 70  1  0  0  0  0
 51 72  1  0  0  0  0
 52 55  1  0  0  0  0
 52 72  1  0  0  0  0
 53 75  1  0  0  0  0
 54 71  1  0  0  0  0
 55 69  1  0  0  0  0
 58 66  1  0  0  0  0
 59 67  1  0  0  0  0
 60 67  1  0  0  0  0
 61 67  1  0  0  0  0
 62 78  1  0  0  0  0
 63 77  1  0  0  0  0
 64 86  1  0  0  0  0
 65 67  1  0  0  0  0
 65 76  1  0  0  0  0
 66 78  1  0  0  0  0
 68 69  1  0  0  0  0
M  CHG  1  78   1
M  ISO  4  41 100  64 101  77 100  86 101
M  END
> <Batch ID>
0108

> <Smiles>
CNC(C)C(=O)NC(C(=O)N1Cc2cc([101O:1][101CH2:1]C3=C(C)N(c4cc(C)c(C[100NH:0][100C:0](=O)N5CCCC(n6nc(-c7ccc(Oc8ccc(F)cc8F)cc7)c(C(N)=O)c6N)C5)c(F)c4)CCC3=O)ccc2CC1C(=O)NC1CCCc2ccccc21)C(C)(C)C

> <Shape>
0.367

> <Color>
0.182

> <Negative vol penalty>
0.000

$$$$

  -OEChem-04052301203D

 87 95  0     1  0  0  0  0  0999 V2000
  -17.1758  -31.8587   22.9316 C   0  0  0  0  0  0  0  0  0  0  0  0
  -18.4655  -32.3715   22.8372 C   0  0  0  0  0  0  0  0  0  0  0  0
  -27.0626  -13.2812   21.1585 C   0  0  0  0  0  0  0  0  0  0  0  0
  -26.8594  -13.7034   18.7884 C   0  0  0  0  0  0  0  0  0  0  0  0
  -16.9830  -30.5094   23.2250 C   0  0  0  0  0  0  0  0  0  0  0  0
  -19.5634  -31.5354   23.0373 C   0  0  0  0  0  0  0  0  0  0  0  0
  -26.3144  -30.5650   20.8465 C   0  0  0  0  0  0  0  0  0  0  0  0
  -26.2837  -12.1324   21.0207 C   0  0  0  0  0  0  0  0  0  0  0  0
  -26.0805  -12.5546   18.6506 C   0  0  0  0  0  0  0  0  0  0  0  0
  -27.6017  -30.4118   21.3594 C   0  0  0  0  0  0  0  0  0  0  0  0
  -24.0481   -9.2836   21.3523 C   0  0  0  0  0  0  0  0  0  0  0  0
  -23.0390   -9.0660   22.2904 C   0  0  0  0  0  0  0  0  0  0  0  0
  -27.1490  -28.0804   21.7826 C   0  0  0  0  0  0  0  0  0  0  0  0
  -31.6845  -23.6050   20.3609 C   0  0  0  0  0  0  0  0  0  0  0  0
  -32.6849  -23.2913   18.1843 C   0  0  0  0  0  0  0  0  0  0  0  0
  -33.2026  -25.2645   19.4786 C   0  0  0  0  0  0  0  0  0  0  0  0
  -21.9948  -11.1485   21.6503 C   0  0  0  0  0  0  0  0  0  0  0  0
  -27.3505  -14.0668   20.0424 C   0  0  0  0  0  0  0  0  0  0  0  0
  -29.5553  -15.3493   20.0809 C   0  0  0  0  0  0  0  0  0  0  0  0
  -18.0792  -29.6542   23.4192 C   0  0  0  0  0  0  0  0  0  0  0  0
  -25.4295  -29.4778   20.8078 C   0  0  0  0  0  0  0  0  0  0  0  0
  -19.3852  -30.1736   23.3349 C   0  0  0  0  0  0  0  0  0  0  0  0
  -25.8519  -28.2219   21.2664 C   0  0  0  0  0  0  0  0  0  0  0  0
  -31.8454  -22.8427   19.2039 C   0  0  0  0  0  0  0  0  0  0  0  0
  -32.3631  -24.8159   20.4982 C   0  0  0  0  0  0  0  0  0  0  0  0
  -33.3635  -24.5022   18.3216 C   0  0  0  0  0  0  0  0  0  0  0  0
  -25.7926  -11.7691   19.7667 C   0  0  0  0  0  0  0  0  0  0  0  0
  -28.0182  -29.1700   21.8303 C   0  0  0  0  0  0  0  0  0  0  0  0
  -24.0306  -10.4337   20.5633 C   0  0  0  0  0  0  0  0  0  0  0  0
  -22.0124   -9.9984   22.4394 C   0  0  0  0  0  0  0  0  0  0  0  0
  -23.0040  -11.3662   20.7123 C   0  0  0  0  0  0  0  0  0  0  0  0
  -28.1546  -15.2540   20.1842 C   0  0  0  0  0  0  0  0  0  0  0  0
  -29.8256  -16.6790   20.2937 C   0  0  0  0  0  0  0  0  0  0  0  0
  -30.5254  -14.3273   19.8161 C   0  0  0  0  0  0  0  0  0  0  0  0
  -29.7686  -21.7197   18.4112 C   0  0  0  0  0  0  0  0  0  0  0  0
  -28.6145  -22.0453   19.2803 C   0  0  0  0  0  0  0  0  0  0  0  0
  -22.6085  -28.8338   22.1233 C   0  0  0  0  0  0  0  0  0  0  0  0
  -22.7742  -26.1925   20.2474 C   0  0  0  0  0  0  0  0  0  0  0  0
  -31.4078  -25.2943   22.7789 C   0  0  0  0  0  0  0  0  0  0  0  0
  -24.7202  -23.9716   18.5365 C   0  0  0  0  0  0  0  0  0  0  0  0
  -17.8205  -28.2131   23.7810 C   0  0  0  0  0  0  0  0  0  0  0  0
  -24.0533  -29.6533   20.2268 C   0  0  0  0  0  0  0  0  0  0  0  0
  -24.9471  -27.0184   21.2281 C   0  0  0  0  0  0  0  0  0  0  0  0
  -19.0416  -27.3133   23.6092 C   0  0  0  0  0  0  0  0  0  0  0  0
  -26.8781  -20.4232   21.9655 C   0  0  0  0  0  0  0  0  0  0  0  0
  -20.2769  -27.9675   24.2199 C   0  0  0  0  0  0  0  0  0  0  0  0
  -27.1389  -18.9392   21.7091 C   0  0  0  0  0  0  0  0  0  0  0  0
  -26.7559  -21.2022   20.6599 C   0  0  0  0  0  0  0  0  0  0  0  0
  -28.1986  -19.5586   19.4912 C   0  0  0  0  0  0  0  0  0  0  0  0
  -20.6018  -29.2931   23.5208 C   0  0  1  0  0  0  0  0  0  0  0  0
  -23.0618  -28.5994   20.7101 C   0  0  1  0  0  0  0  0  0  0  0  0
  -28.3555  -18.7437   20.7869 C   0  0  2  0  0  0  0  0  0  0  0  0
  -24.5725  -21.8973   17.1319 C   0  0  0  0  0  0  0  0  0  0  0  0
  -22.2737  -24.5315   22.7575 C   0  0  0  0  0  0  0  0  0  0  0  0
  -23.0712  -22.5187   21.5002 C   0  0  0  0  0  0  0  0  0  0  0  0
  -21.0436  -23.7483   20.7258 C   0  0  0  0  0  0  0  0  0  0  0  0
  -33.9963  -24.6415   15.9121 C   0  0  0  0  0  0  0  0  0  0  0  0
  -25.9337  -25.3263   16.2017 C   0  0  0  0  0  0  0  0  0  0  0  0
  -31.1198  -21.5480   19.0570 C   0  0  0  0  0  0  0  0  0  0  0  0
  -31.5197  -26.3960   23.8236 C   0  0  0  0  0  0  0  0  0  0  0  0
  -31.0719  -27.7543   23.2952 C   0  0  0  0  0  0  0  0  0  0  0  0
  -29.6344  -27.7178   22.7971 C   0  0  0  0  0  0  0  0  0  1  0  0
  -23.3232  -24.7961   20.4134 C   0  0  1  0  0  0  0  0  0  0  0  0
  -24.6151  -23.4175   17.1271 C   0  0  2  0  0  0  0  0  0  0  0  0
  -22.4445  -23.9216   21.3519 C   0  0  0  0  0  0  0  0  0  0  0  0
  -27.5754  -16.4295   20.4428 N   0  0  0  0  0  0  0  0  0  0  0  0
  -29.5480  -21.5647   17.1495 N   0  0  0  0  0  0  0  0  0  0  0  0
  -28.6174  -17.2760   20.5038 N   0  0  0  0  0  0  0  0  0  0  0  0
  -27.9090  -20.9660   19.7935 N   0  0  0  0  0  0  0  0  0  0  0  0
  -23.6089  -27.2421   20.6567 N   0  0  0  0  0  0  0  0  0  0  0  0
  -30.9765  -17.3841   20.3199 N   0  0  0  0  0  0  0  0  0  0  0  0
  -30.0762  -13.0140   19.6215 N   0  0  0  0  0  0  0  0  0  0  0  0
  -32.1993  -25.5890   21.6723 N   0  0  0  0  0  0  0  0  0  0  0  0
  -34.2127  -24.9555   17.2904 N   0  0  0  0  0  0  0  0  0  0  0  0
  -21.2494  -29.0488   22.2498 N   0  0  0  0  0  0  0  0  0  0  0  0
  -23.4798  -24.2564   19.0671 N   0  0  0  0  0  0  0  0  0  0  0  0
  -25.7838  -23.8523   16.3110 N   0  3  0  0  0  0  0  0  0  0  0  0
  -31.7555  -14.5685   19.7702 O   0  0  0  0  0  0  0  0  0  0  0  0
  -28.4051  -23.2388   19.4536 O   0  0  0  0  0  0  0  0  0  0  0  0
  -23.4307  -28.8190   23.0319 O   0  0  0  0  0  0  0  0  0  0  0  0
  -21.6492  -26.3468   19.7656 O   0  0  0  0  0  0  0  0  0  0  0  0
  -30.7001  -24.3068   22.9470 O   0  0  0  0  0  0  0  0  0  0  0  0
  -25.7949  -24.1321   19.1107 O   0  0  0  0  0  0  0  0  0  0  0  0
  -25.0327  -10.6480   19.6318 O   0  0  0  0  0  0  0  0  0  0  0  0
  -29.2740  -29.0178   22.3320 O   0  0  0  0  0  0  0  0  0  1  0  0
  -21.0426   -9.7886   23.3392 F   0  0  0  0  0  0  0  0  0  0  0  0
  -22.9811  -12.4724   19.9562 F   0  0  0  0  0  0  0  0  0  0  0  0
  1  2  1  0  0  0  0
  1  5  2  0  0  0  0
  2  6  2  0  0  0  0
  3  8  2  0  0  0  0
  3 18  1  0  0  0  0
  4  9  1  0  0  0  0
  4 18  2  0  0  0  0
  5 20  1  0  0  0  0
  6 22  1  0  0  0  0
  7 10  2  0  0  0  0
  7 21  1  0  0  0  0
  8 27  1  0  0  0  0
  9 27  2  0  0  0  0
 10 28  1  0  0  0  0
 11 12  2  0  0  0  0
 11 29  1  0  0  0  0
 12 30  1  0  0  0  0
 13 23  1  0  0  0  0
 13 28  2  0  0  0  0
 14 24  1  0  0  0  0
 14 25  2  0  0  0  0
 15 24  2  0  0  0  0
 15 26  1  0  0  0  0
 16 25  1  0  0  0  0
 16 26  2  0  0  0  0
 17 30  2  0  0  0  0
 17 31  1  0  0  0  0
 18 32  1  0  0  0  0
 19 32  1  0  0  0  0
 19 33  2  0  0  0  0
 19 34  1  0  0  0  0
 20 22  2  0  0  0  0
 20 41  1  0  0  0  0
 21 23  2  0  0  0  0
 21 42  1  0  0  0  0
 22 50  1  0  0  0  0
 23 43  1  0  0  0  0
 24 59  1  0  0  0  0
 25 73  1  0  0  0  0
 26 74  1  0  0  0  0
 27 84  1  0  0  0  0
 28 85  1  0  0  0  0
 29 31  2  0  0  0  0
 29 84  1  0  0  0  0
 30 86  1  0  0  0  0
 31 87  1  0  0  0  0
 32 66  2  0  0  0  0
 33 68  1  0  0  0  0
 33 71  1  0  0  0  0
 34 72  1  0  0  0  0
 34 78  2  0  0  0  0
 35 36  1  0  0  0  0
 35 59  1  0  0  0  0
 35 67  2  0  0  0  0
 36 69  1  0  0  0  0
 36 79  2  0  0  0  0
 37 51  1  0  0  0  0
 37 75  1  0  0  0  0
 37 80  2  0  0  0  0
 38 63  1  0  0  0  0
 38 70  1  0  0  0  0
 38 81  2  0  0  0  0
 39 60  1  0  0  0  0
 39 73  1  0  0  0  0
 39 82  2  0  0  0  0
 40 64  1  0  0  0  0
 40 76  1  0  0  0  0
 40 83  2  0  0  0  0
 41 44  1  0  0  0  0
 42 51  1  0  0  0  0
 43 70  1  0  0  0  0
 44 46  1  0  0  0  0
 45 47  1  0  0  0  0
 45 48  1  0  0  0  0
 46 50  1  0  0  0  0
 47 52  1  0  0  0  0
 48 69  1  0  0  0  0
 49 52  1  0  0  0  0
 49 69  1  0  0  0  0
 50 75  1  0  0  0  0
 51 70  1  0  0  0  0
 52 68  1  0  0  0  0
 53 64  1  0  0  0  0
 54 65  1  0  0  0  0
 55 65  1  0  0  0  0
 56 65  1  0  0  0  0
 57 74  1  0  0  0  0
 58 77  1  0  0  0  0
 60 61  1  0  0  0  0
 61 62  1  0  0  0  0
 62 85  1  0  0  0  0
 63 65  1  0  0  0  0
 63 76  1  0  0  0  0
 64 77  1  0  0  0  0
 66 68  1  0  0  0  0
M  CHG  1  77   1
M  ISO  4  35 100  36 100  62 101  85 101
M  END
> <Batch ID>
0108

> <Smiles>
CNc1cc(C[100C:0](=N)[100C:0](=O)N2CCCC(n3nc(-c4ccc(Oc5ccc(F)cc5F)cc4)c(C(N)=O)c3N)C2)cc(NC(=O)CC[101CH2:1][101O:1]c2ccc3c(c2)CN(C(=O)C(NC(=O)C(C)NC)C(C)(C)C)C(C(=O)NC2CCCc4ccccc42)C3)c1

> <Shape>
0.247

> <Color>
0.087

> <Negative vol penalty>
0.000

$$$$

  -OEChem-04052301203D

 86 94  0     1  0  0  0  0  0999 V2000
  -25.7283  -33.9380   21.7768 C   0  0  0  0  0  0  0  0  0  0  0  0
  -26.3912  -32.8857   22.4002 C   0  0  0  0  0  0  0  0  0  0  0  0
  -23.0113   -9.8830   19.9988 C   0  0  0  0  0  0  0  0  0  0  0  0
  -23.6942  -10.0002   22.3133 C   0  0  0  0  0  0  0  0  0  0  0  0
  -24.3659  -33.8352   21.4988 C   0  0  0  0  0  0  0  0  0  0  0  0
  -25.6917  -31.7303   22.7469 C   0  0  0  0  0  0  0  0  0  0  0  0
  -28.2008  -27.5024   21.5328 C   0  0  0  0  0  0  0  0  0  0  0  0
  -22.2452   -8.7524   20.2821 C   0  0  0  0  0  0  0  0  0  0  0  0
  -22.9280   -8.8696   22.5966 C   0  0  0  0  0  0  0  0  0  0  0  0
  -29.2424  -27.1160   22.3752 C   0  0  0  0  0  0  0  0  0  0  0  0
  -23.1958   -5.5203   22.2204 C   0  0  0  0  0  0  0  0  0  0  0  0
  -23.7741   -4.5268   23.0105 C   0  0  0  0  0  0  0  0  0  0  0  0
  -27.7856  -25.5076   23.4288 C   0  0  0  0  0  0  0  0  0  0  0  0
  -30.2650  -19.0740   23.0194 C   0  0  0  0  0  0  0  0  0  0  0  0
  -31.8377  -17.3233   21.5213 C   0  0  0  0  0  0  0  0  0  0  0  0
  -22.0189   -4.8067   24.6470 C   0  0  0  0  0  0  0  0  0  0  0  0
  -23.7359  -10.5069   21.0144 C   0  0  0  0  0  0  0  0  0  0  0  0
  -24.1132  -13.0186   20.7769 C   0  0  0  0  0  0  0  0  0  0  0  0
  -23.6515  -32.6741   21.8336 C   0  0  0  0  0  0  0  0  0  0  0  0
  -26.9386  -26.9009   21.6396 C   0  0  0  0  0  0  0  0  0  0  0  0
  -24.3182  -31.6124   22.4744 C   0  0  0  0  0  0  0  0  0  0  0  0
  -26.7304  -25.8863   22.5849 C   0  0  0  0  0  0  0  0  0  0  0  0
  -29.7516  -17.8382   22.6259 C   0  0  0  0  0  0  0  0  0  0  0  0
  -30.5379  -16.9629   21.8769 C   0  0  0  0  0  0  0  0  0  0  0  0
  -32.3511  -18.5591   21.9148 C   0  0  0  0  0  0  0  0  0  0  0  0
  -22.2035   -8.2457   21.5810 C   0  0  0  0  0  0  0  0  0  0  0  0
  -29.0341  -26.1205   23.3253 C   0  0  0  0  0  0  0  0  0  0  0  0
  -22.0291   -6.1570   22.6437 C   0  0  0  0  0  0  0  0  0  0  0  0
  -31.5648  -19.4344   22.6638 C   0  0  0  0  0  0  0  0  0  0  0  0
  -23.1857   -4.1700   24.2238 C   0  0  0  0  0  0  0  0  0  0  0  0
  -21.4407   -5.8002   23.8570 C   0  0  0  0  0  0  0  0  0  0  0  0
  -24.5280  -11.6745   20.7223 C   0  0  0  0  0  0  0  0  0  0  0  0
  -25.2261  -13.7366   20.4130 C   0  0  0  0  0  0  0  0  0  0  0  0
  -22.8359  -13.5691   21.1254 C   0  0  0  0  0  0  0  0  0  0  0  0
  -24.0139  -27.9325   22.3363 C   0  0  0  0  0  0  0  0  0  0  0  0
  -23.1803  -24.8941   21.5649 C   0  0  0  0  0  0  0  0  0  0  0  0
  -24.1102  -21.6254   21.2518 C   0  0  0  0  0  0  0  0  0  0  0  0
  -30.6961  -14.7308   20.7196 C   0  0  0  0  0  0  0  0  0  0  0  0
  -22.1698  -32.6280   21.5558 C   0  0  0  0  0  0  0  0  0  0  0  0
  -25.8330  -27.3102   20.7055 C   0  0  0  0  0  0  0  0  0  0  0  0
  -25.3998  -25.1951   22.7262 C   0  0  0  0  0  0  0  0  0  0  0  0
  -21.5821  -31.2205   21.6171 C   0  0  0  0  0  0  0  0  0  0  0  0
  -29.6313  -12.2101   18.4416 C   0  0  0  0  0  0  0  0  0  0  0  0
  -22.0741  -30.4903   22.8627 C   0  0  0  0  0  0  0  0  0  0  0  0
  -28.1745  -11.9566   18.8364 C   0  0  0  0  0  0  0  0  0  0  0  0
  -30.5085  -12.4907   19.6604 C   0  0  0  0  0  0  0  0  0  0  0  0
  -28.5657  -13.3061   20.9371 C   0  0  0  0  0  0  0  0  0  0  0  0
  -23.5994  -30.3329   22.8436 C   0  0  1  0  0  0  0  0  0  0  0  0
  -24.4435  -26.9901   21.2478 C   0  0  1  0  0  0  0  0  0  0  0  0
  -27.6307  -13.0827   19.7373 C   0  0  2  0  0  0  0  0  0  0  0  0
  -27.3717  -17.6258   21.8660 C   0  0  0  0  0  0  0  0  0  0  0  0
  -23.2004  -19.3687   20.6380 C   0  0  0  0  0  0  0  0  0  0  0  0
  -21.7872  -24.7215   24.2740 C   0  0  0  0  0  0  0  0  0  0  0  0
  -21.7381  -22.2321   24.0120 C   0  0  0  0  0  0  0  0  0  0  0  0
  -20.5243  -23.6800   22.3833 C   0  0  0  0  0  0  0  0  0  0  0  0
  -25.9936  -21.3542   18.9850 C   0  0  0  0  0  0  0  0  0  0  0  0
  -28.3565  -17.4778   23.0215 C   0  0  0  0  0  0  0  0  0  0  0  0
  -31.7543  -23.3617   24.0586 C   0  0  0  0  0  0  0  0  0  0  0  0
  -32.2445  -24.7899   24.2973 C   0  0  0  0  0  0  0  0  0  0  0  0
  -32.6505  -22.2998   24.6938 C   0  0  0  0  0  0  0  0  0  0  0  0
  -31.3765  -25.8533   23.6380 C   0  0  0  0  0  0  0  0  0  1  0  0
  -32.1065  -20.8968   24.4593 C   0  0  0  0  0  0  0  0  0  0  0  0
  -23.0504  -23.5956   22.3239 C   0  0  1  0  0  0  0  0  0  0  0  0
  -23.8999  -20.6211   20.1331 C   0  0  2  0  0  0  0  0  0  0  0  0
  -21.7996  -23.5715   23.2472 C   0  0  0  0  0  0  0  0  0  0  0  0
  -25.8049  -11.5436   20.3527 N   0  0  0  0  0  0  0  0  0  0  0  0
  -26.2019  -12.8147   20.1717 N   0  0  0  0  0  0  0  0  0  0  0  0
  -24.3484  -25.6349   21.7942 N   0  0  0  0  0  0  0  0  0  0  0  0
  -29.9335  -13.5714   20.4643 N   0  0  0  0  0  0  0  0  0  0  0  0
  -33.6679  -18.9119   21.5470 N   0  0  0  0  0  0  0  0  0  0  0  0
  -25.4555  -15.0601   20.2791 N   0  0  0  0  0  0  0  0  0  0  0  0
  -21.8020  -12.6895   21.4742 N   0  0  0  0  0  0  0  0  0  0  0  0
  -30.0334  -15.7038   21.4671 N   0  0  0  0  0  0  0  0  0  0  0  0
  -23.9855  -29.2597   21.9527 N   0  0  0  0  0  0  0  0  0  0  0  0
  -23.0754  -22.5338   21.3237 N   0  0  0  0  0  0  0  0  0  0  0  0
  -25.2087  -20.2225   19.5420 N   0  3  0  0  0  0  0  0  0  0  0  0
  -22.6133  -14.8035   21.1116 O   0  0  0  0  0  0  0  0  0  0  0  0
  -23.7279  -27.4883   23.4420 O   0  0  0  0  0  0  0  0  0  0  0  0
  -22.2818  -25.2349   20.7914 O   0  0  0  0  0  0  0  0  0  0  0  0
  -25.0922  -21.6038   21.9905 O   0  0  0  0  0  0  0  0  0  0  0  0
  -31.8422  -14.8630   20.2826 O   0  0  0  0  0  0  0  0  0  0  0  0
  -21.4557   -7.1426   21.8578 O   0  0  0  0  0  0  0  0  0  0  0  0
  -30.0488  -25.7419   24.1492 O   0  0  0  0  0  0  0  0  0  1  0  0
  -32.0511  -20.6531   23.0606 O   0  0  0  0  0  0  0  0  0  0  0  0
  -23.7402   -3.2148   24.9816 F   0  0  0  0  0  0  0  0  0  0  0  0
  -20.3192   -6.4075   24.2683 F   0  0  0  0  0  0  0  0  0  0  0  0
  1  2  1  0  0  0  0
  1  5  2  0  0  0  0
  2  6  2  0  0  0  0
  3  8  2  0  0  0  0
  3 17  1  0  0  0  0
  4  9  1  0  0  0  0
  4 17  2  0  0  0  0
  5 19  1  0  0  0  0
  6 21  1  0  0  0  0
  7 10  2  0  0  0  0
  7 20  1  0  0  0  0
  8 26  1  0  0  0  0
  9 26  2  0  0  0  0
 10 27  1  0  0  0  0
 11 12  2  0  0  0  0
 11 28  1  0  0  0  0
 12 30  1  0  0  0  0
 13 22  1  0  0  0  0
 13 27  2  0  0  0  0
 14 23  1  0  0  0  0
 14 29  2  0  0  0  0
 15 24  1  0  0  0  0
 15 25  2  0  0  0  0
 16 30  2  0  0  0  0
 16 31  1  0  0  0  0
 17 32  1  0  0  0  0
 18 32  1  0  0  0  0
 18 33  2  0  0  0  0
 18 34  1  0  0  0  0
 19 21  2  0  0  0  0
 19 39  1  0  0  0  0
 20 22  2  0  0  0  0
 20 40  1  0  0  0  0
 21 48  1  0  0  0  0
 22 41  1  0  0  0  0
 23 24  2  0  0  0  0
 23 57  1  0  0  0  0
 24 73  1  0  0  0  0
 25 29  1  0  0  0  0
 25 70  1  0  0  0  0
 26 82  1  0  0  0  0
 27 83  1  0  0  0  0
 28 31  2  0  0  0  0
 28 82  1  0  0  0  0
 29 84  1  0  0  0  0
 30 85  1  0  0  0  0
 31 86  1  0  0  0  0
 32 66  2  0  0  0  0
 33 67  1  0  0  0  0
 33 71  1  0  0  0  0
 34 72  1  0  0  0  0
 34 77  2  0  0  0  0
 35 49  1  0  0  0  0
 35 74  1  0  0  0  0
 35 78  2  0  0  0  0
 36 63  1  0  0  0  0
 36 68  1  0  0  0  0
 36 79  2  0  0  0  0
 37 64  1  0  0  0  0
 37 75  1  0  0  0  0
 37 80  2  0  0  0  0
 38 69  1  0  0  0  0
 38 73  1  0  0  0  0
 38 81  2  0  0  0  0
 39 42  1  0  0  0  0
 40 49  1  0  0  0  0
 41 68  1  0  0  0  0
 42 44  1  0  0  0  0
 43 45  1  0  0  0  0
 43 46  1  0  0  0  0
 44 48  1  0  0  0  0
 45 50  1  0  0  0  0
 46 69  1  0  0  0  0
 47 50  1  0  0  0  0
 47 69  1  0  0  0  0
 48 74  1  0  0  0  0
 49 68  1  0  0  0  0
 50 67  1  0  0  0  0
 51 57  1  0  0  0  0
 52 64  1  0  0  0  0
 53 65  1  0  0  0  0
 54 65  1  0  0  0  0
 55 65  1  0  0  0  0
 56 76  1  0  0  0  0
 58 59  1  0  0  0  0
 58 60  1  0  0  0  0
 59 61  1  0  0  0  0
 60 62  1  0  0  0  0
 61 83  1  0  0  0  0
 62 84  1  0  0  0  0
 63 65  1  0  0  0  0
 63 75  1  0  0  0  0
 64 76  1  0  0  0  0
 66 67  1  0  0  0  0
M  CHG  1  76   1
M  ISO  4  38 100  61 101  73 100  83 101
M  END
> <Batch ID>
0108

> <Smiles>
CCc1cc(OCCCC[101CH2:1][101O:1]c2ccc3c(c2)CN(C(=O)C(NC(=O)C(C)NC)C(C)(C)C)C(C(=O)NC2CCCc4ccccc42)C3)c(N)cc1[100NH:0][100C:0](=O)N1CCCC(n2nc(-c3ccc(Oc4ccc(F)cc4F)cc3)c(C(N)=O)c2N)C1

> <Shape>
0.248

> <Color>
0.192

> <Negative vol penalty>
0.000

$$$$

  -OEChem-04052301203D

 87 96  0     1  0  0  0  0  0999 V2000
  -20.6571  -14.4054   18.4703 C   0  0  0  0  0  0  0  0  0  0  0  0
  -21.4718  -15.5330   18.4643 C   0  0  0  0  0  0  0  0  0  0  0  0
  -25.3842  -26.7909   21.1145 C   0  0  0  0  0  0  0  0  0  0  0  0
  -26.0695  -29.0804   20.7599 C   0  0  0  0  0  0  0  0  0  0  0  0
  -20.9480  -13.3412   19.3228 C   0  0  0  0  0  0  0  0  0  0  0  0
  -22.5773  -15.5976   19.3117 C   0  0  0  0  0  0  0  0  0  0  0  0
  -26.7169  -17.3438   16.9752 C   0  0  0  0  0  0  0  0  0  0  0  0
  -29.0510  -22.9007   18.6526 C   0  0  0  0  0  0  0  0  0  0  0  0
  -30.3077  -22.8840   19.2577 C   0  0  0  0  0  0  0  0  0  0  0  0
  -24.4085  -27.2221   22.0132 C   0  0  0  0  0  0  0  0  0  0  0  0
  -25.0937  -29.5116   21.6585 C   0  0  0  0  0  0  0  0  0  0  0  0
  -26.8007  -18.7207   16.7728 C   0  0  0  0  0  0  0  0  0  0  0  0
  -21.3224  -28.5962   21.8694 C   0  0  0  0  0  0  0  0  0  0  0  0
  -20.0479  -28.0405   21.7584 C   0  0  0  0  0  0  0  0  0  0  0  0
  -28.2541  -18.9078   18.6890 C   0  0  0  0  0  0  0  0  0  0  0  0
  -28.0055  -23.0228   20.8272 C   0  0  0  0  0  0  0  0  0  0  0  0
  -20.2206  -27.1936   24.0145 C   0  0  0  0  0  0  0  0  0  0  0  0
  -26.2148  -27.7200   20.4879 C   0  0  0  0  0  0  0  0  0  0  0  0
  -27.0825  -27.1022   18.1699 C   0  0  0  0  0  0  0  0  0  0  0  0
  -22.0631  -13.3887   20.1741 C   0  0  0  0  0  0  0  0  0  0  0  0
  -27.3934  -16.7391   18.0443 C   0  0  0  0  0  0  0  0  0  0  0  0
  -22.8826  -14.5336   20.1774 C   0  0  0  0  0  0  0  0  0  0  0  0
  -28.1793  -17.5228   18.9013 C   0  0  0  0  0  0  0  0  0  0  0  0
  -29.2621  -23.0060   21.4323 C   0  0  0  0  0  0  0  0  0  0  0  0
  -27.8999  -22.9702   19.4373 C   0  0  0  0  0  0  0  0  0  0  0  0
  -30.4132  -22.9366   20.6475 C   0  0  0  0  0  0  0  0  0  0  0  0
  -24.2632  -28.5824   22.2852 C   0  0  0  0  0  0  0  0  0  0  0  0
  -27.5671  -19.5033   17.6314 C   0  0  0  0  0  0  0  0  0  0  0  0
  -22.0461  -28.4506   23.0529 C   0  0  0  0  0  0  0  0  0  0  0  0
  -19.4970  -27.3392   22.8309 C   0  0  0  0  0  0  0  0  0  0  0  0
  -21.4952  -27.7493   24.1255 C   0  0  0  0  0  0  0  0  0  0  0  0
  -27.2233  -27.2752   19.5599 C   0  0  0  0  0  0  0  0  0  0  0  0
  -28.3167  -26.6688   17.7511 C   0  0  0  0  0  0  0  0  0  0  0  0
  -25.3662  -23.0581   19.4789 C   0  0  0  0  0  0  0  0  0  0  0  0
  -25.9384  -27.3143   17.3322 C   0  0  0  0  0  0  0  0  0  0  0  0
  -26.5081  -15.0955   20.6169 C   0  0  0  0  0  0  0  0  0  0  0  0
  -29.7068  -14.7055   20.9889 C   0  0  0  0  0  0  0  0  0  0  0  0
  -32.8584  -15.8491   20.3513 C   0  0  0  0  0  0  0  0  0  0  0  0
  -32.7015  -23.8999   21.0039 C   0  0  0  0  0  0  0  0  0  0  0  0
  -22.3102  -12.2336   21.1120 C   0  0  0  0  0  0  0  0  0  0  0  0
  -27.3143  -15.2490   18.2332 C   0  0  0  0  0  0  0  0  0  0  0  0
  -28.9413  -16.9194   20.0518 C   0  0  0  0  0  0  0  0  0  0  0  0
  -24.2869  -23.0744   18.4224 C   0  0  0  0  0  0  0  0  0  0  0  0
  -23.7149  -12.2238   21.7094 C   0  0  0  0  0  0  0  0  0  0  0  0
  -25.0286  -23.4902   17.1662 C   0  0  0  0  0  0  0  0  0  0  0  0
  -32.9631  -26.8972   18.8497 C   0  0  0  0  0  0  0  0  0  0  0  0
  -24.0909  -13.6140   22.2122 C   0  0  0  0  0  0  0  0  0  0  0  0
  -31.5129  -27.3650   18.7416 C   0  0  0  0  0  0  0  0  0  0  0  0
  -33.2262  -26.1665   20.1629 C   0  0  0  0  0  0  0  0  0  0  0  0
  -30.8468  -25.4861   20.2933 C   0  0  0  0  0  0  0  0  0  0  0  0
  -24.1050  -14.6307   21.0642 C   0  0  1  0  0  0  0  0  0  0  0  0
  -27.6304  -14.8099   19.6596 C   0  0  1  0  0  0  0  0  0  0  0  0
  -30.5461  -26.1897   18.9614 C   0  0  1  0  0  0  0  0  0  0  0  0
  -26.4292  -22.9226   17.3682 C   0  0  2  0  0  0  0  0  0  0  0  0
  -29.3458  -23.0655   22.9230 C   0  0  0  0  0  0  0  0  0  0  0  0
  -32.5906  -20.6308   20.9803 C   0  0  0  0  0  0  0  0  0  0  0  0
  -35.2708  -15.3406   20.8196 C   0  0  0  0  0  0  0  0  0  0  0  0
  -29.3838  -15.7936   23.8211 C   0  0  0  0  0  0  0  0  0  0  0  0
  -31.8603  -16.1542   23.8903 C   0  0  0  0  0  0  0  0  0  0  0  0
  -30.9443  -13.8495   23.6221 C   0  0  0  0  0  0  0  0  0  0  0  0
  -33.4642  -15.5034   17.4751 C   0  0  0  0  0  0  0  0  0  0  0  0
  -26.5222  -21.4885   16.8420 C   0  0  0  0  0  0  0  0  0  1  0  0
  -32.1386  -21.7043   21.9496 C   0  0  0  0  0  0  0  0  0  0  0  0
  -30.8031  -15.4721   21.6884 C   0  0  1  0  0  0  0  0  0  0  0  0
  -34.1075  -15.1393   19.8609 C   0  0  2  0  0  0  0  0  0  0  0  0
  -30.7321  -15.3293   23.2351 C   0  0  0  0  0  0  0  0  0  0  0  0
  -28.4501  -26.9759   19.9951 N   0  0  0  0  0  0  0  0  0  0  0  0
  -29.0914  -26.6105   18.8721 N   0  0  0  0  0  0  0  0  0  0  0  0
  -26.6100  -22.9902   18.8157 N   0  0  0  0  0  0  0  0  0  0  0  0
  -28.8271  -15.4589   20.1987 N   0  0  0  0  0  0  0  0  0  0  0  0
  -32.2611  -25.0890   20.3874 N   0  0  0  0  0  0  0  0  0  0  0  0
  -28.8040  -26.3357   16.5371 N   0  0  0  0  0  0  0  0  0  0  0  0
  -24.7497  -27.7612   17.9253 N   0  0  0  0  0  0  0  0  0  0  0  0
  -25.3127  -14.4900   20.2793 N   0  0  0  0  0  0  0  0  0  0  0  0
  -32.0587  -15.0146   21.1031 N   0  0  0  0  0  0  0  0  0  0  0  0
  -31.7221  -22.9199   21.2538 N   0  0  0  0  0  0  0  0  0  0  0  0
  -34.5065  -15.6585   18.5222 N   0  3  0  0  0  0  0  0  0  0  0  0
  -25.1073  -23.0728   20.6736 O   0  0  0  0  0  0  0  0  0  0  0  0
  -25.9646  -27.0979   16.0969 O   0  0  0  0  0  0  0  0  0  0  0  0
  -26.7119  -15.8110   21.5907 O   0  0  0  0  0  0  0  0  0  0  0  0
  -29.6380  -13.4822   21.1323 O   0  0  0  0  0  0  0  0  0  0  0  0
  -32.6181  -17.0271   20.0962 O   0  0  0  0  0  0  0  0  0  0  0  0
  -33.8763  -23.7430   21.3587 O   0  0  0  0  0  0  0  0  0  0  0  0
  -23.3110  -29.0036   23.1619 O   0  0  0  0  0  0  0  0  0  0  0  0
  -27.6501  -20.8476   17.4365 O   0  0  0  0  0  0  0  0  0  1  0  0
  -18.2724  -26.8069   22.7247 F   0  0  0  0  0  0  0  0  0  0  0  0
  -22.1852  -27.6071   25.2655 F   0  0  0  0  0  0  0  0  0  0  0  0
  1  2  1  0  0  0  0
  1  5  2  0  0  0  0
  2  6  2  0  0  0  0
  3 10  2  0  0  0  0
  3 18  1  0  0  0  0
  4 11  1  0  0  0  0
  4 18  2  0  0  0  0
  5 20  1  0  0  0  0
  6 22  1  0  0  0  0
  7 12  2  0  0  0  0
  7 21  1  0  0  0  0
  8  9  2  0  0  0  0
  8 25  1  0  0  0  0
  9 26  1  0  0  0  0
 10 27  1  0  0  0  0
 11 27  2  0  0  0  0
 12 28  1  0  0  0  0
 13 14  2  0  0  0  0
 13 29  1  0  0  0  0
 14 30  1  0  0  0  0
 15 23  1  0  0  0  0
 15 28  2  0  0  0  0
 16 24  1  0  0  0  0
 16 25  2  0  0  0  0
 17 30  2  0  0  0  0
 17 31  1  0  0  0  0
 18 32  1  0  0  0  0
 19 32  1  0  0  0  0
 19 33  2  0  0  0  0
 19 35  1  0  0  0  0
 20 22  2  0  0  0  0
 20 40  1  0  0  0  0
 21 23  2  0  0  0  0
 21 41  1  0  0  0  0
 22 51  1  0  0  0  0
 23 42  1  0  0  0  0
 24 26  2  0  0  0  0
 24 55  1  0  0  0  0
 25 69  1  0  0  0  0
 26 76  1  0  0  0  0
 27 84  1  0  0  0  0
 28 85  1  0  0  0  0
 29 31  2  0  0  0  0
 29 84  1  0  0  0  0
 30 86  1  0  0  0  0
 31 87  1  0  0  0  0
 32 67  2  0  0  0  0
 33 68  1  0  0  0  0
 33 72  1  0  0  0  0
 34 43  1  0  0  0  0
 34 69  1  0  0  0  0
 34 78  2  0  0  0  0
 35 73  1  0  0  0  0
 35 79  2  0  0  0  0
 36 52  1  0  0  0  0
 36 74  1  0  0  0  0
 36 80  2  0  0  0  0
 37 64  1  0  0  0  0
 37 70  1  0  0  0  0
 37 81  2  0  0  0  0
 38 65  1  0  0  0  0
 38 75  1  0  0  0  0
 38 82  2  0  0  0  0
 39 71  1  0  0  0  0
 39 76  1  0  0  0  0
 39 83  2  0  0  0  0
 40 44  1  0  0  0  0
 41 52  1  0  0  0  0
 42 70  1  0  0  0  0
 43 45  1  0  0  0  0
 44 47  1  0  0  0  0
 45 54  1  0  0  0  0
 46 48  1  0  0  0  0
 46 49  1  0  0  0  0
 47 51  1  0  0  0  0
 48 53  1  0  0  0  0
 49 71  1  0  0  0  0
 50 53  1  0  0  0  0
 50 71  1  0  0  0  0
 51 74  1  0  0  0  0
 52 70  1  0  0  0  0
 53 68  1  0  0  0  0
 54 62  1  0  0  0  0
 54 69  1  0  0  0  0
 56 63  1  0  0  0  0
 57 65  1  0  0  0  0
 58 66  1  0  0  0  0
 59 66  1  0  0  0  0
 60 66  1  0  0  0  0
 61 77  1  0  0  0  0
 62 85  1  0  0  0  0
 63 76  1  0  0  0  0
 64 66  1  0  0  0  0
 64 75  1  0  0  0  0
 65 77  1  0  0  0  0
 67 68  1  0  0  0  0
M  CHG  1  77   1
M  ISO  4  39 100  62 101  76 100  85 101
M  END
> <Batch ID>
0108

> <Smiles>
CC[100N:0](c1ccc(N2C(=O)CCC2[101CH2:1][101O:1]c2ccc3c(c2)CN(C(=O)C(NC(=O)C(C)NC)C(C)(C)C)C(C(=O)NC2CCCc4ccccc42)C3)cc1C)[100C:0](=O)N1CCCC(n2nc(-c3ccc(Oc4ccc(F)cc4F)cc3)c(C(N)=O)c2N)C1

> <Shape>
0.223

> <Color>
0.053

> <Negative vol penalty>
0.000

$$$$

  -OEChem-04052301203D

 89 98  0     1  0  0  0  0  0999 V2000
  -17.0040  -27.6936   23.5187 C   0  0  0  0  0  0  0  0  0  0  0  0
  -17.9272  -27.0772   22.6802 C   0  0  0  0  0  0  0  0  0  0  0  0
  -22.7493   -9.9349   20.2134 C   0  0  0  0  0  0  0  0  0  0  0  0
  -24.0598   -9.8100   22.2392 C   0  0  0  0  0  0  0  0  0  0  0  0
  -17.1849  -29.0241   23.8944 C   0  0  0  0  0  0  0  0  0  0  0  0
  -19.0314  -27.7912   22.2160 C   0  0  0  0  0  0  0  0  0  0  0  0
  -23.3309  -25.1326   22.5175 C   0  0  0  0  0  0  0  0  0  0  0  0
  -31.2192  -18.5152   19.3979 C   0  0  0  0  0  0  0  0  0  0  0  0
  -31.0836  -19.3013   18.2538 C   0  0  0  0  0  0  0  0  0  0  0  0
  -22.0134   -8.8222   20.6208 C   0  0  0  0  0  0  0  0  0  0  0  0
  -23.3239   -8.6973   22.6467 C   0  0  0  0  0  0  0  0  0  0  0  0
  -23.5523  -24.1667   21.5368 C   0  0  0  0  0  0  0  0  0  0  0  0
  -23.2323   -5.3863   21.9685 C   0  0  0  0  0  0  0  0  0  0  0  0
  -23.9353   -4.2988   22.4869 C   0  0  0  0  0  0  0  0  0  0  0  0
  -25.0119  -25.6933   20.3713 C   0  0  0  0  0  0  0  0  0  0  0  0
  -28.8687  -18.8052   19.8757 C   0  0  0  0  0  0  0  0  0  0  0  0
  -22.7338   -4.5159   24.5717 C   0  0  0  0  0  0  0  0  0  0  0  0
  -23.7726  -10.4287   21.0226 C   0  0  0  0  0  0  0  0  0  0  0  0
  -24.0431  -12.8690   20.3300 C   0  0  0  0  0  0  0  0  0  0  0  0
  -18.2969  -29.7519   23.4423 C   0  0  0  0  0  0  0  0  0  0  0  0
  -23.9407  -26.3921   22.4266 C   0  0  0  0  0  0  0  0  0  0  0  0
  -19.2266  -29.1330   22.5849 C   0  0  0  0  0  0  0  0  0  0  0  0
  -24.7986  -26.6725   21.3535 C   0  0  0  0  0  0  0  0  0  0  0  0
  -30.1117  -18.2670   20.2089 C   0  0  0  0  0  0  0  0  0  0  0  0
  -29.8407  -19.8395   17.9206 C   0  0  0  0  0  0  0  0  0  0  0  0
  -28.7332  -19.5914   18.7316 C   0  0  0  0  0  0  0  0  0  0  0  0
  -22.3006   -8.2034   21.8375 C   0  0  0  0  0  0  0  0  0  0  0  0
  -24.3906  -24.4479   20.4620 C   0  0  0  0  0  0  0  0  0  0  0  0
  -22.2802   -6.0388   22.7518 C   0  0  0  0  0  0  0  0  0  0  0  0
  -23.6860   -3.8636   23.7884 C   0  0  0  0  0  0  0  0  0  0  0  0
  -22.0309   -5.6035   24.0534 C   0  0  0  0  0  0  0  0  0  0  0  0
  -24.5335  -11.5777   20.6020 C   0  0  0  0  0  0  0  0  0  0  0  0
  -25.1556  -13.5903   19.9714 C   0  0  0  0  0  0  0  0  0  0  0  0
  -25.4277  -21.3039   19.0273 C   0  0  0  0  0  0  0  0  0  0  0  0
  -26.7327  -21.0067   19.2391 C   0  0  0  0  0  0  0  0  0  0  0  0
  -24.7765  -20.7562   17.7918 C   0  0  0  0  0  0  0  0  0  0  0  0
  -22.7019  -13.3715   20.3956 C   0  0  0  0  0  0  0  0  0  0  0  0
  -22.8888  -29.3798   22.1607 C   0  0  0  0  0  0  0  0  0  0  0  0
  -26.0316  -30.1042   22.5077 C   0  0  0  0  0  0  0  0  0  0  0  0
  -29.1792  -28.8183   21.3008 C   0  0  0  0  0  0  0  0  0  0  0  0
  -30.4831  -15.0426   20.7800 C   0  0  0  0  0  0  0  0  0  0  0  0
  -18.4248  -31.2018   23.8372 C   0  0  0  0  0  0  0  0  0  0  0  0
  -23.7128  -27.4137   23.5067 C   0  0  0  0  0  0  0  0  0  0  0  0
  -25.4935  -28.0022   21.2203 C   0  0  0  0  0  0  0  0  0  0  0  0
  -25.6669  -20.1553   16.7328 C   0  0  0  0  0  0  0  0  0  0  0  0
  -19.8199  -31.7759   23.6038 C   0  0  0  0  0  0  0  0  0  0  0  0
  -29.8641  -12.0727   18.9162 C   0  0  0  0  0  0  0  0  0  0  0  0
  -20.3315  -31.3895   22.2197 C   0  0  0  0  0  0  0  0  0  0  0  0
  -28.3840  -11.7826   19.1713 C   0  0  0  0  0  0  0  0  0  0  0  0
  -26.7956  -19.3554   17.3542 C   0  0  0  0  0  0  0  0  0  0  0  0
  -30.5484  -12.6464   20.1550 C   0  0  0  0  0  0  0  0  0  0  0  0
  -28.4091  -13.5421   20.9886 C   0  0  0  0  0  0  0  0  0  0  0  0
  -20.4501  -29.8669   22.0806 C   0  0  1  0  0  0  0  0  0  0  0  0
  -23.9795  -28.8426   23.0435 C   0  0  1  0  0  0  0  0  0  0  0  0
  -27.6630  -13.0144   19.7512 C   0  0  2  0  0  0  0  0  0  0  0  0
  -27.4842  -21.6845   20.3691 C   0  0  0  0  0  0  0  0  0  0  0  0
  -30.2778  -22.0861   16.8967 C   0  0  0  0  0  0  0  0  0  0  0  0
  -31.4757  -28.9172   22.3075 C   0  0  0  0  0  0  0  0  0  0  0  0
  -26.3626  -32.6026   20.7878 C   0  0  0  0  0  0  0  0  0  0  0  0
  -28.7264  -31.9034   20.3500 C   0  0  0  0  0  0  0  0  0  0  0  0
  -27.9895  -32.4142   22.6778 C   0  0  0  0  0  0  0  0  0  0  0  0
  -29.4870  -25.8775   21.1756 C   0  0  0  0  0  0  0  0  0  0  0  0
  -29.7247  -20.6795   16.6903 C   0  0  0  0  0  0  0  0  0  0  0  0
  -30.2572  -17.4265   21.4320 C   0  0  0  0  0  0  0  0  0  0  0  0
  -24.5440  -22.1403   19.9079 C   0  0  0  0  0  0  0  0  0  1  0  0
  -27.1971  -30.2865   21.5656 C   0  0  1  0  0  0  0  0  0  0  0  0
  -30.2263  -28.0732   22.1087 C   0  0  2  0  0  0  0  0  0  0  0  0
  -27.5472  -31.7843   21.3390 C   0  0  0  0  0  0  0  0  0  0  0  0
  -25.8546  -11.4812   20.4307 N   0  0  0  0  0  0  0  0  0  0  0  0
  -26.2038  -12.7210   20.0472 N   0  0  0  0  0  0  0  0  0  0  0  0
  -27.4590  -20.1332   18.4084 N   0  0  0  0  0  0  0  0  0  0  0  0
  -25.2337  -28.9704   22.2985 N   0  0  0  0  0  0  0  0  0  0  0  0
  -29.8161  -13.8128   20.6540 N   0  0  0  0  0  0  0  0  0  0  0  0
  -25.3296  -14.8769   19.6018 N   0  0  0  0  0  0  0  0  0  0  0  0
  -22.2525  -13.9205   21.6043 N   0  0  0  0  0  0  0  0  0  0  0  0
  -21.6399  -29.3893   22.7520 N   0  0  0  0  0  0  0  0  0  0  0  0
  -28.2922  -29.4929   22.1128 N   0  0  0  0  0  0  0  0  0  0  0  0
  -29.7141  -16.0982   21.2542 N   0  0  0  0  0  0  0  0  0  0  0  0
  -30.6158  -26.8131   21.4150 N   0  3  0  0  0  0  0  0  0  0  0  0
  -23.5653  -20.8685   17.6089 O   0  0  0  0  0  0  0  0  0  0  0  0
  -21.9196  -13.3198   19.4164 O   0  0  0  0  0  0  0  0  0  0  0  0
  -23.1604  -29.7590   21.0275 O   0  0  0  0  0  0  0  0  0  0  0  0
  -25.8406  -30.9332   23.4009 O   0  0  0  0  0  0  0  0  0  0  0  0
  -29.1531  -28.8064   20.0721 O   0  0  0  0  0  0  0  0  0  0  0  0
  -31.6743  -15.1901   20.4862 O   0  0  0  0  0  0  0  0  0  0  0  0
  -21.5826   -7.1178   22.2355 O   0  0  0  0  0  0  0  0  0  0  0  0
  -24.6080  -23.5072   19.5031 O   0  0  0  0  0  0  0  0  0  1  0  0
  -24.3600   -2.8182   24.2855 F   0  0  0  0  0  0  0  0  0  0  0  0
  -21.1165   -6.2255   24.8102 F   0  0  0  0  0  0  0  0  0  0  0  0
  1  2  1  0  0  0  0
  1  5  2  0  0  0  0
  2  6  2  0  0  0  0
  3 10  2  0  0  0  0
  3 18  1  0  0  0  0
  4 11  1  0  0  0  0
  4 18  2  0  0  0  0
  5 20  1  0  0  0  0
  6 22  1  0  0  0  0
  7 12  2  0  0  0  0
  7 21  1  0  0  0  0
  8  9  2  0  0  0  0
  8 24  1  0  0  0  0
  9 25  1  0  0  0  0
 10 27  1  0  0  0  0
 11 27  2  0  0  0  0
 12 28  1  0  0  0  0
 13 14  2  0  0  0  0
 13 29  1  0  0  0  0
 14 30  1  0  0  0  0
 15 23  1  0  0  0  0
 15 28  2  0  0  0  0
 16 24  2  0  0  0  0
 16 26  1  0  0  0  0
 17 30  2  0  0  0  0
 17 31  1  0  0  0  0
 18 32  1  0  0  0  0
 19 32  1  0  0  0  0
 19 33  2  0  0  0  0
 19 37  1  0  0  0  0
 20 22  2  0  0  0  0
 20 42  1  0  0  0  0
 21 23  2  0  0  0  0
 21 43  1  0  0  0  0
 22 53  1  0  0  0  0
 23 44  1  0  0  0  0
 24 64  1  0  0  0  0
 25 26  2  0  0  0  0
 25 63  1  0  0  0  0
 26 71  1  0  0  0  0
 27 86  1  0  0  0  0
 28 87  1  0  0  0  0
 29 31  2  0  0  0  0
 29 86  1  0  0  0  0
 30 88  1  0  0  0  0
 31 89  1  0  0  0  0
 32 69  2  0  0  0  0
 33 70  1  0  0  0  0
 33 74  1  0  0  0  0
 34 35  2  0  0  0  0
 34 36  1  0  0  0  0
 34 65  1  0  0  0  0
 35 56  1  0  0  0  0
 35 71  1  0  0  0  0
 36 45  1  0  0  0  0
 36 80  2  0  0  0  0
 37 75  1  0  0  0  0
 37 81  2  0  0  0  0
 38 54  1  0  0  0  0
 38 76  1  0  0  0  0
 38 82  2  0  0  0  0
 39 66  1  0  0  0  0
 39 72  1  0  0  0  0
 39 83  2  0  0  0  0
 40 67  1  0  0  0  0
 40 77  1  0  0  0  0
 40 84  2  0  0  0  0
 41 73  1  0  0  0  0
 41 78  1  0  0  0  0
 41 85  2  0  0  0  0
 42 46  1  0  0  0  0
 43 54  1  0  0  0  0
 44 72  1  0  0  0  0
 45 50  1  0  0  0  0
 46 48  1  0  0  0  0
 47 49  1  0  0  0  0
 47 51  1  0  0  0  0
 48 53  1  0  0  0  0
 49 55  1  0  0  0  0
 50 71  1  0  0  0  0
 51 73  1  0  0  0  0
 52 55  1  0  0  0  0
 52 73  1  0  0  0  0
 53 76  1  0  0  0  0
 54 72  1  0  0  0  0
 55 70  1  0  0  0  0
 57 63  1  0  0  0  0
 58 67  1  0  0  0  0
 59 68  1  0  0  0  0
 60 68  1  0  0  0  0
 61 68  1  0  0  0  0
 62 79  1  0  0  0  0
 64 78  1  0  0  0  0
 65 87  1  0  0  0  0
 66 68  1  0  0  0  0
 66 77  1  0  0  0  0
 67 79  1  0  0  0  0
 69 70  1  0  0  0  0
M  CHG  1  79   1
M  ISO  4  41 100  65 101  78 100  87 101
M  END
> <Batch ID>
0108

> <Smiles>
CCc1ccc(C[100NH:0][100C:0](=O)N2CCCC(n3nc(-c4ccc(Oc5ccc(F)cc5F)cc4)c(C(N)=O)c3N)C2)cc1N1CCC(=O)C([101CH2:1][101O:1]c2ccc3c(c2)CN(C(=O)C(NC(=O)C(C)NC)C(C)(C)C)C(C(=O)NC2CCCc4ccccc42)C3)=C1C

> <Shape>
0.344

> <Color>
0.146

> <Negative vol penalty>
0.000

$$$$

  -OEChem-04052301203D

 89 98  0     1  0  0  0  0  0999 V2000
  -17.3871  -32.4331   23.8199 C   0  0  0  0  0  0  0  0  0  0  0  0
  -17.8551  -31.3714   24.5874 C   0  0  0  0  0  0  0  0  0  0  0  0
  -23.1743   -9.6811   20.7793 C   0  0  0  0  0  0  0  0  0  0  0  0
  -23.8266  -10.3436   23.0092 C   0  0  0  0  0  0  0  0  0  0  0  0
  -17.7665  -32.5458   22.4830 C   0  0  0  0  0  0  0  0  0  0  0  0
  -18.7019  -30.4210   24.0182 C   0  0  0  0  0  0  0  0  0  0  0  0
  -24.1755  -26.1099   25.6828 C   0  0  0  0  0  0  0  0  0  0  0  0
  -22.4474   -8.6148   21.3087 C   0  0  0  0  0  0  0  0  0  0  0  0
  -23.0997   -9.2774   23.5386 C   0  0  0  0  0  0  0  0  0  0  0  0
  -24.5573  -24.7718   25.5967 C   0  0  0  0  0  0  0  0  0  0  0  0
  -19.8670   -8.5606   24.2144 C   0  0  0  0  0  0  0  0  0  0  0  0
  -19.0578   -8.8162   25.3214 C   0  0  0  0  0  0  0  0  0  0  0  0
  -25.2096  -25.1120   23.2993 C   0  0  0  0  0  0  0  0  0  0  0  0
  -31.5382  -19.3236   22.8662 C   0  0  0  0  0  0  0  0  0  0  0  0
  -31.8674  -17.1959   21.7700 C   0  0  0  0  0  0  0  0  0  0  0  0
  -29.6385  -18.0945   22.0189 C   0  0  0  0  0  0  0  0  0  0  0  0
  -20.3096   -7.2004   26.6096 C   0  0  0  0  0  0  0  0  0  0  0  0
  -23.8640  -10.5454   21.6295 C   0  0  0  0  0  0  0  0  0  0  0  0
  -24.1506  -12.9515   20.8317 C   0  0  0  0  0  0  0  0  0  0  0  0
  -18.6262  -31.6017   21.8997 C   0  0  0  0  0  0  0  0  0  0  0  0
  -24.2978  -26.9578   24.5726 C   0  0  0  0  0  0  0  0  0  0  0  0
  -19.0921  -30.5204   22.6718 C   0  0  0  0  0  0  0  0  0  0  0  0
  -24.8309  -26.4611   23.3747 C   0  0  0  0  0  0  0  0  0  0  0  0
  -32.3908  -18.3148   22.4179 C   0  0  0  0  0  0  0  0  0  0  0  0
  -30.1620  -19.2134   22.6667 C   0  0  0  0  0  0  0  0  0  0  0  0
  -30.4912  -17.0858   21.5705 C   0  0  0  0  0  0  0  0  0  0  0  0
  -22.4100   -8.4130   22.6884 C   0  0  0  0  0  0  0  0  0  0  0  0
  -25.0718  -24.2719   24.4040 C   0  0  0  0  0  0  0  0  0  0  0  0
  -20.8975   -7.6249   24.3050 C   0  0  0  0  0  0  0  0  0  0  0  0
  -19.2791   -8.1361   26.5190 C   0  0  0  0  0  0  0  0  0  0  0  0
  -21.1188   -6.9448   25.5026 C   0  0  0  0  0  0  0  0  0  0  0  0
  -24.6155  -11.6467   21.0832 C   0  0  0  0  0  0  0  0  0  0  0  0
  -25.2403  -13.6111   20.3179 C   0  0  0  0  0  0  0  0  0  0  0  0
  -26.8825  -21.2447   25.1716 C   0  0  0  0  0  0  0  0  0  0  0  0
  -28.2202  -21.3979   25.0549 C   0  0  0  0  0  0  0  0  0  0  0  0
  -26.2522  -19.9017   24.9415 C   0  0  0  0  0  0  0  0  0  0  0  0
  -22.8502  -13.5167   21.0438 C   0  0  0  0  0  0  0  0  0  0  0  0
  -22.2634  -28.6278   22.7905 C   0  0  0  0  0  0  0  0  0  0  0  0
  -24.9848  -29.7493   21.4272 C   0  0  0  0  0  0  0  0  0  0  0  0
  -28.2926  -29.2668   20.7397 C   0  0  0  0  0  0  0  0  0  0  0  0
  -30.6660  -14.8590   20.4055 C   0  0  0  0  0  0  0  0  0  0  0  0
  -18.9707  -31.7392   20.4378 C   0  0  0  0  0  0  0  0  0  0  0  0
  -23.9064  -28.4054   24.6898 C   0  0  0  0  0  0  0  0  0  0  0  0
  -25.0016  -27.3351   22.1600 C   0  0  0  0  0  0  0  0  0  0  0  0
  -27.1451  -18.7049   24.7352 C   0  0  0  0  0  0  0  0  0  0  0  0
  -20.1710  -30.8971   20.0131 C   0  0  0  0  0  0  0  0  0  0  0  0
  -29.7205  -11.8502   18.7531 C   0  0  0  0  0  0  0  0  0  0  0  0
  -20.0504  -29.4797   20.5637 C   0  0  0  0  0  0  0  0  0  0  0  0
  -28.2698  -11.6364   19.1913 C   0  0  0  0  0  0  0  0  0  0  0  0
  -30.5732  -12.4322   19.8791 C   0  0  0  0  0  0  0  0  0  0  0  0
  -28.5875  -13.4390   20.9339 C   0  0  0  0  0  0  0  0  0  0  0  0
  -28.5558  -18.9810   25.2030 C   0  0  0  0  0  0  0  0  0  0  0  0
  -20.0322  -29.4831   22.0970 C   0  0  1  0  0  0  0  0  0  0  0  0
  -23.5950  -29.0510   23.3431 C   0  0  1  0  0  0  0  0  0  0  0  0
  -27.6747  -12.9149   19.8132 C   0  0  2  0  0  0  0  0  0  0  0  0
  -28.9418  -22.6897   25.3409 C   0  0  0  0  0  0  0  0  0  0  0  0
  -34.3076  -17.8191   23.9562 C   0  0  0  0  0  0  0  0  0  0  0  0
  -30.2397  -30.3402   19.5762 C   0  0  0  0  0  0  0  0  0  0  0  0
  -23.8257  -28.9211   18.7289 C   0  0  0  0  0  0  0  0  0  0  0  0
  -26.1244  -29.1239   17.7577 C   0  0  0  0  0  0  0  0  0  0  0  0
  -25.0002  -31.1290   18.7264 C   0  0  0  0  0  0  0  0  0  0  0  0
  -29.8506  -29.4326   23.2505 C   0  0  0  0  0  0  0  0  0  0  0  0
  -33.8622  -18.4326   22.6314 C   0  0  0  0  0  0  0  0  0  0  0  0
  -29.2450  -20.2986   23.1489 C   0  0  0  0  0  0  0  0  0  0  0  0
  -25.9138  -22.3436   25.5123 C   0  0  0  0  0  0  0  0  0  1  0  0
  -25.8569  -29.3208   20.2718 C   0  0  1  0  0  0  0  0  0  0  0  0
  -29.4966  -30.1785   20.8932 C   0  0  2  0  0  0  0  0  0  0  0  0
  -25.1969  -29.6065   18.8934 C   0  0  0  0  0  0  0  0  0  0  0  0
  -25.9004  -11.4851   20.7559 N   0  0  0  0  0  0  0  0  0  0  0  0
  -26.2521  -12.6969   20.2934 N   0  0  0  0  0  0  0  0  0  0  0  0
  -24.5985  -28.7418   22.3225 N   0  0  0  0  0  0  0  0  0  0  0  0
  -29.9497  -13.6434   20.4167 N   0  0  0  0  0  0  0  0  0  0  0  0
  -25.4220  -14.8782   19.8890 N   0  0  0  0  0  0  0  0  0  0  0  0
  -21.8457  -12.6993   21.5797 N   0  0  0  0  0  0  0  0  0  0  0  0
  -29.9595  -15.9492   20.9123 N   0  0  0  0  0  0  0  0  0  0  0  0
  -21.3697  -29.6675   22.6179 N   0  0  0  0  0  0  0  0  0  0  0  0
  -27.1442  -29.9792   20.4660 N   0  0  0  0  0  0  0  0  0  0  0  0
  -29.0460  -20.2830   24.6408 N   0  3  1  0  0  0  0  0  0  0  0  0
  -30.4427  -29.6218   21.9012 N   0  3  0  0  0  0  0  0  0  0  0  0
  -25.0280  -19.7777   24.9042 O   0  0  0  0  0  0  0  0  0  0  0  0
  -22.5822  -14.7066   20.7510 O   0  0  0  0  0  0  0  0  0  0  0  0
  -22.0621  -27.4457   22.5380 O   0  0  0  0  0  0  0  0  0  0  0  0
  -24.6641  -30.9355   21.5354 O   0  0  0  0  0  0  0  0  0  0  0  0
  -28.3643  -28.0447   20.8480 O   0  0  0  0  0  0  0  0  0  0  0  0
  -31.8112  -14.9332   19.9528 O   0  0  0  0  0  0  0  0  0  0  0  0
  -21.7006   -7.3728   23.2053 O   0  0  0  0  0  0  0  0  0  0  0  0
  -25.4446  -22.9660   24.3170 O   0  0  0  0  0  0  0  0  0  1  0  0
  -18.5028   -8.3828   27.5824 F   0  0  0  0  0  0  0  0  0  0  0  0
  -22.1080   -6.0456   25.5960 F   0  0  0  0  0  0  0  0  0  0  0  0
  1  2  1  0  0  0  0
  1  5  2  0  0  0  0
  2  6  2  0  0  0  0
  3  8  2  0  0  0  0
  3 18  1  0  0  0  0
  4  9  1  0  0  0  0
  4 18  2  0  0  0  0
  5 20  1  0  0  0  0
  6 22  1  0  0  0  0
  7 10  2  0  0  0  0
  7 21  1  0  0  0  0
  8 27  1  0  0  0  0
  9 27  2  0  0  0  0
 10 28  1  0  0  0  0
 11 12  2  0  0  0  0
 11 29  1  0  0  0  0
 12 30  1  0  0  0  0
 13 23  1  0  0  0  0
 13 28  2  0  0  0  0
 14 24  1  0  0  0  0
 14 25  2  0  0  0  0
 15 24  2  0  0  0  0
 15 26  1  0  0  0  0
 16 25  1  0  0  0  0
 16 26  2  0  0  0  0
 17 30  2  0  0  0  0
 17 31  1  0  0  0  0
 18 32  1  0  0  0  0
 19 32  1  0  0  0  0
 19 33  2  0  0  0  0
 19 37  1  0  0  0  0
 20 22  2  0  0  0  0
 20 42  1  0  0  0  0
 21 23  2  0  0  0  0
 21 43  1  0  0  0  0
 22 53  1  0  0  0  0
 23 44  1  0  0  0  0
 24 63  1  0  0  0  0
 25 64  1  0  0  0  0
 26 75  1  0  0  0  0
 27 86  1  0  0  0  0
 28 87  1  0  0  0  0
 29 31  2  0  0  0  0
 29 86  1  0  0  0  0
 30 88  1  0  0  0  0
 31 89  1  0  0  0  0
 32 69  2  0  0  0  0
 33 70  1  0  0  0  0
 33 73  1  0  0  0  0
 34 35  2  0  0  0  0
 34 36  1  0  0  0  0
 34 65  1  0  0  0  0
 35 56  1  0  0  0  0
 35 78  1  0  0  0  0
 36 45  1  0  0  0  0
 36 80  2  0  0  0  0
 37 74  1  0  0  0  0
 37 81  2  0  0  0  0
 38 54  1  0  0  0  0
 38 76  1  0  0  0  0
 38 82  2  0  0  0  0
 39 66  1  0  0  0  0
 39 71  1  0  0  0  0
 39 83  2  0  0  0  0
 40 67  1  0  0  0  0
 40 77  1  0  0  0  0
 40 84  2  0  0  0  0
 41 72  1  0  0  0  0
 41 75  1  0  0  0  0
 41 85  2  0  0  0  0
 42 46  1  0  0  0  0
 43 54  1  0  0  0  0
 44 71  1  0  0  0  0
 45 52  1  0  0  0  0
 46 48  1  0  0  0  0
 47 49  1  0  0  0  0
 47 50  1  0  0  0  0
 48 53  1  0  0  0  0
 49 55  1  0  0  0  0
 50 72  1  0  0  0  0
 51 55  1  0  0  0  0
 51 72  1  0  0  0  0
 52 78  1  0  0  0  0
 53 76  1  0  0  0  0
 54 71  1  0  0  0  0
 55 70  1  0  0  0  0
 57 63  1  0  0  0  0
 58 67  1  0  0  0  0
 59 68  1  0  0  0  0
 60 68  1  0  0  0  0
 61 68  1  0  0  0  0
 62 79  1  0  0  0  0
 64 78  1  0  0  0  0
 65 87  1  0  0  0  0
 66 68  1  0  0  0  0
 66 77  1  0  0  0  0
 67 79  1  0  0  0  0
 69 70  1  0  0  0  0
M  CHG  2  78   1  79   1
M  ISO  4  41 100  65 101  75 100  87 101
M  END
> <Batch ID>
0108

> <Smiles>
CCc1cc(CN2CCC(=O)C([101CH2:1][101O:1]c3ccc4c(c3)CN(C(=O)C(NC(=O)C(C)NC)C(C)(C)C)C(C(=O)NC3CCCc5ccccc53)C4)=C2C)cc([100NH:0][100C:0](=O)N2CCCC(n3nc(-c4ccc(Oc5ccc(F)cc5F)cc4)c(C(N)=O)c3N)C2)c1

> <Shape>
0.252

> <Color>
0.162

> <Negative vol penalty>
0.000

$$$$

  -OEChem-04052301203D

 87 96  0     1  0  0  0  0  0999 V2000
  -24.5523  -37.1896   21.9452 C   0  0  0  0  0  0  0  0  0  0  0  0
  -25.4712  -36.4220   21.2369 C   0  0  0  0  0  0  0  0  0  0  0  0
  -23.6944   -9.8450   22.3572 C   0  0  0  0  0  0  0  0  0  0  0  0
  -23.2054   -9.7995   19.9916 C   0  0  0  0  0  0  0  0  0  0  0  0
  -24.0186  -36.7093   23.1404 C   0  0  0  0  0  0  0  0  0  0  0  0
  -25.8578  -35.1739   21.7240 C   0  0  0  0  0  0  0  0  0  0  0  0
  -27.2341  -30.2001   18.4265 C   0  0  0  0  0  0  0  0  0  0  0  0
  -22.8016   -8.7931   22.5620 C   0  0  0  0  0  0  0  0  0  0  0  0
  -22.3126   -8.7475   20.1964 C   0  0  0  0  0  0  0  0  0  0  0  0
  -28.4494  -29.6506   18.0205 C   0  0  0  0  0  0  0  0  0  0  0  0
  -22.7784   -5.4343   22.1739 C   0  0  0  0  0  0  0  0  0  0  0  0
  -23.1884   -4.3876   22.9997 C   0  0  0  0  0  0  0  0  0  0  0  0
  -29.3669  -21.8798   21.1317 C   0  0  0  0  0  0  0  0  0  0  0  0
  -28.4005  -28.1581   19.9150 C   0  0  0  0  0  0  0  0  0  0  0  0
  -28.1988  -22.0319   19.0247 C   0  0  0  0  0  0  0  0  0  0  0  0
  -21.3331   -4.8308   24.4825 C   0  0  0  0  0  0  0  0  0  0  0  0
  -23.8962  -10.3483   21.0720 C   0  0  0  0  0  0  0  0  0  0  0  0
  -26.1937  -11.3404   20.5771 C   0  0  0  0  0  0  0  0  0  0  0  0
  -24.3916  -35.4506   23.6374 C   0  0  0  0  0  0  0  0  0  0  0  0
  -26.5972  -29.7394   19.5877 C   0  0  0  0  0  0  0  0  0  0  0  0
  -25.3297  -34.6769   22.9276 C   0  0  0  0  0  0  0  0  0  0  0  0
  -28.3623  -21.0464   21.6427 C   0  0  0  0  0  0  0  0  0  0  0  0
  -27.1759  -28.7016   20.3321 C   0  0  0  0  0  0  0  0  0  0  0  0
  -27.2766  -20.6849   20.8227 C   0  0  0  0  0  0  0  0  0  0  0  0
  -27.1993  -21.1939   19.5182 C   0  0  0  0  0  0  0  0  0  0  0  0
  -29.2830  -22.3720   19.8296 C   0  0  0  0  0  0  0  0  0  0  0  0
  -22.1107   -8.2443   21.4816 C   0  0  0  0  0  0  0  0  0  0  0  0
  -29.0343  -28.6314   18.7664 C   0  0  0  0  0  0  0  0  0  0  0  0
  -21.6458   -6.1793   22.5024 C   0  0  0  0  0  0  0  0  0  0  0  0
  -22.4657   -4.0858   24.1539 C   0  0  0  0  0  0  0  0  0  0  0  0
  -20.9232   -5.8776   23.6566 C   0  0  0  0  0  0  0  0  0  0  0  0
  -24.8179  -11.4353   20.8598 C   0  0  0  0  0  0  0  0  0  0  0  0
  -26.6119  -12.6439   20.4647 C   0  0  0  0  0  0  0  0  0  0  0  0
  -27.0199  -10.1780   20.4292 C   0  0  0  0  0  0  0  0  0  0  0  0
  -25.7651  -31.0517   22.3607 C   0  0  0  0  0  0  0  0  0  0  0  0
  -24.3455  -28.1764   22.8503 C   0  0  0  0  0  0  0  0  0  0  0  0
  -30.3759  -23.7943   18.0617 C   0  0  0  0  0  0  0  0  0  0  0  0
  -24.2123  -24.8476   22.1101 C   0  0  0  0  0  0  0  0  0  0  0  0
  -26.5085  -17.7486   22.8055 C   0  0  0  0  0  0  0  0  0  0  0  0
  -23.8236  -34.9941   24.9579 C   0  0  0  0  0  0  0  0  0  0  0  0
  -25.2734  -30.3243   19.9974 C   0  0  0  0  0  0  0  0  0  0  0  0
  -28.4861  -20.5061   23.0456 C   0  0  0  0  0  0  0  0  0  0  0  0
  -26.5225  -28.1576   21.5753 C   0  0  0  0  0  0  0  0  0  0  0  0
  -26.1688  -19.7884   21.3300 C   0  0  0  0  0  0  0  0  0  0  0  0
  -24.0018  -33.4998   25.2137 C   0  0  0  0  0  0  0  0  0  0  0  0
  -23.9831  -16.9441   20.1711 C   0  0  0  0  0  0  0  0  0  0  0  0
  -25.4290  -33.0693   24.8902 C   0  0  0  0  0  0  0  0  0  0  0  0
  -24.0562  -15.4179   20.1529 C   0  0  0  0  0  0  0  0  0  0  0  0
  -27.1487  -20.0083   23.5837 C   0  0  0  0  0  0  0  0  0  0  0  0
  -24.3320  -17.4966   21.5479 C   0  0  0  0  0  0  0  0  0  0  0  0
  -25.7432  -15.5276   22.0441 C   0  0  0  0  0  0  0  0  0  0  0  0
  -25.7551  -33.3073   23.4108 C   0  0  1  0  0  0  0  0  0  0  0  0
  -24.9681  -30.1317   21.4797 C   0  0  1  0  0  0  0  0  0  0  0  0
  -25.4200  -14.9255   20.6665 C   0  0  1  0  0  0  0  0  0  0  0  0
  -26.0508  -20.8637   18.6188 C   0  0  0  0  0  0  0  0  0  0  0  0
  -22.9711  -22.7471   22.6974 C   0  0  0  0  0  0  0  0  0  0  0  0
  -25.8847  -28.0047   25.4792 C   0  0  0  0  0  0  0  0  0  0  0  0
  -25.3665  -25.5561   25.5422 C   0  0  0  0  0  0  0  0  0  0  0  0
  -23.5123  -27.2237   25.6065 C   0  0  0  0  0  0  0  0  0  0  0  0
  -23.2553  -24.4981   19.3314 C   0  0  0  0  0  0  0  0  0  0  0  0
  -31.6378  -24.6362   17.9337 C   0  0  0  0  0  0  0  0  0  0  0  0
  -31.3388  -26.1005   17.6313 C   0  0  0  0  0  0  0  0  0  0  0  0
  -30.4575  -26.7272   18.7020 C   0  0  0  0  0  0  0  0  0  1  0  0
  -24.7770  -26.8590   23.4479 C   0  0  1  0  0  0  0  0  0  0  0  0
  -23.0477  -23.9400   21.7572 C   0  0  2  0  0  0  0  0  0  0  0  0
  -24.8987  -26.9222   24.9967 C   0  0  0  0  0  0  0  0  0  0  0  0
  -24.3905  -12.6992   20.9233 N   0  0  0  0  0  0  0  0  0  0  0  0
  -25.5043  -13.4104   20.6790 N   0  0  0  0  0  0  0  0  0  0  0  0
  -25.2321  -28.7664   21.9384 N   0  0  0  0  0  0  0  0  0  0  0  0
  -26.5032  -19.1373   22.6047 N   0  0  0  0  0  0  0  0  0  0  0  0
  -25.6246  -16.9872   22.0242 N   0  0  0  0  0  0  0  0  0  0  0  0
  -27.8152  -13.1976   20.2046 N   0  0  0  0  0  0  0  0  0  0  0  0
  -26.4293   -8.9155   20.5763 N   0  0  0  0  0  0  0  0  0  0  0  0
  -30.2857  -23.2059   19.3336 N   0  0  0  0  0  0  0  0  0  0  0  0
  -25.1619  -32.2736   22.5899 N   0  0  0  0  0  0  0  0  0  0  0  0
  -23.8296  -25.8610   22.9632 N   0  0  0  0  0  0  0  0  0  0  0  0
  -23.1911  -23.4316   20.3636 N   0  3  0  0  0  0  0  0  0  0  0  0
  -28.2488  -10.2568   20.1903 O   0  0  0  0  0  0  0  0  0  0  0  0
  -26.8465  -30.6798   22.8012 O   0  0  0  0  0  0  0  0  0  0  0  0
  -23.2584  -28.6606   23.1751 O   0  0  0  0  0  0  0  0  0  0  0  0
  -29.5743  -23.6782   17.1406 O   0  0  0  0  0  0  0  0  0  0  0  0
  -25.3486  -24.6726   21.6757 O   0  0  0  0  0  0  0  0  0  0  0  0
  -27.2677  -17.2165   23.6253 O   0  0  0  0  0  0  0  0  0  0  0  0
  -21.2397   -7.2177   21.6811 O   0  0  0  0  0  0  0  0  0  0  0  0
  -30.2295  -28.0898   18.3699 O   0  0  0  0  0  0  0  0  0  1  0  0
  -22.8586   -3.0797   24.9460 F   0  0  0  0  0  0  0  0  0  0  0  0
  -19.8336   -6.5890   23.9768 F   0  0  0  0  0  0  0  0  0  0  0  0
  1  2  1  0  0  0  0
  1  5  2  0  0  0  0
  2  6  2  0  0  0  0
  3  8  2  0  0  0  0
  3 17  1  0  0  0  0
  4  9  1  0  0  0  0
  4 17  2  0  0  0  0
  5 19  1  0  0  0  0
  6 21  1  0  0  0  0
  7 10  2  0  0  0  0
  7 20  1  0  0  0  0
  8 27  1  0  0  0  0
  9 27  2  0  0  0  0
 10 28  1  0  0  0  0
 11 12  2  0  0  0  0
 11 29  1  0  0  0  0
 12 30  1  0  0  0  0
 13 22  1  0  0  0  0
 13 26  2  0  0  0  0
 14 23  1  0  0  0  0
 14 28  2  0  0  0  0
 15 25  2  0  0  0  0
 15 26  1  0  0  0  0
 16 30  2  0  0  0  0
 16 31  1  0  0  0  0
 17 32  1  0  0  0  0
 18 32  1  0  0  0  0
 18 33  2  0  0  0  0
 18 34  1  0  0  0  0
 19 21  2  0  0  0  0
 19 40  1  0  0  0  0
 20 23  2  0  0  0  0
 20 41  1  0  0  0  0
 21 52  1  0  0  0  0
 22 24  2  0  0  0  0
 22 42  1  0  0  0  0
 23 43  1  0  0  0  0
 24 25  1  0  0  0  0
 24 44  1  0  0  0  0
 25 55  1  0  0  0  0
 26 74  1  0  0  0  0
 27 84  1  0  0  0  0
 28 85  1  0  0  0  0
 29 31  2  0  0  0  0
 29 84  1  0  0  0  0
 30 86  1  0  0  0  0
 31 87  1  0  0  0  0
 32 67  2  0  0  0  0
 33 68  1  0  0  0  0
 33 72  1  0  0  0  0
 34 73  1  0  0  0  0
 34 78  2  0  0  0  0
 35 53  1  0  0  0  0
 35 75  1  0  0  0  0
 35 79  2  0  0  0  0
 36 64  1  0  0  0  0
 36 69  1  0  0  0  0
 36 80  2  0  0  0  0
 37 61  1  0  0  0  0
 37 74  1  0  0  0  0
 37 81  2  0  0  0  0
 38 65  1  0  0  0  0
 38 76  1  0  0  0  0
 38 82  2  0  0  0  0
 39 70  1  0  0  0  0
 39 71  1  0  0  0  0
 39 83  2  0  0  0  0
 40 45  1  0  0  0  0
 41 53  1  0  0  0  0
 42 49  1  0  0  0  0
 43 69  1  0  0  0  0
 44 70  1  0  0  0  0
 45 47  1  0  0  0  0
 46 48  1  0  0  0  0
 46 50  1  0  0  0  0
 47 52  1  0  0  0  0
 48 54  1  0  0  0  0
 49 70  1  0  0  0  0
 50 71  1  0  0  0  0
 51 54  1  0  0  0  0
 51 71  1  0  0  0  0
 52 75  1  0  0  0  0
 53 69  1  0  0  0  0
 54 68  1  0  0  0  0
 56 65  1  0  0  0  0
 57 66  1  0  0  0  0
 58 66  1  0  0  0  0
 59 66  1  0  0  0  0
 60 77  1  0  0  0  0
 61 62  1  0  0  0  0
 62 63  1  0  0  0  0
 63 85  1  0  0  0  0
 64 66  1  0  0  0  0
 64 76  1  0  0  0  0
 65 77  1  0  0  0  0
 67 68  1  0  0  0  0
M  CHG  1  77   1
M  ISO  4  39 100  63 101  70 100  85 101
M  END
> <Batch ID>
0108

> <Smiles>
CNC(C)C(=O)NC(C(=O)N1Cc2cc([101O:1][101CH2:1]CCC(=O)Nc3cc(C)c4c(c3)CC[100N:0]([100C:0](=O)N3CCCC(n5nc(-c6ccc(Oc7ccc(F)cc7F)cc6)c(C(N)=O)c5N)C3)C4)ccc2CC1C(=O)NC1CCCc2ccccc21)C(C)(C)C

> <Shape>
0.288

> <Color>
0.089

> <Negative vol penalty>
0.000

$$$$

  -OEChem-04052301203D

 88 97  0     1  0  0  0  0  0999 V2000
  -15.7676  -21.8823   29.7637 C   0  0  0  0  0  0  0  0  0  0  0  0
  -16.9706  -21.6354   29.1102 C   0  0  0  0  0  0  0  0  0  0  0  0
  -23.2953   -9.7327   19.9744 C   0  0  0  0  0  0  0  0  0  0  0  0
  -23.8103   -9.9979   22.3199 C   0  0  0  0  0  0  0  0  0  0  0  0
  -14.8506  -22.7798   29.2182 C   0  0  0  0  0  0  0  0  0  0  0  0
  -17.2569  -22.2851   27.9100 C   0  0  0  0  0  0  0  0  0  0  0  0
  -21.9906  -24.0771   27.7522 C   0  0  0  0  0  0  0  0  0  0  0  0
  -31.8873  -18.3762   23.6693 C   0  0  0  0  0  0  0  0  0  0  0  0
  -31.4616  -17.3718   22.8001 C   0  0  0  0  0  0  0  0  0  0  0  0
  -22.6132   -8.5496   20.2580 C   0  0  0  0  0  0  0  0  0  0  0  0
  -23.1282   -8.8148   22.6035 C   0  0  0  0  0  0  0  0  0  0  0  0
  -23.0096  -23.1619   27.4914 C   0  0  0  0  0  0  0  0  0  0  0  0
  -19.9196   -7.8161   22.9619 C   0  0  0  0  0  0  0  0  0  0  0  0
  -19.0499   -7.8167   24.0523 C   0  0  0  0  0  0  0  0  0  0  0  0
  -23.0556  -23.8785   25.1885 C   0  0  0  0  0  0  0  0  0  0  0  0
  -29.1733  -18.0906   23.0900 C   0  0  0  0  0  0  0  0  0  0  0  0
  -20.3423   -6.0554   25.0842 C   0  0  0  0  0  0  0  0  0  0  0  0
  -23.8940  -10.4569   21.0054 C   0  0  0  0  0  0  0  0  0  0  0  0
  -24.0664  -12.9816   20.6829 C   0  0  0  0  0  0  0  0  0  0  0  0
  -15.1300  -23.4481   28.0157 C   0  0  0  0  0  0  0  0  0  0  0  0
  -21.4882  -24.8936   26.7288 C   0  0  0  0  0  0  0  0  0  0  0  0
  -16.3422  -23.1913   27.3472 C   0  0  0  0  0  0  0  0  0  0  0  0
  -22.0321  -24.8050   25.4394 C   0  0  0  0  0  0  0  0  0  0  0  0
  -30.9559  -19.2378   24.2490 C   0  0  0  0  0  0  0  0  0  0  0  0
  -29.5990  -19.0950   23.9593 C   0  0  0  0  0  0  0  0  0  0  0  0
  -30.1047  -17.2290   22.5104 C   0  0  0  0  0  0  0  0  0  0  0  0
  -22.5296   -8.0906   21.5725 C   0  0  0  0  0  0  0  0  0  0  0  0
  -23.5402  -23.0605   26.2088 C   0  0  0  0  0  0  0  0  0  0  0  0
  -21.0007   -6.9351   22.9325 C   0  0  0  0  0  0  0  0  0  0  0  0
  -19.2612   -6.9364   25.1135 C   0  0  0  0  0  0  0  0  0  0  0  0
  -21.2121   -6.0548   23.9937 C   0  0  0  0  0  0  0  0  0  0  0  0
  -24.5992  -11.6789   20.7130 C   0  0  0  0  0  0  0  0  0  0  0  0
  -25.1345  -13.7819   20.3588 C   0  0  0  0  0  0  0  0  0  0  0  0
  -26.0507  -20.4137   26.5721 C   0  0  0  0  0  0  0  0  0  0  0  0
  -27.3774  -20.6711   26.5720 C   0  0  0  0  0  0  0  0  0  0  0  0
  -25.5356  -19.0987   26.0625 C   0  0  0  0  0  0  0  0  0  0  0  0
  -22.7259  -13.4282   20.9263 C   0  0  0  0  0  0  0  0  0  0  0  0
  -18.6538  -25.2573   25.3369 C   0  0  0  0  0  0  0  0  0  0  0  0
  -20.1420  -27.7178   23.8358 C   0  0  0  0  0  0  0  0  0  0  0  0
  -23.0668  -29.1246   22.7806 C   0  0  0  0  0  0  0  0  0  0  0  0
  -30.4649  -15.2727   20.9645 C   0  0  0  0  0  0  0  0  0  0  0  0
  -14.0874  -24.3737   27.4405 C   0  0  0  0  0  0  0  0  0  0  0  0
  -20.4073  -25.8946   27.0324 C   0  0  0  0  0  0  0  0  0  0  0  0
  -21.5417  -25.6731   24.3105 C   0  0  0  0  0  0  0  0  0  0  0  0
  -26.5251  -18.0205   25.7016 C   0  0  0  0  0  0  0  0  0  0  0  0
  -14.6292  -25.3035   26.3578 C   0  0  0  0  0  0  0  0  0  0  0  0
  -29.7767  -12.5826   18.7360 C   0  0  0  0  0  0  0  0  0  0  0  0
  -15.4845  -24.5242   25.3639 C   0  0  0  0  0  0  0  0  0  0  0  0
  -28.3245  -12.2148   19.0492 C   0  0  0  0  0  0  0  0  0  0  0  0
  -30.5434  -12.9865   19.9941 C   0  0  0  0  0  0  0  0  0  0  0  0
  -28.4567  -13.6723   21.1096 C   0  0  0  0  0  0  0  0  0  0  0  0
  -27.8849  -18.2952   26.3021 C   0  0  0  0  0  0  0  0  0  0  0  0
  -16.6997  -23.8953   26.0562 C   0  0  1  0  0  0  0  0  0  0  0  0
  -19.6175  -26.3144   25.7966 C   0  0  1  0  0  0  0  0  0  0  0  0
  -27.6263  -13.3209   19.8644 C   0  0  2  0  0  0  0  0  0  0  0  0
  -31.4354  -20.3051   25.1771 C   0  0  0  0  0  0  0  0  0  0  0  0
  -27.9844  -21.9313   27.1331 C   0  0  0  0  0  0  0  0  0  0  0  0
  -23.9615  -31.1192   21.5484 C   0  0  0  0  0  0  0  0  0  0  0  0
  -19.2410  -26.4865   21.1935 C   0  0  0  0  0  0  0  0  0  0  0  0
  -20.9191  -27.9329   20.0273 C   0  0  0  0  0  0  0  0  0  0  0  0
  -19.0473  -28.9774   21.3033 C   0  0  0  0  0  0  0  0  0  0  0  0
  -24.6276  -30.0214   25.1299 C   0  0  0  0  0  0  0  0  0  0  0  0
  -28.5795  -20.0113   24.5692 C   0  0  0  0  0  0  0  0  0  0  0  0
  -24.9861  -21.3662   27.0424 C   0  0  0  0  0  0  0  0  0  1  0  0
  -20.9387  -27.8685   22.5624 C   0  0  1  0  0  0  0  0  0  0  0  0
  -23.6090  -30.5367   22.9082 C   0  0  2  0  0  0  0  0  0  0  0  0
  -20.0446  -27.7985   21.2922 C   0  0  0  0  0  0  0  0  0  0  0  0
  -25.9043  -11.6489   20.4304 N   0  0  0  0  0  0  0  0  0  0  0  0
  -26.2005  -12.9427   20.2195 N   0  0  0  0  0  0  0  0  0  0  0  0
  -20.4792  -26.6318   24.6560 N   0  0  0  0  0  0  0  0  0  0  0  0
  -29.8246  -14.0410   20.7125 N   0  0  0  0  0  0  0  0  0  0  0  0
  -25.2564  -15.1147   20.1820 N   0  0  0  0  0  0  0  0  0  0  0  0
  -21.7515  -12.4734   21.2475 N   0  0  0  0  0  0  0  0  0  0  0  0
  -29.6721  -16.2100   21.6259 N   0  0  0  0  0  0  0  0  0  0  0  0
  -17.7212  -24.8935   26.2895 N   0  0  0  0  0  0  0  0  0  0  0  0
  -21.6906  -29.1115   22.6960 N   0  0  0  0  0  0  0  0  0  0  0  0
  -28.3049  -19.7073   26.0176 N   0  3  1  0  0  0  0  0  0  0  0  0
  -24.8348  -30.5464   23.7557 N   0  3  0  0  0  0  0  0  0  0  0  0
  -24.3277  -18.9056   25.9241 O   0  0  0  0  0  0  0  0  0  0  0  0
  -22.3983  -14.6363   20.8448 O   0  0  0  0  0  0  0  0  0  0  0  0
  -18.7482  -24.8062   24.2014 O   0  0  0  0  0  0  0  0  0  0  0  0
  -19.2581  -28.5377   24.0967 O   0  0  0  0  0  0  0  0  0  0  0  0
  -23.7919  -28.1325   22.7547 O   0  0  0  0  0  0  0  0  0  0  0  0
  -31.6217  -15.4904   20.5950 O   0  0  0  0  0  0  0  0  0  0  0  0
  -21.8638   -6.9362   21.8496 O   0  0  0  0  0  0  0  0  0  0  0  0
  -24.5344  -22.1675   25.9514 O   0  0  0  0  0  0  0  0  0  1  0  0
  -18.4268   -6.9381   26.1613 F   0  0  0  0  0  0  0  0  0  0  0  0
  -22.2496   -5.2069   23.9717 F   0  0  0  0  0  0  0  0  0  0  0  0
  1  2  1  0  0  0  0
  1  5  2  0  0  0  0
  2  6  2  0  0  0  0
  3 10  2  0  0  0  0
  3 18  1  0  0  0  0
  4 11  1  0  0  0  0
  4 18  2  0  0  0  0
  5 20  1  0  0  0  0
  6 22  1  0  0  0  0
  7 12  2  0  0  0  0
  7 21  1  0  0  0  0
  8  9  2  0  0  0  0
  8 24  1  0  0  0  0
  9 26  1  0  0  0  0
 10 27  1  0  0  0  0
 11 27  2  0  0  0  0
 12 28  1  0  0  0  0
 13 14  2  0  0  0  0
 13 29  1  0  0  0  0
 14 30  1  0  0  0  0
 15 23  1  0  0  0  0
 15 28  2  0  0  0  0
 16 25  1  0  0  0  0
 16 26  2  0  0  0  0
 17 30  2  0  0  0  0
 17 31  1  0  0  0  0
 18 32  1  0  0  0  0
 19 32  1  0  0  0  0
 19 33  2  0  0  0  0
 19 37  1  0  0  0  0
 20 22  2  0  0  0  0
 20 42  1  0  0  0  0
 21 23  2  0  0  0  0
 21 43  1  0  0  0  0
 22 53  1  0  0  0  0
 23 44  1  0  0  0  0
 24 25  2  0  0  0  0
 24 56  1  0  0  0  0
 25 63  1  0  0  0  0
 26 74  1  0  0  0  0
 27 85  1  0  0  0  0
 28 86  1  0  0  0  0
 29 31  2  0  0  0  0
 29 85  1  0  0  0  0
 30 87  1  0  0  0  0
 31 88  1  0  0  0  0
 32 68  2  0  0  0  0
 33 69  1  0  0  0  0
 33 72  1  0  0  0  0
 34 35  2  0  0  0  0
 34 36  1  0  0  0  0
 34 64  1  0  0  0  0
 35 57  1  0  0  0  0
 35 77  1  0  0  0  0
 36 45  1  0  0  0  0
 36 79  2  0  0  0  0
 37 73  1  0  0  0  0
 37 80  2  0  0  0  0
 38 54  1  0  0  0  0
 38 75  1  0  0  0  0
 38 81  2  0  0  0  0
 39 65  1  0  0  0  0
 39 70  1  0  0  0  0
 39 82  2  0  0  0  0
 40 66  1  0  0  0  0
 40 76  1  0  0  0  0
 40 83  2  0  0  0  0
 41 71  1  0  0  0  0
 41 74  1  0  0  0  0
 41 84  2  0  0  0  0
 42 46  1  0  0  0  0
 43 54  1  0  0  0  0
 44 70  1  0  0  0  0
 45 52  1  0  0  0  0
 46 48  1  0  0  0  0
 47 49  1  0  0  0  0
 47 50  1  0  0  0  0
 48 53  1  0  0  0  0
 49 55  1  0  0  0  0
 50 71  1  0  0  0  0
 51 55  1  0  0  0  0
 51 71  1  0  0  0  0
 52 77  1  0  0  0  0
 53 75  1  0  0  0  0
 54 70  1  0  0  0  0
 55 69  1  0  0  0  0
 58 66  1  0  0  0  0
 59 67  1  0  0  0  0
 60 67  1  0  0  0  0
 61 67  1  0  0  0  0
 62 78  1  0  0  0  0
 63 77  1  0  0  0  0
 64 86  1  0  0  0  0
 65 67  1  0  0  0  0
 65 76  1  0  0  0  0
 66 78  1  0  0  0  0
 68 69  1  0  0  0  0
M  CHG  2  77   1  78   1
M  ISO  4  41 100  64 101  74 100  86 101
M  END
> <Batch ID>
0108

> <Smiles>
CNC(C)C(=O)NC(C(=O)N1Cc2cc([101O:1][101CH2:1]C3=C(C)N(Cc4cc([100NH:0][100C:0](=O)N5CCCC(n6nc(-c7ccc(Oc8ccc(F)cc8F)cc7)c(C(N)=O)c6N)C5)ccc4C)CCC3=O)ccc2CC1C(=O)NC1CCCc2ccccc21)C(C)(C)C

> <Shape>
0.236

> <Color>
0.193

> <Negative vol penalty>
0.000

$$$$

  -OEChem-04052301203D

 87 96  0     1  0  0  0  0  0999 V2000
  -21.5206  -30.5802   13.7723 C   0  0  0  0  0  0  0  0  0  0  0  0
  -22.4145  -29.5361   13.5573 C   0  0  0  0  0  0  0  0  0  0  0  0
  -22.9181   -9.9879   20.0330 C   0  0  0  0  0  0  0  0  0  0  0  0
  -24.3427   -9.4928   21.9205 C   0  0  0  0  0  0  0  0  0  0  0  0
  -21.4239  -31.1650   15.0342 C   0  0  0  0  0  0  0  0  0  0  0  0
  -23.2133  -29.0770   14.6041 C   0  0  0  0  0  0  0  0  0  0  0  0
  -26.2293  -23.0822   17.1104 C   0  0  0  0  0  0  0  0  0  0  0  0
  -22.2589   -8.7717   20.2115 C   0  0  0  0  0  0  0  0  0  0  0  0
  -23.6834   -8.2766   22.0990 C   0  0  0  0  0  0  0  0  0  0  0  0
  -27.4675  -22.5894   17.5202 C   0  0  0  0  0  0  0  0  0  0  0  0
  -20.7758   -7.1946   23.4391 C   0  0  0  0  0  0  0  0  0  0  0  0
  -20.4123   -6.8408   24.7385 C   0  0  0  0  0  0  0  0  0  0  0  0
  -30.5185  -16.3264   23.9814 C   0  0  0  0  0  0  0  0  0  0  0  0
  -30.8382  -17.6383   23.5265 C   0  0  0  0  0  0  0  0  0  0  0  0
  -27.1581  -23.6229   19.6778 C   0  0  0  0  0  0  0  0  0  0  0  0
  -21.7726   -4.8507   24.5772 C   0  0  0  0  0  0  0  0  0  0  0  0
  -23.9601  -10.3484   20.8874 C   0  0  0  0  0  0  0  0  0  0  0  0
  -24.0771  -12.8930   20.7496 C   0  0  0  0  0  0  0  0  0  0  0  0
  -22.2150  -30.7064   16.0994 C   0  0  0  0  0  0  0  0  0  0  0  0
  -25.4498  -23.8595   17.9791 C   0  0  0  0  0  0  0  0  0  0  0  0
  -23.1281  -29.6572   15.8812 C   0  0  0  0  0  0  0  0  0  0  0  0
  -25.9092  -24.1222   19.2776 C   0  0  0  0  0  0  0  0  0  0  0  0
  -22.6415   -7.9161   21.2445 C   0  0  0  0  0  0  0  0  0  0  0  0
  -27.9333  -22.8621   18.8030 C   0  0  0  0  0  0  0  0  0  0  0  0
  -21.6377   -6.3764   22.7087 C   0  0  0  0  0  0  0  0  0  0  0  0
  -20.9108   -5.6689   25.3075 C   0  0  0  0  0  0  0  0  0  0  0  0
  -22.1361   -5.2044   23.2778 C   0  0  0  0  0  0  0  0  0  0  0  0
  -24.6419  -11.6043   20.7032 C   0  0  0  0  0  0  0  0  0  0  0  0
  -30.2217  -15.4756   22.9396 C   0  0  0  0  0  0  0  0  0  0  0  0
  -25.1330  -13.7393   20.5145 C   0  0  0  0  0  0  0  0  0  0  0  0
  -30.7738  -17.7401   22.1541 C   0  0  0  0  0  0  0  0  0  0  0  0
  -30.4812  -20.4293   19.5859 C   0  0  0  0  0  0  0  0  0  0  0  0
  -30.1072  -19.5249   20.5235 C   0  0  0  0  0  0  0  0  0  0  0  0
  -31.9451  -20.7276   19.4351 C   0  0  0  0  0  0  0  0  0  0  0  0
  -22.7194  -13.2896   20.9843 C   0  0  0  0  0  0  0  0  0  0  0  0
  -24.3401  -26.8379   17.9392 C   0  0  0  0  0  0  0  0  0  0  0  0
  -22.7932  -25.8832   20.6258 C   0  0  0  0  0  0  0  0  0  0  0  0
  -23.5645  -23.9159   23.5502 C   0  0  0  0  0  0  0  0  0  0  0  0
  -31.1153  -12.6714   21.2957 C   0  0  0  0  0  0  0  0  0  0  0  0
  -22.1093  -31.4014   17.4338 C   0  0  0  0  0  0  0  0  0  0  0  0
  -24.1045  -24.3612   17.5310 C   0  0  0  0  0  0  0  0  0  0  0  0
  -25.1016  -24.9347   20.2553 C   0  0  0  0  0  0  0  0  0  0  0  0
  -32.9332  -19.9105   20.2321 C   0  0  0  0  0  0  0  0  0  0  0  0
  -22.7222  -30.6072   18.5844 C   0  0  0  0  0  0  0  0  0  0  0  0
  -29.3603  -13.9449   18.2957 C   0  0  0  0  0  0  0  0  0  0  0  0
  -24.0955  -30.0719   18.1915 C   0  0  0  0  0  0  0  0  0  0  0  0
  -27.9132  -13.5291   18.5548 C   0  0  0  0  0  0  0  0  0  0  0  0
  -32.3625  -19.4898   21.5750 C   0  0  0  0  0  0  0  0  0  0  0  0
  -30.3510  -13.0024   18.9723 C   0  0  0  0  0  0  0  0  0  0  0  0
  -28.6732  -12.4174   20.6919 C   0  0  0  0  0  0  0  0  0  0  0  0
  -23.9937  -29.1148   16.9977 C   0  0  1  0  0  0  0  0  0  0  0  0
  -23.6248  -25.5736   18.3232 C   0  0  1  0  0  0  0  0  0  0  0  0
  -27.6487  -13.3734   20.0625 C   0  0  2  0  0  0  0  0  0  0  0  0
  -28.6358  -19.2394   20.7538 C   0  0  0  0  0  0  0  0  0  0  0  0
  -22.0693  -22.5772   25.0568 C   0  0  0  0  0  0  0  0  0  0  0  0
  -22.7143  -28.4194   22.3203 C   0  0  0  0  0  0  0  0  0  0  0  0
  -22.7777  -26.9731   24.3630 C   0  0  0  0  0  0  0  0  0  0  0  0
  -20.8612  -26.8027   22.7753 C   0  0  0  0  0  0  0  0  0  0  0  0
  -32.0121  -13.0172   23.5663 C   0  0  0  0  0  0  0  0  0  0  0  0
  -25.1674  -21.4601   23.1515 C   0  0  0  0  0  0  0  0  0  0  0  0
  -29.8439  -14.0468   22.9969 C   0  0  0  0  0  0  0  0  0  0  0  0
  -29.5775  -21.1527   18.6279 C   0  0  0  0  0  0  0  0  0  1  0  0
  -23.1157  -25.8784   22.1006 C   0  0  1  0  0  0  0  0  0  0  0  0
  -23.0331  -22.5329   23.8812 C   0  0  2  0  0  0  0  0  0  0  0  0
  -22.3877  -27.0165   22.8701 C   0  0  0  0  0  0  0  0  0  0  0  0
  -25.9546  -11.6252   20.4577 N   0  0  0  0  0  0  0  0  0  0  0  0
  -26.2235  -12.9373   20.3477 N   0  0  0  0  0  0  0  0  0  0  0  0
  -31.0324  -18.9015   21.3813 N   0  0  0  0  0  0  0  0  0  0  0  0
  -23.7955  -25.4083   19.7681 N   0  0  0  0  0  0  0  0  0  0  0  0
  -30.0506  -12.8387   20.3950 N   0  0  0  0  0  0  0  0  0  0  0  0
  -25.2258  -15.0838   20.4362 N   0  0  0  0  0  0  0  0  0  0  0  0
  -22.3121  -13.5296   22.3037 N   0  0  0  0  0  0  0  0  0  0  0  0
  -23.5127  -27.8195   17.4280 N   0  0  0  0  0  0  0  0  0  0  0  0
  -22.8039  -24.5371   22.5823 N   0  0  0  0  0  0  0  0  0  0  0  0
  -30.9325  -13.1568   22.5994 N   0  0  0  0  0  0  0  0  0  0  0  0
  -24.1556  -21.6160   24.2280 N   0  3  0  0  0  0  0  0  0  0  0  0
  -32.3361  -21.5808   18.6388 O   0  0  0  0  0  0  0  0  0  0  0  0
  -21.8877  -13.4112   20.0533 O   0  0  0  0  0  0  0  0  0  0  0  0
  -25.5528  -26.9175   18.0966 O   0  0  0  0  0  0  0  0  0  0  0  0
  -21.6899  -26.2865   20.2493 O   0  0  0  0  0  0  0  0  0  0  0  0
  -24.5530  -24.3984   24.0984 O   0  0  0  0  0  0  0  0  0  0  0  0
  -32.1728  -12.1283   20.9512 O   0  0  0  0  0  0  0  0  0  0  0  0
  -21.9982   -6.7293   21.4191 O   0  0  0  0  0  0  0  0  0  0  0  0
  -29.1418  -22.3828   19.2052 O   0  0  0  0  0  0  0  0  0  1  0  0
  -20.5628   -5.3301   26.5558 F   0  0  0  0  0  0  0  0  0  0  0  0
  -22.9654   -4.4150   22.5815 F   0  0  0  0  0  0  0  0  0  0  0  0
  -30.3290  -16.2582   21.4202 S   0  0  0  0  0  0  0  0  0  0  0  0
  1  2  1  0  0  0  0
  1  5  2  0  0  0  0
  2  6  2  0  0  0  0
  3  8  2  0  0  0  0
  3 17  1  0  0  0  0
  4  9  1  0  0  0  0
  4 17  2  0  0  0  0
  5 19  1  0  0  0  0
  6 21  1  0  0  0  0
  7 10  2  0  0  0  0
  7 20  1  0  0  0  0
  8 23  1  0  0  0  0
  9 23  2  0  0  0  0
 10 24  1  0  0  0  0
 11 12  2  0  0  0  0
 11 25  1  0  0  0  0
 12 26  1  0  0  0  0
 13 14  1  0  0  0  0
 13 29  2  0  0  0  0
 14 31  2  0  0  0  0
 15 22  1  0  0  0  0
 15 24  2  0  0  0  0
 16 26  2  0  0  0  0
 16 27  1  0  0  0  0
 17 28  1  0  0  0  0
 18 28  1  0  0  0  0
 18 30  2  0  0  0  0
 18 35  1  0  0  0  0
 19 21  2  0  0  0  0
 19 40  1  0  0  0  0
 20 22  2  0  0  0  0
 20 41  1  0  0  0  0
 21 51  1  0  0  0  0
 22 42  1  0  0  0  0
 23 83  1  0  0  0  0
 24 84  1  0  0  0  0
 25 27  2  0  0  0  0
 25 83  1  0  0  0  0
 26 85  1  0  0  0  0
 27 86  1  0  0  0  0
 28 66  2  0  0  0  0
 29 61  1  0  0  0  0
 29 87  1  0  0  0  0
 30 67  1  0  0  0  0
 30 71  1  0  0  0  0
 31 68  1  0  0  0  0
 31 87  1  0  0  0  0
 32 33  2  0  0  0  0
 32 34  1  0  0  0  0
 32 62  1  0  0  0  0
 33 54  1  0  0  0  0
 33 68  1  0  0  0  0
 34 43  1  0  0  0  0
 34 77  2  0  0  0  0
 35 72  1  0  0  0  0
 35 78  2  0  0  0  0
 36 52  1  0  0  0  0
 36 73  1  0  0  0  0
 36 79  2  0  0  0  0
 37 63  1  0  0  0  0
 37 69  1  0  0  0  0
 37 80  2  0  0  0  0
 38 64  1  0  0  0  0
 38 74  1  0  0  0  0
 38 81  2  0  0  0  0
 39 70  1  0  0  0  0
 39 75  1  0  0  0  0
 39 82  2  0  0  0  0
 40 44  1  0  0  0  0
 41 52  1  0  0  0  0
 42 69  1  0  0  0  0
 43 48  1  0  0  0  0
 44 46  1  0  0  0  0
 45 47  1  0  0  0  0
 45 49  1  0  0  0  0
 46 51  1  0  0  0  0
 47 53  1  0  0  0  0
 48 68  1  0  0  0  0
 49 70  1  0  0  0  0
 50 53  1  0  0  0  0
 50 70  1  0  0  0  0
 51 73  1  0  0  0  0
 52 69  1  0  0  0  0
 53 67  1  0  0  0  0
 55 64  1  0  0  0  0
 56 65  1  0  0  0  0
 57 65  1  0  0  0  0
 58 65  1  0  0  0  0
 59 75  1  0  0  0  0
 60 76  1  0  0  0  0
 61 75  1  0  0  0  0
 62 84  1  0  0  0  0
 63 65  1  0  0  0  0
 63 74  1  0  0  0  0
 64 76  1  0  0  0  0
 66 67  1  0  0  0  0
M  CHG  1  76   1
M  ISO  4  39 100  62 101  75 100  84 101
M  END
> <Batch ID>
0108

> <Smiles>
CNC(C)C(=O)NC(C(=O)N1Cc2cc([101O:1][101CH2:1]C3=C(C)N(c4ccc(C[100N:0](C)[100C:0](=O)N5CCCC(n6nc(-c7ccc(Oc8ccc(F)cc8F)cc7)c(C(N)=O)c6N)C5)s4)CCC3=O)ccc2CC1C(=O)NC1CCCc2ccccc21)C(C)(C)C

> <Shape>
0.239

> <Color>
0.174

> <Negative vol penalty>
0.000

$$$$

  -OEChem-04052301203D

 82 90  0     1  0  0  0  0  0999 V2000
  -22.4133  -34.3495   19.2097 C   0  0  0  0  0  0  0  0  0  0  0  0
  -23.4797  -33.4814   19.4206 C   0  0  0  0  0  0  0  0  0  0  0  0
  -31.8557  -22.0881   18.8732 C   0  0  0  0  0  0  0  0  0  0  0  0
  -26.8918  -12.9258   20.1339 C   0  0  0  0  0  0  0  0  0  0  0  0
  -24.6281  -13.5971   20.6457 C   0  0  0  0  0  0  0  0  0  0  0  0
  -31.3574  -23.3905   18.8405 C   0  0  0  0  0  0  0  0  0  0  0  0
  -21.3038  -34.3067   20.0529 C   0  0  0  0  0  0  0  0  0  0  0  0
  -23.4377  -32.5706   20.4756 C   0  0  0  0  0  0  0  0  0  0  0  0
  -24.9604  -27.9392   19.1055 C   0  0  0  0  0  0  0  0  0  0  0  0
  -31.6324  -21.2838   19.9907 C   0  0  0  0  0  0  0  0  0  0  0  0
  -26.6489  -11.6745   20.7004 C   0  0  0  0  0  0  0  0  0  0  0  0
  -24.3851  -12.3459   21.2122 C   0  0  0  0  0  0  0  0  0  0  0  0
  -26.3337  -27.7292   18.9883 C   0  0  0  0  0  0  0  0  0  0  0  0
  -23.6901   -9.2187   20.1361 C   0  0  0  0  0  0  0  0  0  0  0  0
  -22.4943   -8.5808   19.8062 C   0  0  0  0  0  0  0  0  0  0  0  0
  -26.3542  -26.6892   21.1648 C   0  0  0  0  0  0  0  0  0  0  0  0
  -21.8598   -8.5649   22.1374 C   0  0  0  0  0  0  0  0  0  0  0  0
  -25.8815  -13.8871   20.1065 C   0  0  0  0  0  0  0  0  0  0  0  0
  -30.6359  -23.8886   19.9253 C   0  0  0  0  0  0  0  0  0  0  0  0
  -25.9402  -15.5574   18.1793 C   0  0  0  0  0  0  0  0  0  0  0  0
  -21.2439  -33.3883   21.1129 C   0  0  0  0  0  0  0  0  0  0  0  0
  -24.2744  -27.5350   20.2598 C   0  0  0  0  0  0  0  0  0  0  0  0
  -22.3269  -32.5163   21.3346 C   0  0  0  0  0  0  0  0  0  0  0  0
  -24.9717  -26.8930   21.2931 C   0  0  0  0  0  0  0  0  0  0  0  0
  -30.9109  -21.7819   21.0756 C   0  0  0  0  0  0  0  0  0  0  0  0
  -25.3955  -11.3846   21.2396 C   0  0  0  0  0  0  0  0  0  0  0  0
  -27.0313  -27.1067   20.0193 C   0  0  0  0  0  0  0  0  0  0  0  0
  -23.9708   -9.5296   21.4666 C   0  0  0  0  0  0  0  0  0  0  0  0
  -30.4126  -23.0843   21.0429 C   0  0  0  0  0  0  0  0  0  0  0  0
  -21.5791   -8.2539   20.8069 C   0  0  0  0  0  0  0  0  0  0  0  0
  -23.0556   -9.2028   22.4672 C   0  0  0  0  0  0  0  0  0  0  0  0
  -26.1320  -15.1800   19.5219 C   0  0  0  0  0  0  0  0  0  0  0  0
  -26.3207  -16.8765   18.1358 C   0  0  0  0  0  0  0  0  0  0  0  0
  -30.1213  -25.2671   19.8633 C   0  0  0  0  0  0  0  0  0  0  0  0
  -28.8321  -25.6152   19.9594 C   0  0  0  0  0  0  0  0  0  1  0  0
  -25.4609  -14.7849   17.0707 C   0  0  0  0  0  0  0  0  0  0  0  0
  -22.6147  -29.0291   22.5218 C   0  0  0  0  0  0  0  0  0  0  0  0
  -21.9862  -26.0049   23.5126 C   0  0  0  0  0  0  0  0  0  0  0  0
  -22.9228  -22.7239   23.5774 C   0  0  0  0  0  0  0  0  0  0  0  0
  -30.0067  -19.7086   22.1553 C   0  0  0  0  0  0  0  0  0  0  0  0
  -20.0442  -33.4114   22.0266 C   0  0  0  0  0  0  0  0  0  0  0  0
  -22.7883  -27.7447   20.3593 C   0  0  0  0  0  0  0  0  0  0  0  0
  -24.2784  -26.4217   22.5443 C   0  0  0  0  0  0  0  0  0  0  0  0
  -19.9150  -32.1619   22.8940 C   0  0  0  0  0  0  0  0  0  0  0  0
  -26.4687  -20.5311   21.3236 C   0  0  0  0  0  0  0  0  0  0  0  0
  -21.2577  -31.8097   23.5262 C   0  0  0  0  0  0  0  0  0  0  0  0
  -26.0528  -19.4672   20.3059 C   0  0  0  0  0  0  0  0  0  0  0  0
  -27.9487  -20.8821   21.2239 C   0  0  0  0  0  0  0  0  0  0  0  0
  -28.2407  -18.4015   21.0305 C   0  0  0  0  0  0  0  0  0  0  0  0
  -22.3077  -31.4973   22.4532 C   0  0  1  0  0  0  0  0  0  0  0  0
  -22.2814  -27.7551   21.7982 C   0  0  1  0  0  0  0  0  0  0  0  0
  -27.2115  -18.5372   19.9005 C   0  0  1  0  0  0  0  0  0  0  0  0
  -32.8608  -20.7429   23.3716 C   0  0  0  0  0  0  0  0  0  0  0  0
  -22.2290  -20.4950   24.4985 C   0  0  0  0  0  0  0  0  0  0  0  0
  -23.0014  -26.8306   26.2689 C   0  0  0  0  0  0  0  0  0  0  0  0
  -23.1823  -24.4027   26.8528 C   0  0  0  0  0  0  0  0  0  0  0  0
  -20.9587  -25.3881   26.2986 C   0  0  0  0  0  0  0  0  0  0  0  0
  -22.6291  -21.5662   20.8696 C   0  0  0  0  0  0  0  0  0  0  0  0
  -31.4301  -21.2369   23.4460 C   0  0  0  0  0  0  0  0  0  0  0  0
  -22.6496  -25.0286   24.4537 C   0  0  1  0  0  0  0  0  0  0  0  0
  -22.1424  -21.4482   23.3166 C   0  0  2  0  0  0  0  0  0  0  0  0
  -22.4617  -25.4230   25.9459 C   0  0  0  0  0  0  0  0  0  0  0  0
  -26.5982  -16.1784   20.2767 N   0  0  0  0  0  0  0  0  0  0  0  0
  -26.7027  -17.1963   19.4054 N   0  0  0  0  0  0  0  0  0  0  0  0
  -22.8257  -26.6553   22.5972 N   0  0  0  0  0  0  0  0  0  0  0  0
  -28.8020  -19.6981   21.4229 N   0  0  0  0  0  0  0  0  0  0  0  0
  -26.3624  -17.7823   17.1357 N   0  0  0  0  0  0  0  0  0  0  0  0
  -25.1140  -13.4448   17.2904 N   0  0  0  0  0  0  0  0  0  0  0  0
  -22.1072  -30.1660   21.9223 N   0  0  0  0  0  0  0  0  0  0  0  0
  -22.1232  -23.7113   24.1130 N   0  0  0  0  0  0  0  0  0  0  0  0
  -30.6906  -20.9368   22.2222 N   0  0  0  0  0  0  0  0  0  0  0  0
  -22.6753  -20.7521   22.1115 N   0  3  0  0  0  0  0  0  0  0  0  0
  -25.3593  -15.2639   15.9158 O   0  0  0  0  0  0  0  0  0  0  0  0
  -23.2817  -28.9838   23.5489 O   0  0  0  0  0  0  0  0  0  0  0  0
  -20.7669  -26.1786   23.5821 O   0  0  0  0  0  0  0  0  0  0  0  0
  -24.1226  -22.8322   23.3342 O   0  0  0  0  0  0  0  0  0  0  0  0
  -30.4090  -18.7079   22.7612 O   0  0  0  0  0  0  0  0  0  0  0  0
  -29.7065  -23.5665   22.1079 O   0  0  0  0  0  0  0  0  0  0  0  0
  -25.1580  -10.1637   21.7923 O   0  0  0  0  0  0  0  0  0  0  0  0
  -28.3719  -26.9011   19.9078 O   0  0  0  0  0  0  0  0  0  1  0  0
  -20.4302   -7.6428   20.4898 F   0  0  0  0  0  0  0  0  0  0  0  0
  -23.3192   -9.5001   23.7471 F   0  0  0  0  0  0  0  0  0  0  0  0
  1  2  1  0  0  0  0
  1  7  2  0  0  0  0
  2  8  2  0  0  0  0
  3  6  1  0  0  0  0
  3 10  2  0  0  0  0
  4 11  2  0  0  0  0
  4 18  1  0  0  0  0
  5 12  1  0  0  0  0
  5 18  2  0  0  0  0
  6 19  2  0  0  0  0
  7 21  1  0  0  0  0
  8 23  1  0  0  0  0
  9 13  2  0  0  0  0
  9 22  1  0  0  0  0
 10 25  1  0  0  0  0
 11 26  1  0  0  0  0
 12 26  2  0  0  0  0
 13 27  1  0  0  0  0
 14 15  2  0  0  0  0
 14 28  1  0  0  0  0
 15 30  1  0  0  0  0
 16 24  1  0  0  0  0
 16 27  2  0  0  0  0
 17 30  2  0  0  0  0
 17 31  1  0  0  0  0
 18 32  1  0  0  0  0
 19 29  1  0  0  0  0
 19 34  1  0  0  0  0
 20 32  1  0  0  0  0
 20 33  2  0  0  0  0
 20 36  1  0  0  0  0
 21 23  2  0  0  0  0
 21 41  1  0  0  0  0
 22 24  2  0  0  0  0
 22 42  1  0  0  0  0
 23 50  1  0  0  0  0
 24 43  1  0  0  0  0
 25 29  2  0  0  0  0
 25 71  1  0  0  0  0
 26 79  1  0  0  0  0
 27 80  1  0  0  0  0
 28 31  2  0  0  0  0
 28 79  1  0  0  0  0
 29 78  1  0  0  0  0
 30 81  1  0  0  0  0
 31 82  1  0  0  0  0
 32 63  2  0  0  0  0
 33 64  1  0  0  0  0
 33 67  1  0  0  0  0
 34 35  2  0  0  0  0
 35 80  1  0  0  0  0
 36 68  1  0  0  0  0
 36 73  2  0  0  0  0
 37 51  1  0  0  0  0
 37 69  1  0  0  0  0
 37 74  2  0  0  0  0
 38 60  1  0  0  0  0
 38 65  1  0  0  0  0
 38 75  2  0  0  0  0
 39 61  1  0  0  0  0
 39 70  1  0  0  0  0
 39 76  2  0  0  0  0
 40 66  1  0  0  0  0
 40 71  1  0  0  0  0
 40 77  2  0  0  0  0
 41 44  1  0  0  0  0
 42 51  1  0  0  0  0
 43 65  1  0  0  0  0
 44 46  1  0  0  0  0
 45 47  1  0  0  0  0
 45 48  1  0  0  0  0
 46 50  1  0  0  0  0
 47 52  1  0  0  0  0
 48 66  1  0  0  0  0
 49 52  1  0  0  0  0
 49 66  1  0  0  0  0
 50 69  1  0  0  0  0
 51 65  1  0  0  0  0
 52 64  1  0  0  0  0
 53 59  1  0  0  0  0
 54 61  1  0  0  0  0
 55 62  1  0  0  0  0
 56 62  1  0  0  0  0
 57 62  1  0  0  0  0
 58 72  1  0  0  0  0
 59 71  1  0  0  0  0
 60 62  1  0  0  0  0
 60 70  1  0  0  0  0
 61 72  1  0  0  0  0
 63 64  1  0  0  0  0
M  CHG  1  72   1
M  ISO  4  35 101  40 100  71 100  80 101
M  END
> <Batch ID>
0108

> <Smiles>
CC[100N:0](c1cccc(C=[101CH:1][101O:1]c2ccc3c(c2)CN(C(=O)C(NC(=O)C(C)NC)C(C)(C)C)C(C(=O)NC2CCCc4ccccc42)C3)c1O)[100C:0](=O)N1CCCC(n2nc(-c3ccc(Oc4ccc(F)cc4F)cc3)c(C(N)=O)c2N)C1

> <Shape>
0.188

> <Color>
0.083

> <Negative vol penalty>
0.000

$$$$

  -OEChem-04052301203D

 88 97  0     1  0  0  0  0  0999 V2000
  -27.8700  -37.4273   21.9040 C   0  0  0  0  0  0  0  0  0  0  0  0
  -28.3630  -36.1296   21.8125 C   0  0  0  0  0  0  0  0  0  0  0  0
  -24.2563  -10.6928   23.7439 C   0  0  0  0  0  0  0  0  0  0  0  0
  -24.6459   -9.2295   21.8613 C   0  0  0  0  0  0  0  0  0  0  0  0
  -26.6071  -37.6551   22.4490 C   0  0  0  0  0  0  0  0  0  0  0  0
  -27.5938  -35.0590   22.2670 C   0  0  0  0  0  0  0  0  0  0  0  0
  -27.3599  -29.4212   19.8865 C   0  0  0  0  0  0  0  0  0  0  0  0
  -30.8482  -20.0548   20.4845 C   0  0  0  0  0  0  0  0  0  0  0  0
  -30.5138  -18.7563   20.1001 C   0  0  0  0  0  0  0  0  0  0  0  0
  -23.9316   -9.5901   24.5339 C   0  0  0  0  0  0  0  0  0  0  0  0
  -24.3211   -8.1267   22.6514 C   0  0  0  0  0  0  0  0  0  0  0  0
  -27.9860  -28.2269   20.2405 C   0  0  0  0  0  0  0  0  0  0  0  0
  -21.5193   -6.6299   23.8090 C   0  0  0  0  0  0  0  0  0  0  0  0
  -20.6702   -5.6681   23.2616 C   0  0  0  0  0  0  0  0  0  0  0  0
  -26.0302  -27.5810   21.4963 C   0  0  0  0  0  0  0  0  0  0  0  0
  -28.5455  -20.4697   21.0863 C   0  0  0  0  0  0  0  0  0  0  0  0
  -22.3942   -3.9962   23.5252 C   0  0  0  0  0  0  0  0  0  0  0  0
  -24.6134  -10.5125   22.4076 C   0  0  0  0  0  0  0  0  0  0  0  0
  -24.1236  -12.7503   21.2851 C   0  0  0  0  0  0  0  0  0  0  0  0
  -25.8179  -36.5859   22.9015 C   0  0  0  0  0  0  0  0  0  0  0  0
  -26.0663  -29.7098   20.3444 C   0  0  0  0  0  0  0  0  0  0  0  0
  -26.3196  -35.2729   22.8197 C   0  0  0  0  0  0  0  0  0  0  0  0
  -25.3890  -28.7786   21.1445 C   0  0  0  0  0  0  0  0  0  0  0  0
  -28.2110  -19.1712   20.7018 C   0  0  0  0  0  0  0  0  0  0  0  0
  -29.8641  -20.9114   20.9777 C   0  0  0  0  0  0  0  0  0  0  0  0
  -29.1952  -18.3146   20.2087 C   0  0  0  0  0  0  0  0  0  0  0  0
  -23.9640   -8.3071   23.9877 C   0  0  0  0  0  0  0  0  0  0  0  0
  -27.3222  -27.3078   21.0479 C   0  0  0  0  0  0  0  0  0  0  0  0
  -22.8059   -6.2749   24.2144 C   0  0  0  0  0  0  0  0  0  0  0  0
  -21.1077   -4.3512   23.1198 C   0  0  0  0  0  0  0  0  0  0  0  0
  -23.2433   -4.9580   24.0725 C   0  0  0  0  0  0  0  0  0  0  0  0
  -24.9485  -11.6513   21.5908 C   0  0  0  0  0  0  0  0  0  0  0  0
  -24.9007  -13.5505   20.4837 C   0  0  0  0  0  0  0  0  0  0  0  0
  -29.7822  -24.6156   21.4098 C   0  0  0  0  0  0  0  0  0  0  0  0
  -29.6661  -23.4058   20.8100 C   0  0  0  0  0  0  0  0  0  0  0  0
  -30.4682  -24.6808   22.7439 C   0  0  0  0  0  0  0  0  0  0  0  0
  -22.7754  -13.0236   21.6895 C   0  0  0  0  0  0  0  0  0  0  0  0
  -24.7868  -31.9738   22.1721 C   0  0  0  0  0  0  0  0  0  0  0  0
  -22.0024  -30.5481   21.3138 C   0  0  0  0  0  0  0  0  0  0  0  0
  -20.4025  -27.7382   20.2219 C   0  0  0  0  0  0  0  0  0  0  0  0
  -29.7471  -16.0273   19.3085 C   0  0  0  0  0  0  0  0  0  0  0  0
  -24.4785  -36.8859   23.5264 C   0  0  0  0  0  0  0  0  0  0  0  0
  -25.3946  -30.9907   19.9316 C   0  0  0  0  0  0  0  0  0  0  0  0
  -23.9913  -29.0317   21.6456 C   0  0  0  0  0  0  0  0  0  0  0  0
  -30.8710  -23.3882   23.4117 C   0  0  0  0  0  0  0  0  0  0  0  0
  -23.5722  -35.6629   23.6410 C   0  0  0  0  0  0  0  0  0  0  0  0
  -29.3564  -12.6479   18.2579 C   0  0  0  0  0  0  0  0  0  0  0  0
  -24.3466  -34.4755   24.2044 C   0  0  0  0  0  0  0  0  0  0  0  0
  -28.1069  -12.1777   19.0062 C   0  0  0  0  0  0  0  0  0  0  0  0
  -31.2475  -22.3228   22.3971 C   0  0  0  0  0  0  0  0  0  0  0  0
  -30.2041  -13.5931   19.1073 C   0  0  0  0  0  0  0  0  0  0  0  0
  -28.2309  -14.2704   20.4176 C   0  0  0  0  0  0  0  0  0  0  0  0
  -25.5049  -34.0833   23.2792 C   0  0  1  0  0  0  0  0  0  0  0  0
  -24.2734  -31.4093   20.8777 C   0  0  1  0  0  0  0  0  0  0  0  0
  -27.3119  -13.3676   19.5787 C   0  0  2  0  0  0  0  0  0  0  0  0
  -26.7909  -18.7242   20.8305 C   0  0  0  0  0  0  0  0  0  0  0  0
  -30.1017  -23.4402   18.3778 C   0  0  0  0  0  0  0  0  0  0  0  0
  -18.1195  -26.8681   19.6494 C   0  0  0  0  0  0  0  0  0  0  0  0
  -21.3427  -30.3313   24.2849 C   0  0  0  0  0  0  0  0  0  0  0  0
  -19.5777  -28.6549   23.6994 C   0  0  0  0  0  0  0  0  0  0  0  0
  -19.4150  -30.9886   22.8335 C   0  0  0  0  0  0  0  0  0  0  0  0
  -21.1873  -27.1881   17.4218 C   0  0  0  0  0  0  0  0  0  0  0  0
  -29.2508  -25.9244   20.8976 C   0  0  0  0  0  0  0  0  0  1  0  0
  -29.0367  -23.3016   19.4343 C   0  0  0  0  0  0  0  0  0  0  0  0
  -21.1576  -29.4289   21.8730 C   0  0  1  0  0  0  0  0  0  0  0  0
  -19.3839  -27.5242   19.1169 C   0  0  2  0  0  0  0  0  0  0  0  0
  -20.4003  -29.8467   23.1650 C   0  0  0  0  0  0  0  0  0  0  0  0
  -26.1570  -11.7417   21.0293 N   0  0  0  0  0  0  0  0  0  0  0  0
  -26.0971  -12.9070   20.3626 N   0  0  0  0  0  0  0  0  0  0  0  0
  -30.2045  -22.2319   21.3693 N   0  0  0  0  0  0  0  0  0  0  0  0
  -23.3794  -30.3012   21.2199 N   0  0  0  0  0  0  0  0  0  0  0  0
  -29.3855  -14.6977   19.6119 N   0  0  0  0  0  0  0  0  0  0  0  0
  -24.6706  -14.7347   19.8779 N   0  0  0  0  0  0  0  0  0  0  0  0
  -21.7285  -12.5595   20.8815 N   0  0  0  0  0  0  0  0  0  0  0  0
  -28.8760  -16.9915   19.8145 N   0  0  0  0  0  0  0  0  0  0  0  0
  -25.0123  -33.3368   22.1413 N   0  0  0  0  0  0  0  0  0  0  0  0
  -20.2884  -28.9912   20.7860 N   0  0  0  0  0  0  0  0  0  0  0  0
  -19.9522  -26.6525   18.0502 N   0  3  0  0  0  0  0  0  0  0  0  0
  -30.6486  -25.7595   23.3082 O   0  0  0  0  0  0  0  0  0  0  0  0
  -22.5075  -13.6746   22.7277 O   0  0  0  0  0  0  0  0  0  0  0  0
  -24.9636  -31.2283   23.1285 O   0  0  0  0  0  0  0  0  0  0  0  0
  -21.4596  -31.5998   20.9662 O   0  0  0  0  0  0  0  0  0  0  0  0
  -21.2155  -26.8784   20.5541 O   0  0  0  0  0  0  0  0  0  0  0  0
  -30.7402  -16.2900   18.6253 O   0  0  0  0  0  0  0  0  0  0  0  0
  -23.6474   -7.2308   24.7583 O   0  0  0  0  0  0  0  0  0  0  0  0
  -27.9312  -26.1416   21.3955 O   0  0  0  0  0  0  0  0  0  1  0  0
  -20.2916   -3.4274   22.5956 F   0  0  0  0  0  0  0  0  0  0  0  0
  -24.4779   -4.6107   24.4613 F   0  0  0  0  0  0  0  0  0  0  0  0
  1  2  1  0  0  0  0
  1  5  2  0  0  0  0
  2  6  2  0  0  0  0
  3 10  2  0  0  0  0
  3 18  1  0  0  0  0
  4 11  1  0  0  0  0
  4 18  2  0  0  0  0
  5 20  1  0  0  0  0
  6 22  1  0  0  0  0
  7 12  2  0  0  0  0
  7 21  1  0  0  0  0
  8  9  2  0  0  0  0
  8 25  1  0  0  0  0
  9 26  1  0  0  0  0
 10 27  1  0  0  0  0
 11 27  2  0  0  0  0
 12 28  1  0  0  0  0
 13 14  2  0  0  0  0
 13 29  1  0  0  0  0
 14 30  1  0  0  0  0
 15 23  1  0  0  0  0
 15 28  2  0  0  0  0
 16 24  1  0  0  0  0
 16 25  2  0  0  0  0
 17 30  2  0  0  0  0
 17 31  1  0  0  0  0
 18 32  1  0  0  0  0
 19 32  1  0  0  0  0
 19 33  2  0  0  0  0
 19 37  1  0  0  0  0
 20 22  2  0  0  0  0
 20 42  1  0  0  0  0
 21 23  2  0  0  0  0
 21 43  1  0  0  0  0
 22 53  1  0  0  0  0
 23 44  1  0  0  0  0
 24 26  2  0  0  0  0
 24 56  1  0  0  0  0
 25 70  1  0  0  0  0
 26 75  1  0  0  0  0
 27 85  1  0  0  0  0
 28 86  1  0  0  0  0
 29 31  2  0  0  0  0
 29 85  1  0  0  0  0
 30 87  1  0  0  0  0
 31 88  1  0  0  0  0
 32 68  2  0  0  0  0
 33 69  1  0  0  0  0
 33 73  1  0  0  0  0
 34 35  2  0  0  0  0
 34 36  1  0  0  0  0
 34 63  1  0  0  0  0
 35 64  1  0  0  0  0
 35 70  1  0  0  0  0
 36 45  1  0  0  0  0
 36 79  2  0  0  0  0
 37 74  1  0  0  0  0
 37 80  2  0  0  0  0
 38 54  1  0  0  0  0
 38 76  1  0  0  0  0
 38 81  2  0  0  0  0
 39 65  1  0  0  0  0
 39 71  1  0  0  0  0
 39 82  2  0  0  0  0
 40 66  1  0  0  0  0
 40 77  1  0  0  0  0
 40 83  2  0  0  0  0
 41 72  1  0  0  0  0
 41 75  1  0  0  0  0
 41 84  2  0  0  0  0
 42 46  1  0  0  0  0
 43 54  1  0  0  0  0
 44 71  1  0  0  0  0
 45 50  1  0  0  0  0
 46 48  1  0  0  0  0
 47 49  1  0  0  0  0
 47 51  1  0  0  0  0
 48 53  1  0  0  0  0
 49 55  1  0  0  0  0
 50 70  1  0  0  0  0
 51 72  1  0  0  0  0
 52 55  1  0  0  0  0
 52 72  1  0  0  0  0
 53 76  1  0  0  0  0
 54 71  1  0  0  0  0
 55 69  1  0  0  0  0
 57 64  1  0  0  0  0
 58 66  1  0  0  0  0
 59 67  1  0  0  0  0
 60 67  1  0  0  0  0
 61 67  1  0  0  0  0
 62 78  1  0  0  0  0
 63 86  1  0  0  0  0
 65 67  1  0  0  0  0
 65 77  1  0  0  0  0
 66 78  1  0  0  0  0
 68 69  1  0  0  0  0
M  CHG  1  78   1
M  ISO  4  41 100  63 101  75 100  86 101
M  END
> <Batch ID>
0108

> <Smiles>
CCC1=C([101CH2:1][101O:1]c2ccc3c(c2)CN(C(=O)C(NC(=O)C(C)NC)C(C)(C)C)C(C(=O)NC2CCCc4ccccc42)C3)C(=O)CCN1c1ccc([100NH:0][100C:0](=O)N2CCCC(n3nc(-c4ccc(Oc5ccc(F)cc5F)cc4)c(C(N)=O)c3N)C2)c(C)c1

> <Shape>
0.356

> <Color>
0.110

> <Negative vol penalty>
0.000

$$$$

  -OEChem-04052301203D

 89 98  0     1  0  0  0  0  0999 V2000
  -22.4250   -7.3413   24.2947 C   0  0  0  0  0  0  0  0  0  0  0  0
  -23.3753   -8.2529   24.7435 C   0  0  0  0  0  0  0  0  0  0  0  0
  -23.8428  -30.3129   24.5660 C   0  0  0  0  0  0  0  0  0  0  0  0
  -22.7547  -31.0467   22.5376 C   0  0  0  0  0  0  0  0  0  0  0  0
  -22.0703   -7.3126   22.9466 C   0  0  0  0  0  0  0  0  0  0  0  0
  -23.9723   -9.1356   23.8441 C   0  0  0  0  0  0  0  0  0  0  0  0
  -26.6349  -15.7756   23.4728 C   0  0  0  0  0  0  0  0  0  0  0  0
  -22.5992  -30.0310   25.1313 C   0  0  0  0  0  0  0  0  0  0  0  0
  -21.5110  -30.7648   23.1028 C   0  0  0  0  0  0  0  0  0  0  0  0
  -27.7862  -16.4536   23.0745 C   0  0  0  0  0  0  0  0  0  0  0  0
  -19.5968  -28.0391   23.6745 C   0  0  0  0  0  0  0  0  0  0  0  0
  -18.6677  -27.3593   22.8869 C   0  0  0  0  0  0  0  0  0  0  0  0
  -27.0373  -16.3666   20.7830 C   0  0  0  0  0  0  0  0  0  0  0  0
  -30.0950  -23.7359   21.3966 C   0  0  0  0  0  0  0  0  0  0  0  0
  -29.7672  -24.7836   18.8319 C   0  0  0  0  0  0  0  0  0  0  0  0
  -17.1367  -29.2173   23.0893 C   0  0  0  0  0  0  0  0  0  0  0  0
  -23.9206  -30.8207   23.2692 C   0  0  0  0  0  0  0  0  0  0  0  0
  -26.1699  -32.0194   23.1628 C   0  0  0  0  0  0  0  0  0  0  0  0
  -22.6562   -8.2020   22.0320 C   0  0  0  0  0  0  0  0  0  0  0  0
  -25.6798  -15.3777   22.5263 C   0  0  0  0  0  0  0  0  0  0  0  0
  -23.6261   -9.1179   22.4823 C   0  0  0  0  0  0  0  0  0  0  0  0
  -25.8736  -15.6859   21.1722 C   0  0  0  0  0  0  0  0  0  0  0  0
  -29.7357  -25.0734   21.2303 C   0  0  0  0  0  0  0  0  0  0  0  0
  -30.2905  -22.9223   20.2806 C   0  0  0  0  0  0  0  0  0  0  0  0
  -29.5718  -25.5972   19.9480 C   0  0  0  0  0  0  0  0  0  0  0  0
  -21.4333  -30.2569   24.3997 C   0  0  0  0  0  0  0  0  0  0  0  0
  -27.9889  -16.7467   21.7291 C   0  0  0  0  0  0  0  0  0  0  0  0
  -19.2958  -29.3079   24.1697 C   0  0  0  0  0  0  0  0  0  0  0  0
  -17.4377  -27.9484   22.5943 C   0  0  0  0  0  0  0  0  0  0  0  0
  -30.1266  -23.4461   18.9982 C   0  0  0  0  0  0  0  0  0  0  0  0
  -18.0658  -29.8970   23.8770 C   0  0  0  0  0  0  0  0  0  0  0  0
  -25.2049  -31.1126   22.6849 C   0  0  0  0  0  0  0  0  0  0  0  0
  -27.2019  -31.9295   22.2610 C   0  0  0  0  0  0  0  0  0  0  0  0
  -30.4130  -19.4133   21.5396 C   0  0  0  0  0  0  0  0  0  0  0  0
  -29.8943  -20.5994   21.1386 C   0  0  0  0  0  0  0  0  0  0  0  0
  -31.8689  -19.1536   21.2787 C   0  0  0  0  0  0  0  0  0  0  0  0
  -26.1365  -32.8670   24.3187 C   0  0  0  0  0  0  0  0  0  0  0  0
  -24.5073  -12.5857   21.5600 C   0  0  0  0  0  0  0  0  0  0  0  0
  -22.5042  -14.4659   19.8352 C   0  0  0  0  0  0  0  0  0  0  0  0
  -22.7607  -17.4838   17.8746 C   0  0  0  0  0  0  0  0  0  0  0  0
  -29.0121  -27.6138   18.5456 C   0  0  0  0  0  0  0  0  0  0  0  0
  -22.2753   -8.1015   20.5762 C   0  0  0  0  0  0  0  0  0  0  0  0
  -24.4305  -14.6705   22.9754 C   0  0  0  0  0  0  0  0  0  0  0  0
  -24.8688  -15.2986   20.1191 C   0  0  0  0  0  0  0  0  0  0  0  0
  -32.7105  -20.2718   20.7127 C   0  0  0  0  0  0  0  0  0  0  0  0
  -22.6805   -9.3228   19.7549 C   0  0  0  0  0  0  0  0  0  0  0  0
  -28.0776  -30.9332   17.6593 C   0  0  0  0  0  0  0  0  0  0  0  0
  -24.1194   -9.7220   20.0662 C   0  0  0  0  0  0  0  0  0  0  0  0
  -27.3280  -31.4405   18.8934 C   0  0  0  0  0  0  0  0  0  0  0  0
  -31.9062  -21.1703   19.7897 C   0  0  0  0  0  0  0  0  0  0  0  0
  -27.8009  -29.4541   17.3960 C   0  0  0  0  0  0  0  0  0  0  0  0
  -27.2867  -29.0724   19.7749 C   0  0  0  0  0  0  0  0  0  0  0  0
  -24.2779  -10.1082   21.5418 C   0  0  1  0  0  0  0  0  0  0  0  0
  -23.7708  -13.8595   21.8644 C   0  0  1  0  0  0  0  0  0  0  0  0
  -27.5850  -30.5410   20.1182 C   0  0  2  0  0  0  0  0  0  0  0  0
  -28.4155  -20.8792   21.3245 C   0  0  0  0  0  0  0  0  0  0  0  0
  -30.7168  -26.8530   22.6988 C   0  0  0  0  0  0  0  0  0  0  0  0
  -21.0464  -19.2402   17.3515 C   0  0  0  0  0  0  0  0  0  0  0  0
  -22.0239  -12.8309   17.3042 C   0  0  0  0  0  0  0  0  0  0  0  0
  -21.7391  -14.9808   16.0532 C   0  0  0  0  0  0  0  0  0  0  0  0
  -20.1687  -14.3979   17.9016 C   0  0  0  0  0  0  0  0  0  0  0  0
  -24.4851  -19.6459   18.9284 C   0  0  0  0  0  0  0  0  0  0  0  0
  -29.5354  -25.9226   22.4434 C   0  0  0  0  0  0  0  0  0  0  0  0
  -29.6879  -18.3198   22.2719 C   0  0  0  0  0  0  0  0  0  1  0  0
  -22.5380  -15.0828   18.4578 C   0  0  1  0  0  0  0  0  0  0  0  0
  -22.2185  -18.8538   18.2401 C   0  0  2  0  0  0  0  0  0  0  0  0
  -21.6413  -14.3179   17.4437 C   0  0  0  0  0  0  0  0  0  0  0  0
  -25.5895  -30.4924   21.5662 N   0  0  0  0  0  0  0  0  0  0  0  0
  -26.8075  -31.0104   21.3336 N   0  0  0  0  0  0  0  0  0  0  0  0
  -30.6566  -21.5622   20.4513 N   0  0  0  0  0  0  0  0  0  0  0  0
  -23.6665  -14.6032   20.6073 N   0  0  0  0  0  0  0  0  0  0  0  0
  -28.0703  -28.6631   18.5988 N   0  0  0  0  0  0  0  0  0  0  0  0
  -28.3991  -32.5478   22.1786 N   0  0  0  0  0  0  0  0  0  0  0  0
  -25.6110  -34.1594   24.1845 N   0  0  0  0  0  0  0  0  0  0  0  0
  -29.2089  -26.9537   19.7581 N   0  0  0  0  0  0  0  0  0  0  0  0
  -23.7634  -11.4409   21.7735 N   0  0  0  0  0  0  0  0  0  0  0  0
  -22.1811  -16.4868   18.6305 N   0  0  0  0  0  0  0  0  0  0  0  0
  -23.2814  -19.8879   18.0921 N   0  3  0  0  0  0  0  0  0  0  0  0
  -32.3788  -18.0722   21.5709 O   0  0  0  0  0  0  0  0  0  0  0  0
  -26.5752  -32.4954   25.4336 O   0  0  0  0  0  0  0  0  0  0  0  0
  -25.6643  -12.6376   21.1595 O   0  0  0  0  0  0  0  0  0  0  0  0
  -21.4817  -13.8898   20.2149 O   0  0  0  0  0  0  0  0  0  0  0  0
  -23.6105  -17.3145   17.0030 O   0  0  0  0  0  0  0  0  0  0  0  0
  -29.6206  -27.3399   17.5080 O   0  0  0  0  0  0  0  0  0  0  0  0
  -20.2196  -29.9818   24.9508 O   0  0  0  0  0  0  0  0  0  0  0  0
  -29.1120  -17.4079   21.3375 O   0  0  0  0  0  0  0  0  0  1  0  0
  -16.5462  -27.2962   21.8366 F   0  0  0  0  0  0  0  0  0  0  0  0
  -30.3131  -22.6741   17.9182 F   0  0  0  0  0  0  0  0  0  0  0  0
  -17.7715  -31.1163   24.3489 F   0  0  0  0  0  0  0  0  0  0  0  0
  1  2  1  0  0  0  0
  1  5  2  0  0  0  0
  2  6  2  0  0  0  0
  3  8  2  0  0  0  0
  3 17  1  0  0  0  0
  4  9  1  0  0  0  0
  4 17  2  0  0  0  0
  5 19  1  0  0  0  0
  6 21  1  0  0  0  0
  7 10  2  0  0  0  0
  7 20  1  0  0  0  0
  8 26  1  0  0  0  0
  9 26  2  0  0  0  0
 10 27  1  0  0  0  0
 11 12  2  0  0  0  0
 11 28  1  0  0  0  0
 12 29  1  0  0  0  0
 13 22  1  0  0  0  0
 13 27  2  0  0  0  0
 14 23  1  0  0  0  0
 14 24  2  0  0  0  0
 15 25  1  0  0  0  0
 15 30  2  0  0  0  0
 16 29  2  0  0  0  0
 16 31  1  0  0  0  0
 17 32  1  0  0  0  0
 18 32  1  0  0  0  0
 18 33  2  0  0  0  0
 18 37  1  0  0  0  0
 19 21  2  0  0  0  0
 19 42  1  0  0  0  0
 20 22  2  0  0  0  0
 20 43  1  0  0  0  0
 21 53  1  0  0  0  0
 22 44  1  0  0  0  0
 23 25  2  0  0  0  0
 23 63  1  0  0  0  0
 24 30  1  0  0  0  0
 24 70  1  0  0  0  0
 25 75  1  0  0  0  0
 26 85  1  0  0  0  0
 27 86  1  0  0  0  0
 28 31  2  0  0  0  0
 28 85  1  0  0  0  0
 29 87  1  0  0  0  0
 30 88  1  0  0  0  0
 31 89  1  0  0  0  0
 32 68  2  0  0  0  0
 33 69  1  0  0  0  0
 33 73  1  0  0  0  0
 34 35  2  0  0  0  0
 34 36  1  0  0  0  0
 34 64  1  0  0  0  0
 35 56  1  0  0  0  0
 35 70  1  0  0  0  0
 36 45  1  0  0  0  0
 36 79  2  0  0  0  0
 37 74  1  0  0  0  0
 37 80  2  0  0  0  0
 38 54  1  0  0  0  0
 38 76  1  0  0  0  0
 38 81  2  0  0  0  0
 39 65  1  0  0  0  0
 39 71  1  0  0  0  0
 39 82  2  0  0  0  0
 40 66  1  0  0  0  0
 40 77  1  0  0  0  0
 40 83  2  0  0  0  0
 41 72  1  0  0  0  0
 41 75  1  0  0  0  0
 41 84  2  0  0  0  0
 42 46  1  0  0  0  0
 43 54  1  0  0  0  0
 44 71  1  0  0  0  0
 45 50  1  0  0  0  0
 46 48  1  0  0  0  0
 47 49  1  0  0  0  0
 47 51  1  0  0  0  0
 48 53  1  0  0  0  0
 49 55  1  0  0  0  0
 50 70  1  0  0  0  0
 51 72  1  0  0  0  0
 52 55  1  0  0  0  0
 52 72  1  0  0  0  0
 53 76  1  0  0  0  0
 54 71  1  0  0  0  0
 55 69  1  0  0  0  0
 57 63  1  0  0  0  0
 58 66  1  0  0  0  0
 59 67  1  0  0  0  0
 60 67  1  0  0  0  0
 61 67  1  0  0  0  0
 62 78  1  0  0  0  0
 64 86  1  0  0  0  0
 65 67  1  0  0  0  0
 65 77  1  0  0  0  0
 66 78  1  0  0  0  0
 68 69  1  0  0  0  0
M  CHG  1  78   1
M  ISO  4  41 100  64 101  75 100  86 101
M  END
> <Batch ID>
0108

> <Smiles>
CCc1cc(N2CCC(=O)C([101CH2:1][101O:1]c3ccc4c(c3)CN(C(=O)C(NC(=O)C(C)NC)C(C)(C)C)C(C(=O)NC3CCCc5ccccc53)C4)=C2C)c(F)cc1[100NH:0][100C:0](=O)N1CCCC(n2nc(-c3ccc(Oc4ccc(F)cc4F)cc3)c(C(N)=O)c2N)C1

> <Shape>
0.285

> <Color>
0.054

> <Negative vol penalty>
0.000

$$$$

  -OEChem-04052301203D

 88 97  0     1  0  0  0  0  0999 V2000
  -28.9239  -22.6736   16.4228 C   0  0  0  0  0  0  0  0  0  0  0  0
  -27.7082  -22.9733   17.0291 C   0  0  0  0  0  0  0  0  0  0  0  0
  -28.0346  -16.0029   21.8532 C   0  0  0  0  0  0  0  0  0  0  0  0
  -27.9564  -15.8201   19.4454 C   0  0  0  0  0  0  0  0  0  0  0  0
  -30.1096  -23.1814   16.9524 C   0  0  0  0  0  0  0  0  0  0  0  0
  -27.6775  -23.7802   18.1660 C   0  0  0  0  0  0  0  0  0  0  0  0
  -24.0344  -27.2916   17.9583 C   0  0  0  0  0  0  0  0  0  0  0  0
  -19.4554  -19.8751   22.8610 C   0  0  0  0  0  0  0  0  0  0  0  0
  -19.3240  -21.2409   22.6107 C   0  0  0  0  0  0  0  0  0  0  0  0
  -29.1887  -16.7803   21.7567 C   0  0  0  0  0  0  0  0  0  0  0  0
  -29.1105  -16.5975   19.3489 C   0  0  0  0  0  0  0  0  0  0  0  0
  -22.7318  -26.8743   18.2281 C   0  0  0  0  0  0  0  0  0  0  0  0
  -29.9782  -19.9886   21.0380 C   0  0  0  0  0  0  0  0  0  0  0  0
  -30.0522  -21.1391   21.8230 C   0  0  0  0  0  0  0  0  0  0  0  0
  -22.9257  -27.7395   20.4715 C   0  0  0  0  0  0  0  0  0  0  0  0
  -18.3015  -19.3854   20.7956 C   0  0  0  0  0  0  0  0  0  0  0  0
  -32.0244  -20.2681   22.9135 C   0  0  0  0  0  0  0  0  0  0  0  0
  -27.4185  -15.5228   20.6975 C   0  0  0  0  0  0  0  0  0  0  0  0
  -26.0865  -13.4841   21.4572 C   0  0  0  0  0  0  0  0  0  0  0  0
  -30.0925  -24.0028   18.0906 C   0  0  0  0  0  0  0  0  0  0  0  0
  -24.7976  -27.9273   18.9482 C   0  0  0  0  0  0  0  0  0  0  0  0
  -28.8641  -24.2983   18.7120 C   0  0  0  0  0  0  0  0  0  0  0  0
  -24.2369  -28.1662   20.2110 C   0  0  0  0  0  0  0  0  0  0  0  0
  -18.9442  -18.9473   21.9534 C   0  0  0  0  0  0  0  0  0  0  0  0
  -18.6812  -21.6791   21.4528 C   0  0  0  0  0  0  0  0  0  0  0  0
  -18.1700  -20.7513   20.5453 C   0  0  0  0  0  0  0  0  0  0  0  0
  -29.7267  -17.0776   20.5046 C   0  0  0  0  0  0  0  0  0  0  0  0
  -22.1782  -27.0956   19.4857 C   0  0  0  0  0  0  0  0  0  0  0  0
  -30.9272  -18.9777   21.1908 C   0  0  0  0  0  0  0  0  0  0  0  0
  -31.0754  -21.2789   22.7607 C   0  0  0  0  0  0  0  0  0  0  0  0
  -31.9503  -19.1175   22.1285 C   0  0  0  0  0  0  0  0  0  0  0  0
  -26.2266  -14.7192   20.7965 C   0  0  0  0  0  0  0  0  0  0  0  0
  -24.7724  -13.1364   21.2603 C   0  0  0  0  0  0  0  0  0  0  0  0
  -19.5070  -25.3061   21.1232 C   0  0  0  0  0  0  0  0  0  0  0  0
  -19.6488  -23.9588   21.0936 C   0  0  0  0  0  0  0  0  0  0  0  0
  -18.1152  -25.8626   21.1825 C   0  0  0  0  0  0  0  0  0  0  0  0
  -27.0574  -12.7194   22.1841 C   0  0  0  0  0  0  0  0  0  0  0  0
  -27.5163  -27.2641   20.4557 C   0  0  0  0  0  0  0  0  0  0  0  0
  -27.0908  -30.2262   21.7074 C   0  0  0  0  0  0  0  0  0  0  0  0
  -24.3378  -32.1701   22.9956 C   0  0  0  0  0  0  0  0  0  0  0  0
  -19.8310  -16.3319   20.1549 C   0  0  0  0  0  0  0  0  0  0  0  0
  -31.4040  -24.4895   18.6543 C   0  0  0  0  0  0  0  0  0  0  0  0
  -26.1919  -28.3952   18.6329 C   0  0  0  0  0  0  0  0  0  0  0  0
  -25.0072  -28.8626   21.3018 C   0  0  0  0  0  0  0  0  0  0  0  0
  -16.9671  -24.9189   20.9239 C   0  0  0  0  0  0  0  0  0  0  0  0
  -31.2517  -25.6435   19.6419 C   0  0  0  0  0  0  0  0  0  0  0  0
  -21.1728  -13.7054   18.1604 C   0  0  0  0  0  0  0  0  0  0  0  0
  -30.1380  -25.3473   20.6414 C   0  0  0  0  0  0  0  0  0  0  0  0
  -22.6075  -13.5559   18.6695 C   0  0  0  0  0  0  0  0  0  0  0  0
  -17.2172  -23.5639   21.5574 C   0  0  0  0  0  0  0  0  0  0  0  0
  -20.7231  -15.1648   18.1603 C   0  0  0  0  0  0  0  0  0  0  0  0
  -22.3158  -15.7122   19.9596 C   0  0  0  0  0  0  0  0  0  0  0  0
  -28.7876  -25.1903   19.9321 C   0  0  1  0  0  0  0  0  0  0  0  0
  -27.0581  -28.5725   19.8762 C   0  0  1  0  0  0  0  0  0  0  0  0
  -22.7948  -14.2521   20.0309 C   0  0  2  0  0  0  0  0  0  0  0  0
  -21.0171  -23.3521   20.8471 C   0  0  0  0  0  0  0  0  0  0  0  0
  -24.0052  -34.6551   23.1045 C   0  0  0  0  0  0  0  0  0  0  0  0
  -28.2567  -29.9678   24.5153 C   0  0  0  0  0  0  0  0  0  0  0  0
  -26.6126  -31.6936   25.2813 C   0  0  0  0  0  0  0  0  0  0  0  0
  -28.3259  -32.2804   23.5658 C   0  0  0  0  0  0  0  0  0  0  0  0
  -21.7630  -32.0058   21.5457 C   0  0  0  0  0  0  0  0  0  0  0  0
  -19.0852  -17.4869   22.2210 C   0  0  0  0  0  0  0  0  0  0  0  0
  -20.6105  -26.3248   21.0994 C   0  0  0  0  0  0  0  0  0  1  0  0
  -26.3928  -30.7822   22.9251 C   0  0  1  0  0  0  0  0  0  0  0  0
  -23.6929  -33.3780   22.3401 C   0  0  2  0  0  0  0  0  0  0  0  0
  -27.3881  -31.1571   24.0592 C   0  0  0  0  0  0  0  0  0  0  0  0
  -25.0921  -15.1286   20.2227 N   0  0  0  0  0  0  0  0  0  0  0  0
  -24.2266  -14.1450   20.5221 N   0  0  0  0  0  0  0  0  0  0  0  0
  -18.5599  -23.0760   21.2173 N   0  0  0  0  0  0  0  0  0  0  0  0
  -26.3688  -29.2956   20.9468 N   0  0  0  0  0  0  0  0  0  0  0  0
  -20.9256  -15.7660   19.4807 N   0  0  0  0  0  0  0  0  0  0  0  0
  -17.5167  -21.1736   19.3661 N   0  0  0  0  0  0  0  0  0  0  0  0
  -24.0421  -12.0694   21.6483 N   0  0  0  0  0  0  0  0  0  0  0  0
  -27.8212  -11.7735   21.4867 N   0  0  0  0  0  0  0  0  0  0  0  0
  -28.2484  -26.4862   19.5792 N   0  0  0  0  0  0  0  0  0  0  0  0
  -25.5760  -31.8957   22.4545 N   0  0  0  0  0  0  0  0  0  0  0  0
  -20.1087  -16.8745   21.4035 N   0  0  0  0  0  0  0  0  0  0  0  0
  -22.2129  -33.2109   22.2887 N   0  3  0  0  0  0  0  0  0  0  0  0
  -17.9182  -27.0648   21.3526 O   0  0  0  0  0  0  0  0  0  0  0  0
  -27.2308  -12.8588   23.4186 O   0  0  0  0  0  0  0  0  0  0  0  0
  -27.2283  -26.9819   21.6129 O   0  0  0  0  0  0  0  0  0  0  0  0
  -28.2318  -30.6091   21.4370 O   0  0  0  0  0  0  0  0  0  0  0  0
  -23.7988  -31.5360   23.9000 O   0  0  0  0  0  0  0  0  0  0  0  0
  -18.6896  -16.3473   19.6815 O   0  0  0  0  0  0  0  0  0  0  0  0
  -30.8527  -17.8363   20.4101 O   0  0  0  0  0  0  0  0  0  0  0  0
  -20.9072  -26.6888   19.7519 O   0  0  0  0  0  0  0  0  0  1  0  0
  -31.1473  -22.3846   23.5135 F   0  0  0  0  0  0  0  0  0  0  0  0
  -32.8655  -18.1503   22.2790 F   0  0  0  0  0  0  0  0  0  0  0  0
  1  2  1  0  0  0  0
  1  5  2  0  0  0  0
  2  6  2  0  0  0  0
  3 10  2  0  0  0  0
  3 18  1  0  0  0  0
  4 11  1  0  0  0  0
  4 18  2  0  0  0  0
  5 20  1  0  0  0  0
  6 22  1  0  0  0  0
  7 12  2  0  0  0  0
  7 21  1  0  0  0  0
  8  9  2  0  0  0  0
  8 24  1  0  0  0  0
  9 25  1  0  0  0  0
 10 27  1  0  0  0  0
 11 27  2  0  0  0  0
 12 28  1  0  0  0  0
 13 14  2  0  0  0  0
 13 29  1  0  0  0  0
 14 30  1  0  0  0  0
 15 23  1  0  0  0  0
 15 28  2  0  0  0  0
 16 24  2  0  0  0  0
 16 26  1  0  0  0  0
 17 30  2  0  0  0  0
 17 31  1  0  0  0  0
 18 32  1  0  0  0  0
 19 32  1  0  0  0  0
 19 33  2  0  0  0  0
 19 37  1  0  0  0  0
 20 22  2  0  0  0  0
 20 42  1  0  0  0  0
 21 23  2  0  0  0  0
 21 43  1  0  0  0  0
 22 53  1  0  0  0  0
 23 44  1  0  0  0  0
 24 62  1  0  0  0  0
 25 26  2  0  0  0  0
 25 69  1  0  0  0  0
 26 72  1  0  0  0  0
 27 85  1  0  0  0  0
 28 86  1  0  0  0  0
 29 31  2  0  0  0  0
 29 85  1  0  0  0  0
 30 87  1  0  0  0  0
 31 88  1  0  0  0  0
 32 67  2  0  0  0  0
 33 68  1  0  0  0  0
 33 73  1  0  0  0  0
 34 35  2  0  0  0  0
 34 36  1  0  0  0  0
 34 63  1  0  0  0  0
 35 56  1  0  0  0  0
 35 69  1  0  0  0  0
 36 45  1  0  0  0  0
 36 79  2  0  0  0  0
 37 74  1  0  0  0  0
 37 80  2  0  0  0  0
 38 54  1  0  0  0  0
 38 75  1  0  0  0  0
 38 81  2  0  0  0  0
 39 64  1  0  0  0  0
 39 70  1  0  0  0  0
 39 82  2  0  0  0  0
 40 65  1  0  0  0  0
 40 76  1  0  0  0  0
 40 83  2  0  0  0  0
 41 71  1  0  0  0  0
 41 77  1  0  0  0  0
 41 84  2  0  0  0  0
 42 46  1  0  0  0  0
 43 54  1  0  0  0  0
 44 70  1  0  0  0  0
 45 50  1  0  0  0  0
 46 48  1  0  0  0  0
 47 49  1  0  0  0  0
 47 51  1  0  0  0  0
 48 53  1  0  0  0  0
 49 55  1  0  0  0  0
 50 69  1  0  0  0  0
 51 71  1  0  0  0  0
 52 55  1  0  0  0  0
 52 71  1  0  0  0  0
 53 75  1  0  0  0  0
 54 70  1  0  0  0  0
 55 68  1  0  0  0  0
 57 65  1  0  0  0  0
 58 66  1  0  0  0  0
 59 66  1  0  0  0  0
 60 66  1  0  0  0  0
 61 78  1  0  0  0  0
 62 77  1  0  0  0  0
 63 86  1  0  0  0  0
 64 66  1  0  0  0  0
 64 76  1  0  0  0  0
 65 78  1  0  0  0  0
 67 68  1  0  0  0  0
M  CHG  1  78   1
M  ISO  4  41 100  63 101  77 100  86 101
M  END
> <Batch ID>
0108

> <Smiles>
CNC(C)C(=O)NC(C(=O)N1Cc2cc([101O:1][101CH2:1]C3=C(C)N(c4ccc(C[100NH:0][100C:0](=O)N5CCCC(n6nc(-c7ccc(Oc8ccc(F)cc8F)cc7)c(C(N)=O)c6N)C5)cc4N)CCC3=O)ccc2CC1C(=O)NC1CCCc2ccccc21)C(C)(C)C

> <Shape>
0.238

> <Color>
0.058

> <Negative vol penalty>
0.000

$$$$

  -OEChem-04052301203D

 86 94  0     1  0  0  0  0  0999 V2000
  -19.8393  -24.9608   22.4762 C   0  0  0  0  0  0  0  0  0  0  0  0
  -21.1254  -25.2806   22.8994 C   0  0  0  0  0  0  0  0  0  0  0  0
  -24.6392  -13.9251   20.7424 C   0  0  0  0  0  0  0  0  0  0  0  0
  -26.8913  -13.5673   19.9441 C   0  0  0  0  0  0  0  0  0  0  0  0
  -19.2853  -25.6159   21.3771 C   0  0  0  0  0  0  0  0  0  0  0  0
  -21.8587  -26.2549   22.2231 C   0  0  0  0  0  0  0  0  0  0  0  0
  -24.1887  -29.4661   25.3702 C   0  0  0  0  0  0  0  0  0  0  0  0
  -24.3046  -12.6194   20.3834 C   0  0  0  0  0  0  0  0  0  0  0  0
  -26.5567  -12.2616   19.5852 C   0  0  0  0  0  0  0  0  0  0  0  0
  -25.3592  -29.0206   25.9827 C   0  0  0  0  0  0  0  0  0  0  0  0
  -24.7326   -9.5058   21.6305 C   0  0  0  0  0  0  0  0  0  0  0  0
  -24.0016   -8.7490   22.5462 C   0  0  0  0  0  0  0  0  0  0  0  0
  -26.6646  -30.2419   24.3630 C   0  0  0  0  0  0  0  0  0  0  0  0
  -30.0061  -23.1146   22.7363 C   0  0  0  0  0  0  0  0  0  0  0  0
  -29.5250  -24.8932   21.1737 C   0  0  0  0  0  0  0  0  0  0  0  0
  -22.2253   -8.5054   20.9268 C   0  0  0  0  0  0  0  0  0  0  0  0
  -25.9326  -14.3991   20.5227 C   0  0  0  0  0  0  0  0  0  0  0  0
  -26.7872  -16.1860   22.1302 C   0  0  0  0  0  0  0  0  0  0  0  0
  -20.0085  -26.6056   20.6929 C   0  0  0  0  0  0  0  0  0  0  0  0
  -24.2475  -30.2955   24.2410 C   0  0  0  0  0  0  0  0  0  0  0  0
  -21.3144  -26.9229   21.1130 C   0  0  0  0  0  0  0  0  0  0  0  0
  -25.4933  -30.6987   23.7395 C   0  0  0  0  0  0  0  0  0  0  0  0
  -30.0078  -23.6104   21.4326 C   0  0  0  0  0  0  0  0  0  0  0  0
  -29.5214  -23.9014   23.7812 C   0  0  0  0  0  0  0  0  0  0  0  0
  -25.2633  -11.7877   19.8049 C   0  0  0  0  0  0  0  0  0  0  0  0
  -26.5974  -29.4061   25.4774 C   0  0  0  0  0  0  0  0  0  0  0  0
  -24.2099   -9.7625   20.3630 C   0  0  0  0  0  0  0  0  0  0  0  0
  -29.0403  -25.6801   22.2185 C   0  0  0  0  0  0  0  0  0  0  0  0
  -29.0385  -25.1841   23.5223 C   0  0  0  0  0  0  0  0  0  0  0  0
  -22.7480   -8.2487   22.1943 C   0  0  0  0  0  0  0  0  0  0  0  0
  -22.9562   -9.2623   20.0111 C   0  0  0  0  0  0  0  0  0  0  0  0
  -26.2788  -15.7479   20.8927 C   0  0  0  0  0  0  0  0  0  0  0  0
  -26.9483  -17.5412   21.9748 C   0  0  0  0  0  0  0  0  0  0  0  0
  -27.0871  -15.4352   23.3142 C   0  0  0  0  0  0  0  0  0  0  0  0
  -23.2905  -30.0432   21.2204 C   0  0  0  0  0  0  0  0  0  0  0  0
  -24.2551  -33.1364   21.0650 C   0  0  0  0  0  0  0  0  0  0  0  0
  -26.2251  -35.6235   22.3221 C   0  0  0  0  0  0  0  0  0  0  0  0
  -28.6221  -21.9291   18.9599 C   0  0  0  0  0  0  0  0  0  0  0  0
  -19.3857  -27.2528   19.4813 C   0  0  0  0  0  0  0  0  0  0  0  0
  -22.9756  -30.7891   23.6079 C   0  0  0  0  0  0  0  0  0  0  0  0
  -25.6106  -31.6043   22.5418 C   0  0  0  0  0  0  0  0  0  0  0  0
  -20.0868  -28.5382   19.0494 C   0  0  0  0  0  0  0  0  0  0  0  0
  -25.3655  -20.6458   18.3084 C   0  0  0  0  0  0  0  0  0  0  0  0
  -21.5990  -28.3394   19.0254 C   0  0  0  0  0  0  0  0  0  0  0  0
  -25.3572  -19.2913   19.0191 C   0  0  0  0  0  0  0  0  0  0  0  0
  -26.7297  -20.9526   17.6944 C   0  0  0  0  0  0  0  0  0  0  0  0
  -27.8567  -19.5074   19.3421 C   0  0  0  0  0  0  0  0  0  0  0  0
  -22.1319  -27.9916   20.4206 C   0  0  1  0  0  0  0  0  0  0  0  0
  -23.1573  -31.2131   22.1538 C   0  0  1  0  0  0  0  0  0  0  0  0
  -26.5183  -19.1789   20.0254 C   0  0  2  0  0  0  0  0  0  0  0  0
  -26.8243  -38.0336   21.9625 C   0  0  0  0  0  0  0  0  0  0  0  0
  -25.9752  -32.3489   18.6710 C   0  0  0  0  0  0  0  0  0  0  0  0
  -27.2322  -34.4952   18.9566 C   0  0  0  0  0  0  0  0  0  0  0  0
  -24.7941  -34.5402   18.4312 C   0  0  0  0  0  0  0  0  0  0  0  0
  -25.2449  -36.3883   25.0079 C   0  0  0  0  0  0  0  0  0  0  0  0
  -27.1825  -27.0482   21.6419 C   0  0  0  0  0  0  0  0  0  0  0  0
  -30.5242  -22.7692   20.3147 C   0  0  0  0  0  0  0  0  0  0  0  0
  -29.5266  -23.3531   25.1701 C   0  0  0  0  0  0  0  0  0  0  0  0
  -29.0605  -27.0339   26.6430 C   0  0  0  0  0  0  0  0  0  0  0  0
  -27.6957  -27.7002   26.7182 C   0  0  0  0  0  0  0  0  0  1  0  0
  -29.5003  -26.7984   25.2066 C   0  0  0  0  0  0  0  0  0  0  0  0
  -25.5520  -33.8367   20.7382 C   0  0  1  0  0  0  0  0  0  0  0  0
  -25.9151  -37.0613   22.6977 C   0  0  2  0  0  0  0  0  0  0  0  0
  -25.8865  -33.7866   19.2207 C   0  0  0  0  0  0  0  0  0  0  0  0
  -26.1268  -16.7439   20.0159 N   0  0  0  0  0  0  0  0  0  0  0  0
  -26.5421  -17.8215   20.7033 N   0  0  0  0  0  0  0  0  0  0  0  0
  -24.3384  -32.0553   21.9540 N   0  0  0  0  0  0  0  0  0  0  0  0
  -27.7867  -20.8300   18.7012 N   0  0  0  0  0  0  0  0  0  0  0  0
  -27.3963  -18.5084   22.8031 N   0  0  0  0  0  0  0  0  0  0  0  0
  -26.8625  -14.0518   23.3029 N   0  0  0  0  0  0  0  0  0  0  0  0
  -22.2113  -29.1805   21.2421 N   0  0  0  0  0  0  0  0  0  0  0  0
  -25.4350  -35.1861   21.2801 N   0  0  0  0  0  0  0  0  0  0  0  0
  -29.5937  -21.7303   19.9332 N   0  0  0  0  0  0  0  0  0  0  0  0
  -28.2761  -22.6265   25.5214 N   0  3  0  0  0  0  0  0  0  0  0  0
  -26.0966  -37.2645   24.1629 N   0  3  0  0  0  0  0  0  0  0  0  0
  -27.5253  -15.9775   24.3570 O   0  0  0  0  0  0  0  0  0  0  0  0
  -24.2971  -29.9323   20.5304 O   0  0  0  0  0  0  0  0  0  0  0  0
  -23.2059  -33.5383   20.5559 O   0  0  0  0  0  0  0  0  0  0  0  0
  -27.0849  -34.9563   22.8933 O   0  0  0  0  0  0  0  0  0  0  0  0
  -28.5070  -23.0095   18.3712 O   0  0  0  0  0  0  0  0  0  0  0  0
  -24.9371  -10.5135   19.4548 O   0  0  0  0  0  0  0  0  0  0  0  0
  -28.5696  -26.9304   21.9518 O   0  0  0  0  0  0  0  0  0  0  0  0
  -27.7415  -28.9722   26.0730 O   0  0  0  0  0  0  0  0  0  1  0  0
  -28.5613  -25.9609   24.5458 O   0  0  0  0  0  0  0  0  0  0  0  0
  -22.0468   -7.5206   23.0732 F   0  0  0  0  0  0  0  0  0  0  0  0
  -22.4494   -9.5046   18.7945 F   0  0  0  0  0  0  0  0  0  0  0  0
  1  2  1  0  0  0  0
  1  5  2  0  0  0  0
  2  6  2  0  0  0  0
  3  8  2  0  0  0  0
  3 17  1  0  0  0  0
  4  9  1  0  0  0  0
  4 17  2  0  0  0  0
  5 19  1  0  0  0  0
  6 21  1  0  0  0  0
  7 10  2  0  0  0  0
  7 20  1  0  0  0  0
  8 25  1  0  0  0  0
  9 25  2  0  0  0  0
 10 26  1  0  0  0  0
 11 12  2  0  0  0  0
 11 27  1  0  0  0  0
 12 30  1  0  0  0  0
 13 22  1  0  0  0  0
 13 26  2  0  0  0  0
 14 23  1  0  0  0  0
 14 24  2  0  0  0  0
 15 23  2  0  0  0  0
 15 28  1  0  0  0  0
 16 30  2  0  0  0  0
 16 31  1  0  0  0  0
 17 32  1  0  0  0  0
 18 32  1  0  0  0  0
 18 33  2  0  0  0  0
 18 34  1  0  0  0  0
 19 21  2  0  0  0  0
 19 39  1  0  0  0  0
 20 22  2  0  0  0  0
 20 40  1  0  0  0  0
 21 48  1  0  0  0  0
 22 41  1  0  0  0  0
 23 57  1  0  0  0  0
 24 29  1  0  0  0  0
 24 58  1  0  0  0  0
 25 81  1  0  0  0  0
 26 83  1  0  0  0  0
 27 31  2  0  0  0  0
 27 81  1  0  0  0  0
 28 29  2  0  0  0  0
 28 82  1  0  0  0  0
 29 84  1  0  0  0  0
 30 85  1  0  0  0  0
 31 86  1  0  0  0  0
 32 65  2  0  0  0  0
 33 66  1  0  0  0  0
 33 69  1  0  0  0  0
 34 70  1  0  0  0  0
 34 76  2  0  0  0  0
 35 49  1  0  0  0  0
 35 71  1  0  0  0  0
 35 77  2  0  0  0  0
 36 62  1  0  0  0  0
 36 67  1  0  0  0  0
 36 78  2  0  0  0  0
 37 63  1  0  0  0  0
 37 72  1  0  0  0  0
 37 79  2  0  0  0  0
 38 68  1  0  0  0  0
 38 73  1  0  0  0  0
 38 80  2  0  0  0  0
 39 42  1  0  0  0  0
 40 49  1  0  0  0  0
 41 67  1  0  0  0  0
 42 44  1  0  0  0  0
 43 45  1  0  0  0  0
 43 46  1  0  0  0  0
 44 48  1  0  0  0  0
 45 50  1  0  0  0  0
 46 68  1  0  0  0  0
 47 50  1  0  0  0  0
 47 68  1  0  0  0  0
 48 71  1  0  0  0  0
 49 67  1  0  0  0  0
 50 66  1  0  0  0  0
 51 63  1  0  0  0  0
 52 64  1  0  0  0  0
 53 64  1  0  0  0  0
 54 64  1  0  0  0  0
 55 75  1  0  0  0  0
 56 82  1  0  0  0  0
 57 73  1  0  0  0  0
 58 74  1  0  0  0  0
 59 60  1  0  0  0  0
 59 61  1  0  0  0  0
 60 83  1  0  0  0  0
 61 84  1  0  0  0  0
 62 64  1  0  0  0  0
 62 72  1  0  0  0  0
 63 75  1  0  0  0  0
 65 66  1  0  0  0  0
M  CHG  2  74   1  75   1
M  ISO  4  38 100  60 101  73 100  83 101
M  END
> <Batch ID>
0108

> <Smiles>
CNC(C)C(=O)NC(C(=O)N1Cc2cc([101O:1][101CH2:1]CCOc3c(CN)cc(C[100NH:0][100C:0](=O)N4CCCC(n5nc(-c6ccc(Oc7ccc(F)cc7F)cc6)c(C(N)=O)c5N)C4)cc3OC)ccc2CC1C(=O)NC1CCCc2ccccc21)C(C)(C)C

> <Shape>
0.248

> <Color>
0.086

> <Negative vol penalty>
0.000

$$$$

  -OEChem-04052301203D

 88 96  0     1  0  0  0  0  0999 V2000
  -30.3856  -32.9318   26.6690 C   0  0  0  0  0  0  0  0  0  0  0  0
  -30.4120  -31.9985   25.6377 C   0  0  0  0  0  0  0  0  0  0  0  0
  -23.0725   -9.8365   19.9552 C   0  0  0  0  0  0  0  0  0  0  0  0
  -23.8832   -9.8375   22.2312 C   0  0  0  0  0  0  0  0  0  0  0  0
  -29.2211  -33.1131   27.4140 C   0  0  0  0  0  0  0  0  0  0  0  0
  -29.2740  -31.2451   25.3515 C   0  0  0  0  0  0  0  0  0  0  0  0
  -27.4132  -29.3366   19.8378 C   0  0  0  0  0  0  0  0  0  0  0  0
  -22.3647   -8.6615   20.2078 C   0  0  0  0  0  0  0  0  0  0  0  0
  -23.1753   -8.6624   22.4838 C   0  0  0  0  0  0  0  0  0  0  0  0
  -27.5453  -28.1182   19.1731 C   0  0  0  0  0  0  0  0  0  0  0  0
  -23.5400   -5.3558   21.8806 C   0  0  0  0  0  0  0  0  0  0  0  0
  -24.1980   -4.3389   22.5725 C   0  0  0  0  0  0  0  0  0  0  0  0
  -25.3506  -27.4706   19.9368 C   0  0  0  0  0  0  0  0  0  0  0  0
  -30.2252  -19.4804   21.7887 C   0  0  0  0  0  0  0  0  0  0  0  0
  -28.8427  -18.8338   19.9158 C   0  0  0  0  0  0  0  0  0  0  0  0
  -22.5313   -4.4484   24.3182 C   0  0  0  0  0  0  0  0  0  0  0  0
  -23.8318  -10.4245   20.9669 C   0  0  0  0  0  0  0  0  0  0  0  0
  -29.8268  -17.1417   21.3319 C   0  0  0  0  0  0  0  0  0  0  0  0
  -24.1050  -12.9590   20.8695 C   0  0  0  0  0  0  0  0  0  0  0  0
  -28.0654  -32.3683   27.1305 C   0  0  0  0  0  0  0  0  0  0  0  0
  -26.2513  -29.6272   20.5672 C   0  0  0  0  0  0  0  0  0  0  0  0
  -28.0934  -31.4156   26.0943 C   0  0  0  0  0  0  0  0  0  0  0  0
  -25.2052  -28.6944   20.6077 C   0  0  0  0  0  0  0  0  0  0  0  0
  -30.4203  -18.1368   22.1085 C   0  0  0  0  0  0  0  0  0  0  0  0
  -29.4363  -19.8289   20.6924 C   0  0  0  0  0  0  0  0  0  0  0  0
  -22.4161   -8.0744   21.4721 C   0  0  0  0  0  0  0  0  0  0  0  0
  -26.5151  -27.1838   19.2249 C   0  0  0  0  0  0  0  0  0  0  0  0
  -22.3778   -5.9190   22.4075 C   0  0  0  0  0  0  0  0  0  0  0  0
  -29.0379  -17.4902   20.2356 C   0  0  0  0  0  0  0  0  0  0  0  0
  -23.6936   -3.8852   23.7912 C   0  0  0  0  0  0  0  0  0  0  0  0
  -21.8734   -5.4653   23.6263 C   0  0  0  0  0  0  0  0  0  0  0  0
  -24.5637  -11.6381   20.7064 C   0  0  0  0  0  0  0  0  0  0  0  0
  -25.1689  -13.7410   20.4911 C   0  0  0  0  0  0  0  0  0  0  0  0
  -28.5294  -23.2073   19.3203 C   0  0  0  0  0  0  0  0  0  0  0  0
  -30.0284  -15.7345   21.6599 C   0  0  0  0  0  0  0  0  0  0  0  0
  -22.8313  -13.4364   21.3225 C   0  0  0  0  0  0  0  0  0  0  0  0
  -27.8916  -23.9679   18.4158 C   0  0  0  0  0  0  0  0  0  0  0  0
  -30.6571  -14.8037   20.6947 C   0  0  0  0  0  0  0  0  0  0  0  0
  -28.4875  -21.7108   19.3189 C   0  0  0  0  0  0  0  0  0  0  0  0
  -25.6139  -30.2380   23.6208 C   0  0  0  0  0  0  0  0  0  0  0  0
  -22.6345  -30.8208   22.4781 C   0  0  0  0  0  0  0  0  0  0  0  0
  -20.3133  -30.2876   20.0337 C   0  0  0  0  0  0  0  0  0  0  0  0
  -26.8447  -32.5656   27.9940 C   0  0  0  0  0  0  0  0  0  0  0  0
  -26.1133  -30.9569   21.2566 C   0  0  0  0  0  0  0  0  0  0  0  0
  -23.9291  -28.9662   21.3602 C   0  0  0  0  0  0  0  0  0  0  0  0
  -25.5678  -31.9938   27.3833 C   0  0  0  0  0  0  0  0  0  0  0  0
  -29.4900  -12.5417   18.1692 C   0  0  0  0  0  0  0  0  0  0  0  0
  -25.8154  -30.5868   26.8488 C   0  0  0  0  0  0  0  0  0  0  0  0
  -28.0806  -12.1839   18.6398 C   0  0  0  0  0  0  0  0  0  0  0  0
  -30.4351  -12.7532   19.3475 C   0  0  0  0  0  0  0  0  0  0  0  0
  -28.5425  -13.4189   20.8047 C   0  0  0  0  0  0  0  0  0  0  0  0
  -26.8718  -30.5968   25.7373 C   0  0  1  0  0  0  0  0  0  0  0  0
  -25.0980  -30.9373   22.3950 C   0  0  1  0  0  0  0  0  0  0  0  0
  -27.5525  -13.2248   19.6429 C   0  0  2  0  0  0  0  0  0  0  0  0
  -31.2695  -17.7937   23.2889 C   0  0  0  0  0  0  0  0  0  0  0  0
  -17.9568  -30.8672   19.3947 C   0  0  0  0  0  0  0  0  0  0  0  0
  -21.5881  -28.8402   24.5499 C   0  0  0  0  0  0  0  0  0  0  0  0
  -19.4401  -28.7406   23.2676 C   0  0  0  0  0  0  0  0  0  0  0  0
  -20.1913  -30.8962   24.2735 C   0  0  0  0  0  0  0  0  0  0  0  0
  -21.1932  -31.6150   17.5392 C   0  0  0  0  0  0  0  0  0  0  0  0
  -27.6608  -16.9843   18.3638 C   0  0  0  0  0  0  0  0  0  0  0  0
  -27.9605  -25.4663   18.4395 C   0  0  0  0  0  0  0  0  0  1  0  0
  -21.3969  -29.9882   22.2452 C   0  0  1  0  0  0  0  0  0  0  0  0
  -19.4237  -31.2463   19.2630 C   0  0  2  0  0  0  0  0  0  0  0  0
  -20.6788  -29.6101   23.5714 C   0  0  0  0  0  0  0  0  0  0  0  0
  -25.8209  -11.5802   20.2592 N   0  0  0  0  0  0  0  0  0  0  0  0
  -29.6783  -15.2122   22.8014 N   0  0  0  0  0  0  0  0  0  0  0  0
  -26.1613  -12.8747   20.1378 N   0  0  0  0  0  0  0  0  0  0  0  0
  -29.8874  -13.7193   20.2977 N   0  0  0  0  0  0  0  0  0  0  0  0
  -23.8445  -30.2780   22.0231 N   0  0  0  0  0  0  0  0  0  0  0  0
  -25.3429  -15.0783   20.4293 N   0  0  0  0  0  0  0  0  0  0  0  0
  -21.8512  -12.4972   21.6712 N   0  0  0  0  0  0  0  0  0  0  0  0
  -29.2376  -21.1938   20.3684 N   0  0  0  0  0  0  0  0  0  0  0  0
  -26.2942  -31.0638   24.4952 N   0  0  0  0  0  0  0  0  0  0  0  0
  -20.5680  -30.7416   21.3106 N   0  0  0  0  0  0  0  0  0  0  0  0
  -19.7834  -31.2377   17.8168 N   0  3  0  0  0  0  0  0  0  0  0  0
  -22.5644  -14.6597   21.3997 O   0  0  0  0  0  0  0  0  0  0  0  0
  -31.7953  -15.0921   20.3488 O   0  0  0  0  0  0  0  0  0  0  0  0
  -27.8560  -21.0859   18.4758 O   0  0  0  0  0  0  0  0  0  0  0  0
  -25.4085  -29.0383   23.7634 O   0  0  0  0  0  0  0  0  0  0  0  0
  -22.5303  -31.9157   23.0365 O   0  0  0  0  0  0  0  0  0  0  0  0
  -20.7368  -29.2389   19.5525 O   0  0  0  0  0  0  0  0  0  0  0  0
  -27.1440  -23.4241   17.3901 O   0  0  0  0  0  0  0  0  0  0  0  0
  -21.7253   -6.9279   21.7190 O   0  0  0  0  0  0  0  0  0  0  0  0
  -28.4491  -16.5338   19.4633 O   0  0  0  0  0  0  0  0  0  0  0  0
  -26.6417  -25.9935   18.5776 O   0  0  0  0  0  0  0  0  0  1  0  0
  -24.3247   -2.9076   24.4548 F   0  0  0  0  0  0  0  0  0  0  0  0
  -20.7566   -6.0017   24.1369 F   0  0  0  0  0  0  0  0  0  0  0  0
  1  2  1  0  0  0  0
  1  5  2  0  0  0  0
  2  6  2  0  0  0  0
  3  8  2  0  0  0  0
  3 17  1  0  0  0  0
  4  9  1  0  0  0  0
  4 17  2  0  0  0  0
  5 20  1  0  0  0  0
  6 22  1  0  0  0  0
  7 10  2  0  0  0  0
  7 21  1  0  0  0  0
  8 26  1  0  0  0  0
  9 26  2  0  0  0  0
 10 27  1  0  0  0  0
 11 12  2  0  0  0  0
 11 28  1  0  0  0  0
 12 30  1  0  0  0  0
 13 23  1  0  0  0  0
 13 27  2  0  0  0  0
 14 24  2  0  0  0  0
 14 25  1  0  0  0  0
 15 25  2  0  0  0  0
 15 29  1  0  0  0  0
 16 30  2  0  0  0  0
 16 31  1  0  0  0  0
 17 32  1  0  0  0  0
 18 24  1  0  0  0  0
 18 29  2  0  0  0  0
 18 35  1  0  0  0  0
 19 32  1  0  0  0  0
 19 33  2  0  0  0  0
 19 36  1  0  0  0  0
 20 22  2  0  0  0  0
 20 43  1  0  0  0  0
 21 23  2  0  0  0  0
 21 44  1  0  0  0  0
 22 52  1  0  0  0  0
 23 45  1  0  0  0  0
 24 55  1  0  0  0  0
 25 73  1  0  0  0  0
 26 84  1  0  0  0  0
 27 86  1  0  0  0  0
 28 31  2  0  0  0  0
 28 84  1  0  0  0  0
 29 85  1  0  0  0  0
 30 87  1  0  0  0  0
 31 88  1  0  0  0  0
 32 66  2  0  0  0  0
 33 68  1  0  0  0  0
 33 71  1  0  0  0  0
 34 37  2  0  0  0  0
 34 39  1  0  0  0  0
 35 38  1  0  0  0  0
 35 67  2  0  0  0  0
 36 72  1  0  0  0  0
 36 77  2  0  0  0  0
 37 62  1  0  0  0  0
 37 83  1  0  0  0  0
 38 69  1  0  0  0  0
 38 78  2  0  0  0  0
 39 73  1  0  0  0  0
 39 79  2  0  0  0  0
 40 53  1  0  0  0  0
 40 74  1  0  0  0  0
 40 80  2  0  0  0  0
 41 63  1  0  0  0  0
 41 70  1  0  0  0  0
 41 81  2  0  0  0  0
 42 64  1  0  0  0  0
 42 75  1  0  0  0  0
 42 82  2  0  0  0  0
 43 46  1  0  0  0  0
 44 53  1  0  0  0  0
 45 70  1  0  0  0  0
 46 48  1  0  0  0  0
 47 49  1  0  0  0  0
 47 50  1  0  0  0  0
 48 52  1  0  0  0  0
 49 54  1  0  0  0  0
 50 69  1  0  0  0  0
 51 54  1  0  0  0  0
 51 69  1  0  0  0  0
 52 74  1  0  0  0  0
 53 70  1  0  0  0  0
 54 68  1  0  0  0  0
 56 64  1  0  0  0  0
 57 65  1  0  0  0  0
 58 65  1  0  0  0  0
 59 65  1  0  0  0  0
 60 76  1  0  0  0  0
 61 85  1  0  0  0  0
 62 86  1  0  0  0  0
 63 65  1  0  0  0  0
 63 75  1  0  0  0  0
 64 76  1  0  0  0  0
 66 68  1  0  0  0  0
M  CHG  1  76   1
M  ISO  4  35 100  38 100  62 101  86 101
M  END
> <Batch ID>
0108

> <Smiles>
CNC(C)C(=O)NC(C(=O)N1Cc2cc([101O:1][101CH2:1]C(=O)CC(=O)Nc3cc(C)c([100C:0](=N)[100C:0](=O)N4CCCC(n5nc(-c6ccc(Oc7ccc(F)cc7F)cc6)c(C(N)=O)c5N)C4)c(OC)c3)ccc2CC1C(=O)NC1CCCc2ccccc21)C(C)(C)C

> <Shape>
0.405

> <Color>
0.222

> <Negative vol penalty>
0.000

$$$$

  -OEChem-04052301203D

 87 95  0     1  0  0  0  0  0999 V2000
  -27.1507  -33.9989   14.2986 C   0  0  0  0  0  0  0  0  0  0  0  0
  -26.8482  -32.7387   14.8044 C   0  0  0  0  0  0  0  0  0  0  0  0
  -23.5892   -9.8192   18.9179 C   0  0  0  0  0  0  0  0  0  0  0  0
  -23.3032   -9.5455   21.3012 C   0  0  0  0  0  0  0  0  0  0  0  0
  -27.6585  -34.9845   15.1440 C   0  0  0  0  0  0  0  0  0  0  0  0
  -27.0544  -32.4631   16.1556 C   0  0  0  0  0  0  0  0  0  0  0  0
  -23.1642  -29.9872   18.2488 C   0  0  0  0  0  0  0  0  0  0  0  0
  -22.8739   -8.6423   18.6968 C   0  0  0  0  0  0  0  0  0  0  0  0
  -22.5878   -8.3686   21.0802 C   0  0  0  0  0  0  0  0  0  0  0  0
  -23.0672  -28.6202   17.9922 C   0  0  0  0  0  0  0  0  0  0  0  0
  -20.9956   -5.1023   21.1603 C   0  0  0  0  0  0  0  0  0  0  0  0
  -21.3008   -3.9987   21.9569 C   0  0  0  0  0  0  0  0  0  0  0  0
  -28.3299  -17.7762   16.9788 C   0  0  0  0  0  0  0  0  0  0  0  0
  -24.0449  -28.1524   20.1473 C   0  0  0  0  0  0  0  0  0  0  0  0
  -26.8953  -19.7200   16.9520 C   0  0  0  0  0  0  0  0  0  0  0  0
  -23.5734   -4.0359   21.1375 C   0  0  0  0  0  0  0  0  0  0  0  0
  -23.8039  -10.2707   20.2201 C   0  0  0  0  0  0  0  0  0  0  0  0
  -28.8549  -18.1806   18.2062 C   0  0  0  0  0  0  0  0  0  0  0  0
  -24.0257  -12.7922   20.5372 C   0  0  0  0  0  0  0  0  0  0  0  0
  -27.8619  -34.7238   16.5083 C   0  0  0  0  0  0  0  0  0  0  0  0
  -23.7132  -30.4479   19.4541 C   0  0  0  0  0  0  0  0  0  0  0  0
  -27.5666  -33.4457   17.0198 C   0  0  0  0  0  0  0  0  0  0  0  0
  -24.1454  -29.5257   20.4179 C   0  0  0  0  0  0  0  0  0  0  0  0
  -28.4001  -19.3546   18.8065 C   0  0  0  0  0  0  0  0  0  0  0  0
  -27.4203  -20.1244   18.1795 C   0  0  0  0  0  0  0  0  0  0  0  0
  -22.3731   -7.9171   19.7780 C   0  0  0  0  0  0  0  0  0  0  0  0
  -23.5103  -27.7027   18.9403 C   0  0  0  0  0  0  0  0  0  0  0  0
  -21.9792   -5.6727   20.3523 C   0  0  0  0  0  0  0  0  0  0  0  0
  -22.5897   -3.4655   21.9455 C   0  0  0  0  0  0  0  0  0  0  0  0
  -27.3502  -18.5460   16.3517 C   0  0  0  0  0  0  0  0  0  0  0  0
  -23.2681   -5.1395   20.3409 C   0  0  0  0  0  0  0  0  0  0  0  0
  -24.5433  -11.4860   20.4491 C   0  0  0  0  0  0  0  0  0  0  0  0
  -25.1260  -13.5832   20.7610 C   0  0  0  0  0  0  0  0  0  0  0  0
  -29.8975  -17.3395   18.8485 C   0  0  0  0  0  0  0  0  0  0  0  0
  -22.6714  -13.2496   20.4267 C   0  0  0  0  0  0  0  0  0  0  0  0
  -26.2379  -32.2122   20.2394 C   0  0  0  0  0  0  0  0  0  0  0  0
  -24.9747  -31.9941   23.2192 C   0  0  0  0  0  0  0  0  0  0  0  0
  -22.9897  -30.2847   25.4065 C   0  0  0  0  0  0  0  0  0  0  0  0
  -30.3597  -15.0651   19.7069 C   0  0  0  0  0  0  0  0  0  0  0  0
  -28.4573  -35.8063   17.3733 C   0  0  0  0  0  0  0  0  0  0  0  0
  -23.7862  -31.9253   19.7269 C   0  0  0  0  0  0  0  0  0  0  0  0
  -24.7239  -29.9686   21.7361 C   0  0  0  0  0  0  0  0  0  0  0  0
  -28.2943  -35.5492   18.8692 C   0  0  0  0  0  0  0  0  0  0  0  0
  -29.8994  -12.3422   21.9139 C   0  0  0  0  0  0  0  0  0  0  0  0
  -28.6701  -34.1101   19.2076 C   0  0  0  0  0  0  0  0  0  0  0  0
  -28.4197  -11.9865   21.7449 C   0  0  0  0  0  0  0  0  0  0  0  0
  -30.5386  -12.7551   20.5889 C   0  0  0  0  0  0  0  0  0  0  0  0
  -28.3570  -13.4568   19.6911 C   0  0  0  0  0  0  0  0  0  0  0  0
  -27.7531  -33.1160   18.4849 C   0  0  1  0  0  0  0  0  0  0  0  0
  -24.8354  -32.2886   20.7731 C   0  0  1  0  0  0  0  0  0  0  0  0
  -27.6503  -13.1020   21.0094 C   0  0  1  0  0  0  0  0  0  0  0  0
  -22.1818  -30.3296   27.7819 C   0  0  0  0  0  0  0  0  0  0  0  0
  -27.6901  -30.9682   24.1595 C   0  0  0  0  0  0  0  0  0  0  0  0
  -26.5794  -30.1499   26.2488 C   0  0  0  0  0  0  0  0  0  0  0  0
  -26.5903  -32.5869   25.7165 C   0  0  0  0  0  0  0  0  0  0  0  0
  -20.1635  -30.5287   24.5628 C   0  0  0  0  0  0  0  0  0  0  0  0
  -28.9637  -19.7876   20.1241 C   0  0  0  0  0  0  0  0  0  0  0  0
  -25.6941  -23.3756   19.0209 C   0  0  0  0  0  0  0  0  0  0  0  0
  -24.6600  -24.3174   18.4024 C   0  0  0  0  0  0  0  0  0  0  0  0
  -25.9440  -22.1359   18.1660 C   0  0  0  0  0  0  0  0  0  0  0  0
  -24.3998  -25.5255   19.2934 C   0  0  0  0  0  0  0  0  0  1  0  0
  -25.1179  -31.0315   24.3732 C   0  0  1  0  0  0  0  0  0  0  0  0
  -21.8950  -30.7511   26.3491 C   0  0  2  0  0  0  0  0  0  0  0  0
  -26.4853  -31.1755   25.0990 C   0  0  0  0  0  0  0  0  0  0  0  0
  -25.8693  -11.4453   20.6041 N   0  0  0  0  0  0  0  0  0  0  0  0
  -26.1943  -12.7358   20.7918 N   0  0  0  0  0  0  0  0  0  0  0  0
  -24.7800  -31.4236   21.9533 N   0  0  0  0  0  0  0  0  0  0  0  0
  -29.7560  -13.8211   19.9608 N   0  0  0  0  0  0  0  0  0  0  0  0
  -25.2744  -14.9140   20.9324 N   0  0  0  0  0  0  0  0  0  0  0  0
  -21.6633  -12.3035   20.1963 N   0  0  0  0  0  0  0  0  0  0  0  0
  -26.9550  -21.2937   18.7598 N   0  0  0  0  0  0  0  0  0  0  0  0
  -29.5171  -16.0302   19.1442 N   0  0  0  0  0  0  0  0  0  0  0  0
  -26.4718  -33.0329   19.1525 N   0  0  0  0  0  0  0  0  0  0  0  0
  -23.9594  -31.2495   25.2327 N   0  0  0  0  0  0  0  0  0  0  0  0
  -20.5819  -30.1747   25.9436 N   0  3  0  0  0  0  0  0  0  0  0  0
  -31.0135  -17.8140   19.0416 O   0  0  0  0  0  0  0  0  0  0  0  0
  -22.3662  -14.4633   20.5129 O   0  0  0  0  0  0  0  0  0  0  0  0
  -27.0483  -31.4652   20.7750 O   0  0  0  0  0  0  0  0  0  0  0  0
  -25.0264  -33.2077   23.4340 O   0  0  0  0  0  0  0  0  0  0  0  0
  -22.9869  -29.1741   24.8801 O   0  0  0  0  0  0  0  0  0  0  0  0
  -31.5366  -15.3081   19.9917 O   0  0  0  0  0  0  0  0  0  0  0  0
  -29.8572  -20.8721   19.9159 O   0  0  0  0  0  0  0  0  0  0  0  0
  -21.6748   -6.7688   19.5626 O   0  0  0  0  0  0  0  0  0  0  0  0
  -23.4174  -26.3679   18.6921 O   0  0  0  0  0  0  0  0  0  1  0  0
  -22.8831   -2.4067   22.7116 F   0  0  0  0  0  0  0  0  0  0  0  0
  -26.8454  -18.1572   15.1734 F   0  0  0  0  0  0  0  0  0  0  0  0
  -24.2175   -5.6838   19.5675 F   0  0  0  0  0  0  0  0  0  0  0  0
  1  2  1  0  0  0  0
  1  5  2  0  0  0  0
  2  6  2  0  0  0  0
  3  8  2  0  0  0  0
  3 17  1  0  0  0  0
  4  9  1  0  0  0  0
  4 17  2  0  0  0  0
  5 20  1  0  0  0  0
  6 22  1  0  0  0  0
  7 10  2  0  0  0  0
  7 21  1  0  0  0  0
  8 26  1  0  0  0  0
  9 26  2  0  0  0  0
 10 27  1  0  0  0  0
 11 12  2  0  0  0  0
 11 28  1  0  0  0  0
 12 29  1  0  0  0  0
 13 18  2  0  0  0  0
 13 30  1  0  0  0  0
 14 23  1  0  0  0  0
 14 27  2  0  0  0  0
 15 25  1  0  0  0  0
 15 30  2  0  0  0  0
 16 29  2  0  0  0  0
 16 31  1  0  0  0  0
 17 32  1  0  0  0  0
 18 24  1  0  0  0  0
 18 34  1  0  0  0  0
 19 32  1  0  0  0  0
 19 33  2  0  0  0  0
 19 35  1  0  0  0  0
 20 22  2  0  0  0  0
 20 40  1  0  0  0  0
 21 23  2  0  0  0  0
 21 41  1  0  0  0  0
 22 49  1  0  0  0  0
 23 42  1  0  0  0  0
 24 25  2  0  0  0  0
 24 57  1  0  0  0  0
 25 71  1  0  0  0  0
 26 83  1  0  0  0  0
 27 84  1  0  0  0  0
 28 31  2  0  0  0  0
 28 83  1  0  0  0  0
 29 85  1  0  0  0  0
 30 86  1  0  0  0  0
 31 87  1  0  0  0  0
 32 65  2  0  0  0  0
 33 66  1  0  0  0  0
 33 69  1  0  0  0  0
 34 72  1  0  0  0  0
 34 76  2  0  0  0  0
 35 70  1  0  0  0  0
 35 77  2  0  0  0  0
 36 50  1  0  0  0  0
 36 73  1  0  0  0  0
 36 78  2  0  0  0  0
 37 62  1  0  0  0  0
 37 67  1  0  0  0  0
 37 79  2  0  0  0  0
 38 63  1  0  0  0  0
 38 74  1  0  0  0  0
 38 80  2  0  0  0  0
 39 68  1  0  0  0  0
 39 72  1  0  0  0  0
 39 81  2  0  0  0  0
 40 43  1  0  0  0  0
 41 50  1  0  0  0  0
 42 67  1  0  0  0  0
 43 45  1  0  0  0  0
 44 46  1  0  0  0  0
 44 47  1  0  0  0  0
 45 49  1  0  0  0  0
 46 51  1  0  0  0  0
 47 68  1  0  0  0  0
 48 51  1  0  0  0  0
 48 68  1  0  0  0  0
 49 73  1  0  0  0  0
 50 67  1  0  0  0  0
 51 66  1  0  0  0  0
 52 63  1  0  0  0  0
 53 64  1  0  0  0  0
 54 64  1  0  0  0  0
 55 64  1  0  0  0  0
 56 75  1  0  0  0  0
 57 82  1  0  0  0  0
 58 59  1  0  0  0  0
 58 60  1  0  0  0  0
 59 61  1  0  0  0  0
 60 71  1  0  0  0  0
 61 84  1  0  0  0  0
 62 64  1  0  0  0  0
 62 74  1  0  0  0  0
 63 75  1  0  0  0  0
 65 66  1  0  0  0  0
M  CHG  1  75   1
M  ISO  4  39 100  61 101  72 100  84 101
M  END
> <Batch ID>
0108

> <Smiles>
CNC(C)C(=O)NC(C(=O)N1Cc2cc([101O:1][101CH2:1]CCCNc3cc(F)cc(C(=O)[100NH:0][100C:0](=O)N4CCCC(n5nc(-c6ccc(Oc7ccc(F)cc7F)cc6)c(C(N)=O)c5N)C4)c3CO)ccc2CC1C(=O)NC1CCCc2ccccc21)C(C)(C)C

> <Shape>
0.262

> <Color>
0.153

> <Negative vol penalty>
0.000

$$$$

  -OEChem-04052301203D

 84 92  0     1  0  0  0  0  0999 V2000
  -22.1991  -32.2956   14.7368 C   0  0  0  0  0  0  0  0  0  0  0  0
  -23.0439  -31.2996   15.2161 C   0  0  0  0  0  0  0  0  0  0  0  0
  -23.0894   -9.9004   21.4715 C   0  0  0  0  0  0  0  0  0  0  0  0
  -23.7604  -10.8731   23.5787 C   0  0  0  0  0  0  0  0  0  0  0  0
  -22.0242  -33.4706   15.4667 C   0  0  0  0  0  0  0  0  0  0  0  0
  -23.7151  -31.4784   16.4252 C   0  0  0  0  0  0  0  0  0  0  0  0
  -23.5325  -27.3663   19.3751 C   0  0  0  0  0  0  0  0  0  0  0  0
  -32.4495  -18.5280   21.8101 C   0  0  0  0  0  0  0  0  0  0  0  0
  -31.9056  -17.3351   21.3339 C   0  0  0  0  0  0  0  0  0  0  0  0
  -22.3474   -8.9358   22.1530 C   0  0  0  0  0  0  0  0  0  0  0  0
  -23.0184   -9.9085   24.2603 C   0  0  0  0  0  0  0  0  0  0  0  0
  -24.3953  -26.3175   19.0596 C   0  0  0  0  0  0  0  0  0  0  0  0
  -22.9394   -6.0493   23.8090 C   0  0  0  0  0  0  0  0  0  0  0  0
  -23.0520   -4.7258   23.3833 C   0  0  0  0  0  0  0  0  0  0  0  0
  -25.9032  -27.0433   20.7970 C   0  0  0  0  0  0  0  0  0  0  0  0
  -29.6925  -18.2972   21.4516 C   0  0  0  0  0  0  0  0  0  0  0  0
  -20.6813   -4.6730   22.9205 C   0  0  0  0  0  0  0  0  0  0  0  0
  -23.7960  -10.8690   22.1843 C   0  0  0  0  0  0  0  0  0  0  0  0
  -24.1183  -13.1264   21.0406 C   0  0  0  0  0  0  0  0  0  0  0  0
  -22.6861  -33.6598   16.6901 C   0  0  0  0  0  0  0  0  0  0  0  0
  -23.8544  -28.2694   20.3984 C   0  0  0  0  0  0  0  0  0  0  0  0
  -23.5498  -32.6575   17.1715 C   0  0  0  0  0  0  0  0  0  0  0  0
  -25.0416  -28.1011   21.1253 C   0  0  0  0  0  0  0  0  0  0  0  0
  -31.6149  -19.6055   22.1071 C   0  0  0  0  0  0  0  0  0  0  0  0
  -30.5271  -17.2197   21.1546 C   0  0  0  0  0  0  0  0  0  0  0  0
  -22.3118   -8.9399   23.5474 C   0  0  0  0  0  0  0  0  0  0  0  0
  -25.5822  -26.1576   19.7686 C   0  0  0  0  0  0  0  0  0  0  0  0
  -21.6977   -6.6847   23.7906 C   0  0  0  0  0  0  0  0  0  0  0  0
  -30.2364  -19.4901   21.9278 C   0  0  0  0  0  0  0  0  0  0  0  0
  -21.9229   -4.0376   22.9390 C   0  0  0  0  0  0  0  0  0  0  0  0
  -20.5687   -5.9965   23.3463 C   0  0  0  0  0  0  0  0  0  0  0  0
  -24.5631  -11.8654   21.4808 C   0  0  0  0  0  0  0  0  0  0  0  0
  -25.2165  -13.6853   20.4338 C   0  0  0  0  0  0  0  0  0  0  0  0
  -22.8279  -13.7379   21.1687 C   0  0  0  0  0  0  0  0  0  0  0  0
  -24.3969  -31.3982   20.5404 C   0  0  0  0  0  0  0  0  0  0  0  0
  -24.4909  -30.8424   23.7349 C   0  0  0  0  0  0  0  0  0  0  0  0
  -25.0015  -28.6218   26.2755 C   0  0  0  0  0  0  0  0  0  0  0  0
  -30.6618  -14.8431   20.3300 C   0  0  0  0  0  0  0  0  0  0  0  0
  -22.5022  -34.9666   17.4204 C   0  0  0  0  0  0  0  0  0  0  0  0
  -22.9003  -29.3796   20.7443 C   0  0  0  0  0  0  0  0  0  0  0  0
  -25.4236  -29.0314   22.2465 C   0  0  0  0  0  0  0  0  0  0  0  0
  -22.9590  -34.9202   18.8763 C   0  0  0  0  0  0  0  0  0  0  0  0
  -29.6621  -11.6398   19.1398 C   0  0  0  0  0  0  0  0  0  0  0  0
  -24.3272  -34.2547   18.9856 C   0  0  0  0  0  0  0  0  0  0  0  0
  -28.2098  -11.5167   19.6065 C   0  0  0  0  0  0  0  0  0  0  0  0
  -30.5282  -12.3671   20.1668 C   0  0  0  0  0  0  0  0  0  0  0  0
  -28.5628  -13.5507   21.0643 C   0  0  0  0  0  0  0  0  0  0  0  0
  -24.2761  -32.8040   18.4911 C   0  0  1  0  0  0  0  0  0  0  0  0
  -23.5742  -30.5442   21.4632 C   0  0  1  0  0  0  0  0  0  0  0  0
  -27.6376  -12.8824   20.0342 C   0  0  2  0  0  0  0  0  0  0  0  0
  -25.0461  -28.4701   28.7800 C   0  0  0  0  0  0  0  0  0  0  0  0
  -27.2146  -32.2173   23.7674 C   0  0  0  0  0  0  0  0  0  0  0  0
  -27.6175  -31.2117   26.0245 C   0  0  0  0  0  0  0  0  0  0  0  0
  -25.7268  -32.8041   25.6900 C   0  0  0  0  0  0  0  0  0  0  0  0
  -22.7968  -26.6478   26.3109 C   0  0  0  0  0  0  0  0  0  0  0  0
  -32.2146  -20.8745   22.6161 C   0  0  0  0  0  0  0  0  0  0  0  0
  -27.5206  -23.1370   20.2626 C   0  0  0  0  0  0  0  0  0  0  0  0
  -28.3500  -22.5241   21.3856 C   0  0  0  0  0  0  0  0  0  0  0  0
  -27.2186  -24.6064   20.5249 C   0  0  0  0  0  0  0  0  0  1  0  0
  -28.6158  -21.0448   21.1452 C   0  0  0  0  0  0  0  0  0  0  0  0
  -25.5693  -30.4728   24.7245 C   0  0  1  0  0  0  0  0  0  0  0  0
  -24.1970  -28.3208   27.5271 C   0  0  2  0  0  0  0  0  0  0  0  0
  -26.5261  -31.6599   25.0292 C   0  0  0  0  0  0  0  0  0  0  0  0
  -25.8440  -11.6363   21.1793 N   0  0  0  0  0  0  0  0  0  0  0  0
  -26.2134  -12.7609   20.5430 N   0  0  0  0  0  0  0  0  0  0  0  0
  -24.4610  -30.1052   22.5427 N   0  0  0  0  0  0  0  0  0  0  0  0
  -29.9262  -13.6544   20.5210 N   0  0  0  0  0  0  0  0  0  0  0  0
  -25.4170  -14.8722   19.8229 N   0  0  0  0  0  0  0  0  0  0  0  0
  -21.8124  -13.0249   21.8204 N   0  0  0  0  0  0  0  0  0  0  0  0
  -29.9748  -16.0076   20.6716 N   0  0  0  0  0  0  0  0  0  0  0  0
  -23.6804  -31.9486   19.4949 N   0  0  0  0  0  0  0  0  0  0  0  0
  -24.8827  -29.9425   25.8974 N   0  0  0  0  0  0  0  0  0  0  0  0
  -32.5803  -21.8290   21.5341 N   0  3  0  0  0  0  0  0  0  0  0  0
  -23.6686  -26.9281   27.4807 N   0  3  0  0  0  0  0  0  0  0  0  0
  -22.5780  -14.8761   20.7042 O   0  0  0  0  0  0  0  0  0  0  0  0
  -25.5929  -31.5479   20.7614 O   0  0  0  0  0  0  0  0  0  0  0  0
  -23.6996  -31.7471   24.0126 O   0  0  0  0  0  0  0  0  0  0  0  0
  -25.6716  -27.7714   25.6938 O   0  0  0  0  0  0  0  0  0  0  0  0
  -31.8064  -14.8311   19.8698 O   0  0  0  0  0  0  0  0  0  0  0  0
  -21.5877   -7.9989   24.2128 O   0  0  0  0  0  0  0  0  0  0  0  0
  -26.4264  -25.1352   19.4622 O   0  0  0  0  0  0  0  0  0  1  0  0
  -29.4023  -20.5392   22.2152 O   0  0  0  0  0  0  0  0  0  0  0  0
  -22.0315   -2.7672   22.5287 F   0  0  0  0  0  0  0  0  0  0  0  0
  -19.3733   -6.6019   23.3252 F   0  0  0  0  0  0  0  0  0  0  0  0
  1  2  1  0  0  0  0
  1  5  2  0  0  0  0
  2  6  2  0  0  0  0
  3 10  2  0  0  0  0
  3 18  1  0  0  0  0
  4 11  1  0  0  0  0
  4 18  2  0  0  0  0
  5 20  1  0  0  0  0
  6 22  1  0  0  0  0
  7 12  2  0  0  0  0
  7 21  1  0  0  0  0
  8  9  2  0  0  0  0
  8 24  1  0  0  0  0
  9 25  1  0  0  0  0
 10 26  1  0  0  0  0
 11 26  2  0  0  0  0
 12 27  1  0  0  0  0
 13 14  2  0  0  0  0
 13 28  1  0  0  0  0
 14 30  1  0  0  0  0
 15 23  1  0  0  0  0
 15 27  2  0  0  0  0
 16 25  2  0  0  0  0
 16 29  1  0  0  0  0
 17 30  2  0  0  0  0
 17 31  1  0  0  0  0
 18 32  1  0  0  0  0
 19 32  1  0  0  0  0
 19 33  2  0  0  0  0
 19 34  1  0  0  0  0
 20 22  2  0  0  0  0
 20 39  1  0  0  0  0
 21 23  2  0  0  0  0
 21 40  1  0  0  0  0
 22 48  1  0  0  0  0
 23 41  1  0  0  0  0
 24 29  2  0  0  0  0
 24 56  1  0  0  0  0
 25 70  1  0  0  0  0
 26 80  1  0  0  0  0
 27 81  1  0  0  0  0
 28 31  2  0  0  0  0
 28 80  1  0  0  0  0
 29 82  1  0  0  0  0
 30 83  1  0  0  0  0
 31 84  1  0  0  0  0
 32 64  2  0  0  0  0
 33 65  1  0  0  0  0
 33 68  1  0  0  0  0
 34 69  1  0  0  0  0
 34 75  2  0  0  0  0
 35 49  1  0  0  0  0
 35 71  1  0  0  0  0
 35 76  2  0  0  0  0
 36 61  1  0  0  0  0
 36 66  1  0  0  0  0
 36 77  2  0  0  0  0
 37 62  1  0  0  0  0
 37 72  1  0  0  0  0
 37 78  2  0  0  0  0
 38 67  1  0  0  0  0
 38 70  1  0  0  0  0
 38 79  2  0  0  0  0
 39 42  1  0  0  0  0
 40 49  1  0  0  0  0
 41 66  1  0  0  0  0
 42 44  1  0  0  0  0
 43 45  1  0  0  0  0
 43 46  1  0  0  0  0
 44 48  1  0  0  0  0
 45 50  1  0  0  0  0
 46 67  1  0  0  0  0
 47 50  1  0  0  0  0
 47 67  1  0  0  0  0
 48 71  1  0  0  0  0
 49 66  1  0  0  0  0
 50 65  1  0  0  0  0
 51 62  1  0  0  0  0
 52 63  1  0  0  0  0
 53 63  1  0  0  0  0
 54 63  1  0  0  0  0
 55 74  1  0  0  0  0
 56 73  1  0  0  0  0
 57 58  1  0  0  0  0
 57 59  1  0  0  0  0
 58 60  1  0  0  0  0
 59 81  1  0  0  0  0
 60 82  1  0  0  0  0
 61 63  1  0  0  0  0
 61 72  1  0  0  0  0
 62 74  1  0  0  0  0
 64 65  1  0  0  0  0
M  CHG  2  73   1  74   1
M  ISO  4  38 100  59 101  70 100  81 101
M  END
> <Batch ID>
0108

> <Smiles>
CNC(C)C(=O)NC(C(=O)N1Cc2cc([101O:1][101CH2:1]CCCOc3cc([100NH:0][100C:0](=O)N4CCCC(n5nc(-c6ccc(Oc7ccc(F)cc7F)cc6)c(C(N)=O)c5N)C4)ccc3CN)ccc2CC1C(=O)NC1CCCc2ccccc21)C(C)(C)C

> <Shape>
0.295

> <Color>
0.190

> <Negative vol penalty>
0.000

$$$$

  -OEChem-04052301203D

 86 95  0     1  0  0  0  0  0999 V2000
  -29.8167  -31.3451   26.1316 C   0  0  0  0  0  0  0  0  0  0  0  0
  -29.4581  -30.0874   25.6573 C   0  0  0  0  0  0  0  0  0  0  0  0
  -23.8967  -11.7368   20.1299 C   0  0  0  0  0  0  0  0  0  0  0  0
  -24.9120  -13.5035   21.4280 C   0  0  0  0  0  0  0  0  0  0  0  0
  -28.9110  -32.4023   26.0543 C   0  0  0  0  0  0  0  0  0  0  0  0
  -28.1931  -29.8859   25.1062 C   0  0  0  0  0  0  0  0  0  0  0  0
  -28.3486  -27.2021   20.8147 C   0  0  0  0  0  0  0  0  0  0  0  0
  -26.8819  -19.1723   16.0448 C   0  0  0  0  0  0  0  0  0  0  0  0
  -25.5564  -18.9398   16.4116 C   0  0  0  0  0  0  0  0  0  0  0  0
  -25.1476  -11.1441   19.9580 C   0  0  0  0  0  0  0  0  0  0  0  0
  -26.1629  -12.9108   21.2562 C   0  0  0  0  0  0  0  0  0  0  0  0
  -28.5093  -25.8222   20.9321 C   0  0  0  0  0  0  0  0  0  0  0  0
  -28.5191  -12.7214   18.8389 C   0  0  0  0  0  0  0  0  0  0  0  0
  -29.5877  -13.5505   18.4980 C   0  0  0  0  0  0  0  0  0  0  0  0
  -26.2692  -18.4280   18.6626 C   0  0  0  0  0  0  0  0  0  0  0  0
  -26.1390  -25.5237   20.5981 C   0  0  0  0  0  0  0  0  0  0  0  0
  -30.7440  -12.8891   20.5136 C   0  0  0  0  0  0  0  0  0  0  0  0
  -23.7789  -12.9165   20.8648 C   0  0  0  0  0  0  0  0  0  0  0  0
  -27.5947  -18.6605   18.2958 C   0  0  0  0  0  0  0  0  0  0  0  0
  -21.3541  -12.9626   21.6561 C   0  0  0  0  0  0  0  0  0  0  0  0
  -27.6377  -32.2160   25.4932 C   0  0  0  0  0  0  0  0  0  0  0  0
  -27.0781  -27.7548   20.5986 C   0  0  0  0  0  0  0  0  0  0  0  0
  -27.2690  -30.9413   25.0225 C   0  0  0  0  0  0  0  0  0  0  0  0
  -25.9652  -26.9108   20.4757 C   0  0  0  0  0  0  0  0  0  0  0  0
  -27.9011  -19.0326   16.9869 C   0  0  0  0  0  0  0  0  0  0  0  0
  -25.2500  -18.5677   17.7205 C   0  0  0  0  0  0  0  0  0  0  0  0
  -26.2807  -11.7311   20.5212 C   0  0  0  0  0  0  0  0  0  0  0  0
  -27.4040  -24.9830   20.8267 C   0  0  0  0  0  0  0  0  0  0  0  0
  -28.5629  -11.9762   20.0173 C   0  0  0  0  0  0  0  0  0  0  0  0
  -30.7002  -13.6343   19.3353 C   0  0  0  0  0  0  0  0  0  0  0  0
  -29.6753  -12.0600   20.8546 C   0  0  0  0  0  0  0  0  0  0  0  0
  -22.4870  -13.5295   21.0422 C   0  0  0  0  0  0  0  0  0  0  0  0
  -20.3928  -13.9399   21.5720 C   0  0  0  0  0  0  0  0  0  0  0  0
  -28.6502  -18.5067   19.3094 C   0  0  0  0  0  0  0  0  0  0  0  0
  -21.1858  -11.6682   22.2494 C   0  0  0  0  0  0  0  0  0  0  0  0
  -25.1935  -29.7437   22.2099 C   0  0  0  0  0  0  0  0  0  0  0  0
  -23.3628  -29.5524   19.5390 C   0  0  0  0  0  0  0  0  0  0  0  0
  -22.4696  -27.7857   16.7591 C   0  0  0  0  0  0  0  0  0  0  0  0
  -23.4152  -17.9525   19.3466 C   0  0  0  0  0  0  0  0  0  0  0  0
  -26.6757  -33.3774   25.4744 C   0  0  0  0  0  0  0  0  0  0  0  0
  -26.9254  -29.2436   20.4475 C   0  0  0  0  0  0  0  0  0  0  0  0
  -24.5827  -27.4529   20.2236 C   0  0  0  0  0  0  0  0  0  0  0  0
  -25.4905  -33.1714   24.5346 C   0  0  0  0  0  0  0  0  0  0  0  0
  -19.6660  -17.6080   18.5155 C   0  0  0  0  0  0  0  0  0  0  0  0
  -24.8916  -31.7818   24.7273 C   0  0  0  0  0  0  0  0  0  0  0  0
  -19.6038  -16.2731   19.2471 C   0  0  0  0  0  0  0  0  0  0  0  0
  -30.2153  -21.0109   21.5188 C   0  0  0  0  0  0  0  0  0  0  0  0
  -21.1169  -17.9936   18.2406 C   0  0  0  0  0  0  0  0  0  0  0  0
  -30.0099  -19.5655   21.0925 C   0  0  0  0  0  0  0  0  0  0  0  0
  -28.3692  -20.9471   20.0035 C   0  0  0  0  0  0  0  0  0  0  0  0
  -21.3626  -17.4954   20.6745 C   0  0  0  0  0  0  0  0  0  0  0  0
  -25.9151  -30.6892   24.3954 C   0  0  1  0  0  0  0  0  0  0  0  0
  -25.5103  -29.7319   20.7412 C   0  0  1  0  0  0  0  0  0  0  0  0
  -28.8388  -21.6370   21.2831 C   0  0  2  0  0  0  0  0  0  0  0  0
  -20.3548  -16.3306   20.5925 C   0  0  2  0  0  0  0  0  0  0  0  0
  -29.3121  -19.2877   16.5673 C   0  0  0  0  0  0  0  0  0  0  0  0
  -20.9197  -27.8668   14.7872 C   0  0  0  0  0  0  0  0  0  0  0  0
  -21.0275  -28.7836   21.3460 C   0  0  0  0  0  0  0  0  0  0  0  0
  -19.8135  -27.9691   19.3135 C   0  0  0  0  0  0  0  0  0  0  0  0
  -20.4437  -30.3750   19.5072 C   0  0  0  0  0  0  0  0  0  0  0  0
  -24.7228  -27.7711   14.8402 C   0  0  0  0  0  0  0  0  0  0  0  0
  -28.8804  -23.1503   21.1697 C   0  0  0  0  0  0  0  0  0  1  0  0
  -22.2435  -28.6534   19.0721 C   0  0  1  0  0  0  0  0  0  0  0  0
  -22.3079  -28.2038   15.3087 C   0  0  2  0  0  0  0  0  0  0  0  0
  -20.9077  -28.9349   19.8164 C   0  0  0  0  0  0  0  0  0  0  0  0
  -22.2673  -14.7708   20.6006 N   0  0  0  0  0  0  0  0  0  0  0  0
  -20.9851  -14.9918   20.9373 N   0  0  0  0  0  0  0  0  0  0  0  0
  -28.9875  -19.6235   20.0584 N   0  0  0  0  0  0  0  0  0  0  0  0
  -24.4840  -28.9157   20.0896 N   0  0  0  0  0  0  0  0  0  0  0  0
  -22.0077  -17.7925   19.3930 N   0  0  0  0  0  0  0  0  0  0  0  0
  -19.1070  -13.9936   21.9797 N   0  0  0  0  0  0  0  0  0  0  0  0
  -21.4708  -11.5162   23.6132 N   0  0  0  0  0  0  0  0  0  0  0  0
  -23.9028  -18.3295   18.0924 N   0  0  0  0  0  0  0  0  0  0  0  0
  -26.0417  -30.5338   22.9621 N   0  0  0  0  0  0  0  0  0  0  0  0
  -22.1665  -28.8156   17.6243 N   0  0  0  0  0  0  0  0  0  0  0  0
  -23.3123  -27.5095   14.4544 N   0  3  0  0  0  0  0  0  0  0  0  0
  -29.1569  -17.3933   19.4327 O   0  0  0  0  0  0  0  0  0  0  0  0
  -20.8100  -10.6721   21.5860 O   0  0  0  0  0  0  0  0  0  0  0  0
  -24.2485  -29.0859   22.6295 O   0  0  0  0  0  0  0  0  0  0  0  0
  -23.2495  -30.7743   19.4130 O   0  0  0  0  0  0  0  0  0  0  0  0
  -22.8255  -26.6572   17.0912 O   0  0  0  0  0  0  0  0  0  0  0  0
  -24.1207  -17.7722   20.3414 O   0  0  0  0  0  0  0  0  0  0  0  0
  -27.5015  -11.1529   20.3540 O   0  0  0  0  0  0  0  0  0  0  0  0
  -27.5580  -23.6358   20.9416 O   0  0  0  0  0  0  0  0  0  1  0  0
  -31.7270  -14.4294   19.0070 F   0  0  0  0  0  0  0  0  0  0  0  0
  -29.7236  -11.3456   21.9873 F   0  0  0  0  0  0  0  0  0  0  0  0
  1  2  1  0  0  0  0
  1  5  2  0  0  0  0
  2  6  2  0  0  0  0
  3 10  2  0  0  0  0
  3 18  1  0  0  0  0
  4 11  1  0  0  0  0
  4 18  2  0  0  0  0
  5 21  1  0  0  0  0
  6 23  1  0  0  0  0
  7 12  2  0  0  0  0
  7 22  1  0  0  0  0
  8  9  2  0  0  0  0
  8 25  1  0  0  0  0
  9 26  1  0  0  0  0
 10 27  1  0  0  0  0
 11 27  2  0  0  0  0
 12 28  1  0  0  0  0
 13 14  2  0  0  0  0
 13 29  1  0  0  0  0
 14 30  1  0  0  0  0
 15 19  1  0  0  0  0
 15 26  2  0  0  0  0
 16 24  1  0  0  0  0
 16 28  2  0  0  0  0
 17 30  2  0  0  0  0
 17 31  1  0  0  0  0
 18 32  1  0  0  0  0
 19 25  2  0  0  0  0
 19 34  1  0  0  0  0
 20 32  1  0  0  0  0
 20 33  2  0  0  0  0
 20 35  1  0  0  0  0
 21 23  2  0  0  0  0
 21 40  1  0  0  0  0
 22 24  2  0  0  0  0
 22 41  1  0  0  0  0
 23 52  1  0  0  0  0
 24 42  1  0  0  0  0
 25 56  1  0  0  0  0
 26 73  1  0  0  0  0
 27 83  1  0  0  0  0
 28 84  1  0  0  0  0
 29 31  2  0  0  0  0
 29 83  1  0  0  0  0
 30 85  1  0  0  0  0
 31 86  1  0  0  0  0
 32 66  2  0  0  0  0
 33 67  1  0  0  0  0
 33 71  1  0  0  0  0
 34 68  1  0  0  0  0
 34 77  2  0  0  0  0
 35 72  1  0  0  0  0
 35 78  2  0  0  0  0
 36 53  1  0  0  0  0
 36 74  1  0  0  0  0
 36 79  2  0  0  0  0
 37 63  1  0  0  0  0
 37 69  1  0  0  0  0
 37 80  2  0  0  0  0
 38 64  1  0  0  0  0
 38 75  1  0  0  0  0
 38 81  2  0  0  0  0
 39 70  1  0  0  0  0
 39 73  1  0  0  0  0
 39 82  2  0  0  0  0
 40 43  1  0  0  0  0
 41 53  1  0  0  0  0
 42 69  1  0  0  0  0
 43 45  1  0  0  0  0
 44 46  1  0  0  0  0
 44 48  1  0  0  0  0
 45 52  1  0  0  0  0
 46 55  1  0  0  0  0
 47 49  1  0  0  0  0
 47 54  1  0  0  0  0
 48 70  1  0  0  0  0
 49 68  1  0  0  0  0
 50 54  1  0  0  0  0
 50 68  1  0  0  0  0
 51 55  1  0  0  0  0
 51 70  1  0  0  0  0
 52 74  1  0  0  0  0
 53 69  1  0  0  0  0
 54 62  1  0  0  0  0
 55 67  1  0  0  0  0
 57 64  1  0  0  0  0
 58 65  1  0  0  0  0
 59 65  1  0  0  0  0
 60 65  1  0  0  0  0
 61 76  1  0  0  0  0
 62 84  1  0  0  0  0
 63 65  1  0  0  0  0
 63 75  1  0  0  0  0
 64 76  1  0  0  0  0
 66 67  1  0  0  0  0
M  CHG  1  76   1
M  ISO  4  39 100  62 101  73 100  84 101
M  END
> <Batch ID>
0108

> <Smiles>
CNC(C)C(=O)NC(C(=O)N1Cc2cc([101O:1][101CH2:1]C3CCN(C(=O)c4cc([100NH:0][100C:0](=O)N5CCCC(n6nc(-c7ccc(Oc8ccc(F)cc8F)cc7)c(C(N)=O)c6N)C5)ccc4C)C3)ccc2CC1C(=O)NC1CCCc2ccccc21)C(C)(C)C

> <Shape>
0.272

> <Color>
0.075

> <Negative vol penalty>
0.000

$$$$

  -OEChem-04052301203D

 91100  0     1  0  0  0  0  0999 V2000
  -25.2317  -36.4114   23.5442 C   0  0  0  0  0  0  0  0  0  0  0  0
  -24.5836  -35.2105   23.8097 C   0  0  0  0  0  0  0  0  0  0  0  0
  -22.8816  -13.3138   20.0423 C   0  0  0  0  0  0  0  0  0  0  0  0
  -24.2706  -15.2081   20.6075 C   0  0  0  0  0  0  0  0  0  0  0  0
  -25.3139  -36.8801   22.2346 C   0  0  0  0  0  0  0  0  0  0  0  0
  -24.0279  -34.4718   22.7645 C   0  0  0  0  0  0  0  0  0  0  0  0
  -25.4304  -28.0116   18.7450 C   0  0  0  0  0  0  0  0  0  0  0  0
  -23.9808  -12.4664   20.1811 C   0  0  0  0  0  0  0  0  0  0  0  0
  -25.3698  -14.3607   20.7464 C   0  0  0  0  0  0  0  0  0  0  0  0
  -26.5432  -27.2018   18.9730 C   0  0  0  0  0  0  0  0  0  0  0  0
  -27.5695  -12.7815   18.7220 C   0  0  0  0  0  0  0  0  0  0  0  0
  -28.7742  -13.1828   18.1447 C   0  0  0  0  0  0  0  0  0  0  0  0
  -25.7930  -21.1335   19.5612 C   0  0  0  0  0  0  0  0  0  0  0  0
  -25.0025  -18.9474   20.2191 C   0  0  0  0  0  0  0  0  0  0  0  0
  -27.0026  -28.3929   21.0268 C   0  0  0  0  0  0  0  0  0  0  0  0
  -27.1379  -19.7497   21.0149 C   0  0  0  0  0  0  0  0  0  0  0  0
  -29.8283  -13.1456   20.3183 C   0  0  0  0  0  0  0  0  0  0  0  0
  -23.0265  -14.6847   20.2554 C   0  0  0  0  0  0  0  0  0  0  0  0
  -24.8177  -20.1373   19.5152 C   0  0  0  0  0  0  0  0  0  0  0  0
  -20.6848  -15.5143   20.8351 C   0  0  0  0  0  0  0  0  0  0  0  0
  -24.7478  -36.1523   21.1750 C   0  0  0  0  0  0  0  0  0  0  0  0
  -25.0901  -29.0062   19.6660 C   0  0  0  0  0  0  0  0  0  0  0  0
  -24.1213  -34.9161   21.4331 C   0  0  0  0  0  0  0  0  0  0  0  0
  -25.8818  -29.1989   20.8101 C   0  0  0  0  0  0  0  0  0  0  0  0
  -26.9531  -20.9397   20.3110 C   0  0  0  0  0  0  0  0  0  0  0  0
  -25.2249  -12.9898   20.5332 C   0  0  0  0  0  0  0  0  0  0  0  0
  -27.3275  -27.3922   20.1109 C   0  0  0  0  0  0  0  0  0  0  0  0
  -27.4942  -12.5623   20.0975 C   0  0  0  0  0  0  0  0  0  0  0  0
  -26.1626  -18.7535   20.9690 C   0  0  0  0  0  0  0  0  0  0  0  0
  -29.9036  -13.3648   18.9428 C   0  0  0  0  0  0  0  0  0  0  0  0
  -28.6235  -12.7443   20.8956 C   0  0  0  0  0  0  0  0  0  0  0  0
  -21.8915  -15.5606   20.1116 C   0  0  0  0  0  0  0  0  0  0  0  0
  -19.9400  -16.5505   20.3273 C   0  0  0  0  0  0  0  0  0  0  0  0
  -28.6769  -24.2334   20.0045 C   0  0  0  0  0  0  0  0  0  0  0  0
  -27.8703  -23.1901   19.6918 C   0  0  0  0  0  0  0  0  0  0  0  0
  -29.6452  -24.0635   21.1394 C   0  0  0  0  0  0  0  0  0  0  0  0
  -23.6079  -20.3391   18.7334 C   0  0  0  0  0  0  0  0  0  0  0  0
  -23.3160  -21.4429   18.0128 C   0  0  0  0  0  0  0  0  0  0  0  0
  -20.2740  -14.6150   21.8734 C   0  0  0  0  0  0  0  0  0  0  0  0
  -22.0404  -21.4931   17.2574 C   0  0  0  0  0  0  0  0  0  0  0  0
  -22.7237  -31.7604   20.6098 C   0  0  0  0  0  0  0  0  0  0  0  0
  -23.3995  -30.2434   23.1891 C   0  0  0  0  0  0  0  0  0  0  0  0
  -20.7954  -28.0401   23.1546 C   0  0  0  0  0  0  0  0  0  0  0  0
  -24.8727  -36.7021   19.7759 C   0  0  0  0  0  0  0  0  0  0  0  0
  -23.9358  -29.9421   19.4303 C   0  0  0  0  0  0  0  0  0  0  0  0
  -25.4978  -30.3039   21.7559 C   0  0  0  0  0  0  0  0  0  0  0  0
  -29.5800  -22.7980   21.9598 C   0  0  0  0  0  0  0  0  0  0  0  0
  -23.8767  -36.0810   18.8020 C   0  0  0  0  0  0  0  0  0  0  0  0
  -19.6471  -18.9380   16.1147 C   0  0  0  0  0  0  0  0  0  0  0  0
  -23.9151  -34.5644   18.9159 C   0  0  0  0  0  0  0  0  0  0  0  0
  -19.5944  -17.8962   17.2342 C   0  0  0  0  0  0  0  0  0  0  0  0
  -29.1475  -21.6060   21.1242 C   0  0  0  0  0  0  0  0  0  0  0  0
  -19.9619  -20.3360   16.6274 C   0  0  0  0  0  0  0  0  0  0  0  0
  -21.5845  -19.1877   18.1551 C   0  0  0  0  0  0  0  0  0  0  0  0
  -23.4827  -34.1108   20.3160 C   0  0  1  0  0  0  0  0  0  0  0  0
  -23.2122  -30.3465   20.7272 C   0  0  1  0  0  0  0  0  0  0  0  0
  -20.3610  -18.3247   18.4986 C   0  0  2  0  0  0  0  0  0  0  0  0
  -26.9213  -23.2951   18.5137 C   0  0  0  0  0  0  0  0  0  0  0  0
  -25.2158  -14.9451   19.6851 C   0  0  0  0  0  0  0  0  0  0  0  0
  -21.7164  -26.3241   21.5721 C   0  0  0  0  0  0  0  0  0  0  0  0
  -20.4888  -32.3980   23.5679 C   0  0  0  0  0  0  0  0  0  0  0  0
  -20.4300  -31.2356   21.3512 C   0  0  0  0  0  0  0  0  0  0  0  0
  -22.4867  -32.4537   22.0646 C   0  0  0  0  0  0  0  0  0  0  0  0
  -18.2266  -26.6376   21.1416 C   0  0  0  0  0  0  0  0  0  0  0  0
  -28.6815  -25.5885   19.3553 C   0  0  0  0  0  0  0  0  0  1  0  0
  -25.8872  -15.3339   20.9900 C   0  0  0  0  0  0  0  0  0  0  0  0
  -25.3063  -16.6165   21.5652 C   0  0  0  0  0  0  0  0  0  0  0  0
  -21.8919  -30.2652   23.1821 C   0  0  1  0  0  0  0  0  0  0  0  0
  -20.4635  -26.8870   22.2247 C   0  0  2  0  0  0  0  0  0  0  0  0
  -21.3210  -31.5734   22.5656 C   0  0  0  0  0  0  0  0  0  0  0  0
  -21.9161  -16.5481   19.2125 N   0  0  0  0  0  0  0  0  0  0  0  0
  -20.7155  -17.1317   19.3676 N   0  0  0  0  0  0  0  0  0  0  0  0
  -27.9454  -21.9527   20.3580 N   0  0  0  0  0  0  0  0  0  0  0  0
  -21.2294  -20.3693   17.3568 N   0  0  0  0  0  0  0  0  0  0  0  0
  -24.0389  -30.3184   21.9457 N   0  0  0  0  0  0  0  0  0  0  0  0
  -18.7038  -17.0121   20.6125 N   0  0  0  0  0  0  0  0  0  0  0  0
  -20.5604  -14.9539   23.2029 N   0  0  0  0  0  0  0  0  0  0  0  0
  -23.7314  -32.6923   20.4504 N   0  0  0  0  0  0  0  0  0  0  0  0
  -21.4692  -29.0481   22.4979 N   0  0  0  0  0  0  0  0  0  0  0  0
  -19.5361  -27.3392   21.1493 N   0  3  0  0  0  0  0  0  0  0  0  0
  -30.4377  -24.9587   21.4316 O   0  0  0  0  0  0  0  0  0  0  0  0
  -19.6853  -13.5347   21.6284 O   0  0  0  0  0  0  0  0  0  0  0  0
  -21.8405  -22.5154   16.6149 O   0  0  0  0  0  0  0  0  0  0  0  0
  -21.5210  -31.9901   20.6587 O   0  0  0  0  0  0  0  0  0  0  0  0
  -23.9965  -30.1565   24.2658 O   0  0  0  0  0  0  0  0  0  0  0  0
  -20.4845  -28.0476   24.3436 O   0  0  0  0  0  0  0  0  0  0  0  0
  -26.2976  -12.1632   20.6690 O   0  0  0  0  0  0  0  0  0  0  0  0
  -28.4100  -26.5952   20.3296 O   0  0  0  0  0  0  0  0  0  1  0  0
  -26.3431  -17.5924   21.6559 O   0  0  0  0  0  0  0  0  0  0  0  0
  -31.0607  -13.7487   18.3880 F   0  0  0  0  0  0  0  0  0  0  0  0
  -28.5576  -12.5341   22.2175 F   0  0  0  0  0  0  0  0  0  0  0  0
  1  2  1  0  0  0  0
  1  5  2  0  0  0  0
  2  6  2  0  0  0  0
  3  8  2  0  0  0  0
  3 18  1  0  0  0  0
  4  9  1  0  0  0  0
  4 18  2  0  0  0  0
  5 21  1  0  0  0  0
  6 23  1  0  0  0  0
  7 10  2  0  0  0  0
  7 22  1  0  0  0  0
  8 26  1  0  0  0  0
  9 26  2  0  0  0  0
 10 27  1  0  0  0  0
 11 12  2  0  0  0  0
 11 28  1  0  0  0  0
 12 30  1  0  0  0  0
 13 19  1  0  0  0  0
 13 25  2  0  0  0  0
 14 19  2  0  0  0  0
 14 29  1  0  0  0  0
 15 24  1  0  0  0  0
 15 27  2  0  0  0  0
 16 25  1  0  0  0  0
 16 29  2  0  0  0  0
 17 30  2  0  0  0  0
 17 31  1  0  0  0  0
 18 32  1  0  0  0  0
 19 37  1  0  0  0  0
 20 32  1  0  0  0  0
 20 33  2  0  0  0  0
 20 39  1  0  0  0  0
 21 23  2  0  0  0  0
 21 44  1  0  0  0  0
 22 24  2  0  0  0  0
 22 45  1  0  0  0  0
 23 55  1  0  0  0  0
 24 46  1  0  0  0  0
 25 73  1  0  0  0  0
 26 87  1  0  0  0  0
 27 88  1  0  0  0  0
 28 31  2  0  0  0  0
 28 87  1  0  0  0  0
 29 89  1  0  0  0  0
 30 90  1  0  0  0  0
 31 91  1  0  0  0  0
 32 71  2  0  0  0  0
 33 72  1  0  0  0  0
 33 76  1  0  0  0  0
 34 35  2  0  0  0  0
 34 36  1  0  0  0  0
 34 65  1  0  0  0  0
 35 58  1  0  0  0  0
 35 73  1  0  0  0  0
 36 47  1  0  0  0  0
 36 81  2  0  0  0  0
 37 38  2  0  0  0  0
 38 40  1  0  0  0  0
 39 77  1  0  0  0  0
 39 82  2  0  0  0  0
 40 74  1  0  0  0  0
 40 83  2  0  0  0  0
 41 56  1  0  0  0  0
 41 78  1  0  0  0  0
 41 84  2  0  0  0  0
 42 68  1  0  0  0  0
 42 75  1  0  0  0  0
 42 85  2  0  0  0  0
 43 69  1  0  0  0  0
 43 79  1  0  0  0  0
 43 86  2  0  0  0  0
 44 48  1  0  0  0  0
 45 56  1  0  0  0  0
 46 75  1  0  0  0  0
 47 52  1  0  0  0  0
 48 50  1  0  0  0  0
 49 51  1  0  0  0  0
 49 53  1  0  0  0  0
 50 55  1  0  0  0  0
 51 57  1  0  0  0  0
 52 73  1  0  0  0  0
 53 74  1  0  0  0  0
 54 57  1  0  0  0  0
 54 74  1  0  0  0  0
 55 78  1  0  0  0  0
 56 75  1  0  0  0  0
 57 72  1  0  0  0  0
 59 66  1  0  0  0  0
 60 69  1  0  0  0  0
 61 70  1  0  0  0  0
 62 70  1  0  0  0  0
 63 70  1  0  0  0  0
 64 80  1  0  0  0  0
 65 88  1  0  0  0  0
 66 67  1  0  0  0  0
 67 89  1  0  0  0  0
 68 70  1  0  0  0  0
 68 79  1  0  0  0  0
 69 80  1  0  0  0  0
 71 72  1  0  0  0  0
M  CHG  1  80   1
M  ISO  4  38 100  40 100  65 101  88 101
M  END
> <Batch ID>
0108

> <Smiles>
CCCOc1cc(C=[100CH:0][100C:0](=O)N2CCCC(n3nc(-c4ccc(Oc5ccc(F)cc5F)cc4)c(C(N)=O)c3N)C2)cc(N2CCC(=O)C([101CH2:1][101O:1]c3ccc4c(c3)CN(C(=O)C(NC(=O)C(C)NC)C(C)(C)C)C(C(=O)NC3CCCc5ccccc53)C4)=C2C)c1

> <Shape>
0.276

> <Color>
0.101

> <Negative vol penalty>
0.000

$$$$

  -OEChem-04052301203D

 86 94  0     1  0  0  0  0  0999 V2000
  -27.8228  -32.5230   28.8143 C   0  0  0  0  0  0  0  0  0  0  0  0
  -27.6006  -31.6842   27.7268 C   0  0  0  0  0  0  0  0  0  0  0  0
  -24.0460   -9.0570   21.2182 C   0  0  0  0  0  0  0  0  0  0  0  0
  -25.3413   -9.8558   23.0947 C   0  0  0  0  0  0  0  0  0  0  0  0
  -27.0492  -33.6714   28.9769 C   0  0  0  0  0  0  0  0  0  0  0  0
  -26.6038  -31.9929   26.8019 C   0  0  0  0  0  0  0  0  0  0  0  0
  -28.1465  -31.4059   22.0144 C   0  0  0  0  0  0  0  0  0  0  0  0
  -23.7865   -7.8697   21.9027 C   0  0  0  0  0  0  0  0  0  0  0  0
  -25.0818   -8.6684   23.7792 C   0  0  0  0  0  0  0  0  0  0  0  0
  -28.1957  -30.1047   21.5163 C   0  0  0  0  0  0  0  0  0  0  0  0
  -21.7172   -6.8113   24.3584 C   0  0  0  0  0  0  0  0  0  0  0  0
  -20.4089   -6.3278   24.3449 C   0  0  0  0  0  0  0  0  0  0  0  0
  -26.0848  -30.4575   20.4031 C   0  0  0  0  0  0  0  0  0  0  0  0
  -26.9974  -20.8392   20.9654 C   0  0  0  0  0  0  0  0  0  0  0  0
  -29.1346  -20.5013   22.0402 C   0  0  0  0  0  0  0  0  0  0  0  0
  -21.1716   -4.2936   23.2877 C   0  0  0  0  0  0  0  0  0  0  0  0
  -24.8234  -10.0501   21.8142 C   0  0  0  0  0  0  0  0  0  0  0  0
  -24.1500  -12.2112   20.6379 C   0  0  0  0  0  0  0  0  0  0  0  0
  -26.0488  -33.9994   28.0483 C   0  0  0  0  0  0  0  0  0  0  0  0
  -27.0590  -32.2405   21.7191 C   0  0  0  0  0  0  0  0  0  0  0  0
  -25.8151  -33.1461   26.9530 C   0  0  0  0  0  0  0  0  0  0  0  0
  -26.0255  -31.7698   20.8966 C   0  0  0  0  0  0  0  0  0  0  0  0
  -27.0272  -19.5270   20.4934 C   0  0  0  0  0  0  0  0  0  0  0  0
  -28.1107  -18.7019   20.7948 C   0  0  0  0  0  0  0  0  0  0  0  0
  -24.3044   -7.6754   23.1832 C   0  0  0  0  0  0  0  0  0  0  0  0
  -27.1634  -29.6293   20.7129 C   0  0  0  0  0  0  0  0  0  0  0  0
  -22.7528   -6.0359   23.8366 C   0  0  0  0  0  0  0  0  0  0  0  0
  -28.0511  -21.3264   21.7387 C   0  0  0  0  0  0  0  0  0  0  0  0
  -20.1361   -5.0690   23.8095 C   0  0  0  0  0  0  0  0  0  0  0  0
  -29.1644  -19.1890   21.5682 C   0  0  0  0  0  0  0  0  0  0  0  0
  -22.4799   -4.7771   23.3013 C   0  0  0  0  0  0  0  0  0  0  0  0
  -25.0923  -11.2765   21.1074 C   0  0  0  0  0  0  0  0  0  0  0  0
  -24.9059  -13.1905   20.0411 C   0  0  0  0  0  0  0  0  0  0  0  0
  -26.1290  -17.8402   17.4675 C   0  0  0  0  0  0  0  0  0  0  0  0
  -26.2113  -18.9571   18.1992 C   0  0  0  0  0  0  0  0  0  0  0  0
  -22.7195  -12.1956   20.7328 C   0  0  0  0  0  0  0  0  0  0  0  0
  -24.8151  -33.6940   23.4384 C   0  0  0  0  0  0  0  0  0  0  0  0
  -24.0374  -35.0221   20.5829 C   0  0  0  0  0  0  0  0  0  0  0  0
  -24.1066  -34.8162   17.1771 C   0  0  0  0  0  0  0  0  0  0  0  0
  -29.2930  -16.6191   20.0135 C   0  0  0  0  0  0  0  0  0  0  0  0
  -25.2064  -35.2265   28.2918 C   0  0  0  0  0  0  0  0  0  0  0  0
  -27.0339  -33.6505   22.2422 C   0  0  0  0  0  0  0  0  0  0  0  0
  -24.8456  -32.6326   20.5334 C   0  0  0  0  0  0  0  0  0  0  0  0
  -24.4211  -35.6797   27.0637 C   0  0  0  0  0  0  0  0  0  0  0  0
  -29.8271  -13.2929   18.8609 C   0  0  0  0  0  0  0  0  0  0  0  0
  -23.7333  -34.4904   26.4011 C   0  0  0  0  0  0  0  0  0  0  0  0
  -28.5653  -12.5487   19.3040 C   0  0  0  0  0  0  0  0  0  0  0  0
  -30.2623  -14.3343   19.8904 C   0  0  0  0  0  0  0  0  0  0  0  0
  -27.9566  -14.5425   20.7327 C   0  0  0  0  0  0  0  0  0  0  0  0
  -24.7597  -33.4601   25.9149 C   0  0  1  0  0  0  0  0  0  0  0  0
  -25.6286  -34.2415   22.3000 C   0  0  1  0  0  0  0  0  0  0  0  0
  -27.4424  -13.5282   19.6980 C   0  0  2  0  0  0  0  0  0  0  0  0
  -23.3566  -36.0329   15.1144 C   0  0  0  0  0  0  0  0  0  0  0  0
  -21.1840  -34.0464   21.0478 C   0  0  0  0  0  0  0  0  0  0  0  0
  -20.7309  -34.4300   18.6155 C   0  0  0  0  0  0  0  0  0  0  0  0
  -21.3556  -36.3475   20.0836 C   0  0  0  0  0  0  0  0  0  0  0  0
  -26.8888  -35.1634   16.2297 C   0  0  0  0  0  0  0  0  0  0  0  0
  -25.8848  -19.0321   19.6671 C   0  0  0  0  0  0  0  0  0  0  0  0
  -27.2820  -26.0089   20.7737 C   0  0  0  0  0  0  0  0  0  0  0  0
  -27.9660  -24.9368   21.6149 C   0  0  0  0  0  0  0  0  0  0  0  0
  -27.8885  -27.3847   21.0158 C   0  0  0  0  0  0  0  0  0  1  0  0
  -27.3324  -23.5688   21.4056 C   0  0  0  0  0  0  0  0  0  0  0  0
  -23.1169  -34.6496   19.4459 C   0  0  1  0  0  0  0  0  0  0  0  0
  -24.4849  -35.8317   16.1141 C   0  0  2  0  0  0  0  0  0  0  0  0
  -21.6180  -34.8512   19.8064 C   0  0  0  0  0  0  0  0  0  0  0  0
  -26.3506  -11.6303   20.8325 N   0  0  0  0  0  0  0  0  0  0  0  0
  -26.2043  -12.7980   20.1836 N   0  0  0  0  0  0  0  0  0  0  0  0
  -24.8638  -34.0017   21.0745 N   0  0  0  0  0  0  0  0  0  0  0  0
  -29.1488  -15.2296   20.2118 N   0  0  0  0  0  0  0  0  0  0  0  0
  -24.5798  -14.3404   19.4136 N   0  0  0  0  0  0  0  0  0  0  0  0
  -22.1174  -12.7919   21.8491 N   0  0  0  0  0  0  0  0  0  0  0  0
  -28.1572  -17.3666   20.3230 N   0  0  0  0  0  0  0  0  0  0  0  0
  -25.3768  -33.9038   24.6833 N   0  0  0  0  0  0  0  0  0  0  0  0
  -23.5626  -35.4209   18.2905 N   0  0  0  0  0  0  0  0  0  0  0  0
  -25.6951  -35.3782   15.3719 N   0  3  0  0  0  0  0  0  0  0  0  0
  -21.9973  -11.6540   19.8618 O   0  0  0  0  0  0  0  0  0  0  0  0
  -23.7554  -33.1246   23.2047 O   0  0  0  0  0  0  0  0  0  0  0  0
  -24.0288  -36.1778   21.0142 O   0  0  0  0  0  0  0  0  0  0  0  0
  -24.2733  -33.6071   17.0326 O   0  0  0  0  0  0  0  0  0  0  0  0
  -30.3374  -17.1069   19.5739 O   0  0  0  0  0  0  0  0  0  0  0  0
  -24.0512   -6.5170   23.8515 O   0  0  0  0  0  0  0  0  0  0  0  0
  -27.2085  -28.3594   20.2259 O   0  0  0  0  0  0  0  0  0  1  0  0
  -28.0221  -22.6159   22.2027 O   0  0  0  0  0  0  0  0  0  0  0  0
  -18.8799   -4.6042   23.7980 F   0  0  0  0  0  0  0  0  0  0  0  0
  -30.2115  -18.4058   21.8648 F   0  0  0  0  0  0  0  0  0  0  0  0
  -23.4708   -4.0272   22.7996 F   0  0  0  0  0  0  0  0  0  0  0  0
  1  2  1  0  0  0  0
  1  5  2  0  0  0  0
  2  6  2  0  0  0  0
  3  8  2  0  0  0  0
  3 17  1  0  0  0  0
  4  9  1  0  0  0  0
  4 17  2  0  0  0  0
  5 19  1  0  0  0  0
  6 21  1  0  0  0  0
  7 10  2  0  0  0  0
  7 20  1  0  0  0  0
  8 25  1  0  0  0  0
  9 25  2  0  0  0  0
 10 26  1  0  0  0  0
 11 12  2  0  0  0  0
 11 27  1  0  0  0  0
 12 29  1  0  0  0  0
 13 22  1  0  0  0  0
 13 26  2  0  0  0  0
 14 23  1  0  0  0  0
 14 28  2  0  0  0  0
 15 28  1  0  0  0  0
 15 30  2  0  0  0  0
 16 29  2  0  0  0  0
 16 31  1  0  0  0  0
 17 32  1  0  0  0  0
 18 32  1  0  0  0  0
 18 33  2  0  0  0  0
 18 36  1  0  0  0  0
 19 21  2  0  0  0  0
 19 41  1  0  0  0  0
 20 22  2  0  0  0  0
 20 42  1  0  0  0  0
 21 50  1  0  0  0  0
 22 43  1  0  0  0  0
 23 24  2  0  0  0  0
 23 58  1  0  0  0  0
 24 30  1  0  0  0  0
 24 72  1  0  0  0  0
 25 81  1  0  0  0  0
 26 82  1  0  0  0  0
 27 31  2  0  0  0  0
 27 81  1  0  0  0  0
 28 83  1  0  0  0  0
 29 84  1  0  0  0  0
 30 85  1  0  0  0  0
 31 86  1  0  0  0  0
 32 66  2  0  0  0  0
 33 67  1  0  0  0  0
 33 70  1  0  0  0  0
 34 35  2  0  0  0  0
 35 58  1  0  0  0  0
 36 71  1  0  0  0  0
 36 76  2  0  0  0  0
 37 51  1  0  0  0  0
 37 73  1  0  0  0  0
 37 77  2  0  0  0  0
 38 63  1  0  0  0  0
 38 68  1  0  0  0  0
 38 78  2  0  0  0  0
 39 64  1  0  0  0  0
 39 74  1  0  0  0  0
 39 79  2  0  0  0  0
 40 69  1  0  0  0  0
 40 72  1  0  0  0  0
 40 80  2  0  0  0  0
 41 44  1  0  0  0  0
 42 51  1  0  0  0  0
 43 68  1  0  0  0  0
 44 46  1  0  0  0  0
 45 47  1  0  0  0  0
 45 48  1  0  0  0  0
 46 50  1  0  0  0  0
 47 52  1  0  0  0  0
 48 69  1  0  0  0  0
 49 52  1  0  0  0  0
 49 69  1  0  0  0  0
 50 73  1  0  0  0  0
 51 68  1  0  0  0  0
 52 67  1  0  0  0  0
 53 64  1  0  0  0  0
 54 65  1  0  0  0  0
 55 65  1  0  0  0  0
 56 65  1  0  0  0  0
 57 75  1  0  0  0  0
 59 60  1  0  0  0  0
 59 61  1  0  0  0  0
 60 62  1  0  0  0  0
 61 82  1  0  0  0  0
 62 83  1  0  0  0  0
 63 65  1  0  0  0  0
 63 74  1  0  0  0  0
 64 75  1  0  0  0  0
 66 67  1  0  0  0  0
M  CHG  1  75   1
M  ISO  4  40 100  61 101  72 100  82 101
M  END
> <Batch ID>
0108

> <Smiles>
C=CCc1cc(OCCC[101CH2:1][101O:1]c2ccc3c(c2)CN(C(=O)C(NC(=O)C(C)NC)C(C)(C)C)C(C(=O)NC2CCCc4ccccc42)C3)cc(F)c1[100NH:0][100C:0](=O)N1CCCC(n2nc(-c3ccc(Oc4ccc(F)cc4F)cc3)c(C(N)=O)c2N)C1

> <Shape>
0.249

> <Color>
0.109

> <Negative vol penalty>
0.000

$$$$

  -OEChem-04052301203D

 88 97  0     1  0  0  0  0  0999 V2000
  -23.1582   -7.4817   24.2618 C   0  0  0  0  0  0  0  0  0  0  0  0
  -24.1776   -8.3648   24.6032 C   0  0  0  0  0  0  0  0  0  0  0  0
  -24.2751  -29.8457   24.1796 C   0  0  0  0  0  0  0  0  0  0  0  0
  -23.1278  -30.6309   22.2037 C   0  0  0  0  0  0  0  0  0  0  0  0
  -22.6531   -7.4708   22.9623 C   0  0  0  0  0  0  0  0  0  0  0  0
  -24.6932   -9.2367   23.6449 C   0  0  0  0  0  0  0  0  0  0  0  0
  -27.4771  -15.8052   22.9958 C   0  0  0  0  0  0  0  0  0  0  0  0
  -30.6929  -23.6682   20.6473 C   0  0  0  0  0  0  0  0  0  0  0  0
  -30.2861  -24.9969   20.5272 C   0  0  0  0  0  0  0  0  0  0  0  0
  -23.0519  -29.4937   24.7500 C   0  0  0  0  0  0  0  0  0  0  0  0
  -21.9045  -30.2789   22.7741 C   0  0  0  0  0  0  0  0  0  0  0  0
  -28.5941  -16.4547   22.4721 C   0  0  0  0  0  0  0  0  0  0  0  0
  -20.0980  -27.4626   23.2489 C   0  0  0  0  0  0  0  0  0  0  0  0
  -19.1805  -26.7861   22.4451 C   0  0  0  0  0  0  0  0  0  0  0  0
  -27.5894  -16.4019   20.2796 C   0  0  0  0  0  0  0  0  0  0  0  0
  -30.2995  -24.7834   18.1206 C   0  0  0  0  0  0  0  0  0  0  0  0
  -17.5883  -28.5764   22.7557 C   0  0  0  0  0  0  0  0  0  0  0  0
  -24.3131  -30.4143   22.9064 C   0  0  0  0  0  0  0  0  0  0  0  0
  -26.5165  -31.6971   22.8213 C   0  0  0  0  0  0  0  0  0  0  0  0
  -23.1561   -8.3498   21.9902 C   0  0  0  0  0  0  0  0  0  0  0  0
  -26.4108  -15.4388   22.1620 C   0  0  0  0  0  0  0  0  0  0  0  0
  -24.1952   -9.2367   22.3309 C   0  0  0  0  0  0  0  0  0  0  0  0
  -26.4588  -15.7501   20.7957 C   0  0  0  0  0  0  0  0  0  0  0  0
  -30.7064  -23.4546   18.2408 C   0  0  0  0  0  0  0  0  0  0  0  0
  -30.9031  -22.8970   19.5041 C   0  0  0  0  0  0  0  0  0  0  0  0
  -30.0894  -25.5546   19.2638 C   0  0  0  0  0  0  0  0  0  0  0  0
  -21.8666  -29.7103   24.0473 C   0  0  0  0  0  0  0  0  0  0  0  0
  -28.6516  -16.7505   21.1134 C   0  0  0  0  0  0  0  0  0  0  0  0
  -19.7606  -28.6960   23.8063 C   0  0  0  0  0  0  0  0  0  0  0  0
  -17.9257  -27.3430   22.1984 C   0  0  0  0  0  0  0  0  0  0  0  0
  -18.5057  -29.2529   23.5597 C   0  0  0  0  0  0  0  0  0  0  0  0
  -25.5763  -30.7787   22.3169 C   0  0  0  0  0  0  0  0  0  0  0  0
  -27.5357  -31.6856   21.9007 C   0  0  0  0  0  0  0  0  0  0  0  0
  -31.1105  -19.3520   20.6600 C   0  0  0  0  0  0  0  0  0  0  0  0
  -30.5834  -20.5541   20.3233 C   0  0  0  0  0  0  0  0  0  0  0  0
  -32.5001  -19.0401   20.1888 C   0  0  0  0  0  0  0  0  0  0  0  0
  -26.4724  -32.4897   24.0152 C   0  0  0  0  0  0  0  0  0  0  0  0
  -25.0610  -12.6852   21.3256 C   0  0  0  0  0  0  0  0  0  0  0  0
  -22.9282  -14.6290   19.8440 C   0  0  0  0  0  0  0  0  0  0  0  0
  -22.2655  -17.6703   18.4448 C   0  0  0  0  0  0  0  0  0  0  0  0
  -29.4352  -27.6111   17.9642 C   0  0  0  0  0  0  0  0  0  0  0  0
  -22.6109   -8.2685   20.5863 C   0  0  0  0  0  0  0  0  0  0  0  0
  -25.2013  -14.7627   22.7471 C   0  0  0  0  0  0  0  0  0  0  0  0
  -25.3316  -15.3963   19.8616 C   0  0  0  0  0  0  0  0  0  0  0  0
  -33.1120  -19.9458   19.1492 C   0  0  0  0  0  0  0  0  0  0  0  0
  -22.9540   -9.4836   19.7283 C   0  0  0  0  0  0  0  0  0  0  0  0
  -28.3690  -30.9313   17.2455 C   0  0  0  0  0  0  0  0  0  0  0  0
  -24.4292   -9.8422   19.8764 C   0  0  0  0  0  0  0  0  0  0  0  0
  -27.6226  -31.3547   18.5127 C   0  0  0  0  0  0  0  0  0  0  0  0
  -32.7605  -21.3976   19.4111 C   0  0  0  0  0  0  0  0  0  0  0  0
  -28.1405  -29.4566   16.9187 C   0  0  0  0  0  0  0  0  0  0  0  0
  -27.6800  -28.9491   19.2851 C   0  0  0  0  0  0  0  0  0  0  0  0
  -24.7635  -10.2150   21.3258 C   0  0  1  0  0  0  0  0  0  0  0  0
  -24.3986  -13.9764   21.7152 C   0  0  1  0  0  0  0  0  0  0  0  0
  -27.9319  -30.4104   19.6909 C   0  0  2  0  0  0  0  0  0  0  0  0
  -29.1228  -20.8425   20.6140 C   0  0  0  0  0  0  0  0  0  0  0  0
  -29.6146  -22.1923   16.3697 C   0  0  0  0  0  0  0  0  0  0  0  0
  -20.4462  -18.9497   17.2826 C   0  0  0  0  0  0  0  0  0  0  0  0
  -23.4527  -13.0479   17.2876 C   0  0  0  0  0  0  0  0  0  0  0  0
  -22.3840  -14.9099   15.9996 C   0  0  0  0  0  0  0  0  0  0  0  0
  -21.0528  -13.6326   17.6787 C   0  0  0  0  0  0  0  0  0  0  0  0
  -22.2014  -19.7330   20.5662 C   0  0  0  0  0  0  0  0  0  0  0  0
  -30.9256  -22.6516   17.0000 C   0  0  0  0  0  0  0  0  0  0  0  0
  -30.4433  -18.2742   21.4657 C   0  0  0  0  0  0  0  0  0  1  0  0
  -22.8231  -15.2532   18.4735 C   0  0  1  0  0  0  0  0  0  0  0  0
  -21.0986  -18.6259   18.6176 C   0  0  2  0  0  0  0  0  0  0  0  0
  -22.4504  -14.2160   17.3768 C   0  0  0  0  0  0  0  0  0  0  0  0
  -25.9638  -30.2242   21.1652 N   0  0  0  0  0  0  0  0  0  0  0  0
  -27.1587  -30.7959   20.9382 N   0  0  0  0  0  0  0  0  0  0  0  0
  -31.3184  -21.5446   19.6457 N   0  0  0  0  0  0  0  0  0  0  0  0
  -24.1734  -14.7304   20.4803 N   0  0  0  0  0  0  0  0  0  0  0  0
  -28.4579  -28.6222   18.0797 N   0  0  0  0  0  0  0  0  0  0  0  0
  -28.7088  -32.3499   21.8287 N   0  0  0  0  0  0  0  0  0  0  0  0
  -25.8992  -33.7670   23.9485 N   0  0  0  0  0  0  0  0  0  0  0  0
  -29.6755  -26.9043   19.1420 N   0  0  0  0  0  0  0  0  0  0  0  0
  -24.3150  -11.5595   21.6182 N   0  0  0  0  0  0  0  0  0  0  0  0
  -21.8768  -16.3564   18.5989 N   0  0  0  0  0  0  0  0  0  0  0  0
  -21.5602  -19.9005   19.2366 N   0  3  0  0  0  0  0  0  0  0  0  0
  -33.0902  -18.0317   20.5736 O   0  0  0  0  0  0  0  0  0  0  0  0
  -26.9426  -32.0840   25.1051 O   0  0  0  0  0  0  0  0  0  0  0  0
  -26.1664  -12.7087   20.7972 O   0  0  0  0  0  0  0  0  0  0  0  0
  -21.9397  -14.0781   20.3350 O   0  0  0  0  0  0  0  0  0  0  0  0
  -23.4069  -18.0512   18.1943 O   0  0  0  0  0  0  0  0  0  0  0  0
  -30.0356  -27.4068   16.9060 O   0  0  0  0  0  0  0  0  0  0  0  0
  -20.6728  -29.3667   24.6035 O   0  0  0  0  0  0  0  0  0  0  0  0
  -29.7410  -17.3838   20.5995 O   0  0  0  0  0  0  0  0  0  1  0  0
  -17.0453  -26.6940   21.4252 F   0  0  0  0  0  0  0  0  0  0  0  0
  -18.1763  -30.4380   24.0914 F   0  0  0  0  0  0  0  0  0  0  0  0
  1  2  1  0  0  0  0
  1  5  2  0  0  0  0
  2  6  2  0  0  0  0
  3 10  2  0  0  0  0
  3 18  1  0  0  0  0
  4 11  1  0  0  0  0
  4 18  2  0  0  0  0
  5 20  1  0  0  0  0
  6 22  1  0  0  0  0
  7 12  2  0  0  0  0
  7 21  1  0  0  0  0
  8  9  2  0  0  0  0
  8 25  1  0  0  0  0
  9 26  1  0  0  0  0
 10 27  1  0  0  0  0
 11 27  2  0  0  0  0
 12 28  1  0  0  0  0
 13 14  2  0  0  0  0
 13 29  1  0  0  0  0
 14 30  1  0  0  0  0
 15 23  1  0  0  0  0
 15 28  2  0  0  0  0
 16 24  1  0  0  0  0
 16 26  2  0  0  0  0
 17 30  2  0  0  0  0
 17 31  1  0  0  0  0
 18 32  1  0  0  0  0
 19 32  1  0  0  0  0
 19 33  2  0  0  0  0
 19 37  1  0  0  0  0
 20 22  2  0  0  0  0
 20 42  1  0  0  0  0
 21 23  2  0  0  0  0
 21 43  1  0  0  0  0
 22 53  1  0  0  0  0
 23 44  1  0  0  0  0
 24 25  2  0  0  0  0
 24 63  1  0  0  0  0
 25 70  1  0  0  0  0
 26 75  1  0  0  0  0
 27 85  1  0  0  0  0
 28 86  1  0  0  0  0
 29 31  2  0  0  0  0
 29 85  1  0  0  0  0
 30 87  1  0  0  0  0
 31 88  1  0  0  0  0
 32 68  2  0  0  0  0
 33 69  1  0  0  0  0
 33 73  1  0  0  0  0
 34 35  2  0  0  0  0
 34 36  1  0  0  0  0
 34 64  1  0  0  0  0
 35 56  1  0  0  0  0
 35 70  1  0  0  0  0
 36 45  1  0  0  0  0
 36 79  2  0  0  0  0
 37 74  1  0  0  0  0
 37 80  2  0  0  0  0
 38 54  1  0  0  0  0
 38 76  1  0  0  0  0
 38 81  2  0  0  0  0
 39 65  1  0  0  0  0
 39 71  1  0  0  0  0
 39 82  2  0  0  0  0
 40 66  1  0  0  0  0
 40 77  1  0  0  0  0
 40 83  2  0  0  0  0
 41 72  1  0  0  0  0
 41 75  1  0  0  0  0
 41 84  2  0  0  0  0
 42 46  1  0  0  0  0
 43 54  1  0  0  0  0
 44 71  1  0  0  0  0
 45 50  1  0  0  0  0
 46 48  1  0  0  0  0
 47 49  1  0  0  0  0
 47 51  1  0  0  0  0
 48 53  1  0  0  0  0
 49 55  1  0  0  0  0
 50 70  1  0  0  0  0
 51 72  1  0  0  0  0
 52 55  1  0  0  0  0
 52 72  1  0  0  0  0
 53 76  1  0  0  0  0
 54 71  1  0  0  0  0
 55 69  1  0  0  0  0
 57 63  1  0  0  0  0
 58 66  1  0  0  0  0
 59 67  1  0  0  0  0
 60 67  1  0  0  0  0
 61 67  1  0  0  0  0
 62 78  1  0  0  0  0
 64 86  1  0  0  0  0
 65 67  1  0  0  0  0
 65 77  1  0  0  0  0
 66 78  1  0  0  0  0
 68 69  1  0  0  0  0
M  CHG  1  78   1
M  ISO  4  41 100  64 101  75 100  86 101
M  END
> <Batch ID>
0108

> <Smiles>
CCc1cc([100NH:0][100C:0](=O)N2CCCC(n3nc(-c4ccc(Oc5ccc(F)cc5F)cc4)c(C(N)=O)c3N)C2)ccc1N1CCC(=O)C([101CH2:1][101O:1]c2ccc3c(c2)CN(C(=O)C(NC(=O)C(C)NC)C(C)(C)C)C(C(=O)NC2CCCc4ccccc42)C3)=C1C

> <Shape>
0.288

> <Color>
0.065

> <Negative vol penalty>
0.000

$$$$

  -OEChem-04052301203D

 83 91  0     1  0  0  0  0  0999 V2000
  -19.7687  -36.0895   18.2423 C   0  0  0  0  0  0  0  0  0  0  0  0
  -21.0431  -35.7040   17.8388 C   0  0  0  0  0  0  0  0  0  0  0  0
  -24.6879   -9.3104   20.9248 C   0  0  0  0  0  0  0  0  0  0  0  0
  -24.8766  -10.2068   23.1604 C   0  0  0  0  0  0  0  0  0  0  0  0
  -28.9675  -21.4732   20.9930 C   0  0  0  0  0  0  0  0  0  0  0  0
  -19.4542  -36.1406   19.5996 C   0  0  0  0  0  0  0  0  0  0  0  0
  -22.0041  -35.3704   18.7926 C   0  0  0  0  0  0  0  0  0  0  0  0
  -25.1062  -28.8690   18.8147 C   0  0  0  0  0  0  0  0  0  0  0  0
  -29.1181  -20.0896   20.9008 C   0  0  0  0  0  0  0  0  0  0  0  0
  -24.4429   -8.0432   21.4536 C   0  0  0  0  0  0  0  0  0  0  0  0
  -24.6315   -8.9396   23.6892 C   0  0  0  0  0  0  0  0  0  0  0  0
  -25.8975  -27.7216   18.7567 C   0  0  0  0  0  0  0  0  0  0  0  0
  -21.8400   -6.3771   22.8255 C   0  0  0  0  0  0  0  0  0  0  0  0
  -20.7995   -5.6328   22.2696 C   0  0  0  0  0  0  0  0  0  0  0  0
  -27.0700  -28.4162   20.7544 C   0  0  0  0  0  0  0  0  0  0  0  0
  -26.8688  -19.7896   21.7301 C   0  0  0  0  0  0  0  0  0  0  0  0
  -22.3662   -3.8972   21.6611 C   0  0  0  0  0  0  0  0  0  0  0  0
  -24.9048  -10.3923   21.7782 C   0  0  0  0  0  0  0  0  0  0  0  0
  -27.7676  -22.0151   21.4538 C   0  0  0  0  0  0  0  0  0  0  0  0
  -24.2071  -12.6898   20.9168 C   0  0  0  0  0  0  0  0  0  0  0  0
  -20.4089  -35.7982   20.5702 C   0  0  0  0  0  0  0  0  0  0  0  0
  -25.2836  -29.7879   19.8527 C   0  0  0  0  0  0  0  0  0  0  0  0
  -21.7024  -35.4182   20.1642 C   0  0  0  0  0  0  0  0  0  0  0  0
  -26.2719  -29.5612   20.8247 C   0  0  0  0  0  0  0  0  0  0  0  0
  -28.0688  -19.2478   21.2694 C   0  0  0  0  0  0  0  0  0  0  0  0
  -24.4147   -7.8577   22.8358 C   0  0  0  0  0  0  0  0  0  0  0  0
  -26.8771  -27.4959   19.7241 C   0  0  0  0  0  0  0  0  0  0  0  0
  -23.1436   -5.8815   22.7991 C   0  0  0  0  0  0  0  0  0  0  0  0
  -26.7182  -21.1732   21.8223 C   0  0  0  0  0  0  0  0  0  0  0  0
  -21.0626   -4.3929   21.6874 C   0  0  0  0  0  0  0  0  0  0  0  0
  -23.4067   -4.6416   22.2169 C   0  0  0  0  0  0  0  0  0  0  0  0
  -25.1585  -11.7015   21.2326 C   0  0  0  0  0  0  0  0  0  0  0  0
  -24.9497  -13.7395   20.4341 C   0  0  0  0  0  0  0  0  0  0  0  0
  -27.6343  -23.4788   21.5431 C   0  0  0  0  0  0  0  0  0  0  0  0
  -28.2760  -24.3635   20.7641 C   0  0  0  0  0  0  0  0  0  0  0  0
  -22.7796  -12.6615   21.0481 C   0  0  0  0  0  0  0  0  0  0  0  0
  -24.1904  -33.0048   21.4441 C   0  0  0  0  0  0  0  0  0  0  0  0
  -24.7266  -31.0211   23.7218 C   0  0  0  0  0  0  0  0  0  0  0  0
  -25.0181  -28.4183   25.9075 C   0  0  0  0  0  0  0  0  0  0  0  0
  -29.3464  -17.1424   20.7390 C   0  0  0  0  0  0  0  0  0  0  0  0
  -20.0367  -35.9142   22.0272 C   0  0  0  0  0  0  0  0  0  0  0  0
  -24.4958  -31.0680   19.9203 C   0  0  0  0  0  0  0  0  0  0  0  0
  -26.4506  -30.5942   21.9035 C   0  0  0  0  0  0  0  0  0  0  0  0
  -20.9982  -35.1841   22.9614 C   0  0  0  0  0  0  0  0  0  0  0  0
  -29.8372  -13.9979   19.1427 C   0  0  0  0  0  0  0  0  0  0  0  0
  -22.4442  -35.4983   22.5910 C   0  0  0  0  0  0  0  0  0  0  0  0
  -28.5854  -13.2014   19.5181 C   0  0  0  0  0  0  0  0  0  0  0  0
  -30.3040  -14.8941   20.2884 C   0  0  0  0  0  0  0  0  0  0  0  0
  -28.0229  -14.9887   21.2140 C   0  0  0  0  0  0  0  0  0  0  0  0
  -22.7645  -35.0250   21.1680 C   0  0  1  0  0  0  0  0  0  0  0  0
  -24.1796  -31.5067   21.3614 C   0  0  1  0  0  0  0  0  0  0  0  0
  -27.4771  -14.1200   20.0689 C   0  0  2  0  0  0  0  0  0  0  0  0
  -24.3234  -22.4228   24.2016 C   0  0  0  0  0  0  0  0  0  0  0  0
  -24.8489  -27.8690   28.3503 C   0  0  0  0  0  0  0  0  0  0  0  0
  -27.4360  -32.3375   24.2017 C   0  0  0  0  0  0  0  0  0  0  0  0
  -27.6452  -30.9800   26.2949 C   0  0  0  0  0  0  0  0  0  0  0  0
  -25.7894  -32.6304   26.0611 C   0  0  0  0  0  0  0  0  0  0  0  0
  -22.8191  -26.4933   25.4411 C   0  0  0  0  0  0  0  0  0  0  0  0
  -28.1188  -25.8440   20.9017 C   0  0  0  0  0  0  0  0  0  1  0  0
  -25.1339  -21.2992   23.5914 C   0  0  0  0  0  0  0  0  0  0  0  0
  -25.7156  -30.4849   24.7256 C   0  0  1  0  0  0  0  0  0  0  0  0
  -24.1099  -27.9325   27.0227 C   0  0  2  0  0  0  0  0  0  0  0  0
  -26.6425  -31.5955   25.2957 C   0  0  0  0  0  0  0  0  0  0  0  0
  -26.4100  -12.0886   20.9722 N   0  0  0  0  0  0  0  0  0  0  0  0
  -26.2501  -13.3319   20.4877 N   0  0  0  0  0  0  0  0  0  0  0  0
  -25.1373  -31.0518   22.3835 N   0  0  0  0  0  0  0  0  0  0  0  0
  -29.2028  -15.7389   20.7559 N   0  0  0  0  0  0  0  0  0  0  0  0
  -24.6107  -14.9623   19.9732 N   0  0  0  0  0  0  0  0  0  0  0  0
  -22.1787  -11.5043   21.5620 N   0  0  0  0  0  0  0  0  0  0  0  0
  -28.2221  -17.8423   21.1757 N   0  0  0  0  0  0  0  0  0  0  0  0
  -22.9761  -33.5935   21.1471 N   0  0  0  0  0  0  0  0  0  0  0  0
  -24.9316  -29.7838   25.7366 N   0  0  0  0  0  0  0  0  0  0  0  0
  -23.5877  -26.5722   26.7099 N   0  3  0  0  0  0  0  0  0  0  0  0
  -22.0570  -13.6275   20.7041 O   0  0  0  0  0  0  0  0  0  0  0  0
  -25.2237  -33.5852   21.7560 O   0  0  0  0  0  0  0  0  0  0  0  0
  -23.6214  -31.4082   24.1115 O   0  0  0  0  0  0  0  0  0  0  0  0
  -25.7356  -27.6625   25.2559 O   0  0  0  0  0  0  0  0  0  0  0  0
  -30.3801  -17.6842   20.3391 O   0  0  0  0  0  0  0  0  0  0  0  0
  -24.1754   -6.6213   23.3521 O   0  0  0  0  0  0  0  0  0  0  0  0
  -27.6430  -26.3714   19.6641 O   0  0  0  0  0  0  0  0  0  1  0  0
  -25.5353  -21.6771   22.2768 O   0  0  0  0  0  0  0  0  0  0  0  0
  -20.0631   -3.6775   21.1550 F   0  0  0  0  0  0  0  0  0  0  0  0
  -24.6569   -4.1597   22.1897 F   0  0  0  0  0  0  0  0  0  0  0  0
  1  2  1  0  0  0  0
  1  6  2  0  0  0  0
  2  7  2  0  0  0  0
  3 10  2  0  0  0  0
  3 18  1  0  0  0  0
  4 11  1  0  0  0  0
  4 18  2  0  0  0  0
  5  9  2  0  0  0  0
  5 19  1  0  0  0  0
  6 21  1  0  0  0  0
  7 23  1  0  0  0  0
  8 12  2  0  0  0  0
  8 22  1  0  0  0  0
  9 25  1  0  0  0  0
 10 26  1  0  0  0  0
 11 26  2  0  0  0  0
 12 27  1  0  0  0  0
 13 14  2  0  0  0  0
 13 28  1  0  0  0  0
 14 30  1  0  0  0  0
 15 24  1  0  0  0  0
 15 27  2  0  0  0  0
 16 25  2  0  0  0  0
 16 29  1  0  0  0  0
 17 30  2  0  0  0  0
 17 31  1  0  0  0  0
 18 32  1  0  0  0  0
 19 29  2  0  0  0  0
 19 34  1  0  0  0  0
 20 32  1  0  0  0  0
 20 33  2  0  0  0  0
 20 36  1  0  0  0  0
 21 23  2  0  0  0  0
 21 41  1  0  0  0  0
 22 24  2  0  0  0  0
 22 42  1  0  0  0  0
 23 50  1  0  0  0  0
 24 43  1  0  0  0  0
 25 70  1  0  0  0  0
 26 79  1  0  0  0  0
 27 80  1  0  0  0  0
 28 31  2  0  0  0  0
 28 79  1  0  0  0  0
 29 81  1  0  0  0  0
 30 82  1  0  0  0  0
 31 83  1  0  0  0  0
 32 64  2  0  0  0  0
 33 65  1  0  0  0  0
 33 68  1  0  0  0  0
 34 35  2  0  0  0  0
 35 59  1  0  0  0  0
 36 69  1  0  0  0  0
 36 74  2  0  0  0  0
 37 51  1  0  0  0  0
 37 71  1  0  0  0  0
 37 75  2  0  0  0  0
 38 61  1  0  0  0  0
 38 66  1  0  0  0  0
 38 76  2  0  0  0  0
 39 62  1  0  0  0  0
 39 72  1  0  0  0  0
 39 77  2  0  0  0  0
 40 67  1  0  0  0  0
 40 70  1  0  0  0  0
 40 78  2  0  0  0  0
 41 44  1  0  0  0  0
 42 51  1  0  0  0  0
 43 66  1  0  0  0  0
 44 46  1  0  0  0  0
 45 47  1  0  0  0  0
 45 48  1  0  0  0  0
 46 50  1  0  0  0  0
 47 52  1  0  0  0  0
 48 67  1  0  0  0  0
 49 52  1  0  0  0  0
 49 67  1  0  0  0  0
 50 71  1  0  0  0  0
 51 66  1  0  0  0  0
 52 65  1  0  0  0  0
 53 60  1  0  0  0  0
 54 62  1  0  0  0  0
 55 63  1  0  0  0  0
 56 63  1  0  0  0  0
 57 63  1  0  0  0  0
 58 73  1  0  0  0  0
 59 80  1  0  0  0  0
 60 81  1  0  0  0  0
 61 63  1  0  0  0  0
 61 72  1  0  0  0  0
 62 73  1  0  0  0  0
 64 65  1  0  0  0  0
M  CHG  1  73   1
M  ISO  4  40 100  59 101  70 100  80 101
M  END
> <Batch ID>
0108

> <Smiles>
CCOc1cc([100NH:0][100C:0](=O)N2CCCC(n3nc(-c4ccc(Oc5ccc(F)cc5F)cc4)c(C(N)=O)c3N)C2)ccc1C=C[101CH2:1][101O:1]c1ccc2c(c1)CN(C(=O)C(NC(=O)C(C)NC)C(C)(C)C)C(C(=O)NC1CCCc3ccccc31)C2

> <Shape>
0.280

> <Color>
0.146

> <Negative vol penalty>
0.000

$$$$

  -OEChem-04052301203D

 86 95  0     1  0  0  0  0  0999 V2000
  -24.8271  -30.7932   28.3843 C   0  0  0  0  0  0  0  0  0  0  0  0
  -24.8216  -29.8427   27.3684 C   0  0  0  0  0  0  0  0  0  0  0  0
  -23.0763   -9.7763   20.0073 C   0  0  0  0  0  0  0  0  0  0  0  0
  -23.6830   -9.9898   22.3361 C   0  0  0  0  0  0  0  0  0  0  0  0
  -24.1135  -31.9810   28.2299 C   0  0  0  0  0  0  0  0  0  0  0  0
  -24.1015  -30.0791   26.1980 C   0  0  0  0  0  0  0  0  0  0  0  0
  -26.7194  -28.8824   22.0314 C   0  0  0  0  0  0  0  0  0  0  0  0
  -22.3174   -8.6455   20.3087 C   0  0  0  0  0  0  0  0  0  0  0  0
  -22.9240   -8.8590   22.6375 C   0  0  0  0  0  0  0  0  0  0  0  0
  -26.8033  -27.5312   21.6984 C   0  0  0  0  0  0  0  0  0  0  0  0
  -23.2504   -5.5025   22.3963 C   0  0  0  0  0  0  0  0  0  0  0  0
  -23.8169   -4.5480   23.2410 C   0  0  0  0  0  0  0  0  0  0  0  0
  -28.4720  -18.8708   20.5530 C   0  0  0  0  0  0  0  0  0  0  0  0
  -25.0536  -27.8313   20.0651 C   0  0  0  0  0  0  0  0  0  0  0  0
  -29.6163  -20.3289   22.1325 C   0  0  0  0  0  0  0  0  0  0  0  0
  -22.0065   -4.8618   24.8098 C   0  0  0  0  0  0  0  0  0  0  0  0
  -23.7593  -10.4484   21.0210 C   0  0  0  0  0  0  0  0  0  0  0  0
  -29.2807  -17.8469   21.0076 C   0  0  0  0  0  0  0  0  0  0  0  0
  -24.1088  -12.9550   20.7011 C   0  0  0  0  0  0  0  0  0  0  0  0
  -23.3922  -32.2362   27.0530 C   0  0  0  0  0  0  0  0  0  0  0  0
  -25.7928  -29.7173   21.3904 C   0  0  0  0  0  0  0  0  0  0  0  0
  -23.3765  -31.2708   26.0282 C   0  0  0  0  0  0  0  0  0  0  0  0
  -24.9617  -29.1933   20.3900 C   0  0  0  0  0  0  0  0  0  0  0  0
  -30.2424  -18.0305   21.9955 C   0  0  0  0  0  0  0  0  0  0  0  0
  -30.4241  -19.2744   22.5704 C   0  0  0  0  0  0  0  0  0  0  0  0
  -28.6484  -20.1283   21.1317 C   0  0  0  0  0  0  0  0  0  0  0  0
  -22.2411   -8.1868   21.6238 C   0  0  0  0  0  0  0  0  0  0  0  0
  -25.9684  -27.0048   20.7171 C   0  0  0  0  0  0  0  0  0  0  0  0
  -22.0620   -6.1367   22.7583 C   0  0  0  0  0  0  0  0  0  0  0  0
  -23.1950   -4.2276   24.4477 C   0  0  0  0  0  0  0  0  0  0  0  0
  -21.4400   -5.8164   23.9651 C   0  0  0  0  0  0  0  0  0  0  0  0
  -24.5439  -11.6162   20.7103 C   0  0  0  0  0  0  0  0  0  0  0  0
  -25.2227  -13.6757   20.3457 C   0  0  0  0  0  0  0  0  0  0  0  0
  -29.3186  -16.4457   20.5825 C   0  0  0  0  0  0  0  0  0  0  0  0
  -22.8135  -13.4986   20.9882 C   0  0  0  0  0  0  0  0  0  0  0  0
  -23.2979  -31.4438   22.3381 C   0  0  0  0  0  0  0  0  0  0  0  0
  -26.9815  -23.4583   20.5902 C   0  0  0  0  0  0  0  0  0  0  0  0
  -23.3252  -32.4595   19.2575 C   0  0  0  0  0  0  0  0  0  0  0  0
  -24.2060  -31.8568   16.0160 C   0  0  0  0  0  0  0  0  0  0  0  0
  -30.7723  -14.4861   21.2602 C   0  0  0  0  0  0  0  0  0  0  0  0
  -22.5975  -33.5140   26.9513 C   0  0  0  0  0  0  0  0  0  0  0  0
  -25.7332  -31.1784   21.7423 C   0  0  0  0  0  0  0  0  0  0  0  0
  -23.9641  -30.0517   19.6577 C   0  0  0  0  0  0  0  0  0  0  0  0
  -30.9637  -16.7581   22.2579 C   0  0  0  0  0  0  0  0  0  0  0  0
  -22.1652  -33.8507   25.5265 C   0  0  0  0  0  0  0  0  0  0  0  0
  -29.7025  -12.1945   18.5587 C   0  0  0  0  0  0  0  0  0  0  0  0
  -21.5831  -32.6191   24.8402 C   0  0  0  0  0  0  0  0  0  0  0  0
  -28.2521  -11.8924   18.9298 C   0  0  0  0  0  0  0  0  0  0  0  0
  -30.5465  -12.5152   19.7883 C   0  0  0  0  0  0  0  0  0  0  0  0
  -28.5395  -13.3189   20.9957 C   0  0  0  0  0  0  0  0  0  0  0  0
  -22.6276  -31.5015   24.7336 C   0  0  1  0  0  0  0  0  0  0  0  0
  -24.3975  -31.8244   21.3875 C   0  0  1  0  0  0  0  0  0  0  0  0
  -27.6566  -13.0337   19.7712 C   0  0  2  0  0  0  0  0  0  0  0  0
  -31.4500  -19.5001   23.6254 C   0  0  0  0  0  0  0  0  0  0  0  0
  -24.0603  -32.8530   13.7173 C   0  0  0  0  0  0  0  0  0  0  0  0
  -20.3871  -31.6521   19.0966 C   0  0  0  0  0  0  0  0  0  0  0  0
  -20.5642  -31.7673   16.6019 C   0  0  0  0  0  0  0  0  0  0  0  0
  -20.9370  -33.8177   17.9730 C   0  0  0  0  0  0  0  0  0  0  0  0
  -27.1515  -31.9869   15.7594 C   0  0  0  0  0  0  0  0  0  0  0  0
  -27.9730  -22.5272   21.2550 C   0  0  0  0  0  0  0  0  0  0  0  0
  -26.9993  -24.8928   21.0814 C   0  0  0  0  0  0  0  0  0  1  0  0
  -22.6863  -31.9922   17.9721 C   0  0  1  0  0  0  0  0  0  0  0  0
  -24.8964  -32.7271   14.9813 C   0  0  2  0  0  0  0  0  0  0  0  0
  -21.1610  -32.2905   17.9258 C   0  0  0  0  0  0  0  0  0  0  0  0
  -25.8336  -11.4910   20.3863 N   0  0  0  0  0  0  0  0  0  0  0  0
  -26.2185  -12.7604   20.1701 N   0  0  0  0  0  0  0  0  0  0  0  0
  -30.2634  -15.7890   21.4102 N   0  0  0  0  0  0  0  0  0  0  0  0
  -23.9393  -31.4728   20.0419 N   0  0  0  0  0  0  0  0  0  0  0  0
  -29.9363  -13.5642   20.6063 N   0  0  0  0  0  0  0  0  0  0  0  0
  -25.4377  -14.9967   20.1693 N   0  0  0  0  0  0  0  0  0  0  0  0
  -21.7813  -12.6170   21.3372 N   0  0  0  0  0  0  0  0  0  0  0  0
  -27.8487  -21.2125   20.7082 N   0  0  0  0  0  0  0  0  0  0  0  0
  -23.5529  -31.7756   23.6551 N   0  0  0  0  0  0  0  0  0  0  0  0
  -23.4484  -32.6068   16.8905 N   0  0  0  0  0  0  0  0  0  0  0  0
  -26.2185  -32.1453   14.6143 N   0  3  0  0  0  0  0  0  0  0  0  0
  -28.6421  -16.0105   19.6679 O   0  0  0  0  0  0  0  0  0  0  0  0
  -22.5742  -14.7281   20.9209 O   0  0  0  0  0  0  0  0  0  0  0  0
  -22.2920  -30.8914   21.9084 O   0  0  0  0  0  0  0  0  0  0  0  0
  -26.2076  -23.0867   19.7089 O   0  0  0  0  0  0  0  0  0  0  0  0
  -23.2873  -33.6569   19.5513 O   0  0  0  0  0  0  0  0  0  0  0  0
  -24.3238  -30.6338   16.0432 O   0  0  0  0  0  0  0  0  0  0  0  0
  -31.9123  -14.1963   21.6408 O   0  0  0  0  0  0  0  0  0  0  0  0
  -21.5004   -7.0836   21.9183 O   0  0  0  0  0  0  0  0  0  0  0  0
  -26.0487  -25.6724   20.3872 O   0  0  0  0  0  0  0  0  0  1  0  0
  -23.7383   -3.3098   25.2581 F   0  0  0  0  0  0  0  0  0  0  0  0
  -20.2975   -6.4215   24.3177 F   0  0  0  0  0  0  0  0  0  0  0  0
  1  2  1  0  0  0  0
  1  5  2  0  0  0  0
  2  6  2  0  0  0  0
  3  8  2  0  0  0  0
  3 17  1  0  0  0  0
  4  9  1  0  0  0  0
  4 17  2  0  0  0  0
  5 20  1  0  0  0  0
  6 22  1  0  0  0  0
  7 10  2  0  0  0  0
  7 21  1  0  0  0  0
  8 27  1  0  0  0  0
  9 27  2  0  0  0  0
 10 28  1  0  0  0  0
 11 12  2  0  0  0  0
 11 29  1  0  0  0  0
 12 30  1  0  0  0  0
 13 18  1  0  0  0  0
 13 26  2  0  0  0  0
 14 23  1  0  0  0  0
 14 28  2  0  0  0  0
 15 25  2  0  0  0  0
 15 26  1  0  0  0  0
 16 30  2  0  0  0  0
 16 31  1  0  0  0  0
 17 32  1  0  0  0  0
 18 24  2  0  0  0  0
 18 34  1  0  0  0  0
 19 32  1  0  0  0  0
 19 33  2  0  0  0  0
 19 35  1  0  0  0  0
 20 22  2  0  0  0  0
 20 41  1  0  0  0  0
 21 23  2  0  0  0  0
 21 42  1  0  0  0  0
 22 51  1  0  0  0  0
 23 43  1  0  0  0  0
 24 25  1  0  0  0  0
 24 44  1  0  0  0  0
 25 54  1  0  0  0  0
 26 72  1  0  0  0  0
 27 83  1  0  0  0  0
 28 84  1  0  0  0  0
 29 31  2  0  0  0  0
 29 83  1  0  0  0  0
 30 85  1  0  0  0  0
 31 86  1  0  0  0  0
 32 65  2  0  0  0  0
 33 66  1  0  0  0  0
 33 70  1  0  0  0  0
 34 67  1  0  0  0  0
 34 76  2  0  0  0  0
 35 71  1  0  0  0  0
 35 77  2  0  0  0  0
 36 52  1  0  0  0  0
 36 73  1  0  0  0  0
 36 78  2  0  0  0  0
 37 60  1  0  0  0  0
 37 61  1  0  0  0  0
 37 79  2  0  0  0  0
 38 62  1  0  0  0  0
 38 68  1  0  0  0  0
 38 80  2  0  0  0  0
 39 63  1  0  0  0  0
 39 74  1  0  0  0  0
 39 81  2  0  0  0  0
 40 67  1  0  0  0  0
 40 69  1  0  0  0  0
 40 82  2  0  0  0  0
 41 45  1  0  0  0  0
 42 52  1  0  0  0  0
 43 68  1  0  0  0  0
 44 67  1  0  0  0  0
 45 47  1  0  0  0  0
 46 48  1  0  0  0  0
 46 49  1  0  0  0  0
 47 51  1  0  0  0  0
 48 53  1  0  0  0  0
 49 69  1  0  0  0  0
 50 53  1  0  0  0  0
 50 69  1  0  0  0  0
 51 73  1  0  0  0  0
 52 68  1  0  0  0  0
 53 66  1  0  0  0  0
 55 63  1  0  0  0  0
 56 64  1  0  0  0  0
 57 64  1  0  0  0  0
 58 64  1  0  0  0  0
 59 75  1  0  0  0  0
 60 72  1  0  0  0  0
 61 84  1  0  0  0  0
 62 64  1  0  0  0  0
 62 74  1  0  0  0  0
 63 75  1  0  0  0  0
 65 66  1  0  0  0  0
M  CHG  1  75   1
M  ISO  4  40 100  61 101  67 100  84 101
M  END
> <Batch ID>
0108

> <Smiles>
CNC(C)C(=O)NC(C(=O)N1Cc2cc([101O:1][101CH2:1]C(=O)CNc3cc(C)c4c(c3)C(=O)[100N:0]([100C:0](=O)N3CCCC(n5nc(-c6ccc(Oc7ccc(F)cc7F)cc6)c(C(N)=O)c5N)C3)C4)ccc2CC1C(=O)NC1CCCc2ccccc21)C(C)(C)C

> <Shape>
0.305

> <Color>
0.198

> <Negative vol penalty>
0.000

$$$$

  -OEChem-04052301203D

 89 98  0     1  0  0  0  0  0999 V2000
  -34.4923  -24.6401   20.2298 C   0  0  0  0  0  0  0  0  0  0  0  0
  -33.7401  -25.4261   19.3643 C   0  0  0  0  0  0  0  0  0  0  0  0
  -27.4065  -15.1284   19.5307 C   0  0  0  0  0  0  0  0  0  0  0  0
  -27.1066  -16.9680   21.0679 C   0  0  0  0  0  0  0  0  0  0  0  0
  -33.9192  -24.1605   21.4057 C   0  0  0  0  0  0  0  0  0  0  0  0
  -32.4184  -25.7428   19.6800 C   0  0  0  0  0  0  0  0  0  0  0  0
  -25.2015  -28.9507   18.7590 C   0  0  0  0  0  0  0  0  0  0  0  0
  -18.9815  -22.2805   23.2000 C   0  0  0  0  0  0  0  0  0  0  0  0
  -19.3019  -23.6378   23.1745 C   0  0  0  0  0  0  0  0  0  0  0  0
  -28.7261  -15.5248   19.3137 C   0  0  0  0  0  0  0  0  0  0  0  0
  -28.4262  -17.3644   20.8510 C   0  0  0  0  0  0  0  0  0  0  0  0
  -23.8798  -28.8598   19.1935 C   0  0  0  0  0  0  0  0  0  0  0  0
  -30.1679  -19.0379   18.4852 C   0  0  0  0  0  0  0  0  0  0  0  0
  -30.4110  -20.3957   18.2784 C   0  0  0  0  0  0  0  0  0  0  0  0
  -24.6179  -29.1252   21.4747 C   0  0  0  0  0  0  0  0  0  0  0  0
  -18.0080  -23.9053   21.1518 C   0  0  0  0  0  0  0  0  0  0  0  0
  -31.8494  -20.4338   20.2193 C   0  0  0  0  0  0  0  0  0  0  0  0
  -26.5967  -15.8500   20.4078 C   0  0  0  0  0  0  0  0  0  0  0  0
  -24.7888  -14.2066   21.1414 C   0  0  0  0  0  0  0  0  0  0  0  0
  -32.5859  -24.4615   21.7292 C   0  0  0  0  0  0  0  0  0  0  0  0
  -26.2441  -29.1188   19.6815 C   0  0  0  0  0  0  0  0  0  0  0  0
  -31.8294  -25.2881   20.8738 C   0  0  0  0  0  0  0  0  0  0  0  0
  -25.9517  -29.2205   21.0491 C   0  0  0  0  0  0  0  0  0  0  0  0
  -18.1745  -21.7355   22.2013 C   0  0  0  0  0  0  0  0  0  0  0  0
  -18.8151  -24.4502   22.1504 C   0  0  0  0  0  0  0  0  0  0  0  0
  -29.2360  -16.6428   19.9739 C   0  0  0  0  0  0  0  0  0  0  0  0
  -23.5881  -28.9442   20.5517 C   0  0  0  0  0  0  0  0  0  0  0  0
  -30.7654  -18.3780   19.5591 C   0  0  0  0  0  0  0  0  0  0  0  0
  -17.6877  -22.5479   21.1772 C   0  0  0  0  0  0  0  0  0  0  0  0
  -31.2518  -21.0937   19.1454 C   0  0  0  0  0  0  0  0  0  0  0  0
  -31.6062  -19.0759   20.4261 C   0  0  0  0  0  0  0  0  0  0  0  0
  -25.2333  -15.4414   20.6319 C   0  0  0  0  0  0  0  0  0  0  0  0
  -23.4198  -14.3160   21.1607 C   0  0  0  0  0  0  0  0  0  0  0  0
  -20.7300  -27.6461   22.3319 C   0  0  0  0  0  0  0  0  0  0  0  0
  -20.4465  -26.3520   22.0461 C   0  0  0  0  0  0  0  0  0  0  0  0
  -19.6085  -28.5298   22.7969 C   0  0  0  0  0  0  0  0  0  0  0  0
  -25.5456  -13.0631   21.5599 C   0  0  0  0  0  0  0  0  0  0  0  0
  -28.7975  -27.4192   20.5153 C   0  0  0  0  0  0  0  0  0  0  0  0
  -29.4687  -30.0352   22.3121 C   0  0  0  0  0  0  0  0  0  0  0  0
  -27.6371  -32.3311   24.4077 C   0  0  0  0  0  0  0  0  0  0  0  0
  -19.8537  -19.0048   21.5522 C   0  0  0  0  0  0  0  0  0  0  0  0
  -32.0183  -23.9227   23.0187 C   0  0  0  0  0  0  0  0  0  0  0  0
  -27.6618  -29.2418   19.1945 C   0  0  0  0  0  0  0  0  0  0  0  0
  -27.0327  -29.4214   22.0784 C   0  0  0  0  0  0  0  0  0  0  0  0
  -18.2585  -27.9056   23.0555 C   0  0  0  0  0  0  0  0  0  0  0  0
  -30.4935  -23.9387   23.0495 C   0  0  0  0  0  0  0  0  0  0  0  0
  -19.8071  -16.5182   18.9232 C   0  0  0  0  0  0  0  0  0  0  0  0
  -29.9794  -25.3073   22.6287 C   0  0  0  0  0  0  0  0  0  0  0  0
  -21.1649  -15.8417   19.1203 C   0  0  0  0  0  0  0  0  0  0  0  0
  -17.9893  -26.7389   22.1214 C   0  0  0  0  0  0  0  0  0  0  0  0
  -19.8947  -18.0194   19.1816 C   0  0  0  0  0  0  0  0  0  0  0  0
  -21.7950  -17.7085   20.7197 C   0  0  0  0  0  0  0  0  0  0  0  0
  -30.3805  -25.6200   21.1815 C   0  0  1  0  0  0  0  0  0  0  0  0
  -28.6932  -28.8970   20.2645 C   0  0  1  0  0  0  0  0  0  0  0  0
  -21.7680  -16.1856   20.4951 C   0  0  2  0  0  0  0  0  0  0  0  0
  -21.5344  -25.4398   21.5131 C   0  0  0  0  0  0  0  0  0  0  0  0
  -28.1018  -34.7249   25.0001 C   0  0  0  0  0  0  0  0  0  0  0  0
  -30.8503  -28.8575   24.7645 C   0  0  0  0  0  0  0  0  0  0  0  0
  -29.9298  -30.7581   26.1094 C   0  0  0  0  0  0  0  0  0  0  0  0
  -31.5043  -31.2110   24.2283 C   0  0  0  0  0  0  0  0  0  0  0  0
  -24.9723  -33.2038   23.4612 C   0  0  0  0  0  0  0  0  0  0  0  0
  -16.4448  -22.9330   19.1865 C   0  0  0  0  0  0  0  0  0  0  0  0
  -17.8415  -20.2808   22.2451 C   0  0  0  0  0  0  0  0  0  0  0  0
  -22.0811  -28.3011   22.2754 C   0  0  0  0  0  0  0  0  0  1  0  0
  -29.1385  -30.4813   23.7160 C   0  0  1  0  0  0  0  0  0  0  0  0
  -27.3162  -33.7828   24.1012 C   0  0  2  0  0  0  0  0  0  0  0  0
  -30.3384  -30.3099   24.6899 C   0  0  0  0  0  0  0  0  0  0  0  0
  -24.2282  -16.2739   20.3479 N   0  0  0  0  0  0  0  0  0  0  0  0
  -23.1385  -15.5610   20.6800 N   0  0  0  0  0  0  0  0  0  0  0  0
  -19.1417  -25.8307   22.1243 N   0  0  0  0  0  0  0  0  0  0  0  0
  -28.4038  -29.5294   21.5531 N   0  0  0  0  0  0  0  0  0  0  0  0
  -20.4593  -18.2783   20.5136 N   0  0  0  0  0  0  0  0  0  0  0  0
  -22.4412  -13.4677   21.5417 N   0  0  0  0  0  0  0  0  0  0  0  0
  -25.9506  -12.9835   22.8993 N   0  0  0  0  0  0  0  0  0  0  0  0
  -30.0596  -26.9999   20.8904 N   0  0  0  0  0  0  0  0  0  0  0  0
  -28.6503  -31.8515   23.6047 N   0  0  0  0  0  0  0  0  0  0  0  0
  -18.5923  -19.5169   21.2737 N   0  0  0  0  0  0  0  0  0  0  0  0
  -25.8629  -34.0453   24.3012 N   0  3  0  0  0  0  0  0  0  0  0  0
  -19.7977  -29.7260   23.0164 O   0  0  0  0  0  0  0  0  0  0  0  0
  -25.8677  -12.1471   20.7657 O   0  0  0  0  0  0  0  0  0  0  0  0
  -27.8059  -26.7120   20.3800 O   0  0  0  0  0  0  0  0  0  0  0  0
  -30.6273  -30.1385   21.9015 O   0  0  0  0  0  0  0  0  0  0  0  0
  -27.0505  -31.6880   25.2753 O   0  0  0  0  0  0  0  0  0  0  0  0
  -20.3948  -19.1799   22.6493 O   0  0  0  0  0  0  0  0  0  0  0  0
  -30.5237  -17.0297   19.7626 O   0  0  0  0  0  0  0  0  0  0  0  0
  -16.8983  -22.0313   20.1940 O   0  0  0  0  0  0  0  0  0  0  0  0
  -22.2991  -28.8552   20.9786 O   0  0  0  0  0  0  0  0  0  1  0  0
  -31.4864  -22.3972   18.9458 F   0  0  0  0  0  0  0  0  0  0  0  0
  -32.1841  -18.4470   21.4587 F   0  0  0  0  0  0  0  0  0  0  0  0
  1  2  1  0  0  0  0
  1  5  2  0  0  0  0
  2  6  2  0  0  0  0
  3 10  2  0  0  0  0
  3 18  1  0  0  0  0
  4 11  1  0  0  0  0
  4 18  2  0  0  0  0
  5 20  1  0  0  0  0
  6 22  1  0  0  0  0
  7 12  2  0  0  0  0
  7 21  1  0  0  0  0
  8  9  2  0  0  0  0
  8 24  1  0  0  0  0
  9 25  1  0  0  0  0
 10 26  1  0  0  0  0
 11 26  2  0  0  0  0
 12 27  1  0  0  0  0
 13 14  2  0  0  0  0
 13 28  1  0  0  0  0
 14 30  1  0  0  0  0
 15 23  1  0  0  0  0
 15 27  2  0  0  0  0
 16 25  2  0  0  0  0
 16 29  1  0  0  0  0
 17 30  2  0  0  0  0
 17 31  1  0  0  0  0
 18 32  1  0  0  0  0
 19 32  1  0  0  0  0
 19 33  2  0  0  0  0
 19 37  1  0  0  0  0
 20 22  2  0  0  0  0
 20 42  1  0  0  0  0
 21 23  2  0  0  0  0
 21 43  1  0  0  0  0
 22 53  1  0  0  0  0
 23 44  1  0  0  0  0
 24 29  2  0  0  0  0
 24 63  1  0  0  0  0
 25 70  1  0  0  0  0
 26 85  1  0  0  0  0
 27 87  1  0  0  0  0
 28 31  2  0  0  0  0
 28 85  1  0  0  0  0
 29 86  1  0  0  0  0
 30 88  1  0  0  0  0
 31 89  1  0  0  0  0
 32 68  2  0  0  0  0
 33 69  1  0  0  0  0
 33 73  1  0  0  0  0
 34 35  2  0  0  0  0
 34 36  1  0  0  0  0
 34 64  1  0  0  0  0
 35 56  1  0  0  0  0
 35 70  1  0  0  0  0
 36 45  1  0  0  0  0
 36 79  2  0  0  0  0
 37 74  1  0  0  0  0
 37 80  2  0  0  0  0
 38 54  1  0  0  0  0
 38 75  1  0  0  0  0
 38 81  2  0  0  0  0
 39 65  1  0  0  0  0
 39 71  1  0  0  0  0
 39 82  2  0  0  0  0
 40 66  1  0  0  0  0
 40 76  1  0  0  0  0
 40 83  2  0  0  0  0
 41 72  1  0  0  0  0
 41 77  1  0  0  0  0
 41 84  2  0  0  0  0
 42 46  1  0  0  0  0
 43 54  1  0  0  0  0
 44 71  1  0  0  0  0
 45 50  1  0  0  0  0
 46 48  1  0  0  0  0
 47 49  1  0  0  0  0
 47 51  1  0  0  0  0
 48 53  1  0  0  0  0
 49 55  1  0  0  0  0
 50 70  1  0  0  0  0
 51 72  1  0  0  0  0
 52 55  1  0  0  0  0
 52 72  1  0  0  0  0
 53 75  1  0  0  0  0
 54 71  1  0  0  0  0
 55 69  1  0  0  0  0
 57 66  1  0  0  0  0
 58 67  1  0  0  0  0
 59 67  1  0  0  0  0
 60 67  1  0  0  0  0
 61 78  1  0  0  0  0
 62 86  1  0  0  0  0
 63 77  1  0  0  0  0
 64 87  1  0  0  0  0
 65 67  1  0  0  0  0
 65 76  1  0  0  0  0
 66 78  1  0  0  0  0
 68 69  1  0  0  0  0
M  CHG  1  78   1
M  ISO  4  41 100  64 101  77 100  87 101
M  END
> <Batch ID>
0108

> <Smiles>
CNC(C)C(=O)NC(C(=O)N1Cc2cc([101O:1][101CH2:1]C3=C(C)N(c4ccc(C[100NH:0][100C:0](=O)N5CCCC(n6nc(-c7ccc(Oc8ccc(F)cc8F)cc7)c(C(N)=O)c6N)C5)c(OC)c4)CCC3=O)ccc2CC1C(=O)NC1CCCc2ccccc21)C(C)(C)C

> <Shape>
0.232

> <Color>
0.089

> <Negative vol penalty>
0.000

$$$$

  -OEChem-04052301203D

 89 99  0     1  0  0  0  0  0999 V2000
  -16.4650  -29.1089   23.6749 C   0  0  0  0  0  0  0  0  0  0  0  0
  -17.1982  -27.9394   23.5017 C   0  0  0  0  0  0  0  0  0  0  0  0
  -22.9487  -13.0332   18.8134 C   0  0  0  0  0  0  0  0  0  0  0  0
  -22.9081  -10.7954   19.7232 C   0  0  0  0  0  0  0  0  0  0  0  0
  -16.9699  -30.3222   23.2092 C   0  0  0  0  0  0  0  0  0  0  0  0
  -18.4363  -27.9823   22.8617 C   0  0  0  0  0  0  0  0  0  0  0  0
  -29.6344  -16.8694   18.3251 C   0  0  0  0  0  0  0  0  0  0  0  0
  -24.8562  -24.8043   22.9045 C   0  0  0  0  0  0  0  0  0  0  0  0
  -29.3110  -18.1905   18.6372 C   0  0  0  0  0  0  0  0  0  0  0  0
  -21.9259  -12.6920   17.9286 C   0  0  0  0  0  0  0  0  0  0  0  0
  -21.8853  -10.4542   18.8383 C   0  0  0  0  0  0  0  0  0  0  0  0
  -25.7581  -24.1868   22.0391 C   0  0  0  0  0  0  0  0  0  0  0  0
  -18.5436  -10.9011   18.6049 C   0  0  0  0  0  0  0  0  0  0  0  0
  -17.4604  -10.1850   19.1140 C   0  0  0  0  0  0  0  0  0  0  0  0
  -30.9814  -18.9622   17.0856 C   0  0  0  0  0  0  0  0  0  0  0  0
  -26.5663  -26.3516   21.3464 C   0  0  0  0  0  0  0  0  0  0  0  0
  -17.9304   -8.3813   17.5768 C   0  0  0  0  0  0  0  0  0  0  0  0
  -23.4399  -12.0849   19.7107 C   0  0  0  0  0  0  0  0  0  0  0  0
  -24.3581  -12.9661   21.9216 C   0  0  0  0  0  0  0  0  0  0  0  0
  -18.2192  -30.3816   22.5717 C   0  0  0  0  0  0  0  0  0  0  0  0
  -24.7949  -26.2027   22.9895 C   0  0  0  0  0  0  0  0  0  0  0  0
  -30.6476  -16.5698   17.3977 C   0  0  0  0  0  0  0  0  0  0  0  0
  -18.9578  -29.1974   22.3858 C   0  0  0  0  0  0  0  0  0  0  0  0
  -31.3176  -17.6372   16.7578 C   0  0  0  0  0  0  0  0  0  0  0  0
  -25.6645  -26.9844   22.2156 C   0  0  0  0  0  0  0  0  0  0  0  0
  -29.9870  -19.2365   18.0216 C   0  0  0  0  0  0  0  0  0  0  0  0
  -21.3941  -11.4026   17.9410 C   0  0  0  0  0  0  0  0  0  0  0  0
  -26.6113  -24.9605   21.2577 C   0  0  0  0  0  0  0  0  0  0  0  0
  -19.3203  -10.3575   17.5817 C   0  0  0  0  0  0  0  0  0  0  0  0
  -17.1538   -8.9250   18.6000 C   0  0  0  0  0  0  0  0  0  0  0  0
  -19.0137   -9.0975   17.0677 C   0  0  0  0  0  0  0  0  0  0  0  0
  -24.4968  -12.4365   20.6247 C   0  0  0  0  0  0  0  0  0  0  0  0
  -25.6474  -13.1233   22.3681 C   0  0  0  0  0  0  0  0  0  0  0  0
  -23.1699  -13.2871   22.6571 C   0  0  0  0  0  0  0  0  0  0  0  0
  -22.5634  -28.3898   22.4059 C   0  0  0  0  0  0  0  0  0  0  0  0
  -28.5464  -22.4280   19.3971 C   0  0  0  0  0  0  0  0  0  0  0  0
  -24.7691  -30.4107   23.6601 C   0  0  0  0  0  0  0  0  0  0  0  0
  -28.0496  -31.0556   24.3450 C   0  0  0  0  0  0  0  0  0  0  0  0
  -30.7825  -13.8687   19.1794 C   0  0  0  0  0  0  0  0  0  0  0  0
  -18.7021  -31.7090   22.0431 C   0  0  0  0  0  0  0  0  0  0  0  0
  -23.8349  -26.8529   23.9477 C   0  0  0  0  0  0  0  0  0  0  0  0
  -32.3829  -17.3941   15.7112 C   0  0  0  0  0  0  0  0  0  0  0  0
  -25.6524  -28.4889   22.2847 C   0  0  0  0  0  0  0  0  0  0  0  0
  -20.1916  -31.7261   21.7092 C   0  0  0  0  0  0  0  0  0  0  0  0
  -31.8417  -16.7383   14.4370 C   0  0  0  0  0  0  0  0  0  0  0  0
  -29.9115  -11.0029   21.4460 C   0  0  0  0  0  0  0  0  0  0  0  0
  -20.5739  -30.4843   20.9102 C   0  0  0  0  0  0  0  0  0  0  0  0
  -31.6198  -15.2267   14.5452 C   0  0  0  0  0  0  0  0  0  0  0  0
  -28.5072  -11.3524   21.9393 C   0  0  0  0  0  0  0  0  0  0  0  0
  -30.3408  -13.3173   15.6282 C   0  0  0  0  0  0  0  0  0  0  0  0
  -30.6951  -12.2335   21.0148 C   0  0  0  0  0  0  0  0  0  0  0  0
  -29.7184  -13.1077   16.9993 C   0  0  0  0  0  0  0  0  0  0  0  0
  -28.5470  -12.9115   19.9289 C   0  0  0  0  0  0  0  0  0  0  0  0
  -31.0142  -15.1411   17.0378 C   0  0  2  0  0  0  0  0  0  0  0  0
  -20.3160  -29.2071   21.7186 C   0  0  1  0  0  0  0  0  0  0  0  0
  -23.5028  -28.2944   23.5746 C   0  0  1  0  0  0  0  0  0  0  0  0
  -30.5816  -14.8270   15.5931 C   0  0  1  0  0  0  0  0  0  0  0  0
  -27.9661  -12.6587   21.3306 C   0  0  1  0  0  0  0  0  0  0  0  0
  -29.5468  -32.8056   25.3414 C   0  0  0  0  0  0  0  0  0  0  0  0
  -24.4858  -32.0908   21.1288 C   0  0  0  0  0  0  0  0  0  0  0  0
  -26.6238  -33.2425   21.7377 C   0  0  0  0  0  0  0  0  0  0  0  0
  -24.6441  -33.4126   23.2459 C   0  0  0  0  0  0  0  0  0  0  0  0
  -28.9909  -29.2118   26.4600 C   0  0  0  0  0  0  0  0  0  0  0  0
  -28.6468  -20.9217   19.2823 C   0  0  0  0  0  0  0  0  0  0  0  0
  -27.4990  -22.9427   20.3652 C   0  0  0  0  0  0  0  0  0  1  0  0
  -25.9092  -31.2283   23.1027 C   0  0  1  0  0  0  0  0  0  0  0  0
  -28.7379  -31.5454   25.6062 C   0  0  2  0  0  0  0  0  0  0  0  0
  -25.4149  -32.4653   22.3008 C   0  0  0  0  0  0  0  0  0  0  0  0
  -25.7736  -12.2687   20.2701 N   0  0  0  0  0  0  0  0  0  0  0  0
  -26.4489  -12.6953   21.3509 N   0  0  0  0  0  0  0  0  0  0  0  0
  -24.6915  -29.0778   23.2320 N   0  0  0  0  0  0  0  0  0  0  0  0
  -30.0179  -12.9769   19.9486 N   0  0  0  0  0  0  0  0  0  0  0  0
  -30.3894  -14.0861   17.8544 N   0  0  0  0  0  0  0  0  0  0  0  0
  -26.1624  -13.5845   23.5276 N   0  0  0  0  0  0  0  0  0  0  0  0
  -21.9270  -13.0633   22.0493 N   0  0  0  0  0  0  0  0  0  0  0  0
  -29.6620  -20.5715   18.3373 N   0  0  0  0  0  0  0  0  0  0  0  0
  -21.3629  -29.0088   22.6979 N   0  0  0  0  0  0  0  0  0  0  0  0
  -26.7690  -31.5549   24.2351 N   0  0  0  0  0  0  0  0  0  0  0  0
  -29.6579  -30.4986   26.1342 N   0  3  0  0  0  0  0  0  0  0  0  0
  -23.2095  -13.7737   23.8126 O   0  0  0  0  0  0  0  0  0  0  0  0
  -22.9031  -27.9368   21.3191 O   0  0  0  0  0  0  0  0  0  0  0  0
  -29.2619  -23.1935   18.7522 O   0  0  0  0  0  0  0  0  0  0  0  0
  -23.9806  -30.9334   24.4518 O   0  0  0  0  0  0  0  0  0  0  0  0
  -28.5948  -30.3079   23.5361 O   0  0  0  0  0  0  0  0  0  0  0  0
  -31.7666  -14.4479   19.6584 O   0  0  0  0  0  0  0  0  0  0  0  0
  -20.3959  -11.0694   17.0778 O   0  0  0  0  0  0  0  0  0  0  0  0
  -27.5013  -24.3541   20.4029 O   0  0  0  0  0  0  0  0  0  1  0  0
  -16.1144   -8.2367   19.0901 F   0  0  0  0  0  0  0  0  0  0  0  0
  -19.7569   -8.5695   16.0855 F   0  0  0  0  0  0  0  0  0  0  0  0
  1  2  1  0  0  0  0
  1  5  2  0  0  0  0
  2  6  2  0  0  0  0
  3 10  2  0  0  0  0
  3 18  1  0  0  0  0
  4 11  1  0  0  0  0
  4 18  2  0  0  0  0
  5 20  1  0  0  0  0
  6 23  1  0  0  0  0
  7  9  2  0  0  0  0
  7 22  1  0  0  0  0
  8 12  2  0  0  0  0
  8 21  1  0  0  0  0
  9 26  1  0  0  0  0
 10 27  1  0  0  0  0
 11 27  2  0  0  0  0
 12 28  1  0  0  0  0
 13 14  2  0  0  0  0
 13 29  1  0  0  0  0
 14 30  1  0  0  0  0
 15 24  1  0  0  0  0
 15 26  2  0  0  0  0
 16 25  1  0  0  0  0
 16 28  2  0  0  0  0
 17 30  2  0  0  0  0
 17 31  1  0  0  0  0
 18 32  1  0  0  0  0
 19 32  1  0  0  0  0
 19 33  2  0  0  0  0
 19 34  1  0  0  0  0
 20 23  2  0  0  0  0
 20 40  1  0  0  0  0
 21 25  2  0  0  0  0
 21 41  1  0  0  0  0
 22 24  2  0  0  0  0
 22 54  1  0  0  0  0
 23 55  1  0  0  0  0
 24 42  1  0  0  0  0
 25 43  1  0  0  0  0
 26 76  1  0  0  0  0
 27 86  1  0  0  0  0
 28 87  1  0  0  0  0
 29 31  2  0  0  0  0
 29 86  1  0  0  0  0
 30 88  1  0  0  0  0
 31 89  1  0  0  0  0
 32 69  2  0  0  0  0
 33 70  1  0  0  0  0
 33 74  1  0  0  0  0
 34 75  1  0  0  0  0
 34 80  2  0  0  0  0
 35 56  1  0  0  0  0
 35 77  1  0  0  0  0
 35 81  2  0  0  0  0
 36 64  1  0  0  0  0
 36 65  1  0  0  0  0
 36 82  2  0  0  0  0
 37 66  1  0  0  0  0
 37 71  1  0  0  0  0
 37 83  2  0  0  0  0
 38 67  1  0  0  0  0
 38 78  1  0  0  0  0
 38 84  2  0  0  0  0
 39 72  1  0  0  0  0
 39 73  1  0  0  0  0
 39 85  2  0  0  0  0
 40 44  1  0  0  0  0
 41 56  1  0  0  0  0
 42 45  1  0  0  0  0
 43 71  1  0  0  0  0
 44 47  1  0  0  0  0
 45 48  1  0  0  0  0
 46 49  1  0  0  0  0
 46 51  1  0  0  0  0
 47 55  1  0  0  0  0
 48 57  1  0  0  0  0
 49 58  1  0  0  0  0
 50 52  1  0  0  0  0
 50 57  1  0  0  0  0
 51 72  1  0  0  0  0
 52 73  1  0  0  0  0
 53 58  1  0  0  0  0
 53 72  1  0  0  0  0
 54 57  1  0  0  0  0
 54 73  1  0  0  0  0
 55 77  1  0  0  0  0
 56 71  1  0  0  0  0
 58 70  1  0  0  0  0
 59 67  1  0  0  0  0
 60 68  1  0  0  0  0
 61 68  1  0  0  0  0
 62 68  1  0  0  0  0
 63 79  1  0  0  0  0
 64 76  1  0  0  0  0
 65 87  1  0  0  0  0
 66 68  1  0  0  0  0
 66 78  1  0  0  0  0
 67 79  1  0  0  0  0
 69 70  1  0  0  0  0
M  CHG  1  79   1
M  ISO  4  39 100  65 101  73 100  87 101
M  END
> <Batch ID>
0108

> <Smiles>
CNC(C)C(=O)NC(C(=O)N1Cc2cc([101O:1][101CH2:1]C(=O)CNc3ccc4c(c3)CCCC3CC[100N:0]([100C:0](=O)N5CCCC(n6nc(-c7ccc(Oc8ccc(F)cc8F)cc7)c(C(N)=O)c6N)C5)C43)ccc2CC1C(=O)NC1CCCc2ccccc21)C(C)(C)C

> <Shape>
0.230

> <Color>
0.111

> <Negative vol penalty>
0.000

$$$$

  -OEChem-04052301203D

 94104  0     1  0  0  0  0  0999 V2000
  -27.6280  -38.0277   22.6277 C   0  0  0  0  0  0  0  0  0  0  0  0
  -28.3460  -37.0409   23.2956 C   0  0  0  0  0  0  0  0  0  0  0  0
  -23.3215   -9.6733   19.8038 C   0  0  0  0  0  0  0  0  0  0  0  0
  -24.3931   -9.4267   21.9550 C   0  0  0  0  0  0  0  0  0  0  0  0
  -26.2343  -38.0210   22.6663 C   0  0  0  0  0  0  0  0  0  0  0  0
  -27.6706  -36.0473   24.0035 C   0  0  0  0  0  0  0  0  0  0  0  0
  -28.5769  -29.0836   22.3984 C   0  0  0  0  0  0  0  0  0  0  0  0
  -22.2436   -8.9107   20.2533 C   0  0  0  0  0  0  0  0  0  0  0  0
  -23.3151   -8.6642   22.4046 C   0  0  0  0  0  0  0  0  0  0  0  0
  -28.8577  -27.7213   22.2910 C   0  0  0  0  0  0  0  0  0  0  0  0
  -22.2088   -5.4849   22.0891 C   0  0  0  0  0  0  0  0  0  0  0  0
  -22.4918   -4.3148   22.7935 C   0  0  0  0  0  0  0  0  0  0  0  0
  -25.9800  -19.5765   19.6317 C   0  0  0  0  0  0  0  0  0  0  0  0
  -24.4672  -20.5678   18.0300 C   0  0  0  0  0  0  0  0  0  0  0  0
  -27.2004  -27.2353   23.9837 C   0  0  0  0  0  0  0  0  0  0  0  0
  -24.4232  -18.1835   18.4180 C   0  0  0  0  0  0  0  0  0  0  0  0
  -21.2955   -5.1774   24.7071 C   0  0  0  0  0  0  0  0  0  0  0  0
  -24.3964   -9.9312   20.6546 C   0  0  0  0  0  0  0  0  0  0  0  0
  -25.4904  -20.7016   18.9685 C   0  0  0  0  0  0  0  0  0  0  0  0
  -26.3600  -10.4323   19.1052 C   0  0  0  0  0  0  0  0  0  0  0  0
  -25.5413  -37.0213   23.3669 C   0  0  0  0  0  0  0  0  0  0  0  0
  -27.5948  -29.5261   23.2889 C   0  0  0  0  0  0  0  0  0  0  0  0
  -26.2663  -36.0280   24.0526 C   0  0  0  0  0  0  0  0  0  0  0  0
  -26.9061  -28.5975   24.0867 C   0  0  0  0  0  0  0  0  0  0  0  0
  -25.4464  -18.3174   19.3565 C   0  0  0  0  0  0  0  0  0  0  0  0
  -22.2403   -8.4062   21.5537 C   0  0  0  0  0  0  0  0  0  0  0  0
  -28.1712  -26.7995   23.0818 C   0  0  0  0  0  0  0  0  0  0  0  0
  -21.4693   -6.5014   22.6937 C   0  0  0  0  0  0  0  0  0  0  0  0
  -23.9336  -19.3087   17.7547 C   0  0  0  0  0  0  0  0  0  0  0  0
  -22.0351   -4.1610   24.1024 C   0  0  0  0  0  0  0  0  0  0  0  0
  -21.0126   -6.3476   24.0027 C   0  0  0  0  0  0  0  0  0  0  0  0
  -25.5105  -10.7184   20.1906 C   0  0  0  0  0  0  0  0  0  0  0  0
  -27.2492  -11.4788   19.0800 C   0  0  0  0  0  0  0  0  0  0  0  0
  -20.9650  -19.0175   14.5630 C   0  0  0  0  0  0  0  0  0  0  0  0
  -27.0931  -23.4931   20.9620 C   0  0  0  0  0  0  0  0  0  0  0  0
  -26.0523  -22.0308   19.2593 C   0  0  0  0  0  0  0  0  0  0  0  0
  -26.3466   -9.3200   18.2006 C   0  0  0  0  0  0  0  0  0  0  0  0
  -25.7056  -32.4365   24.7159 C   0  0  0  0  0  0  0  0  0  0  0  0
  -23.6814  -30.1646   24.3272 C   0  0  0  0  0  0  0  0  0  0  0  0
  -21.6995  -27.5642   23.3537 C   0  0  0  0  0  0  0  0  0  0  0  0
  -26.9543  -17.1329   20.9903 C   0  0  0  0  0  0  0  0  0  0  0  0
  -24.0353  -37.0826   23.4193 C   0  0  0  0  0  0  0  0  0  0  0  0
  -27.3025  -30.9893   23.4822 C   0  0  0  0  0  0  0  0  0  0  0  0
  -25.8821  -29.1223   25.0557 C   0  0  0  0  0  0  0  0  0  0  0  0
  -21.5269  -17.8305   13.8150 C   0  0  0  0  0  0  0  0  0  0  0  0
  -21.9316  -20.1381   14.8873 C   0  0  0  0  0  0  0  0  0  0  0  0
  -23.3882  -35.7792   23.8807 C   0  0  0  0  0  0  0  0  0  0  0  0
  -22.7875  -17.3186   14.4959 C   0  0  0  0  0  0  0  0  0  0  0  0
  -29.3472  -14.6804   21.9579 C   0  0  0  0  0  0  0  0  0  0  0  0
  -24.1006  -35.2376   25.1160 C   0  0  0  0  0  0  0  0  0  0  0  0
  -28.7150  -13.3605   21.5102 C   0  0  0  0  0  0  0  0  0  0  0  0
  -23.8071  -18.4383   14.7034 C   0  0  0  0  0  0  0  0  0  0  0  0
  -26.7398  -22.1315   22.8763 C   0  0  0  0  0  0  0  0  0  0  0  0
  -28.2996  -15.6641   22.4762 C   0  0  0  0  0  0  0  0  0  0  0  0
  -26.5869  -21.2876   21.6283 C   0  0  0  0  0  0  0  0  0  0  0  0
  -26.5464  -14.5964   21.1140 C   0  0  0  0  0  0  0  0  0  0  0  0
  -25.5692  -34.9191   24.8106 C   0  0  1  0  0  0  0  0  0  0  0  0
  -27.5683  -23.3162   22.3923 C   0  0  2  0  0  0  0  0  0  0  0  0
  -25.8182  -31.2750   23.7727 C   0  0  1  0  0  0  0  0  0  0  0  0
  -27.5549  -13.5975   20.5235 C   0  0  2  0  0  0  0  0  0  0  0  0
  -23.2170  -19.5993   15.5057 C   0  0  2  0  0  0  0  0  0  0  0  0
  -19.5853  -26.2901   22.9017 C   0  0  0  0  0  0  0  0  0  0  0  0
  -23.8627  -29.5226   27.3035 C   0  0  0  0  0  0  0  0  0  0  0  0
  -21.9205  -27.9693   27.0144 C   0  0  0  0  0  0  0  0  0  0  0  0
  -21.6445  -30.4065   26.5598 C   0  0  0  0  0  0  0  0  0  0  0  0
  -21.4717  -28.6831   20.6233 C   0  0  0  0  0  0  0  0  0  0  0  0
  -27.3803  -24.5617   23.2369 C   0  0  0  0  0  0  0  0  0  1  0  0
  -22.9693  -28.9860   24.9414 C   0  0  1  0  0  0  0  0  0  0  0  0
  -20.4046  -27.5256   22.5624 C   0  0  2  0  0  0  0  0  0  0  0  0
  -22.6229  -29.2178   26.4393 C   0  0  0  0  0  0  0  0  0  0  0  0
  -25.8312  -11.8574   20.8102 N   0  0  0  0  0  0  0  0  0  0  0  0
  -26.8923  -12.2962   20.1118 N   0  0  0  0  0  0  0  0  0  0  0  0
  -26.5494  -22.2579   20.5424 N   0  0  0  0  0  0  0  0  0  0  0  0
  -25.0787  -30.1759   24.4161 N   0  0  0  0  0  0  0  0  0  0  0  0
  -27.2344  -15.8423   21.4870 N   0  0  0  0  0  0  0  0  0  0  0  0
  -28.2937  -11.7704   18.2760 N   0  0  0  0  0  0  0  0  0  0  0  0
  -25.3647   -8.3341   18.3685 N   0  0  0  0  0  0  0  0  0  0  0  0
  -25.9433  -17.1745   20.0307 N   0  0  0  0  0  0  0  0  0  0  0  0
  -25.6760  -33.6683   24.0905 N   0  0  0  0  0  0  0  0  0  0  0  0
  -21.8113  -28.7220   24.0942 N   0  0  0  0  0  0  0  0  0  0  0  0
  -20.6914  -27.5123   21.1000 N   0  3  0  0  0  0  0  0  0  0  0  0
  -19.7622  -19.1160   14.8024 O   0  0  0  0  0  0  0  0  0  0  0  0
  -27.2171  -24.5180   20.3062 O   0  0  0  0  0  0  0  0  0  0  0  0
  -26.0254  -22.8597   18.3515 O   0  0  0  0  0  0  0  0  0  0  0  0
  -27.1907   -9.1955   17.2811 O   0  0  0  0  0  0  0  0  0  0  0  0
  -25.6482  -32.2315   25.9227 O   0  0  0  0  0  0  0  0  0  0  0  0
  -23.0189  -31.0552   23.7876 O   0  0  0  0  0  0  0  0  0  0  0  0
  -22.5273  -26.6563   23.3213 O   0  0  0  0  0  0  0  0  0  0  0  0
  -27.5847  -18.1242   21.3671 O   0  0  0  0  0  0  0  0  0  0  0  0
  -21.1885   -7.6623   21.9928 O   0  0  0  0  0  0  0  0  0  0  0  0
  -22.9349  -19.1778   16.8394 O   0  0  0  0  0  0  0  0  0  0  0  0
  -28.4471  -25.4707   22.9686 O   0  0  0  0  0  0  0  0  0  1  0  0
  -22.3056   -3.0365   24.7782 F   0  0  0  0  0  0  0  0  0  0  0  0
  -20.3006   -7.3202   24.5884 F   0  0  0  0  0  0  0  0  0  0  0  0
  1  2  1  0  0  0  0
  1  5  2  0  0  0  0
  2  6  2  0  0  0  0
  3  8  2  0  0  0  0
  3 18  1  0  0  0  0
  4  9  1  0  0  0  0
  4 18  2  0  0  0  0
  5 21  1  0  0  0  0
  6 23  1  0  0  0  0
  7 10  2  0  0  0  0
  7 22  1  0  0  0  0
  8 26  1  0  0  0  0
  9 26  2  0  0  0  0
 10 27  1  0  0  0  0
 11 12  2  0  0  0  0
 11 28  1  0  0  0  0
 12 30  1  0  0  0  0
 13 19  1  0  0  0  0
 13 25  2  0  0  0  0
 14 19  2  0  0  0  0
 14 29  1  0  0  0  0
 15 24  1  0  0  0  0
 15 27  2  0  0  0  0
 16 25  1  0  0  0  0
 16 29  2  0  0  0  0
 17 30  2  0  0  0  0
 17 31  1  0  0  0  0
 18 32  1  0  0  0  0
 19 36  1  0  0  0  0
 20 32  1  0  0  0  0
 20 33  2  0  0  0  0
 20 37  1  0  0  0  0
 21 23  2  0  0  0  0
 21 42  1  0  0  0  0
 22 24  2  0  0  0  0
 22 43  1  0  0  0  0
 23 57  1  0  0  0  0
 24 44  1  0  0  0  0
 25 78  1  0  0  0  0
 26 90  1  0  0  0  0
 27 92  1  0  0  0  0
 28 31  2  0  0  0  0
 28 90  1  0  0  0  0
 29 91  1  0  0  0  0
 30 93  1  0  0  0  0
 31 94  1  0  0  0  0
 32 71  2  0  0  0  0
 33 72  1  0  0  0  0
 33 76  1  0  0  0  0
 34 45  1  0  0  0  0
 34 46  1  0  0  0  0
 34 82  2  0  0  0  0
 35 58  1  0  0  0  0
 35 73  1  0  0  0  0
 35 83  2  0  0  0  0
 36 73  1  0  0  0  0
 36 84  2  0  0  0  0
 37 77  1  0  0  0  0
 37 85  2  0  0  0  0
 38 59  1  0  0  0  0
 38 79  1  0  0  0  0
 38 86  2  0  0  0  0
 39 68  1  0  0  0  0
 39 74  1  0  0  0  0
 39 87  2  0  0  0  0
 40 69  1  0  0  0  0
 40 80  1  0  0  0  0
 40 88  2  0  0  0  0
 41 75  1  0  0  0  0
 41 78  1  0  0  0  0
 41 89  2  0  0  0  0
 42 47  1  0  0  0  0
 43 59  1  0  0  0  0
 44 74  1  0  0  0  0
 45 48  1  0  0  0  0
 46 61  1  0  0  0  0
 47 50  1  0  0  0  0
 48 52  1  0  0  0  0
 49 51  1  0  0  0  0
 49 54  1  0  0  0  0
 50 57  1  0  0  0  0
 51 60  1  0  0  0  0
 52 61  1  0  0  0  0
 53 55  1  0  0  0  0
 53 58  1  0  0  0  0
 54 75  1  0  0  0  0
 55 73  1  0  0  0  0
 56 60  1  0  0  0  0
 56 75  1  0  0  0  0
 57 79  1  0  0  0  0
 58 67  1  0  0  0  0
 59 74  1  0  0  0  0
 60 72  1  0  0  0  0
 61 91  1  0  0  0  0
 62 69  1  0  0  0  0
 63 70  1  0  0  0  0
 64 70  1  0  0  0  0
 65 70  1  0  0  0  0
 66 81  1  0  0  0  0
 67 92  1  0  0  0  0
 68 70  1  0  0  0  0
 68 80  1  0  0  0  0
 69 81  1  0  0  0  0
 71 72  1  0  0  0  0
M  CHG  1  81   1
M  ISO  4  41 100  67 101  78 100  92 101
M  END
> <Batch ID>
0108

> <Smiles>
CNC(C)C(=O)NC(C(=O)N1Cc2cc([101O:1][101CH2:1]C3CCN(C(=O)c4cc([100NH:0][100C:0](=O)N5CCCC(n6nc(-c7ccc(Oc8ccc(F)cc8F)cc7)c(C(N)=O)c6N)C5)cc(OC5CCCC(=O)C5)c4)C3=O)ccc2CC1C(=O)NC1CCCc2ccccc21)C(C)(C)C

> <Shape>
0.268

> <Color>
0.079

> <Negative vol penalty>
0.000

$$$$

  -OEChem-04052301203D

 86 94  0     1  0  0  0  0  0999 V2000
  -24.5699  -36.4049   20.9043 C   0  0  0  0  0  0  0  0  0  0  0  0
  -25.2834  -35.6025   20.0197 C   0  0  0  0  0  0  0  0  0  0  0  0
  -24.4463   -9.3048   21.8240 C   0  0  0  0  0  0  0  0  0  0  0  0
  -22.8368  -10.4332   20.4193 C   0  0  0  0  0  0  0  0  0  0  0  0
  -24.4763  -36.0464   22.2485 C   0  0  0  0  0  0  0  0  0  0  0  0
  -25.9046  -34.4416   20.4790 C   0  0  0  0  0  0  0  0  0  0  0  0
  -27.6259  -27.8185   18.3605 C   0  0  0  0  0  0  0  0  0  0  0  0
  -23.6229   -8.1797   21.8636 C   0  0  0  0  0  0  0  0  0  0  0  0
  -22.0134   -9.3080   20.4589 C   0  0  0  0  0  0  0  0  0  0  0  0
  -28.7233  -26.9615   18.2896 C   0  0  0  0  0  0  0  0  0  0  0  0
  -22.8758   -5.5675   19.8508 C   0  0  0  0  0  0  0  0  0  0  0  0
  -23.4726   -4.3206   19.6648 C   0  0  0  0  0  0  0  0  0  0  0  0
  -28.4274  -26.4000   20.6170 C   0  0  0  0  0  0  0  0  0  0  0  0
  -28.5689  -20.0957   19.3597 C   0  0  0  0  0  0  0  0  0  0  0  0
  -26.0297  -20.9521   20.1354 C   0  0  0  0  0  0  0  0  0  0  0  0
  -22.7087   -3.6290   21.8500 C   0  0  0  0  0  0  0  0  0  0  0  0
  -24.0532  -10.4317   21.1019 C   0  0  0  0  0  0  0  0  0  0  0  0
  -25.9163  -11.8744   20.1246 C   0  0  0  0  0  0  0  0  0  0  0  0
  -25.0885  -34.8755   22.7225 C   0  0  0  0  0  0  0  0  0  0  0  0
  -26.9266  -27.9814   19.5650 C   0  0  0  0  0  0  0  0  0  0  0  0
  -25.8202  -34.0679   21.8310 C   0  0  0  0  0  0  0  0  0  0  0  0
  -27.3200  -27.2578   20.6998 C   0  0  0  0  0  0  0  0  0  0  0  0
  -27.6945  -19.2077   19.9862 C   0  0  0  0  0  0  0  0  0  0  0  0
  -26.4249  -19.6359   20.3740 C   0  0  0  0  0  0  0  0  0  0  0  0
  -22.4065   -8.1812   21.1811 C   0  0  0  0  0  0  0  0  0  0  0  0
  -29.1260  -26.2542   19.4187 C   0  0  0  0  0  0  0  0  0  0  0  0
  -22.1955   -5.8452   21.0365 C   0  0  0  0  0  0  0  0  0  0  0  0
  -28.1737  -21.4120   19.1211 C   0  0  0  0  0  0  0  0  0  0  0  0
  -26.9041  -21.8402   19.5089 C   0  0  0  0  0  0  0  0  0  0  0  0
  -23.3891   -3.3514   20.6643 C   0  0  0  0  0  0  0  0  0  0  0  0
  -22.1119   -4.8760   22.0360 C   0  0  0  0  0  0  0  0  0  0  0  0
  -24.9031  -11.5945   21.0610 C   0  0  0  0  0  0  0  0  0  0  0  0
  -26.4223  -13.0889   20.5190 C   0  0  0  0  0  0  0  0  0  0  0  0
  -24.0318  -18.4152   19.1674 C   0  0  0  0  0  0  0  0  0  0  0  0
  -24.2653  -18.4235   20.4817 C   0  0  0  0  0  0  0  0  0  0  0  0
  -26.3604  -11.1054   18.9989 C   0  0  0  0  0  0  0  0  0  0  0  0
  -26.3573  -30.4258   21.5155 C   0  0  0  0  0  0  0  0  0  0  0  0
  -24.4597  -28.2726   23.0273 C   0  0  0  0  0  0  0  0  0  0  0  0
  -23.7402  -25.0014   23.6818 C   0  0  0  0  0  0  0  0  0  0  0  0
  -25.8076  -18.2649   22.3315 C   0  0  0  0  0  0  0  0  0  0  0  0
  -24.9994  -34.5541   24.1934 C   0  0  0  0  0  0  0  0  0  0  0  0
  -25.7286  -28.8894   19.6181 C   0  0  0  0  0  0  0  0  0  0  0  0
  -26.5904  -27.3818   22.0117 C   0  0  0  0  0  0  0  0  0  0  0  0
  -25.3718  -33.1114   24.5252 C   0  0  0  0  0  0  0  0  0  0  0  0
  -25.7019  -15.7495   24.7502 C   0  0  0  0  0  0  0  0  0  0  0  0
  -26.6582  -32.7137   23.8083 C   0  0  0  0  0  0  0  0  0  0  0  0
  -25.5615  -14.4623   23.9381 C   0  0  0  0  0  0  0  0  0  0  0  0
  -24.8586  -16.8691   24.1509 C   0  0  0  0  0  0  0  0  0  0  0  0
  -25.0308  -15.8753   21.8912 C   0  0  0  0  0  0  0  0  0  0  0  0
  -26.4871  -32.7880   22.2862 C   0  0  1  0  0  0  0  0  0  0  0  0
  -25.4052  -29.3699   21.0294 C   0  0  1  0  0  0  0  0  0  0  0  0
  -25.8718  -14.7106   22.4515 C   0  0  2  0  0  0  0  0  0  0  0  0
  -28.1450  -17.8040   20.2305 C   0  0  0  0  0  0  0  0  0  0  0  0
  -22.4733  -23.0308   24.5812 C   0  0  0  0  0  0  0  0  0  0  0  0
  -25.9641  -28.9387   25.5969 C   0  0  0  0  0  0  0  0  0  0  0  0
  -25.0255  -26.8484   26.6059 C   0  0  0  0  0  0  0  0  0  0  0  0
  -23.4926  -28.6750   25.8735 C   0  0  0  0  0  0  0  0  0  0  0  0
  -22.0609  -24.8245   21.2513 C   0  0  0  0  0  0  0  0  0  0  0  0
  -25.1937  -23.4805   19.7084 C   0  0  0  0  0  0  0  0  0  0  0  0
  -31.1348  -23.4504   18.3164 C   0  0  0  0  0  0  0  0  0  0  0  0
  -30.4573  -24.7938   18.0956 C   0  0  0  0  0  0  0  0  0  1  0  0
  -30.2809  -22.5140   19.1568 C   0  0  0  0  0  0  0  0  0  0  0  0
  -24.6582  -27.2619   24.1310 C   0  0  1  0  0  0  0  0  0  0  0  0
  -22.4322  -24.2317   23.6491 C   0  0  2  0  0  0  0  0  0  0  0  0
  -24.8002  -27.9300   25.5278 C   0  0  0  0  0  0  0  0  0  0  0  0
  -24.7719  -12.5538   21.9811 N   0  0  0  0  0  0  0  0  0  0  0  0
  -25.7094  -13.4484   21.6248 N   0  0  0  0  0  0  0  0  0  0  0  0
  -25.4293  -28.2869   22.0147 N   0  0  0  0  0  0  0  0  0  0  0  0
  -25.1794  -17.0707   22.7375 N   0  0  0  0  0  0  0  0  0  0  0  0
  -27.4031  -13.8736   20.0244 N   0  0  0  0  0  0  0  0  0  0  0  0
  -25.7317   -9.8806   18.7366 N   0  0  0  0  0  0  0  0  0  0  0  0
  -25.7560  -31.6362   21.8031 N   0  0  0  0  0  0  0  0  0  0  0  0
  -23.5472  -26.3220   24.0283 N   0  0  0  0  0  0  0  0  0  0  0  0
  -25.5023  -18.7292   21.0257 N   0  0  0  0  0  0  0  0  0  0  0  0
  -22.1516  -23.7456   22.2685 N   0  3  0  0  0  0  0  0  0  0  0  0
  -27.2982  -11.4853   18.2575 O   0  0  0  0  0  0  0  0  0  0  0  0
  -27.5490  -30.1613   21.6233 O   0  0  0  0  0  0  0  0  0  0  0  0
  -23.4765  -29.0170   23.0586 O   0  0  0  0  0  0  0  0  0  0  0  0
  -24.8251  -24.4822   23.4290 O   0  0  0  0  0  0  0  0  0  0  0  0
  -26.5695  -18.8877   23.0824 O   0  0  0  0  0  0  0  0  0  0  0  0
  -21.6028   -7.0834   21.2193 O   0  0  0  0  0  0  0  0  0  0  0  0
  -26.5068  -23.1232   19.2813 O   0  0  0  0  0  0  0  0  0  0  0  0
  -30.1971  -25.4175   19.3524 O   0  0  0  0  0  0  0  0  0  1  0  0
  -29.0415  -22.2747   18.5036 O   0  0  0  0  0  0  0  0  0  0  0  0
  -23.9609   -2.1535   20.4849 F   0  0  0  0  0  0  0  0  0  0  0  0
  -21.4587   -5.1365   23.1768 F   0  0  0  0  0  0  0  0  0  0  0  0
  1  2  1  0  0  0  0
  1  5  2  0  0  0  0
  2  6  2  0  0  0  0
  3  8  2  0  0  0  0
  3 17  1  0  0  0  0
  4  9  1  0  0  0  0
  4 17  2  0  0  0  0
  5 19  1  0  0  0  0
  6 21  1  0  0  0  0
  7 10  2  0  0  0  0
  7 20  1  0  0  0  0
  8 25  1  0  0  0  0
  9 25  2  0  0  0  0
 10 26  1  0  0  0  0
 11 12  2  0  0  0  0
 11 27  1  0  0  0  0
 12 30  1  0  0  0  0
 13 22  1  0  0  0  0
 13 26  2  0  0  0  0
 14 23  1  0  0  0  0
 14 28  2  0  0  0  0
 15 24  1  0  0  0  0
 15 29  2  0  0  0  0
 16 30  2  0  0  0  0
 16 31  1  0  0  0  0
 17 32  1  0  0  0  0
 18 32  1  0  0  0  0
 18 33  2  0  0  0  0
 18 36  1  0  0  0  0
 19 21  2  0  0  0  0
 19 41  1  0  0  0  0
 20 22  2  0  0  0  0
 20 42  1  0  0  0  0
 21 50  1  0  0  0  0
 22 43  1  0  0  0  0
 23 24  2  0  0  0  0
 23 53  1  0  0  0  0
 24 74  1  0  0  0  0
 25 81  1  0  0  0  0
 26 83  1  0  0  0  0
 27 31  2  0  0  0  0
 27 81  1  0  0  0  0
 28 29  1  0  0  0  0
 28 84  1  0  0  0  0
 29 82  1  0  0  0  0
 30 85  1  0  0  0  0
 31 86  1  0  0  0  0
 32 66  2  0  0  0  0
 33 67  1  0  0  0  0
 33 70  1  0  0  0  0
 34 35  2  0  0  0  0
 35 74  1  0  0  0  0
 36 71  1  0  0  0  0
 36 76  2  0  0  0  0
 37 51  1  0  0  0  0
 37 72  1  0  0  0  0
 37 77  2  0  0  0  0
 38 63  1  0  0  0  0
 38 68  1  0  0  0  0
 38 78  2  0  0  0  0
 39 64  1  0  0  0  0
 39 73  1  0  0  0  0
 39 79  2  0  0  0  0
 40 69  1  0  0  0  0
 40 74  1  0  0  0  0
 40 80  2  0  0  0  0
 41 44  1  0  0  0  0
 42 51  1  0  0  0  0
 43 68  1  0  0  0  0
 44 46  1  0  0  0  0
 45 47  1  0  0  0  0
 45 48  1  0  0  0  0
 46 50  1  0  0  0  0
 47 52  1  0  0  0  0
 48 69  1  0  0  0  0
 49 52  1  0  0  0  0
 49 69  1  0  0  0  0
 50 72  1  0  0  0  0
 51 68  1  0  0  0  0
 52 67  1  0  0  0  0
 54 64  1  0  0  0  0
 55 65  1  0  0  0  0
 56 65  1  0  0  0  0
 57 65  1  0  0  0  0
 58 75  1  0  0  0  0
 59 82  1  0  0  0  0
 60 61  1  0  0  0  0
 60 62  1  0  0  0  0
 61 83  1  0  0  0  0
 62 84  1  0  0  0  0
 63 65  1  0  0  0  0
 63 73  1  0  0  0  0
 64 75  1  0  0  0  0
 66 67  1  0  0  0  0
M  CHG  1  75   1
M  ISO  4  40 100  61 101  74 100  83 101
M  END
> <Batch ID>
0108

> <Smiles>
C=C[100N:0](c1cc(OC)c(OCC[101CH2:1][101O:1]c2ccc3c(c2)CN(C(=O)C(NC(=O)C(C)NC)C(C)(C)C)C(C(=O)NC2CCCc4ccccc42)C3)cc1C)[100C:0](=O)N1CCCC(n2nc(-c3ccc(Oc4ccc(F)cc4F)cc3)c(C(N)=O)c2N)C1

> <Shape>
0.254

> <Color>
0.110

> <Negative vol penalty>
0.000

$$$$

  -OEChem-04052301203D

 84 92  0     1  0  0  0  0  0999 V2000
  -24.3657  -28.4166   20.8151 C   0  0  0  0  0  0  0  0  0  0  0  0
  -24.1971  -27.1898   20.1812 C   0  0  0  0  0  0  0  0  0  0  0  0
  -25.6185  -11.2706   21.3829 C   0  0  0  0  0  0  0  0  0  0  0  0
  -24.4792  -11.2330   20.5792 C   0  0  0  0  0  0  0  0  0  0  0  0
  -19.9176  -22.2327   24.2867 C   0  0  0  0  0  0  0  0  0  0  0  0
  -21.7354  -23.1120   22.9602 C   0  0  0  0  0  0  0  0  0  0  0  0
  -25.6480  -28.9266   21.0143 C   0  0  0  0  0  0  0  0  0  0  0  0
  -25.3106  -26.4726   19.7452 C   0  0  0  0  0  0  0  0  0  0  0  0
  -25.0254  -21.5501   20.8996 C   0  0  0  0  0  0  0  0  0  0  0  0
  -26.3602  -12.4474   21.4868 C   0  0  0  0  0  0  0  0  0  0  0  0
  -24.0815  -12.3721   19.8793 C   0  0  0  0  0  0  0  0  0  0  0  0
  -19.5338  -23.5312   24.6215 C   0  0  0  0  0  0  0  0  0  0  0  0
  -21.3516  -24.4105   23.2950 C   0  0  0  0  0  0  0  0  0  0  0  0
  -24.2081  -20.7545   20.0979 C   0  0  0  0  0  0  0  0  0  0  0  0
  -20.6327  -27.9680   23.5086 C   0  0  0  0  0  0  0  0  0  0  0  0
  -20.5895  -28.9162   22.4865 C   0  0  0  0  0  0  0  0  0  0  0  0
  -26.1509  -19.9808   18.8954 C   0  0  0  0  0  0  0  0  0  0  0  0
  -18.9468  -27.5833   21.3194 C   0  0  0  0  0  0  0  0  0  0  0  0
  -21.0184  -22.0231   23.4561 C   0  0  0  0  0  0  0  0  0  0  0  0
  -20.9785  -19.9233   22.0080 C   0  0  0  0  0  0  0  0  0  0  0  0
  -26.7783  -28.2109   20.5891 C   0  0  0  0  0  0  0  0  0  0  0  0
  -26.4128  -21.5755   20.6977 C   0  0  0  0  0  0  0  0  0  0  0  0
  -26.6091  -26.9742   19.9377 C   0  0  0  0  0  0  0  0  0  0  0  0
  -26.9839  -20.7757   19.6975 C   0  0  0  0  0  0  0  0  0  0  0  0
  -25.9625  -13.5866   20.7870 C   0  0  0  0  0  0  0  0  0  0  0  0
  -20.2507  -24.6201   24.1257 C   0  0  0  0  0  0  0  0  0  0  0  0
  -24.7705  -19.9719   19.0938 C   0  0  0  0  0  0  0  0  0  0  0  0
  -24.8231  -13.5490   19.9832 C   0  0  0  0  0  0  0  0  0  0  0  0
  -19.8329  -26.8274   23.4361 C   0  0  0  0  0  0  0  0  0  0  0  0
  -19.7466  -28.7239   21.3919 C   0  0  0  0  0  0  0  0  0  0  0  0
  -18.9900  -26.6351   22.3415 C   0  0  0  0  0  0  0  0  0  0  0  0
  -21.4157  -20.6819   23.1103 C   0  0  0  0  0  0  0  0  0  0  0  0
  -21.6450  -18.7283   22.1276 C   0  0  0  0  0  0  0  0  0  0  0  0
  -20.0529  -20.2680   20.9688 C   0  0  0  0  0  0  0  0  0  0  0  0
  -28.5218  -23.8131   19.8919 C   0  0  0  0  0  0  0  0  0  0  0  0
  -23.4847  -16.9216   17.6286 C   0  0  0  0  0  0  0  0  0  0  0  0
  -30.6666  -21.4513   20.4786 C   0  0  0  0  0  0  0  0  0  0  0  0
  -31.3058  -18.1058   20.6926 C   0  0  0  0  0  0  0  0  0  0  0  0
  -26.3116  -15.8379   23.1344 C   0  0  0  0  0  0  0  0  0  0  0  0
  -28.1420  -28.8248   20.7842 C   0  0  0  0  0  0  0  0  0  0  0  0
  -27.2835  -22.4187   21.5884 C   0  0  0  0  0  0  0  0  0  0  0  0
  -28.4699  -20.7518   19.4534 C   0  0  0  0  0  0  0  0  0  0  0  0
  -29.2870  -27.8274   20.6275 C   0  0  0  0  0  0  0  0  0  0  0  0
  -24.3784  -16.8510   25.9474 C   0  0  0  0  0  0  0  0  0  0  0  0
  -29.0856  -26.9754   19.3783 C   0  0  0  0  0  0  0  0  0  0  0  0
  -23.4040  -17.8794   25.3704 C   0  0  0  0  0  0  0  0  0  0  0  0
  -25.7501  -16.9377   25.2818 C   0  0  0  0  0  0  0  0  0  0  0  0
  -24.7564  -17.8795   23.2326 C   0  0  0  0  0  0  0  0  0  0  0  0
  -27.7935  -26.1550   19.4725 C   0  0  1  0  0  0  0  0  0  0  0  0
  -28.6302  -22.7599   20.9581 C   0  0  1  0  0  0  0  0  0  0  0  0
  -23.3429  -17.7932   23.8335 C   0  0  2  0  0  0  0  0  0  0  0  0
  -33.1613  -16.4803   21.1534 C   0  0  0  0  0  0  0  0  0  0  0  0
  -31.8026  -21.9622   17.6932 C   0  0  0  0  0  0  0  0  0  0  0  0
  -32.9680  -19.7511   17.8389 C   0  0  0  0  0  0  0  0  0  0  0  0
  -33.5225  -21.5607   19.4638 C   0  0  0  0  0  0  0  0  0  0  0  0
  -29.8980  -16.9865   23.0430 C   0  0  0  0  0  0  0  0  0  0  0  0
  -26.7686  -14.8371   20.9098 C   0  0  0  0  0  0  0  0  0  0  0  0
  -23.9783  -15.5838   17.0977 C   0  0  0  0  0  0  0  0  0  0  0  0
  -24.5455  -17.9921   17.7954 C   0  0  0  0  0  0  0  0  0  1  0  0
  -23.7336  -14.4330   18.0629 C   0  0  0  0  0  0  0  0  0  0  0  0
  -31.3063  -20.3594   19.6554 C   0  0  1  0  0  0  0  0  0  0  0  0
  -32.0155  -17.2816   21.7516 C   0  0  2  0  0  0  0  0  0  0  0  0
  -32.3716  -20.9101   18.6659 C   0  0  0  0  0  0  0  0  0  0  0  0
  -22.2920  -20.0240   23.8741 N   0  0  0  0  0  0  0  0  0  0  0  0
  -22.4107  -18.8393   23.2508 N   0  0  0  0  0  0  0  0  0  0  0  0
  -29.2785  -21.5981   20.3464 N   0  0  0  0  0  0  0  0  0  0  0  0
  -25.6222  -16.8480   23.8253 N   0  0  0  0  0  0  0  0  0  0  0  0
  -21.6447  -17.6038   21.3806 N   0  0  0  0  0  0  0  0  0  0  0  0
  -19.4587  -21.5371   20.9972 N   0  0  0  0  0  0  0  0  0  0  0  0
  -27.9851  -25.0074   20.3333 N   0  0  0  0  0  0  0  0  0  0  0  0
  -31.8231  -19.3810   20.6063 N   0  0  0  0  0  0  0  0  0  0  0  0
  -26.1305  -15.8200   21.7568 N   0  0  0  0  0  0  0  0  0  0  0  0
  -31.0630  -16.3322   22.3937 N   0  3  0  0  0  0  0  0  0  0  0  0
  -19.7487  -19.4682   20.0516 O   0  0  0  0  0  0  0  0  0  0  0  0
  -28.8986  -23.5612   18.7534 O   0  0  0  0  0  0  0  0  0  0  0  0
  -22.3046  -17.1313   17.9047 O   0  0  0  0  0  0  0  0  0  0  0  0
  -31.3715  -22.1435   21.2171 O   0  0  0  0  0  0  0  0  0  0  0  0
  -30.3871  -17.6615   20.0077 O   0  0  0  0  0  0  0  0  0  0  0  0
  -27.0308  -15.0098   23.7036 O   0  0  0  0  0  0  0  0  0  0  0  0
  -19.8763  -25.8874   24.4520 O   0  0  0  0  0  0  0  0  0  0  0  0
  -23.9749  -19.1948   18.3094 O   0  0  0  0  0  0  0  0  0  1  0  0
  -24.4192  -14.6587   19.2884 O   0  0  0  0  0  0  0  0  0  0  0  0
  -19.7041  -29.6353   20.4112 F   0  0  0  0  0  0  0  0  0  0  0  0
  -18.2185  -25.5420   22.2668 F   0  0  0  0  0  0  0  0  0  0  0  0
  1  2  1  0  0  0  0
  1  7  2  0  0  0  0
  2  8  2  0  0  0  0
  3  4  1  0  0  0  0
  3 10  2  0  0  0  0
  4 11  2  0  0  0  0
  5 12  2  0  0  0  0
  5 19  1  0  0  0  0
  6 13  1  0  0  0  0
  6 19  2  0  0  0  0
  7 21  1  0  0  0  0
  8 23  1  0  0  0  0
  9 14  2  0  0  0  0
  9 22  1  0  0  0  0
 10 25  1  0  0  0  0
 11 28  1  0  0  0  0
 12 26  1  0  0  0  0
 13 26  2  0  0  0  0
 14 27  1  0  0  0  0
 15 16  2  0  0  0  0
 15 29  1  0  0  0  0
 16 30  1  0  0  0  0
 17 24  1  0  0  0  0
 17 27  2  0  0  0  0
 18 30  2  0  0  0  0
 18 31  1  0  0  0  0
 19 32  1  0  0  0  0
 20 32  1  0  0  0  0
 20 33  2  0  0  0  0
 20 34  1  0  0  0  0
 21 23  2  0  0  0  0
 21 40  1  0  0  0  0
 22 24  2  0  0  0  0
 22 41  1  0  0  0  0
 23 49  1  0  0  0  0
 24 42  1  0  0  0  0
 25 28  2  0  0  0  0
 25 57  1  0  0  0  0
 26 80  1  0  0  0  0
 27 81  1  0  0  0  0
 28 82  1  0  0  0  0
 29 31  2  0  0  0  0
 29 80  1  0  0  0  0
 30 83  1  0  0  0  0
 31 84  1  0  0  0  0
 32 64  2  0  0  0  0
 33 65  1  0  0  0  0
 33 68  1  0  0  0  0
 34 69  1  0  0  0  0
 34 74  2  0  0  0  0
 35 50  1  0  0  0  0
 35 70  1  0  0  0  0
 35 75  2  0  0  0  0
 36 58  1  0  0  0  0
 36 59  1  0  0  0  0
 36 76  2  0  0  0  0
 37 61  1  0  0  0  0
 37 66  1  0  0  0  0
 37 77  2  0  0  0  0
 38 62  1  0  0  0  0
 38 71  1  0  0  0  0
 38 78  2  0  0  0  0
 39 67  1  0  0  0  0
 39 72  1  0  0  0  0
 39 79  2  0  0  0  0
 40 43  1  0  0  0  0
 41 50  1  0  0  0  0
 42 66  1  0  0  0  0
 43 45  1  0  0  0  0
 44 46  1  0  0  0  0
 44 47  1  0  0  0  0
 45 49  1  0  0  0  0
 46 51  1  0  0  0  0
 47 67  1  0  0  0  0
 48 51  1  0  0  0  0
 48 67  1  0  0  0  0
 49 70  1  0  0  0  0
 50 66  1  0  0  0  0
 51 65  1  0  0  0  0
 52 62  1  0  0  0  0
 53 63  1  0  0  0  0
 54 63  1  0  0  0  0
 55 63  1  0  0  0  0
 56 73  1  0  0  0  0
 57 72  1  0  0  0  0
 58 60  1  0  0  0  0
 59 81  1  0  0  0  0
 60 82  1  0  0  0  0
 61 63  1  0  0  0  0
 61 71  1  0  0  0  0
 62 73  1  0  0  0  0
 64 65  1  0  0  0  0
M  CHG  1  73   1
M  ISO  4  39 100  59 101  72 100  81 101
M  END
> <Batch ID>
0108

> <Smiles>
CNC(C)C(=O)NC(C(=O)N1Cc2cc([101O:1][101CH2:1]C(=O)CCOc3ccccc3C[100NH:0][100C:0](=O)N3CCCC(n4nc(-c5ccc(Oc6ccc(F)cc6F)cc5)c(C(N)=O)c4N)C3)ccc2CC1C(=O)NC1CCCc2ccccc21)C(C)(C)C

> <Shape>
0.189

> <Color>
0.079

> <Negative vol penalty>
0.000

$$$$

  -OEChem-04052301203D

 84 92  0     1  0  0  0  0  0999 V2000
  -20.2219  -10.6560   19.7369 C   0  0  0  0  0  0  0  0  0  0  0  0
  -20.9843  -11.7561   20.1162 C   0  0  0  0  0  0  0  0  0  0  0  0
  -23.2849  -32.1780   24.9712 C   0  0  0  0  0  0  0  0  0  0  0  0
  -25.3792  -31.6300   26.0438 C   0  0  0  0  0  0  0  0  0  0  0  0
  -20.7246   -9.3673   19.9115 C   0  0  0  0  0  0  0  0  0  0  0  0
  -22.2495  -11.5681   20.6714 C   0  0  0  0  0  0  0  0  0  0  0  0
  -25.7121  -14.7083   18.7232 C   0  0  0  0  0  0  0  0  0  0  0  0
  -22.6656  -32.2536   26.2187 C   0  0  0  0  0  0  0  0  0  0  0  0
  -24.7600  -31.7056   27.2914 C   0  0  0  0  0  0  0  0  0  0  0  0
  -25.7119  -16.0231   19.1870 C   0  0  0  0  0  0  0  0  0  0  0  0
  -22.4571  -34.4673   28.7661 C   0  0  0  0  0  0  0  0  0  0  0  0
  -21.6122  -35.5509   29.0058 C   0  0  0  0  0  0  0  0  0  0  0  0
  -27.5524  -15.4989   20.6557 C   0  0  0  0  0  0  0  0  0  0  0  0
  -30.5856  -26.3102   22.7634 C   0  0  0  0  0  0  0  0  0  0  0  0
  -31.4577  -24.0590   22.8537 C   0  0  0  0  0  0  0  0  0  0  0  0
  -29.6461  -24.5931   21.3471 C   0  0  0  0  0  0  0  0  0  0  0  0
  -19.7710  -34.0322   29.3814 C   0  0  0  0  0  0  0  0  0  0  0  0
  -24.6416  -31.8661   24.8837 C   0  0  0  0  0  0  0  0  0  0  0  0
  -25.9140  -32.8320   22.8948 C   0  0  0  0  0  0  0  0  0  0  0  0
  -22.0006   -9.1638   20.4602 C   0  0  0  0  0  0  0  0  0  0  0  0
  -26.6269  -13.7746   19.2310 C   0  0  0  0  0  0  0  0  0  0  0  0
  -22.7693  -10.2755   20.8548 C   0  0  0  0  0  0  0  0  0  0  0  0
  -27.5638  -14.1736   20.1949 C   0  0  0  0  0  0  0  0  0  0  0  0
  -31.4801  -25.3818   23.2957 C   0  0  0  0  0  0  0  0  0  0  0  0
  -29.6685  -25.9159   21.7891 C   0  0  0  0  0  0  0  0  0  0  0  0
  -23.4032  -32.0174   27.3789 C   0  0  0  0  0  0  0  0  0  0  0  0
  -26.6302  -16.4178   20.1555 C   0  0  0  0  0  0  0  0  0  0  0  0
  -21.9590  -33.1661   28.8339 C   0  0  0  0  0  0  0  0  0  0  0  0
  -30.5406  -23.6646   21.8794 C   0  0  0  0  0  0  0  0  0  0  0  0
  -20.2691  -35.3334   29.3134 C   0  0  0  0  0  0  0  0  0  0  0  0
  -20.6160  -32.9486   29.1416 C   0  0  0  0  0  0  0  0  0  0  0  0
  -25.2817  -31.7873   23.5952 C   0  0  0  0  0  0  0  0  0  0  0  0
  -26.3570  -32.2479   21.7334 C   0  0  0  0  0  0  0  0  0  0  0  0
  -26.0857  -34.2075   23.2614 C   0  0  0  0  0  0  0  0  0  0  0  0
  -26.3848  -11.0373   20.8286 C   0  0  0  0  0  0  0  0  0  0  0  0
  -29.5946  -10.9374   20.3713 C   0  0  0  0  0  0  0  0  0  0  0  0
  -32.4916  -12.6424   19.7820 C   0  0  0  0  0  0  0  0  0  0  0  0
  -27.7864  -26.6321   20.2755 C   0  0  0  0  0  0  0  0  0  0  0  0
  -22.4821   -7.7505   20.6734 C   0  0  0  0  0  0  0  0  0  0  0  0
  -26.6317  -12.3669   18.7009 C   0  0  0  0  0  0  0  0  0  0  0  0
  -28.5801  -13.2148   20.7575 C   0  0  0  0  0  0  0  0  0  0  0  0
  -23.9848   -7.6501   20.9228 C   0  0  0  0  0  0  0  0  0  0  0  0
  -25.3312  -28.6798   18.7083 C   0  0  0  0  0  0  0  0  0  0  0  0
  -24.4269   -8.6918   21.9456 C   0  0  0  0  0  0  0  0  0  0  0  0
  -25.1019  -29.8075   19.7172 C   0  0  0  0  0  0  0  0  0  0  0  0
  -25.5706  -27.3393   19.4007 C   0  0  0  0  0  0  0  0  0  0  0  0
  -26.4040  -28.4727   21.4231 C   0  0  0  0  0  0  0  0  0  0  0  0
  -24.1563  -10.1132   21.4377 C   0  0  1  0  0  0  0  0  0  0  0  0
  -27.2710  -11.3689   19.6614 C   0  0  1  0  0  0  0  0  0  0  0  0
  -26.2228  -29.8546   20.7741 C   0  0  2  0  0  0  0  0  0  0  0  0
  -34.9602  -12.2925   19.4972 C   0  0  0  0  0  0  0  0  0  0  0  0
  -29.8861  -10.5573   23.3848 C   0  0  0  0  0  0  0  0  0  0  0  0
  -32.3047  -11.1629   23.1569 C   0  0  0  0  0  0  0  0  0  0  0  0
  -31.4132   -9.1396   22.0020 C   0  0  0  0  0  0  0  0  0  0  0  0
  -32.4461  -13.7322   17.0308 C   0  0  0  0  0  0  0  0  0  0  0  0
  -32.4605  -25.8031   24.3375 C   0  0  0  0  0  0  0  0  0  0  0  0
  -27.9012  -19.7425   20.8311 C   0  0  0  0  0  0  0  0  0  0  0  0
  -29.2296  -20.3544   21.2620 C   0  0  0  0  0  0  0  0  0  0  0  0
  -27.8822  -18.2346   21.0431 C   0  0  0  0  0  0  0  0  0  1  0  0
  -29.2652  -21.8552   21.0105 C   0  0  0  0  0  0  0  0  0  0  0  0
  -30.7991  -11.4335   21.1343 C   0  0  1  0  0  0  0  0  0  0  0  0
  -33.6173  -12.4036   18.7920 C   0  0  2  0  0  0  0  0  0  0  0  0
  -31.0805  -10.5911   22.4105 C   0  0  0  0  0  0  0  0  0  0  0  0
  -25.3175  -30.6274   22.9339 N   0  0  0  0  0  0  0  0  0  0  0  0
  -25.9776  -30.9398   21.8057 N   0  0  0  0  0  0  0  0  0  0  0  0
  -28.5405  -11.8480   20.2119 N   0  0  0  0  0  0  0  0  0  0  0  0
  -26.6486  -27.4593   20.3848 N   0  0  0  0  0  0  0  0  0  0  0  0
  -27.0301  -32.7307   20.6674 N   0  0  0  0  0  0  0  0  0  0  0  0
  -25.5690  -34.6410   24.4900 N   0  0  0  0  0  0  0  0  0  0  0  0
  -28.7596  -26.8588   21.2483 N   0  0  0  0  0  0  0  0  0  0  0  0
  -25.1606  -10.5045   20.4719 N   0  0  0  0  0  0  0  0  0  0  0  0
  -31.9032  -11.4609   20.1810 N   0  0  0  0  0  0  0  0  0  0  0  0
  -31.9450  -25.6589   25.7270 N   0  3  0  0  0  0  0  0  0  0  0  0
  -33.6922  -13.5244   17.8126 N   0  3  0  0  0  0  0  0  0  0  0  0
  -26.6653  -35.0315   22.5140 O   0  0  0  0  0  0  0  0  0  0  0  0
  -26.7827  -11.2476   21.9683 O   0  0  0  0  0  0  0  0  0  0  0  0
  -29.5922   -9.7867   19.9269 O   0  0  0  0  0  0  0  0  0  0  0  0
  -32.1691  -13.7644   20.1661 O   0  0  0  0  0  0  0  0  0  0  0  0
  -27.9019  -25.8039   19.3685 O   0  0  0  0  0  0  0  0  0  0  0  0
  -22.7993  -32.0914   28.5964 O   0  0  0  0  0  0  0  0  0  0  0  0
  -26.6317  -17.7004   20.6104 O   0  0  0  0  0  0  0  0  0  1  0  0
  -30.5184  -22.3646   21.4454 O   0  0  0  0  0  0  0  0  0  0  0  0
  -19.4582  -36.3740   29.5451 F   0  0  0  0  0  0  0  0  0  0  0  0
  -20.1320  -31.7008   29.2094 F   0  0  0  0  0  0  0  0  0  0  0  0
  1  2  1  0  0  0  0
  1  5  2  0  0  0  0
  2  6  2  0  0  0  0
  3  8  2  0  0  0  0
  3 18  1  0  0  0  0
  4  9  1  0  0  0  0
  4 18  2  0  0  0  0
  5 20  1  0  0  0  0
  6 22  1  0  0  0  0
  7 10  2  0  0  0  0
  7 21  1  0  0  0  0
  8 26  1  0  0  0  0
  9 26  2  0  0  0  0
 10 27  1  0  0  0  0
 11 12  2  0  0  0  0
 11 28  1  0  0  0  0
 12 30  1  0  0  0  0
 13 23  1  0  0  0  0
 13 27  2  0  0  0  0
 14 24  1  0  0  0  0
 14 25  2  0  0  0  0
 15 24  2  0  0  0  0
 15 29  1  0  0  0  0
 16 25  1  0  0  0  0
 16 29  2  0  0  0  0
 17 30  2  0  0  0  0
 17 31  1  0  0  0  0
 18 32  1  0  0  0  0
 19 32  1  0  0  0  0
 19 33  2  0  0  0  0
 19 34  1  0  0  0  0
 20 22  2  0  0  0  0
 20 39  1  0  0  0  0
 21 23  2  0  0  0  0
 21 40  1  0  0  0  0
 22 48  1  0  0  0  0
 23 41  1  0  0  0  0
 24 56  1  0  0  0  0
 25 70  1  0  0  0  0
 26 80  1  0  0  0  0
 27 81  1  0  0  0  0
 28 31  2  0  0  0  0
 28 80  1  0  0  0  0
 29 82  1  0  0  0  0
 30 83  1  0  0  0  0
 31 84  1  0  0  0  0
 32 64  2  0  0  0  0
 33 65  1  0  0  0  0
 33 68  1  0  0  0  0
 34 69  1  0  0  0  0
 34 75  2  0  0  0  0
 35 49  1  0  0  0  0
 35 71  1  0  0  0  0
 35 76  2  0  0  0  0
 36 61  1  0  0  0  0
 36 66  1  0  0  0  0
 36 77  2  0  0  0  0
 37 62  1  0  0  0  0
 37 72  1  0  0  0  0
 37 78  2  0  0  0  0
 38 67  1  0  0  0  0
 38 70  1  0  0  0  0
 38 79  2  0  0  0  0
 39 42  1  0  0  0  0
 40 49  1  0  0  0  0
 41 66  1  0  0  0  0
 42 44  1  0  0  0  0
 43 45  1  0  0  0  0
 43 46  1  0  0  0  0
 44 48  1  0  0  0  0
 45 50  1  0  0  0  0
 46 67  1  0  0  0  0
 47 50  1  0  0  0  0
 47 67  1  0  0  0  0
 48 71  1  0  0  0  0
 49 66  1  0  0  0  0
 50 65  1  0  0  0  0
 51 62  1  0  0  0  0
 52 63  1  0  0  0  0
 53 63  1  0  0  0  0
 54 63  1  0  0  0  0
 55 74  1  0  0  0  0
 56 73  1  0  0  0  0
 57 58  1  0  0  0  0
 57 59  1  0  0  0  0
 58 60  1  0  0  0  0
 59 81  1  0  0  0  0
 60 82  1  0  0  0  0
 61 63  1  0  0  0  0
 61 72  1  0  0  0  0
 62 74  1  0  0  0  0
 64 65  1  0  0  0  0
M  CHG  2  73   1  74   1
M  ISO  4  38 100  59 101  70 100  81 101
M  END
> <Batch ID>
0108

> <Smiles>
CNC(C)C(=O)NC(C(=O)N1Cc2cc([101O:1][101CH2:1]CCCOc3cc(CN)cc([100NH:0][100C:0](=O)N4CCCC(n5nc(-c6ccc(Oc7ccc(F)cc7F)cc6)c(C(N)=O)c5N)C4)c3)ccc2CC1C(=O)NC1CCCc2ccccc21)C(C)(C)C

> <Shape>
0.244

> <Color>
0.076

> <Negative vol penalty>
0.000

$$$$

  -OEChem-04052301203D

 87 95  0     1  0  0  0  0  0999 V2000
  -26.5494  -38.3479   24.9919 C   0  0  0  0  0  0  0  0  0  0  0  0
  -27.2741  -37.6461   24.0339 C   0  0  0  0  0  0  0  0  0  0  0  0
  -22.6696   -9.8622   22.6936 C   0  0  0  0  0  0  0  0  0  0  0  0
  -23.6566   -9.6204   20.5017 C   0  0  0  0  0  0  0  0  0  0  0  0
  -25.8027  -37.6560   25.9447 C   0  0  0  0  0  0  0  0  0  0  0  0
  -27.2534  -36.2518   24.0289 C   0  0  0  0  0  0  0  0  0  0  0  0
  -27.5307  -30.6806   19.5344 C   0  0  0  0  0  0  0  0  0  0  0  0
  -22.0582   -8.6161   22.5558 C   0  0  0  0  0  0  0  0  0  0  0  0
  -23.0452   -8.3743   20.3639 C   0  0  0  0  0  0  0  0  0  0  0  0
  -28.2311  -29.4917   19.3345 C   0  0  0  0  0  0  0  0  0  0  0  0
  -22.9446   -5.3638   22.8199 C   0  0  0  0  0  0  0  0  0  0  0  0
  -23.0047   -4.4888   23.9044 C   0  0  0  0  0  0  0  0  0  0  0  0
  -26.8425  -28.4040   20.9801 C   0  0  0  0  0  0  0  0  0  0  0  0
  -29.5265  -17.5540   19.8157 C   0  0  0  0  0  0  0  0  0  0  0  0
  -30.4798  -19.6330   20.5940 C   0  0  0  0  0  0  0  0  0  0  0  0
  -20.5915   -4.4617   24.0164 C   0  0  0  0  0  0  0  0  0  0  0  0
  -23.4688  -10.3644   21.6665 C   0  0  0  0  0  0  0  0  0  0  0  0
  -25.3712  -11.9203   22.3505 C   0  0  0  0  0  0  0  0  0  0  0  0
  -25.7652  -36.2527   25.9453 C   0  0  0  0  0  0  0  0  0  0  0  0
  -26.4863  -30.7430   20.4680 C   0  0  0  0  0  0  0  0  0  0  0  0
  -26.5067  -35.5405   24.9834 C   0  0  0  0  0  0  0  0  0  0  0  0
  -26.1287  -29.5942   21.1880 C   0  0  0  0  0  0  0  0  0  0  0  0
  -28.2575  -17.9957   20.1899 C   0  0  0  0  0  0  0  0  0  0  0  0
  -28.0995  -19.2562   20.7661 C   0  0  0  0  0  0  0  0  0  0  0  0
  -30.6377  -18.3726   20.0179 C   0  0  0  0  0  0  0  0  0  0  0  0
  -22.2460   -7.8721   21.3910 C   0  0  0  0  0  0  0  0  0  0  0  0
  -27.8889  -28.3540   20.0595 C   0  0  0  0  0  0  0  0  0  0  0  0
  -21.7078   -5.7879   22.3336 C   0  0  0  0  0  0  0  0  0  0  0  0
  -29.2107  -20.0749   20.9682 C   0  0  0  0  0  0  0  0  0  0  0  0
  -21.8282   -4.0377   24.5027 C   0  0  0  0  0  0  0  0  0  0  0  0
  -20.5313   -5.3368   22.9319 C   0  0  0  0  0  0  0  0  0  0  0  0
  -24.1002  -11.6518   21.8080 C   0  0  0  0  0  0  0  0  0  0  0  0
  -25.5027  -13.2844   22.2583 C   0  0  0  0  0  0  0  0  0  0  0  0
  -26.3458  -11.0174   22.8894 C   0  0  0  0  0  0  0  0  0  0  0  0
  -25.9583  -32.3875   23.1365 C   0  0  0  0  0  0  0  0  0  0  0  0
  -23.0382  -30.9862   22.9599 C   0  0  0  0  0  0  0  0  0  0  0  0
  -21.1304  -28.3999   21.8116 C   0  0  0  0  0  0  0  0  0  0  0  0
  -24.9080  -17.8300   18.8967 C   0  0  0  0  0  0  0  0  0  0  0  0
  -24.9817  -35.5480   27.0243 C   0  0  0  0  0  0  0  0  0  0  0  0
  -25.7231  -32.0259   20.6526 C   0  0  0  0  0  0  0  0  0  0  0  0
  -25.0020  -29.6034   22.1876 C   0  0  0  0  0  0  0  0  0  0  0  0
  -24.7128  -34.0766   26.7194 C   0  0  0  0  0  0  0  0  0  0  0  0
  -22.1254  -16.8674   21.1399 C   0  0  0  0  0  0  0  0  0  0  0  0
  -25.9850  -33.3915   26.2306 C   0  0  0  0  0  0  0  0  0  0  0  0
  -22.4687  -15.4217   21.4949 C   0  0  0  0  0  0  0  0  0  0  0  0
  -22.6712  -17.2600   19.7704 C   0  0  0  0  0  0  0  0  0  0  0  0
  -24.4763  -15.5820   19.9704 C   0  0  0  0  0  0  0  0  0  0  0  0
  -26.4896  -34.0282   24.9300 C   0  0  1  0  0  0  0  0  0  0  0  0
  -25.0142  -32.1108   22.0008 C   0  0  1  0  0  0  0  0  0  0  0  0
  -23.9808  -15.1689   21.3644 C   0  0  2  0  0  0  0  0  0  0  0  0
  -26.5214  -19.6441   22.6754 C   0  0  0  0  0  0  0  0  0  0  0  0
  -18.7852  -27.5083   21.8614 C   0  0  0  0  0  0  0  0  0  0  0  0
  -23.4736  -30.0072   25.8168 C   0  0  0  0  0  0  0  0  0  0  0  0
  -21.6011  -28.3816   25.4710 C   0  0  0  0  0  0  0  0  0  0  0  0
  -21.1623  -30.8337   25.3381 C   0  0  0  0  0  0  0  0  0  0  0  0
  -27.0234  -17.9063   17.6322 C   0  0  0  0  0  0  0  0  0  0  0  0
  -20.8658  -28.6063   18.8711 C   0  0  0  0  0  0  0  0  0  0  0  0
  -26.7414  -19.7349   21.1691 C   0  0  0  0  0  0  0  0  0  0  0  0
  -27.0836  -17.1004   19.9630 C   0  0  0  0  0  0  0  0  0  0  0  0
  -29.0508  -24.8689   20.3157 C   0  0  0  0  0  0  0  0  0  0  0  0
  -28.6412  -23.6334   21.1097 C   0  0  0  0  0  0  0  0  0  0  0  0
  -28.1677  -26.0655   20.6435 C   0  0  0  0  0  0  0  0  0  1  0  0
  -29.4958  -22.4259   20.7511 C   0  0  0  0  0  0  0  0  0  0  0  0
  -22.4369  -29.6997   23.4723 C   0  0  1  0  0  0  0  0  0  0  0  0
  -19.7841  -28.3751   21.1106 C   0  0  2  0  0  0  0  0  0  0  0  0
  -22.1910  -29.7306   25.0072 C   0  0  0  0  0  0  0  0  0  0  0  0
  -23.4692  -12.7567   21.4015 N   0  0  0  0  0  0  0  0  0  0  0  0
  -24.3473  -13.7326   21.6887 N   0  0  0  0  0  0  0  0  0  0  0  0
  -24.2901  -30.8833   22.3369 N   0  0  0  0  0  0  0  0  0  0  0  0
  -24.1009  -16.9692   19.6586 N   0  0  0  0  0  0  0  0  0  0  0  0
  -31.9209  -17.9260   19.6397 N   0  0  0  0  0  0  0  0  0  0  0  0
  -26.4927  -14.1321   22.6097 N   0  0  0  0  0  0  0  0  0  0  0  0
  -26.0495   -9.6476   22.9079 N   0  0  0  0  0  0  0  0  0  0  0  0
  -25.7034  -33.5699   23.8047 N   0  0  0  0  0  0  0  0  0  0  0  0
  -21.2349  -29.4666   22.6791 N   0  0  0  0  0  0  0  0  0  0  0  0
  -26.2756  -17.5253   18.8220 N   0  0  0  0  0  0  0  0  0  0  0  0
  -19.9294  -27.8355   19.7290 N   0  3  0  0  0  0  0  0  0  0  0  0
  -27.4401  -11.4151   23.3562 O   0  0  0  0  0  0  0  0  0  0  0  0
  -26.8510  -31.5868   23.3888 O   0  0  0  0  0  0  0  0  0  0  0  0
  -22.4166  -32.0423   23.1005 O   0  0  0  0  0  0  0  0  0  0  0  0
  -22.0008  -27.5553   21.6124 O   0  0  0  0  0  0  0  0  0  0  0  0
  -24.4349  -18.8201   18.3242 O   0  0  0  0  0  0  0  0  0  0  0  0
  -21.6498   -6.6560   21.2563 O   0  0  0  0  0  0  0  0  0  0  0  0
  -28.5714  -27.1925   19.8669 O   0  0  0  0  0  0  0  0  0  1  0  0
  -29.0751  -21.3165   21.5329 O   0  0  0  0  0  0  0  0  0  0  0  0
  -21.8861   -3.1961   25.5432 F   0  0  0  0  0  0  0  0  0  0  0  0
  -19.3403   -5.7397   22.4684 F   0  0  0  0  0  0  0  0  0  0  0  0
  1  2  1  0  0  0  0
  1  5  2  0  0  0  0
  2  6  2  0  0  0  0
  3  8  2  0  0  0  0
  3 17  1  0  0  0  0
  4  9  1  0  0  0  0
  4 17  2  0  0  0  0
  5 19  1  0  0  0  0
  6 21  1  0  0  0  0
  7 10  2  0  0  0  0
  7 20  1  0  0  0  0
  8 26  1  0  0  0  0
  9 26  2  0  0  0  0
 10 27  1  0  0  0  0
 11 12  2  0  0  0  0
 11 28  1  0  0  0  0
 12 30  1  0  0  0  0
 13 22  1  0  0  0  0
 13 27  2  0  0  0  0
 14 23  2  0  0  0  0
 14 25  1  0  0  0  0
 15 25  2  0  0  0  0
 15 29  1  0  0  0  0
 16 30  2  0  0  0  0
 16 31  1  0  0  0  0
 17 32  1  0  0  0  0
 18 32  1  0  0  0  0
 18 33  2  0  0  0  0
 18 34  1  0  0  0  0
 19 21  2  0  0  0  0
 19 39  1  0  0  0  0
 20 22  2  0  0  0  0
 20 40  1  0  0  0  0
 21 48  1  0  0  0  0
 22 41  1  0  0  0  0
 23 24  1  0  0  0  0
 23 59  1  0  0  0  0
 24 29  2  0  0  0  0
 24 58  1  0  0  0  0
 25 71  1  0  0  0  0
 26 83  1  0  0  0  0
 27 84  1  0  0  0  0
 28 31  2  0  0  0  0
 28 83  1  0  0  0  0
 29 85  1  0  0  0  0
 30 86  1  0  0  0  0
 31 87  1  0  0  0  0
 32 67  2  0  0  0  0
 33 68  1  0  0  0  0
 33 72  1  0  0  0  0
 34 73  1  0  0  0  0
 34 78  2  0  0  0  0
 35 49  1  0  0  0  0
 35 74  1  0  0  0  0
 35 79  2  0  0  0  0
 36 64  1  0  0  0  0
 36 69  1  0  0  0  0
 36 80  2  0  0  0  0
 37 65  1  0  0  0  0
 37 75  1  0  0  0  0
 37 81  2  0  0  0  0
 38 70  1  0  0  0  0
 38 76  1  0  0  0  0
 38 82  2  0  0  0  0
 39 42  1  0  0  0  0
 40 49  1  0  0  0  0
 41 69  1  0  0  0  0
 42 44  1  0  0  0  0
 43 45  1  0  0  0  0
 43 46  1  0  0  0  0
 44 48  1  0  0  0  0
 45 50  1  0  0  0  0
 46 70  1  0  0  0  0
 47 50  1  0  0  0  0
 47 70  1  0  0  0  0
 48 74  1  0  0  0  0
 49 69  1  0  0  0  0
 50 68  1  0  0  0  0
 51 58  1  0  0  0  0
 52 65  1  0  0  0  0
 53 66  1  0  0  0  0
 54 66  1  0  0  0  0
 55 66  1  0  0  0  0
 56 76  1  0  0  0  0
 57 77  1  0  0  0  0
 59 76  1  0  0  0  0
 60 61  1  0  0  0  0
 60 62  1  0  0  0  0
 61 63  1  0  0  0  0
 62 84  1  0  0  0  0
 63 85  1  0  0  0  0
 64 66  1  0  0  0  0
 64 75  1  0  0  0  0
 65 77  1  0  0  0  0
 67 68  1  0  0  0  0
M  CHG  1  77   1
M  ISO  4  38 100  62 101  76 100  84 101
M  END
> <Batch ID>
0108

> <Smiles>
CCc1c(C[100N:0](C)[100C:0](=O)N2CCCC(n3nc(-c4ccc(Oc5ccc(F)cc5F)cc4)c(C(N)=O)c3N)C2)cc(N)cc1OCCC[101CH2:1][101O:1]c1ccc2c(c1)CN(C(=O)C(NC(=O)C(C)NC)C(C)(C)C)C(C(=O)NC1CCCc3ccccc31)C2

> <Shape>
0.310

> <Color>
0.112

> <Negative vol penalty>
0.000

$$$$

  -OEChem-04052301203D

 86 95  0     1  0  0  0  0  0999 V2000
  -23.0010  -10.6357   19.7019 C   0  0  0  0  0  0  0  0  0  0  0  0
  -22.2971  -11.8356   19.6887 C   0  0  0  0  0  0  0  0  0  0  0  0
  -30.1428  -28.8629   19.9594 C   0  0  0  0  0  0  0  0  0  0  0  0
  -29.3752  -27.0156   21.3142 C   0  0  0  0  0  0  0  0  0  0  0  0
  -24.3022  -10.5977   20.2012 C   0  0  0  0  0  0  0  0  0  0  0  0
  -22.8937  -12.9980   20.1760 C   0  0  0  0  0  0  0  0  0  0  0  0
  -22.1088  -18.6972   18.0763 C   0  0  0  0  0  0  0  0  0  0  0  0
  -31.4602  -28.5796   20.3196 C   0  0  0  0  0  0  0  0  0  0  0  0
  -30.6926  -26.7323   21.6743 C   0  0  0  0  0  0  0  0  0  0  0  0
  -21.3062  -19.7530   18.5062 C   0  0  0  0  0  0  0  0  0  0  0  0
  -33.8841  -25.2994   22.6640 C   0  0  0  0  0  0  0  0  0  0  0  0
  -34.2926  -23.9660   22.6356 C   0  0  0  0  0  0  0  0  0  0  0  0
  -23.1701  -20.6592   19.7408 C   0  0  0  0  0  0  0  0  0  0  0  0
  -17.9963  -26.8702   22.0509 C   0  0  0  0  0  0  0  0  0  0  0  0
  -19.2949  -28.8710   22.4349 C   0  0  0  0  0  0  0  0  0  0  0  0
  -33.7830  -23.8603   20.2763 C   0  0  0  0  0  0  0  0  0  0  0  0
  -29.1002  -28.0809   20.4568 C   0  0  0  0  0  0  0  0  0  0  0  0
  -27.0293  -27.8599   18.9837 C   0  0  0  0  0  0  0  0  0  0  0  0
  -24.9185  -11.7621   20.6859 C   0  0  0  0  0  0  0  0  0  0  0  0
  -23.4473  -18.6084   18.4848 C   0  0  0  0  0  0  0  0  0  0  0  0
  -24.2039  -12.9752   20.6835 C   0  0  0  0  0  0  0  0  0  0  0  0
  -23.9883  -19.6026   19.3125 C   0  0  0  0  0  0  0  0  0  0  0  0
  -20.3685  -26.7071   22.4785 C   0  0  0  0  0  0  0  0  0  0  0  0
  -19.1449  -26.0946   22.2080 C   0  0  0  0  0  0  0  0  0  0  0  0
  -18.0713  -28.2585   22.1644 C   0  0  0  0  0  0  0  0  0  0  0  0
  -20.4435  -28.0953   22.5920 C   0  0  0  0  0  0  0  0  0  0  0  0
  -31.7351  -27.5143   21.1770 C   0  0  0  0  0  0  0  0  0  0  0  0
  -21.8360  -20.7327   19.3409 C   0  0  0  0  0  0  0  0  0  0  0  0
  -33.4250  -25.9133   21.4986 C   0  0  0  0  0  0  0  0  0  0  0  0
  -34.2420  -23.2465   21.4417 C   0  0  0  0  0  0  0  0  0  0  0  0
  -33.3745  -25.1938   20.3048 C   0  0  0  0  0  0  0  0  0  0  0  0
  -27.7390  -28.3734   20.0857 C   0  0  0  0  0  0  0  0  0  0  0  0
  -25.7880  -28.4407   19.0739 C   0  0  0  0  0  0  0  0  0  0  0  0
  -19.5583  -22.5537   21.4349 C   0  0  0  0  0  0  0  0  0  0  0  0
  -20.3559  -21.6076   20.9267 C   0  0  0  0  0  0  0  0  0  1  0  0
  -27.4541  -26.9400   17.9693 C   0  0  0  0  0  0  0  0  0  0  0  0
  -25.1461  -16.5098   20.1621 C   0  0  0  0  0  0  0  0  0  0  0  0
  -27.6248  -18.4179   19.3033 C   0  0  0  0  0  0  0  0  0  0  0  0
  -28.6989  -21.5018   18.3121 C   0  0  0  0  0  0  0  0  0  0  0  0
  -21.9016  -30.1071   23.0083 C   0  0  0  0  0  0  0  0  0  0  0  0
  -26.3098  -11.6622   21.2595 C   0  0  0  0  0  0  0  0  0  0  0  0
  -24.3073  -17.4777   17.9906 C   0  0  0  0  0  0  0  0  0  0  0  0
  -25.4249  -19.5642   19.7632 C   0  0  0  0  0  0  0  0  0  0  0  0
  -18.7763  -22.4259   22.7033 C   0  0  0  0  0  0  0  0  0  0  0  0
  -27.0045  -13.0130   21.4114 C   0  0  0  0  0  0  0  0  0  0  0  0
  -23.9756  -32.4589   21.3217 C   0  0  0  0  0  0  0  0  0  0  0  0
  -26.0640  -14.0277   22.0538 C   0  0  0  0  0  0  0  0  0  0  0  0
  -25.0888  -31.5964   20.7226 C   0  0  0  0  0  0  0  0  0  0  0  0
  -18.7711  -23.8529   23.2424 C   0  0  0  0  0  0  0  0  0  0  0  0
  -23.5397  -31.9491   22.6943 C   0  0  0  0  0  0  0  0  0  0  0  0
  -24.2826  -29.6663   22.1410 C   0  0  0  0  0  0  0  0  0  0  0  0
  -24.8257  -14.2623   21.1804 C   0  0  1  0  0  0  0  0  0  0  0  0
  -19.4090  -23.9520   20.8924 C   0  0  1  0  0  0  0  0  0  0  0  0
  -25.5141  -17.2100   18.8846 C   0  0  1  0  0  0  0  0  0  0  0  0
  -24.7100  -30.1024   20.7300 C   0  0  2  0  0  0  0  0  0  0  0  0
  -21.6013  -25.8740   22.6470 C   0  0  0  0  0  0  0  0  0  0  0  0
  -18.2885  -24.0062   19.8551 C   0  0  0  0  0  0  0  0  0  0  0  0
  -30.7853  -22.7661   17.7240 C   0  0  0  0  0  0  0  0  0  0  0  0
  -28.3413  -18.6075   22.2631 C   0  0  0  0  0  0  0  0  0  0  0  0
  -29.7831  -20.5799   21.7162 C   0  0  0  0  0  0  0  0  0  0  0  0
  -30.3001  -18.3476   20.7302 C   0  0  0  0  0  0  0  0  0  0  0  0
  -27.7381  -22.0390   15.5648 C   0  0  0  0  0  0  0  0  0  0  0  0
  -28.2914  -19.6361   19.8955 C   0  0  1  0  0  0  0  0  0  0  0  0
  -29.6295  -21.9327   17.1927 C   0  0  2  0  0  0  0  0  0  0  0  0
  -29.1513  -19.2927   21.1445 C   0  0  0  0  0  0  0  0  0  0  0  0
  -27.0093  -29.2158   20.8218 N   0  0  0  0  0  0  0  0  0  0  0  0
  -25.8282  -29.2361   20.1810 N   0  0  0  0  0  0  0  0  0  0  0  0
  -19.0494  -24.7180   22.0926 N   0  0  3  0  0  0  0  0  0  0  0  0
  -26.2236  -18.4352   19.2583 N   0  0  0  0  0  0  0  0  0  0  0  0
  -23.1921  -30.5282   22.6234 N   0  0  0  0  0  0  0  0  0  0  0  0
  -16.9101  -29.0430   22.0060 N   0  0  0  0  0  0  0  0  0  0  0  0
  -24.6769  -28.3436   18.3132 N   0  0  0  0  0  0  0  0  0  0  0  0
  -28.7620  -26.4395   18.0265 N   0  0  0  0  0  0  0  0  0  0  0  0
  -21.6759  -28.7382   22.8673 N   0  0  0  0  0  0  0  0  0  0  0  0
  -25.1484  -15.1311   20.0689 N   0  0  0  0  0  0  0  0  0  0  0  0
  -29.0382  -20.2613   18.8094 N   0  0  0  0  0  0  0  0  0  0  0  0
  -28.8883  -22.7444   16.1865 N   0  3  0  0  0  0  0  0  0  0  0  0
  -26.7017  -26.5854   17.0304 O   0  0  0  0  0  0  0  0  0  0  0  0
  -24.8813  -17.1714   21.1591 O   0  0  0  0  0  0  0  0  0  0  0  0
  -28.3220  -17.4884   18.8891 O   0  0  0  0  0  0  0  0  0  0  0  0
  -27.7667  -22.1979   18.7083 O   0  0  0  0  0  0  0  0  0  0  0  0
  -21.0500  -30.9061   23.4061 O   0  0  0  0  0  0  0  0  0  0  0  0
  -33.0206  -27.2374   21.5284 O   0  0  0  0  0  0  0  0  0  0  0  0
  -21.0546  -21.7639   19.7626 O   0  0  0  0  0  0  0  0  0  1  0  0
  -34.6358  -21.9665   21.4141 F   0  0  0  0  0  0  0  0  0  0  0  0
  -32.9355  -25.7784   19.1817 F   0  0  0  0  0  0  0  0  0  0  0  0
  1  2  1  0  0  0  0
  1  5  2  0  0  0  0
  2  6  2  0  0  0  0
  3  8  2  0  0  0  0
  3 17  1  0  0  0  0
  4  9  1  0  0  0  0
  4 17  2  0  0  0  0
  5 19  1  0  0  0  0
  6 21  1  0  0  0  0
  7 10  2  0  0  0  0
  7 20  1  0  0  0  0
  8 27  1  0  0  0  0
  9 27  2  0  0  0  0
 10 28  1  0  0  0  0
 11 12  2  0  0  0  0
 11 29  1  0  0  0  0
 12 30  1  0  0  0  0
 13 22  1  0  0  0  0
 13 28  2  0  0  0  0
 14 24  1  0  0  0  0
 14 25  2  0  0  0  0
 15 25  1  0  0  0  0
 15 26  2  0  0  0  0
 16 30  2  0  0  0  0
 16 31  1  0  0  0  0
 17 32  1  0  0  0  0
 18 32  1  0  0  0  0
 18 33  2  0  0  0  0
 18 36  1  0  0  0  0
 19 21  2  0  0  0  0
 19 41  1  0  0  0  0
 20 22  2  0  0  0  0
 20 42  1  0  0  0  0
 21 52  1  0  0  0  0
 22 43  1  0  0  0  0
 23 24  2  0  0  0  0
 23 26  1  0  0  0  0
 23 56  1  0  0  0  0
 24 68  1  0  0  0  0
 25 71  1  0  0  0  0
 26 74  1  0  0  0  0
 27 83  1  0  0  0  0
 28 84  1  0  0  0  0
 29 31  2  0  0  0  0
 29 83  1  0  0  0  0
 30 85  1  0  0  0  0
 31 86  1  0  0  0  0
 32 66  2  0  0  0  0
 33 67  1  0  0  0  0
 33 72  1  0  0  0  0
 34 35  2  0  0  0  0
 34 44  1  0  0  0  0
 34 53  1  0  0  0  0
 35 84  1  0  0  0  0
 36 73  1  0  0  0  0
 36 78  2  0  0  0  0
 37 54  1  0  0  0  0
 37 75  1  0  0  0  0
 37 79  2  0  0  0  0
 38 63  1  0  0  0  0
 38 69  1  0  0  0  0
 38 80  2  0  0  0  0
 39 64  1  0  0  0  0
 39 76  1  0  0  0  0
 39 81  2  0  0  0  0
 40 70  1  0  0  0  0
 40 74  1  0  0  0  0
 40 82  2  0  0  0  0
 41 45  1  0  0  0  0
 42 54  1  0  0  0  0
 43 69  1  0  0  0  0
 44 49  1  0  0  0  0
 45 47  1  0  0  0  0
 46 48  1  0  0  0  0
 46 50  1  0  0  0  0
 47 52  1  0  0  0  0
 48 55  1  0  0  0  0
 49 68  1  0  0  0  0
 50 70  1  0  0  0  0
 51 55  1  0  0  0  0
 51 70  1  0  0  0  0
 52 75  1  0  0  0  0
 53 57  1  0  0  0  0
 53 68  1  0  0  0  0
 54 69  1  0  0  0  0
 55 67  1  0  0  0  0
 58 64  1  0  0  0  0
 59 65  1  0  0  0  0
 60 65  1  0  0  0  0
 61 65  1  0  0  0  0
 62 77  1  0  0  0  0
 63 65  1  0  0  0  0
 63 76  1  0  0  0  0
 64 77  1  0  0  0  0
 66 67  1  0  0  0  0
M  CHG  1  77   1
M  ISO  4  35 101  40 100  74 100  84 101
M  END
> <Batch ID>
0108

> <Smiles>
CNC(C)C(=O)NC(C(=O)N1Cc2cc([101O:1][101CH:1]=C3CCN(c4cc(N)cc([100NH:0][100C:0](=O)N5CCCC(n6nc(-c7ccc(Oc8ccc(F)cc8F)cc7)c(C(N)=O)c6N)C5)c4C)C3C)ccc2CC1C(=O)NC1CCCc2ccccc21)C(C)(C)C

> <Shape>
0.248

> <Color>
0.070

> <Negative vol penalty>
0.000

$$$$

  -OEChem-04052301203D

 87 96  0     1  0  0  0  0  0999 V2000
  -25.1816  -35.0332   23.8836 C   0  0  0  0  0  0  0  0  0  0  0  0
  -25.8765  -33.8714   23.5630 C   0  0  0  0  0  0  0  0  0  0  0  0
  -24.5801  -13.5496   21.5983 C   0  0  0  0  0  0  0  0  0  0  0  0
  -25.4668  -13.6280   19.3523 C   0  0  0  0  0  0  0  0  0  0  0  0
  -32.2214  -22.3590   20.1711 C   0  0  0  0  0  0  0  0  0  0  0  0
  -23.8581  -34.9558   24.3154 C   0  0  0  0  0  0  0  0  0  0  0  0
  -25.2486  -32.6314   23.6751 C   0  0  0  0  0  0  0  0  0  0  0  0
  -26.1189  -29.6449   19.6790 C   0  0  0  0  0  0  0  0  0  0  0  0
  -31.0711  -21.6859   19.7596 C   0  0  0  0  0  0  0  0  0  0  0  0
  -23.8804  -12.3853   21.2815 C   0  0  0  0  0  0  0  0  0  0  0  0
  -24.7671  -12.4636   19.0355 C   0  0  0  0  0  0  0  0  0  0  0  0
  -27.3562  -29.0050   19.6198 C   0  0  0  0  0  0  0  0  0  0  0  0
  -24.5518   -9.0880   20.9495 C   0  0  0  0  0  0  0  0  0  0  0  0
  -24.5920   -8.0377   21.8665 C   0  0  0  0  0  0  0  0  0  0  0  0
  -26.3410  -26.9787   20.4462 C   0  0  0  0  0  0  0  0  0  0  0  0
  -29.7141  -23.5224   20.5491 C   0  0  0  0  0  0  0  0  0  0  0  0
  -22.1883   -8.1390   22.0879 C   0  0  0  0  0  0  0  0  0  0  0  0
  -25.3733  -14.1710   20.6337 C   0  0  0  0  0  0  0  0  0  0  0  0
  -32.1181  -23.6138   20.7716 C   0  0  0  0  0  0  0  0  0  0  0  0
  -27.4014  -15.4674   21.4787 C   0  0  0  0  0  0  0  0  0  0  0  0
  -23.2107  -33.7149   24.4236 C   0  0  0  0  0  0  0  0  0  0  0  0
  -24.9836  -28.9585   20.1333 C   0  0  0  0  0  0  0  0  0  0  0  0
  -23.9157  -32.5372   24.1100 C   0  0  0  0  0  0  0  0  0  0  0  0
  -25.0900  -27.6114   20.5077 C   0  0  0  0  0  0  0  0  0  0  0  0
  -30.8645  -24.1955   20.9606 C   0  0  0  0  0  0  0  0  0  0  0  0
  -29.8175  -22.2676   19.9486 C   0  0  0  0  0  0  0  0  0  0  0  0
  -23.9739  -11.8423   20.0001 C   0  0  0  0  0  0  0  0  0  0  0  0
  -27.4679  -27.6726   20.0062 C   0  0  0  0  0  0  0  0  0  0  0  0
  -23.3298   -9.6639   20.6018 C   0  0  0  0  0  0  0  0  0  0  0  0
  -23.4103   -7.5632   22.4357 C   0  0  0  0  0  0  0  0  0  0  0  0
  -22.1481   -9.1894   21.1709 C   0  0  0  0  0  0  0  0  0  0  0  0
  -26.0959  -15.3741   20.9602 C   0  0  0  0  0  0  0  0  0  0  0  0
  -27.6222  -16.8164   21.6120 C   0  0  0  0  0  0  0  0  0  0  0  0
  -32.4670  -27.3409   21.3641 C   0  0  0  0  0  0  0  0  0  0  0  0
  -34.3000  -24.6532   20.3543 C   0  0  0  0  0  0  0  0  0  0  0  0
  -33.3379  -24.2918   21.1899 C   0  0  0  0  0  0  0  0  0  0  0  0
  -28.3313  -14.4276   21.8100 C   0  0  0  0  0  0  0  0  0  0  0  0
  -22.9737  -29.3132   22.5701 C   0  0  0  0  0  0  0  0  0  0  0  0
  -21.3783  -26.9024   21.0987 C   0  0  0  0  0  0  0  0  0  0  0  0
  -21.4829  -24.2249   18.9852 C   0  0  0  0  0  0  0  0  0  0  0  0
  -27.3289  -22.0179   19.6468 C   0  0  0  0  0  0  0  0  0  0  0  0
  -21.7941  -33.6778   24.9400 C   0  0  0  0  0  0  0  0  0  0  0  0
  -23.6510  -29.6552   20.1659 C   0  0  0  0  0  0  0  0  0  0  0  0
  -23.8974  -26.8241   20.9835 C   0  0  0  0  0  0  0  0  0  0  0  0
  -32.8692  -28.3075   20.2772 C   0  0  0  0  0  0  0  0  0  0  0  0
  -21.0830  -32.3537   24.6732 C   0  0  0  0  0  0  0  0  0  0  0  0
  -32.2674  -27.6950   19.0158 C   0  0  0  0  0  0  0  0  0  0  0  0
  -24.4286  -20.7277   21.2595 C   0  0  0  0  0  0  0  0  0  0  0  0
  -21.9840  -31.1798   25.0437 C   0  0  0  0  0  0  0  0  0  0  0  0
  -24.7112  -19.2276   21.3681 C   0  0  0  0  0  0  0  0  0  0  0  0
  -24.9660  -21.3131   19.9548 C   0  0  0  0  0  0  0  0  0  0  0  0
  -26.6660  -19.5372   19.7965 C   0  0  0  0  0  0  0  0  0  0  0  0
  -23.2612  -31.1754   24.1950 C   0  0  1  0  0  0  0  0  0  0  0  0
  -22.6625  -29.0093   21.1319 C   0  0  1  0  0  0  0  0  0  0  0  0
  -26.2006  -18.9155   21.1234 C   0  0  2  0  0  0  0  0  0  0  0  0
  -31.0362  -26.9428   19.5116 C   0  0  2  0  0  0  0  0  0  0  0  0
  -20.0283  -22.4288   18.0077 C   0  0  0  0  0  0  0  0  0  0  0  0
  -21.4539  -25.3999   23.7532 C   0  0  0  0  0  0  0  0  0  0  0  0
  -20.8704  -23.3087   22.5064 C   0  0  0  0  0  0  0  0  0  0  0  0
  -19.2836  -25.2334   22.5217 C   0  0  0  0  0  0  0  0  0  0  0  0
  -21.9681  -25.1731   16.2240 C   0  0  0  0  0  0  0  0  0  0  0  0
  -30.7152  -25.5444   21.6027 C   0  0  0  0  0  0  0  0  0  0  0  0
  -29.7842  -27.8134   19.4854 C   0  0  0  0  0  0  0  0  0  1  0  0
  -21.4151  -25.3950   21.1717 C   0  0  1  0  0  0  0  0  0  0  0  0
  -20.5963  -23.8269   17.8190 C   0  0  2  0  0  0  0  0  0  0  0  0
  -20.7788  -24.8493   22.4812 C   0  0  0  0  0  0  0  0  0  0  0  0
  -25.5272  -16.5687   20.7769 N   0  0  0  0  0  0  0  0  0  0  0  0
  -26.4799  -17.4254   21.1825 N   0  0  0  0  0  0  0  0  0  0  0  0
  -31.4146  -26.5765   20.8647 N   0  0  0  0  0  0  0  0  0  0  0  0
  -22.6175  -27.5514   21.0036 N   0  0  0  0  0  0  0  0  0  0  0  0
  -26.3831  -20.9811   19.7927 N   0  0  0  0  0  0  0  0  0  0  0  0
  -28.6801  -17.5293   22.0538 N   0  0  0  0  0  0  0  0  0  0  0  0
  -27.9431  -13.0957   21.6110 N   0  0  0  0  0  0  0  0  0  0  0  0
  -28.6488  -21.5825   19.5332 N   0  0  0  0  0  0  0  0  0  0  0  0
  -22.9860  -30.6620   22.8702 N   0  0  0  0  0  0  0  0  0  0  0  0
  -20.7784  -24.9115   19.9513 N   0  0  0  0  0  0  0  0  0  0  0  0
  -21.3719  -23.8513   16.5467 N   0  3  0  0  0  0  0  0  0  0  0  0
  -32.9734  -27.2964   22.4753 O   0  0  0  0  0  0  0  0  0  0  0  0
  -29.4666  -14.6718   22.2843 O   0  0  0  0  0  0  0  0  0  0  0  0
  -23.1853  -28.3921   23.3501 O   0  0  0  0  0  0  0  0  0  0  0  0
  -20.2898  -27.4823   21.1179 O   0  0  0  0  0  0  0  0  0  0  0  0
  -22.6799  -23.9506   19.0358 O   0  0  0  0  0  0  0  0  0  0  0  0
  -26.9957  -23.2057   19.6517 O   0  0  0  0  0  0  0  0  0  0  0  0
  -23.2915  -10.7060   19.6906 O   0  0  0  0  0  0  0  0  0  0  0  0
  -28.6745  -27.0458   19.9500 O   0  0  0  0  0  0  0  0  0  1  0  0
  -23.4489   -6.5536   23.3151 F   0  0  0  0  0  0  0  0  0  0  0  0
  -20.9711   -9.7378   20.8398 F   0  0  0  0  0  0  0  0  0  0  0  0
  1  2  1  0  0  0  0
  1  6  2  0  0  0  0
  2  7  2  0  0  0  0
  3 10  2  0  0  0  0
  3 18  1  0  0  0  0
  4 11  1  0  0  0  0
  4 18  2  0  0  0  0
  5  9  2  0  0  0  0
  5 19  1  0  0  0  0
  6 21  1  0  0  0  0
  7 23  1  0  0  0  0
  8 12  2  0  0  0  0
  8 22  1  0  0  0  0
  9 26  1  0  0  0  0
 10 27  1  0  0  0  0
 11 27  2  0  0  0  0
 12 28  1  0  0  0  0
 13 14  2  0  0  0  0
 13 29  1  0  0  0  0
 14 30  1  0  0  0  0
 15 24  1  0  0  0  0
 15 28  2  0  0  0  0
 16 25  1  0  0  0  0
 16 26  2  0  0  0  0
 17 30  2  0  0  0  0
 17 31  1  0  0  0  0
 18 32  1  0  0  0  0
 19 25  2  0  0  0  0
 19 36  1  0  0  0  0
 20 32  1  0  0  0  0
 20 33  2  0  0  0  0
 20 37  1  0  0  0  0
 21 23  2  0  0  0  0
 21 42  1  0  0  0  0
 22 24  2  0  0  0  0
 22 43  1  0  0  0  0
 23 53  1  0  0  0  0
 24 44  1  0  0  0  0
 25 62  1  0  0  0  0
 26 74  1  0  0  0  0
 27 84  1  0  0  0  0
 28 85  1  0  0  0  0
 29 31  2  0  0  0  0
 29 84  1  0  0  0  0
 30 86  1  0  0  0  0
 31 87  1  0  0  0  0
 32 67  2  0  0  0  0
 33 68  1  0  0  0  0
 33 72  1  0  0  0  0
 34 45  1  0  0  0  0
 34 69  1  0  0  0  0
 34 78  2  0  0  0  0
 35 36  2  0  0  0  0
 37 73  1  0  0  0  0
 37 79  2  0  0  0  0
 38 54  1  0  0  0  0
 38 75  1  0  0  0  0
 38 80  2  0  0  0  0
 39 64  1  0  0  0  0
 39 70  1  0  0  0  0
 39 81  2  0  0  0  0
 40 65  1  0  0  0  0
 40 76  1  0  0  0  0
 40 82  2  0  0  0  0
 41 71  1  0  0  0  0
 41 74  1  0  0  0  0
 41 83  2  0  0  0  0
 42 46  1  0  0  0  0
 43 54  1  0  0  0  0
 44 70  1  0  0  0  0
 45 47  1  0  0  0  0
 46 49  1  0  0  0  0
 47 56  1  0  0  0  0
 48 50  1  0  0  0  0
 48 51  1  0  0  0  0
 49 53  1  0  0  0  0
 50 55  1  0  0  0  0
 51 71  1  0  0  0  0
 52 55  1  0  0  0  0
 52 71  1  0  0  0  0
 53 75  1  0  0  0  0
 54 70  1  0  0  0  0
 55 68  1  0  0  0  0
 56 63  1  0  0  0  0
 56 69  1  0  0  0  0
 57 65  1  0  0  0  0
 58 66  1  0  0  0  0
 59 66  1  0  0  0  0
 60 66  1  0  0  0  0
 61 77  1  0  0  0  0
 62 69  1  0  0  0  0
 63 85  1  0  0  0  0
 64 66  1  0  0  0  0
 64 76  1  0  0  0  0
 65 77  1  0  0  0  0
 67 68  1  0  0  0  0
M  CHG  1  77   1
M  ISO  4  41 100  63 101  74 100  85 101
M  END
> <Batch ID>
0108

> <Smiles>
C=Cc1ccc([100NH:0][100C:0](=O)N2CCCC(n3nc(-c4ccc(Oc5ccc(F)cc5F)cc4)c(C(N)=O)c3N)C2)cc1CN1C(=O)CCC1[101CH2:1][101O:1]c1ccc2c(c1)CN(C(=O)C(NC(=O)C(C)NC)C(C)(C)C)C(C(=O)NC1CCCc3ccccc31)C2

> <Shape>
0.263

> <Color>
0.073

> <Negative vol penalty>
0.000

$$$$

  -OEChem-04052301203D

 84 92  0     1  0  0  0  0  0999 V2000
  -17.9463  -13.9019   23.9848 C   0  0  0  0  0  0  0  0  0  0  0  0
  -18.7862  -14.8191   23.3612 C   0  0  0  0  0  0  0  0  0  0  0  0
  -22.9802   -9.9363   19.9927 C   0  0  0  0  0  0  0  0  0  0  0  0
  -23.7121   -9.9776   22.2948 C   0  0  0  0  0  0  0  0  0  0  0  0
  -16.6114  -14.2284   24.2197 C   0  0  0  0  0  0  0  0  0  0  0  0
  -18.2912  -16.0630   22.9712 C   0  0  0  0  0  0  0  0  0  0  0  0
  -21.4149  -19.8620   24.1775 C   0  0  0  0  0  0  0  0  0  0  0  0
  -22.1979   -8.8132   20.2615 C   0  0  0  0  0  0  0  0  0  0  0  0
  -22.9297   -8.8545   22.5637 C   0  0  0  0  0  0  0  0  0  0  0  0
  -22.5271  -20.0560   23.3594 C   0  0  0  0  0  0  0  0  0  0  0  0
  -23.1241   -5.5122   22.0926 C   0  0  0  0  0  0  0  0  0  0  0  0
  -23.6987   -4.4868   22.8436 C   0  0  0  0  0  0  0  0  0  0  0  0
  -21.3765  -21.8514   22.2315 C   0  0  0  0  0  0  0  0  0  0  0  0
  -31.6768  -18.2282   20.0055 C   0  0  0  0  0  0  0  0  0  0  0  0
  -29.4608  -18.5596   20.9089 C   0  0  0  0  0  0  0  0  0  0  0  0
  -30.2462  -19.9492   19.0953 C   0  0  0  0  0  0  0  0  0  0  0  0
  -21.9829   -4.7555   24.5232 C   0  0  0  0  0  0  0  0  0  0  0  0
  -23.7374  -10.5185   21.0094 C   0  0  0  0  0  0  0  0  0  0  0  0
  -24.1589  -13.0281   20.8313 C   0  0  0  0  0  0  0  0  0  0  0  0
  -16.1022  -15.4806   23.8411 C   0  0  0  0  0  0  0  0  0  0  0  0
  -20.2692  -20.6553   24.0212 C   0  0  0  0  0  0  0  0  0  0  0  0
  -16.9478  -16.4061   23.2000 C   0  0  0  0  0  0  0  0  0  0  0  0
  -20.2521  -21.6671   23.0505 C   0  0  0  0  0  0  0  0  0  0  0  0
  -30.6764  -17.8755   20.9112 C   0  0  0  0  0  0  0  0  0  0  0  0
  -31.4617  -19.2651   19.0975 C   0  0  0  0  0  0  0  0  0  0  0  0
  -22.1727   -8.2723   21.5470 C   0  0  0  0  0  0  0  0  0  0  0  0
  -22.5069  -21.0489   22.3843 C   0  0  0  0  0  0  0  0  0  0  0  0
  -21.9789   -6.1593   22.5569 C   0  0  0  0  0  0  0  0  0  0  0  0
  -29.2457  -19.5965   20.0010 C   0  0  0  0  0  0  0  0  0  0  0  0
  -23.1281   -4.1085   24.0588 C   0  0  0  0  0  0  0  0  0  0  0  0
  -21.4083   -5.7809   23.7722 C   0  0  0  0  0  0  0  0  0  0  0  0
  -24.5461  -11.6783   20.7322 C   0  0  0  0  0  0  0  0  0  0  0  0
  -25.2781  -13.7343   20.4637 C   0  0  0  0  0  0  0  0  0  0  0  0
  -22.9001  -13.5931   21.2209 C   0  0  0  0  0  0  0  0  0  0  0  0
  -17.2361  -20.0893   23.2572 C   0  0  0  0  0  0  0  0  0  0  0  0
  -25.8300  -20.7165   20.8271 C   0  0  0  0  0  0  0  0  0  0  0  0
  -16.8822  -23.2398   23.9441 C   0  0  0  0  0  0  0  0  0  0  0  0
  -18.3173  -26.3237   24.2213 C   0  0  0  0  0  0  0  0  0  0  0  0
  -30.7882  -14.5887   20.6975 C   0  0  0  0  0  0  0  0  0  0  0  0
  -14.6404  -15.7703   24.0733 C   0  0  0  0  0  0  0  0  0  0  0  0
  -19.0878  -20.4510   24.9295 C   0  0  0  0  0  0  0  0  0  0  0  0
  -19.0543  -22.5591   22.8559 C   0  0  0  0  0  0  0  0  0  0  0  0
  -14.2887  -17.2519   23.9670 C   0  0  0  0  0  0  0  0  0  0  0  0
  -29.6061  -12.1810   18.3560 C   0  0  0  0  0  0  0  0  0  0  0  0
  -14.9247  -17.8637   22.7228 C   0  0  0  0  0  0  0  0  0  0  0  0
  -28.1551  -11.9426   18.7775 C   0  0  0  0  0  0  0  0  0  0  0  0
  -30.5150  -12.4037   19.5628 C   0  0  0  0  0  0  0  0  0  0  0  0
  -28.6202  -13.2275   20.9062 C   0  0  0  0  0  0  0  0  0  0  0  0
  -16.4543  -17.7750   22.7846 C   0  0  1  0  0  0  0  0  0  0  0  0
  -17.7827  -20.9766   24.3396 C   0  0  1  0  0  0  0  0  0  0  0  0
  -27.6555  -13.0534   19.7208 C   0  0  2  0  0  0  0  0  0  0  0  0
  -17.7667  -28.7112   24.7635 C   0  0  0  0  0  0  0  0  0  0  0  0
  -15.6073  -23.5683   21.1915 C   0  0  0  0  0  0  0  0  0  0  0  0
  -15.9525  -26.0390   21.4034 C   0  0  0  0  0  0  0  0  0  0  0  0
  -14.4788  -24.8439   23.0228 C   0  0  0  0  0  0  0  0  0  0  0  0
  -20.1591  -26.3439   26.5378 C   0  0  0  0  0  0  0  0  0  0  0  0
  -30.9058  -16.7666   21.8815 C   0  0  0  0  0  0  0  0  0  0  0  0
  -24.7148  -20.3873   21.7982 C   0  0  0  0  0  0  0  0  0  1  0  0
  -27.0778  -19.8650   20.9411 C   0  0  0  0  0  0  0  0  0  0  0  0
  -16.9831  -24.5236   23.1563 C   0  0  1  0  0  0  0  0  0  0  0  0
  -18.2419  -27.3753   25.3134 C   0  0  2  0  0  0  0  0  0  0  0  0
  -15.7774  -24.7258   22.1956 C   0  0  0  0  0  0  0  0  0  0  0  0
  -25.8124  -11.5331   20.3328 N   0  0  0  0  0  0  0  0  0  0  0  0
  -26.2305  -12.8009   20.1776 N   0  0  0  0  0  0  0  0  0  0  0  0
  -17.9215  -22.3160   23.7644 N   0  0  0  0  0  0  0  0  0  0  0  0
  -29.9860  -13.4706   20.4159 N   0  0  0  0  0  0  0  0  0  0  0  0
  -32.4733  -19.6212   18.1816 N   0  0  0  0  0  0  0  0  0  0  0  0
  -25.5306  -15.0564   20.3605 N   0  0  0  0  0  0  0  0  0  0  0  0
  -21.8564  -12.7243   21.5675 N   0  0  0  0  0  0  0  0  0  0  0  0
  -16.9844  -18.7935   23.6656 N   0  0  0  0  0  0  0  0  0  0  0  0
  -17.1521  -25.5914   24.1360 N   0  0  0  0  0  0  0  0  0  0  0  0
  -30.2080  -15.5564   21.5085 N   0  0  0  0  0  0  0  0  0  0  0  0
  -19.5816  -27.5730   25.9356 N   0  3  0  0  0  0  0  0  0  0  0  0
  -22.7015  -14.8315   21.2447 O   0  0  0  0  0  0  0  0  0  0  0  0
  -17.0547  -20.5470   22.1350 O   0  0  0  0  0  0  0  0  0  0  0  0
  -25.7288  -21.6196   19.9981 O   0  0  0  0  0  0  0  0  0  0  0  0
  -15.9204  -23.0661   24.6967 O   0  0  0  0  0  0  0  0  0  0  0  0
  -19.3093  -26.1698   23.5121 O   0  0  0  0  0  0  0  0  0  0  0  0
  -31.9345  -14.7177   20.2544 O   0  0  0  0  0  0  0  0  0  0  0  0
  -21.4092   -7.1766   21.8097 O   0  0  0  0  0  0  0  0  0  0  0  0
  -23.5908  -21.2401   21.5840 O   0  0  0  0  0  0  0  0  0  1  0  0
  -28.0478  -20.2712   19.9989 O   0  0  0  0  0  0  0  0  0  0  0  0
  -23.6791   -3.1227   24.7792 F   0  0  0  0  0  0  0  0  0  0  0  0
  -20.3075   -6.3981   24.2228 F   0  0  0  0  0  0  0  0  0  0  0  0
  1  2  1  0  0  0  0
  1  5  2  0  0  0  0
  2  6  2  0  0  0  0
  3  8  2  0  0  0  0
  3 18  1  0  0  0  0
  4  9  1  0  0  0  0
  4 18  2  0  0  0  0
  5 20  1  0  0  0  0
  6 22  1  0  0  0  0
  7 10  2  0  0  0  0
  7 21  1  0  0  0  0
  8 26  1  0  0  0  0
  9 26  2  0  0  0  0
 10 27  1  0  0  0  0
 11 12  2  0  0  0  0
 11 28  1  0  0  0  0
 12 30  1  0  0  0  0
 13 23  1  0  0  0  0
 13 27  2  0  0  0  0
 14 24  2  0  0  0  0
 14 25  1  0  0  0  0
 15 24  1  0  0  0  0
 15 29  2  0  0  0  0
 16 25  2  0  0  0  0
 16 29  1  0  0  0  0
 17 30  2  0  0  0  0
 17 31  1  0  0  0  0
 18 32  1  0  0  0  0
 19 32  1  0  0  0  0
 19 33  2  0  0  0  0
 19 34  1  0  0  0  0
 20 22  2  0  0  0  0
 20 40  1  0  0  0  0
 21 23  2  0  0  0  0
 21 41  1  0  0  0  0
 22 49  1  0  0  0  0
 23 42  1  0  0  0  0
 24 57  1  0  0  0  0
 25 67  1  0  0  0  0
 26 80  1  0  0  0  0
 27 81  1  0  0  0  0
 28 31  2  0  0  0  0
 28 80  1  0  0  0  0
 29 82  1  0  0  0  0
 30 83  1  0  0  0  0
 31 84  1  0  0  0  0
 32 63  2  0  0  0  0
 33 64  1  0  0  0  0
 33 68  1  0  0  0  0
 34 69  1  0  0  0  0
 34 74  2  0  0  0  0
 35 50  1  0  0  0  0
 35 70  1  0  0  0  0
 35 75  2  0  0  0  0
 36 58  1  0  0  0  0
 36 59  1  0  0  0  0
 36 76  2  0  0  0  0
 37 60  1  0  0  0  0
 37 65  1  0  0  0  0
 37 77  2  0  0  0  0
 38 61  1  0  0  0  0
 38 71  1  0  0  0  0
 38 78  2  0  0  0  0
 39 66  1  0  0  0  0
 39 72  1  0  0  0  0
 39 79  2  0  0  0  0
 40 43  1  0  0  0  0
 41 50  1  0  0  0  0
 42 65  1  0  0  0  0
 43 45  1  0  0  0  0
 44 46  1  0  0  0  0
 44 47  1  0  0  0  0
 45 49  1  0  0  0  0
 46 51  1  0  0  0  0
 47 66  1  0  0  0  0
 48 51  1  0  0  0  0
 48 66  1  0  0  0  0
 49 70  1  0  0  0  0
 50 65  1  0  0  0  0
 51 64  1  0  0  0  0
 52 61  1  0  0  0  0
 53 62  1  0  0  0  0
 54 62  1  0  0  0  0
 55 62  1  0  0  0  0
 56 73  1  0  0  0  0
 57 72  1  0  0  0  0
 58 81  1  0  0  0  0
 59 82  1  0  0  0  0
 60 62  1  0  0  0  0
 60 71  1  0  0  0  0
 61 73  1  0  0  0  0
 63 64  1  0  0  0  0
M  CHG  1  73   1
M  ISO  4  39 100  58 101  72 100  81 101
M  END
> <Batch ID>
0108

> <Smiles>
CNC(C)C(=O)NC(C(=O)N1Cc2cc([101O:1][101CH2:1]C(=O)COc3cc(N)cc(C[100NH:0][100C:0](=O)N4CCCC(n5nc(-c6ccc(Oc7ccc(F)cc7F)cc6)c(C(N)=O)c5N)C4)c3)ccc2CC1C(=O)NC1CCCc2ccccc21)C(C)(C)C

> <Shape>
0.215

> <Color>
0.193

> <Negative vol penalty>
0.000

$$$$

  -OEChem-04052301203D

 86 94  0     1  0  0  0  0  0999 V2000
  -22.5721   -8.1041   20.5502 C   0  0  0  0  0  0  0  0  0  0  0  0
  -21.8893   -9.3162   20.5491 C   0  0  0  0  0  0  0  0  0  0  0  0
  -26.8146  -25.4867   16.6658 C   0  0  0  0  0  0  0  0  0  0  0  0
  -26.6148  -24.2903   18.7553 C   0  0  0  0  0  0  0  0  0  0  0  0
  -23.8153   -8.0063   21.1737 C   0  0  0  0  0  0  0  0  0  0  0  0
  -22.4488  -10.4309   21.1725 C   0  0  0  0  0  0  0  0  0  0  0  0
  -21.9573  -16.2730   19.4019 C   0  0  0  0  0  0  0  0  0  0  0  0
  -18.0090  -27.5870   22.0617 C   0  0  0  0  0  0  0  0  0  0  0  0
  -27.7811  -24.5770   16.2373 C   0  0  0  0  0  0  0  0  0  0  0  0
  -27.5814  -23.3805   18.3267 C   0  0  0  0  0  0  0  0  0  0  0  0
  -21.1295  -17.3136   19.8208 C   0  0  0  0  0  0  0  0  0  0  0  0
  -18.8233  -26.5261   21.6656 C   0  0  0  0  0  0  0  0  0  0  0  0
  -27.8644  -21.4436   14.9692 C   0  0  0  0  0  0  0  0  0  0  0  0
  -27.7591  -20.9505   13.6687 C   0  0  0  0  0  0  0  0  0  0  0  0
  -22.8705  -18.0969   21.2955 C   0  0  0  0  0  0  0  0  0  0  0  0
  -20.5475  -27.2847   23.1785 C   0  0  0  0  0  0  0  0  0  0  0  0
  -29.9334  -21.8649   13.1459 C   0  0  0  0  0  0  0  0  0  0  0  0
  -26.2314  -25.3434   17.9249 C   0  0  0  0  0  0  0  0  0  0  0  0
  -23.8405  -26.1941   18.1844 C   0  0  0  0  0  0  0  0  0  0  0  0
  -24.3948   -9.1228   21.7967 C   0  0  0  0  0  0  0  0  0  0  0  0
  -23.2462  -16.1299   19.9355 C   0  0  0  0  0  0  0  0  0  0  0  0
  -23.7004  -10.3476   21.8061 C   0  0  0  0  0  0  0  0  0  0  0  0
  -23.7136  -17.0551   20.8797 C   0  0  0  0  0  0  0  0  0  0  0  0
  -18.4639  -28.4968   23.0162 C   0  0  0  0  0  0  0  0  0  0  0  0
  -19.7331  -28.3457   23.5746 C   0  0  0  0  0  0  0  0  0  0  0  0
  -28.1645  -23.5239   17.0677 C   0  0  0  0  0  0  0  0  0  0  0  0
  -21.5849  -18.2240   20.7699 C   0  0  0  0  0  0  0  0  0  0  0  0
  -20.0925  -26.3750   22.2240 C   0  0  0  0  0  0  0  0  0  0  0  0
  -29.0041  -22.1475   15.3580 C   0  0  0  0  0  0  0  0  0  0  0  0
  -28.7936  -21.1611   12.7570 C   0  0  0  0  0  0  0  0  0  0  0  0
  -30.0386  -22.3581   14.4464 C   0  0  0  0  0  0  0  0  0  0  0  0
  -25.2333  -26.2832   18.3684 C   0  0  0  0  0  0  0  0  0  0  0  0
  -23.3418  -27.3242   18.7849 C   0  0  0  0  0  0  0  0  0  0  0  0
  -23.0666  -25.1803   17.5294 C   0  0  0  0  0  0  0  0  0  0  0  0
  -24.7379  -13.8894   21.6263 C   0  0  0  0  0  0  0  0  0  0  0  0
  -27.3162  -15.8002   21.1537 C   0  0  0  0  0  0  0  0  0  0  0  0
  -28.5264  -18.9213   20.4898 C   0  0  0  0  0  0  0  0  0  0  0  0
  -23.2360  -30.9295   23.0436 C   0  0  0  0  0  0  0  0  0  0  0  0
  -25.7193   -8.9565   22.4986 C   0  0  0  0  0  0  0  0  0  0  0  0
  -24.1366  -15.0176   19.4534 C   0  0  0  0  0  0  0  0  0  0  0  0
  -25.0965  -16.9574   21.4685 C   0  0  0  0  0  0  0  0  0  0  0  0
  -26.4130  -10.2797   22.8120 C   0  0  0  0  0  0  0  0  0  0  0  0
  -25.7063  -31.4408   20.5311 C   0  0  0  0  0  0  0  0  0  0  0  0
  -25.4259  -11.2678   23.4253 C   0  0  0  0  0  0  0  0  0  0  0  0
  -25.6928  -30.1354   19.7338 C   0  0  0  0  0  0  0  0  0  0  0  0
  -25.4764  -31.1948   22.0206 C   0  0  0  0  0  0  0  0  0  0  0  0
  -24.2522  -29.1099   21.5425 C   0  0  0  0  0  0  0  0  0  0  0  0
  -24.2858  -11.5856   22.4503 C   0  0  1  0  0  0  0  0  0  0  0  0
  -25.2429  -14.6661   20.4434 C   0  0  1  0  0  0  0  0  0  0  0  0
  -24.4242  -29.3122   20.0273 C   0  0  2  0  0  0  0  0  0  0  0  0
  -17.5740  -29.6245   23.4244 C   0  0  0  0  0  0  0  0  0  0  0  0
  -21.1632  -28.6198   25.6249 C   0  0  0  0  0  0  0  0  0  0  0  0
  -30.2177  -20.7013   19.9716 C   0  0  0  0  0  0  0  0  0  0  0  0
  -27.7313  -15.7762   24.1765 C   0  0  0  0  0  0  0  0  0  0  0  0
  -29.2474  -17.7512   23.9139 C   0  0  0  0  0  0  0  0  0  0  0  0
  -29.8318  -15.5801   22.8335 C   0  0  0  0  0  0  0  0  0  0  0  0
  -28.2981  -18.4530   17.5764 C   0  0  0  0  0  0  0  0  0  0  0  0
  -20.4933  -21.6337   21.3249 C   0  0  0  0  0  0  0  0  0  0  0  0
  -21.1428  -22.9533   21.7269 C   0  0  0  0  0  0  0  0  0  0  0  0
  -20.9754  -30.5245   23.9843 C   0  0  0  0  0  0  0  0  0  0  0  0
  -21.4156  -20.4507   21.5880 C   0  0  0  0  0  0  0  0  0  1  0  0
  -20.2387  -24.1399   21.4245 C   0  0  0  0  0  0  0  0  0  0  0  0
  -20.2418  -29.3079   24.5972 C   0  0  1  0  0  0  0  0  0  0  0  0
  -27.9355  -16.9621   21.8922 C   0  0  1  0  0  0  0  0  0  0  0  0
  -29.5714  -19.4073   19.5017 C   0  0  2  0  0  0  0  0  0  0  0  0
  -28.6597  -16.5184   23.1946 C   0  0  0  0  0  0  0  0  0  0  0  0
  -25.5962  -27.3832   19.0335 N   0  0  0  0  0  0  0  0  0  0  0  0
  -24.4242  -27.9957   19.2726 N   0  0  0  0  0  0  0  0  0  0  0  0
  -25.9271  -15.8489   20.9697 N   0  0  0  0  0  0  0  0  0  0  0  0
  -24.2571  -30.4105   22.2306 N   0  0  0  0  0  0  0  0  0  0  0  0
  -22.0875  -27.7993   18.9378 N   0  0  0  0  0  0  0  0  0  0  0  0
  -23.7381  -24.0865   16.9664 N   0  0  0  0  0  0  0  0  0  0  0  0
  -24.7312  -12.5203   21.4392 N   0  0  0  0  0  0  0  0  0  0  0  0
  -28.7969  -17.6436   20.9320 N   0  0  0  0  0  0  0  0  0  0  0  0
  -22.1120  -30.1248   23.1848 N   0  0  0  0  0  0  0  0  0  0  0  0
  -28.9509  -19.6490   18.1685 N   0  3  0  0  0  0  0  0  0  0  0  0
  -21.8180  -25.2507   17.4315 O   0  0  0  0  0  0  0  0  0  0  0  0
  -24.3822  -14.4878   22.6348 O   0  0  0  0  0  0  0  0  0  0  0  0
  -28.0393  -14.8866   20.7486 O   0  0  0  0  0  0  0  0  0  0  0  0
  -27.5682  -19.6079   20.8375 O   0  0  0  0  0  0  0  0  0  0  0  0
  -23.3175  -32.0309   23.5978 O   0  0  0  0  0  0  0  0  0  0  0  0
  -29.1075  -22.6358   16.6497 O   0  0  0  0  0  0  0  0  0  0  0  0
  -20.7787  -19.2403   21.1810 O   0  0  0  0  0  0  0  0  0  1  0  0
  -20.8931  -25.3327   21.8344 O   0  0  0  0  0  0  0  0  0  0  0  0
  -28.6930  -20.6861   11.5087 F   0  0  0  0  0  0  0  0  0  0  0  0
  -31.1366  -23.0325   14.8145 F   0  0  0  0  0  0  0  0  0  0  0  0
  1  2  1  0  0  0  0
  1  5  2  0  0  0  0
  2  6  2  0  0  0  0
  3  9  2  0  0  0  0
  3 18  1  0  0  0  0
  4 10  1  0  0  0  0
  4 18  2  0  0  0  0
  5 20  1  0  0  0  0
  6 22  1  0  0  0  0
  7 11  2  0  0  0  0
  7 21  1  0  0  0  0
  8 12  2  0  0  0  0
  8 24  1  0  0  0  0
  9 26  1  0  0  0  0
 10 26  2  0  0  0  0
 11 27  1  0  0  0  0
 12 28  1  0  0  0  0
 13 14  2  0  0  0  0
 13 29  1  0  0  0  0
 14 30  1  0  0  0  0
 15 23  1  0  0  0  0
 15 27  2  0  0  0  0
 16 25  1  0  0  0  0
 16 28  2  0  0  0  0
 17 30  2  0  0  0  0
 17 31  1  0  0  0  0
 18 32  1  0  0  0  0
 19 32  1  0  0  0  0
 19 33  2  0  0  0  0
 19 34  1  0  0  0  0
 20 22  2  0  0  0  0
 20 39  1  0  0  0  0
 21 23  2  0  0  0  0
 21 40  1  0  0  0  0
 22 48  1  0  0  0  0
 23 41  1  0  0  0  0
 24 25  2  0  0  0  0
 24 51  1  0  0  0  0
 25 63  1  0  0  0  0
 26 82  1  0  0  0  0
 27 83  1  0  0  0  0
 28 84  1  0  0  0  0
 29 31  2  0  0  0  0
 29 82  1  0  0  0  0
 30 85  1  0  0  0  0
 31 86  1  0  0  0  0
 32 67  2  0  0  0  0
 33 68  1  0  0  0  0
 33 71  1  0  0  0  0
 34 72  1  0  0  0  0
 34 77  2  0  0  0  0
 35 49  1  0  0  0  0
 35 73  1  0  0  0  0
 35 78  2  0  0  0  0
 36 64  1  0  0  0  0
 36 69  1  0  0  0  0
 36 79  2  0  0  0  0
 37 65  1  0  0  0  0
 37 74  1  0  0  0  0
 37 80  2  0  0  0  0
 38 70  1  0  0  0  0
 38 75  1  0  0  0  0
 38 81  2  0  0  0  0
 39 42  1  0  0  0  0
 40 49  1  0  0  0  0
 41 69  1  0  0  0  0
 42 44  1  0  0  0  0
 43 45  1  0  0  0  0
 43 46  1  0  0  0  0
 44 48  1  0  0  0  0
 45 50  1  0  0  0  0
 46 70  1  0  0  0  0
 47 50  1  0  0  0  0
 47 70  1  0  0  0  0
 48 73  1  0  0  0  0
 49 69  1  0  0  0  0
 50 68  1  0  0  0  0
 52 63  1  0  0  0  0
 53 65  1  0  0  0  0
 54 66  1  0  0  0  0
 55 66  1  0  0  0  0
 56 66  1  0  0  0  0
 57 76  1  0  0  0  0
 58 59  1  0  0  0  0
 58 61  1  0  0  0  0
 59 62  1  0  0  0  0
 60 63  1  0  0  0  0
 60 75  1  0  0  0  0
 61 83  1  0  0  0  0
 62 84  1  0  0  0  0
 64 66  1  0  0  0  0
 64 74  1  0  0  0  0
 65 76  1  0  0  0  0
 67 68  1  0  0  0  0
M  CHG  1  76   1
M  ISO  4  38 100  61 101  75 100  83 101
M  END
> <Batch ID>
0108

> <Smiles>
CNC(C)C(=O)NC(C(=O)N1Cc2cc([101O:1][101CH2:1]CCCOc3ccc(C)c(C(C)C[100NH:0][100C:0](=O)N4CCCC(n5nc(-c6ccc(Oc7ccc(F)cc7F)cc6)c(C(N)=O)c5N)C4)c3)ccc2CC1C(=O)NC1CCCc2ccccc21)C(C)(C)C

> <Shape>
0.235

> <Color>
0.077

> <Negative vol penalty>
0.000

$$$$

  -OEChem-04052301203D

 85 93  0     1  0  0  0  0  0999 V2000
  -16.7814  -25.9689   24.7967 C   0  0  0  0  0  0  0  0  0  0  0  0
  -17.5640  -25.1776   23.9621 C   0  0  0  0  0  0  0  0  0  0  0  0
  -29.4214  -20.5102   21.1708 C   0  0  0  0  0  0  0  0  0  0  0  0
  -27.0879  -20.6227   20.5552 C   0  0  0  0  0  0  0  0  0  0  0  0
  -16.9284  -27.3553   24.7802 C   0  0  0  0  0  0  0  0  0  0  0  0
  -18.4935  -25.7723   23.1096 C   0  0  0  0  0  0  0  0  0  0  0  0
  -22.9621  -23.3900   23.1420 C   0  0  0  0  0  0  0  0  0  0  0  0
  -22.7107  -11.5236   18.1917 C   0  0  0  0  0  0  0  0  0  0  0  0
  -23.7638  -11.8852   19.0318 C   0  0  0  0  0  0  0  0  0  0  0  0
  -29.6957  -21.5873   20.3281 C   0  0  0  0  0  0  0  0  0  0  0  0
  -27.3621  -21.6999   19.7125 C   0  0  0  0  0  0  0  0  0  0  0  0
  -23.0584  -22.2072   22.4102 C   0  0  0  0  0  0  0  0  0  0  0  0
  -28.6618  -22.1825   16.6289 C   0  0  0  0  0  0  0  0  0  0  0  0
  -28.0943  -22.1694   15.3548 C   0  0  0  0  0  0  0  0  0  0  0  0
  -24.1311  -23.4116   20.6163 C   0  0  0  0  0  0  0  0  0  0  0  0
  -26.9403  -24.2340   15.8475 C   0  0  0  0  0  0  0  0  0  0  0  0
  -28.1175  -20.0279   21.2844 C   0  0  0  0  0  0  0  0  0  0  0  0
  -21.5240  -13.5340   18.8137 C   0  0  0  0  0  0  0  0  0  0  0  0
  -27.4771  -18.9689   23.5151 C   0  0  0  0  0  0  0  0  0  0  0  0
  -17.8670  -27.9667   23.9340 C   0  0  0  0  0  0  0  0  0  0  0  0
  -23.4405  -24.5964   22.6111 C   0  0  0  0  0  0  0  0  0  0  0  0
  -18.6523  -27.1683   23.0807 C   0  0  0  0  0  0  0  0  0  0  0  0
  -24.0420  -24.6078   21.3445 C   0  0  0  0  0  0  0  0  0  0  0  0
  -21.5908  -12.3480   18.0826 C   0  0  0  0  0  0  0  0  0  0  0  0
  -23.6970  -13.0712   19.7629 C   0  0  0  0  0  0  0  0  0  0  0  0
  -28.6661  -22.1821   19.5989 C   0  0  0  0  0  0  0  0  0  0  0  0
  -23.6403  -22.2184   21.1460 C   0  0  0  0  0  0  0  0  0  0  0  0
  -28.3685  -23.2213   17.5124 C   0  0  0  0  0  0  0  0  0  0  0  0
  -22.5771  -13.8956   19.6539 C   0  0  0  0  0  0  0  0  0  0  0  0
  -27.2336  -23.1951   14.9641 C   0  0  0  0  0  0  0  0  0  0  0  0
  -27.5077  -24.2471   17.1217 C   0  0  0  0  0  0  0  0  0  0  0  0
  -27.8337  -18.9149   22.1543 C   0  0  0  0  0  0  0  0  0  0  0  0
  -27.3165  -17.6547   23.8804 C   0  0  0  0  0  0  0  0  0  0  0  0
  -19.3020  -14.3139   19.4990 C   0  0  0  0  0  0  0  0  0  0  0  0
  -20.3540  -14.3995   18.7012 C   0  0  0  0  0  0  0  0  0  0  0  0
  -27.3063  -20.1055   24.3722 C   0  0  0  0  0  0  0  0  0  0  0  0
  -22.1250  -27.3847   21.8371 C   0  0  0  0  0  0  0  0  0  0  0  0
  -25.2069  -28.2507   21.3132 C   0  0  0  0  0  0  0  0  0  0  0  0
  -28.4021  -27.2944   20.5903 C   0  0  0  0  0  0  0  0  0  0  0  0
  -25.9528  -12.7052   20.8229 C   0  0  0  0  0  0  0  0  0  0  0  0
  -17.9568  -29.4721   23.9170 C   0  0  0  0  0  0  0  0  0  0  0  0
  -23.3533  -25.8588   23.4243 C   0  0  0  0  0  0  0  0  0  0  0  0
  -24.5894  -25.8731   20.7379 C   0  0  0  0  0  0  0  0  0  0  0  0
  -19.2276  -29.9990   23.2554 C   0  0  0  0  0  0  0  0  0  0  0  0
  -28.8621  -13.2523   22.8013 C   0  0  0  0  0  0  0  0  0  0  0  0
  -19.4811  -29.2773   21.9357 C   0  0  0  0  0  0  0  0  0  0  0  0
  -28.8927  -14.7708   22.9889 C   0  0  0  0  0  0  0  0  0  0  0  0
  -28.3619  -12.8625   21.4115 C   0  0  0  0  0  0  0  0  0  0  0  0
  -27.1042  -14.9716   21.2146 C   0  0  0  0  0  0  0  0  0  0  0  0
  -19.6889  -27.7746   22.1598 C   0  0  1  0  0  0  0  0  0  0  0  0
  -23.4089  -27.1233   22.5725 C   0  0  1  0  0  0  0  0  0  0  0  0
  -27.5397  -15.4114   22.6219 C   0  0  2  0  0  0  0  0  0  0  0  0
  -20.4826  -11.9254   17.1717 C   0  0  0  0  0  0  0  0  0  0  0  0
  -30.6954  -28.2308   20.1886 C   0  0  0  0  0  0  0  0  0  0  0  0
  -24.3499  -29.1468   18.5253 C   0  0  0  0  0  0  0  0  0  0  0  0
  -26.7651  -29.1681   17.8658 C   0  0  0  0  0  0  0  0  0  0  0  0
  -25.9531  -30.6879   19.6696 C   0  0  0  0  0  0  0  0  0  0  0  0
  -29.5325  -25.8259   22.8978 C   0  0  0  0  0  0  0  0  0  0  0  0
  -23.4290  -18.6924   20.1048 C   0  0  0  0  0  0  0  0  0  0  0  0
  -22.8716  -17.4053   20.7027 C   0  0  0  0  0  0  0  0  0  0  0  0
  -23.2176  -19.8808   21.0335 C   0  0  0  0  0  0  0  0  0  1  0  0
  -23.0441  -16.2252   19.7569 C   0  0  0  0  0  0  0  0  0  0  0  0
  -26.1426  -28.2090   20.1293 C   0  0  1  0  0  0  0  0  0  0  0  0
  -29.7320  -27.6663   21.2209 C   0  0  2  0  0  0  0  0  0  0  0  0
  -25.7907  -29.2793   19.0579 C   0  0  0  0  0  0  0  0  0  0  0  0
  -27.8962  -17.6652   21.6869 N   0  0  0  0  0  0  0  0  0  0  0  0
  -27.5768  -16.9219   22.7600 N   0  0  0  0  0  0  0  0  0  0  0  0
  -24.4749  -27.0826   21.5694 N   0  0  0  0  0  0  0  0  0  0  0  0
  -27.0741  -13.5027   21.1351 N   0  0  0  0  0  0  0  0  0  0  0  0
  -26.9795  -17.0660   25.0476 N   0  0  0  0  0  0  0  0  0  0  0  0
  -27.5103  -21.3839   23.8353 N   0  0  0  0  0  0  0  0  0  0  0  0
  -24.7759  -13.4227   20.6115 N   0  0  0  0  0  0  0  0  0  0  0  0
  -21.0226  -27.5178   22.6596 N   0  0  0  0  0  0  0  0  0  0  0  0
  -27.4920  -28.3271   20.6712 N   0  0  0  0  0  0  0  0  0  0  0  0
  -30.3616  -26.4690   21.8461 N   0  3  0  0  0  0  0  0  0  0  0  0
  -26.9983  -19.9900   25.5827 O   0  0  0  0  0  0  0  0  0  0  0  0
  -22.1341  -27.4614   20.6141 O   0  0  0  0  0  0  0  0  0  0  0  0
  -25.1335  -29.2793   21.9902 O   0  0  0  0  0  0  0  0  0  0  0  0
  -28.1930  -26.1989   20.0740 O   0  0  0  0  0  0  0  0  0  0  0  0
  -26.0248  -11.4746   20.7753 O   0  0  0  0  0  0  0  0  0  0  0  0
  -28.9333  -23.2334   18.7767 O   0  0  0  0  0  0  0  0  0  0  0  0
  -23.7350  -21.0655   20.4293 O   0  0  0  0  0  0  0  0  0  1  0  0
  -22.5201  -15.0589   20.3767 O   0  0  0  0  0  0  0  0  0  0  0  0
  -26.6899  -23.1832   13.7399 F   0  0  0  0  0  0  0  0  0  0  0  0
  -27.2231  -25.2483   17.9656 F   0  0  0  0  0  0  0  0  0  0  0  0
  1  2  1  0  0  0  0
  1  5  2  0  0  0  0
  2  6  2  0  0  0  0
  3 10  2  0  0  0  0
  3 17  1  0  0  0  0
  4 11  1  0  0  0  0
  4 17  2  0  0  0  0
  5 20  1  0  0  0  0
  6 22  1  0  0  0  0
  7 12  2  0  0  0  0
  7 21  1  0  0  0  0
  8  9  1  0  0  0  0
  8 24  2  0  0  0  0
  9 25  2  0  0  0  0
 10 26  1  0  0  0  0
 11 26  2  0  0  0  0
 12 27  1  0  0  0  0
 13 14  2  0  0  0  0
 13 28  1  0  0  0  0
 14 30  1  0  0  0  0
 15 23  1  0  0  0  0
 15 27  2  0  0  0  0
 16 30  2  0  0  0  0
 16 31  1  0  0  0  0
 17 32  1  0  0  0  0
 18 24  1  0  0  0  0
 18 29  2  0  0  0  0
 18 35  1  0  0  0  0
 19 32  1  0  0  0  0
 19 33  2  0  0  0  0
 19 36  1  0  0  0  0
 20 22  2  0  0  0  0
 20 41  1  0  0  0  0
 21 23  2  0  0  0  0
 21 42  1  0  0  0  0
 22 50  1  0  0  0  0
 23 43  1  0  0  0  0
 24 53  1  0  0  0  0
 25 29  1  0  0  0  0
 25 72  1  0  0  0  0
 26 81  1  0  0  0  0
 27 82  1  0  0  0  0
 28 31  2  0  0  0  0
 28 81  1  0  0  0  0
 29 83  1  0  0  0  0
 30 84  1  0  0  0  0
 31 85  1  0  0  0  0
 32 66  2  0  0  0  0
 33 67  1  0  0  0  0
 33 70  1  0  0  0  0
 34 35  2  0  0  0  0
 36 71  1  0  0  0  0
 36 76  2  0  0  0  0
 37 51  1  0  0  0  0
 37 73  1  0  0  0  0
 37 77  2  0  0  0  0
 38 63  1  0  0  0  0
 38 68  1  0  0  0  0
 38 78  2  0  0  0  0
 39 64  1  0  0  0  0
 39 74  1  0  0  0  0
 39 79  2  0  0  0  0
 40 69  1  0  0  0  0
 40 72  1  0  0  0  0
 40 80  2  0  0  0  0
 41 44  1  0  0  0  0
 42 51  1  0  0  0  0
 43 68  1  0  0  0  0
 44 46  1  0  0  0  0
 45 47  1  0  0  0  0
 45 48  1  0  0  0  0
 46 50  1  0  0  0  0
 47 52  1  0  0  0  0
 48 69  1  0  0  0  0
 49 52  1  0  0  0  0
 49 69  1  0  0  0  0
 50 73  1  0  0  0  0
 51 68  1  0  0  0  0
 52 67  1  0  0  0  0
 54 64  1  0  0  0  0
 55 65  1  0  0  0  0
 56 65  1  0  0  0  0
 57 65  1  0  0  0  0
 58 75  1  0  0  0  0
 59 60  1  0  0  0  0
 59 61  1  0  0  0  0
 60 62  1  0  0  0  0
 61 82  1  0  0  0  0
 62 83  1  0  0  0  0
 63 65  1  0  0  0  0
 63 74  1  0  0  0  0
 64 75  1  0  0  0  0
 66 67  1  0  0  0  0
M  CHG  1  75   1
M  ISO  4  40 100  61 101  72 100  82 101
M  END
> <Batch ID>
0108

> <Smiles>
C=Cc1c(C)ccc([100NH:0][100C:0](=O)N2CCCC(n3nc(-c4ccc(Oc5ccc(F)cc5F)cc4)c(C(N)=O)c3N)C2)c1OCCC[101CH2:1][101O:1]c1ccc2c(c1)CN(C(=O)C(NC(=O)C(C)NC)C(C)(C)C)C(C(=O)NC1CCCc3ccccc31)C2

> <Shape>
0.190

> <Color>
0.072

> <Negative vol penalty>
0.000

$$$$

  -OEChem-04052301203D

 89 98  0     1  0  0  0  0  0999 V2000
  -28.1094  -24.5950   16.8608 C   0  0  0  0  0  0  0  0  0  0  0  0
  -26.9112  -24.8216   17.5304 C   0  0  0  0  0  0  0  0  0  0  0  0
  -27.8423  -18.1310   19.6154 C   0  0  0  0  0  0  0  0  0  0  0  0
  -26.3418  -19.8722   20.3594 C   0  0  0  0  0  0  0  0  0  0  0  0
  -29.3052  -25.0768   17.3916 C   0  0  0  0  0  0  0  0  0  0  0  0
  -26.9083  -25.5293   18.7319 C   0  0  0  0  0  0  0  0  0  0  0  0
  -23.2100  -28.9823   18.9437 C   0  0  0  0  0  0  0  0  0  0  0  0
  -17.6384  -20.7974   21.2073 C   0  0  0  0  0  0  0  0  0  0  0  0
  -17.5481  -22.1814   21.0591 C   0  0  0  0  0  0  0  0  0  0  0  0
  -28.7173  -19.0971   19.1188 C   0  0  0  0  0  0  0  0  0  0  0  0
  -27.2168  -20.8384   19.8628 C   0  0  0  0  0  0  0  0  0  0  0  0
  -21.9237  -28.5214   19.2204 C   0  0  0  0  0  0  0  0  0  0  0  0
  -31.0551  -21.2081   20.3482 C   0  0  0  0  0  0  0  0  0  0  0  0
  -32.4142  -21.0533   20.6208 C   0  0  0  0  0  0  0  0  0  0  0  0
  -22.1827  -29.1980   21.5213 C   0  0  0  0  0  0  0  0  0  0  0  0
  -18.6222  -21.0956   23.3937 C   0  0  0  0  0  0  0  0  0  0  0  0
  -32.8789  -20.9608   18.2517 C   0  0  0  0  0  0  0  0  0  0  0  0
  -26.6545  -18.5185   20.2357 C   0  0  0  0  0  0  0  0  0  0  0  0
  -26.0211  -16.5547   21.7355 C   0  0  0  0  0  0  0  0  0  0  0  0
  -29.3158  -25.7991   18.5953 C   0  0  0  0  0  0  0  0  0  0  0  0
  -23.9978  -29.5456   19.9579 C   0  0  0  0  0  0  0  0  0  0  0  0
  -28.1055  -26.0201   19.2800 C   0  0  0  0  0  0  0  0  0  0  0  0
  -23.4778  -29.6677   21.2543 C   0  0  0  0  0  0  0  0  0  0  0  0
  -18.1754  -20.2544   22.3746 C   0  0  0  0  0  0  0  0  0  0  0  0
  -17.9950  -23.0225   22.0782 C   0  0  0  0  0  0  0  0  0  0  0  0
  -28.4045  -20.4508   19.2425 C   0  0  0  0  0  0  0  0  0  0  0  0
  -21.4109  -28.6266   20.5100 C   0  0  0  0  0  0  0  0  0  0  0  0
  -30.6078  -21.2393   19.0273 C   0  0  0  0  0  0  0  0  0  0  0  0
  -18.5320  -22.4796   23.2455 C   0  0  0  0  0  0  0  0  0  0  0  0
  -33.3261  -20.9297   19.5726 C   0  0  0  0  0  0  0  0  0  0  0  0
  -31.5197  -21.1157   17.9791 C   0  0  0  0  0  0  0  0  0  0  0  0
  -25.7500  -17.5210   20.7483 C   0  0  0  0  0  0  0  0  0  0  0  0
  -24.8458  -15.8555   21.8636 C   0  0  0  0  0  0  0  0  0  0  0  0
  -18.8236  -26.6593   22.0781 C   0  0  0  0  0  0  0  0  0  0  0  0
  -18.9848  -25.3219   21.9298 C   0  0  0  0  0  0  0  0  0  0  0  0
  -17.4323  -27.1857   22.2833 C   0  0  0  0  0  0  0  0  0  0  0  0
  -27.2274  -16.3109   22.4711 C   0  0  0  0  0  0  0  0  0  0  0  0
  -26.7764  -28.8049   21.3125 C   0  0  0  0  0  0  0  0  0  0  0  0
  -26.3519  -31.6435   22.8240 C   0  0  0  0  0  0  0  0  0  0  0  0
  -24.1929  -34.0525   23.9114 C   0  0  0  0  0  0  0  0  0  0  0  0
  -19.1285  -17.2557   20.7672 C   0  0  0  0  0  0  0  0  0  0  0  0
  -30.6389  -26.2593   19.1541 C   0  0  0  0  0  0  0  0  0  0  0  0
  -25.3735  -30.0624   19.6372 C   0  0  0  0  0  0  0  0  0  0  0  0
  -24.2754  -30.2830   22.3740 C   0  0  0  0  0  0  0  0  0  0  0  0
  -16.3048  -26.1961   22.4526 C   0  0  0  0  0  0  0  0  0  0  0  0
  -30.5043  -27.3233   20.2404 C   0  0  0  0  0  0  0  0  0  0  0  0
  -20.9752  -14.5500   19.3726 C   0  0  0  0  0  0  0  0  0  0  0  0
  -29.4303  -26.9249   21.2477 C   0  0  0  0  0  0  0  0  0  0  0  0
  -22.4328  -14.9174   19.6561 C   0  0  0  0  0  0  0  0  0  0  0  0
  -16.5433  -24.9281   21.6515 C   0  0  0  0  0  0  0  0  0  0  0  0
  -20.1352  -15.7833   19.0482 C   0  0  0  0  0  0  0  0  0  0  0  0
  -21.6603  -17.2279   20.3369 C   0  0  0  0  0  0  0  0  0  0  0  0
  -28.0585  -26.8048   20.5731 C   0  0  1  0  0  0  0  0  0  0  0  0
  -26.2796  -30.1493   20.8614 C   0  0  1  0  0  0  0  0  0  0  0  0
  -22.5349  -16.0231   20.7240 C   0  0  2  0  0  0  0  0  0  0  0  0
  -20.3636  -24.7523   21.6574 C   0  0  0  0  0  0  0  0  0  0  0  0
  -24.1376  -36.2353   25.1482 C   0  0  0  0  0  0  0  0  0  0  0  0
  -26.7530  -30.1580   25.4588 C   0  0  0  0  0  0  0  0  0  0  0  0
  -25.7641  -32.1308   26.6413 C   0  0  0  0  0  0  0  0  0  0  0  0
  -27.8753  -32.3896   25.3381 C   0  0  0  0  0  0  0  0  0  0  0  0
  -23.0584  -35.4781   21.5792 C   0  0  0  0  0  0  0  0  0  0  0  0
  -18.0258  -23.6470   25.2547 C   0  0  0  0  0  0  0  0  0  0  0  0
  -18.2712  -18.7746   22.5328 C   0  0  0  0  0  0  0  0  0  0  0  0
  -19.9113  -27.6957   22.1040 C   0  0  0  0  0  0  0  0  0  1  0  0
  -25.6885  -32.0829   24.1069 C   0  0  1  0  0  0  0  0  0  0  0  0
  -24.2251  -35.5650   23.7859 C   0  0  2  0  0  0  0  0  0  0  0  0
  -26.5057  -31.6769   25.3659 C   0  0  0  0  0  0  0  0  0  0  0  0
  -24.5006  -17.4454   20.2822 N   0  0  0  0  0  0  0  0  0  0  0  0
  -23.9762  -16.4232   20.9795 N   0  0  0  0  0  0  0  0  0  0  0  0
  -17.8977  -24.4284   21.9138 N   0  0  0  0  0  0  0  0  0  0  0  0
  -25.6175  -30.7678   22.0118 N   0  0  0  0  0  0  0  0  0  0  0  0
  -20.2749  -16.7927   20.1007 N   0  0  0  0  0  0  0  0  0  0  0  0
  -24.4818  -14.8166   22.6450 N   0  0  0  0  0  0  0  0  0  0  0  0
  -27.4167  -16.9836   23.6860 N   0  0  0  0  0  0  0  0  0  0  0  0
  -27.4888  -28.1163   20.3493 N   0  0  0  0  0  0  0  0  0  0  0  0
  -25.4624  -33.5184   23.9787 N   0  0  0  0  0  0  0  0  0  0  0  0
  -19.3502  -18.2073   21.7552 N   0  0  0  0  0  0  0  0  0  0  0  0
  -23.0836  -36.0401   22.9541 N   0  3  0  0  0  0  0  0  0  0  0  0
  -17.2216  -28.3954   22.3675 O   0  0  0  0  0  0  0  0  0  0  0  0
  -28.1187  -15.5324   22.0551 O   0  0  0  0  0  0  0  0  0  0  0  0
  -26.5327  -28.4214   22.4506 O   0  0  0  0  0  0  0  0  0  0  0  0
  -27.4772  -32.0674   22.5491 O   0  0  0  0  0  0  0  0  0  0  0  0
  -23.1463  -33.4094   23.9499 O   0  0  0  0  0  0  0  0  0  0  0  0
  -17.9920  -16.8472   20.5052 O   0  0  0  0  0  0  0  0  0  0  0  0
  -29.2582  -21.3939   18.7582 O   0  0  0  0  0  0  0  0  0  0  0  0
  -18.9736  -23.2845   24.2528 O   0  0  0  0  0  0  0  0  0  0  0  0
  -20.1558  -28.1769   20.7830 O   0  0  0  0  0  0  0  0  0  1  0  0
  -34.6315  -20.7825   19.8345 F   0  0  0  0  0  0  0  0  0  0  0  0
  -31.0961  -21.1460   16.7081 F   0  0  0  0  0  0  0  0  0  0  0  0
  1  2  1  0  0  0  0
  1  5  2  0  0  0  0
  2  6  2  0  0  0  0
  3 10  2  0  0  0  0
  3 18  1  0  0  0  0
  4 11  1  0  0  0  0
  4 18  2  0  0  0  0
  5 20  1  0  0  0  0
  6 22  1  0  0  0  0
  7 12  2  0  0  0  0
  7 21  1  0  0  0  0
  8  9  2  0  0  0  0
  8 24  1  0  0  0  0
  9 25  1  0  0  0  0
 10 26  1  0  0  0  0
 11 26  2  0  0  0  0
 12 27  1  0  0  0  0
 13 14  2  0  0  0  0
 13 28  1  0  0  0  0
 14 30  1  0  0  0  0
 15 23  1  0  0  0  0
 15 27  2  0  0  0  0
 16 24  2  0  0  0  0
 16 29  1  0  0  0  0
 17 30  2  0  0  0  0
 17 31  1  0  0  0  0
 18 32  1  0  0  0  0
 19 32  1  0  0  0  0
 19 33  2  0  0  0  0
 19 37  1  0  0  0  0
 20 22  2  0  0  0  0
 20 42  1  0  0  0  0
 21 23  2  0  0  0  0
 21 43  1  0  0  0  0
 22 53  1  0  0  0  0
 23 44  1  0  0  0  0
 24 63  1  0  0  0  0
 25 29  2  0  0  0  0
 25 70  1  0  0  0  0
 26 85  1  0  0  0  0
 27 87  1  0  0  0  0
 28 31  2  0  0  0  0
 28 85  1  0  0  0  0
 29 86  1  0  0  0  0
 30 88  1  0  0  0  0
 31 89  1  0  0  0  0
 32 68  2  0  0  0  0
 33 69  1  0  0  0  0
 33 73  1  0  0  0  0
 34 35  2  0  0  0  0
 34 36  1  0  0  0  0
 34 64  1  0  0  0  0
 35 56  1  0  0  0  0
 35 70  1  0  0  0  0
 36 45  1  0  0  0  0
 36 79  2  0  0  0  0
 37 74  1  0  0  0  0
 37 80  2  0  0  0  0
 38 54  1  0  0  0  0
 38 75  1  0  0  0  0
 38 81  2  0  0  0  0
 39 65  1  0  0  0  0
 39 71  1  0  0  0  0
 39 82  2  0  0  0  0
 40 66  1  0  0  0  0
 40 76  1  0  0  0  0
 40 83  2  0  0  0  0
 41 72  1  0  0  0  0
 41 77  1  0  0  0  0
 41 84  2  0  0  0  0
 42 46  1  0  0  0  0
 43 54  1  0  0  0  0
 44 71  1  0  0  0  0
 45 50  1  0  0  0  0
 46 48  1  0  0  0  0
 47 49  1  0  0  0  0
 47 51  1  0  0  0  0
 48 53  1  0  0  0  0
 49 55  1  0  0  0  0
 50 70  1  0  0  0  0
 51 72  1  0  0  0  0
 52 55  1  0  0  0  0
 52 72  1  0  0  0  0
 53 75  1  0  0  0  0
 54 71  1  0  0  0  0
 55 69  1  0  0  0  0
 57 66  1  0  0  0  0
 58 67  1  0  0  0  0
 59 67  1  0  0  0  0
 60 67  1  0  0  0  0
 61 78  1  0  0  0  0
 62 86  1  0  0  0  0
 63 77  1  0  0  0  0
 64 87  1  0  0  0  0
 65 67  1  0  0  0  0
 65 76  1  0  0  0  0
 66 78  1  0  0  0  0
 68 69  1  0  0  0  0
M  CHG  1  78   1
M  ISO  4  41 100  64 101  77 100  87 101
M  END
> <Batch ID>
0108

> <Smiles>
CNC(C)C(=O)NC(C(=O)N1Cc2cc([101O:1][101CH2:1]C3=C(C)N(c4ccc(C[100NH:0][100C:0](=O)N5CCCC(n6nc(-c7ccc(Oc8ccc(F)cc8F)cc7)c(C(N)=O)c6N)C5)cc4OC)CCC3=O)ccc2CC1C(=O)NC1CCCc2ccccc21)C(C)(C)C

> <Shape>
0.257

> <Color>
0.056

> <Negative vol penalty>
0.000

$$$$

  -OEChem-04052301203D

 87 96  0     1  0  0  0  0  0999 V2000
  -17.3734  -31.8334   20.7323 C   0  0  0  0  0  0  0  0  0  0  0  0
  -18.6970  -32.2211   20.9138 C   0  0  0  0  0  0  0  0  0  0  0  0
  -25.9224  -14.3685   20.3736 C   0  0  0  0  0  0  0  0  0  0  0  0
  -25.3094  -15.6014   22.3588 C   0  0  0  0  0  0  0  0  0  0  0  0
  -16.8846  -30.7008   21.3822 C   0  0  0  0  0  0  0  0  0  0  0  0
  -19.5324  -31.4771   21.7462 C   0  0  0  0  0  0  0  0  0  0  0  0
  -25.6109  -28.5401   19.2327 C   0  0  0  0  0  0  0  0  0  0  0  0
  -24.7390  -13.6357   20.4632 C   0  0  0  0  0  0  0  0  0  0  0  0
  -24.1259  -14.8687   22.4484 C   0  0  0  0  0  0  0  0  0  0  0  0
  -26.8948  -28.1243   18.8794 C   0  0  0  0  0  0  0  0  0  0  0  0
  -23.5536  -11.0294   22.2594 C   0  0  0  0  0  0  0  0  0  0  0  0
  -23.6320   -9.6485   22.0789 C   0  0  0  0  0  0  0  0  0  0  0  0
  -27.1958  -27.1536   21.0738 C   0  0  0  0  0  0  0  0  0  0  0  0
  -32.0564  -22.6027   21.1798 C   0  0  0  0  0  0  0  0  0  0  0  0
  -22.1269   -9.8092   20.1958 C   0  0  0  0  0  0  0  0  0  0  0  0
  -31.7903  -24.1397   22.9028 C   0  0  0  0  0  0  0  0  0  0  0  0
  -26.2077  -15.3513   21.3214 C   0  0  0  0  0  0  0  0  0  0  0  0
  -27.8433  -16.9303   20.1642 C   0  0  0  0  0  0  0  0  0  0  0  0
  -17.7171  -29.9371   22.2154 C   0  0  0  0  0  0  0  0  0  0  0  0
  -25.1082  -28.2504   20.5042 C   0  0  0  0  0  0  0  0  0  0  0  0
  -19.0540  -30.3341   22.4089 C   0  0  0  0  0  0  0  0  0  0  0  0
  -25.9058  -27.5567   21.4291 C   0  0  0  0  0  0  0  0  0  0  0  0
  -32.2200  -22.8743   22.5689 C   0  0  0  0  0  0  0  0  0  0  0  0
  -23.8407  -13.8858   21.5006 C   0  0  0  0  0  0  0  0  0  0  0  0
  -27.6854  -27.4330   19.7978 C   0  0  0  0  0  0  0  0  0  0  0  0
  -22.7618  -11.8002   21.4082 C   0  0  0  0  0  0  0  0  0  0  0  0
  -22.9186   -9.0384   21.0471 C   0  0  0  0  0  0  0  0  0  0  0  0
  -22.0485  -11.1901   20.3764 C   0  0  0  0  0  0  0  0  0  0  0  0
  -27.4303  -16.1082   21.2297 C   0  0  0  0  0  0  0  0  0  0  0  0
  -29.0641  -17.4190   20.5607 C   0  0  0  0  0  0  0  0  0  0  0  0
  -31.5075  -23.6710   20.5049 C   0  0  0  0  0  0  0  0  0  0  0  0
  -31.3593  -26.0120   17.2487 C   0  0  0  0  0  0  0  0  0  0  0  0
  -30.2494  -25.6879   17.9365 C   0  0  0  0  0  0  0  0  0  0  0  0
  -32.5052  -25.1050   16.9875 C   0  0  0  0  0  0  0  0  0  0  0  0
  -27.1825  -17.2258   18.9266 C   0  0  0  0  0  0  0  0  0  0  0  0
  -22.2298  -28.5094   22.8967 C   0  0  0  0  0  0  0  0  0  0  0  0
  -23.4089  -25.6963   23.2226 C   0  0  0  0  0  0  0  0  0  0  0  0
  -24.7333  -22.5622   22.9763 C   0  0  0  0  0  0  0  0  0  0  0  0
  -32.3849  -19.6383   24.4584 C   0  0  0  0  0  0  0  0  0  0  0  0
  -17.1308  -28.7477   22.9340 C   0  0  0  0  0  0  0  0  0  0  0  0
  -23.7541  -28.7325   20.9490 C   0  0  0  0  0  0  0  0  0  0  0  0
  -25.3365  -27.2975   22.7972 C   0  0  0  0  0  0  0  0  0  0  0  0
  -32.2353  -23.6270   16.8601 C   0  0  0  0  0  0  0  0  0  0  0  0
  -18.1837  -27.8006   23.5037 C   0  0  0  0  0  0  0  0  0  0  0  0
  -32.0415  -16.0946   24.4295 C   0  0  0  0  0  0  0  0  0  0  0  0
  -19.2668  -28.5854   24.2371 C   0  0  0  0  0  0  0  0  0  0  0  0
  -30.8420  -15.8508   23.5121 C   0  0  0  0  0  0  0  0  0  0  0  0
  -32.0445  -22.9524   18.2088 C   0  0  0  0  0  0  0  0  0  0  0  0
  -31.8619  -17.3570   25.2699 C   0  0  0  0  0  0  0  0  0  0  0  0
  -30.3551  -18.3321   23.5810 C   0  0  0  0  0  0  0  0  0  0  0  0
  -19.9980  -29.5388   23.2844 C   0  0  1  0  0  0  0  0  0  0  0  0
  -29.9760  -24.3932   18.6911 C   0  0  1  0  0  0  0  0  0  0  0  0
  -23.0422  -27.7462   21.8922 C   0  0  1  0  0  0  0  0  0  0  0  0
  -30.5147  -17.1007   22.6730 C   0  0  2  0  0  0  0  0  0  0  0  0
  -29.0512  -23.4298   17.9392 C   0  0  0  0  0  0  0  0  0  0  0  0
  -24.5288  -20.2557   23.9436 C   0  0  0  0  0  0  0  0  0  0  0  0
  -24.8718  -26.6236   25.7333 C   0  0  0  0  0  0  0  0  0  0  0  0
  -25.4690  -24.2340   26.1821 C   0  0  0  0  0  0  0  0  0  0  0  0
  -23.0746  -24.9321   26.1374 C   0  0  0  0  0  0  0  0  0  0  0  0
  -24.0200  -21.3983   20.3503 C   0  0  0  0  0  0  0  0  0  0  0  0
  -32.7861  -21.9082   23.5388 C   0  0  0  0  0  0  0  0  0  0  0  0
  -29.1547  -26.7217   18.0679 C   0  0  0  0  0  0  0  0  0  1  0  0
  -24.3696  -24.8061   23.9697 C   0  0  1  0  0  0  0  0  0  0  0  0
  -24.0784  -21.1995   22.8395 C   0  0  2  0  0  0  0  0  0  0  0  0
  -24.4535  -25.1613   25.4810 C   0  0  0  0  0  0  0  0  0  0  0  0
  -28.3169  -16.0740   22.2282 N   0  0  0  0  0  0  0  0  0  0  0  0
  -29.2992  -16.8806   21.7916 N   0  0  0  0  0  0  0  0  0  0  0  0
  -31.2178  -23.7312   19.1353 N   0  0  3  0  0  0  0  0  0  0  0  0
  -23.9304  -26.8794   22.6852 N   0  0  0  0  0  0  0  0  0  0  0  0
  -31.5553  -18.5058   24.4141 N   0  0  0  0  0  0  0  0  0  0  0  0
  -29.9488  -18.2523   19.9731 N   0  0  0  0  0  0  0  0  0  0  0  0
  -26.3173  -18.3274   18.8775 N   0  0  0  0  0  0  0  0  0  0  0  0
  -20.9496  -28.8108   22.4727 N   0  0  0  0  0  0  0  0  0  0  0  0
  -23.9494  -23.4353   23.7004 N   0  0  0  0  0  0  0  0  0  0  0  0
  -32.0270  -20.6797   23.6110 N   0  0  0  0  0  0  0  0  0  0  0  0
  -24.4268  -20.5869   21.5264 N   0  3  0  0  0  0  0  0  0  0  0  0
  -33.6305  -25.5750   16.8295 O   0  0  0  0  0  0  0  0  0  0  0  0
  -27.3414  -16.5237   17.8992 O   0  0  0  0  0  0  0  0  0  0  0  0
  -22.7263  -28.8027   23.9780 O   0  0  0  0  0  0  0  0  0  0  0  0
  -22.2265  -25.3571   23.1215 O   0  0  0  0  0  0  0  0  0  0  0  0
  -25.8322  -22.8247   22.4925 O   0  0  0  0  0  0  0  0  0  0  0  0
  -33.3746  -19.7136   25.1945 O   0  0  0  0  0  0  0  0  0  0  0  0
  -22.6856  -13.1711   21.5882 O   0  0  0  0  0  0  0  0  0  0  0  0
  -28.9362  -27.0260   19.4448 O   0  0  0  0  0  0  0  0  0  1  0  0
  -22.9952   -7.7125   20.8729 F   0  0  0  0  0  0  0  0  0  0  0  0
  -21.2870  -11.9256   19.5547 F   0  0  0  0  0  0  0  0  0  0  0  0
  -31.1923  -24.9945   21.5448 S   0  0  0  0  0  0  0  0  0  0  0  0
  1  2  1  0  0  0  0
  1  5  2  0  0  0  0
  2  6  2  0  0  0  0
  3  8  2  0  0  0  0
  3 17  1  0  0  0  0
  4  9  1  0  0  0  0
  4 17  2  0  0  0  0
  5 19  1  0  0  0  0
  6 21  1  0  0  0  0
  7 10  2  0  0  0  0
  7 20  1  0  0  0  0
  8 24  1  0  0  0  0
  9 24  2  0  0  0  0
 10 25  1  0  0  0  0
 11 12  2  0  0  0  0
 11 26  1  0  0  0  0
 12 27  1  0  0  0  0
 13 22  1  0  0  0  0
 13 25  2  0  0  0  0
 14 23  1  0  0  0  0
 14 31  2  0  0  0  0
 15 27  2  0  0  0  0
 15 28  1  0  0  0  0
 16 23  2  0  0  0  0
 16 87  1  0  0  0  0
 17 29  1  0  0  0  0
 18 29  1  0  0  0  0
 18 30  2  0  0  0  0
 18 35  1  0  0  0  0
 19 21  2  0  0  0  0
 19 40  1  0  0  0  0
 20 22  2  0  0  0  0
 20 41  1  0  0  0  0
 21 51  1  0  0  0  0
 22 42  1  0  0  0  0
 23 61  1  0  0  0  0
 24 83  1  0  0  0  0
 25 84  1  0  0  0  0
 26 28  2  0  0  0  0
 26 83  1  0  0  0  0
 27 85  1  0  0  0  0
 28 86  1  0  0  0  0
 29 66  2  0  0  0  0
 30 67  1  0  0  0  0
 30 71  1  0  0  0  0
 31 68  1  0  0  0  0
 31 87  1  0  0  0  0
 32 33  2  0  0  0  0
 32 34  1  0  0  0  0
 33 52  1  0  0  0  0
 33 62  1  0  0  0  0
 34 43  1  0  0  0  0
 34 77  2  0  0  0  0
 35 72  1  0  0  0  0
 35 78  2  0  0  0  0
 36 53  1  0  0  0  0
 36 73  1  0  0  0  0
 36 79  2  0  0  0  0
 37 63  1  0  0  0  0
 37 69  1  0  0  0  0
 37 80  2  0  0  0  0
 38 64  1  0  0  0  0
 38 74  1  0  0  0  0
 38 81  2  0  0  0  0
 39 70  1  0  0  0  0
 39 75  1  0  0  0  0
 39 82  2  0  0  0  0
 40 44  1  0  0  0  0
 41 53  1  0  0  0  0
 42 69  1  0  0  0  0
 43 48  1  0  0  0  0
 44 46  1  0  0  0  0
 45 47  1  0  0  0  0
 45 49  1  0  0  0  0
 46 51  1  0  0  0  0
 47 54  1  0  0  0  0
 48 68  1  0  0  0  0
 49 70  1  0  0  0  0
 50 54  1  0  0  0  0
 50 70  1  0  0  0  0
 51 73  1  0  0  0  0
 52 55  1  0  0  0  0
 52 68  1  0  0  0  0
 53 69  1  0  0  0  0
 54 67  1  0  0  0  0
 56 64  1  0  0  0  0
 57 65  1  0  0  0  0
 58 65  1  0  0  0  0
 59 65  1  0  0  0  0
 60 76  1  0  0  0  0
 61 75  1  0  0  0  0
 62 84  1  0  0  0  0
 63 65  1  0  0  0  0
 63 74  1  0  0  0  0
 64 76  1  0  0  0  0
 66 67  1  0  0  0  0
M  CHG  1  76   1
M  ISO  4  39 100  62 101  75 100  84 101
M  END
> <Batch ID>
0108

> <Smiles>
CNC(C)C(=O)NC(C(=O)N1Cc2cc([101O:1][101CH2:1]C3=C(C)N(c4cc(C[100NH:0][100C:0](=O)N5CCCC(n6nc(-c7ccc(Oc8ccc(F)cc8F)cc7)c(C(N)=O)c6N)C5)cs4)CCC(=O)C3)ccc2CC1C(=O)NC1CCCc2ccccc21)C(C)(C)C

> <Shape>
0.213

> <Color>
0.070

> <Negative vol penalty>
0.000

$$$$

  -OEChem-04052301203D

 87 96  0     1  0  0  0  0  0999 V2000
  -20.3315  -26.0045   17.8485 C   0  0  0  0  0  0  0  0  0  0  0  0
  -21.3805  -25.1789   18.2402 C   0  0  0  0  0  0  0  0  0  0  0  0
  -29.6245  -13.2041   26.9713 C   0  0  0  0  0  0  0  0  0  0  0  0
  -22.8007  -10.1459   20.0947 C   0  0  0  0  0  0  0  0  0  0  0  0
  -24.1932   -9.5634   21.9812 C   0  0  0  0  0  0  0  0  0  0  0  0
  -29.7381  -14.5570   27.2915 C   0  0  0  0  0  0  0  0  0  0  0  0
  -19.3061  -26.3000   18.7457 C   0  0  0  0  0  0  0  0  0  0  0  0
  -21.4052  -24.6492   19.5299 C   0  0  0  0  0  0  0  0  0  0  0  0
  -23.5252  -19.1559   21.2136 C   0  0  0  0  0  0  0  0  0  0  0  0
  -30.2530  -12.7020   25.8317 C   0  0  0  0  0  0  0  0  0  0  0  0
  -22.0688   -8.9719   20.2725 C   0  0  0  0  0  0  0  0  0  0  0  0
  -23.4613   -8.3894   22.1590 C   0  0  0  0  0  0  0  0  0  0  0  0
  -24.7386  -18.7476   21.7655 C   0  0  0  0  0  0  0  0  0  0  0  0
  -22.4234   -5.6852   19.5679 C   0  0  0  0  0  0  0  0  0  0  0  0
  -22.1284   -4.9284   18.4340 C   0  0  0  0  0  0  0  0  0  0  0  0
  -31.1087  -14.9055   25.3326 C   0  0  0  0  0  0  0  0  0  0  0  0
  -23.7620  -18.8442   23.9692 C   0  0  0  0  0  0  0  0  0  0  0  0
  -19.7671   -5.1936   18.8714 C   0  0  0  0  0  0  0  0  0  0  0  0
  -23.8630  -10.4416   20.9490 C   0  0  0  0  0  0  0  0  0  0  0  0
  -30.4802  -15.4077   26.4721 C   0  0  0  0  0  0  0  0  0  0  0  0
  -24.1345  -12.9745   20.8133 C   0  0  0  0  0  0  0  0  0  0  0  0
  -19.3133  -25.7659   20.0439 C   0  0  0  0  0  0  0  0  0  0  0  0
  -22.4223  -19.4223   22.0377 C   0  0  0  0  0  0  0  0  0  0  0  0
  -20.3796  -24.9389   20.4458 C   0  0  0  0  0  0  0  0  0  0  0  0
  -22.5349  -19.2533   23.4251 C   0  0  0  0  0  0  0  0  0  0  0  0
  -30.9951  -13.5526   25.0124 C   0  0  0  0  0  0  0  0  0  0  0  0
  -22.3990   -8.0937   21.3046 C   0  0  0  0  0  0  0  0  0  0  0  0
  -24.8581  -18.5945   23.1437 C   0  0  0  0  0  0  0  0  0  0  0  0
  -21.3903   -6.1962   20.3536 C   0  0  0  0  0  0  0  0  0  0  0  0
  -20.8002   -4.6826   18.0857 C   0  0  0  0  0  0  0  0  0  0  0  0
  -20.0622   -5.9504   20.0053 C   0  0  0  0  0  0  0  0  0  0  0  0
  -24.6198  -11.6539   20.7656 C   0  0  0  0  0  0  0  0  0  0  0  0
  -25.2398  -13.7553   20.5785 C   0  0  0  0  0  0  0  0  0  0  0  0
  -28.5142  -17.4373   25.4431 C   0  0  0  0  0  0  0  0  0  0  0  0
  -30.6001  -16.8326   26.8101 C   0  0  0  0  0  0  0  0  0  0  0  0
  -22.8035  -13.4527   21.0490 C   0  0  0  0  0  0  0  0  0  0  0  0
  -20.6503  -21.9884   22.6534 C   0  0  0  0  0  0  0  0  0  0  0  0
  -18.8789  -19.8744   24.3610 C   0  0  0  0  0  0  0  0  0  0  0  0
  -18.7362  -16.9118   26.0489 C   0  0  0  0  0  0  0  0  0  0  0  0
  -31.1061  -12.8644   21.3810 C   0  0  0  0  0  0  0  0  0  0  0  0
  -18.2072  -26.1518   20.9938 C   0  0  0  0  0  0  0  0  0  0  0  0
  -21.1126  -19.8361   21.4246 C   0  0  0  0  0  0  0  0  0  0  0  0
  -21.3750  -19.5070   24.3516 C   0  0  0  0  0  0  0  0  0  0  0  0
  -18.1148  -25.2481   22.2206 C   0  0  0  0  0  0  0  0  0  0  0  0
  -29.4632  -13.6873   18.3314 C   0  0  0  0  0  0  0  0  0  0  0  0
  -19.4976  -25.0255   22.8249 C   0  0  0  0  0  0  0  0  0  0  0  0
  -27.9918  -13.3786   18.6137 C   0  0  0  0  0  0  0  0  0  0  0  0
  -28.2675  -19.6193   26.3468 C   0  0  0  0  0  0  0  0  0  0  0  0
  -30.3913  -12.6862   19.0159 C   0  0  0  0  0  0  0  0  0  0  0  0
  -29.6584  -19.1113   26.6555 C   0  0  0  0  0  0  0  0  0  0  0  0
  -28.7012  -12.2218   20.7485 C   0  0  0  0  0  0  0  0  0  0  0  0
  -20.4291  -24.3252   21.8282 C   0  0  1  0  0  0  0  0  0  0  0  0
  -27.8473  -18.7702   25.1539 C   0  0  2  0  0  0  0  0  0  0  0  0
  -20.2033  -20.5763   22.4007 C   0  0  1  0  0  0  0  0  0  0  0  0
  -27.7285  -13.2374   20.1250 C   0  0  2  0  0  0  0  0  0  0  0  0
  -17.1623  -15.4709   27.3697 C   0  0  0  0  0  0  0  0  0  0  0  0
  -19.1655  -21.7535   26.7478 C   0  0  0  0  0  0  0  0  0  0  0  0
  -18.4285  -19.8734   28.2278 C   0  0  0  0  0  0  0  0  0  0  0  0
  -16.8891  -20.7547   26.4738 C   0  0  0  0  0  0  0  0  0  0  0  0
  -18.9870  -14.6749   24.1273 C   0  0  0  0  0  0  0  0  0  0  0  0
  -31.6671  -13.0158   23.7938 C   0  0  0  0  0  0  0  0  0  0  0  0
  -26.3422  -18.6601   25.0008 C   0  0  0  0  0  0  0  0  0  1  0  0
  -18.8916  -19.3736   25.7851 C   0  0  1  0  0  0  0  0  0  0  0  0
  -17.7391  -15.7684   25.9943 C   0  0  2  0  0  0  0  0  0  0  0  0
  -18.3663  -20.4358   26.7916 C   0  0  0  0  0  0  0  0  0  0  0  0
  -25.9313  -11.5951   20.5195 N   0  0  0  0  0  0  0  0  0  0  0  0
  -26.2795  -12.8886   20.4105 N   0  0  0  0  0  0  0  0  0  0  0  0
  -29.6305  -17.7070   26.2880 N   0  0  0  0  0  0  0  0  0  0  0  0
  -20.1172  -19.9158   23.7047 N   0  0  0  0  0  0  0  0  0  0  0  0
  -30.0906  -12.6008   20.4470 N   0  0  0  0  0  0  0  0  0  0  0  0
  -25.4142  -15.0917   20.5012 N   0  0  0  0  0  0  0  0  0  0  0  0
  -22.4120  -13.7159   22.3687 N   0  0  0  0  0  0  0  0  0  0  0  0
  -20.1303  -22.9106   21.7653 N   0  0  0  0  0  0  0  0  0  0  0  0
  -18.1367  -18.1252   25.7855 N   0  0  0  0  0  0  0  0  0  0  0  0
  -30.7351  -12.7675   22.7165 N   0  0  0  0  0  0  0  0  0  0  0  0
  -18.3959  -14.5323   25.4827 N   0  3  0  0  0  0  0  0  0  0  0  0
  -28.1443  -16.3644   24.9890 O   0  0  0  0  0  0  0  0  0  0  0  0
  -31.5347  -17.1630   27.5374 O   0  0  0  0  0  0  0  0  0  0  0  0
  -21.9803  -13.6255   20.1183 O   0  0  0  0  0  0  0  0  0  0  0  0
  -21.4094  -22.2240   23.5861 O   0  0  0  0  0  0  0  0  0  0  0  0
  -17.8086  -20.2096   23.8474 O   0  0  0  0  0  0  0  0  0  0  0  0
  -19.9269  -16.7455   26.3037 O   0  0  0  0  0  0  0  0  0  0  0  0
  -32.2568  -13.1690   21.0492 O   0  0  0  0  0  0  0  0  0  0  0  0
  -21.6849   -6.9481   21.4786 O   0  0  0  0  0  0  0  0  0  0  0  0
  -26.0415  -18.1968   23.6851 O   0  0  0  0  0  0  0  0  0  1  0  0
  -20.5170   -3.9571   16.9960 F   0  0  0  0  0  0  0  0  0  0  0  0
  -19.0654   -6.4397   20.7556 F   0  0  0  0  0  0  0  0  0  0  0  0
  1  2  1  0  0  0  0
  1  7  2  0  0  0  0
  2  8  2  0  0  0  0
  3  6  2  0  0  0  0
  3 10  1  0  0  0  0
  4 11  2  0  0  0  0
  4 19  1  0  0  0  0
  5 12  1  0  0  0  0
  5 19  2  0  0  0  0
  6 20  1  0  0  0  0
  7 22  1  0  0  0  0
  8 24  1  0  0  0  0
  9 13  2  0  0  0  0
  9 23  1  0  0  0  0
 10 26  2  0  0  0  0
 11 27  1  0  0  0  0
 12 27  2  0  0  0  0
 13 28  1  0  0  0  0
 14 15  2  0  0  0  0
 14 29  1  0  0  0  0
 15 30  1  0  0  0  0
 16 20  2  0  0  0  0
 16 26  1  0  0  0  0
 17 25  1  0  0  0  0
 17 28  2  0  0  0  0
 18 30  2  0  0  0  0
 18 31  1  0  0  0  0
 19 32  1  0  0  0  0
 20 35  1  0  0  0  0
 21 32  1  0  0  0  0
 21 33  2  0  0  0  0
 21 36  1  0  0  0  0
 22 24  2  0  0  0  0
 22 41  1  0  0  0  0
 23 25  2  0  0  0  0
 23 42  1  0  0  0  0
 24 52  1  0  0  0  0
 25 43  1  0  0  0  0
 26 61  1  0  0  0  0
 27 84  1  0  0  0  0
 28 85  1  0  0  0  0
 29 31  2  0  0  0  0
 29 84  1  0  0  0  0
 30 86  1  0  0  0  0
 31 87  1  0  0  0  0
 32 66  2  0  0  0  0
 33 67  1  0  0  0  0
 33 71  1  0  0  0  0
 34 53  1  0  0  0  0
 34 68  1  0  0  0  0
 34 77  2  0  0  0  0
 35 68  1  0  0  0  0
 35 78  2  0  0  0  0
 36 72  1  0  0  0  0
 36 79  2  0  0  0  0
 37 54  1  0  0  0  0
 37 73  1  0  0  0  0
 37 80  2  0  0  0  0
 38 63  1  0  0  0  0
 38 69  1  0  0  0  0
 38 81  2  0  0  0  0
 39 64  1  0  0  0  0
 39 74  1  0  0  0  0
 39 82  2  0  0  0  0
 40 70  1  0  0  0  0
 40 75  1  0  0  0  0
 40 83  2  0  0  0  0
 41 44  1  0  0  0  0
 42 54  1  0  0  0  0
 43 69  1  0  0  0  0
 44 46  1  0  0  0  0
 45 47  1  0  0  0  0
 45 49  1  0  0  0  0
 46 52  1  0  0  0  0
 47 55  1  0  0  0  0
 48 50  1  0  0  0  0
 48 53  1  0  0  0  0
 49 70  1  0  0  0  0
 50 68  1  0  0  0  0
 51 55  1  0  0  0  0
 51 70  1  0  0  0  0
 52 73  1  0  0  0  0
 53 62  1  0  0  0  0
 54 69  1  0  0  0  0
 55 67  1  0  0  0  0
 56 64  1  0  0  0  0
 57 65  1  0  0  0  0
 58 65  1  0  0  0  0
 59 65  1  0  0  0  0
 60 76  1  0  0  0  0
 61 75  1  0  0  0  0
 62 85  1  0  0  0  0
 63 65  1  0  0  0  0
 63 74  1  0  0  0  0
 64 76  1  0  0  0  0
 66 67  1  0  0  0  0
M  CHG  1  76   1
M  ISO  4  40 100  62 101  75 100  85 101
M  END
> <Batch ID>
0108

> <Smiles>
CNC(C)C(=O)NC(C(=O)N1Cc2cc([101O:1][101CH2:1]C3CCN(C(=O)c4cccc(C[100NH:0][100C:0](=O)N5CCCC(n6nc(-c7ccc(Oc8ccc(F)cc8F)cc7)c(C(N)=O)c6N)C5)c4)C3=O)ccc2CC1C(=O)NC1CCCc2ccccc21)C(C)(C)C

> <Shape>
0.134

> <Color>
0.152

> <Negative vol penalty>
0.000

$$$$

  -OEChem-04052301203D

 83 91  0     1  0  0  0  0  0999 V2000
  -19.7907  -30.6960   21.6457 C   0  0  0  0  0  0  0  0  0  0  0  0
  -21.1362  -30.3441   21.6829 C   0  0  0  0  0  0  0  0  0  0  0  0
  -26.2069  -12.8177   21.4148 C   0  0  0  0  0  0  0  0  0  0  0  0
  -25.0038  -14.1542   19.8013 C   0  0  0  0  0  0  0  0  0  0  0  0
  -18.8129  -29.7361   21.9033 C   0  0  0  0  0  0  0  0  0  0  0  0
  -21.5046  -29.0322   21.9788 C   0  0  0  0  0  0  0  0  0  0  0  0
  -25.1131  -27.2831   18.8862 C   0  0  0  0  0  0  0  0  0  0  0  0
  -25.0626  -12.0506   21.6327 C   0  0  0  0  0  0  0  0  0  0  0  0
  -23.8595  -13.3869   20.0191 C   0  0  0  0  0  0  0  0  0  0  0  0
  -26.4206  -27.6987   19.1342 C   0  0  0  0  0  0  0  0  0  0  0  0
  -22.5607   -9.5122   22.3484 C   0  0  0  0  0  0  0  0  0  0  0  0
  -22.7090   -8.1262   22.3989 C   0  0  0  0  0  0  0  0  0  0  0  0
  -26.8703  -25.6029   20.2409 C   0  0  0  0  0  0  0  0  0  0  0  0
  -29.6732  -22.2337   16.6335 C   0  0  0  0  0  0  0  0  0  0  0  0
  -29.2403  -24.5809   16.2599 C   0  0  0  0  0  0  0  0  0  0  0  0
  -30.9806  -23.9025   17.7923 C   0  0  0  0  0  0  0  0  0  0  0  0
  -23.5747   -8.1366   20.1434 C   0  0  0  0  0  0  0  0  0  0  0  0
  -26.1776  -13.8696   20.4991 C   0  0  0  0  0  0  0  0  0  0  0  0
  -28.3720  -14.4289   19.3248 C   0  0  0  0  0  0  0  0  0  0  0  0
  -19.1693  -28.4096   22.1931 C   0  0  0  0  0  0  0  0  0  0  0  0
  -24.6704  -26.0266   19.3240 C   0  0  0  0  0  0  0  0  0  0  0  0
  -20.5307  -28.0540   22.2419 C   0  0  0  0  0  0  0  0  0  0  0  0
  -25.5575  -25.1728   19.9949 C   0  0  0  0  0  0  0  0  0  0  0  0
  -28.9488  -23.2422   15.9982 C   0  0  0  0  0  0  0  0  0  0  0  0
  -30.6890  -22.5638   17.5306 C   0  0  0  0  0  0  0  0  0  0  0  0
  -23.8889  -12.3351   20.9348 C   0  0  0  0  0  0  0  0  0  0  0  0
  -27.2986  -26.8597   19.8141 C   0  0  0  0  0  0  0  0  0  0  0  0
  -22.9193  -10.2104   21.1953 C   0  0  0  0  0  0  0  0  0  0  0  0
  -30.2562  -24.9111   17.1569 C   0  0  0  0  0  0  0  0  0  0  0  0
  -23.2161   -7.4384   21.2965 C   0  0  0  0  0  0  0  0  0  0  0  0
  -23.4263   -9.5226   20.0928 C   0  0  0  0  0  0  0  0  0  0  0  0
  -27.3592  -14.6629   20.2741 C   0  0  0  0  0  0  0  0  0  0  0  0
  -29.2624  -15.4579   19.5119 C   0  0  0  0  0  0  0  0  0  0  0  0
  -28.4969  -13.3756   18.3600 C   0  0  0  0  0  0  0  0  0  0  0  0
  -22.4251  -25.0144   21.3334 C   0  0  0  0  0  0  0  0  0  0  0  0
  -23.3002  -22.0938   20.2258 C   0  0  0  0  0  0  0  0  0  0  0  0
  -25.6992  -20.1420   18.7830 C   0  0  0  0  0  0  0  0  0  0  0  0
  -30.3407  -20.8710   20.3368 C   0  0  0  0  0  0  0  0  0  0  0  0
  -18.0784  -27.4179   22.5113 C   0  0  0  0  0  0  0  0  0  0  0  0
  -23.2648  -25.5824   19.0251 C   0  0  0  0  0  0  0  0  0  0  0  0
  -25.1375  -23.8059   20.4680 C   0  0  0  0  0  0  0  0  0  0  0  0
  -18.5396  -25.9641   22.4483 C   0  0  0  0  0  0  0  0  0  0  0  0
  -29.5871  -18.8998   23.2044 C   0  0  0  0  0  0  0  0  0  0  0  0
  -19.8650  -25.7922   23.1836 C   0  0  0  0  0  0  0  0  0  0  0  0
  -29.0184  -17.6058   22.6196 C   0  0  0  0  0  0  0  0  0  0  0  0
  -29.1697  -20.1200   22.3865 C   0  0  0  0  0  0  0  0  0  0  0  0
  -28.9068  -18.7403   20.3614 C   0  0  0  0  0  0  0  0  0  0  0  0
  -20.9693  -26.6355   22.5348 C   0  0  1  0  0  0  0  0  0  0  0  0
  -22.7701  -24.4901   19.9682 C   0  0  1  0  0  0  0  0  0  0  0  0
  -29.3467  -17.4764   21.1200 C   0  0  2  0  0  0  0  0  0  0  0  0
  -27.8624  -22.8884   15.0398 C   0  0  0  0  0  0  0  0  0  0  0  0
  -26.7248  -18.1043   17.7374 C   0  0  0  0  0  0  0  0  0  0  0  0
  -23.7036  -21.2516   23.1306 C   0  0  0  0  0  0  0  0  0  0  0  0
  -25.0132  -19.2839   22.3053 C   0  0  0  0  0  0  0  0  0  0  0  0
  -22.6088  -19.5277   21.6870 C   0  0  0  0  0  0  0  0  0  0  0  0
  -24.7988  -20.9346   16.0775 C   0  0  0  0  0  0  0  0  0  0  0  0
  -31.4634  -21.4859   18.2106 C   0  0  0  0  0  0  0  0  0  0  0  0
  -30.6721  -27.9554   19.0858 C   0  0  0  0  0  0  0  0  0  0  0  0
  -29.1652  -28.1572   19.1153 C   0  0  0  0  0  0  0  0  0  1  0  0
  -31.0481  -26.5315   18.7071 C   0  0  0  0  0  0  0  0  0  0  0  0
  -24.3215  -21.0587   20.6312 C   0  0  1  0  0  0  0  0  0  0  0  0
  -25.6387  -19.1627   17.6246 C   0  0  2  0  0  0  0  0  0  0  0  0
  -23.9194  -20.3069   21.9315 C   0  0  0  0  0  0  0  0  0  0  0  0
  -27.5843  -15.7547   21.0098 N   0  0  0  0  0  0  0  0  0  0  0  0
  -28.7488  -16.2159   20.5228 N   0  0  0  0  0  0  0  0  0  0  0  0
  -23.7512  -23.4196   20.1573 N   0  0  0  0  0  0  0  0  0  0  0  0
  -29.5105  -19.9341   20.9740 N   0  0  0  0  0  0  0  0  0  0  0  0
  -30.4266  -15.7791   18.9089 N   0  0  0  0  0  0  0  0  0  0  0  0
  -27.4923  -12.4000   18.3021 N   0  0  0  0  0  0  0  0  0  0  0  0
  -21.4520  -25.9955   21.3299 N   0  0  0  0  0  0  0  0  0  0  0  0
  -24.5061  -20.1917   19.4725 N   0  0  0  0  0  0  0  0  0  0  0  0
  -30.6193  -20.6165   18.9995 N   0  0  0  0  0  0  0  0  0  0  0  0
  -25.8142  -19.8801   16.3302 N   0  3  0  0  0  0  0  0  0  0  0  0
  -29.4787  -13.2927   17.5837 O   0  0  0  0  0  0  0  0  0  0  0  0
  -22.9983  -24.5614   22.3172 O   0  0  0  0  0  0  0  0  0  0  0  0
  -22.1466  -21.7382   19.9722 O   0  0  0  0  0  0  0  0  0  0  0  0
  -26.7054  -20.7945   19.0517 O   0  0  0  0  0  0  0  0  0  0  0  0
  -30.8038  -21.8582   20.9181 O   0  0  0  0  0  0  0  0  0  0  0  0
  -22.7721  -11.5865   21.1469 O   0  0  0  0  0  0  0  0  0  0  0  0
  -28.5752  -27.2631   20.0581 O   0  0  0  0  0  0  0  0  0  1  0  0
  -30.5423  -26.2266   17.4144 O   0  0  0  0  0  0  0  0  0  0  0  0
  -23.3600   -6.1076   21.3457 F   0  0  0  0  0  0  0  0  0  0  0  0
  -23.7737  -10.1881   18.9827 F   0  0  0  0  0  0  0  0  0  0  0  0
  1  2  1  0  0  0  0
  1  5  2  0  0  0  0
  2  6  2  0  0  0  0
  3  8  2  0  0  0  0
  3 18  1  0  0  0  0
  4  9  1  0  0  0  0
  4 18  2  0  0  0  0
  5 20  1  0  0  0  0
  6 22  1  0  0  0  0
  7 10  2  0  0  0  0
  7 21  1  0  0  0  0
  8 26  1  0  0  0  0
  9 26  2  0  0  0  0
 10 27  1  0  0  0  0
 11 12  2  0  0  0  0
 11 28  1  0  0  0  0
 12 30  1  0  0  0  0
 13 23  1  0  0  0  0
 13 27  2  0  0  0  0
 14 24  1  0  0  0  0
 14 25  2  0  0  0  0
 15 24  2  0  0  0  0
 15 29  1  0  0  0  0
 16 25  1  0  0  0  0
 16 29  2  0  0  0  0
 17 30  2  0  0  0  0
 17 31  1  0  0  0  0
 18 32  1  0  0  0  0
 19 32  1  0  0  0  0
 19 33  2  0  0  0  0
 19 34  1  0  0  0  0
 20 22  2  0  0  0  0
 20 39  1  0  0  0  0
 21 23  2  0  0  0  0
 21 40  1  0  0  0  0
 22 48  1  0  0  0  0
 23 41  1  0  0  0  0
 24 51  1  0  0  0  0
 25 57  1  0  0  0  0
 26 79  1  0  0  0  0
 27 80  1  0  0  0  0
 28 31  2  0  0  0  0
 28 79  1  0  0  0  0
 29 81  1  0  0  0  0
 30 82  1  0  0  0  0
 31 83  1  0  0  0  0
 32 64  2  0  0  0  0
 33 65  1  0  0  0  0
 33 68  1  0  0  0  0
 34 69  1  0  0  0  0
 34 74  2  0  0  0  0
 35 49  1  0  0  0  0
 35 70  1  0  0  0  0
 35 75  2  0  0  0  0
 36 61  1  0  0  0  0
 36 66  1  0  0  0  0
 36 76  2  0  0  0  0
 37 62  1  0  0  0  0
 37 71  1  0  0  0  0
 37 77  2  0  0  0  0
 38 67  1  0  0  0  0
 38 72  1  0  0  0  0
 38 78  2  0  0  0  0
 39 42  1  0  0  0  0
 40 49  1  0  0  0  0
 41 66  1  0  0  0  0
 42 44  1  0  0  0  0
 43 45  1  0  0  0  0
 43 46  1  0  0  0  0
 44 48  1  0  0  0  0
 45 50  1  0  0  0  0
 46 67  1  0  0  0  0
 47 50  1  0  0  0  0
 47 67  1  0  0  0  0
 48 70  1  0  0  0  0
 49 66  1  0  0  0  0
 50 65  1  0  0  0  0
 52 62  1  0  0  0  0
 53 63  1  0  0  0  0
 54 63  1  0  0  0  0
 55 63  1  0  0  0  0
 56 73  1  0  0  0  0
 57 72  1  0  0  0  0
 58 59  1  0  0  0  0
 58 60  1  0  0  0  0
 59 80  1  0  0  0  0
 60 81  1  0  0  0  0
 61 63  1  0  0  0  0
 61 71  1  0  0  0  0
 62 73  1  0  0  0  0
 64 65  1  0  0  0  0
M  CHG  1  73   1
M  ISO  4  38 100  59 101  72 100  80 101
M  END
> <Batch ID>
0108

> <Smiles>
CNC(C)C(=O)NC(C(=O)N1Cc2cc([101O:1][101CH2:1]CCOc3cc(C)cc(C[100NH:0][100C:0](=O)N4CCCC(n5nc(-c6ccc(Oc7ccc(F)cc7F)cc6)c(C(N)=O)c5N)C4)c3)ccc2CC1C(=O)NC1CCCc2ccccc21)C(C)(C)C

> <Shape>
0.254

> <Color>
0.060

> <Negative vol penalty>
0.000

$$$$

  -OEChem-04052301203D

 82 90  0     1  0  0  0  0  0999 V2000
  -28.5335  -27.1642   27.3441 C   0  0  0  0  0  0  0  0  0  0  0  0
  -28.3487  -26.9109   25.9887 C   0  0  0  0  0  0  0  0  0  0  0  0
  -26.9071  -12.4412   23.6865 C   0  0  0  0  0  0  0  0  0  0  0  0
  -25.6855  -12.9929   21.6764 C   0  0  0  0  0  0  0  0  0  0  0  0
  -27.4992  -27.7206   28.0955 C   0  0  0  0  0  0  0  0  0  0  0  0
  -27.1290  -27.2128   25.3841 C   0  0  0  0  0  0  0  0  0  0  0  0
  -27.7018  -29.6030   20.8618 C   0  0  0  0  0  0  0  0  0  0  0  0
  -26.0016  -11.4148   23.9551 C   0  0  0  0  0  0  0  0  0  0  0  0
  -24.7800  -11.9665   21.9450 C   0  0  0  0  0  0  0  0  0  0  0  0
  -28.0412  -28.8383   19.7466 C   0  0  0  0  0  0  0  0  0  0  0  0
  -24.6635   -8.6039   21.6285 C   0  0  0  0  0  0  0  0  0  0  0  0
  -24.2992   -7.7700   20.5714 C   0  0  0  0  0  0  0  0  0  0  0  0
  -25.7230  -28.7895   19.0821 C   0  0  0  0  0  0  0  0  0  0  0  0
  -21.9903   -8.4238   20.8513 C   0  0  0  0  0  0  0  0  0  0  0  0
  -26.7490  -13.2303   22.5472 C   0  0  0  0  0  0  0  0  0  0  0  0
  -28.8732  -14.2020   21.5218 C   0  0  0  0  0  0  0  0  0  0  0  0
  -26.2695  -28.0384   27.4977 C   0  0  0  0  0  0  0  0  0  0  0  0
  -26.3667  -29.9589   21.1020 C   0  0  0  0  0  0  0  0  0  0  0  0
  -26.0768  -27.7728   26.1285 C   0  0  0  0  0  0  0  0  0  0  0  0
  -25.3700  -29.5628   20.1984 C   0  0  0  0  0  0  0  0  0  0  0  0
  -24.9381  -11.1774   23.0843 C   0  0  0  0  0  0  0  0  0  0  0  0
  -27.0514  -28.4295   18.8578 C   0  0  0  0  0  0  0  0  0  0  0  0
  -23.6912   -9.3477   22.2971 C   0  0  0  0  0  0  0  0  0  0  0  0
  -22.9626   -7.6800   20.1828 C   0  0  0  0  0  0  0  0  0  0  0  0
  -22.3546   -9.2577   21.9085 C   0  0  0  0  0  0  0  0  0  0  0  0
  -27.6837  -14.2912   22.2695 C   0  0  0  0  0  0  0  0  0  0  0  0
  -29.3943  -15.4725   21.5529 C   0  0  0  0  0  0  0  0  0  0  0  0
  -30.5436  -23.6105   20.3253 C   0  0  0  0  0  0  0  0  0  0  0  0
  -30.7633  -24.2220   19.1510 C   0  0  0  0  0  0  0  0  0  0  0  0
  -28.6423  -23.3639   19.0915 C   0  0  0  0  0  0  0  0  0  0  0  0
  -29.4551  -13.0719   20.8585 C   0  0  0  0  0  0  0  0  0  0  0  0
  -24.2166  -29.4648   23.4212 C   0  0  0  0  0  0  0  0  0  0  0  0
  -28.6671  -20.8991   21.0040 C   0  0  0  0  0  0  0  0  0  0  0  0
  -22.4584  -31.5500   21.5201 C   0  0  0  0  0  0  0  0  0  0  0  0
  -20.2297  -31.9213   24.0764 C   0  0  0  0  0  0  0  0  0  0  0  0
  -25.1649  -28.5947   28.3609 C   0  0  0  0  0  0  0  0  0  0  0  0
  -26.0257  -30.8103   22.2950 C   0  0  0  0  0  0  0  0  0  0  0  0
  -23.9239  -29.9220   20.4094 C   0  0  0  0  0  0  0  0  0  0  0  0
  -24.0307  -29.2325   27.5628 C   0  0  0  0  0  0  0  0  0  0  0  0
  -28.1121  -19.5012   24.3153 C   0  0  0  0  0  0  0  0  0  0  0  0
  -23.6149  -28.3262   26.4084 C   0  0  0  0  0  0  0  0  0  0  0  0
  -28.0194  -18.0078   24.0050 C   0  0  0  0  0  0  0  0  0  0  0  0
  -27.5067  -20.3455   23.1969 C   0  0  0  0  0  0  0  0  0  0  0  0
  -28.0002  -18.5770   21.5375 C   0  0  0  0  0  0  0  0  0  0  0  0
  -24.7766  -28.1094   25.4312 C   0  0  1  0  0  0  0  0  0  0  0  0
  -24.5539  -30.7369   22.6963 C   0  0  1  0  0  0  0  0  0  0  0  0
  -28.6273  -17.6916   22.6273 C   0  0  2  0  0  0  0  0  0  0  0  0
  -31.9834  -24.9313   18.6964 C   0  0  0  0  0  0  0  0  0  0  0  0
  -18.2448  -33.2880   24.7764 C   0  0  0  0  0  0  0  0  0  0  0  0
  -29.2537  -23.4755   16.0472 C   0  0  0  0  0  0  0  0  0  0  0  0
  -24.3033  -33.8913   22.1685 C   0  0  0  0  0  0  0  0  0  0  0  0
  -22.5191  -34.7874   23.6790 C   0  0  0  0  0  0  0  0  0  0  0  0
  -22.0766  -34.5446   21.2360 C   0  0  0  0  0  0  0  0  0  0  0  0
  -18.4876  -29.5328   24.2147 C   0  0  0  0  0  0  0  0  0  0  0  0
  -28.6823  -22.3473   21.4236 C   0  0  0  0  0  0  0  0  0  0  0  0
  -28.3143  -25.6236   16.9639 C   0  0  0  0  0  0  0  0  0  0  0  0
  -28.5103  -26.8206   17.8886 C   0  0  0  0  0  0  0  0  0  1  0  0
  -22.2064  -32.4759   22.6838 C   0  0  1  0  0  0  0  0  0  0  0  0
  -18.7147  -32.0169   24.0863 C   0  0  2  0  0  0  0  0  0  0  0  0
  -29.4708  -24.6203   17.0322 C   0  0  1  0  0  0  0  0  0  0  0  0
  -22.7867  -33.8986   22.4456 C   0  0  0  0  0  0  0  0  0  0  0  0
  -27.4621  -15.5210   22.7411 N   0  0  0  0  0  0  0  0  0  0  0  0
  -28.5194  -16.2163   22.2888 N   0  0  0  0  0  0  0  0  0  0  0  0
  -29.2752  -23.0781   20.3325 N   0  0  0  0  0  0  0  0  0  0  0  0
  -29.6292  -24.0954   18.3681 N   0  0  0  0  0  0  0  0  0  0  0  0
  -23.6551  -30.8223   21.5382 N   0  0  0  0  0  0  0  0  0  0  0  0
  -28.0924  -19.9948   21.8975 N   0  0  0  0  0  0  0  0  0  0  0  0
  -30.5109  -16.0147   21.0222 N   0  0  0  0  0  0  0  0  0  0  0  0
  -28.7884  -11.8410   20.9267 N   0  0  0  0  0  0  0  0  0  0  0  0
  -24.9436  -29.2677   24.5797 N   0  0  0  0  0  0  0  0  0  0  0  0
  -20.7673  -32.4498   22.9219 N   0  0  0  0  0  0  0  0  0  0  0  0
  -18.1266  -30.8490   24.8014 N   0  3  0  0  0  0  0  0  0  0  0  0
  -27.5166  -23.0543   18.7307 O   0  0  0  0  0  0  0  0  0  0  0  0
  -30.5426  -13.1475   20.2380 O   0  0  0  0  0  0  0  0  0  0  0  0
  -23.3591  -28.7181   22.9641 O   0  0  0  0  0  0  0  0  0  0  0  0
  -29.1542  -20.5825   19.9156 O   0  0  0  0  0  0  0  0  0  0  0  0
  -21.6225  -31.4779   20.6150 O   0  0  0  0  0  0  0  0  0  0  0  0
  -20.8722  -31.4306   25.0021 O   0  0  0  0  0  0  0  0  0  0  0  0
  -24.0545  -10.1757   23.3460 O   0  0  0  0  0  0  0  0  0  0  0  0
  -27.3801  -27.6834   17.7682 O   0  0  0  0  0  0  0  0  0  1  0  0
  -22.6132   -6.8804   19.1666 F   0  0  0  0  0  0  0  0  0  0  0  0
  -21.4161   -9.9707   22.5462 F   0  0  0  0  0  0  0  0  0  0  0  0
  1  2  1  0  0  0  0
  1  5  2  0  0  0  0
  2  6  2  0  0  0  0
  3  8  2  0  0  0  0
  3 15  1  0  0  0  0
  4  9  1  0  0  0  0
  4 15  2  0  0  0  0
  5 17  1  0  0  0  0
  6 19  1  0  0  0  0
  7 10  2  0  0  0  0
  7 18  1  0  0  0  0
  8 21  1  0  0  0  0
  9 21  2  0  0  0  0
 10 22  1  0  0  0  0
 11 12  2  0  0  0  0
 11 23  1  0  0  0  0
 12 24  1  0  0  0  0
 13 20  1  0  0  0  0
 13 22  2  0  0  0  0
 14 24  2  0  0  0  0
 14 25  1  0  0  0  0
 15 26  1  0  0  0  0
 16 26  1  0  0  0  0
 16 27  2  0  0  0  0
 16 31  1  0  0  0  0
 17 19  2  0  0  0  0
 17 36  1  0  0  0  0
 18 20  2  0  0  0  0
 18 37  1  0  0  0  0
 19 45  1  0  0  0  0
 20 38  1  0  0  0  0
 21 79  1  0  0  0  0
 22 80  1  0  0  0  0
 23 25  2  0  0  0  0
 23 79  1  0  0  0  0
 24 81  1  0  0  0  0
 25 82  1  0  0  0  0
 26 62  2  0  0  0  0
 27 63  1  0  0  0  0
 27 68  1  0  0  0  0
 28 29  2  0  0  0  0
 28 64  1  0  0  0  0
 29 48  1  0  0  0  0
 29 65  1  0  0  0  0
 30 64  1  0  0  0  0
 30 65  1  0  0  0  0
 30 73  2  0  0  0  0
 31 69  1  0  0  0  0
 31 74  2  0  0  0  0
 32 46  1  0  0  0  0
 32 70  1  0  0  0  0
 32 75  2  0  0  0  0
 33 55  1  0  0  0  0
 33 67  1  0  0  0  0
 33 76  2  0  0  0  0
 34 58  1  0  0  0  0
 34 66  1  0  0  0  0
 34 77  2  0  0  0  0
 35 59  1  0  0  0  0
 35 71  1  0  0  0  0
 35 78  2  0  0  0  0
 36 39  1  0  0  0  0
 37 46  1  0  0  0  0
 38 66  1  0  0  0  0
 39 41  1  0  0  0  0
 40 42  1  0  0  0  0
 40 43  1  0  0  0  0
 41 45  1  0  0  0  0
 42 47  1  0  0  0  0
 43 67  1  0  0  0  0
 44 47  1  0  0  0  0
 44 67  1  0  0  0  0
 45 70  1  0  0  0  0
 46 66  1  0  0  0  0
 47 63  1  0  0  0  0
 49 59  1  0  0  0  0
 50 60  1  0  0  0  0
 51 61  1  0  0  0  0
 52 61  1  0  0  0  0
 53 61  1  0  0  0  0
 54 72  1  0  0  0  0
 55 64  1  0  0  0  0
 56 57  1  0  0  0  0
 56 60  1  0  0  0  0
 57 80  1  0  0  0  0
 58 61  1  0  0  0  0
 58 71  1  0  0  0  0
 59 72  1  0  0  0  0
 60 65  1  0  0  0  0
 62 63  1  0  0  0  0
M  CHG  1  72   1
M  ISO  4  33 100  55 100  57 101  80 101
M  END
> <Batch ID>
0108

> <Smiles>
CNC(C)C(=O)NC(C(=O)N1Cc2cc([101O:1][101CH2:1]CC(C)n3c(C)cn([100CH2:0][100C:0](=O)N4CCCC(n5nc(-c6ccc(Oc7ccc(F)cc7F)cc6)c(C(N)=O)c5N)C4)c3=O)ccc2CC1C(=O)NC1CCCc2ccccc21)C(C)(C)C

> <Shape>
0.235

> <Color>
0.071

> <Negative vol penalty>
0.000

$$$$

  -OEChem-04052301203D

 87 96  0     1  0  0  0  0  0999 V2000
  -23.2990  -20.8938   14.8444 C   0  0  0  0  0  0  0  0  0  0  0  0
  -24.0531  -19.8803   15.4271 C   0  0  0  0  0  0  0  0  0  0  0  0
  -26.8062  -29.6845   19.4991 C   0  0  0  0  0  0  0  0  0  0  0  0
  -26.3941  -28.8881   21.7425 C   0  0  0  0  0  0  0  0  0  0  0  0
  -23.0375  -22.0638   15.5563 C   0  0  0  0  0  0  0  0  0  0  0  0
  -24.5472  -20.0367   16.7217 C   0  0  0  0  0  0  0  0  0  0  0  0
  -23.8900  -15.8980   19.5650 C   0  0  0  0  0  0  0  0  0  0  0  0
  -25.7016  -30.5306   19.5965 C   0  0  0  0  0  0  0  0  0  0  0  0
  -25.2894  -29.7343   21.8399 C   0  0  0  0  0  0  0  0  0  0  0  0
  -24.7747  -14.8396   19.3630 C   0  0  0  0  0  0  0  0  0  0  0  0
  -22.1485  -31.4204   22.5481 C   0  0  0  0  0  0  0  0  0  0  0  0
  -20.9747  -30.8947   23.0878 C   0  0  0  0  0  0  0  0  0  0  0  0
  -29.2913  -16.8696   19.4040 C   0  0  0  0  0  0  0  0  0  0  0  0
  -31.5390  -16.0184   19.1592 C   0  0  0  0  0  0  0  0  0  0  0  0
  -26.0288  -15.5249   21.3064 C   0  0  0  0  0  0  0  0  0  0  0  0
  -31.1571  -18.1064   20.3130 C   0  0  0  0  0  0  0  0  0  0  0  0
  -20.9029  -29.2449   21.3242 C   0  0  0  0  0  0  0  0  0  0  0  0
  -27.1525  -28.8632   20.5721 C   0  0  0  0  0  0  0  0  0  0  0  0
  -30.1678  -15.8899   18.9377 C   0  0  0  0  0  0  0  0  0  0  0  0
  -29.6243  -28.2841   20.8216 C   0  0  0  0  0  0  0  0  0  0  0  0
  -23.5204  -22.2306   16.8638 C   0  0  0  0  0  0  0  0  0  0  0  0
  -24.0746  -16.7858   20.6347 C   0  0  0  0  0  0  0  0  0  0  0  0
  -24.2931  -21.2105   17.4512 C   0  0  0  0  0  0  0  0  0  0  0  0
  -25.1435  -16.5922   21.5213 C   0  0  0  0  0  0  0  0  0  0  0  0
  -29.7859  -17.9779   20.0916 C   0  0  0  0  0  0  0  0  0  0  0  0
  -24.9432  -30.5555   20.7669 C   0  0  0  0  0  0  0  0  0  0  0  0
  -25.8459  -14.6546   20.2320 C   0  0  0  0  0  0  0  0  0  0  0  0
  -22.6995  -30.8585   21.3964 C   0  0  0  0  0  0  0  0  0  0  0  0
  -20.3519  -29.8069   22.4758 C   0  0  0  0  0  0  0  0  0  0  0  0
  -32.0337  -17.1266   19.8468 C   0  0  0  0  0  0  0  0  0  0  0  0
  -22.0767  -29.7708   20.7845 C   0  0  0  0  0  0  0  0  0  0  0  0
  -28.2931  -27.9886   20.4719 C   0  0  0  0  0  0  0  0  0  0  0  0
  -30.3170  -27.1319   20.5408 C   0  0  0  0  0  0  0  0  0  0  0  0
  -29.6515  -14.7320   18.2188 C   0  0  0  0  0  0  0  0  0  0  0  0
  -30.1846  -29.4922   21.3529 C   0  0  0  0  0  0  0  0  0  0  0  0
  -24.6335  -19.9044   20.8908 C   0  0  0  0  0  0  0  0  0  0  0  0
  -24.2630  -19.3149   24.0590 C   0  0  0  0  0  0  0  0  0  0  0  0
  -24.3757  -17.0612   26.6192 C   0  0  0  0  0  0  0  0  0  0  0  0
  -28.6233  -21.4808   20.3128 C   0  0  0  0  0  0  0  0  0  0  0  0
  -23.2519  -23.5325   17.5763 C   0  0  0  0  0  0  0  0  0  0  0  0
  -23.0960  -17.9067   20.8546 C   0  0  0  0  0  0  0  0  0  0  0  0
  -25.3741  -17.5052   22.6968 C   0  0  0  0  0  0  0  0  0  0  0  0
  -23.4955  -23.4644   19.0817 C   0  0  0  0  0  0  0  0  0  0  0  0
  -30.2312  -23.3225   17.6444 C   0  0  0  0  0  0  0  0  0  0  0  0
  -29.1673  -12.1343   20.7480 C   0  0  0  0  0  0  0  0  0  0  0  0
  -24.8250  -22.7772   19.3768 C   0  0  0  0  0  0  0  0  0  0  0  0
  -30.0374  -24.7663   18.1116 C   0  0  0  0  0  0  0  0  0  0  0  0
  -28.6038  -11.4741   19.4908 C   0  0  0  0  0  0  0  0  0  0  0  0
  -29.9760  -13.2991   20.2008 C   0  0  0  0  0  0  0  0  0  0  0  0
  -29.0119  -22.4664   17.9739 C   0  0  0  0  0  0  0  0  0  0  0  0
  -28.4317  -23.9140   19.8822 C   0  0  0  0  0  0  0  0  0  0  0  0
  -24.8255  -21.3326   18.8625 C   0  0  1  0  0  0  0  0  0  0  0  0
  -23.6760  -19.0536   21.6764 C   0  0  1  0  0  0  0  0  0  0  0  0
  -29.6394  -24.8255   19.5983 C   0  0  2  0  0  0  0  0  0  0  0  0
  -28.3341  -12.6513   18.5501 C   0  0  1  0  0  0  0  0  0  0  0  0
  -24.0603  -16.8834   29.1024 C   0  0  0  0  0  0  0  0  0  0  0  0
  -26.9725  -20.6481   24.4963 C   0  0  0  0  0  0  0  0  0  0  0  0
  -27.0355  -19.6136   26.7754 C   0  0  0  0  0  0  0  0  0  0  0  0
  -25.2336  -21.2378   26.1941 C   0  0  0  0  0  0  0  0  0  0  0  0
  -22.1621  -15.1204   26.3158 C   0  0  0  0  0  0  0  0  0  0  0  0
  -28.8491  -19.0254   20.5908 C   0  0  0  0  0  0  0  0  0  0  0  0
  -26.9122  -13.1891   18.6921 C   0  0  0  0  0  0  0  0  0  1  0  0
  -25.1841  -18.9191   25.1877 C   0  0  1  0  0  0  0  0  0  0  0  0
  -23.3968  -16.7596   27.7396 C   0  0  2  0  0  0  0  0  0  0  0  0
  -26.1035  -20.0884   25.6402 C   0  0  0  0  0  0  0  0  0  0  0  0
  -28.1465  -26.7460   20.0045 N   0  0  0  0  0  0  0  0  0  0  0  0
  -29.3946  -26.2506   20.0584 N   0  0  0  0  0  0  0  0  0  0  0  0
  -29.3211  -13.6483   18.9530 N   0  0  0  0  0  0  0  0  0  0  0  0
  -24.3936  -18.5903   22.8658 N   0  0  0  0  0  0  0  0  0  0  0  0
  -28.6975  -22.5521   19.4071 N   0  0  0  0  0  0  0  0  0  0  0  0
  -31.6191  -26.7967   20.6618 N   0  0  0  0  0  0  0  0  0  0  0  0
  -29.3313  -30.5803   21.5816 N   0  0  0  0  0  0  0  0  0  0  0  0
  -24.0810  -20.4761   19.7606 N   0  0  0  0  0  0  0  0  0  0  0  0
  -24.3300  -18.3873   26.2441 N   0  0  0  0  0  0  0  0  0  0  0  0
  -28.8819  -20.2232   19.7813 N   0  0  0  0  0  0  0  0  0  0  0  0
  -22.8616  -15.3756   27.6013 N   0  3  0  0  0  0  0  0  0  0  0  0
  -31.4085  -29.6090   21.6017 O   0  0  0  0  0  0  0  0  0  0  0  0
  -25.7876  -20.0338   21.2819 O   0  0  0  0  0  0  0  0  0  0  0  0
  -23.4524  -20.2285   24.2321 O   0  0  0  0  0  0  0  0  0  0  0  0
  -25.1104  -16.2067   26.1286 O   0  0  0  0  0  0  0  0  0  0  0  0
  -28.3519  -21.6341   21.5086 O   0  0  0  0  0  0  0  0  0  0  0  0
  -23.8654  -31.3812   20.8623 O   0  0  0  0  0  0  0  0  0  0  0  0
  -26.7114  -13.6227   20.0367 O   0  0  0  0  0  0  0  0  0  1  0  0
  -19.2255  -29.3011   22.9950 F   0  0  0  0  0  0  0  0  0  0  0  0
  -33.3504  -17.2500   20.0597 F   0  0  0  0  0  0  0  0  0  0  0  0
  -22.6020  -29.2259   19.6785 F   0  0  0  0  0  0  0  0  0  0  0  0
  -29.4509  -14.7541   16.5575 S   0  0  0  0  0  0  0  0  0  0  0  0
  1  2  1  0  0  0  0
  1  5  2  0  0  0  0
  2  6  2  0  0  0  0
  3  8  2  0  0  0  0
  3 18  1  0  0  0  0
  4  9  1  0  0  0  0
  4 18  2  0  0  0  0
  5 21  1  0  0  0  0
  6 23  1  0  0  0  0
  7 10  2  0  0  0  0
  7 22  1  0  0  0  0
  8 26  1  0  0  0  0
  9 26  2  0  0  0  0
 10 27  1  0  0  0  0
 11 12  2  0  0  0  0
 11 28  1  0  0  0  0
 12 29  1  0  0  0  0
 13 19  2  0  0  0  0
 13 25  1  0  0  0  0
 14 19  1  0  0  0  0
 14 30  2  0  0  0  0
 15 24  1  0  0  0  0
 15 27  2  0  0  0  0
 16 25  2  0  0  0  0
 16 30  1  0  0  0  0
 17 29  2  0  0  0  0
 17 31  1  0  0  0  0
 18 32  1  0  0  0  0
 19 34  1  0  0  0  0
 20 32  1  0  0  0  0
 20 33  2  0  0  0  0
 20 35  1  0  0  0  0
 21 23  2  0  0  0  0
 21 40  1  0  0  0  0
 22 24  2  0  0  0  0
 22 41  1  0  0  0  0
 23 52  1  0  0  0  0
 24 42  1  0  0  0  0
 25 61  1  0  0  0  0
 26 82  1  0  0  0  0
 27 83  1  0  0  0  0
 28 31  2  0  0  0  0
 28 82  1  0  0  0  0
 29 84  1  0  0  0  0
 30 85  1  0  0  0  0
 31 86  1  0  0  0  0
 32 66  2  0  0  0  0
 33 67  1  0  0  0  0
 33 71  1  0  0  0  0
 34 68  1  0  0  0  0
 34 87  2  0  0  0  0
 35 72  1  0  0  0  0
 35 77  2  0  0  0  0
 36 53  1  0  0  0  0
 36 73  1  0  0  0  0
 36 78  2  0  0  0  0
 37 63  1  0  0  0  0
 37 69  1  0  0  0  0
 37 79  2  0  0  0  0
 38 64  1  0  0  0  0
 38 74  1  0  0  0  0
 38 80  2  0  0  0  0
 39 70  1  0  0  0  0
 39 75  1  0  0  0  0
 39 81  2  0  0  0  0
 40 43  1  0  0  0  0
 41 53  1  0  0  0  0
 42 69  1  0  0  0  0
 43 46  1  0  0  0  0
 44 47  1  0  0  0  0
 44 50  1  0  0  0  0
 45 48  1  0  0  0  0
 45 49  1  0  0  0  0
 46 52  1  0  0  0  0
 47 54  1  0  0  0  0
 48 55  1  0  0  0  0
 49 68  1  0  0  0  0
 50 70  1  0  0  0  0
 51 54  1  0  0  0  0
 51 70  1  0  0  0  0
 52 73  1  0  0  0  0
 53 69  1  0  0  0  0
 54 67  1  0  0  0  0
 55 62  1  0  0  0  0
 55 68  1  0  0  0  0
 56 64  1  0  0  0  0
 57 65  1  0  0  0  0
 58 65  1  0  0  0  0
 59 65  1  0  0  0  0
 60 76  1  0  0  0  0
 61 75  1  0  0  0  0
 62 83  1  0  0  0  0
 63 65  1  0  0  0  0
 63 74  1  0  0  0  0
 64 76  1  0  0  0  0
 66 67  1  0  0  0  0
M  CHG  1  76   1
M  ISO  4  39 100  62 101  75 100  83 101
M  END
> <Batch ID>
0108

> <Smiles>
CNC(C)C(=O)NC(C(=O)N1Cc2cc([101O:1][101CH2:1]C3CCCN3C(=S)c3cc(F)cc(C[100NH:0][100C:0](=O)N4CCCC(n5nc(-c6ccc(Oc7ccc(F)cc7F)cc6)c(C(N)=O)c5N)C4)c3)ccc2CC1C(=O)NC1CCCc2ccccc21)C(C)(C)C

> <Shape>
0.239

> <Color>
0.041

> <Negative vol penalty>
0.000

$$$$

  -OEChem-04052301203D

 87 96  0     1  0  0  0  0  0999 V2000
  -34.8434  -27.8611   26.5262 C   0  0  0  0  0  0  0  0  0  0  0  0
  -34.8327  -26.9949   25.4377 C   0  0  0  0  0  0  0  0  0  0  0  0
  -23.0775   -9.8629   19.9450 C   0  0  0  0  0  0  0  0  0  0  0  0
  -23.8315   -9.8810   22.2403 C   0  0  0  0  0  0  0  0  0  0  0  0
  -33.6495  -28.1861   27.1688 C   0  0  0  0  0  0  0  0  0  0  0  0
  -33.6281  -26.4523   24.9916 C   0  0  0  0  0  0  0  0  0  0  0  0
  -32.0824  -25.1806   19.2038 C   0  0  0  0  0  0  0  0  0  0  0  0
  -22.3342   -8.7101   20.1983 C   0  0  0  0  0  0  0  0  0  0  0  0
  -23.0881   -8.7283   22.4936 C   0  0  0  0  0  0  0  0  0  0  0  0
  -32.0929  -23.9960   18.4687 C   0  0  0  0  0  0  0  0  0  0  0  0
  -19.3830   -7.9171   21.6456 C   0  0  0  0  0  0  0  0  0  0  0  0
  -18.0775   -7.8673   21.1572 C   0  0  0  0  0  0  0  0  0  0  0  0
  -29.7565  -23.6696   18.9727 C   0  0  0  0  0  0  0  0  0  0  0  0
  -30.5746  -19.8789   21.4731 C   0  0  0  0  0  0  0  0  0  0  0  0
  -29.5068  -17.8989   22.3541 C   0  0  0  0  0  0  0  0  0  0  0  0
  -31.1428  -17.7043   20.5869 C   0  0  0  0  0  0  0  0  0  0  0  0
  -18.6425   -5.9188   19.8452 C   0  0  0  0  0  0  0  0  0  0  0  0
  -23.8262  -10.4483   20.9660 C   0  0  0  0  0  0  0  0  0  0  0  0
  -24.1658  -12.9733   20.8354 C   0  0  0  0  0  0  0  0  0  0  0  0
  -32.4285  -27.6548   26.7244 C   0  0  0  0  0  0  0  0  0  0  0  0
  -30.9096  -25.6138   19.8389 C   0  0  0  0  0  0  0  0  0  0  0  0
  -32.4169  -26.7694   25.6296 C   0  0  0  0  0  0  0  0  0  0  0  0
  -29.7331  -24.8614   19.7131 C   0  0  0  0  0  0  0  0  0  0  0  0
  -29.6734  -19.2838   22.3558 C   0  0  0  0  0  0  0  0  0  0  0  0
  -31.3093  -19.0891   20.5886 C   0  0  0  0  0  0  0  0  0  0  0  0
  -30.2415  -17.1091   21.4697 C   0  0  0  0  0  0  0  0  0  0  0  0
  -22.3395   -8.1428   21.4725 C   0  0  0  0  0  0  0  0  0  0  0  0
  -30.9306  -23.2388   18.3555 C   0  0  0  0  0  0  0  0  0  0  0  0
  -20.3184   -6.9678   21.2338 C   0  0  0  0  0  0  0  0  0  0  0  0
  -17.7072   -6.8682   20.2571 C   0  0  0  0  0  0  0  0  0  0  0  0
  -19.9482   -5.9687   20.3336 C   0  0  0  0  0  0  0  0  0  0  0  0
  -24.5948  -11.6388   20.7048 C   0  0  0  0  0  0  0  0  0  0  0  0
  -25.2581  -13.7222   20.4715 C   0  0  0  0  0  0  0  0  0  0  0  0
  -32.7777  -18.7548   17.3748 C   0  0  0  0  0  0  0  0  0  0  0  0
  -22.8937  -13.4897   21.2487 C   0  0  0  0  0  0  0  0  0  0  0  0
  -30.0580  -26.1478   22.8544 C   0  0  0  0  0  0  0  0  0  0  0  0
  -27.3414  -27.2671   21.4797 C   0  0  0  0  0  0  0  0  0  0  0  0
  -25.2350  -27.2533   18.7946 C   0  0  0  0  0  0  0  0  0  0  0  0
  -30.7228  -14.7742   20.6555 C   0  0  0  0  0  0  0  0  0  0  0  0
  -31.1694  -27.9980   27.4803 C   0  0  0  0  0  0  0  0  0  0  0  0
  -30.9080  -26.9077   20.6059 C   0  0  0  0  0  0  0  0  0  0  0  0
  -28.4428  -25.2932   20.3589 C   0  0  0  0  0  0  0  0  0  0  0  0
  -31.9943  -18.5323   16.1045 C   0  0  0  0  0  0  0  0  0  0  0  0
  -29.8904  -27.6750   26.7121 C   0  0  0  0  0  0  0  0  0  0  0  0
  -30.8628  -19.5484   16.1995 C   0  0  0  0  0  0  0  0  0  0  0  0
  -29.6169  -12.3485   18.2953 C   0  0  0  0  0  0  0  0  0  0  0  0
  -29.9715  -26.2785   26.1037 C   0  0  0  0  0  0  0  0  0  0  0  0
  -28.1765  -12.0574   18.7225 C   0  0  0  0  0  0  0  0  0  0  0  0
  -30.5287  -12.5837   19.4982 C   0  0  0  0  0  0  0  0  0  0  0  0
  -28.6175  -13.3125   20.8713 C   0  0  0  0  0  0  0  0  0  0  0  0
  -31.1274  -26.1799   25.1008 C   0  0  1  0  0  0  0  0  0  0  0  0
  -29.7882  -26.9887   21.6387 C   0  0  1  0  0  0  0  0  0  0  0  0
  -27.6479  -13.1329   19.6918 C   0  0  2  0  0  0  0  0  0  0  0  0
  -30.6306  -19.7014   17.6985 C   0  0  2  0  0  0  0  0  0  0  0  0
  -27.5570  -20.5815   22.7067 C   0  0  0  0  0  0  0  0  0  0  0  0
  -23.0770  -28.2406   17.9787 C   0  0  0  0  0  0  0  0  0  0  0  0
  -25.7892  -25.3689   23.2955 C   0  0  0  0  0  0  0  0  0  0  0  0
  -23.7982  -25.6893   21.8117 C   0  0  0  0  0  0  0  0  0  0  0  0
  -24.7648  -27.6356   23.0365 C   0  0  0  0  0  0  0  0  0  0  0  0
  -26.5667  -28.5585   16.4964 C   0  0  0  0  0  0  0  0  0  0  0  0
  -28.8878  -20.1283   23.3013 C   0  0  0  0  0  0  0  0  0  0  0  0
  -32.2795  -19.7299   19.6387 C   0  0  0  0  0  0  0  0  0  0  0  0
  -30.0362  -21.0561   18.0524 C   0  0  0  0  0  0  0  0  0  1  0  0
  -26.0211  -26.6596   21.0715 C   0  0  1  0  0  0  0  0  0  0  0  0
  -24.5905  -28.3846   18.0141 C   0  0  2  0  0  0  0  0  0  0  0  0
  -25.1180  -26.3289   22.2931 C   0  0  0  0  0  0  0  0  0  0  0  0
  -25.8608  -11.5424   20.2902 N   0  0  0  0  0  0  0  0  0  0  0  0
  -26.2367  -12.8258   20.1570 N   0  0  0  0  0  0  0  0  0  0  0  0
  -31.9487  -19.4506   18.2550 N   0  0  0  0  0  0  0  0  0  0  0  0
  -28.4936  -26.5624   21.1034 N   0  0  0  0  0  0  0  0  0  0  0  0
  -29.9664  -13.6179   20.3695 N   0  0  0  0  0  0  0  0  0  0  0  0
  -25.4674  -15.0535   20.3930 N   0  0  0  0  0  0  0  0  0  0  0  0
  -21.8819  -12.5810   21.5875 N   0  0  0  0  0  0  0  0  0  0  0  0
  -30.0724  -15.7023   21.4680 N   0  0  0  0  0  0  0  0  0  0  0  0
  -30.7626  -26.8027   23.8464 N   0  0  0  0  0  0  0  0  0  0  0  0
  -25.4216  -27.5881   20.1191 N   0  0  0  0  0  0  0  0  0  0  0  0
  -25.0942  -28.3989   16.6115 N   0  3  0  0  0  0  0  0  0  0  0  0
  -33.9107  -18.3403   17.5709 O   0  0  0  0  0  0  0  0  0  0  0  0
  -22.6561  -14.7203   21.2999 O   0  0  0  0  0  0  0  0  0  0  0  0
  -29.6552  -24.9910   22.8904 O   0  0  0  0  0  0  0  0  0  0  0  0
  -27.3504  -28.3316   22.1030 O   0  0  0  0  0  0  0  0  0  0  0  0
  -25.5388  -26.1786   18.2816 O   0  0  0  0  0  0  0  0  0  0  0  0
  -31.8529  -14.9420   20.1900 O   0  0  0  0  0  0  0  0  0  0  0  0
  -21.6140   -7.0181   21.7201 O   0  0  0  0  0  0  0  0  0  0  0  0
  -30.9383  -22.0817   17.6392 O   0  0  0  0  0  0  0  0  0  1  0  0
  -16.4530   -6.8196   19.7894 F   0  0  0  0  0  0  0  0  0  0  0  0
  -20.8420   -5.0532   19.9352 F   0  0  0  0  0  0  0  0  0  0  0  0
  1  2  1  0  0  0  0
  1  5  2  0  0  0  0
  2  6  2  0  0  0  0
  3  8  2  0  0  0  0
  3 18  1  0  0  0  0
  4  9  1  0  0  0  0
  4 18  2  0  0  0  0
  5 20  1  0  0  0  0
  6 22  1  0  0  0  0
  7 10  2  0  0  0  0
  7 21  1  0  0  0  0
  8 27  1  0  0  0  0
  9 27  2  0  0  0  0
 10 28  1  0  0  0  0
 11 12  2  0  0  0  0
 11 29  1  0  0  0  0
 12 30  1  0  0  0  0
 13 23  1  0  0  0  0
 13 28  2  0  0  0  0
 14 24  1  0  0  0  0
 14 25  2  0  0  0  0
 15 24  2  0  0  0  0
 15 26  1  0  0  0  0
 16 25  1  0  0  0  0
 16 26  2  0  0  0  0
 17 30  2  0  0  0  0
 17 31  1  0  0  0  0
 18 32  1  0  0  0  0
 19 32  1  0  0  0  0
 19 33  2  0  0  0  0
 19 35  1  0  0  0  0
 20 22  2  0  0  0  0
 20 40  1  0  0  0  0
 21 23  2  0  0  0  0
 21 41  1  0  0  0  0
 22 51  1  0  0  0  0
 23 42  1  0  0  0  0
 24 61  1  0  0  0  0
 25 62  1  0  0  0  0
 26 74  1  0  0  0  0
 27 84  1  0  0  0  0
 28 85  1  0  0  0  0
 29 31  2  0  0  0  0
 29 84  1  0  0  0  0
 30 86  1  0  0  0  0
 31 87  1  0  0  0  0
 32 67  2  0  0  0  0
 33 68  1  0  0  0  0
 33 72  1  0  0  0  0
 34 43  1  0  0  0  0
 34 69  1  0  0  0  0
 34 78  2  0  0  0  0
 35 73  1  0  0  0  0
 35 79  2  0  0  0  0
 36 52  1  0  0  0  0
 36 75  1  0  0  0  0
 36 80  2  0  0  0  0
 37 64  1  0  0  0  0
 37 70  1  0  0  0  0
 37 81  2  0  0  0  0
 38 65  1  0  0  0  0
 38 76  1  0  0  0  0
 38 82  2  0  0  0  0
 39 71  1  0  0  0  0
 39 74  1  0  0  0  0
 39 83  2  0  0  0  0
 40 44  1  0  0  0  0
 41 52  1  0  0  0  0
 42 70  1  0  0  0  0
 43 45  1  0  0  0  0
 44 47  1  0  0  0  0
 45 54  1  0  0  0  0
 46 48  1  0  0  0  0
 46 49  1  0  0  0  0
 47 51  1  0  0  0  0
 48 53  1  0  0  0  0
 49 71  1  0  0  0  0
 50 53  1  0  0  0  0
 50 71  1  0  0  0  0
 51 75  1  0  0  0  0
 52 70  1  0  0  0  0
 53 68  1  0  0  0  0
 54 63  1  0  0  0  0
 54 69  1  0  0  0  0
 55 61  1  0  0  0  0
 56 65  1  0  0  0  0
 57 66  1  0  0  0  0
 58 66  1  0  0  0  0
 59 66  1  0  0  0  0
 60 77  1  0  0  0  0
 62 69  1  0  0  0  0
 63 85  1  0  0  0  0
 64 66  1  0  0  0  0
 64 76  1  0  0  0  0
 65 77  1  0  0  0  0
 67 68  1  0  0  0  0
M  CHG  1  77   1
M  ISO  4  39 100  63 101  74 100  85 101
M  END
> <Batch ID>
0108

> <Smiles>
CCc1cc(CN2C(=O)CCC2[101CH2:1][101O:1]c2ccc3c(c2)CN(C(=O)C(NC(=O)C(C)NC)C(C)(C)C)C(C(=O)NC2CCCc4ccccc42)C3)cc([100NH:0][100C:0](=O)N2CCCC(n3nc(-c4ccc(Oc5ccc(F)cc5F)cc4)c(C(N)=O)c3N)C2)c1

> <Shape>
0.244

> <Color>
0.187

> <Negative vol penalty>
0.000

$$$$

  -OEChem-04052301203D

 85 93  0     1  0  0  0  0  0999 V2000
  -29.3134  -27.5899   26.8548 C   0  0  0  0  0  0  0  0  0  0  0  0
  -28.7482  -27.0919   25.6851 C   0  0  0  0  0  0  0  0  0  0  0  0
  -26.5616  -11.4381   18.3092 C   0  0  0  0  0  0  0  0  0  0  0  0
  -26.0023  -11.9255   20.6085 C   0  0  0  0  0  0  0  0  0  0  0  0
  -28.5921  -28.4760   27.6538 C   0  0  0  0  0  0  0  0  0  0  0  0
  -27.4609  -27.4790   25.3144 C   0  0  0  0  0  0  0  0  0  0  0  0
  -27.1245  -28.6508   20.3993 C   0  0  0  0  0  0  0  0  0  0  0  0
  -26.2281  -18.3846   15.8796 C   0  0  0  0  0  0  0  0  0  0  0  0
  -25.3424  -10.7791   18.1522 C   0  0  0  0  0  0  0  0  0  0  0  0
  -24.7830  -11.2665   20.4515 C   0  0  0  0  0  0  0  0  0  0  0  0
  -27.0585  -27.5915   19.4952 C   0  0  0  0  0  0  0  0  0  0  0  0
  -25.3621  -19.3327   16.4243 C   0  0  0  0  0  0  0  0  0  0  0  0
  -23.6656   -8.0762   20.3861 C   0  0  0  0  0  0  0  0  0  0  0  0
  -23.2706   -7.1956   21.3931 C   0  0  0  0  0  0  0  0  0  0  0  0
  -27.0574  -19.9601   18.0273 C   0  0  0  0  0  0  0  0  0  0  0  0
  -24.6675  -27.8748   19.3468 C   0  0  0  0  0  0  0  0  0  0  0  0
  -21.2839   -8.5177   21.7699 C   0  0  0  0  0  0  0  0  0  0  0  0
  -26.8917  -12.0112   19.5373 C   0  0  0  0  0  0  0  0  0  0  0  0
  -27.9233  -19.0119   17.4826 C   0  0  0  0  0  0  0  0  0  0  0  0
  -29.4391  -12.1460   19.5402 C   0  0  0  0  0  0  0  0  0  0  0  0
  -27.2990  -28.8817   27.2877 C   0  0  0  0  0  0  0  0  0  0  0  0
  -25.9591  -29.3241   20.7929 C   0  0  0  0  0  0  0  0  0  0  0  0
  -26.7211  -28.3703   26.1100 C   0  0  0  0  0  0  0  0  0  0  0  0
  -24.7217  -28.9440   20.2540 C   0  0  0  0  0  0  0  0  0  0  0  0
  -27.5087  -18.2241   16.4087 C   0  0  0  0  0  0  0  0  0  0  0  0
  -24.4530  -10.6933   19.2234 C   0  0  0  0  0  0  0  0  0  0  0  0
  -25.7768  -20.1205   17.4981 C   0  0  0  0  0  0  0  0  0  0  0  0
  -25.8296  -27.2015   18.9711 C   0  0  0  0  0  0  0  0  0  0  0  0
  -22.8698   -9.1776   20.0711 C   0  0  0  0  0  0  0  0  0  0  0  0
  -22.0797   -7.4163   22.0850 C   0  0  0  0  0  0  0  0  0  0  0  0
  -21.6790   -9.3984   20.7629 C   0  0  0  0  0  0  0  0  0  0  0  0
  -28.1513  -12.6916   19.7002 C   0  0  0  0  0  0  0  0  0  0  0  0
  -30.2901  -13.1912   19.8042 C   0  0  0  0  0  0  0  0  0  0  0  0
  -29.2551  -18.8652   18.0541 C   0  0  0  0  0  0  0  0  0  0  0  0
  -29.8311  -10.8134   19.1847 C   0  0  0  0  0  0  0  0  0  0  0  0
  -29.5129  -19.1436   19.4857 C   0  0  0  0  0  0  0  0  0  0  0  0
  -24.4446  -29.7607   23.5532 C   0  0  0  0  0  0  0  0  0  0  0  0
  -24.8431  -23.9677   17.6557 C   0  0  0  0  0  0  0  0  0  0  0  0
  -22.5759  -31.7234   21.7704 C   0  0  0  0  0  0  0  0  0  0  0  0
  -21.3730  -32.5689   18.6906 C   0  0  0  0  0  0  0  0  0  0  0  0
  -26.5399  -29.8046   28.2078 C   0  0  0  0  0  0  0  0  0  0  0  0
  -26.0504  -30.4821   21.7485 C   0  0  0  0  0  0  0  0  0  0  0  0
  -23.4438  -29.6475   20.6288 C   0  0  0  0  0  0  0  0  0  0  0  0
  -25.3261  -30.4566   27.5508 C   0  0  0  0  0  0  0  0  0  0  0  0
  -30.6001  -17.2378   22.3216 C   0  0  0  0  0  0  0  0  0  0  0  0
  -24.5101  -29.4182   26.7875 C   0  0  0  0  0  0  0  0  0  0  0  0
  -30.1770  -15.8115   21.9717 C   0  0  0  0  0  0  0  0  0  0  0  0
  -29.6064  -18.2627   21.7843 C   0  0  0  0  0  0  0  0  0  0  0  0
  -28.9392  -16.7249   19.9571 C   0  0  0  0  0  0  0  0  0  0  0  0
  -25.3369  -28.7859   25.6614 C   0  0  1  0  0  0  0  0  0  0  0  0
  -24.7379  -30.7635   22.4734 C   0  0  1  0  0  0  0  0  0  0  0  0
  -29.9331  -15.6632   20.4594 C   0  0  2  0  0  0  0  0  0  0  0  0
  -28.4156  -17.2012   15.8062 C   0  0  0  0  0  0  0  0  0  0  0  0
  -19.8341  -34.1935   17.5548 C   0  0  0  0  0  0  0  0  0  0  0  0
  -20.1678  -30.1532   22.7928 C   0  0  0  0  0  0  0  0  0  0  0  0
  -18.8130  -31.1628   20.9452 C   0  0  0  0  0  0  0  0  0  0  0  0
  -19.8307  -32.6291   22.6879 C   0  0  0  0  0  0  0  0  0  0  0  0
  -23.5707  -33.6831   17.0512 C   0  0  0  0  0  0  0  0  0  0  0  0
  -23.6322  -23.0481   17.5989 C   0  0  0  0  0  0  0  0  0  0  0  0
  -24.5625  -25.3949   18.0841 C   0  0  0  0  0  0  0  0  0  1  0  0
  -23.9773  -21.6358   17.1492 C   0  0  0  0  0  0  0  0  0  0  0  0
  -21.3192  -31.5504   20.9521 C   0  0  1  0  0  0  0  0  0  0  0  0
  -21.2648  -33.9083   17.9844 C   0  0  2  0  0  0  0  0  0  0  0  0
  -20.0563  -31.3592   21.8387 C   0  0  0  0  0  0  0  0  0  0  0  0
  -28.1770  -13.9831   20.0397 N   0  0  0  0  0  0  0  0  0  0  0  0
  -30.2922  -18.4844   17.3605 N   0  0  0  0  0  0  0  0  0  0  0  0
  -29.4914  -14.2578   20.0953 N   0  0  0  0  0  0  0  0  0  0  0  0
  -29.3704  -18.0710   20.3548 N   0  0  0  0  0  0  0  0  0  0  0  0
  -23.5842  -30.7696   21.5716 N   0  0  0  0  0  0  0  0  0  0  0  0
  -31.6362  -13.2929   19.8135 N   0  0  0  0  0  0  0  0  0  0  0  0
  -30.0290   -9.8791   20.2104 N   0  0  0  0  0  0  0  0  0  0  0  0
  -25.4195  -29.6840   24.5295 N   0  0  0  0  0  0  0  0  0  0  0  0
  -21.2527  -32.7012   20.0578 N   0  0  0  0  0  0  0  0  0  0  0  0
  -22.1319  -33.9265   16.7725 N   0  3  0  0  0  0  0  0  0  0  0  0
  -30.0168  -10.4662   17.9937 O   0  0  0  0  0  0  0  0  0  0  0  0
  -29.8255  -20.2971   19.7506 O   0  0  0  0  0  0  0  0  0  0  0  0
  -23.4097  -29.1062   23.5050 O   0  0  0  0  0  0  0  0  0  0  0  0
  -25.9789  -23.5871   17.3768 O   0  0  0  0  0  0  0  0  0  0  0  0
  -22.6628  -32.6739   22.5518 O   0  0  0  0  0  0  0  0  0  0  0  0
  -21.5432  -31.5107   18.0893 O   0  0  0  0  0  0  0  0  0  0  0  0
  -23.2630  -10.0506   19.0705 O   0  0  0  0  0  0  0  0  0  0  0  0
  -25.7623  -26.1674   18.0890 O   0  0  0  0  0  0  0  0  0  1  0  0
  -24.9255  -21.0511   18.0335 O   0  0  0  0  0  0  0  0  0  0  0  0
  -21.6997   -6.5697   23.0509 F   0  0  0  0  0  0  0  0  0  0  0  0
  -20.9097  -10.4541   20.4639 F   0  0  0  0  0  0  0  0  0  0  0  0
  1  2  1  0  0  0  0
  1  5  2  0  0  0  0
  2  6  2  0  0  0  0
  3  9  2  0  0  0  0
  3 18  1  0  0  0  0
  4 10  1  0  0  0  0
  4 18  2  0  0  0  0
  5 21  1  0  0  0  0
  6 23  1  0  0  0  0
  7 11  2  0  0  0  0
  7 22  1  0  0  0  0
  8 12  2  0  0  0  0
  8 25  1  0  0  0  0
  9 26  1  0  0  0  0
 10 26  2  0  0  0  0
 11 28  1  0  0  0  0
 12 27  1  0  0  0  0
 13 14  2  0  0  0  0
 13 29  1  0  0  0  0
 14 30  1  0  0  0  0
 15 19  1  0  0  0  0
 15 27  2  0  0  0  0
 16 24  1  0  0  0  0
 16 28  2  0  0  0  0
 17 30  2  0  0  0  0
 17 31  1  0  0  0  0
 18 32  1  0  0  0  0
 19 25  2  0  0  0  0
 19 34  1  0  0  0  0
 20 32  1  0  0  0  0
 20 33  2  0  0  0  0
 20 35  1  0  0  0  0
 21 23  2  0  0  0  0
 21 41  1  0  0  0  0
 22 24  2  0  0  0  0
 22 42  1  0  0  0  0
 23 50  1  0  0  0  0
 24 43  1  0  0  0  0
 25 53  1  0  0  0  0
 26 81  1  0  0  0  0
 27 83  1  0  0  0  0
 28 82  1  0  0  0  0
 29 31  2  0  0  0  0
 29 81  1  0  0  0  0
 30 84  1  0  0  0  0
 31 85  1  0  0  0  0
 32 65  2  0  0  0  0
 33 67  1  0  0  0  0
 33 70  1  0  0  0  0
 34 36  1  0  0  0  0
 34 66  2  0  0  0  0
 35 71  1  0  0  0  0
 35 75  2  0  0  0  0
 36 68  1  0  0  0  0
 36 76  2  0  0  0  0
 37 51  1  0  0  0  0
 37 72  1  0  0  0  0
 37 77  2  0  0  0  0
 38 59  1  0  0  0  0
 38 60  1  0  0  0  0
 38 78  2  0  0  0  0
 39 62  1  0  0  0  0
 39 69  1  0  0  0  0
 39 79  2  0  0  0  0
 40 63  1  0  0  0  0
 40 73  1  0  0  0  0
 40 80  2  0  0  0  0
 41 44  1  0  0  0  0
 42 51  1  0  0  0  0
 43 69  1  0  0  0  0
 44 46  1  0  0  0  0
 45 47  1  0  0  0  0
 45 48  1  0  0  0  0
 46 50  1  0  0  0  0
 47 52  1  0  0  0  0
 48 68  1  0  0  0  0
 49 52  1  0  0  0  0
 49 68  1  0  0  0  0
 50 72  1  0  0  0  0
 51 69  1  0  0  0  0
 52 67  1  0  0  0  0
 54 63  1  0  0  0  0
 55 64  1  0  0  0  0
 56 64  1  0  0  0  0
 57 64  1  0  0  0  0
 58 74  1  0  0  0  0
 59 61  1  0  0  0  0
 60 82  1  0  0  0  0
 61 83  1  0  0  0  0
 62 64  1  0  0  0  0
 62 73  1  0  0  0  0
 63 74  1  0  0  0  0
 65 67  1  0  0  0  0
M  CHG  1  74   1
M  ISO  4  34 100  36 100  60 101  82 101
M  END
> <Batch ID>
0108

> <Smiles>
CNC(C)C(=O)NC(C(=O)N1Cc2cc([101O:1][101CH2:1]C(=O)CCOc3ccc(C)c([100C:0](=N)[100C:0](=O)N4CCCC(n5nc(-c6ccc(Oc7ccc(F)cc7F)cc6)c(C(N)=O)c5N)C4)c3)ccc2CC1C(=O)NC1CCCc2ccccc21)C(C)(C)C

> <Shape>
0.249

> <Color>
0.090

> <Negative vol penalty>
0.000

$$$$

  -OEChem-04052301203D

 86 94  0     1  0  0  0  0  0999 V2000
  -17.7235  -32.5900   22.1795 C   0  0  0  0  0  0  0  0  0  0  0  0
  -19.0218  -32.7706   21.7135 C   0  0  0  0  0  0  0  0  0  0  0  0
  -23.4224  -15.8463   25.6851 C   0  0  0  0  0  0  0  0  0  0  0  0
  -22.9842  -18.0111   24.7059 C   0  0  0  0  0  0  0  0  0  0  0  0
  -17.4405  -31.5523   23.0665 C   0  0  0  0  0  0  0  0  0  0  0  0
  -20.0382  -31.9141   22.1352 C   0  0  0  0  0  0  0  0  0  0  0  0
  -26.1124  -28.8975   19.8287 C   0  0  0  0  0  0  0  0  0  0  0  0
  -22.6492  -16.1912   26.7936 C   0  0  0  0  0  0  0  0  0  0  0  0
  -22.2109  -18.3560   25.8144 C   0  0  0  0  0  0  0  0  0  0  0  0
  -27.4477  -28.7451   20.1995 C   0  0  0  0  0  0  0  0  0  0  0  0
  -19.3658  -16.3816   27.5785 C   0  0  0  0  0  0  0  0  0  0  0  0
  -18.4540  -15.4381   28.0517 C   0  0  0  0  0  0  0  0  0  0  0  0
  -26.8263  -26.9383   21.6721 C   0  0  0  0  0  0  0  0  0  0  0  0
  -30.9939  -21.8267   18.3080 C   0  0  0  0  0  0  0  0  0  0  0  0
  -28.7388  -22.1289   19.1204 C   0  0  0  0  0  0  0  0  0  0  0  0
  -19.5797  -15.4224   30.1894 C   0  0  0  0  0  0  0  0  0  0  0  0
  -23.5900  -16.7563   24.6412 C   0  0  0  0  0  0  0  0  0  0  0  0
  -23.9493  -15.7769   22.3133 C   0  0  0  0  0  0  0  0  0  0  0  0
  -18.4520  -30.6767   23.4918 C   0  0  0  0  0  0  0  0  0  0  0  0
  -25.1209  -28.0773   20.3860 C   0  0  0  0  0  0  0  0  0  0  0  0
  -19.7687  -30.8645   23.0298 C   0  0  0  0  0  0  0  0  0  0  0  0
  -25.4795  -27.0806   21.3048 C   0  0  0  0  0  0  0  0  0  0  0  0
  -29.7298  -21.3062   18.5848 C   0  0  0  0  0  0  0  0  0  0  0  0
  -31.2671  -23.1699   18.5669 C   0  0  0  0  0  0  0  0  0  0  0  0
  -29.0119  -23.4720   19.3792 C   0  0  0  0  0  0  0  0  0  0  0  0
  -22.0434  -17.4460   26.8582 C   0  0  0  0  0  0  0  0  0  0  0  0
  -27.8045  -27.7673   21.1235 C   0  0  0  0  0  0  0  0  0  0  0  0
  -20.3847  -16.8455   28.4107 C   0  0  0  0  0  0  0  0  0  0  0  0
  -30.2761  -23.9925   19.1024 C   0  0  0  0  0  0  0  0  0  0  0  0
  -18.5609  -14.9585   29.3571 C   0  0  0  0  0  0  0  0  0  0  0  0
  -20.4916  -16.3659   29.7161 C   0  0  0  0  0  0  0  0  0  0  0  0
  -24.3890  -16.4008   23.4961 C   0  0  0  0  0  0  0  0  0  0  0  0
  -25.0820  -15.6598   21.5453 C   0  0  0  0  0  0  0  0  0  0  0  0
  -33.0693  -25.8155   16.9658 C   0  0  0  0  0  0  0  0  0  0  0  0
  -32.6627  -24.5417   17.0099 C   0  0  0  0  0  0  0  0  0  0  0  0
  -22.6345  -15.3423   21.9418 C   0  0  0  0  0  0  0  0  0  0  0  0
  -22.5409  -28.5762   22.1744 C   0  0  0  0  0  0  0  0  0  0  0  0
  -22.0602  -25.4074   21.6749 C   0  0  0  0  0  0  0  0  0  0  0  0
  -23.3947  -22.3578   20.9226 C   0  0  0  0  0  0  0  0  0  0  0  0
  -29.9669  -18.5152   20.3213 C   0  0  0  0  0  0  0  0  0  0  0  0
  -18.1072  -29.5985   24.4884 C   0  0  0  0  0  0  0  0  0  0  0  0
  -23.6886  -28.2367   19.9555 C   0  0  0  0  0  0  0  0  0  0  0  0
  -24.4558  -26.1610   21.9170 C   0  0  0  0  0  0  0  0  0  0  0  0
  -19.1674  -28.5054   24.5944 C   0  0  0  0  0  0  0  0  0  0  0  0
  -29.9380  -15.6789   22.4734 C   0  0  0  0  0  0  0  0  0  0  0  0
  -20.5597  -29.1202   24.6965 C   0  0  0  0  0  0  0  0  0  0  0  0
  -28.4633  -15.5179   22.8465 C   0  0  0  0  0  0  0  0  0  0  0  0
  -30.3330  -17.1493   22.3552 C   0  0  0  0  0  0  0  0  0  0  0  0
  -28.0130  -17.7856   21.8201 C   0  0  0  0  0  0  0  0  0  0  0  0
  -20.8934  -29.9410   23.4449 C   0  0  1  0  0  0  0  0  0  0  0  0
  -22.6940  -27.6867   20.9732 C   0  0  1  0  0  0  0  0  0  0  0  0
  -27.5536  -16.3195   21.8961 C   0  0  2  0  0  0  0  0  0  0  0  0
  -22.7588  -19.9486   20.6242 C   0  0  0  0  0  0  0  0  0  0  0  0
  -21.8555  -25.0888   24.7026 C   0  0  0  0  0  0  0  0  0  0  0  0
  -22.1764  -22.6249   24.3951 C   0  0  0  0  0  0  0  0  0  0  0  0
  -20.1890  -23.7560   23.3983 C   0  0  0  0  0  0  0  0  0  0  0  0
  -24.2942  -22.3492   18.1031 C   0  0  0  0  0  0  0  0  0  0  0  0
  -32.6267  -23.7083   18.2637 C   0  0  0  0  0  0  0  0  0  0  0  0
  -29.4395  -19.8695   18.3097 C   0  0  0  0  0  0  0  0  0  0  0  0
  -31.3454  -27.1143   20.7401 C   0  0  0  0  0  0  0  0  0  0  0  0
  -30.0962  -27.9516   20.5151 C   0  0  0  0  0  0  0  0  0  1  0  0
  -31.0560  -25.6244   20.6466 C   0  0  0  0  0  0  0  0  0  0  0  0
  -22.4722  -24.1390   22.3823 C   0  0  1  0  0  0  0  0  0  0  0  0
  -22.9679  -21.2876   19.9341 C   0  0  2  0  0  0  0  0  0  0  0  0
  -21.6925  -23.9206   23.7097 C   0  0  0  0  0  0  0  0  0  0  0  0
  -25.6990  -16.6616   23.4853 N   0  0  0  0  0  0  0  0  0  0  0  0
  -26.0921  -16.1993   22.2862 N   0  0  0  0  0  0  0  0  0  0  0  0
  -23.0676  -26.3604   21.4688 N   0  0  0  0  0  0  0  0  0  0  0  0
  -29.4324  -17.8522   21.4384 N   0  0  0  0  0  0  0  0  0  0  0  0
  -27.9986  -24.2923   19.9222 N   0  0  0  0  0  0  0  0  0  0  0  0
  -25.3026  -15.1489   20.3154 N   0  0  0  0  0  0  0  0  0  0  0  0
  -21.5845  -15.5393   22.8490 N   0  0  0  0  0  0  0  0  0  0  0  0
  -21.2616  -29.0677   22.3511 N   0  0  0  0  0  0  0  0  0  0  0  0
  -22.3143  -23.0608   21.4123 N   0  0  0  0  0  0  0  0  0  0  0  0
  -29.0436  -19.1508   19.5003 N   0  0  0  0  0  0  0  0  0  0  0  0
  -24.0049  -21.1150   18.8778 N   0  3  0  0  0  0  0  0  0  0  0  0
  -22.4007  -14.7805   20.8449 O   0  0  0  0  0  0  0  0  0  0  0  0
  -23.5113  -28.7990   22.8888 O   0  0  0  0  0  0  0  0  0  0  0  0
  -20.8892  -25.5443   21.3120 O   0  0  0  0  0  0  0  0  0  0  0  0
  -24.5687  -22.5483   21.2324 O   0  0  0  0  0  0  0  0  0  0  0  0
  -31.1769  -18.5345   20.0712 O   0  0  0  0  0  0  0  0  0  0  0  0
  -21.2887  -17.7828   27.9397 O   0  0  0  0  0  0  0  0  0  0  0  0
  -29.1070  -27.6168   21.4877 O   0  0  0  0  0  0  0  0  0  1  0  0
  -30.5483  -25.3116   19.3566 O   0  0  0  0  0  0  0  0  0  0  0  0
  -17.6843  -14.0536   29.8119 F   0  0  0  0  0  0  0  0  0  0  0  0
  -21.4675  -16.8086   30.5207 F   0  0  0  0  0  0  0  0  0  0  0  0
  1  2  1  0  0  0  0
  1  5  2  0  0  0  0
  2  6  2  0  0  0  0
  3  8  2  0  0  0  0
  3 17  1  0  0  0  0
  4  9  1  0  0  0  0
  4 17  2  0  0  0  0
  5 19  1  0  0  0  0
  6 21  1  0  0  0  0
  7 10  2  0  0  0  0
  7 20  1  0  0  0  0
  8 26  1  0  0  0  0
  9 26  2  0  0  0  0
 10 27  1  0  0  0  0
 11 12  2  0  0  0  0
 11 28  1  0  0  0  0
 12 30  1  0  0  0  0
 13 22  1  0  0  0  0
 13 27  2  0  0  0  0
 14 23  2  0  0  0  0
 14 24  1  0  0  0  0
 15 23  1  0  0  0  0
 15 25  2  0  0  0  0
 16 30  2  0  0  0  0
 16 31  1  0  0  0  0
 17 32  1  0  0  0  0
 18 32  1  0  0  0  0
 18 33  2  0  0  0  0
 18 36  1  0  0  0  0
 19 21  2  0  0  0  0
 19 41  1  0  0  0  0
 20 22  2  0  0  0  0
 20 42  1  0  0  0  0
 21 50  1  0  0  0  0
 22 43  1  0  0  0  0
 23 59  1  0  0  0  0
 24 29  2  0  0  0  0
 24 58  1  0  0  0  0
 25 29  1  0  0  0  0
 25 70  1  0  0  0  0
 26 82  1  0  0  0  0
 27 83  1  0  0  0  0
 28 31  2  0  0  0  0
 28 82  1  0  0  0  0
 29 84  1  0  0  0  0
 30 85  1  0  0  0  0
 31 86  1  0  0  0  0
 32 66  2  0  0  0  0
 33 67  1  0  0  0  0
 33 71  1  0  0  0  0
 34 35  2  0  0  0  0
 35 58  1  0  0  0  0
 36 72  1  0  0  0  0
 36 77  2  0  0  0  0
 37 51  1  0  0  0  0
 37 73  1  0  0  0  0
 37 78  2  0  0  0  0
 38 63  1  0  0  0  0
 38 68  1  0  0  0  0
 38 79  2  0  0  0  0
 39 64  1  0  0  0  0
 39 74  1  0  0  0  0
 39 80  2  0  0  0  0
 40 69  1  0  0  0  0
 40 75  1  0  0  0  0
 40 81  2  0  0  0  0
 41 44  1  0  0  0  0
 42 51  1  0  0  0  0
 43 68  1  0  0  0  0
 44 46  1  0  0  0  0
 45 47  1  0  0  0  0
 45 48  1  0  0  0  0
 46 50  1  0  0  0  0
 47 52  1  0  0  0  0
 48 69  1  0  0  0  0
 49 52  1  0  0  0  0
 49 69  1  0  0  0  0
 50 73  1  0  0  0  0
 51 68  1  0  0  0  0
 52 67  1  0  0  0  0
 53 64  1  0  0  0  0
 54 65  1  0  0  0  0
 55 65  1  0  0  0  0
 56 65  1  0  0  0  0
 57 76  1  0  0  0  0
 59 75  1  0  0  0  0
 60 61  1  0  0  0  0
 60 62  1  0  0  0  0
 61 83  1  0  0  0  0
 62 84  1  0  0  0  0
 63 65  1  0  0  0  0
 63 74  1  0  0  0  0
 64 76  1  0  0  0  0
 66 67  1  0  0  0  0
M  CHG  1  76   1
M  ISO  4  40 100  61 101  75 100  83 101
M  END
> <Batch ID>
0108

> <Smiles>
C=CCc1cc(C[100NH:0][100C:0](=O)N2CCCC(n3nc(-c4ccc(Oc5ccc(F)cc5F)cc4)c(C(N)=O)c3N)C2)cc(N)c1OCC[101CH2:1][101O:1]c1ccc2c(c1)CN(C(=O)C(NC(=O)C(C)NC)C(C)(C)C)C(C(=O)NC1CCCc3ccccc31)C2

> <Shape>
0.184

> <Color>
0.125

> <Negative vol penalty>
0.000

$$$$

  -OEChem-04052301203D

 87 95  0     1  0  0  0  0  0999 V2000
  -27.1229  -35.6084   23.1659 C   0  0  0  0  0  0  0  0  0  0  0  0
  -27.5689  -34.3568   22.7536 C   0  0  0  0  0  0  0  0  0  0  0  0
  -24.1636   -9.5521   21.5345 C   0  0  0  0  0  0  0  0  0  0  0  0
  -24.7234  -10.7601   23.5505 C   0  0  0  0  0  0  0  0  0  0  0  0
  -26.1355  -35.7075   24.1452 C   0  0  0  0  0  0  0  0  0  0  0  0
  -27.0284  -33.2035   23.3212 C   0  0  0  0  0  0  0  0  0  0  0  0
  -25.9258  -29.6702   19.8651 C   0  0  0  0  0  0  0  0  0  0  0  0
  -23.7826   -8.4504   22.3005 C   0  0  0  0  0  0  0  0  0  0  0  0
  -24.3424   -9.6584   24.3165 C   0  0  0  0  0  0  0  0  0  0  0  0
  -26.9866  -28.9174   19.3633 C   0  0  0  0  0  0  0  0  0  0  0  0
  -21.1126   -7.5033   24.1463 C   0  0  0  0  0  0  0  0  0  0  0  0
  -19.9168   -6.8661   23.8154 C   0  0  0  0  0  0  0  0  0  0  0  0
  -26.4034  -27.1129   20.8542 C   0  0  0  0  0  0  0  0  0  0  0  0
  -30.1809  -19.2624   19.2263 C   0  0  0  0  0  0  0  0  0  0  0  0
  -28.0128  -19.4915   20.2674 C   0  0  0  0  0  0  0  0  0  0  0  0
  -21.1230   -4.8122   23.4113 C   0  0  0  0  0  0  0  0  0  0  0  0
  -24.6341  -10.7070   22.1596 C   0  0  0  0  0  0  0  0  0  0  0  0
  -24.2134  -12.9154   20.9540 C   0  0  0  0  0  0  0  0  0  0  0  0
  -25.5758  -34.5547   24.7183 C   0  0  0  0  0  0  0  0  0  0  0  0
  -25.1011  -29.1533   20.8746 C   0  0  0  0  0  0  0  0  0  0  0  0
  -26.0335  -33.2873   24.3101 C   0  0  0  0  0  0  0  0  0  0  0  0
  -25.3312  -27.8602   21.3653 C   0  0  0  0  0  0  0  0  0  0  0  0
  -30.2569  -20.6474   19.0796 C   0  0  0  0  0  0  0  0  0  0  0  0
  -29.0588  -18.6844   19.8201 C   0  0  0  0  0  0  0  0  0  0  0  0
  -23.8720   -8.5036   23.6914 C   0  0  0  0  0  0  0  0  0  0  0  0
  -27.2273  -27.6397   19.8599 C   0  0  0  0  0  0  0  0  0  0  0  0
  -22.3137   -6.7950   24.1096 C   0  0  0  0  0  0  0  0  0  0  0  0
  -28.0888  -20.8765   20.1208 C   0  0  0  0  0  0  0  0  0  0  0  0
  -29.2108  -21.4545   19.5269 C   0  0  0  0  0  0  0  0  0  0  0  0
  -19.9219   -5.5206   23.4479 C   0  0  0  0  0  0  0  0  0  0  0  0
  -22.3189   -5.4494   23.7422 C   0  0  0  0  0  0  0  0  0  0  0  0
  -25.0284  -11.8451   21.3689 C   0  0  0  0  0  0  0  0  0  0  0  0
  -25.0545  -13.7285   20.2343 C   0  0  0  0  0  0  0  0  0  0  0  0
  -22.8207  -13.1535   21.1976 C   0  0  0  0  0  0  0  0  0  0  0  0
  -24.4173  -29.9948   23.8626 C   0  0  0  0  0  0  0  0  0  0  0  0
  -22.2697  -27.5740   23.6398 C   0  0  0  0  0  0  0  0  0  0  0  0
  -21.3417  -24.6532   22.1382 C   0  0  0  0  0  0  0  0  0  0  0  0
  -29.9321  -16.3334   19.5817 C   0  0  0  0  0  0  0  0  0  0  0  0
  -24.5445  -34.7127   25.8074 C   0  0  0  0  0  0  0  0  0  0  0  0
  -23.9446  -29.9677   21.3864 C   0  0  0  0  0  0  0  0  0  0  0  0
  -24.4627  -27.2515   22.4347 C   0  0  0  0  0  0  0  0  0  0  0  0
  -23.7567  -33.4362   26.0902 C   0  0  0  0  0  0  0  0  0  0  0  0
  -29.7593  -12.9314   18.5458 C   0  0  0  0  0  0  0  0  0  0  0  0
  -24.6981  -32.2409   26.1989 C   0  0  0  0  0  0  0  0  0  0  0  0
  -28.4460  -12.4335   19.1538 C   0  0  0  0  0  0  0  0  0  0  0  0
  -30.4773  -13.9115   19.4717 C   0  0  0  0  0  0  0  0  0  0  0  0
  -28.3488  -14.5460   20.5376 C   0  0  0  0  0  0  0  0  0  0  0  0
  -25.4541  -32.0127   24.8844 C   0  0  1  0  0  0  0  0  0  0  0  0
  -23.4829  -29.5418   22.7766 C   0  0  1  0  0  0  0  0  0  0  0  0
  -27.5576  -13.6061   19.6133 C   0  0  2  0  0  0  0  0  0  0  0  0
  -25.8110  -22.9167   23.8698 C   0  0  0  0  0  0  0  0  0  0  0  0
  -19.5580  -22.8890   22.1949 C   0  0  0  0  0  0  0  0  0  0  0  0
  -23.4979  -26.4174   26.1822 C   0  0  0  0  0  0  0  0  0  0  0  0
  -22.3622  -24.2480   25.6607 C   0  0  0  0  0  0  0  0  0  0  0  0
  -21.0020  -26.2964   26.0809 C   0  0  0  0  0  0  0  0  0  0  0  0
  -20.5517  -25.1975   19.3384 C   0  0  0  0  0  0  0  0  0  0  0  0
  -31.4656  -21.2479   18.4408 C   0  0  0  0  0  0  0  0  0  0  0  0
  -26.1604  -22.9144   22.3924 C   0  0  0  0  0  0  0  0  0  0  0  0
  -28.8727  -24.8784   18.2104 C   0  0  0  0  0  0  0  0  0  0  0  0
  -26.7427  -21.5805   21.9507 C   0  0  0  0  0  0  0  0  0  0  0  0
  -28.1091  -25.4843   19.3775 C   0  0  0  0  0  0  0  0  0  1  0  0
  -28.7581  -23.3624   18.1813 C   0  0  0  0  0  0  0  0  0  0  0  0
  -22.2977  -26.0908   23.9197 C   0  0  1  0  0  0  0  0  0  0  0  0
  -20.0145  -24.1942   21.5619 C   0  0  2  0  0  0  0  0  0  0  0  0
  -22.3077  -25.7751   25.4421 C   0  0  0  0  0  0  0  0  0  0  0  0
  -26.2902  -11.9645   20.9476 N   0  0  0  0  0  0  0  0  0  0  0  0
  -26.2745  -13.1193   20.2604 N   0  0  0  0  0  0  0  0  0  0  0  0
  -23.3483  -28.0896   22.9074 N   0  0  0  0  0  0  0  0  0  0  0  0
  -29.5756  -14.9974   19.8624 N   0  0  0  0  0  0  0  0  0  0  0  0
  -24.8621  -14.8979   19.5878 N   0  0  0  0  0  0  0  0  0  0  0  0
  -22.1055  -12.2170   21.9564 N   0  0  0  0  0  0  0  0  0  0  0  0
  -28.9821  -17.2775   19.9700 N   0  0  0  0  0  0  0  0  0  0  0  0
  -24.5976  -31.3638   23.9149 N   0  0  0  0  0  0  0  0  0  0  0  0
  -21.1668  -25.5177   23.1980 N   0  0  0  0  0  0  0  0  0  0  0  0
  -31.3434  -21.3880   16.9642 N   0  3  0  0  0  0  0  0  0  0  0  0
  -20.1324  -23.9870   20.0908 N   0  3  0  0  0  0  0  0  0  0  0  0
  -22.2241  -14.1583   20.7415 O   0  0  0  0  0  0  0  0  0  0  0  0
  -24.9352  -29.1638   24.5995 O   0  0  0  0  0  0  0  0  0  0  0  0
  -21.3220  -28.2489   24.0496 O   0  0  0  0  0  0  0  0  0  0  0  0
  -22.4254  -24.2791   21.6950 O   0  0  0  0  0  0  0  0  0  0  0  0
  -30.9892  -16.6171   19.0124 O   0  0  0  0  0  0  0  0  0  0  0  0
  -23.5000   -7.4288   24.4392 O   0  0  0  0  0  0  0  0  0  0  0  0
  -28.2625  -26.9030   19.3723 O   0  0  0  0  0  0  0  0  0  1  0  0
  -27.0601  -21.6532   20.5621 O   0  0  0  0  0  0  0  0  0  0  0  0
  -29.2810  -22.8159   19.3845 O   0  0  0  0  0  0  0  0  0  0  0  0
  -18.7733   -4.9084   23.1317 F   0  0  0  0  0  0  0  0  0  0  0  0
  -23.4695   -4.7633   23.7063 F   0  0  0  0  0  0  0  0  0  0  0  0
  1  2  1  0  0  0  0
  1  5  2  0  0  0  0
  2  6  2  0  0  0  0
  3  8  2  0  0  0  0
  3 17  1  0  0  0  0
  4  9  1  0  0  0  0
  4 17  2  0  0  0  0
  5 19  1  0  0  0  0
  6 21  1  0  0  0  0
  7 10  2  0  0  0  0
  7 20  1  0  0  0  0
  8 25  1  0  0  0  0
  9 25  2  0  0  0  0
 10 26  1  0  0  0  0
 11 12  2  0  0  0  0
 11 27  1  0  0  0  0
 12 30  1  0  0  0  0
 13 22  1  0  0  0  0
 13 26  2  0  0  0  0
 14 23  2  0  0  0  0
 14 24  1  0  0  0  0
 15 24  2  0  0  0  0
 15 28  1  0  0  0  0
 16 30  2  0  0  0  0
 16 31  1  0  0  0  0
 17 32  1  0  0  0  0
 18 32  1  0  0  0  0
 18 33  2  0  0  0  0
 18 34  1  0  0  0  0
 19 21  2  0  0  0  0
 19 39  1  0  0  0  0
 20 22  2  0  0  0  0
 20 40  1  0  0  0  0
 21 48  1  0  0  0  0
 22 41  1  0  0  0  0
 23 29  1  0  0  0  0
 23 57  1  0  0  0  0
 24 72  1  0  0  0  0
 25 82  1  0  0  0  0
 26 83  1  0  0  0  0
 27 31  2  0  0  0  0
 27 82  1  0  0  0  0
 28 29  2  0  0  0  0
 28 84  1  0  0  0  0
 29 85  1  0  0  0  0
 30 86  1  0  0  0  0
 31 87  1  0  0  0  0
 32 66  2  0  0  0  0
 33 67  1  0  0  0  0
 33 70  1  0  0  0  0
 34 71  1  0  0  0  0
 34 77  2  0  0  0  0
 35 49  1  0  0  0  0
 35 73  1  0  0  0  0
 35 78  2  0  0  0  0
 36 63  1  0  0  0  0
 36 68  1  0  0  0  0
 36 79  2  0  0  0  0
 37 64  1  0  0  0  0
 37 74  1  0  0  0  0
 37 80  2  0  0  0  0
 38 69  1  0  0  0  0
 38 72  1  0  0  0  0
 38 81  2  0  0  0  0
 39 42  1  0  0  0  0
 40 49  1  0  0  0  0
 41 68  1  0  0  0  0
 42 44  1  0  0  0  0
 43 45  1  0  0  0  0
 43 46  1  0  0  0  0
 44 48  1  0  0  0  0
 45 50  1  0  0  0  0
 46 69  1  0  0  0  0
 47 50  1  0  0  0  0
 47 69  1  0  0  0  0
 48 73  1  0  0  0  0
 49 68  1  0  0  0  0
 50 67  1  0  0  0  0
 51 58  1  0  0  0  0
 52 64  1  0  0  0  0
 53 65  1  0  0  0  0
 54 65  1  0  0  0  0
 55 65  1  0  0  0  0
 56 76  1  0  0  0  0
 57 75  1  0  0  0  0
 58 60  1  0  0  0  0
 59 61  1  0  0  0  0
 59 62  1  0  0  0  0
 60 84  1  0  0  0  0
 61 83  1  0  0  0  0
 62 85  1  0  0  0  0
 63 65  1  0  0  0  0
 63 74  1  0  0  0  0
 64 76  1  0  0  0  0
 66 67  1  0  0  0  0
M  CHG  2  75   1  76   1
M  ISO  4  38 100  61 101  72 100  83 101
M  END
> <Batch ID>
0108

> <Smiles>
CCCOc1cc([100NH:0][100C:0](=O)N2CCCC(n3nc(-c4ccc(Oc5ccc(F)cc5F)cc4)c(C(N)=O)c3N)C2)cc(CN)c1OCC[101CH2:1][101O:1]c1ccc2c(c1)CN(C(=O)C(NC(=O)C(C)NC)C(C)(C)C)C(C(=O)NC1CCCc3ccccc31)C2

> <Shape>
0.327

> <Color>
0.134

> <Negative vol penalty>
0.000

$$$$

  -OEChem-04052301203D

 85 93  0     1  0  0  0  0  0999 V2000
  -30.1564  -34.6336   17.9317 C   0  0  0  0  0  0  0  0  0  0  0  0
  -29.9670  -33.2724   18.1473 C   0  0  0  0  0  0  0  0  0  0  0  0
  -23.5036   -9.7117   20.7358 C   0  0  0  0  0  0  0  0  0  0  0  0
  -22.5116  -11.7731   21.5127 C   0  0  0  0  0  0  0  0  0  0  0  0
  -29.7817  -35.5522   18.9113 C   0  0  0  0  0  0  0  0  0  0  0  0
  -29.4038  -32.8288   19.3433 C   0  0  0  0  0  0  0  0  0  0  0  0
  -25.8708  -29.2724   18.6256 C   0  0  0  0  0  0  0  0  0  0  0  0
  -22.3886   -9.0052   21.1867 C   0  0  0  0  0  0  0  0  0  0  0  0
  -21.3966  -11.0667   21.9636 C   0  0  0  0  0  0  0  0  0  0  0  0
  -26.3153  -27.9773   18.3630 C   0  0  0  0  0  0  0  0  0  0  0  0
  -19.2299   -8.4046   20.1405 C   0  0  0  0  0  0  0  0  0  0  0  0
  -18.6859   -7.4412   19.2911 C   0  0  0  0  0  0  0  0  0  0  0  0
  -25.9196  -27.3808   20.6666 C   0  0  0  0  0  0  0  0  0  0  0  0
  -30.3673  -18.9447   21.5525 C   0  0  0  0  0  0  0  0  0  0  0  0
  -28.9356  -18.8405   19.6092 C   0  0  0  0  0  0  0  0  0  0  0  0
  -19.0975   -5.7403   20.9568 C   0  0  0  0  0  0  0  0  0  0  0  0
  -23.5651  -11.0957   20.8988 C   0  0  0  0  0  0  0  0  0  0  0  0
  -24.9045  -12.3964   19.1605 C   0  0  0  0  0  0  0  0  0  0  0  0
  -29.2047  -35.1203   20.1160 C   0  0  0  0  0  0  0  0  0  0  0  0
  -25.4571  -29.6350   19.9154 C   0  0  0  0  0  0  0  0  0  0  0  0
  -29.0222  -33.7424   20.3406 C   0  0  0  0  0  0  0  0  0  0  0  0
  -25.4679  -28.6804   20.9424 C   0  0  0  0  0  0  0  0  0  0  0  0
  -30.5247  -20.3176   21.3630 C   0  0  0  0  0  0  0  0  0  0  0  0
  -29.0929  -20.2134   19.4197 C   0  0  0  0  0  0  0  0  0  0  0  0
  -29.5728  -18.2061   20.6756 C   0  0  0  0  0  0  0  0  0  0  0  0
  -29.8875  -20.9520   20.2966 C   0  0  0  0  0  0  0  0  0  0  0  0
  -21.3351   -9.6827   21.8006 C   0  0  0  0  0  0  0  0  0  0  0  0
  -26.3424  -27.0320   19.3842 C   0  0  0  0  0  0  0  0  0  0  0  0
  -19.7078   -8.0359   21.3980 C   0  0  0  0  0  0  0  0  0  0  0  0
  -18.6196   -6.1091   19.6992 C   0  0  0  0  0  0  0  0  0  0  0  0
  -19.6416   -6.7037   21.8062 C   0  0  0  0  0  0  0  0  0  0  0  0
  -24.7169  -11.8260   20.4338 C   0  0  0  0  0  0  0  0  0  0  0  0
  -26.1496  -12.9730   19.2227 C   0  0  0  0  0  0  0  0  0  0  0  0
  -24.0315  -12.4044   18.0232 C   0  0  0  0  0  0  0  0  0  0  0  0
  -26.4469  -31.7428   22.0791 C   0  0  0  0  0  0  0  0  0  0  0  0
  -23.7897  -30.7744   23.6677 C   0  0  0  0  0  0  0  0  0  0  0  0
  -21.4487  -28.3462   24.1878 C   0  0  0  0  0  0  0  0  0  0  0  0
  -29.9758  -16.0275   21.8747 C   0  0  0  0  0  0  0  0  0  0  0  0
  -28.8592  -36.1476   21.1647 C   0  0  0  0  0  0  0  0  0  0  0  0
  -24.9552  -31.0288   20.1762 C   0  0  0  0  0  0  0  0  0  0  0  0
  -25.0150  -29.0136   22.3397 C   0  0  0  0  0  0  0  0  0  0  0  0
  -27.9243  -35.6196   22.2499 C   0  0  0  0  0  0  0  0  0  0  0  0
  -29.7950  -12.5715   22.7115 C   0  0  0  0  0  0  0  0  0  0  0  0
  -28.3989  -34.2579   22.7471 C   0  0  0  0  0  0  0  0  0  0  0  0
  -28.4732  -12.1164   22.0887 C   0  0  0  0  0  0  0  0  0  0  0  0
  -29.6999  -13.9901   23.2703 C   0  0  0  0  0  0  0  0  0  0  0  0
  -27.8825  -14.5429   21.7016 C   0  0  0  0  0  0  0  0  0  0  0  0
  -28.3916  -33.2238   21.6148 C   0  0  1  0  0  0  0  0  0  0  0  0
  -25.0427  -31.4302   21.6454 C   0  0  1  0  0  0  0  0  0  0  0  0
  -27.9481  -13.1441   21.0671 C   0  0  2  0  0  0  0  0  0  0  0  0
  -31.3823  -21.0826   22.3182 C   0  0  0  0  0  0  0  0  0  0  0  0
  -28.3967  -20.8661   18.2694 C   0  0  0  0  0  0  0  0  0  0  0  0
  -32.0493  -23.7188   20.0545 C   0  0  0  0  0  0  0  0  0  0  0  0
  -19.4235  -27.8274   25.5758 C   0  0  0  0  0  0  0  0  0  0  0  0
  -25.5839  -30.2097   26.0701 C   0  0  0  0  0  0  0  0  0  0  0  0
  -23.7281  -28.8420   27.0465 C   0  0  0  0  0  0  0  0  0  0  0  0
  -23.3942  -31.2791   26.6320 C   0  0  0  0  0  0  0  0  0  0  0  0
  -19.7233  -28.1183   21.7941 C   0  0  0  0  0  0  0  0  0  0  0  0
  -28.4033  -24.0756   19.6305 C   0  0  0  0  0  0  0  0  0  0  0  0
  -31.1393  -22.8343   19.2720 C   0  0  0  0  0  0  0  0  0  0  0  0
  -29.1402  -23.2835   20.7038 C   0  0  0  0  0  0  0  0  0  0  0  0
  -27.3986  -25.0663   20.2067 C   0  0  0  0  0  0  0  0  0  1  0  0
  -23.4790  -29.6882   24.6689 C   0  0  1  0  0  0  0  0  0  0  0  0
  -19.9340  -28.4077   24.2660 C   0  0  2  0  0  0  0  0  0  0  0  0
  -24.0567  -29.9987   26.0786 C   0  0  0  0  0  0  0  0  0  0  0  0
  -25.7593  -12.0222   21.2454 N   0  0  0  0  0  0  0  0  0  0  0  0
  -26.6140  -12.7224   20.4804 N   0  0  0  0  0  0  0  0  0  0  0  0
  -24.5389  -30.3914   22.5462 N   0  0  0  0  0  0  0  0  0  0  0  0
  -29.1997  -14.9091   22.2456 N   0  0  0  0  0  0  0  0  0  0  0  0
  -26.8815  -13.6648   18.3238 N   0  0  0  0  0  0  0  0  0  0  0  0
  -22.7888  -11.7651   18.1304 N   0  0  0  0  0  0  0  0  0  0  0  0
  -29.4133  -16.8113   20.8678 N   0  0  0  0  0  0  0  0  0  0  0  0
  -27.0439  -32.7615   21.3612 N   0  0  0  0  0  0  0  0  0  0  0  0
  -22.0313  -29.5104   24.6423 N   0  0  0  0  0  0  0  0  0  0  0  0
  -30.0453  -22.3322   20.1054 N   0  0  3  0  0  0  0  0  0  0  0  0
  -19.3257  -27.6396   23.1430 N   0  3  0  0  0  0  0  0  0  0  0  0
  -24.3509  -12.9477   16.9386 O   0  0  0  0  0  0  0  0  0  0  0  0
  -26.9510  -31.1077   22.9979 O   0  0  0  0  0  0  0  0  0  0  0  0
  -23.3766  -31.9191   23.8696 O   0  0  0  0  0  0  0  0  0  0  0  0
  -22.0547  -27.3624   23.7690 O   0  0  0  0  0  0  0  0  0  0  0  0
  -31.0722  -16.2568   22.3917 O   0  0  0  0  0  0  0  0  0  0  0  0
  -20.2469   -8.9937   22.2405 O   0  0  0  0  0  0  0  0  0  0  0  0
  -26.7763  -25.7674   19.1307 O   0  0  0  0  0  0  0  0  0  1  0  0
  -18.0958   -5.1843   18.8841 F   0  0  0  0  0  0  0  0  0  0  0  0
  -20.0980   -6.3436   23.0136 F   0  0  0  0  0  0  0  0  0  0  0  0
  1  2  1  0  0  0  0
  1  5  2  0  0  0  0
  2  6  2  0  0  0  0
  3  8  2  0  0  0  0
  3 17  1  0  0  0  0
  4  9  1  0  0  0  0
  4 17  2  0  0  0  0
  5 19  1  0  0  0  0
  6 21  1  0  0  0  0
  7 10  2  0  0  0  0
  7 20  1  0  0  0  0
  8 27  1  0  0  0  0
  9 27  2  0  0  0  0
 10 28  1  0  0  0  0
 11 12  2  0  0  0  0
 11 29  1  0  0  0  0
 12 30  1  0  0  0  0
 13 22  1  0  0  0  0
 13 28  2  0  0  0  0
 14 23  2  0  0  0  0
 14 25  1  0  0  0  0
 15 24  1  0  0  0  0
 15 25  2  0  0  0  0
 16 30  2  0  0  0  0
 16 31  1  0  0  0  0
 17 32  1  0  0  0  0
 18 32  1  0  0  0  0
 18 33  2  0  0  0  0
 18 34  1  0  0  0  0
 19 21  2  0  0  0  0
 19 39  1  0  0  0  0
 20 22  2  0  0  0  0
 20 40  1  0  0  0  0
 21 48  1  0  0  0  0
 22 41  1  0  0  0  0
 23 26  1  0  0  0  0
 23 51  1  0  0  0  0
 24 26  2  0  0  0  0
 24 52  1  0  0  0  0
 25 72  1  0  0  0  0
 26 75  1  0  0  0  0
 27 82  1  0  0  0  0
 28 83  1  0  0  0  0
 29 31  2  0  0  0  0
 29 82  1  0  0  0  0
 30 84  1  0  0  0  0
 31 85  1  0  0  0  0
 32 66  2  0  0  0  0
 33 67  1  0  0  0  0
 33 70  1  0  0  0  0
 34 71  1  0  0  0  0
 34 77  2  0  0  0  0
 35 49  1  0  0  0  0
 35 73  1  0  0  0  0
 35 78  2  0  0  0  0
 36 63  1  0  0  0  0
 36 68  1  0  0  0  0
 36 79  2  0  0  0  0
 37 64  1  0  0  0  0
 37 74  1  0  0  0  0
 37 80  2  0  0  0  0
 38 69  1  0  0  0  0
 38 72  1  0  0  0  0
 38 81  2  0  0  0  0
 39 42  1  0  0  0  0
 40 49  1  0  0  0  0
 41 68  1  0  0  0  0
 42 44  1  0  0  0  0
 43 45  1  0  0  0  0
 43 46  1  0  0  0  0
 44 48  1  0  0  0  0
 45 50  1  0  0  0  0
 46 69  1  0  0  0  0
 47 50  1  0  0  0  0
 47 69  1  0  0  0  0
 48 73  1  0  0  0  0
 49 68  1  0  0  0  0
 50 67  1  0  0  0  0
 53 60  1  0  0  0  0
 54 64  1  0  0  0  0
 55 65  1  0  0  0  0
 56 65  1  0  0  0  0
 57 65  1  0  0  0  0
 58 76  1  0  0  0  0
 59 61  1  0  0  0  0
 59 62  1  0  0  0  0
 60 75  1  0  0  0  0
 61 75  1  0  0  0  0
 62 83  1  0  0  0  0
 63 65  1  0  0  0  0
 63 74  1  0  0  0  0
 64 76  1  0  0  0  0
 66 67  1  0  0  0  0
M  CHG  1  76   1
M  ISO  4  38 100  62 101  72 100  83 101
M  END
> <Batch ID>
0108

> <Smiles>
CCN(CC[101CH2:1][101O:1]c1ccc2c(c1)CN(C(=O)C(NC(=O)C(C)NC)C(C)(C)C)C(C(=O)NC1CCCc3ccccc31)C2)c1c(C)cc([100NH:0][100C:0](=O)N2CCCC(n3nc(-c4ccc(Oc5ccc(F)cc5F)cc4)c(C(N)=O)c3N)C2)cc1C

> <Shape>
0.262

> <Color>
0.077

> <Negative vol penalty>
0.000

$$$$

  -OEChem-04052301203D

 88 97  0     1  0  0  0  0  0999 V2000
  -18.3157  -28.5820   23.3752 C   0  0  0  0  0  0  0  0  0  0  0  0
  -18.5789  -27.4859   22.5598 C   0  0  0  0  0  0  0  0  0  0  0  0
  -28.2565  -13.8339   19.1514 C   0  0  0  0  0  0  0  0  0  0  0  0
  -29.0270  -11.6463   19.8282 C   0  0  0  0  0  0  0  0  0  0  0  0
  -19.1830  -29.6737   23.3751 C   0  0  0  0  0  0  0  0  0  0  0  0
  -19.7091  -27.4815   21.7430 C   0  0  0  0  0  0  0  0  0  0  0  0
  -24.2791  -22.8749   23.5042 C   0  0  0  0  0  0  0  0  0  0  0  0
  -22.3360  -13.6216   20.1886 C   0  0  0  0  0  0  0  0  0  0  0  0
  -23.4088  -14.4910   20.3850 C   0  0  0  0  0  0  0  0  0  0  0  0
  -29.5259  -14.3571   19.3974 C   0  0  0  0  0  0  0  0  0  0  0  0
  -30.2964  -12.1695   20.0741 C   0  0  0  0  0  0  0  0  0  0  0  0
  -24.8485  -21.6029   23.5661 C   0  0  0  0  0  0  0  0  0  0  0  0
  -32.5293  -14.4402   17.8463 C   0  0  0  0  0  0  0  0  0  0  0  0
  -33.0728  -15.2989   16.8909 C   0  0  0  0  0  0  0  0  0  0  0  0
  -25.6660  -21.8469   21.3033 C   0  0  0  0  0  0  0  0  0  0  0  0
  -23.5534  -13.7911   22.6929 C   0  0  0  0  0  0  0  0  0  0  0  0
  -33.2053  -17.0552   18.5448 C   0  0  0  0  0  0  0  0  0  0  0  0
  -28.0070  -12.4785   19.3669 C   0  0  0  0  0  0  0  0  0  0  0  0
  -25.9999  -11.9333   17.8898 C   0  0  0  0  0  0  0  0  0  0  0  0
  -20.3295  -29.6785   22.5651 C   0  0  0  0  0  0  0  0  0  0  0  0
  -24.4145  -23.6449   22.3456 C   0  0  0  0  0  0  0  0  0  0  0  0
  -20.5918  -28.5748   21.7311 C   0  0  0  0  0  0  0  0  0  0  0  0
  -25.1086  -23.1268   21.2399 C   0  0  0  0  0  0  0  0  0  0  0  0
  -21.8717  -12.8369   21.2443 C   0  0  0  0  0  0  0  0  0  0  0  0
  -24.0176  -14.5757   21.6372 C   0  0  0  0  0  0  0  0  0  0  0  0
  -22.4805  -12.9217   22.4965 C   0  0  0  0  0  0  0  0  0  0  0  0
  -30.5459  -13.5249   19.8587 C   0  0  0  0  0  0  0  0  0  0  0  0
  -25.5400  -21.0901   22.4683 C   0  0  0  0  0  0  0  0  0  0  0  0
  -32.3237  -14.8890   19.1510 C   0  0  0  0  0  0  0  0  0  0  0  0
  -33.4108  -16.6064   17.2401 C   0  0  0  0  0  0  0  0  0  0  0  0
  -32.6617  -16.1965   19.5002 C   0  0  0  0  0  0  0  0  0  0  0  0
  -26.6958  -11.9376   19.1135 C   0  0  0  0  0  0  0  0  0  0  0  0
  -24.8100  -11.3088   18.1737 C   0  0  0  0  0  0  0  0  0  0  0  0
  -26.1523  -17.6398   21.6056 C   0  0  0  0  0  0  0  0  0  0  0  0
  -25.0478  -16.8563   21.6557 C   0  0  0  0  0  0  0  0  0  0  0  0
  -27.4814  -16.9937   21.8633 C   0  0  0  0  0  0  0  0  0  0  0  0
  -26.3938  -12.4477   16.6108 C   0  0  0  0  0  0  0  0  0  0  0  0
  -23.6778  -26.8847   20.6029 C   0  0  0  0  0  0  0  0  0  0  0  0
  -26.5599  -26.1204   19.8821 C   0  0  0  0  0  0  0  0  0  0  0  0
  -29.8635  -26.1057   19.0314 C   0  0  0  0  0  0  0  0  0  0  0  0
  -22.0021  -10.7110   23.5804 C   0  0  0  0  0  0  0  0  0  0  0  0
  -21.2122  -30.9014   22.5636 C   0  0  0  0  0  0  0  0  0  0  0  0
  -23.7650  -24.9956   22.2123 C   0  0  0  0  0  0  0  0  0  0  0  0
  -25.1992  -23.9769   20.0022 C   0  0  0  0  0  0  0  0  0  0  0  0
  -27.4876  -15.5965   22.4320 C   0  0  0  0  0  0  0  0  0  0  0  0
  -22.5879  -30.6588   21.9482 C   0  0  0  0  0  0  0  0  0  0  0  0
  -22.8522   -8.0876   21.1130 C   0  0  0  0  0  0  0  0  0  0  0  0
  -22.4574  -29.8999   20.6314 C   0  0  0  0  0  0  0  0  0  0  0  0
  -23.9379   -8.7539   20.2698 C   0  0  0  0  0  0  0  0  0  0  0  0
  -26.3938  -14.7475   21.8135 C   0  0  0  0  0  0  0  0  0  0  0  0
  -22.8335   -8.6260   22.5404 C   0  0  0  0  0  0  0  0  0  0  0  0
  -23.7850  -10.7806   21.7700 C   0  0  0  0  0  0  0  0  0  0  0  0
  -21.8207  -28.5221   20.8495 C   0  0  1  0  0  0  0  0  0  0  0  0
  -24.5964  -25.9851   21.3763 C   0  0  1  0  0  0  0  0  0  0  0  0
  -23.7979  -10.2844   20.3164 C   0  0  1  0  0  0  0  0  0  0  0  0
  -20.7207  -11.9146   21.0050 C   0  0  0  0  0  0  0  0  0  0  0  0
  -23.6719  -17.4912   21.5872 C   0  0  0  0  0  0  0  0  0  0  0  0
  -31.4515  -26.9565   17.2845 C   0  0  0  0  0  0  0  0  0  0  0  0
  -25.5715  -23.9802   17.9465 C   0  0  0  0  0  0  0  0  0  0  0  0
  -27.7214  -24.2268   16.6873 C   0  0  0  0  0  0  0  0  0  0  0  0
  -26.1599  -26.1629   16.8770 C   0  0  0  0  0  0  0  0  0  0  0  0
  -21.2899  -12.7898   24.6773 C   0  0  0  0  0  0  0  0  0  0  0  0
  -31.3967  -27.6705   21.0212 C   0  0  0  0  0  0  0  0  0  0  0  0
  -26.1942  -19.1134   21.3183 C   0  0  0  0  0  0  0  0  0  1  0  0
  -27.4794  -25.4313   18.9058 C   0  0  1  0  0  0  0  0  0  0  0  0
  -30.8068  -27.2271   18.6350 C   0  0  2  0  0  0  0  0  0  0  0  0
  -26.7332  -24.9438   17.6319 C   0  0  0  0  0  0  0  0  0  0  0  0
  -26.0055  -11.3617   20.1013 N   0  0  0  0  0  0  0  0  0  0  0  0
  -24.8633  -10.9898   19.4987 N   0  0  0  0  0  0  0  0  0  0  0  0
  -25.1112  -15.4621   21.8370 N   0  0  0  0  0  0  0  0  0  0  0  0
  -25.4818  -25.3729   20.3712 N   0  0  0  0  0  0  0  0  0  0  0  0
  -22.7606  -10.0876   22.5684 N   0  0  0  0  0  0  0  0  0  0  0  0
  -23.7337  -11.0071   17.4168 N   0  0  0  0  0  0  0  0  0  0  0  0
  -27.6496  -13.0590   16.4945 N   0  0  0  0  0  0  0  0  0  0  0  0
  -22.7926  -27.5961   21.3901 N   0  0  0  0  0  0  0  0  0  0  0  0
  -28.5673  -26.3664   18.6400 N   0  0  0  0  0  0  0  0  0  0  0  0
  -22.0151  -12.1187   23.6008 N   0  0  0  0  0  0  0  0  0  0  0  0
  -31.8876  -27.3779   19.6499 N   0  3  0  0  0  0  0  0  0  0  0  0
  -28.5315  -17.6120   21.6966 O   0  0  0  0  0  0  0  0  0  0  0  0
  -25.6474  -12.3823   15.6048 O   0  0  0  0  0  0  0  0  0  0  0  0
  -23.7656  -26.9320   19.3815 O   0  0  0  0  0  0  0  0  0  0  0  0
  -26.7858  -27.2915   20.1998 O   0  0  0  0  0  0  0  0  0  0  0  0
  -30.2395  -25.0976   19.6253 O   0  0  0  0  0  0  0  0  0  0  0  0
  -21.3990  -10.0589   24.4417 O   0  0  0  0  0  0  0  0  0  0  0  0
  -31.7847  -14.0351   20.0986 O   0  0  0  0  0  0  0  0  0  0  0  0
  -26.0972  -19.8493   22.5371 O   0  0  0  0  0  0  0  0  0  1  0  0
  -33.9342  -17.4304   16.3229 F   0  0  0  0  0  0  0  0  0  0  0  0
  -32.4676  -16.6330   20.7522 F   0  0  0  0  0  0  0  0  0  0  0  0
  1  2  1  0  0  0  0
  1  5  2  0  0  0  0
  2  6  2  0  0  0  0
  3 10  2  0  0  0  0
  3 18  1  0  0  0  0
  4 11  1  0  0  0  0
  4 18  2  0  0  0  0
  5 20  1  0  0  0  0
  6 22  1  0  0  0  0
  7 12  2  0  0  0  0
  7 21  1  0  0  0  0
  8  9  2  0  0  0  0
  8 24  1  0  0  0  0
  9 25  1  0  0  0  0
 10 27  1  0  0  0  0
 11 27  2  0  0  0  0
 12 28  1  0  0  0  0
 13 14  2  0  0  0  0
 13 29  1  0  0  0  0
 14 30  1  0  0  0  0
 15 23  1  0  0  0  0
 15 28  2  0  0  0  0
 16 25  2  0  0  0  0
 16 26  1  0  0  0  0
 17 30  2  0  0  0  0
 17 31  1  0  0  0  0
 18 32  1  0  0  0  0
 19 32  1  0  0  0  0
 19 33  2  0  0  0  0
 19 37  1  0  0  0  0
 20 22  2  0  0  0  0
 20 42  1  0  0  0  0
 21 23  2  0  0  0  0
 21 43  1  0  0  0  0
 22 53  1  0  0  0  0
 23 44  1  0  0  0  0
 24 26  2  0  0  0  0
 24 56  1  0  0  0  0
 25 70  1  0  0  0  0
 26 77  1  0  0  0  0
 27 85  1  0  0  0  0
 28 86  1  0  0  0  0
 29 31  2  0  0  0  0
 29 85  1  0  0  0  0
 30 87  1  0  0  0  0
 31 88  1  0  0  0  0
 32 68  2  0  0  0  0
 33 69  1  0  0  0  0
 33 73  1  0  0  0  0
 34 35  2  0  0  0  0
 34 36  1  0  0  0  0
 34 64  1  0  0  0  0
 35 57  1  0  0  0  0
 35 70  1  0  0  0  0
 36 45  1  0  0  0  0
 36 79  2  0  0  0  0
 37 74  1  0  0  0  0
 37 80  2  0  0  0  0
 38 54  1  0  0  0  0
 38 75  1  0  0  0  0
 38 81  2  0  0  0  0
 39 65  1  0  0  0  0
 39 71  1  0  0  0  0
 39 82  2  0  0  0  0
 40 66  1  0  0  0  0
 40 76  1  0  0  0  0
 40 83  2  0  0  0  0
 41 72  1  0  0  0  0
 41 77  1  0  0  0  0
 41 84  2  0  0  0  0
 42 46  1  0  0  0  0
 43 54  1  0  0  0  0
 44 71  1  0  0  0  0
 45 50  1  0  0  0  0
 46 48  1  0  0  0  0
 47 49  1  0  0  0  0
 47 51  1  0  0  0  0
 48 53  1  0  0  0  0
 49 55  1  0  0  0  0
 50 70  1  0  0  0  0
 51 72  1  0  0  0  0
 52 55  1  0  0  0  0
 52 72  1  0  0  0  0
 53 75  1  0  0  0  0
 54 71  1  0  0  0  0
 55 69  1  0  0  0  0
 58 66  1  0  0  0  0
 59 67  1  0  0  0  0
 60 67  1  0  0  0  0
 61 67  1  0  0  0  0
 62 77  1  0  0  0  0
 63 78  1  0  0  0  0
 64 86  1  0  0  0  0
 65 67  1  0  0  0  0
 65 76  1  0  0  0  0
 66 78  1  0  0  0  0
 68 69  1  0  0  0  0
M  CHG  1  78   1
M  ISO  4  41 100  64 101  77 100  86 101
M  END
> <Batch ID>
0108

> <Smiles>
CNC(C)C(=O)NC(C(=O)N1Cc2cc([101O:1][101CH2:1]C3=C(C)N(c4ccc(C)c([100N:0](C)[100C:0](=O)N5CCCC(n6nc(-c7ccc(Oc8ccc(F)cc8F)cc7)c(C(N)=O)c6N)C5)c4)CCC3=O)ccc2CC1C(=O)NC1CCCc2ccccc21)C(C)(C)C

> <Shape>
0.227

> <Color>
0.086

> <Negative vol penalty>
0.000

$$$$

  -OEChem-04052301203D

 87 95  0     1  0  0  0  0  0999 V2000
  -31.9492  -14.8816   21.0012 C   0  0  0  0  0  0  0  0  0  0  0  0
  -31.0247  -15.8908   20.7520 C   0  0  0  0  0  0  0  0  0  0  0  0
  -29.9530  -28.2080   21.4943 C   0  0  0  0  0  0  0  0  0  0  0  0
  -28.3554  -28.0430   19.6894 C   0  0  0  0  0  0  0  0  0  0  0  0
  -31.5880  -13.5470   20.8213 C   0  0  0  0  0  0  0  0  0  0  0  0
  -29.7387  -15.5661   20.3216 C   0  0  0  0  0  0  0  0  0  0  0  0
  -26.1554  -18.1908   22.7540 C   0  0  0  0  0  0  0  0  0  0  0  0
  -30.6674  -27.1358   20.9600 C   0  0  0  0  0  0  0  0  0  0  0  0
  -29.0699  -26.9708   19.1550 C   0  0  0  0  0  0  0  0  0  0  0  0
  -25.9490  -19.5098   22.3522 C   0  0  0  0  0  0  0  0  0  0  0  0
  -29.4131  -23.6608   19.7523 C   0  0  0  0  0  0  0  0  0  0  0  0
  -28.6890  -22.5469   19.3277 C   0  0  0  0  0  0  0  0  0  0  0  0
  -18.5743  -28.3183   23.2123 C   0  0  0  0  0  0  0  0  0  0  0  0
  -24.0373  -18.8100   21.0581 C   0  0  0  0  0  0  0  0  0  0  0  0
  -20.2507  -27.5382   21.6573 C   0  0  0  0  0  0  0  0  0  0  0  0
  -29.5469  -22.8429   17.0886 C   0  0  0  0  0  0  0  0  0  0  0  0
  -28.7969  -28.6616   20.8591 C   0  0  0  0  0  0  0  0  0  0  0  0
  -17.9848  -27.0542   23.2110 C   0  0  0  0  0  0  0  0  0  0  0  0
  -28.2372  -31.1360   21.1272 C   0  0  0  0  0  0  0  0  0  0  0  0
  -30.2940  -13.2053   20.3978 C   0  0  0  0  0  0  0  0  0  0  0  0
  -25.3094  -17.1681   22.3013 C   0  0  0  0  0  0  0  0  0  0  0  0
  -29.3603  -14.2257   20.1346 C   0  0  0  0  0  0  0  0  0  0  0  0
  -24.2336  -17.4792   21.4576 C   0  0  0  0  0  0  0  0  0  0  0  0
  -19.7073  -28.5604   22.4354 C   0  0  0  0  0  0  0  0  0  0  0  0
  -30.2259  -26.5173   19.7903 C   0  0  0  0  0  0  0  0  0  0  0  0
  -24.8915  -19.8191   21.5018 C   0  0  0  0  0  0  0  0  0  0  0  0
  -30.2041  -24.3659   18.8451 C   0  0  0  0  0  0  0  0  0  0  0  0
  -19.6613  -26.2740   21.6560 C   0  0  0  0  0  0  0  0  0  0  0  0
  -18.5283  -26.0320   22.4328 C   0  0  0  0  0  0  0  0  0  0  0  0
  -28.7559  -22.1379   17.9958 C   0  0  0  0  0  0  0  0  0  0  0  0
  -30.2710  -23.9569   17.5133 C   0  0  0  0  0  0  0  0  0  0  0  0
  -28.0581  -29.7688   21.4109 C   0  0  0  0  0  0  0  0  0  0  0  0
  -27.2972  -31.7730   21.8999 C   0  0  0  0  0  0  0  0  0  0  0  0
  -16.7741  -27.0087   25.3434 C   0  0  0  0  0  0  0  0  0  0  0  0
  -16.8023  -26.8279   24.0315 C   0  0  0  0  0  0  0  0  0  0  0  0
  -29.1698  -31.7732   20.2440 C   0  0  0  0  0  0  0  0  0  0  0  0
  -25.7035  -14.5344   20.5660 C   0  0  0  0  0  0  0  0  0  0  0  0
  -22.5963  -14.0245   21.3452 C   0  0  0  0  0  0  0  0  0  0  0  0
  -19.5967  -15.3393   22.3047 C   0  0  0  0  0  0  0  0  0  0  0  0
  -22.0607  -30.0249   24.2181 C   0  0  0  0  0  0  0  0  0  0  0  0
  -29.9644  -11.7510   20.1720 C   0  0  0  0  0  0  0  0  0  0  0  0
  -25.5295  -15.7544   22.7653 C   0  0  0  0  0  0  0  0  0  0  0  0
  -23.2845  -16.4210   20.9597 C   0  0  0  0  0  0  0  0  0  0  0  0
  -28.4664  -11.4740   20.0738 C   0  0  0  0  0  0  0  0  0  0  0  0
  -24.8708  -31.2974   25.9959 C   0  0  0  0  0  0  0  0  0  0  0  0
  -27.7960  -12.4855   19.1496 C   0  0  0  0  0  0  0  0  0  0  0  0
  -26.0225  -31.1733   24.9968 C   0  0  0  0  0  0  0  0  0  0  0  0
  -23.8947  -30.1287   25.8800 C   0  0  0  0  0  0  0  0  0  0  0  0
  -24.5200  -29.7696   23.5234 C   0  0  0  0  0  0  0  0  0  0  0  0
  -27.9480  -13.9123   19.6905 C   0  0  1  0  0  0  0  0  0  0  0  0
  -24.9145  -14.7165   21.8316 C   0  0  1  0  0  0  0  0  0  0  0  0
  -25.5007  -30.9541   23.5640 C   0  0  2  0  0  0  0  0  0  0  0  0
  -17.2324  -14.6786   22.8254 C   0  0  0  0  0  0  0  0  0  0  0  0
  -22.0305  -13.7085   18.3636 C   0  0  0  0  0  0  0  0  0  0  0  0
  -19.5955  -14.0034   18.8654 C   0  0  0  0  0  0  0  0  0  0  0  0
  -20.8407  -12.0694   19.8307 C   0  0  0  0  0  0  0  0  0  0  0  0
  -19.8069  -16.3375   25.0829 C   0  0  0  0  0  0  0  0  0  0  0  0
  -18.4344  -23.8565   23.3888 C   0  0  0  0  0  0  0  0  0  0  0  0
  -20.3370  -29.9123   22.4362 C   0  0  0  0  0  0  0  0  0  0  0  0
  -23.1679  -22.9816   21.1103 C   0  0  0  0  0  0  0  0  0  0  0  0
  -21.7374  -23.4384   20.8460 C   0  0  0  0  0  0  0  0  0  0  0  0
  -23.3437  -21.4950   20.8299 C   0  0  0  0  0  0  0  0  0  1  0  0
  -21.5502  -24.9144   21.1669 C   0  0  0  0  0  0  0  0  0  0  0  0
  -21.2663  -14.3925   20.7330 C   0  0  1  0  0  0  0  0  0  0  0  0
  -18.6203  -14.9318   23.3933 C   0  0  2  0  0  0  0  0  0  0  0  0
  -20.9521  -13.5633   19.4558 C   0  0  0  0  0  0  0  0  0  0  0  0
  -27.0813  -29.5492   22.2950 N   0  0  0  0  0  0  0  0  0  0  0  0
  -26.6381  -30.7870   22.5735 N   0  0  0  0  0  0  0  0  0  0  0  0
  -23.5452  -15.0527   21.4364 N   0  0  0  0  0  0  0  0  0  0  0  0
  -23.4365  -29.9759   24.4971 N   0  0  0  0  0  0  0  0  0  0  0  0
  -26.9784  -33.0747   22.0621 N   0  0  0  0  0  0  0  0  0  0  0  0
  -30.0656  -30.9697   19.5256 N   0  0  0  0  0  0  0  0  0  0  0  0
  -27.0136  -14.1456   20.7708 N   0  0  0  0  0  0  0  0  0  0  0  0
  -20.2756  -14.2529   21.7948 N   0  0  0  0  0  0  0  0  0  0  0  0
  -21.7124  -29.8779   22.8810 N   0  0  0  0  0  0  0  0  0  0  0  0
  -18.5178  -16.0027   24.4246 N   0  3  0  0  0  0  0  0  0  0  0  0
  -29.2186  -33.0193   20.1088 O   0  0  0  0  0  0  0  0  0  0  0  0
  -25.1633  -14.7305   19.4836 O   0  0  0  0  0  0  0  0  0  0  0  0
  -22.7837  -12.8693   21.7348 O   0  0  0  0  0  0  0  0  0  0  0  0
  -19.7399  -16.5043   21.9404 O   0  0  0  0  0  0  0  0  0  0  0  0
  -21.2064  -30.1930   25.0950 O   0  0  0  0  0  0  0  0  0  0  0  0
  -30.9230  -25.4711   19.2685 O   0  0  0  0  0  0  0  0  0  0  0  0
  -17.9618  -24.7903   22.4217 O   0  0  0  0  0  0  0  0  0  0  0  0
  -24.6882  -21.1056   21.1076 O   0  0  0  0  0  0  0  0  0  1  0  0
  -20.2058  -25.2790   20.8863 O   0  0  0  0  0  0  0  0  0  0  0  0
  -28.0617  -21.0672   17.5885 F   0  0  0  0  0  0  0  0  0  0  0  0
  -31.0300  -24.6295   16.6373 F   0  0  0  0  0  0  0  0  0  0  0  0
  1  2  1  0  0  0  0
  1  5  2  0  0  0  0
  2  6  2  0  0  0  0
  3  8  2  0  0  0  0
  3 17  1  0  0  0  0
  4  9  1  0  0  0  0
  4 17  2  0  0  0  0
  5 20  1  0  0  0  0
  6 22  1  0  0  0  0
  7 10  2  0  0  0  0
  7 21  1  0  0  0  0
  8 25  1  0  0  0  0
  9 25  2  0  0  0  0
 10 26  1  0  0  0  0
 11 12  2  0  0  0  0
 11 27  1  0  0  0  0
 12 30  1  0  0  0  0
 13 18  1  0  0  0  0
 13 24  2  0  0  0  0
 14 23  1  0  0  0  0
 14 26  2  0  0  0  0
 15 24  1  0  0  0  0
 15 28  2  0  0  0  0
 16 30  2  0  0  0  0
 16 31  1  0  0  0  0
 17 32  1  0  0  0  0
 18 29  2  0  0  0  0
 18 35  1  0  0  0  0
 19 32  1  0  0  0  0
 19 33  2  0  0  0  0
 19 36  1  0  0  0  0
 20 22  2  0  0  0  0
 20 41  1  0  0  0  0
 21 23  2  0  0  0  0
 21 42  1  0  0  0  0
 22 50  1  0  0  0  0
 23 43  1  0  0  0  0
 24 59  1  0  0  0  0
 25 82  1  0  0  0  0
 26 84  1  0  0  0  0
 27 31  2  0  0  0  0
 27 82  1  0  0  0  0
 28 29  1  0  0  0  0
 28 85  1  0  0  0  0
 29 83  1  0  0  0  0
 30 86  1  0  0  0  0
 31 87  1  0  0  0  0
 32 67  2  0  0  0  0
 33 68  1  0  0  0  0
 33 71  1  0  0  0  0
 34 35  2  0  0  0  0
 36 72  1  0  0  0  0
 36 77  2  0  0  0  0
 37 51  1  0  0  0  0
 37 73  1  0  0  0  0
 37 78  2  0  0  0  0
 38 64  1  0  0  0  0
 38 69  1  0  0  0  0
 38 79  2  0  0  0  0
 39 65  1  0  0  0  0
 39 74  1  0  0  0  0
 39 80  2  0  0  0  0
 40 70  1  0  0  0  0
 40 75  1  0  0  0  0
 40 81  2  0  0  0  0
 41 44  1  0  0  0  0
 42 51  1  0  0  0  0
 43 69  1  0  0  0  0
 44 46  1  0  0  0  0
 45 47  1  0  0  0  0
 45 48  1  0  0  0  0
 46 50  1  0  0  0  0
 47 52  1  0  0  0  0
 48 70  1  0  0  0  0
 49 52  1  0  0  0  0
 49 70  1  0  0  0  0
 50 73  1  0  0  0  0
 51 69  1  0  0  0  0
 52 68  1  0  0  0  0
 53 65  1  0  0  0  0
 54 66  1  0  0  0  0
 55 66  1  0  0  0  0
 56 66  1  0  0  0  0
 57 76  1  0  0  0  0
 58 83  1  0  0  0  0
 59 75  1  0  0  0  0
 60 61  1  0  0  0  0
 60 62  1  0  0  0  0
 61 63  1  0  0  0  0
 62 84  1  0  0  0  0
 63 85  1  0  0  0  0
 64 66  1  0  0  0  0
 64 74  1  0  0  0  0
 65 76  1  0  0  0  0
 67 68  1  0  0  0  0
M  CHG  1  76   1
M  ISO  4  40 100  62 101  75 100  84 101
M  END
> <Batch ID>
0108

> <Smiles>
C=Cc1cc(C[100NH:0][100C:0](=O)N2CCCC(n3nc(-c4ccc(Oc5ccc(F)cc5F)cc4)c(C(N)=O)c3N)C2)cc(OCCC[101CH2:1][101O:1]c2ccc3c(c2)CN(C(=O)C(NC(=O)C(C)NC)C(C)(C)C)C(C(=O)NC2CCCc4ccccc42)C3)c1OC

> <Shape>
0.272

> <Color>
0.067

> <Negative vol penalty>
0.000

$$$$

  -OEChem-04052301203D

 87 96  0     1  0  0  0  0  0999 V2000
  -28.6826  -35.3163   25.1512 C   0  0  0  0  0  0  0  0  0  0  0  0
  -28.8708  -34.5018   24.0391 C   0  0  0  0  0  0  0  0  0  0  0  0
  -24.7902  -13.7277   21.0306 C   0  0  0  0  0  0  0  0  0  0  0  0
  -26.7926  -12.9547   19.9216 C   0  0  0  0  0  0  0  0  0  0  0  0
  -27.5347  -23.7822   21.0065 C   0  0  0  0  0  0  0  0  0  0  0  0
  -27.9246  -34.8592   26.2284 C   0  0  0  0  0  0  0  0  0  0  0  0
  -28.3019  -33.2292   24.0042 C   0  0  0  0  0  0  0  0  0  0  0  0
  -26.0905  -30.3189   19.0904 C   0  0  0  0  0  0  0  0  0  0  0  0
  -28.4346  -24.5555   20.2730 C   0  0  0  0  0  0  0  0  0  0  0  0
  -24.1464  -12.5355   20.6993 C   0  0  0  0  0  0  0  0  0  0  0  0
  -26.1489  -11.7624   19.5903 C   0  0  0  0  0  0  0  0  0  0  0  0
  -26.6343  -29.3460   18.2528 C   0  0  0  0  0  0  0  0  0  0  0  0
  -24.0775   -9.3467   21.8216 C   0  0  0  0  0  0  0  0  0  0  0  0
  -23.3325   -8.7140   22.8168 C   0  0  0  0  0  0  0  0  0  0  0  0
  -25.5312  -27.6298   19.5400 C   0  0  0  0  0  0  0  0  0  0  0  0
  -27.3511  -23.8730   18.2242 C   0  0  0  0  0  0  0  0  0  0  0  0
  -21.3463   -8.9118   21.4556 C   0  0  0  0  0  0  0  0  0  0  0  0
  -26.1133  -13.9374   20.6416 C   0  0  0  0  0  0  0  0  0  0  0  0
  -26.5431  -23.0543   20.3488 C   0  0  0  0  0  0  0  0  0  0  0  0
  -27.5262  -15.4375   22.1453 C   0  0  0  0  0  0  0  0  0  0  0  0
  -27.3381  -33.5841   26.2025 C   0  0  0  0  0  0  0  0  0  0  0  0
  -25.2703  -29.9531   20.1675 C   0  0  0  0  0  0  0  0  0  0  0  0
  -27.5365  -32.7541   25.0826 C   0  0  0  0  0  0  0  0  0  0  0  0
  -24.9761  -28.6000   20.3882 C   0  0  0  0  0  0  0  0  0  0  0  0
  -28.3427  -24.6010   18.8819 C   0  0  0  0  0  0  0  0  0  0  0  0
  -26.4513  -23.0997   18.9577 C   0  0  0  0  0  0  0  0  0  0  0  0
  -24.8258  -11.5528   19.9792 C   0  0  0  0  0  0  0  0  0  0  0  0
  -26.3571  -28.0011   18.4792 C   0  0  0  0  0  0  0  0  0  0  0  0
  -23.4568   -9.7620   20.6434 C   0  0  0  0  0  0  0  0  0  0  0  0
  -21.9669   -8.4965   22.6338 C   0  0  0  0  0  0  0  0  0  0  0  0
  -22.0912   -9.5445   20.4604 C   0  0  0  0  0  0  0  0  0  0  0  0
  -26.7786  -15.1690   20.9830 C   0  0  0  0  0  0  0  0  0  0  0  0
  -27.9441  -16.7369   21.9922 C   0  0  0  0  0  0  0  0  0  0  0  0
  -30.5995  -25.6885   18.4903 C   0  0  0  0  0  0  0  0  0  0  0  0
  -24.3068  -22.4193   21.1303 C   0  0  0  0  0  0  0  0  0  0  0  0
  -25.6206  -22.2577   21.1494 C   0  0  0  0  0  0  0  0  0  0  0  0
  -27.8170  -14.5882   23.2633 C   0  0  0  0  0  0  0  0  0  0  0  0
  -25.4424  -30.2679   23.3258 C   0  0  0  0  0  0  0  0  0  0  0  0
  -22.4437  -29.0352   23.2212 C   0  0  0  0  0  0  0  0  0  0  0  0
  -20.1339  -27.1733   21.5347 C   0  0  0  0  0  0  0  0  0  0  0  0
  -25.3554  -20.9513   18.3431 C   0  0  0  0  0  0  0  0  0  0  0  0
  -26.5665  -33.1154   27.4106 C   0  0  0  0  0  0  0  0  0  0  0  0
  -24.6698  -31.0164   21.0457 C   0  0  0  0  0  0  0  0  0  0  0  0
  -24.0851  -28.1564   21.5186 C   0  0  0  0  0  0  0  0  0  0  0  0
  -31.1930  -26.5361   17.3899 C   0  0  0  0  0  0  0  0  0  0  0  0
  -25.6858  -31.8990   27.1366 C   0  0  0  0  0  0  0  0  0  0  0  0
  -30.2715  -26.2817   16.2121 C   0  0  0  0  0  0  0  0  0  0  0  0
  -28.8432  -19.6401   18.2088 C   0  0  0  0  0  0  0  0  0  0  0  0
  -26.4636  -30.8407   26.3608 C   0  0  0  0  0  0  0  0  0  0  0  0
  -28.9068  -18.5922   19.3213 C   0  0  0  0  0  0  0  0  0  0  0  0
  -27.8877  -20.7805   18.5395 C   0  0  0  0  0  0  0  0  0  0  0  0
  -26.3888  -18.9323   19.3205 C   0  0  0  0  0  0  0  0  0  0  0  0
  -26.9149  -31.3770   24.9969 C   0  0  1  0  0  0  0  0  0  0  0  0
  -24.2644  -30.4963   22.4214 C   0  0  1  0  0  0  0  0  0  0  0  0
  -27.6108  -18.5147   20.1496 C   0  0  1  0  0  0  0  0  0  0  0  0
  -28.9156  -26.0281   16.8617 C   0  0  2  0  0  0  0  0  0  0  0  0
  -17.7844  -26.3108   21.7185 C   0  0  0  0  0  0  0  0  0  0  0  0
  -23.3784  -26.9206   25.2123 C   0  0  0  0  0  0  0  0  0  0  0  0
  -21.3478  -25.5762   24.6314 C   0  0  0  0  0  0  0  0  0  0  0  0
  -21.0939  -27.8355   25.6579 C   0  0  0  0  0  0  0  0  0  0  0  0
  -24.6187  -23.0583   17.2550 C   0  0  0  0  0  0  0  0  0  0  0  0
  -19.2850  -28.6310   19.1030 C   0  0  0  0  0  0  0  0  0  0  0  0
  -28.1498  -27.3375   17.0645 C   0  0  0  0  0  0  0  0  0  1  0  0
  -21.8578  -27.6444   23.2553 C   0  0  1  0  0  0  0  0  0  0  0  0
  -18.6744  -27.4334   21.2081 C   0  0  2  0  0  0  0  0  0  0  0  0
  -21.9379  -27.0021   24.6690 C   0  0  0  0  0  0  0  0  0  0  0  0
  -26.7229  -16.2139   20.1529 N   0  0  0  0  0  0  0  0  0  0  0  0
  -27.4407  -17.1516   20.7944 N   0  0  0  0  0  0  0  0  0  0  0  0
  -29.2673  -25.3945   18.1295 N   0  0  0  0  0  0  0  0  0  0  0  0
  -23.5270  -29.2331   22.3534 N   0  0  0  0  0  0  0  0  0  0  0  0
  -26.5211  -20.2917   18.7857 N   0  0  0  0  0  0  0  0  0  0  0  0
  -28.6892  -17.5537   22.7667 N   0  0  0  0  0  0  0  0  0  0  0  0
  -27.3097  -13.2817   23.2596 N   0  0  0  0  0  0  0  0  0  0  0  0
  -25.8092  -31.3775   24.0630 N   0  0  0  0  0  0  0  0  0  0  0  0
  -20.5027  -27.7592   22.7271 N   0  0  0  0  0  0  0  0  0  0  0  0
  -25.4359  -22.3568   18.2485 N   0  0  0  0  0  0  0  0  0  0  0  0
  -18.4860  -27.5493   19.7343 N   0  3  0  0  0  0  0  0  0  0  0  0
  -31.2315  -25.3882   19.4927 O   0  0  0  0  0  0  0  0  0  0  0  0
  -28.4925  -14.9817   24.2443 O   0  0  0  0  0  0  0  0  0  0  0  0
  -25.9779  -29.1660   23.3538 O   0  0  0  0  0  0  0  0  0  0  0  0
  -21.9536  -29.9156   23.9329 O   0  0  0  0  0  0  0  0  0  0  0  0
  -20.8718  -26.5129   20.8068 O   0  0  0  0  0  0  0  0  0  0  0  0
  -24.3231  -20.3284   18.0667 O   0  0  0  0  0  0  0  0  0  0  0  0
  -24.1980  -10.3892   19.6560 O   0  0  0  0  0  0  0  0  0  0  0  0
  -26.8871  -27.0494   17.6636 O   0  0  0  0  0  0  0  0  0  1  0  0
  -21.2520   -7.8876   23.5889 F   0  0  0  0  0  0  0  0  0  0  0  0
  -21.4897   -9.9401   19.3302 F   0  0  0  0  0  0  0  0  0  0  0  0
  1  2  1  0  0  0  0
  1  6  2  0  0  0  0
  2  7  2  0  0  0  0
  3 10  2  0  0  0  0
  3 18  1  0  0  0  0
  4 11  1  0  0  0  0
  4 18  2  0  0  0  0
  5  9  2  0  0  0  0
  5 19  1  0  0  0  0
  6 21  1  0  0  0  0
  7 23  1  0  0  0  0
  8 12  2  0  0  0  0
  8 22  1  0  0  0  0
  9 25  1  0  0  0  0
 10 27  1  0  0  0  0
 11 27  2  0  0  0  0
 12 28  1  0  0  0  0
 13 14  2  0  0  0  0
 13 29  1  0  0  0  0
 14 30  1  0  0  0  0
 15 24  1  0  0  0  0
 15 28  2  0  0  0  0
 16 25  2  0  0  0  0
 16 26  1  0  0  0  0
 17 30  2  0  0  0  0
 17 31  1  0  0  0  0
 18 32  1  0  0  0  0
 19 26  2  0  0  0  0
 19 36  1  0  0  0  0
 20 32  1  0  0  0  0
 20 33  2  0  0  0  0
 20 37  1  0  0  0  0
 21 23  2  0  0  0  0
 21 42  1  0  0  0  0
 22 24  2  0  0  0  0
 22 43  1  0  0  0  0
 23 53  1  0  0  0  0
 24 44  1  0  0  0  0
 25 69  1  0  0  0  0
 26 76  1  0  0  0  0
 27 84  1  0  0  0  0
 28 85  1  0  0  0  0
 29 31  2  0  0  0  0
 29 84  1  0  0  0  0
 30 86  1  0  0  0  0
 31 87  1  0  0  0  0
 32 67  2  0  0  0  0
 33 68  1  0  0  0  0
 33 72  1  0  0  0  0
 34 45  1  0  0  0  0
 34 69  1  0  0  0  0
 34 78  2  0  0  0  0
 35 36  2  0  0  0  0
 37 73  1  0  0  0  0
 37 79  2  0  0  0  0
 38 54  1  0  0  0  0
 38 74  1  0  0  0  0
 38 80  2  0  0  0  0
 39 64  1  0  0  0  0
 39 70  1  0  0  0  0
 39 81  2  0  0  0  0
 40 65  1  0  0  0  0
 40 75  1  0  0  0  0
 40 82  2  0  0  0  0
 41 71  1  0  0  0  0
 41 76  1  0  0  0  0
 41 83  2  0  0  0  0
 42 46  1  0  0  0  0
 43 54  1  0  0  0  0
 44 70  1  0  0  0  0
 45 47  1  0  0  0  0
 46 49  1  0  0  0  0
 47 56  1  0  0  0  0
 48 50  1  0  0  0  0
 48 51  1  0  0  0  0
 49 53  1  0  0  0  0
 50 55  1  0  0  0  0
 51 71  1  0  0  0  0
 52 55  1  0  0  0  0
 52 71  1  0  0  0  0
 53 74  1  0  0  0  0
 54 70  1  0  0  0  0
 55 68  1  0  0  0  0
 56 63  1  0  0  0  0
 56 69  1  0  0  0  0
 57 65  1  0  0  0  0
 58 66  1  0  0  0  0
 59 66  1  0  0  0  0
 60 66  1  0  0  0  0
 61 76  1  0  0  0  0
 62 77  1  0  0  0  0
 63 85  1  0  0  0  0
 64 66  1  0  0  0  0
 64 75  1  0  0  0  0
 65 77  1  0  0  0  0
 67 68  1  0  0  0  0
M  CHG  1  77   1
M  ISO  4  41 100  63 101  76 100  85 101
M  END
> <Batch ID>
0108

> <Smiles>
C=Cc1ccc(N2C(=O)CCC2[101CH2:1][101O:1]c2ccc3c(c2)CN(C(=O)C(NC(=O)C(C)NC)C(C)(C)C)C(C(=O)NC2CCCc4ccccc42)C3)cc1[100N:0](C)[100C:0](=O)N1CCCC(n2nc(-c3ccc(Oc4ccc(F)cc4F)cc3)c(C(N)=O)c2N)C1

> <Shape>
0.289

> <Color>
0.063

> <Negative vol penalty>
0.000

$$$$

  -OEChem-04052301203D

 84 92  0     1  0  0  0  0  0999 V2000
  -31.5469  -25.5591   17.2735 C   0  0  0  0  0  0  0  0  0  0  0  0
  -30.1786  -25.3307   17.3777 C   0  0  0  0  0  0  0  0  0  0  0  0
  -25.8061  -14.2545   21.6674 C   0  0  0  0  0  0  0  0  0  0  0  0
  -24.9735  -15.2038   19.6076 C   0  0  0  0  0  0  0  0  0  0  0  0
  -32.2301  -26.1815   18.3175 C   0  0  0  0  0  0  0  0  0  0  0  0
  -29.4927  -25.7236   18.5264 C   0  0  0  0  0  0  0  0  0  0  0  0
  -23.7463  -27.8168   18.8485 C   0  0  0  0  0  0  0  0  0  0  0  0
  -24.7786  -13.3115   21.6481 C   0  0  0  0  0  0  0  0  0  0  0  0
  -23.9459  -14.2608   19.5883 C   0  0  0  0  0  0  0  0  0  0  0  0
  -22.5397  -27.1986   19.1734 C   0  0  0  0  0  0  0  0  0  0  0  0
  -24.0936  -10.4059   20.0603 C   0  0  0  0  0  0  0  0  0  0  0  0
  -24.4255   -9.0798   20.3375 C   0  0  0  0  0  0  0  0  0  0  0  0
  -23.7948  -23.0064   21.0174 C   0  0  0  0  0  0  0  0  0  0  0  0
  -22.7584  -27.9795   21.4453 C   0  0  0  0  0  0  0  0  0  0  0  0
  -21.8988  -22.1922   19.7608 C   0  0  0  0  0  0  0  0  0  0  0  0
  -22.9198   -9.0979   22.2268 C   0  0  0  0  0  0  0  0  0  0  0  0
  -25.9036  -15.2007   20.6471 C   0  0  0  0  0  0  0  0  0  0  0  0
  -24.6590  -22.4413   20.0797 C   0  0  0  0  0  0  0  0  0  0  0  0
  -28.2437  -16.0514   20.0923 C   0  0  0  0  0  0  0  0  0  0  0  0
  -31.5505  -26.5909   19.4756 C   0  0  0  0  0  0  0  0  0  0  0  0
  -24.4747  -28.5130   19.8238 C   0  0  0  0  0  0  0  0  0  0  0  0
  -30.1676  -26.3509   19.5875 C   0  0  0  0  0  0  0  0  0  0  0  0
  -23.9727  -28.6078   21.1296 C   0  0  0  0  0  0  0  0  0  0  0  0
  -22.7629  -21.6271   18.8230 C   0  0  0  0  0  0  0  0  0  0  0  0
  -24.1431  -21.7516   18.9825 C   0  0  0  0  0  0  0  0  0  0  0  0
  -23.8485  -13.3146   20.6086 C   0  0  0  0  0  0  0  0  0  0  0  0
  -22.0470  -27.2774   20.4727 C   0  0  0  0  0  0  0  0  0  0  0  0
  -23.1749  -11.0780   20.8664 C   0  0  0  0  0  0  0  0  0  0  0  0
  -22.4147  -22.8818   20.8581 C   0  0  0  0  0  0  0  0  0  0  0  0
  -23.8386   -8.4257   21.4207 C   0  0  0  0  0  0  0  0  0  0  0  0
  -22.5879  -10.4240   21.9496 C   0  0  0  0  0  0  0  0  0  0  0  0
  -26.9645  -16.1755   20.6668 C   0  0  0  0  0  0  0  0  0  0  0  0
  -28.8686  -17.2387   20.3859 C   0  0  0  0  0  0  0  0  0  0  0  0
  -26.0957  -22.5892   20.2777 C   0  0  0  0  0  0  0  0  0  0  0  0
  -28.8158  -14.9605   19.3587 C   0  0  0  0  0  0  0  0  0  0  0  0
  -26.6775  -22.6953   21.6354 C   0  0  0  0  0  0  0  0  0  0  0  0
  -27.3574  -28.1931   21.1243 C   0  0  0  0  0  0  0  0  0  0  0  0
  -26.5922  -30.9986   22.5616 C   0  0  0  0  0  0  0  0  0  0  0  0
  -24.1562  -33.1343   23.6346 C   0  0  0  0  0  0  0  0  0  0  0  0
  -32.3402  -27.2173   20.5975 C   0  0  0  0  0  0  0  0  0  0  0  0
  -25.7614  -29.1970   19.4508 C   0  0  0  0  0  0  0  0  0  0  0  0
  -24.7063  -29.3603   22.2085 C   0  0  0  0  0  0  0  0  0  0  0  0
  -31.4719  -27.9407   21.6237 C   0  0  0  0  0  0  0  0  0  0  0  0
  -28.9352  -20.7467   23.6260 C   0  0  0  0  0  0  0  0  0  0  0  0
  -30.2789  -27.0758   22.0181 C   0  0  0  0  0  0  0  0  0  0  0  0
  -28.7723  -19.3347   23.0645 C   0  0  0  0  0  0  0  0  0  0  0  0
  -27.6209  -21.5195   23.5837 C   0  0  0  0  0  0  0  0  0  0  0  0
  -26.8372  -20.1703   21.6565 C   0  0  0  0  0  0  0  0  0  0  0  0
  -29.3841  -26.7849   20.8072 C   0  0  1  0  0  0  0  0  0  0  0  0
  -26.6754  -29.4439   20.6470 C   0  0  1  0  0  0  0  0  0  0  0  0
  -28.1503  -19.3685   21.6571 C   0  0  2  0  0  0  0  0  0  0  0  0
  -22.1807  -20.8939   17.6583 C   0  0  0  0  0  0  0  0  0  0  0  0
  -23.8380  -35.3301   24.8069 C   0  0  0  0  0  0  0  0  0  0  0  0
  -27.2481  -29.6676   25.2277 C   0  0  0  0  0  0  0  0  0  0  0  0
  -26.0317  -31.5297   26.3771 C   0  0  0  0  0  0  0  0  0  0  0  0
  -28.0592  -32.0233   25.0103 C   0  0  0  0  0  0  0  0  0  0  0  0
  -22.7885  -34.3186   21.2925 C   0  0  0  0  0  0  0  0  0  0  0  0
  -19.7845  -25.0120   22.1640 C   0  0  0  0  0  0  0  0  0  0  0  0
  -20.7219  -26.2090   22.1336 C   0  0  0  0  0  0  0  0  0  1  0  0
  -20.2965  -23.8664   21.3051 C   0  0  0  0  0  0  0  0  0  0  0  0
  -25.9055  -31.3883   23.8483 C   0  0  1  0  0  0  0  0  0  0  0  0
  -23.9832  -34.6327   23.4634 C   0  0  2  0  0  0  0  0  0  0  0  0
  -26.7981  -31.1363   25.0962 C   0  0  0  0  0  0  0  0  0  0  0  0
  -26.7859  -17.3490   21.2792 N   0  0  0  0  0  0  0  0  0  0  0  0
  -26.9502  -22.6353   19.2939 N   0  0  0  0  0  0  0  0  0  0  0  0
  -27.9612  -17.9731   21.0913 N   0  0  0  0  0  0  0  0  0  0  0  0
  -27.0399  -21.5012   22.2428 N   0  0  0  0  0  0  0  0  0  0  0  0
  -25.9630  -30.0068   21.7959 N   0  0  0  0  0  0  0  0  0  0  0  0
  -25.0173  -21.1768   18.0302 N   0  0  0  0  0  0  0  0  0  0  0  0
  -30.1003  -17.7158   20.1070 N   0  0  0  0  0  0  0  0  0  0  0  0
  -28.0357  -13.8155   19.1472 N   0  0  0  0  0  0  0  0  0  0  0  0
  -28.5621  -27.9352   20.4983 N   0  0  0  0  0  0  0  0  0  0  0  0
  -25.4868  -32.7760   23.6835 N   0  0  0  0  0  0  0  0  0  0  0  0
  -22.7698  -34.9243   22.6489 N   0  3  0  0  0  0  0  0  0  0  0  0
  -29.9900  -14.9933   18.9183 O   0  0  0  0  0  0  0  0  0  0  0  0
  -26.7766  -23.8318   22.0793 O   0  0  0  0  0  0  0  0  0  0  0  0
  -26.8306  -27.5131   21.9971 O   0  0  0  0  0  0  0  0  0  0  0  0
  -27.6443  -31.5589   22.2439 O   0  0  0  0  0  0  0  0  0  0  0  0
  -23.2059  -32.3596   23.7205 O   0  0  0  0  0  0  0  0  0  0  0  0
  -22.8458  -12.3943   20.5894 O   0  0  0  0  0  0  0  0  0  0  0  0
  -20.8698  -26.6743   20.7927 O   0  0  0  0  0  0  0  0  0  1  0  0
  -21.5659  -23.4379   21.7794 O   0  0  0  0  0  0  0  0  0  0  0  0
  -24.1563   -7.1518   21.6859 F   0  0  0  0  0  0  0  0  0  0  0  0
  -21.7037  -11.0642   22.7269 F   0  0  0  0  0  0  0  0  0  0  0  0
  1  2  1  0  0  0  0
  1  5  2  0  0  0  0
  2  6  2  0  0  0  0
  3  8  2  0  0  0  0
  3 17  1  0  0  0  0
  4  9  1  0  0  0  0
  4 17  2  0  0  0  0
  5 20  1  0  0  0  0
  6 22  1  0  0  0  0
  7 10  2  0  0  0  0
  7 21  1  0  0  0  0
  8 26  1  0  0  0  0
  9 26  2  0  0  0  0
 10 27  1  0  0  0  0
 11 12  2  0  0  0  0
 11 28  1  0  0  0  0
 12 30  1  0  0  0  0
 13 18  1  0  0  0  0
 13 29  2  0  0  0  0
 14 23  1  0  0  0  0
 14 27  2  0  0  0  0
 15 24  2  0  0  0  0
 15 29  1  0  0  0  0
 16 30  2  0  0  0  0
 16 31  1  0  0  0  0
 17 32  1  0  0  0  0
 18 25  2  0  0  0  0
 18 34  1  0  0  0  0
 19 32  1  0  0  0  0
 19 33  2  0  0  0  0
 19 35  1  0  0  0  0
 20 22  2  0  0  0  0
 20 40  1  0  0  0  0
 21 23  2  0  0  0  0
 21 41  1  0  0  0  0
 22 49  1  0  0  0  0
 23 42  1  0  0  0  0
 24 25  1  0  0  0  0
 24 52  1  0  0  0  0
 25 69  1  0  0  0  0
 26 80  1  0  0  0  0
 27 81  1  0  0  0  0
 28 31  2  0  0  0  0
 28 80  1  0  0  0  0
 29 82  1  0  0  0  0
 30 83  1  0  0  0  0
 31 84  1  0  0  0  0
 32 64  2  0  0  0  0
 33 66  1  0  0  0  0
 33 70  1  0  0  0  0
 34 36  1  0  0  0  0
 34 65  2  0  0  0  0
 35 71  1  0  0  0  0
 35 75  2  0  0  0  0
 36 67  1  0  0  0  0
 36 76  2  0  0  0  0
 37 50  1  0  0  0  0
 37 72  1  0  0  0  0
 37 77  2  0  0  0  0
 38 61  1  0  0  0  0
 38 68  1  0  0  0  0
 38 78  2  0  0  0  0
 39 62  1  0  0  0  0
 39 73  1  0  0  0  0
 39 79  2  0  0  0  0
 40 43  1  0  0  0  0
 41 50  1  0  0  0  0
 42 68  1  0  0  0  0
 43 45  1  0  0  0  0
 44 46  1  0  0  0  0
 44 47  1  0  0  0  0
 45 49  1  0  0  0  0
 46 51  1  0  0  0  0
 47 67  1  0  0  0  0
 48 51  1  0  0  0  0
 48 67  1  0  0  0  0
 49 72  1  0  0  0  0
 50 68  1  0  0  0  0
 51 66  1  0  0  0  0
 53 62  1  0  0  0  0
 54 63  1  0  0  0  0
 55 63  1  0  0  0  0
 56 63  1  0  0  0  0
 57 74  1  0  0  0  0
 58 59  1  0  0  0  0
 58 60  1  0  0  0  0
 59 81  1  0  0  0  0
 60 82  1  0  0  0  0
 61 63  1  0  0  0  0
 61 73  1  0  0  0  0
 62 74  1  0  0  0  0
 64 66  1  0  0  0  0
M  CHG  1  74   1
M  ISO  4  34 100  36 100  59 101  81 101
M  END
> <Batch ID>
0108

> <Smiles>
CNC(C)C(=O)NC(C(=O)N1Cc2cc([101O:1][101CH2:1]CCOc3cc(C)c(N)c([100C:0](=N)[100C:0](=O)N4CCCC(n5nc(-c6ccc(Oc7ccc(F)cc7F)cc6)c(C(N)=O)c5N)C4)c3)ccc2CC1C(=O)NC1CCCc2ccccc21)C(C)(C)C

> <Shape>
0.282

> <Color>
0.073

> <Negative vol penalty>
0.000

$$$$

  -OEChem-04052301203D

 87 96  0     1  0  0  0  0  0999 V2000
  -19.5356  -34.0337   15.8256 C   0  0  0  0  0  0  0  0  0  0  0  0
  -20.1103  -32.7699   15.7373 C   0  0  0  0  0  0  0  0  0  0  0  0
  -23.3568  -13.1685   23.5617 C   0  0  0  0  0  0  0  0  0  0  0  0
  -23.9664  -10.9550   22.8094 C   0  0  0  0  0  0  0  0  0  0  0  0
  -20.1745  -35.0398   16.5492 C   0  0  0  0  0  0  0  0  0  0  0  0
  -21.3249  -32.5117   16.3718 C   0  0  0  0  0  0  0  0  0  0  0  0
  -24.8947  -27.2457   19.6646 C   0  0  0  0  0  0  0  0  0  0  0  0
  -22.6841  -12.6133   24.6502 C   0  0  0  0  0  0  0  0  0  0  0  0
  -23.2937  -10.3998   23.8979 C   0  0  0  0  0  0  0  0  0  0  0  0
  -26.1275  -26.5954   19.6312 C   0  0  0  0  0  0  0  0  0  0  0  0
  -20.0990   -9.7131   24.7658 C   0  0  0  0  0  0  0  0  0  0  0  0
  -19.2728   -8.6152   24.5257 C   0  0  0  0  0  0  0  0  0  0  0  0
  -30.4510  -20.2521   21.2374 C   0  0  0  0  0  0  0  0  0  0  0  0
  -27.1010  -28.3876   20.9194 C   0  0  0  0  0  0  0  0  0  0  0  0
  -32.4532  -20.9554   22.4284 C   0  0  0  0  0  0  0  0  0  0  0  0
  -20.6036   -7.2827   26.0392 C   0  0  0  0  0  0  0  0  0  0  0  0
  -23.9979  -12.3394   22.6413 C   0  0  0  0  0  0  0  0  0  0  0  0
  -24.1454  -13.7187   20.5004 C   0  0  0  0  0  0  0  0  0  0  0  0
  -21.3927  -34.7910   17.2009 C   0  0  0  0  0  0  0  0  0  0  0  0
  -24.7581  -28.4792   20.3174 C   0  0  0  0  0  0  0  0  0  0  0  0
  -21.9813  -33.5157   17.1037 C   0  0  0  0  0  0  0  0  0  0  0  0
  -30.8423  -18.9377   21.4286 C   0  0  0  0  0  0  0  0  0  0  0  0
  -25.8648  -29.0503   20.9618 C   0  0  0  0  0  0  0  0  0  0  0  0
  -32.0219  -18.6281   22.1168 C   0  0  0  0  0  0  0  0  0  0  0  0
  -32.8338  -19.6265   22.6277 C   0  0  0  0  0  0  0  0  0  0  0  0
  -31.2705  -21.2659   21.7384 C   0  0  0  0  0  0  0  0  0  0  0  0
  -22.6526  -11.2290   24.8183 C   0  0  0  0  0  0  0  0  0  0  0  0
  -27.2315  -27.1677   20.2562 C   0  0  0  0  0  0  0  0  0  0  0  0
  -21.1776   -9.5958   25.6425 C   0  0  0  0  0  0  0  0  0  0  0  0
  -19.5251   -7.4001   25.1624 C   0  0  0  0  0  0  0  0  0  0  0  0
  -21.4298   -8.3806   26.2792 C   0  0  0  0  0  0  0  0  0  0  0  0
  -24.6925  -12.9123   21.5163 C   0  0  0  0  0  0  0  0  0  0  0  0
  -25.2078  -14.0017   19.6772 C   0  0  0  0  0  0  0  0  0  0  0  0
  -22.7974  -14.1715   20.3172 C   0  0  0  0  0  0  0  0  0  0  0  0
  -23.9673  -31.4214   19.4108 C   0  0  0  0  0  0  0  0  0  0  0  0
  -29.6315  -24.5258   20.8619 C   0  0  0  0  0  0  0  0  0  0  0  0
  -24.0881  -32.0162   22.5974 C   0  0  0  0  0  0  0  0  0  0  0  0
  -25.3071  -31.1439   25.6633 C   0  0  0  0  0  0  0  0  0  0  0  0
  -31.0394  -14.2933   20.4421 C   0  0  0  0  0  0  0  0  0  0  0  0
  -22.0694  -35.9234   17.9320 C   0  0  0  0  0  0  0  0  0  0  0  0
  -23.4153  -29.1550   20.3672 C   0  0  0  0  0  0  0  0  0  0  0  0
  -30.1177  -17.6919   21.0215 C   0  0  0  0  0  0  0  0  0  0  0  0
  -32.1989  -17.1456   22.2349 C   0  0  0  0  0  0  0  0  0  0  0  0
  -25.7660  -30.3630   21.6935 C   0  0  0  0  0  0  0  0  0  0  0  0
  -23.1673  -35.4621   18.8869 C   0  0  0  0  0  0  0  0  0  0  0  0
  -29.3882  -12.2278   18.1985 C   0  0  0  0  0  0  0  0  0  0  0  0
  -24.0730  -34.4411   18.2057 C   0  0  0  0  0  0  0  0  0  0  0  0
  -27.9406  -12.2364   18.6880 C   0  0  0  0  0  0  0  0  0  0  0  0
  -30.3591  -12.1677   19.3717 C   0  0  0  0  0  0  0  0  0  0  0  0
  -28.7383  -13.3037   20.8562 C   0  0  0  0  0  0  0  0  0  0  0  0
  -23.2855  -33.1898   17.7988 C   0  0  1  0  0  0  0  0  0  0  0  0
  -23.5109  -30.6563   20.6208 C   0  0  1  0  0  0  0  0  0  0  0  0
  -27.7103  -13.3653   19.7078 C   0  0  2  0  0  0  0  0  0  0  0  0
  -31.2478  -16.6515   21.1300 C   0  0  1  0  0  0  0  0  0  0  0  0
  -34.0812  -19.3089   23.3764 C   0  0  0  0  0  0  0  0  0  0  0  0
  -25.2595  -31.8413   28.0734 C   0  0  0  0  0  0  0  0  0  0  0  0
  -26.0066  -34.3046   21.9705 C   0  0  0  0  0  0  0  0  0  0  0  0
  -26.6487  -34.3366   24.3902 C   0  0  0  0  0  0  0  0  0  0  0  0
  -24.2966  -34.8263   23.7192 C   0  0  0  0  0  0  0  0  0  0  0  0
  -30.2436  -15.0551   22.7206 C   0  0  0  0  0  0  0  0  0  0  0  0
  -24.1019  -28.5747   26.5033 C   0  0  0  0  0  0  0  0  0  0  0  0
  -29.7156  -23.0142   20.8717 C   0  0  0  0  0  0  0  0  0  0  0  0
  -28.4199  -25.1098   20.1616 C   0  0  0  0  0  0  0  0  0  1  0  0
  -25.1621  -32.4560   23.5628 C   0  0  1  0  0  0  0  0  0  0  0  0
  -24.6220  -30.9654   27.0061 C   0  0  2  0  0  0  0  0  0  0  0  0
  -25.5312  -33.9570   23.3953 C   0  0  0  0  0  0  0  0  0  0  0  0
  -26.0008  -12.6968   21.3553 N   0  0  0  0  0  0  0  0  0  0  0  0
  -26.2847  -13.3719   20.2285 N   0  0  0  0  0  0  0  0  0  0  0  0
  -24.4332  -30.9881   21.7087 N   0  0  0  0  0  0  0  0  0  0  0  0
  -30.1082  -13.2509   20.3228 N   0  0  0  0  0  0  0  0  0  0  0  0
  -25.3166  -14.7254   18.5428 N   0  0  0  0  0  0  0  0  0  0  0  0
  -21.9216  -13.3758   19.5661 N   0  0  0  0  0  0  0  0  0  0  0  0
  -30.9100  -22.5936   21.5585 N   0  0  0  0  0  0  0  0  0  0  0  0
  -23.0488  -32.3451   18.9498 N   0  0  0  0  0  0  0  0  0  0  0  0
  -24.6827  -32.1035   24.8949 N   0  0  0  0  0  0  0  0  0  0  0  0
  -30.7562  -15.3029   21.3743 N   0  0  0  0  0  0  0  0  0  0  0  0
  -24.7116  -29.5451   27.4486 N   0  3  0  0  0  0  0  0  0  0  0  0
  -22.3865  -15.2577   20.7912 O   0  0  0  0  0  0  0  0  0  0  0  0
  -25.0716  -31.1918   18.9319 O   0  0  0  0  0  0  0  0  0  0  0  0
  -30.4840  -25.2430   21.3839 O   0  0  0  0  0  0  0  0  0  0  0  0
  -22.9815  -32.5599   22.6352 O   0  0  0  0  0  0  0  0  0  0  0  0
  -26.2994  -30.4993   25.3308 O   0  0  0  0  0  0  0  0  0  0  0  0
  -32.0715  -14.3178   19.7592 O   0  0  0  0  0  0  0  0  0  0  0  0
  -21.9965  -10.6869   25.8805 O   0  0  0  0  0  0  0  0  0  0  0  0
  -28.4361  -26.5354   20.2247 O   0  0  0  0  0  0  0  0  0  1  0  0
  -18.7307   -6.3463   24.9329 F   0  0  0  0  0  0  0  0  0  0  0  0
  -22.4638   -8.2622   27.1235 F   0  0  0  0  0  0  0  0  0  0  0  0
  1  2  1  0  0  0  0
  1  5  2  0  0  0  0
  2  6  2  0  0  0  0
  3  8  2  0  0  0  0
  3 17  1  0  0  0  0
  4  9  1  0  0  0  0
  4 17  2  0  0  0  0
  5 19  1  0  0  0  0
  6 21  1  0  0  0  0
  7 10  2  0  0  0  0
  7 20  1  0  0  0  0
  8 27  1  0  0  0  0
  9 27  2  0  0  0  0
 10 28  1  0  0  0  0
 11 12  2  0  0  0  0
 11 29  1  0  0  0  0
 12 30  1  0  0  0  0
 13 22  1  0  0  0  0
 13 26  2  0  0  0  0
 14 23  1  0  0  0  0
 14 28  2  0  0  0  0
 15 25  2  0  0  0  0
 15 26  1  0  0  0  0
 16 30  2  0  0  0  0
 16 31  1  0  0  0  0
 17 32  1  0  0  0  0
 18 32  1  0  0  0  0
 18 33  2  0  0  0  0
 18 34  1  0  0  0  0
 19 21  2  0  0  0  0
 19 40  1  0  0  0  0
 20 23  2  0  0  0  0
 20 41  1  0  0  0  0
 21 51  1  0  0  0  0
 22 24  2  0  0  0  0
 22 42  1  0  0  0  0
 23 44  1  0  0  0  0
 24 25  1  0  0  0  0
 24 43  1  0  0  0  0
 25 55  1  0  0  0  0
 26 73  1  0  0  0  0
 27 84  1  0  0  0  0
 28 85  1  0  0  0  0
 29 31  2  0  0  0  0
 29 84  1  0  0  0  0
 30 86  1  0  0  0  0
 31 87  1  0  0  0  0
 32 67  2  0  0  0  0
 33 68  1  0  0  0  0
 33 71  1  0  0  0  0
 34 72  1  0  0  0  0
 34 78  2  0  0  0  0
 35 52  1  0  0  0  0
 35 74  1  0  0  0  0
 35 79  2  0  0  0  0
 36 62  1  0  0  0  0
 36 63  1  0  0  0  0
 36 80  2  0  0  0  0
 37 64  1  0  0  0  0
 37 69  1  0  0  0  0
 37 81  2  0  0  0  0
 38 65  1  0  0  0  0
 38 75  1  0  0  0  0
 38 82  2  0  0  0  0
 39 70  1  0  0  0  0
 39 76  1  0  0  0  0
 39 83  2  0  0  0  0
 40 45  1  0  0  0  0
 41 52  1  0  0  0  0
 42 54  1  0  0  0  0
 43 54  1  0  0  0  0
 44 69  1  0  0  0  0
 45 47  1  0  0  0  0
 46 48  1  0  0  0  0
 46 49  1  0  0  0  0
 47 51  1  0  0  0  0
 48 53  1  0  0  0  0
 49 70  1  0  0  0  0
 50 53  1  0  0  0  0
 50 70  1  0  0  0  0
 51 74  1  0  0  0  0
 52 69  1  0  0  0  0
 53 68  1  0  0  0  0
 54 76  1  0  0  0  0
 56 65  1  0  0  0  0
 57 66  1  0  0  0  0
 58 66  1  0  0  0  0
 59 66  1  0  0  0  0
 60 76  1  0  0  0  0
 61 77  1  0  0  0  0
 62 73  1  0  0  0  0
 63 85  1  0  0  0  0
 64 66  1  0  0  0  0
 64 75  1  0  0  0  0
 65 77  1  0  0  0  0
 67 68  1  0  0  0  0
M  CHG  1  77   1
M  ISO  4  39 100  63 101  76 100  85 101
M  END
> <Batch ID>
0108

> <Smiles>
CNC(C)C(=O)NC(C(=O)N1Cc2cc([101O:1][101CH2:1]C(=O)CNc3cc(C)c4c(c3)CC([100N:0](C)[100C:0](=O)N3CCCC(n5nc(-c6ccc(Oc7ccc(F)cc7F)cc6)c(C(N)=O)c5N)C3)C4)ccc2CC1C(=O)NC1CCCc2ccccc21)C(C)(C)C

> <Shape>
0.273

> <Color>
0.120

> <Negative vol penalty>
0.000

$$$$

  -OEChem-04052301203D

 84 92  0     1  0  0  0  0  0999 V2000
  -18.5103  -31.4276   26.1391 C   0  0  0  0  0  0  0  0  0  0  0  0
  -19.7407  -30.8067   26.3289 C   0  0  0  0  0  0  0  0  0  0  0  0
  -28.0533  -17.5055   19.0793 C   0  0  0  0  0  0  0  0  0  0  0  0
  -29.1134  -17.3334   21.2435 C   0  0  0  0  0  0  0  0  0  0  0  0
  -17.7760  -31.1776   24.9806 C   0  0  0  0  0  0  0  0  0  0  0  0
  -20.2370  -29.9346   25.3607 C   0  0  0  0  0  0  0  0  0  0  0  0
  -25.1400  -30.7215   24.3673 C   0  0  0  0  0  0  0  0  0  0  0  0
  -28.1669  -16.1252   18.9138 C   0  0  0  0  0  0  0  0  0  0  0  0
  -29.2269  -15.9531   21.0780 C   0  0  0  0  0  0  0  0  0  0  0  0
  -26.0637  -30.2193   25.2829 C   0  0  0  0  0  0  0  0  0  0  0  0
  -31.2395  -13.7997   19.4218 C   0  0  0  0  0  0  0  0  0  0  0  0
  -32.4577  -13.2055   19.7515 C   0  0  0  0  0  0  0  0  0  0  0  0
  -26.4557  -28.3263   23.8398 C   0  0  0  0  0  0  0  0  0  0  0  0
  -33.7904  -26.5920   23.5297 C   0  0  0  0  0  0  0  0  0  0  0  0
  -32.6792  -24.8221   24.7418 C   0  0  0  0  0  0  0  0  0  0  0  0
  -31.3432  -11.8353   21.4000 C   0  0  0  0  0  0  0  0  0  0  0  0
  -28.5266  -18.1097   20.2441 C   0  0  0  0  0  0  0  0  0  0  0  0
  -27.3370  -20.2370   20.9969 C   0  0  0  0  0  0  0  0  0  0  0  0
  -18.2680  -30.3094   23.9933 C   0  0  0  0  0  0  0  0  0  0  0  0
  -24.8587  -30.0232   23.1843 C   0  0  0  0  0  0  0  0  0  0  0  0
  -19.5080  -29.6717   24.1885 C   0  0  0  0  0  0  0  0  0  0  0  0
  -25.5299  -28.8231   22.9097 C   0  0  0  0  0  0  0  0  0  0  0  0
  -33.5259  -25.2348   23.7131 C   0  0  0  0  0  0  0  0  0  0  0  0
  -33.2081  -27.5365   24.3751 C   0  0  0  0  0  0  0  0  0  0  0  0
  -32.0968  -25.7665   25.5872 C   0  0  0  0  0  0  0  0  0  0  0  0
  -28.7537  -15.3490   19.9132 C   0  0  0  0  0  0  0  0  0  0  0  0
  -26.7196  -29.0201   25.0206 C   0  0  0  0  0  0  0  0  0  0  0  0
  -30.0732  -13.4117   20.0812 C   0  0  0  0  0  0  0  0  0  0  0  0
  -32.3613  -27.1237   25.4038 C   0  0  0  0  0  0  0  0  0  0  0  0
  -32.5095  -12.2233   20.7405 C   0  0  0  0  0  0  0  0  0  0  0  0
  -30.1250  -12.4295   21.0703 C   0  0  0  0  0  0  0  0  0  0  0  0
  -28.4100  -19.5356   20.4153 C   0  0  0  0  0  0  0  0  0  0  0  0
  -27.7083  -21.5572   20.9210 C   0  0  0  0  0  0  0  0  0  0  0  0
  -26.1139  -19.7398   21.5560 C   0  0  0  0  0  0  0  0  0  0  0  0
  -22.2643  -28.6728   21.9395 C   0  0  0  0  0  0  0  0  0  0  0  0
  -24.1988  -28.2364   19.3724 C   0  0  0  0  0  0  0  0  0  0  0  0
  -27.3724  -27.9349   18.1543 C   0  0  0  0  0  0  0  0  0  0  0  0
  -33.0291  -24.2839   20.5970 C   0  0  0  0  0  0  0  0  0  0  0  0
  -17.4165  -30.0336   22.7793 C   0  0  0  0  0  0  0  0  0  0  0  0
  -23.8793  -30.5919   22.1944 C   0  0  0  0  0  0  0  0  0  0  0  0
  -25.2785  -28.0453   21.6447 C   0  0  0  0  0  0  0  0  0  0  0  0
  -18.1854  -29.3864   21.6303 C   0  0  0  0  0  0  0  0  0  0  0  0
  -30.3368  -24.5617   18.2838 C   0  0  0  0  0  0  0  0  0  0  0  0
  -19.0471  -28.2376   22.1448 C   0  0  0  0  0  0  0  0  0  0  0  0
  -29.4409  -23.3684   18.6202 C   0  0  0  0  0  0  0  0  0  0  0  0
  -31.8166  -24.2176   18.4378 C   0  0  0  0  0  0  0  0  0  0  0  0
  -31.2925  -22.4620   20.0861 C   0  0  0  0  0  0  0  0  0  0  0  0
  -20.0914  -28.7384   23.1498 C   0  0  1  0  0  0  0  0  0  0  0  0
  -23.2906  -29.5369   21.2628 C   0  0  1  0  0  0  0  0  0  0  0  0
  -29.7893  -22.7769   19.9994 C   0  0  2  0  0  0  0  0  0  0  0  0
  -33.5036  -28.9849   24.1625 C   0  0  0  0  0  0  0  0  0  0  0  0
  -29.2021  -27.7248   16.4497 C   0  0  0  0  0  0  0  0  0  0  0  0
  -23.4597  -25.2779   19.4759 C   0  0  0  0  0  0  0  0  0  0  0  0
  -25.4211  -24.8076   17.9927 C   0  0  0  0  0  0  0  0  0  0  0  0
  -23.5572  -26.2489   17.1733 C   0  0  0  0  0  0  0  0  0  0  0  0
  -27.6049  -30.8717   17.8717 C   0  0  0  0  0  0  0  0  0  0  0  0
  -34.1507  -24.2258   22.8101 C   0  0  0  0  0  0  0  0  0  0  0  0
  -29.7033  -28.9135   27.0695 C   0  0  0  0  0  0  0  0  0  0  0  0
  -28.3389  -29.4754   26.7018 C   0  0  0  0  0  0  0  0  0  1  0  0
  -30.5312  -28.5788   25.8387 C   0  0  0  0  0  0  0  0  0  0  0  0
  -25.1464  -27.1519   18.9200 C   0  0  1  0  0  0  0  0  0  0  0  0
  -28.0633  -28.5877   16.9707 C   0  0  2  0  0  0  0  0  0  0  0  0
  -24.3996  -25.8850   18.4153 C   0  0  0  0  0  0  0  0  0  0  0  0
  -29.3896  -20.3433   20.0003 N   0  0  0  0  0  0  0  0  0  0  0  0
  -28.9334  -21.5659   20.3215 N   0  0  0  0  0  0  0  0  0  0  0  0
  -24.3075  -28.6393   20.7110 N   0  0  0  0  0  0  0  0  0  0  0  0
  -32.0805  -23.6631   19.7678 N   0  0  0  0  0  0  0  0  0  0  0  0
  -31.2422  -25.3333   26.6248 N   0  0  0  0  0  0  0  0  0  0  0  0
  -27.1032  -22.6998   21.3091 N   0  0  0  0  0  0  0  0  0  0  0  0
  -25.8923  -18.3559   21.5537 N   0  0  0  0  0  0  0  0  0  0  0  0
  -21.1931  -29.3740   22.4595 N   0  0  0  0  0  0  0  0  0  0  0  0
  -26.0232  -27.7638   17.9274 N   0  0  0  0  0  0  0  0  0  0  0  0
  -33.2138  -23.6982   21.8434 N   0  0  0  0  0  0  0  0  0  0  0  0
  -28.6196  -29.9136   17.3624 N   0  3  0  0  0  0  0  0  0  0  0  0
  -25.2361  -20.5013   22.0283 O   0  0  0  0  0  0  0  0  0  0  0  0
  -22.4311  -27.4597   21.9850 O   0  0  0  0  0  0  0  0  0  0  0  0
  -23.3966  -28.7137   18.5660 O   0  0  0  0  0  0  0  0  0  0  0  0
  -27.9706  -27.6059   19.1763 O   0  0  0  0  0  0  0  0  0  0  0  0
  -33.6607  -25.2892   20.2541 O   0  0  0  0  0  0  0  0  0  0  0  0
  -28.8645  -14.0020   19.7522 O   0  0  0  0  0  0  0  0  0  0  0  0
  -27.6213  -28.5273   25.9128 O   0  0  0  0  0  0  0  0  0  1  0  0
  -31.7918  -28.0544   26.2334 O   0  0  0  0  0  0  0  0  0  0  0  0
  -33.6791  -11.6518   21.0560 F   0  0  0  0  0  0  0  0  0  0  0  0
  -29.0077  -12.0518   21.7064 F   0  0  0  0  0  0  0  0  0  0  0  0
  1  2  1  0  0  0  0
  1  5  2  0  0  0  0
  2  6  2  0  0  0  0
  3  8  2  0  0  0  0
  3 17  1  0  0  0  0
  4  9  1  0  0  0  0
  4 17  2  0  0  0  0
  5 19  1  0  0  0  0
  6 21  1  0  0  0  0
  7 10  2  0  0  0  0
  7 20  1  0  0  0  0
  8 26  1  0  0  0  0
  9 26  2  0  0  0  0
 10 27  1  0  0  0  0
 11 12  2  0  0  0  0
 11 28  1  0  0  0  0
 12 30  1  0  0  0  0
 13 22  1  0  0  0  0
 13 27  2  0  0  0  0
 14 23  1  0  0  0  0
 14 24  2  0  0  0  0
 15 23  2  0  0  0  0
 15 25  1  0  0  0  0
 16 30  2  0  0  0  0
 16 31  1  0  0  0  0
 17 32  1  0  0  0  0
 18 32  1  0  0  0  0
 18 33  2  0  0  0  0
 18 34  1  0  0  0  0
 19 21  2  0  0  0  0
 19 39  1  0  0  0  0
 20 22  2  0  0  0  0
 20 40  1  0  0  0  0
 21 48  1  0  0  0  0
 22 41  1  0  0  0  0
 23 57  1  0  0  0  0
 24 29  1  0  0  0  0
 24 51  1  0  0  0  0
 25 29  2  0  0  0  0
 25 68  1  0  0  0  0
 26 80  1  0  0  0  0
 27 81  1  0  0  0  0
 28 31  2  0  0  0  0
 28 80  1  0  0  0  0
 29 82  1  0  0  0  0
 30 83  1  0  0  0  0
 31 84  1  0  0  0  0
 32 64  2  0  0  0  0
 33 65  1  0  0  0  0
 33 69  1  0  0  0  0
 34 70  1  0  0  0  0
 34 75  2  0  0  0  0
 35 49  1  0  0  0  0
 35 71  1  0  0  0  0
 35 76  2  0  0  0  0
 36 61  1  0  0  0  0
 36 66  1  0  0  0  0
 36 77  2  0  0  0  0
 37 62  1  0  0  0  0
 37 72  1  0  0  0  0
 37 78  2  0  0  0  0
 38 67  1  0  0  0  0
 38 73  1  0  0  0  0
 38 79  2  0  0  0  0
 39 42  1  0  0  0  0
 40 49  1  0  0  0  0
 41 66  1  0  0  0  0
 42 44  1  0  0  0  0
 43 45  1  0  0  0  0
 43 46  1  0  0  0  0
 44 48  1  0  0  0  0
 45 50  1  0  0  0  0
 46 67  1  0  0  0  0
 47 50  1  0  0  0  0
 47 67  1  0  0  0  0
 48 71  1  0  0  0  0
 49 66  1  0  0  0  0
 50 65  1  0  0  0  0
 52 62  1  0  0  0  0
 53 63  1  0  0  0  0
 54 63  1  0  0  0  0
 55 63  1  0  0  0  0
 56 74  1  0  0  0  0
 57 73  1  0  0  0  0
 58 59  1  0  0  0  0
 58 60  1  0  0  0  0
 59 81  1  0  0  0  0
 60 82  1  0  0  0  0
 61 63  1  0  0  0  0
 61 72  1  0  0  0  0
 62 74  1  0  0  0  0
 64 65  1  0  0  0  0
M  CHG  1  74   1
M  ISO  4  38 100  59 101  73 100  81 101
M  END
> <Batch ID>
0108

> <Smiles>
CNC(C)C(=O)NC(C(=O)N1Cc2cc([101O:1][101CH2:1]CCOc3c(C)cc(C[100NH:0][100C:0](=O)N4CCCC(n5nc(-c6ccc(Oc7ccc(F)cc7F)cc6)c(C(N)=O)c5N)C4)cc3N)ccc2CC1C(=O)NC1CCCc2ccccc21)C(C)(C)C

> <Shape>
0.227

> <Color>
0.050

> <Negative vol penalty>
0.000

$$$$

  -OEChem-04052301203D

 85 94  0     1  0  0  0  0  0999 V2000
  -22.5752   -7.8096   21.7800 C   0  0  0  0  0  0  0  0  0  0  0  0
  -23.6444   -8.6954   21.6927 C   0  0  0  0  0  0  0  0  0  0  0  0
  -21.5682  -24.9842   22.1118 C   0  0  0  0  0  0  0  0  0  0  0  0
  -20.8012  -26.5316   20.4223 C   0  0  0  0  0  0  0  0  0  0  0  0
  -29.7029  -22.6757   20.2584 C   0  0  0  0  0  0  0  0  0  0  0  0
  -21.2813   -8.2515   21.5073 C   0  0  0  0  0  0  0  0  0  0  0  0
  -23.4204  -10.0235   21.3316 C   0  0  0  0  0  0  0  0  0  0  0  0
  -26.4431  -14.9495   23.3571 C   0  0  0  0  0  0  0  0  0  0  0  0
  -29.5540  -21.3091   20.0220 C   0  0  0  0  0  0  0  0  0  0  0  0
  -20.4580  -25.2923   22.8980 C   0  0  0  0  0  0  0  0  0  0  0  0
  -19.6909  -26.8396   21.2084 C   0  0  0  0  0  0  0  0  0  0  0  0
  -27.4858  -15.6991   22.8141 C   0  0  0  0  0  0  0  0  0  0  0  0
  -16.8424  -28.3015   22.9285 C   0  0  0  0  0  0  0  0  0  0  0  0
  -16.4980  -29.6462   23.0655 C   0  0  0  0  0  0  0  0  0  0  0  0
  -29.1248  -21.7595   17.6877 C   0  0  0  0  0  0  0  0  0  0  0  0
  -25.8856  -17.2711   21.9268 C   0  0  0  0  0  0  0  0  0  0  0  0
  -18.6589  -30.0996   24.0465 C   0  0  0  0  0  0  0  0  0  0  0  0
  -21.7398  -25.6039   20.8740 C   0  0  0  0  0  0  0  0  0  0  0  0
  -29.5628  -23.5842   19.2093 C   0  0  0  0  0  0  0  0  0  0  0  0
  -29.2737  -23.1261   17.9239 C   0  0  0  0  0  0  0  0  0  0  0  0
  -22.9856  -24.2737   19.0890 C   0  0  0  0  0  0  0  0  0  0  0  0
  -21.0401   -9.5880   21.1520 C   0  0  0  0  0  0  0  0  0  0  0  0
  -25.1110  -15.3499   23.1793 C   0  0  0  0  0  0  0  0  0  0  0  0
  -22.1222  -10.4834   21.0525 C   0  0  0  0  0  0  0  0  0  0  0  0
  -24.8280  -16.5262   22.4706 C   0  0  0  0  0  0  0  0  0  0  0  0
  -29.2649  -20.8510   18.7366 C   0  0  0  0  0  0  0  0  0  0  0  0
  -19.5193  -26.2200   22.4463 C   0  0  0  0  0  0  0  0  0  0  0  0
  -27.2070  -16.8585   22.0964 C   0  0  0  0  0  0  0  0  0  0  0  0
  -18.0950  -27.8558   23.3505 C   0  0  0  0  0  0  0  0  0  0  0  0
  -17.4063  -30.5453   23.6245 C   0  0  0  0  0  0  0  0  0  0  0  0
  -19.0032  -28.7549   23.9095 C   0  0  0  0  0  0  0  0  0  0  0  0
  -22.8868  -25.2865   20.0617 C   0  0  0  0  0  0  0  0  0  0  0  0
  -24.2670  -24.3841   18.6072 C   0  0  0  0  0  0  0  0  0  0  0  0
  -28.8217  -18.8428   17.2534 C   0  0  0  0  0  0  0  0  0  0  0  0
  -29.8588  -23.9941   15.7060 C   0  0  0  0  0  0  0  0  0  0  0  0
  -29.1212  -24.0469   16.8046 C   0  0  0  0  0  0  0  0  0  0  0  0
  -29.7274  -25.0143   19.5003 C   0  0  0  0  0  0  0  0  0  0  0  0
  -22.0065  -23.3185   18.6593 C   0  0  0  0  0  0  0  0  0  0  0  0
  -22.5546  -14.0800   21.7808 C   0  0  0  0  0  0  0  0  0  0  0  0
  -21.0534  -16.6473   23.0760 C   0  0  0  0  0  0  0  0  0  0  0  0
  -21.2798  -19.8316   24.2825 C   0  0  0  0  0  0  0  0  0  0  0  0
  -19.6300  -10.0079   20.8204 C   0  0  0  0  0  0  0  0  0  0  0  0
  -23.9991  -14.5448   23.7941 C   0  0  0  0  0  0  0  0  0  0  0  0
  -23.4161  -17.0102   22.2688 C   0  0  0  0  0  0  0  0  0  0  0  0
  -28.7757  -17.3494   17.4742 C   0  0  0  0  0  0  0  0  0  0  0  0
  -19.4318  -11.5214   20.8093 C   0  0  0  0  0  0  0  0  0  0  0  0
  -29.5211  -17.1625   18.7821 C   0  0  0  0  0  0  0  0  0  0  0  0
  -27.7557  -27.9821   19.2854 C   0  0  0  0  0  0  0  0  0  0  0  0
  -20.5553  -12.2012   20.0330 C   0  0  0  0  0  0  0  0  0  0  0  0
  -26.3205  -27.4672   19.4078 C   0  0  0  0  0  0  0  0  0  0  0  0
  -28.7198  -27.1754   20.1516 C   0  0  0  0  0  0  0  0  0  0  0  0
  -27.2429  -25.1977   20.0396 C   0  0  0  0  0  0  0  0  0  0  0  0
  -21.9165  -11.9376   20.6880 C   0  0  1  0  0  0  0  0  0  0  0  0
  -22.6525  -14.7681   23.1129 C   0  0  1  0  0  0  0  0  0  0  0  0
  -26.2472  -25.9516   19.1429 C   0  0  1  0  0  0  0  0  0  0  0  0
  -29.2302  -18.4464   19.5511 C   0  0  2  0  0  0  0  0  0  0  0  0
  -20.5384  -21.9665   25.3733 C   0  0  0  0  0  0  0  0  0  0  0  0
  -20.0024  -17.2842   20.2832 C   0  0  0  0  0  0  0  0  0  0  0  0
  -19.4352  -19.5830   21.0967 C   0  0  0  0  0  0  0  0  0  0  0  0
  -18.3345  -17.5926   22.1210 C   0  0  0  0  0  0  0  0  0  0  0  0
  -21.9540  -18.8226   26.9818 C   0  0  0  0  0  0  0  0  0  0  0  0
  -27.9429  -18.3176   20.3686 C   0  0  0  0  0  0  0  0  0  1  0  0
  -20.7678  -18.0591   22.6241 C   0  0  1  0  0  0  0  0  0  0  0  0
  -20.7394  -20.4694   25.5496 C   0  0  2  0  0  0  0  0  0  0  0  0
  -19.6616  -18.1198   21.5332 C   0  0  0  0  0  0  0  0  0  0  0  0
  -24.0156  -25.9886   20.1915 N   0  0  0  0  0  0  0  0  0  0  0  0
  -24.8359  -25.4160   19.2940 N   0  0  0  0  0  0  0  0  0  0  0  0
  -29.1129  -19.4478   18.4946 N   0  0  0  0  0  0  0  0  0  0  0  0
  -28.5960  -25.7457   19.8697 N   0  0  0  0  0  0  0  0  0  0  0  0
  -22.3631  -16.1852   22.8837 N   0  0  0  0  0  0  0  0  0  0  0  0
  -24.9515  -23.6982   17.6672 N   0  0  0  0  0  0  0  0  0  0  0  0
  -20.7399  -23.3441   19.2589 N   0  0  0  0  0  0  0  0  0  0  0  0
  -22.0892  -12.7808   21.8515 N   0  0  0  0  0  0  0  0  0  0  0  0
  -20.4598  -18.8194   23.8305 N   0  0  0  0  0  0  0  0  0  0  0  0
  -21.6834  -20.2522   26.6822 N   0  3  0  0  0  0  0  0  0  0  0  0
  -28.6013  -19.3461   16.1613 O   0  0  0  0  0  0  0  0  0  0  0  0
  -30.8656  -25.4655   19.3821 O   0  0  0  0  0  0  0  0  0  0  0  0
  -22.2529  -22.4568   17.7816 O   0  0  0  0  0  0  0  0  0  0  0  0
  -22.8762  -14.6835   20.7639 O   0  0  0  0  0  0  0  0  0  0  0  0
  -20.1496  -15.9816   23.5875 O   0  0  0  0  0  0  0  0  0  0  0  0
  -22.3230  -20.1973   23.7453 O   0  0  0  0  0  0  0  0  0  0  0  0
  -18.4357  -26.5206   23.2130 O   0  0  0  0  0  0  0  0  0  0  0  0
  -28.2228  -17.5916   21.5649 O   0  0  0  0  0  0  0  0  0  1  0  0
  -17.0760  -31.8369   23.7547 F   0  0  0  0  0  0  0  0  0  0  0  0
  -20.2085  -28.3328   24.3156 F   0  0  0  0  0  0  0  0  0  0  0  0
  1  2  1  0  0  0  0
  1  6  2  0  0  0  0
  2  7  2  0  0  0  0
  3 10  2  0  0  0  0
  3 18  1  0  0  0  0
  4 11  1  0  0  0  0
  4 18  2  0  0  0  0
  5  9  2  0  0  0  0
  5 19  1  0  0  0  0
  6 22  1  0  0  0  0
  7 24  1  0  0  0  0
  8 12  2  0  0  0  0
  8 23  1  0  0  0  0
  9 26  1  0  0  0  0
 10 27  1  0  0  0  0
 11 27  2  0  0  0  0
 12 28  1  0  0  0  0
 13 14  2  0  0  0  0
 13 29  1  0  0  0  0
 14 30  1  0  0  0  0
 15 20  1  0  0  0  0
 15 26  2  0  0  0  0
 16 25  1  0  0  0  0
 16 28  2  0  0  0  0
 17 30  2  0  0  0  0
 17 31  1  0  0  0  0
 18 32  1  0  0  0  0
 19 20  2  0  0  0  0
 19 37  1  0  0  0  0
 20 36  1  0  0  0  0
 21 32  1  0  0  0  0
 21 33  2  0  0  0  0
 21 38  1  0  0  0  0
 22 24  2  0  0  0  0
 22 42  1  0  0  0  0
 23 25  2  0  0  0  0
 23 43  1  0  0  0  0
 24 53  1  0  0  0  0
 25 44  1  0  0  0  0
 26 68  1  0  0  0  0
 27 82  1  0  0  0  0
 28 83  1  0  0  0  0
 29 31  2  0  0  0  0
 29 82  1  0  0  0  0
 30 84  1  0  0  0  0
 31 85  1  0  0  0  0
 32 66  2  0  0  0  0
 33 67  1  0  0  0  0
 33 71  1  0  0  0  0
 34 45  1  0  0  0  0
 34 68  1  0  0  0  0
 34 76  2  0  0  0  0
 35 36  2  0  0  0  0
 37 69  1  0  0  0  0
 37 77  2  0  0  0  0
 38 72  1  0  0  0  0
 38 78  2  0  0  0  0
 39 54  1  0  0  0  0
 39 73  1  0  0  0  0
 39 79  2  0  0  0  0
 40 63  1  0  0  0  0
 40 70  1  0  0  0  0
 40 80  2  0  0  0  0
 41 64  1  0  0  0  0
 41 74  1  0  0  0  0
 41 81  2  0  0  0  0
 42 46  1  0  0  0  0
 43 54  1  0  0  0  0
 44 70  1  0  0  0  0
 45 47  1  0  0  0  0
 46 49  1  0  0  0  0
 47 56  1  0  0  0  0
 48 50  1  0  0  0  0
 48 51  1  0  0  0  0
 49 53  1  0  0  0  0
 50 55  1  0  0  0  0
 51 69  1  0  0  0  0
 52 55  1  0  0  0  0
 52 69  1  0  0  0  0
 53 73  1  0  0  0  0
 54 70  1  0  0  0  0
 55 67  1  0  0  0  0
 56 62  1  0  0  0  0
 56 68  1  0  0  0  0
 57 64  1  0  0  0  0
 58 65  1  0  0  0  0
 59 65  1  0  0  0  0
 60 65  1  0  0  0  0
 61 75  1  0  0  0  0
 62 83  1  0  0  0  0
 63 65  1  0  0  0  0
 63 74  1  0  0  0  0
 64 75  1  0  0  0  0
 66 67  1  0  0  0  0
M  CHG  1  75   1
M  ISO  4  19 100  37 100  62 101  83 101
M  END
> <Batch ID>
0108

> <Smiles>
C=Cc1cc(N2C(=O)CCC2[101CH2:1][101O:1]c2ccc3c(c2)CN(C(=O)C(NC(=O)C(C)NC)C(C)(C)C)C(C(=O)NC2CCCc4ccccc42)C3)cc[100c:0]1[100C:0](=O)N1CCCC(n2nc(-c3ccc(Oc4ccc(F)cc4F)cc3)c(C(N)=O)c2N)C1

> <Shape>
0.218

> <Color>
0.080

> <Negative vol penalty>
0.000

$$$$

  -OEChem-04052301203D

 85 93  0     1  0  0  0  0  0999 V2000
  -21.2920  -12.7949   21.3247 C   0  0  0  0  0  0  0  0  0  0  0  0
  -21.6601  -13.9973   21.9197 C   0  0  0  0  0  0  0  0  0  0  0  0
  -23.2714  -26.6828   21.7115 C   0  0  0  0  0  0  0  0  0  0  0  0
  -21.6365  -28.1371   20.6871 C   0  0  0  0  0  0  0  0  0  0  0  0
  -22.2603  -11.9886   20.7278 C   0  0  0  0  0  0  0  0  0  0  0  0
  -22.9971  -14.3936   21.9193 C   0  0  0  0  0  0  0  0  0  0  0  0
  -23.5763  -19.2742   20.6990 C   0  0  0  0  0  0  0  0  0  0  0  0
  -27.2691  -28.8099   25.5219 C   0  0  0  0  0  0  0  0  0  0  0  0
  -26.6645  -27.6054   25.1623 C   0  0  0  0  0  0  0  0  0  0  0  0
  -22.3250  -25.6598   21.7694 C   0  0  0  0  0  0  0  0  0  0  0  0
  -20.6901  -27.1141   20.7450 C   0  0  0  0  0  0  0  0  0  0  0  0
  -23.3053  -20.2151   21.6914 C   0  0  0  0  0  0  0  0  0  0  0  0
  -20.2341  -22.7796   22.5153 C   0  0  0  0  0  0  0  0  0  0  0  0
  -20.1348  -22.0524   23.7014 C   0  0  0  0  0  0  0  0  0  0  0  0
  -25.6683  -20.4262   22.1282 C   0  0  0  0  0  0  0  0  0  0  0  0
  -25.1023  -29.7408   26.0468 C   0  0  0  0  0  0  0  0  0  0  0  0
  -19.5922  -24.0795   24.8988 C   0  0  0  0  0  0  0  0  0  0  0  0
  -22.9271  -27.9216   21.1704 C   0  0  0  0  0  0  0  0  0  0  0  0
  -24.8018  -29.2487   20.0605 C   0  0  0  0  0  0  0  0  0  0  0  0
  -23.6083  -12.3798   20.7116 C   0  0  0  0  0  0  0  0  0  0  0  0
  -24.8969  -18.8935   20.4207 C   0  0  0  0  0  0  0  0  0  0  0  0
  -23.9845  -13.5911   21.3228 C   0  0  0  0  0  0  0  0  0  0  0  0
  -25.9536  -19.4821   21.1300 C   0  0  0  0  0  0  0  0  0  0  0  0
  -26.4880  -29.8776   25.9642 C   0  0  0  0  0  0  0  0  0  0  0  0
  -25.2789  -27.4686   25.2449 C   0  0  0  0  0  0  0  0  0  0  0  0
  -21.0344  -25.8754   21.2862 C   0  0  0  0  0  0  0  0  0  0  0  0
  -24.3511  -20.7892   22.4082 C   0  0  0  0  0  0  0  0  0  0  0  0
  -20.0126  -24.1568   22.5209 C   0  0  0  0  0  0  0  0  0  0  0  0
  -19.8138  -22.7023   24.8932 C   0  0  0  0  0  0  0  0  0  0  0  0
  -24.4977  -28.5363   25.6871 C   0  0  0  0  0  0  0  0  0  0  0  0
  -19.6915  -24.8067   23.7126 C   0  0  0  0  0  0  0  0  0  0  0  0
  -23.9041  -28.9790   21.1108 C   0  0  0  0  0  0  0  0  0  0  0  0
  -25.5094  -30.3459   20.4869 C   0  0  0  0  0  0  0  0  0  0  0  0
  -24.9801  -28.5683   18.8111 C   0  0  0  0  0  0  0  0  0  0  0  0
  -26.5243  -16.1671   20.5702 C   0  0  0  0  0  0  0  0  0  0  0  0
  -24.4477  -23.9861   24.1208 C   0  0  0  0  0  0  0  0  0  0  0  0
  -28.8607  -17.9383   19.1823 C   0  0  0  0  0  0  0  0  0  0  0  0
  -30.2034  -21.0227   18.6074 C   0  0  0  0  0  0  0  0  0  0  0  0
  -26.4420  -32.3564   26.1841 C   0  0  0  0  0  0  0  0  0  0  0  0
  -24.6259  -11.4524   20.0959 C   0  0  0  0  0  0  0  0  0  0  0  0
  -25.1742  -17.8969   19.3288 C   0  0  0  0  0  0  0  0  0  0  0  0
  -27.3902  -19.1226   20.8558 C   0  0  0  0  0  0  0  0  0  0  0  0
  -25.9667  -12.1234   19.8090 C   0  0  0  0  0  0  0  0  0  0  0  0
  -25.1311  -34.2081   23.2749 C   0  0  0  0  0  0  0  0  0  0  0  0
  -26.4201  -12.9458   21.0111 C   0  0  0  0  0  0  0  0  0  0  0  0
  -24.6870  -33.0909   22.3322 C   0  0  0  0  0  0  0  0  0  0  0  0
  -25.0294  -33.7887   24.7384 C   0  0  0  0  0  0  0  0  0  0  0  0
  -25.3180  -31.4110   24.1112 C   0  0  0  0  0  0  0  0  0  0  0  0
  -25.4210  -14.0671   21.3209 C   0  0  1  0  0  0  0  0  0  0  0  0
  -26.5242  -17.2030   19.4818 C   0  0  1  0  0  0  0  0  0  0  0  0
  -25.4497  -31.7879   22.6279 C   0  0  1  0  0  0  0  0  0  0  0  0
  -28.1128  -30.8083   28.5705 C   0  0  0  0  0  0  0  0  0  0  0  0
  -32.1363  -22.1490   17.4703 C   0  0  0  0  0  0  0  0  0  0  0  0
  -30.7076  -17.0431   21.4401 C   0  0  0  0  0  0  0  0  0  0  0  0
  -32.2673  -18.8956   20.8050 C   0  0  0  0  0  0  0  0  0  0  0  0
  -31.7679  -17.0742   19.1754 C   0  0  0  0  0  0  0  0  0  0  0  0
  -28.4094  -22.5562   16.8217 C   0  0  0  0  0  0  0  0  0  0  0  0
  -25.4082  -25.1179   24.4185 C   0  0  0  0  0  0  0  0  0  0  0  0
  -25.0814  -22.7062   23.6114 C   0  0  0  0  0  0  0  0  0  1  0  0
  -28.3646  -31.0787   27.1009 C   0  0  0  0  0  0  0  0  0  0  0  0
  -29.9926  -18.7997   19.6882 C   0  0  1  0  0  0  0  0  0  0  0  0
  -30.6941  -21.6861   17.3333 C   0  0  2  0  0  0  0  0  0  0  0  0
  -31.1568  -17.9587   20.2839 C   0  0  0  0  0  0  0  0  0  0  0  0
  -24.0281  -29.8357   22.1279 N   0  0  0  0  0  0  0  0  0  0  0  0
  -25.0121  -30.6545   21.7188 N   0  0  0  0  0  0  0  0  0  0  0  0
  -27.6097  -18.1386   19.7828 N   0  0  0  0  0  0  0  0  0  0  0  0
  -25.7242  -32.5242   24.9828 N   0  0  0  0  0  0  0  0  0  0  0  0
  -26.5024  -31.0672   19.9245 N   0  0  0  0  0  0  0  0  0  0  0  0
  -24.1694  -27.4595   18.5325 N   0  0  0  0  0  0  0  0  0  0  0  0
  -24.6800  -26.2696   24.8857 N   0  0  0  0  0  0  0  0  0  0  0  0
  -25.5896  -15.1649   20.3930 N   0  0  0  0  0  0  0  0  0  0  0  0
  -30.3835  -19.6561   18.5737 N   0  0  0  0  0  0  0  0  0  0  0  0
  -27.1142  -31.1244   26.3359 N   0  0  0  0  0  0  0  0  0  0  0  0
  -29.8496  -22.8699   17.0072 N   0  3  0  0  0  0  0  0  0  0  0  0
  -25.8442  -28.9228   17.9738 O   0  0  0  0  0  0  0  0  0  0  0  0
  -27.3148  -16.2688   21.5010 O   0  0  0  0  0  0  0  0  0  0  0  0
  -23.2316  -24.0869   24.2778 O   0  0  0  0  0  0  0  0  0  0  0  0
  -29.0770  -17.1229   18.2823 O   0  0  0  0  0  0  0  0  0  0  0  0
  -29.7131  -21.6541   19.5409 O   0  0  0  0  0  0  0  0  0  0  0  0
  -26.5014  -33.2486   27.0386 O   0  0  0  0  0  0  0  0  0  0  0  0
  -20.1108  -24.8772   21.3424 O   0  0  0  0  0  0  0  0  0  0  0  0
  -24.0893  -21.7074   23.3778 O   0  0  0  0  0  0  0  0  0  1  0  0
  -19.7169  -22.0036   26.0318 F   0  0  0  0  0  0  0  0  0  0  0  0
  -23.1650  -28.4161   25.7687 F   0  0  0  0  0  0  0  0  0  0  0  0
  -19.4764  -26.1293   23.7240 F   0  0  0  0  0  0  0  0  0  0  0  0
  1  2  1  0  0  0  0
  1  5  2  0  0  0  0
  2  6  2  0  0  0  0
  3 10  2  0  0  0  0
  3 18  1  0  0  0  0
  4 11  1  0  0  0  0
  4 18  2  0  0  0  0
  5 20  1  0  0  0  0
  6 22  1  0  0  0  0
  7 12  2  0  0  0  0
  7 21  1  0  0  0  0
  8  9  2  0  0  0  0
  8 24  1  0  0  0  0
  9 25  1  0  0  0  0
 10 26  1  0  0  0  0
 11 26  2  0  0  0  0
 12 27  1  0  0  0  0
 13 14  2  0  0  0  0
 13 28  1  0  0  0  0
 14 29  1  0  0  0  0
 15 23  1  0  0  0  0
 15 27  2  0  0  0  0
 16 24  2  0  0  0  0
 16 30  1  0  0  0  0
 17 29  2  0  0  0  0
 17 31  1  0  0  0  0
 18 32  1  0  0  0  0
 19 32  1  0  0  0  0
 19 33  2  0  0  0  0
 19 34  1  0  0  0  0
 20 22  2  0  0  0  0
 20 40  1  0  0  0  0
 21 23  2  0  0  0  0
 21 41  1  0  0  0  0
 22 49  1  0  0  0  0
 23 42  1  0  0  0  0
 24 73  1  0  0  0  0
 25 30  2  0  0  0  0
 25 70  1  0  0  0  0
 26 81  1  0  0  0  0
 27 82  1  0  0  0  0
 28 31  2  0  0  0  0
 28 81  1  0  0  0  0
 29 83  1  0  0  0  0
 30 84  1  0  0  0  0
 31 85  1  0  0  0  0
 32 64  2  0  0  0  0
 33 65  1  0  0  0  0
 33 68  1  0  0  0  0
 34 69  1  0  0  0  0
 34 75  2  0  0  0  0
 35 50  1  0  0  0  0
 35 71  1  0  0  0  0
 35 76  2  0  0  0  0
 36 58  1  0  0  0  0
 36 59  1  0  0  0  0
 36 77  2  0  0  0  0
 37 61  1  0  0  0  0
 37 66  1  0  0  0  0
 37 78  2  0  0  0  0
 38 62  1  0  0  0  0
 38 72  1  0  0  0  0
 38 79  2  0  0  0  0
 39 67  1  0  0  0  0
 39 73  1  0  0  0  0
 39 80  2  0  0  0  0
 40 43  1  0  0  0  0
 41 50  1  0  0  0  0
 42 66  1  0  0  0  0
 43 45  1  0  0  0  0
 44 46  1  0  0  0  0
 44 47  1  0  0  0  0
 45 49  1  0  0  0  0
 46 51  1  0  0  0  0
 47 67  1  0  0  0  0
 48 51  1  0  0  0  0
 48 67  1  0  0  0  0
 49 71  1  0  0  0  0
 50 66  1  0  0  0  0
 51 65  1  0  0  0  0
 52 60  1  0  0  0  0
 53 62  1  0  0  0  0
 54 63  1  0  0  0  0
 55 63  1  0  0  0  0
 56 63  1  0  0  0  0
 57 74  1  0  0  0  0
 58 70  1  0  0  0  0
 59 82  1  0  0  0  0
 60 73  1  0  0  0  0
 61 63  1  0  0  0  0
 61 72  1  0  0  0  0
 62 74  1  0  0  0  0
 64 65  1  0  0  0  0
M  CHG  1  74   1
M  ISO  4  39 100  59 101  73 100  82 101
M  END
> <Batch ID>
0108

> <Smiles>
CC[100N:0](c1ccc(NCC(=O)[101CH2:1][101O:1]c2ccc3c(c2)CN(C(=O)C(NC(=O)C(C)NC)C(C)(C)C)C(C(=O)NC2CCCc4ccccc42)C3)c(F)c1)[100C:0](=O)N1CCCC(n2nc(-c3ccc(Oc4ccc(F)cc4F)cc3)c(C(N)=O)c2N)C1

> <Shape>
0.237

> <Color>
0.060

> <Negative vol penalty>
0.000

$$$$
