
  -OEChem-04052301233D

 90 99  0     1  0  0  0  0  0999 V2000
  -17.0567  -31.0394   14.0664 C   0  0  0  0  0  0  0  0  0  0  0  0
  -18.3778  -30.6442   14.2504 C   0  0  0  0  0  0  0  0  0  0  0  0
  -22.7446  -10.1498   20.1044 C   0  0  0  0  0  0  0  0  0  0  0  0
  -24.3421   -9.4310   21.7682 C   0  0  0  0  0  0  0  0  0  0  0  0
  -16.1273  -30.8591   15.0899 C   0  0  0  0  0  0  0  0  0  0  0  0
  -18.7706  -30.0695   15.4587 C   0  0  0  0  0  0  0  0  0  0  0  0
  -21.6509  -23.4700   15.6631 C   0  0  0  0  0  0  0  0  0  0  0  0
  -22.0333   -8.9620   20.2743 C   0  0  0  0  0  0  0  0  0  0  0  0
  -23.6308   -8.2432   21.9381 C   0  0  0  0  0  0  0  0  0  0  0  0
  -22.4026  -22.2991   15.7622 C   0  0  0  0  0  0  0  0  0  0  0  0
  -20.8333   -7.2240   23.5368 C   0  0  0  0  0  0  0  0  0  0  0  0
  -20.5998   -6.7912   24.8420 C   0  0  0  0  0  0  0  0  0  0  0  0
  -27.1313  -15.8204   16.9546 C   0  0  0  0  0  0  0  0  0  0  0  0
  -22.4519  -22.5216   18.1696 C   0  0  0  0  0  0  0  0  0  0  0  0
  -25.7182  -14.0893   16.0361 C   0  0  0  0  0  0  0  0  0  0  0  0
  -21.8014   -4.7470   24.3791 C   0  0  0  0  0  0  0  0  0  0  0  0
  -23.8991  -10.3843   20.8514 C   0  0  0  0  0  0  0  0  0  0  0  0
  -28.2493  -15.0079   16.7661 C   0  0  0  0  0  0  0  0  0  0  0  0
  -24.1632  -12.9214   20.8805 C   0  0  0  0  0  0  0  0  0  0  0  0
  -16.5067  -30.2731   16.3078 C   0  0  0  0  0  0  0  0  0  0  0  0
  -21.2832  -24.1638   16.8194 C   0  0  0  0  0  0  0  0  0  0  0  0
  -17.8457  -29.8825   16.5000 C   0  0  0  0  0  0  0  0  0  0  0  0
  -21.6883  -23.6884   18.0774 C   0  0  0  0  0  0  0  0  0  0  0  0
  -26.8362  -13.2768   15.8475 C   0  0  0  0  0  0  0  0  0  0  0  0
  -25.8657  -15.3611   16.5897 C   0  0  0  0  0  0  0  0  0  0  0  0
  -28.1017  -13.7361   16.2125 C   0  0  0  0  0  0  0  0  0  0  0  0
  -22.4763   -8.0088   21.1911 C   0  0  0  0  0  0  0  0  0  0  0  0
  -22.8023  -21.8262   17.0123 C   0  0  0  0  0  0  0  0  0  0  0  0
  -21.5507   -6.4183   22.6526 C   0  0  0  0  0  0  0  0  0  0  0  0
  -21.0839   -5.5527   25.2632 C   0  0  0  0  0  0  0  0  0  0  0  0
  -22.0348   -5.1798   23.0738 C   0  0  0  0  0  0  0  0  0  0  0  0
  -24.6346  -11.6108   20.6760 C   0  0  0  0  0  0  0  0  0  0  0  0
  -25.2373  -13.7233   20.5810 C   0  0  0  0  0  0  0  0  0  0  0  0
  -23.6031  -18.3260   16.6446 C   0  0  0  0  0  0  0  0  0  0  0  0
  -24.5396  -17.4534   16.1993 C   0  0  0  0  0  0  0  0  0  0  0  0
  -22.7796  -17.9323   17.8370 C   0  0  0  0  0  0  0  0  0  0  0  0
  -30.3335  -16.2362   16.3630 C   0  0  0  0  0  0  0  0  0  0  0  0
  -29.5543  -15.5245   17.1622 C   0  0  0  0  0  0  0  0  0  0  0  0
  -22.8699  -13.3735   21.3034 C   0  0  0  0  0  0  0  0  0  0  0  0
  -19.4752  -27.0982   18.3014 C   0  0  0  0  0  0  0  0  0  0  0  0
  -18.9029  -24.6907   20.1144 C   0  0  0  0  0  0  0  0  0  0  0  0
  -17.5445  -22.4238   22.2716 C   0  0  0  0  0  0  0  0  0  0  0  0
  -30.0865  -12.4610   17.0645 C   0  0  0  0  0  0  0  0  0  0  0  0
  -15.4772  -30.1420   17.4022 C   0  0  0  0  0  0  0  0  0  0  0  0
  -20.5264  -25.4626   16.7565 C   0  0  0  0  0  0  0  0  0  0  0  0
  -21.2992  -24.4862   19.2919 C   0  0  0  0  0  0  0  0  0  0  0  0
  -23.1259  -16.6541   18.5620 C   0  0  0  0  0  0  0  0  0  0  0  0
  -15.8903  -29.1825   18.5153 C   0  0  0  0  0  0  0  0  0  0  0  0
  -30.0169  -13.7562   20.5302 C   0  0  0  0  0  0  0  0  0  0  0  0
  -17.3275  -29.4542   18.9482 C   0  0  0  0  0  0  0  0  0  0  0  0
  -28.6122  -13.3858   21.0026 C   0  0  0  0  0  0  0  0  0  0  0  0
  -23.6720  -15.5999   17.6151 C   0  0  0  0  0  0  0  0  0  0  0  0
  -30.5350  -12.7824   19.4761 C   0  0  0  0  0  0  0  0  0  0  0  0
  -28.2155  -12.2647   18.7739 C   0  0  0  0  0  0  0  0  0  0  0  0
  -18.3046  -29.2327   17.7873 C   0  0  1  0  0  0  0  0  0  0  0  0
  -19.5450  -25.6466   17.9279 C   0  0  1  0  0  0  0  0  0  0  0  0
  -27.6549  -13.2539   19.8067 C   0  0  1  0  0  0  0  0  0  0  0  0
  -26.6453  -11.9194   15.2515 C   0  0  0  0  0  0  0  0  0  0  0  0
  -25.3506  -17.7820   14.9607 C   0  0  0  0  0  0  0  0  0  0  0  0
  -16.5692  -22.2372   24.5762 C   0  0  0  0  0  0  0  0  0  0  0  0
  -21.7050  -24.8486   21.3090 C   0  0  0  0  0  0  0  0  0  0  0  0
  -20.8127  -23.7391   23.3683 C   0  0  0  0  0  0  0  0  0  0  0  0
  -19.9266  -25.9635   22.6686 C   0  0  0  0  0  0  0  0  0  0  0  0
  -29.7172  -12.6746   14.6459 C   0  0  0  0  0  0  0  0  0  0  0  0
  -14.9345  -21.5083   21.2187 C   0  0  0  0  0  0  0  0  0  0  0  0
  -23.3185  -19.6943   16.0926 C   0  0  0  0  0  0  0  0  0  1  0  0
  -19.3015  -23.9061   21.3387 C   0  0  1  0  0  0  0  0  0  0  0  0
  -16.2736  -22.4585   23.1009 C   0  0  2  0  0  0  0  0  0  0  0  0
  -20.4338  -24.6019   22.1457 C   0  0  0  0  0  0  0  0  0  0  0  0
  -25.9089  -11.5775   20.2773 N   0  0  0  0  0  0  0  0  0  0  0  0
  -26.2474  -12.8772   20.2288 N   0  0  0  0  0  0  0  0  0  0  0  0
  -24.7280  -16.1866   16.7824 N   0  0  0  0  0  0  0  0  0  0  0  0
  -19.9052  -24.9405   19.1691 N   0  0  0  0  0  0  0  0  0  0  0  0
  -29.5864  -12.6211   18.3731 N   0  0  0  0  0  0  0  0  0  0  0  0
  -25.4069  -15.0625   20.5872 N   0  0  0  0  0  0  0  0  0  0  0  0
  -22.6336  -13.5326   22.6756 N   0  0  0  0  0  0  0  0  0  0  0  0
  -18.5379  -27.8187   17.5859 N   0  0  0  0  0  0  0  0  0  0  0  0
  -18.0759  -23.6844   22.0983 N   0  0  0  0  0  0  0  0  0  0  0  0
  -29.2513  -12.8875   16.0144 N   0  0  0  0  0  0  0  0  0  0  0  0
  -15.3295  -21.3986   22.6467 N   0  3  0  0  0  0  0  0  0  0  0  0
  -21.8778  -18.6614   18.2492 O   0  0  0  0  0  0  0  0  0  0  0  0
  -21.9461  -13.6132   20.4894 O   0  0  0  0  0  0  0  0  0  0  0  0
  -20.2156  -27.5334   19.1754 O   0  0  0  0  0  0  0  0  0  0  0  0
  -17.7366  -25.0776   19.9993 O   0  0  0  0  0  0  0  0  0  0  0  0
  -18.0206  -21.3823   21.8254 O   0  0  0  0  0  0  0  0  0  0  0  0
  -31.1787  -11.9238   16.8426 O   0  0  0  0  0  0  0  0  0  0  0  0
  -21.7824   -6.8497   21.3573 O   0  0  0  0  0  0  0  0  0  0  0  0
  -23.5323  -20.6800   17.1021 O   0  0  0  0  0  0  0  0  0  1  0  0
  -20.8610   -5.1379   26.5172 F   0  0  0  0  0  0  0  0  0  0  0  0
  -22.7258   -4.4018   22.2293 F   0  0  0  0  0  0  0  0  0  0  0  0
  1  2  1  0  0  0  0
  1  5  2  0  0  0  0
  2  6  2  0  0  0  0
  3  8  2  0  0  0  0
  3 17  1  0  0  0  0
  4  9  1  0  0  0  0
  4 17  2  0  0  0  0
  5 20  1  0  0  0  0
  6 22  1  0  0  0  0
  7 10  2  0  0  0  0
  7 21  1  0  0  0  0
  8 27  1  0  0  0  0
  9 27  2  0  0  0  0
 10 28  1  0  0  0  0
 11 12  2  0  0  0  0
 11 29  1  0  0  0  0
 12 30  1  0  0  0  0
 13 18  1  0  0  0  0
 13 25  2  0  0  0  0
 14 23  1  0  0  0  0
 14 28  2  0  0  0  0
 15 24  2  0  0  0  0
 15 25  1  0  0  0  0
 16 30  2  0  0  0  0
 16 31  1  0  0  0  0
 17 32  1  0  0  0  0
 18 26  2  0  0  0  0
 18 38  1  0  0  0  0
 19 32  1  0  0  0  0
 19 33  2  0  0  0  0
 19 39  1  0  0  0  0
 20 22  2  0  0  0  0
 20 44  1  0  0  0  0
 21 23  2  0  0  0  0
 21 45  1  0  0  0  0
 22 55  1  0  0  0  0
 23 46  1  0  0  0  0
 24 26  1  0  0  0  0
 24 58  1  0  0  0  0
 25 72  1  0  0  0  0
 26 79  1  0  0  0  0
 27 87  1  0  0  0  0
 28 88  1  0  0  0  0
 29 31  2  0  0  0  0
 29 87  1  0  0  0  0
 30 89  1  0  0  0  0
 31 90  1  0  0  0  0
 32 70  2  0  0  0  0
 33 71  1  0  0  0  0
 33 75  1  0  0  0  0
 34 35  2  0  0  0  0
 34 36  1  0  0  0  0
 34 66  1  0  0  0  0
 35 59  1  0  0  0  0
 35 72  1  0  0  0  0
 36 47  1  0  0  0  0
 36 81  2  0  0  0  0
 37 38  2  0  0  0  0
 39 76  1  0  0  0  0
 39 82  2  0  0  0  0
 40 56  1  0  0  0  0
 40 77  1  0  0  0  0
 40 83  2  0  0  0  0
 41 67  1  0  0  0  0
 41 73  1  0  0  0  0
 41 84  2  0  0  0  0
 42 68  1  0  0  0  0
 42 78  1  0  0  0  0
 42 85  2  0  0  0  0
 43 74  1  0  0  0  0
 43 79  1  0  0  0  0
 43 86  2  0  0  0  0
 44 48  1  0  0  0  0
 45 56  1  0  0  0  0
 46 73  1  0  0  0  0
 47 52  1  0  0  0  0
 48 50  1  0  0  0  0
 49 51  1  0  0  0  0
 49 53  1  0  0  0  0
 50 55  1  0  0  0  0
 51 57  1  0  0  0  0
 52 72  1  0  0  0  0
 53 74  1  0  0  0  0
 54 57  1  0  0  0  0
 54 74  1  0  0  0  0
 55 77  1  0  0  0  0
 56 73  1  0  0  0  0
 57 71  1  0  0  0  0
 60 68  1  0  0  0  0
 61 69  1  0  0  0  0
 62 69  1  0  0  0  0
 63 69  1  0  0  0  0
 64 79  1  0  0  0  0
 65 80  1  0  0  0  0
 66 88  1  0  0  0  0
 67 69  1  0  0  0  0
 67 78  1  0  0  0  0
 68 80  1  0  0  0  0
 70 71  1  0  0  0  0
M  CHG  1  80   1
M  ISO  4  43 100  66 101  79 100  88 101
M  END
> <Batch ID>
0109

> <Smiles>
C=Cc1cc(N2CCC(=O)C([101CH2:1][101O:1]c3ccc4c(c3)CN(C(=O)C(NC(=O)C(C)NC)C(C)(C)C)C(C(=O)NC3CCCc5ccccc53)C4)=C2C)cc(C)c1[100N:0](C)[100C:0](=O)N1CCCC(n2nc(-c3ccc(Oc4ccc(F)cc4F)cc3)c(C(N)=O)c2N)C1

> <Shape>
0.172

> <Color>
0.159

> <Negative vol penalty>
0.000

$$$$

  -OEChem-04052301233D

 86 94  0     1  0  0  0  0  0999 V2000
  -28.8415  -11.6886   19.3279 C   0  0  0  0  0  0  0  0  0  0  0  0
  -28.8174  -13.0642   19.1211 C   0  0  0  0  0  0  0  0  0  0  0  0
  -23.9790  -28.6140   23.4131 C   0  0  0  0  0  0  0  0  0  0  0  0
  -22.7450  -27.6124   21.5935 C   0  0  0  0  0  0  0  0  0  0  0  0
  -27.7137  -11.0405   19.8300 C   0  0  0  0  0  0  0  0  0  0  0  0
  -27.6651  -13.7923   19.4153 C   0  0  0  0  0  0  0  0  0  0  0  0
  -28.6625  -18.0796   21.9191 C   0  0  0  0  0  0  0  0  0  0  0  0
  -34.8149  -28.6263   21.5663 C   0  0  0  0  0  0  0  0  0  0  0  0
  -34.3611  -27.3074   21.5560 C   0  0  0  0  0  0  0  0  0  0  0  0
  -22.8104  -28.6745   24.1723 C   0  0  0  0  0  0  0  0  0  0  0  0
  -21.5764  -27.6728   22.3526 C   0  0  0  0  0  0  0  0  0  0  0  0
  -29.1431  -19.1552   21.1736 C   0  0  0  0  0  0  0  0  0  0  0  0
  -19.2850  -30.0037   23.2172 C   0  0  0  0  0  0  0  0  0  0  0  0
  -18.1278  -30.4652   22.5899 C   0  0  0  0  0  0  0  0  0  0  0  0
  -32.7528  -27.8741   19.8444 C   0  0  0  0  0  0  0  0  0  0  0  0
  -26.9318  -20.1189   21.1496 C   0  0  0  0  0  0  0  0  0  0  0  0
  -17.0392  -28.3574   23.0474 C   0  0  0  0  0  0  0  0  0  0  0  0
  -23.9463  -28.0830   22.1237 C   0  0  0  0  0  0  0  0  0  0  0  0
  -33.2066  -29.1930   19.8548 C   0  0  0  0  0  0  0  0  0  0  0  0
  -26.0819  -26.9641   21.2901 C   0  0  0  0  0  0  0  0  0  0  0  0
  -26.5503  -11.7625   20.1396 C   0  0  0  0  0  0  0  0  0  0  0  0
  -27.3084  -18.0100   22.2767 C   0  0  0  0  0  0  0  0  0  0  0  0
  -26.5203  -13.1530   19.9208 C   0  0  0  0  0  0  0  0  0  0  0  0
  -26.4370  -19.0426   21.9018 C   0  0  0  0  0  0  0  0  0  0  0  0
  -34.2376  -29.5691   20.7157 C   0  0  0  0  0  0  0  0  0  0  0  0
  -33.3301  -26.9312   20.6951 C   0  0  0  0  0  0  0  0  0  0  0  0
  -21.6091  -28.2039   23.6421 C   0  0  0  0  0  0  0  0  0  0  0  0
  -28.2772  -20.1737   20.7862 C   0  0  0  0  0  0  0  0  0  0  0  0
  -19.3193  -28.7190   23.7596 C   0  0  0  0  0  0  0  0  0  0  0  0
  -17.0049  -29.6421   22.5050 C   0  0  0  0  0  0  0  0  0  0  0  0
  -18.1964  -27.8959   23.6747 C   0  0  0  0  0  0  0  0  0  0  0  0
  -25.1530  -28.0207   21.3387 C   0  0  0  0  0  0  0  0  0  0  0  0
  -27.0409  -27.3905   20.4040 C   0  0  0  0  0  0  0  0  0  0  0  0
  -32.5747  -30.1765   18.9381 C   0  0  0  0  0  0  0  0  0  0  0  0
  -26.0783  -25.7094   21.9838 C   0  0  0  0  0  0  0  0  0  0  0  0
  -24.9280  -15.9937   21.6666 C   0  0  0  0  0  0  0  0  0  0  0  0
  -23.3254  -17.8571   23.7836 C   0  0  0  0  0  0  0  0  0  0  0  0
  -31.8579  -25.0494   19.8989 C   0  0  0  0  0  0  0  0  0  0  0  0
  -23.0145  -20.8893   25.3185 C   0  0  0  0  0  0  0  0  0  0  0  0
  -30.4303  -31.2829   18.3894 C   0  0  0  0  0  0  0  0  0  0  0  0
  -25.3402  -11.0112   20.6357 C   0  0  0  0  0  0  0  0  0  0  0  0
  -26.8111  -16.8564   23.1039 C   0  0  0  0  0  0  0  0  0  0  0  0
  -24.9786  -19.0253   22.2777 C   0  0  0  0  0  0  0  0  0  0  0  0
  -24.2849  -11.9102   21.2747 C   0  0  0  0  0  0  0  0  0  0  0  0
  -27.0854  -31.3512   17.2474 C   0  0  0  0  0  0  0  0  0  0  0  0
  -24.0277  -13.1348   20.4024 C   0  0  0  0  0  0  0  0  0  0  0  0
  -26.3591  -30.3977   18.2000 C   0  0  0  0  0  0  0  0  0  0  0  0
  -28.1539  -32.1705   17.9700 C   0  0  0  0  0  0  0  0  0  0  0  0
  -28.3906  -30.4376   19.7018 C   0  0  0  0  0  0  0  0  0  0  0  0
  -25.2975  -13.9811   20.2511 C   0  0  1  0  0  0  0  0  0  0  0  0
  -25.3079  -16.6314   22.9730 C   0  0  1  0  0  0  0  0  0  0  0  0
  -27.3530  -29.5399   19.0084 C   0  0  1  0  0  0  0  0  0  0  0  0
  -34.7427  -30.9748   20.7470 C   0  0  0  0  0  0  0  0  0  0  0  0
  -21.5857  -22.1229   26.9721 C   0  0  0  0  0  0  0  0  0  0  0  0
  -21.1589  -18.1886   21.6608 C   0  0  0  0  0  0  0  0  0  0  0  0
  -20.2733  -20.1317   22.9678 C   0  0  0  0  0  0  0  0  0  0  0  0
  -20.2993  -17.8543   23.9854 C   0  0  0  0  0  0  0  0  0  0  0  0
  -25.2943  -21.2941   27.1617 C   0  0  0  0  0  0  0  0  0  0  0  0
  -31.6800  -23.5690   20.2063 C   0  0  0  0  0  0  0  0  0  0  0  0
  -30.2474  -23.0927   19.9928 C   0  0  0  0  0  0  0  0  0  0  0  0
  -30.1049  -21.6015   20.2602 C   0  0  0  0  0  0  0  0  0  1  0  0
  -22.4774  -19.1021   23.6839 C   0  0  1  0  0  0  0  0  0  0  0  0
  -22.8265  -21.2654   26.7772 C   0  0  2  0  0  0  0  0  0  0  0  0
  -21.0793  -18.8188   23.0656 C   0  0  0  0  0  0  0  0  0  0  0  0
  -25.4913  -29.0416   20.5467 N   0  0  0  0  0  0  0  0  0  0  0  0
  -26.6437  -28.6285   19.9921 N   0  0  0  0  0  0  0  0  0  0  0  0
  -24.5390  -17.8729   23.0816 N   0  0  0  0  0  0  0  0  0  0  0  0
  -29.0599  -31.2845   18.7031 N   0  0  0  0  0  0  0  0  0  0  0  0
  -28.1767  -26.8235   19.9450 N   0  0  0  0  0  0  0  0  0  0  0  0
  -25.0177  -25.4317   22.8569 N   0  0  0  0  0  0  0  0  0  0  0  0
  -32.8686  -25.5934   20.6864 N   0  0  0  0  0  0  0  0  0  0  0  0
  -31.2047  -30.3714   19.1157 N   0  0  0  0  0  0  0  0  0  0  0  0
  -25.5257  -14.7678   21.4442 N   0  0  0  0  0  0  0  0  0  0  0  0
  -22.4328  -19.6741   25.0253 N   0  0  0  0  0  0  0  0  0  0  0  0
  -24.0074  -22.0282   27.2718 N   0  3  0  0  0  0  0  0  0  0  0  0
  -33.2763  -30.7746   18.1270 O   0  0  0  0  0  0  0  0  0  0  0  0
  -26.9971  -24.8665   21.8464 O   0  0  0  0  0  0  0  0  0  0  0  0
  -24.1492  -16.5704   20.9167 O   0  0  0  0  0  0  0  0  0  0  0  0
  -22.9291  -16.9084   24.4652 O   0  0  0  0  0  0  0  0  0  0  0  0
  -31.1734  -25.6273   19.0612 O   0  0  0  0  0  0  0  0  0  0  0  0
  -23.6139  -21.6041   24.5183 O   0  0  0  0  0  0  0  0  0  0  0  0
  -30.9166  -32.0031   17.5118 O   0  0  0  0  0  0  0  0  0  0  0  0
  -20.4687  -28.2625   24.3827 O   0  0  0  0  0  0  0  0  0  0  0  0
  -28.7436  -21.2244   20.0580 O   0  0  0  0  0  0  0  0  0  1  0  0
  -15.8932  -30.0860   21.9040 F   0  0  0  0  0  0  0  0  0  0  0  0
  -18.2230  -26.6612   24.1949 F   0  0  0  0  0  0  0  0  0  0  0  0
  1  2  1  0  0  0  0
  1  5  2  0  0  0  0
  2  6  2  0  0  0  0
  3 10  2  0  0  0  0
  3 18  1  0  0  0  0
  4 11  1  0  0  0  0
  4 18  2  0  0  0  0
  5 21  1  0  0  0  0
  6 23  1  0  0  0  0
  7 12  2  0  0  0  0
  7 22  1  0  0  0  0
  8  9  2  0  0  0  0
  8 25  1  0  0  0  0
  9 26  1  0  0  0  0
 10 27  1  0  0  0  0
 11 27  2  0  0  0  0
 12 28  1  0  0  0  0
 13 14  2  0  0  0  0
 13 29  1  0  0  0  0
 14 30  1  0  0  0  0
 15 19  1  0  0  0  0
 15 26  2  0  0  0  0
 16 24  1  0  0  0  0
 16 28  2  0  0  0  0
 17 30  2  0  0  0  0
 17 31  1  0  0  0  0
 18 32  1  0  0  0  0
 19 25  2  0  0  0  0
 19 34  1  0  0  0  0
 20 32  1  0  0  0  0
 20 33  2  0  0  0  0
 20 35  1  0  0  0  0
 21 23  2  0  0  0  0
 21 41  1  0  0  0  0
 22 24  2  0  0  0  0
 22 42  1  0  0  0  0
 23 50  1  0  0  0  0
 24 43  1  0  0  0  0
 25 53  1  0  0  0  0
 26 71  1  0  0  0  0
 27 83  1  0  0  0  0
 28 84  1  0  0  0  0
 29 31  2  0  0  0  0
 29 83  1  0  0  0  0
 30 85  1  0  0  0  0
 31 86  1  0  0  0  0
 32 65  2  0  0  0  0
 33 66  1  0  0  0  0
 33 69  1  0  0  0  0
 34 72  1  0  0  0  0
 34 76  2  0  0  0  0
 35 70  1  0  0  0  0
 35 77  2  0  0  0  0
 36 51  1  0  0  0  0
 36 73  1  0  0  0  0
 36 78  2  0  0  0  0
 37 62  1  0  0  0  0
 37 67  1  0  0  0  0
 37 79  2  0  0  0  0
 38 59  1  0  0  0  0
 38 71  1  0  0  0  0
 38 80  2  0  0  0  0
 39 63  1  0  0  0  0
 39 74  1  0  0  0  0
 39 81  2  0  0  0  0
 40 68  1  0  0  0  0
 40 72  1  0  0  0  0
 40 82  2  0  0  0  0
 41 44  1  0  0  0  0
 42 51  1  0  0  0  0
 43 67  1  0  0  0  0
 44 46  1  0  0  0  0
 45 47  1  0  0  0  0
 45 48  1  0  0  0  0
 46 50  1  0  0  0  0
 47 52  1  0  0  0  0
 48 68  1  0  0  0  0
 49 52  1  0  0  0  0
 49 68  1  0  0  0  0
 50 73  1  0  0  0  0
 51 67  1  0  0  0  0
 52 66  1  0  0  0  0
 54 63  1  0  0  0  0
 55 64  1  0  0  0  0
 56 64  1  0  0  0  0
 57 64  1  0  0  0  0
 58 75  1  0  0  0  0
 59 60  1  0  0  0  0
 60 61  1  0  0  0  0
 61 84  1  0  0  0  0
 62 64  1  0  0  0  0
 62 74  1  0  0  0  0
 63 75  1  0  0  0  0
 65 66  1  0  0  0  0
M  CHG  1  75   1
M  ISO  4  40 100  61 101  72 100  84 101
M  END
> <Batch ID>
0109

> <Smiles>
CNC(C)C(=O)NC(C(=O)N1Cc2cc([101O:1][101CH2:1]CCC(=O)Nc3ccc(C)c(C(=O)[100NH:0][100C:0](=O)N4CCCC(n5nc(-c6ccc(Oc7ccc(F)cc7F)cc6)c(C(N)=O)c5N)C4)c3)ccc2CC1C(=O)NC1CCCc2ccccc21)C(C)(C)C

> <Shape>
0.190

> <Color>
0.092

> <Negative vol penalty>
0.000

$$$$

  -OEChem-04052301233D

 88 97  0     1  0  0  0  0  0999 V2000
  -29.1956  -32.9640   26.1731 C   0  0  0  0  0  0  0  0  0  0  0  0
  -29.0625  -31.7602   25.4886 C   0  0  0  0  0  0  0  0  0  0  0  0
  -24.1354   -9.9162   22.5665 C   0  0  0  0  0  0  0  0  0  0  0  0
  -24.5689  -11.7815   24.0394 C   0  0  0  0  0  0  0  0  0  0  0  0
  -28.0597  -33.6761   26.5561 C   0  0  0  0  0  0  0  0  0  0  0  0
  -27.7934  -31.2672   25.1876 C   0  0  0  0  0  0  0  0  0  0  0  0
  -27.4495  -29.5604   20.4323 C   0  0  0  0  0  0  0  0  0  0  0  0
  -23.7572   -9.1394   23.6615 C   0  0  0  0  0  0  0  0  0  0  0  0
  -24.1906  -11.0048   25.1345 C   0  0  0  0  0  0  0  0  0  0  0  0
  -27.9927  -28.3044   20.1658 C   0  0  0  0  0  0  0  0  0  0  0  0
  -21.0418   -8.7847   25.6448 C   0  0  0  0  0  0  0  0  0  0  0  0
  -19.8823   -8.0184   25.5265 C   0  0  0  0  0  0  0  0  0  0  0  0
  -25.7877  -27.3328   20.2815 C   0  0  0  0  0  0  0  0  0  0  0  0
  -28.0335  -20.4437   18.3515 C   0  0  0  0  0  0  0  0  0  0  0  0
  -30.2319  -18.7265   18.3241 C   0  0  0  0  0  0  0  0  0  0  0  0
  -21.1698   -6.0106   25.9111 C   0  0  0  0  0  0  0  0  0  0  0  0
  -24.5414  -11.2372   22.7554 C   0  0  0  0  0  0  0  0  0  0  0  0
  -24.1027  -12.8572   20.8343 C   0  0  0  0  0  0  0  0  0  0  0  0
  -26.7762  -33.1963   26.2513 C   0  0  0  0  0  0  0  0  0  0  0  0
  -26.0703  -29.7106   20.6366 C   0  0  0  0  0  0  0  0  0  0  0  0
  -26.6392  -31.9728   25.5681 C   0  0  0  0  0  0  0  0  0  0  0  0
  -25.2292  -28.5923   20.5480 C   0  0  0  0  0  0  0  0  0  0  0  0
  -27.8423  -19.0646   18.4361 C   0  0  0  0  0  0  0  0  0  0  0  0
  -29.3239  -20.9642   18.2531 C   0  0  0  0  0  0  0  0  0  0  0  0
  -28.9415  -18.2060   18.4224 C   0  0  0  0  0  0  0  0  0  0  0  0
  -23.7848   -9.6837   24.9455 C   0  0  0  0  0  0  0  0  0  0  0  0
  -27.1622  -27.1899   20.0932 C   0  0  0  0  0  0  0  0  0  0  0  0
  -22.2654   -8.1639   25.8963 C   0  0  0  0  0  0  0  0  0  0  0  0
  -30.4231  -20.1056   18.2394 C   0  0  0  0  0  0  0  0  0  0  0  0
  -19.9463   -6.6314   25.6597 C   0  0  0  0  0  0  0  0  0  0  0  0
  -22.3294   -6.7769   26.0294 C   0  0  0  0  0  0  0  0  0  0  0  0
  -24.9328  -12.0400   21.6247 C   0  0  0  0  0  0  0  0  0  0  0  0
  -24.9475  -13.4013   19.8980 C   0  0  0  0  0  0  0  0  0  0  0  0
  -22.6938  -13.1027   20.9373 C   0  0  0  0  0  0  0  0  0  0  0  0
  -24.2543  -30.6874   23.0556 C   0  0  0  0  0  0  0  0  0  0  0  0
  -21.8709  -30.3932   20.8750 C   0  0  0  0  0  0  0  0  0  0  0  0
  -20.7371  -28.9463   17.9996 C   0  0  0  0  0  0  0  0  0  0  0  0
  -29.7630  -15.8260   18.5069 C   0  0  0  0  0  0  0  0  0  0  0  0
  -25.5772  -33.9775   26.7275 C   0  0  0  0  0  0  0  0  0  0  0  0
  -25.4967  -31.0765   20.8966 C   0  0  0  0  0  0  0  0  0  0  0  0
  -23.7394  -28.7033   20.7394 C   0  0  0  0  0  0  0  0  0  0  0  0
  -24.2750  -33.5732   26.0411 C   0  0  0  0  0  0  0  0  0  0  0  0
  -29.7438  -12.2731   18.7383 C   0  0  0  0  0  0  0  0  0  0  0  0
  -24.1396  -32.0543   26.0053 C   0  0  0  0  0  0  0  0  0  0  0  0
  -28.4221  -11.9630   19.4449 C   0  0  0  0  0  0  0  0  0  0  0  0
  -30.1251  -24.4722   17.3654 C   0  0  0  0  0  0  0  0  0  0  0  0
  -30.3896  -13.5482   19.2776 C   0  0  0  0  0  0  0  0  0  0  0  0
  -30.1513  -22.9826   17.0325 C   0  0  0  0  0  0  0  0  0  0  0  0
  -28.1979  -14.4211   19.9875 C   0  0  0  0  0  0  0  0  0  0  0  0
  -25.2800  -31.4176   25.2017 C   0  0  1  0  0  0  0  0  0  0  0  0
  -24.1423  -31.0322   21.5975 C   0  0  1  0  0  0  0  0  0  0  0  0
  -28.8986  -24.6073   18.2647 C   0  0  1  0  0  0  0  0  0  0  0  0
  -27.4777  -13.1809   19.4335 C   0  0  2  0  0  0  0  0  0  0  0  0
  -28.9434  -23.3170   19.1151 C   0  0  2  0  0  0  0  0  0  0  0  0
  -26.4490  -18.5344   18.5378 C   0  0  0  0  0  0  0  0  0  0  0  0
  -29.8816  -22.1205   21.1033 C   0  0  0  0  0  0  0  0  0  0  0  0
  -18.7359  -28.8735   16.4873 C   0  0  0  0  0  0  0  0  0  0  0  0
  -20.4164  -28.6220   22.8892 C   0  0  0  0  0  0  0  0  0  0  0  0
  -18.9438  -27.8312   21.0252 C   0  0  0  0  0  0  0  0  0  0  0  0
  -18.9487  -30.2404   21.6721 C   0  0  0  0  0  0  0  0  0  0  0  0
  -22.2904  -29.9805   15.7025 C   0  0  0  0  0  0  0  0  0  0  0  0
  -32.7534  -19.6424   18.1365 C   0  0  0  0  0  0  0  0  0  0  0  0
  -28.8696  -25.9191   19.0322 C   0  0  0  0  0  0  0  0  0  1  0  0
  -29.8320  -23.4136   20.3568 C   0  0  0  0  0  0  0  0  0  0  0  0
  -20.9428  -29.2814   20.4491 C   0  0  1  0  0  0  0  0  0  0  0  0
  -20.0752  -29.5370   16.7678 C   0  0  2  0  0  0  0  0  0  0  0  0
  -19.8412  -28.9910   21.5071 C   0  0  0  0  0  0  0  0  0  0  0  0
  -26.2072  -12.0599   21.2252 N   0  0  0  0  0  0  0  0  0  0  0  0
  -26.1841  -12.8962   20.1735 N   0  0  0  0  0  0  0  0  0  0  0  0
  -29.4994  -22.3331   18.1723 N   0  0  3  0  0  0  0  0  0  0  0  0
  -23.2271  -30.0592   20.9977 N   0  0  0  0  0  0  0  0  0  0  0  0
  -29.4376  -14.6602   19.2321 N   0  0  0  0  0  0  0  0  0  0  0  0
  -24.7459  -14.2576   18.8740 N   0  0  0  0  0  0  0  0  0  0  0  0
  -21.9769  -12.4628   21.9575 N   0  0  0  0  0  0  0  0  0  0  0  0
  -28.7674  -16.8024   18.5080 N   0  0  0  0  0  0  0  0  0  0  0  0
  -25.0398  -31.5621   23.7819 N   0  0  0  0  0  0  0  0  0  0  0  0
  -20.4270  -29.6600   19.1379 N   0  0  0  0  0  0  0  0  0  0  0  0
  -20.9484  -29.3566   15.5737 N   0  3  0  0  0  0  0  0  0  0  0  0
  -22.0856  -13.8541   20.1379 O   0  0  0  0  0  0  0  0  0  0  0  0
  -23.6702  -29.7016   23.4899 O   0  0  0  0  0  0  0  0  0  0  0  0
  -21.4107  -31.5185   21.0840 O   0  0  0  0  0  0  0  0  0  0  0  0
  -21.4544  -27.9492   17.9569 O   0  0  0  0  0  0  0  0  0  0  0  0
  -30.8340  -15.9381   17.9049 O   0  0  0  0  0  0  0  0  0  0  0  0
  -23.4155   -8.9261   26.0143 O   0  0  0  0  0  0  0  0  0  0  0  0
  -31.6918  -20.5943   18.1431 O   0  0  0  0  0  0  0  0  0  0  0  0
  -27.6899  -25.9626   19.8339 O   0  0  0  0  0  0  0  0  0  1  0  0
  -18.8325   -5.8959   25.5475 F   0  0  0  0  0  0  0  0  0  0  0  0
  -23.5018   -6.1750   26.2722 F   0  0  0  0  0  0  0  0  0  0  0  0
  1  2  1  0  0  0  0
  1  5  2  0  0  0  0
  2  6  2  0  0  0  0
  3  8  2  0  0  0  0
  3 17  1  0  0  0  0
  4  9  1  0  0  0  0
  4 17  2  0  0  0  0
  5 19  1  0  0  0  0
  6 21  1  0  0  0  0
  7 10  2  0  0  0  0
  7 20  1  0  0  0  0
  8 26  1  0  0  0  0
  9 26  2  0  0  0  0
 10 27  1  0  0  0  0
 11 12  2  0  0  0  0
 11 28  1  0  0  0  0
 12 30  1  0  0  0  0
 13 22  1  0  0  0  0
 13 27  2  0  0  0  0
 14 23  2  0  0  0  0
 14 24  1  0  0  0  0
 15 25  2  0  0  0  0
 15 29  1  0  0  0  0
 16 30  2  0  0  0  0
 16 31  1  0  0  0  0
 17 32  1  0  0  0  0
 18 32  1  0  0  0  0
 18 33  2  0  0  0  0
 18 34  1  0  0  0  0
 19 21  2  0  0  0  0
 19 39  1  0  0  0  0
 20 22  2  0  0  0  0
 20 40  1  0  0  0  0
 21 50  1  0  0  0  0
 22 41  1  0  0  0  0
 23 25  1  0  0  0  0
 23 55  1  0  0  0  0
 24 29  2  0  0  0  0
 24 70  1  0  0  0  0
 25 75  1  0  0  0  0
 26 84  1  0  0  0  0
 27 86  1  0  0  0  0
 28 31  2  0  0  0  0
 28 84  1  0  0  0  0
 29 85  1  0  0  0  0
 30 87  1  0  0  0  0
 31 88  1  0  0  0  0
 32 68  2  0  0  0  0
 33 69  1  0  0  0  0
 33 73  1  0  0  0  0
 34 74  1  0  0  0  0
 34 79  2  0  0  0  0
 35 51  1  0  0  0  0
 35 76  1  0  0  0  0
 35 80  2  0  0  0  0
 36 65  1  0  0  0  0
 36 71  1  0  0  0  0
 36 81  2  0  0  0  0
 37 66  1  0  0  0  0
 37 77  1  0  0  0  0
 37 82  2  0  0  0  0
 38 72  1  0  0  0  0
 38 75  1  0  0  0  0
 38 83  2  0  0  0  0
 39 42  1  0  0  0  0
 40 51  1  0  0  0  0
 41 71  1  0  0  0  0
 42 44  1  0  0  0  0
 43 45  1  0  0  0  0
 43 47  1  0  0  0  0
 44 50  1  0  0  0  0
 45 53  1  0  0  0  0
 46 48  1  0  0  0  0
 46 52  1  0  0  0  0
 47 72  1  0  0  0  0
 48 70  1  0  0  0  0
 49 53  1  0  0  0  0
 49 72  1  0  0  0  0
 50 76  1  0  0  0  0
 51 71  1  0  0  0  0
 52 54  1  0  0  0  0
 52 63  1  0  0  0  0
 53 69  1  0  0  0  0
 54 64  1  0  0  0  0
 54 70  1  0  0  0  0
 56 64  1  0  0  0  0
 57 66  1  0  0  0  0
 58 67  1  0  0  0  0
 59 67  1  0  0  0  0
 60 67  1  0  0  0  0
 61 78  1  0  0  0  0
 62 85  1  0  0  0  0
 63 86  1  0  0  0  0
 65 67  1  0  0  0  0
 65 77  1  0  0  0  0
 66 78  1  0  0  0  0
 68 69  1  0  0  0  0
M  CHG  1  78   1
M  ISO  4  38 100  63 101  75 100  86 101
M  END
> <Batch ID>
0109

> <Smiles>
CCC1C([101CH2:1][101O:1]c2ccc3c(c2)CN(C(=O)C(NC(=O)C(C)NC)C(C)(C)C)C(C(=O)NC2CCCc4ccccc42)C3)CCN1c1cc(C)c([100NH:0][100C:0](=O)N2CCCC(n3nc(-c4ccc(Oc5ccc(F)cc5F)cc4)c(C(N)=O)c3N)C2)cc1OC

> <Shape>
0.319

> <Color>
0.115

> <Negative vol penalty>
0.000

$$$$

  -OEChem-04052301233D

 93102  0     1  0  0  0  0  0999 V2000
  -30.4391  -32.1084   23.0328 C   0  0  0  0  0  0  0  0  0  0  0  0
  -30.3545  -31.4881   21.7904 C   0  0  0  0  0  0  0  0  0  0  0  0
  -23.1803  -10.2379   22.1473 C   0  0  0  0  0  0  0  0  0  0  0  0
  -23.6479   -9.5786   19.8705 C   0  0  0  0  0  0  0  0  0  0  0  0
  -29.5718  -31.7339   24.0582 C   0  0  0  0  0  0  0  0  0  0  0  0
  -29.4032  -30.4920   21.5731 C   0  0  0  0  0  0  0  0  0  0  0  0
  -25.2076  -27.8070   16.4248 C   0  0  0  0  0  0  0  0  0  0  0  0
  -22.3629   -9.1185   22.3035 C   0  0  0  0  0  0  0  0  0  0  0  0
  -22.8305   -8.4592   20.0267 C   0  0  0  0  0  0  0  0  0  0  0  0
  -24.8897  -26.5924   15.8187 C   0  0  0  0  0  0  0  0  0  0  0  0
  -22.7541   -5.8076   22.8671 C   0  0  0  0  0  0  0  0  0  0  0  0
  -22.8939   -5.0611   24.0371 C   0  0  0  0  0  0  0  0  0  0  0  0
  -23.3917  -26.0828   17.6395 C   0  0  0  0  0  0  0  0  0  0  0  0
  -27.0380  -18.9749   14.9056 C   0  0  0  0  0  0  0  0  0  0  0  0
  -26.3562  -18.9340   17.2230 C   0  0  0  0  0  0  0  0  0  0  0  0
  -20.5814   -5.4922   24.5884 C   0  0  0  0  0  0  0  0  0  0  0  0
  -23.8228  -10.4680   20.9307 C   0  0  0  0  0  0  0  0  0  0  0  0
  -28.3176  -17.7115   16.5191 C   0  0  0  0  0  0  0  0  0  0  0  0
  -24.2915  -12.9753   20.8950 C   0  0  0  0  0  0  0  0  0  0  0  0
  -28.6030  -30.7395   23.8503 C   0  0  0  0  0  0  0  0  0  0  0  0
  -24.6273  -28.1644   17.6503 C   0  0  0  0  0  0  0  0  0  0  0  0
  -28.5230  -30.1029   22.5970 C   0  0  0  0  0  0  0  0  0  0  0  0
  -23.7020  -27.3037   18.2579 C   0  0  0  0  0  0  0  0  0  0  0  0
  -28.1183  -18.1463   15.2088 C   0  0  0  0  0  0  0  0  0  0  0  0
  -26.1569  -19.3687   15.9127 C   0  0  0  0  0  0  0  0  0  0  0  0
  -22.1880   -8.2291   21.2433 C   0  0  0  0  0  0  0  0  0  0  0  0
  -23.9838  -25.7288   16.4275 C   0  0  0  0  0  0  0  0  0  0  0  0
  -21.5280   -6.3965   22.5578 C   0  0  0  0  0  0  0  0  0  0  0  0
  -27.4365  -18.1053   17.5263 C   0  0  0  0  0  0  0  0  0  0  0  0
  -21.8076   -4.9034   24.8977 C   0  0  0  0  0  0  0  0  0  0  0  0
  -20.4417   -6.2387   23.4184 C   0  0  0  0  0  0  0  0  0  0  0  0
  -24.6668  -11.6244   20.7685 C   0  0  0  0  0  0  0  0  0  0  0  0
  -25.4459  -13.6771   20.6476 C   0  0  0  0  0  0  0  0  0  0  0  0
  -23.6727  -22.1535   16.0537 C   0  0  0  0  0  0  0  0  0  0  0  0
  -24.8454  -21.4845   16.1697 C   0  0  0  0  0  0  0  0  0  0  0  0
  -22.6032  -21.5480   15.1936 C   0  0  0  0  0  0  0  0  0  0  0  0
  -29.4664  -16.8291   16.8483 C   0  0  0  0  0  0  0  0  0  0  0  0
  -23.0135  -13.5449   21.2082 C   0  0  0  0  0  0  0  0  0  0  0  0
  -25.7381  -28.7718   20.5659 C   0  0  0  0  0  0  0  0  0  0  0  0
  -22.6495  -29.5706   21.1530 C   0  0  0  0  0  0  0  0  0  0  0  0
  -19.5091  -30.2514   22.3025 C   0  0  0  0  0  0  0  0  0  0  0  0
  -30.0621  -14.5924   17.7234 C   0  0  0  0  0  0  0  0  0  0  0  0
  -27.7188  -30.3352   25.0033 C   0  0  0  0  0  0  0  0  0  0  0  0
  -24.9604  -29.4901   18.2779 C   0  0  0  0  0  0  0  0  0  0  0  0
  -23.0358  -27.6496   19.5636 C   0  0  0  0  0  0  0  0  0  0  0  0
  -22.9868  -20.3966   14.2977 C   0  0  0  0  0  0  0  0  0  0  0  0
  -26.4913  -29.5337   24.5777 C   0  0  0  0  0  0  0  0  0  0  0  0
  -30.2384  -12.0951   20.2193 C   0  0  0  0  0  0  0  0  0  0  0  0
  -26.8846  -28.4381   23.5919 C   0  0  0  0  0  0  0  0  0  0  0  0
  -28.7743  -11.8643   20.6033 C   0  0  0  0  0  0  0  0  0  0  0  0
  -23.9537  -19.4582   14.9937 C   0  0  0  0  0  0  0  0  0  0  0  0
  -30.3990  -12.3480   18.7209 C   0  0  0  0  0  0  0  0  0  0  0  0
  -28.0873  -13.1769   18.5565 C   0  0  0  0  0  0  0  0  0  0  0  0
  -27.4880  -29.0355   22.3150 C   0  0  1  0  0  0  0  0  0  0  0  0
  -24.6998  -29.5221   19.7807 C   0  0  1  0  0  0  0  0  0  0  0  0
  -27.8648  -12.9874   20.0658 C   0  0  1  0  0  0  0  0  0  0  0  0
  -29.0456  -17.7409   14.1095 C   0  0  0  0  0  0  0  0  0  0  0  0
  -26.0188  -22.1404   16.8723 C   0  0  0  0  0  0  0  0  0  0  0  0
  -28.9254  -19.1808   21.9999 C   0  0  0  0  0  0  0  0  0  0  0  0
  -18.1631  -30.3446   24.4184 C   0  0  0  0  0  0  0  0  0  0  0  0
  -22.5066  -26.5230   21.1936 C   0  0  0  0  0  0  0  0  0  0  0  0
  -20.4753  -26.7070   22.6455 C   0  0  0  0  0  0  0  0  0  0  0  0
  -22.6653  -27.5900   23.4498 C   0  0  0  0  0  0  0  0  0  0  0  0
  -18.9389  -33.1340   21.9498 C   0  0  0  0  0  0  0  0  0  0  0  0
  -23.3189  -23.4619   16.7010 C   0  0  0  0  0  0  0  0  0  1  0  0
  -28.6913  -18.1574   20.9033 C   0  0  0  0  0  0  0  0  0  0  0  0
  -27.8015  -18.7057   19.7983 C   0  0  0  0  0  0  0  0  0  0  0  0
  -21.4244  -28.8266   21.6270 C   0  0  1  0  0  0  0  0  0  0  0  0
  -19.0213  -31.1309   23.4396 C   0  0  2  0  0  0  0  0  0  0  0  0
  -21.7687  -27.4243   22.2035 C   0  0  0  0  0  0  0  0  0  0  0  0
  -25.9587  -11.4745   20.4642 N   0  0  0  0  0  0  0  0  0  0  0  0
  -26.4052  -12.7404   20.3973 N   0  0  0  0  0  0  0  0  0  0  0  0
  -25.0556  -20.2132   15.6038 N   0  0  0  0  0  0  0  0  0  0  0  0
  -23.3991  -28.9543   20.1410 N   0  0  0  0  0  0  0  0  0  0  0  0
  -29.5117  -13.4311   18.2934 N   0  0  0  0  0  0  0  0  0  0  0  0
  -25.7240  -14.9978   20.6218 N   0  0  0  0  0  0  0  0  0  0  0  0
  -22.6964  -13.7753   22.5538 N   0  0  0  0  0  0  0  0  0  0  0  0
  -29.1355  -15.5857   17.3876 N   0  0  0  0  0  0  0  0  0  0  0  0
  -26.4442  -29.5559   21.4582 N   0  0  0  0  0  0  0  0  0  0  0  0
  -20.7492  -29.7112   22.5704 N   0  0  0  0  0  0  0  0  0  0  0  0
  -18.2108  -32.2628   22.9080 N   0  3  0  0  0  0  0  0  0  0  0  0
  -21.4709  -22.0271   15.1559 O   0  0  0  0  0  0  0  0  0  0  0  0
  -30.6059  -17.2128   16.5991 O   0  0  0  0  0  0  0  0  0  0  0  0
  -22.1710  -13.8255   20.3222 O   0  0  0  0  0  0  0  0  0  0  0  0
  -25.8866  -27.5701   20.3774 O   0  0  0  0  0  0  0  0  0  0  0  0
  -22.9270  -30.6617   21.6570 O   0  0  0  0  0  0  0  0  0  0  0  0
  -18.8538  -30.0595   21.2806 O   0  0  0  0  0  0  0  0  0  0  0  0
  -31.2768  -14.7475   17.5625 O   0  0  0  0  0  0  0  0  0  0  0  0
  -21.3907   -7.1366   21.3955 O   0  0  0  0  0  0  0  0  0  0  0  0
  -23.6722  -24.5423   15.8384 O   0  0  0  0  0  0  0  0  0  1  0  0
  -27.6123  -17.6922   18.8133 O   0  0  0  0  0  0  0  0  0  0  0  0
  -21.9415   -4.1852   26.0204 F   0  0  0  0  0  0  0  0  0  0  0  0
  -19.2610   -6.8011   23.1260 F   0  0  0  0  0  0  0  0  0  0  0  0
  1  2  1  0  0  0  0
  1  5  2  0  0  0  0
  2  6  2  0  0  0  0
  3  8  2  0  0  0  0
  3 17  1  0  0  0  0
  4  9  1  0  0  0  0
  4 17  2  0  0  0  0
  5 20  1  0  0  0  0
  6 22  1  0  0  0  0
  7 10  2  0  0  0  0
  7 21  1  0  0  0  0
  8 26  1  0  0  0  0
  9 26  2  0  0  0  0
 10 27  1  0  0  0  0
 11 12  2  0  0  0  0
 11 28  1  0  0  0  0
 12 30  1  0  0  0  0
 13 23  1  0  0  0  0
 13 27  2  0  0  0  0
 14 24  2  0  0  0  0
 14 25  1  0  0  0  0
 15 25  2  0  0  0  0
 15 29  1  0  0  0  0
 16 30  2  0  0  0  0
 16 31  1  0  0  0  0
 17 32  1  0  0  0  0
 18 24  1  0  0  0  0
 18 29  2  0  0  0  0
 18 37  1  0  0  0  0
 19 32  1  0  0  0  0
 19 33  2  0  0  0  0
 19 38  1  0  0  0  0
 20 22  2  0  0  0  0
 20 43  1  0  0  0  0
 21 23  2  0  0  0  0
 21 44  1  0  0  0  0
 22 54  1  0  0  0  0
 23 45  1  0  0  0  0
 24 57  1  0  0  0  0
 25 73  1  0  0  0  0
 26 89  1  0  0  0  0
 27 90  1  0  0  0  0
 28 31  2  0  0  0  0
 28 89  1  0  0  0  0
 29 91  1  0  0  0  0
 30 92  1  0  0  0  0
 31 93  1  0  0  0  0
 32 71  2  0  0  0  0
 33 72  1  0  0  0  0
 33 76  1  0  0  0  0
 34 35  2  0  0  0  0
 34 36  1  0  0  0  0
 34 65  1  0  0  0  0
 35 58  1  0  0  0  0
 35 73  1  0  0  0  0
 36 46  1  0  0  0  0
 36 82  2  0  0  0  0
 37 78  1  0  0  0  0
 37 83  2  0  0  0  0
 38 77  1  0  0  0  0
 38 84  2  0  0  0  0
 39 55  1  0  0  0  0
 39 79  1  0  0  0  0
 39 85  2  0  0  0  0
 40 68  1  0  0  0  0
 40 74  1  0  0  0  0
 40 86  2  0  0  0  0
 41 69  1  0  0  0  0
 41 80  1  0  0  0  0
 41 87  2  0  0  0  0
 42 75  1  0  0  0  0
 42 78  1  0  0  0  0
 42 88  2  0  0  0  0
 43 47  1  0  0  0  0
 44 55  1  0  0  0  0
 45 74  1  0  0  0  0
 46 51  1  0  0  0  0
 47 49  1  0  0  0  0
 48 50  1  0  0  0  0
 48 52  1  0  0  0  0
 49 54  1  0  0  0  0
 50 56  1  0  0  0  0
 51 73  1  0  0  0  0
 52 75  1  0  0  0  0
 53 56  1  0  0  0  0
 53 75  1  0  0  0  0
 54 79  1  0  0  0  0
 55 74  1  0  0  0  0
 56 72  1  0  0  0  0
 59 66  1  0  0  0  0
 60 69  1  0  0  0  0
 61 70  1  0  0  0  0
 62 70  1  0  0  0  0
 63 70  1  0  0  0  0
 64 81  1  0  0  0  0
 65 90  1  0  0  0  0
 66 67  1  0  0  0  0
 67 91  1  0  0  0  0
 68 70  1  0  0  0  0
 68 80  1  0  0  0  0
 69 81  1  0  0  0  0
 71 72  1  0  0  0  0
M  CHG  1  81   1
M  ISO  4  42 100  65 101  78 100  90 101
M  END
> <Batch ID>
0109

> <Smiles>
CCCOc1cc(N2CCC(=O)C([101CH2:1][101O:1]c3ccc4c(c3)CN(C(=O)C(NC(=O)C(C)NC)C(C)(C)C)C(C(=O)NC3CCCc5ccccc53)C4)=C2C)cc(C)c1C(=O)[100NH:0][100C:0](=O)N1CCCC(n2nc(-c3ccc(Oc4ccc(F)cc4F)cc3)c(C(N)=O)c2N)C1

> <Shape>
0.283

> <Color>
0.166

> <Negative vol penalty>
0.000

$$$$

  -OEChem-04052301233D

 84 92  0     1  0  0  0  0  0999 V2000
  -29.3268  -23.9187   16.8557 C   0  0  0  0  0  0  0  0  0  0  0  0
  -28.1139  -24.5332   17.1456 C   0  0  0  0  0  0  0  0  0  0  0  0
  -25.8052  -14.2493   21.6810 C   0  0  0  0  0  0  0  0  0  0  0  0
  -24.9685  -15.1965   19.6218 C   0  0  0  0  0  0  0  0  0  0  0  0
  -30.4109  -24.0847   17.7150 C   0  0  0  0  0  0  0  0  0  0  0  0
  -27.9880  -25.3237   18.2885 C   0  0  0  0  0  0  0  0  0  0  0  0
  -23.7799  -27.8137   18.8314 C   0  0  0  0  0  0  0  0  0  0  0  0
  -22.7752  -21.6191   18.8202 C   0  0  0  0  0  0  0  0  0  0  0  0
  -24.7762  -13.3077   21.6660 C   0  0  0  0  0  0  0  0  0  0  0  0
  -23.9395  -14.2549   19.6068 C   0  0  0  0  0  0  0  0  0  0  0  0
  -22.5732  -27.1936   19.1523 C   0  0  0  0  0  0  0  0  0  0  0  0
  -21.9079  -22.1845   19.7550 C   0  0  0  0  0  0  0  0  0  0  0  0
  -24.0828  -10.4005   20.0847 C   0  0  0  0  0  0  0  0  0  0  0  0
  -24.4135   -9.0744   20.3633 C   0  0  0  0  0  0  0  0  0  0  0  0
  -23.7998  -23.0006   21.0167 C   0  0  0  0  0  0  0  0  0  0  0  0
  -22.7835  -27.9739   21.4252 C   0  0  0  0  0  0  0  0  0  0  0  0
  -22.9128   -9.0978   22.2565 C   0  0  0  0  0  0  0  0  0  0  0  0
  -25.9013  -15.1937   20.6589 C   0  0  0  0  0  0  0  0  0  0  0  0
  -24.6671  -22.4352   20.0820 C   0  0  0  0  0  0  0  0  0  0  0  0
  -28.2412  -16.0401   20.0965 C   0  0  0  0  0  0  0  0  0  0  0  0
  -30.2938  -24.8677   18.8753 C   0  0  0  0  0  0  0  0  0  0  0  0
  -24.5041  -28.5106   19.8093 C   0  0  0  0  0  0  0  0  0  0  0  0
  -29.0775  -25.5230   19.1556 C   0  0  0  0  0  0  0  0  0  0  0  0
  -23.9979  -28.6042   21.1135 C   0  0  0  0  0  0  0  0  0  0  0  0
  -24.1548  -21.7445   18.9837 C   0  0  0  0  0  0  0  0  0  0  0  0
  -23.8434  -13.3105   20.6289 C   0  0  0  0  0  0  0  0  0  0  0  0
  -22.4201  -22.8752   20.8532 C   0  0  0  0  0  0  0  0  0  0  0  0
  -22.0762  -27.2711   20.4501 C   0  0  0  0  0  0  0  0  0  0  0  0
  -23.1672  -11.0754   20.8922 C   0  0  0  0  0  0  0  0  0  0  0  0
  -23.8285   -8.4230   21.4492 C   0  0  0  0  0  0  0  0  0  0  0  0
  -22.5822  -10.4240   21.9780 C   0  0  0  0  0  0  0  0  0  0  0  0
  -26.9637  -16.1670   20.6741 C   0  0  0  0  0  0  0  0  0  0  0  0
  -28.8686  -17.2270   20.3865 C   0  0  0  0  0  0  0  0  0  0  0  0
  -26.1032  -22.5813   20.2767 C   0  0  0  0  0  0  0  0  0  0  0  0
  -28.8098  -14.9471   19.3632 C   0  0  0  0  0  0  0  0  0  0  0  0
  -26.6888  -22.6888   21.6327 C   0  0  0  0  0  0  0  0  0  0  0  0
  -27.3832  -28.1947   21.1188 C   0  0  0  0  0  0  0  0  0  0  0  0
  -26.6091  -30.9986   22.5546 C   0  0  0  0  0  0  0  0  0  0  0  0
  -24.1664  -33.1301   23.6207 C   0  0  0  0  0  0  0  0  0  0  0  0
  -31.5013  -25.0200   19.7663 C   0  0  0  0  0  0  0  0  0  0  0  0
  -25.7909  -29.1967   19.4406 C   0  0  0  0  0  0  0  0  0  0  0  0
  -24.7269  -29.3575   22.1950 C   0  0  0  0  0  0  0  0  0  0  0  0
  -31.1480  -25.5045   21.1687 C   0  0  0  0  0  0  0  0  0  0  0  0
  -28.9489  -20.7402   23.6206 C   0  0  0  0  0  0  0  0  0  0  0  0
  -30.2381  -26.7209   21.0846 C   0  0  0  0  0  0  0  0  0  0  0  0
  -28.7824  -19.3274   23.0618 C   0  0  0  0  0  0  0  0  0  0  0  0
  -27.6356  -21.5148   23.5805 C   0  0  0  0  0  0  0  0  0  0  0  0
  -26.8448  -20.1636   21.6576 C   0  0  0  0  0  0  0  0  0  0  0  0
  -28.9084  -26.3625   20.4090 C   0  0  1  0  0  0  0  0  0  0  0  0
  -26.7007  -29.4447   20.6398 C   0  0  1  0  0  0  0  0  0  0  0  0
  -28.1568  -19.3598   21.6560 C   0  0  2  0  0  0  0  0  0  0  0  0
  -23.8411  -35.3251   24.7927 C   0  0  0  0  0  0  0  0  0  0  0  0
  -27.2586  -29.6676   25.2223 C   0  0  0  0  0  0  0  0  0  0  0  0
  -26.0357  -31.5274   26.3685 C   0  0  0  0  0  0  0  0  0  0  0  0
  -28.0668  -32.0246   25.0083 C   0  0  0  0  0  0  0  0  0  0  0  0
  -22.8044  -34.3132   21.2746 C   0  0  0  0  0  0  0  0  0  0  0  0
  -25.0608  -21.1292   17.9676 C   0  0  0  0  0  0  0  0  0  0  0  0
  -19.7932  -25.0166   22.1365 C   0  0  0  0  0  0  0  0  0  0  0  0
  -20.2990  -23.8563   21.2938 C   0  0  0  0  0  0  0  0  0  0  0  0
  -20.7475  -26.2001   22.1063 C   0  0  0  0  0  0  0  0  0  1  0  0
  -25.9178  -31.3867   23.8392 C   0  0  1  0  0  0  0  0  0  0  0  0
  -23.9917  -34.6283   23.4494 C   0  0  2  0  0  0  0  0  0  0  0  0
  -26.8067  -31.1357   25.0899 C   0  0  0  0  0  0  0  0  0  0  0  0
  -26.7884  -17.3417   21.2851 N   0  0  0  0  0  0  0  0  0  0  0  0
  -26.9569  -22.6247   19.2914 N   0  0  0  0  0  0  0  0  0  0  0  0
  -27.9641  -17.9638   21.0930 N   0  0  0  0  0  0  0  0  0  0  0  0
  -27.0510  -21.4952   22.2411 N   0  0  0  0  0  0  0  0  0  0  0  0
  -25.9839  -30.0061   21.7866 N   0  0  0  0  0  0  0  0  0  0  0  0
  -30.1002  -17.7017   20.1036 N   0  0  0  0  0  0  0  0  0  0  0  0
  -28.0275  -13.8029   19.1556 N   0  0  0  0  0  0  0  0  0  0  0  0
  -28.1631  -27.5768   20.1600 N   0  0  0  0  0  0  0  0  0  0  0  0
  -25.4974  -32.7739   23.6736 N   0  0  0  0  0  0  0  0  0  0  0  0
  -25.3976  -22.0478   16.8465 N   0  3  0  0  0  0  0  0  0  0  0  0
  -22.7804  -34.9183   22.6311 N   0  3  0  0  0  0  0  0  0  0  0  0
  -29.9828  -14.9775   18.9197 O   0  0  0  0  0  0  0  0  0  0  0  0
  -26.7907  -23.8258   22.0745 O   0  0  0  0  0  0  0  0  0  0  0  0
  -27.2159  -27.8195   22.2733 O   0  0  0  0  0  0  0  0  0  0  0  0
  -27.6614  -31.5606   22.2404 O   0  0  0  0  0  0  0  0  0  0  0  0
  -23.2171  -32.3539   23.7033 O   0  0  0  0  0  0  0  0  0  0  0  0
  -22.8393  -12.3917   20.6138 O   0  0  0  0  0  0  0  0  0  0  0  0
  -21.5675  -23.4297   21.7720 O   0  0  0  0  0  0  0  0  0  0  0  0
  -20.8990  -26.6662   20.7661 O   0  0  0  0  0  0  0  0  0  1  0  0
  -24.1450   -7.1491   21.7156 F   0  0  0  0  0  0  0  0  0  0  0  0
  -21.7009  -11.0667   22.7566 F   0  0  0  0  0  0  0  0  0  0  0  0
  1  2  1  0  0  0  0
  1  5  2  0  0  0  0
  2  6  2  0  0  0  0
  3  9  2  0  0  0  0
  3 18  1  0  0  0  0
  4 10  1  0  0  0  0
  4 18  2  0  0  0  0
  5 21  1  0  0  0  0
  6 23  1  0  0  0  0
  7 11  2  0  0  0  0
  7 22  1  0  0  0  0
  8 12  2  0  0  0  0
  8 25  1  0  0  0  0
  9 26  1  0  0  0  0
 10 26  2  0  0  0  0
 11 28  1  0  0  0  0
 12 27  1  0  0  0  0
 13 14  2  0  0  0  0
 13 29  1  0  0  0  0
 14 30  1  0  0  0  0
 15 19  1  0  0  0  0
 15 27  2  0  0  0  0
 16 24  1  0  0  0  0
 16 28  2  0  0  0  0
 17 30  2  0  0  0  0
 17 31  1  0  0  0  0
 18 32  1  0  0  0  0
 19 25  2  0  0  0  0
 19 34  1  0  0  0  0
 20 32  1  0  0  0  0
 20 33  2  0  0  0  0
 20 35  1  0  0  0  0
 21 23  2  0  0  0  0
 21 40  1  0  0  0  0
 22 24  2  0  0  0  0
 22 41  1  0  0  0  0
 23 49  1  0  0  0  0
 24 42  1  0  0  0  0
 25 57  1  0  0  0  0
 26 80  1  0  0  0  0
 27 81  1  0  0  0  0
 28 82  1  0  0  0  0
 29 31  2  0  0  0  0
 29 80  1  0  0  0  0
 30 83  1  0  0  0  0
 31 84  1  0  0  0  0
 32 64  2  0  0  0  0
 33 66  1  0  0  0  0
 33 69  1  0  0  0  0
 34 36  1  0  0  0  0
 34 65  2  0  0  0  0
 35 70  1  0  0  0  0
 35 75  2  0  0  0  0
 36 67  1  0  0  0  0
 36 76  2  0  0  0  0
 37 50  1  0  0  0  0
 37 71  1  0  0  0  0
 37 77  2  0  0  0  0
 38 61  1  0  0  0  0
 38 68  1  0  0  0  0
 38 78  2  0  0  0  0
 39 62  1  0  0  0  0
 39 72  1  0  0  0  0
 39 79  2  0  0  0  0
 40 43  1  0  0  0  0
 41 50  1  0  0  0  0
 42 68  1  0  0  0  0
 43 45  1  0  0  0  0
 44 46  1  0  0  0  0
 44 47  1  0  0  0  0
 45 49  1  0  0  0  0
 46 51  1  0  0  0  0
 47 67  1  0  0  0  0
 48 51  1  0  0  0  0
 48 67  1  0  0  0  0
 49 71  1  0  0  0  0
 50 68  1  0  0  0  0
 51 66  1  0  0  0  0
 52 62  1  0  0  0  0
 53 63  1  0  0  0  0
 54 63  1  0  0  0  0
 55 63  1  0  0  0  0
 56 74  1  0  0  0  0
 57 73  1  0  0  0  0
 58 59  1  0  0  0  0
 58 60  1  0  0  0  0
 59 81  1  0  0  0  0
 60 82  1  0  0  0  0
 61 63  1  0  0  0  0
 61 72  1  0  0  0  0
 62 74  1  0  0  0  0
 64 66  1  0  0  0  0
M  CHG  2  73   1  74   1
M  ISO  4  34 100  36 100  60 101  82 101
M  END
> <Batch ID>
0109

> <Smiles>
CNC(C)C(=O)NC(C(=O)N1Cc2cc([101O:1][101CH2:1]CCOc3ccc(CN)c([100C:0](=N)[100C:0](=O)N4CCCC(n5nc(-c6ccc(Oc7ccc(F)cc7F)cc6)c(C(N)=O)c5N)C4)c3)ccc2CC1C(=O)NC1CCCc2ccccc21)C(C)(C)C

> <Shape>
0.283

> <Color>
0.073

> <Negative vol penalty>
0.000

$$$$

  -OEChem-04052301233D

 86 94  0     1  0  0  0  0  0999 V2000
  -30.3462  -31.4006   25.5941 C   0  0  0  0  0  0  0  0  0  0  0  0
  -29.8809  -30.3583   24.7987 C   0  0  0  0  0  0  0  0  0  0  0  0
  -23.2469   -9.9777   22.1383 C   0  0  0  0  0  0  0  0  0  0  0  0
  -24.3346   -9.0928   20.1708 C   0  0  0  0  0  0  0  0  0  0  0  0
  -29.4433  -32.1900   26.3051 C   0  0  0  0  0  0  0  0  0  0  0  0
  -28.5124  -30.1041   24.7148 C   0  0  0  0  0  0  0  0  0  0  0  0
  -26.9777  -29.2792   19.9599 C   0  0  0  0  0  0  0  0  0  0  0  0
  -22.4048   -8.8663   22.1726 C   0  0  0  0  0  0  0  0  0  0  0  0
  -23.4925   -7.9813   20.2052 C   0  0  0  0  0  0  0  0  0  0  0  0
  -27.2372  -28.0220   19.4161 C   0  0  0  0  0  0  0  0  0  0  0  0
  -22.5776   -5.6398   23.1691 C   0  0  0  0  0  0  0  0  0  0  0  0
  -22.3693   -5.0222   24.4023 C   0  0  0  0  0  0  0  0  0  0  0  0
  -24.9624  -27.3616   19.8726 C   0  0  0  0  0  0  0  0  0  0  0  0
  -31.4925  -17.9775   20.6917 C   0  0  0  0  0  0  0  0  0  0  0  0
  -30.2398  -19.0639   18.4481 C   0  0  0  0  0  0  0  0  0  0  0  0
  -20.0012   -5.4671   24.2250 C   0  0  0  0  0  0  0  0  0  0  0  0
  -24.2118  -10.0909   21.1374 C   0  0  0  0  0  0  0  0  0  0  0  0
  -26.3333  -11.3776   21.7305 C   0  0  0  0  0  0  0  0  0  0  0  0
  -28.0624  -31.9514   26.2222 C   0  0  0  0  0  0  0  0  0  0  0  0
  -25.7094  -29.5840   20.4749 C   0  0  0  0  0  0  0  0  0  0  0  0
  -27.5903  -30.8902   25.4265 C   0  0  0  0  0  0  0  0  0  0  0  0
  -24.6886  -28.6243   20.4200 C   0  0  0  0  0  0  0  0  0  0  0  0
  -31.0357  -17.1401   19.6740 C   0  0  0  0  0  0  0  0  0  0  0  0
  -30.4095  -17.6832   18.5522 C   0  0  0  0  0  0  0  0  0  0  0  0
  -22.5276   -7.8681   21.2061 C   0  0  0  0  0  0  0  0  0  0  0  0
  -26.2303  -27.0620   19.3750 C   0  0  0  0  0  0  0  0  0  0  0  0
  -21.4977   -6.1712   22.4639 C   0  0  0  0  0  0  0  0  0  0  0  0
  -31.3228  -19.3581   20.5877 C   0  0  0  0  0  0  0  0  0  0  0  0
  -30.6965  -19.9013   19.4659 C   0  0  0  0  0  0  0  0  0  0  0  0
  -21.0811   -4.9358   24.9303 C   0  0  0  0  0  0  0  0  0  0  0  0
  -20.2096   -6.0847   22.9919 C   0  0  0  0  0  0  0  0  0  0  0  0
  -25.0817  -11.2390   21.1011 C   0  0  0  0  0  0  0  0  0  0  0  0
  -26.7501  -12.6416   21.3914 C   0  0  0  0  0  0  0  0  0  0  0  0
  -27.0546  -10.4468   22.5484 C   0  0  0  0  0  0  0  0  0  0  0  0
  -24.5844  -30.3869   23.3373 C   0  0  0  0  0  0  0  0  0  0  0  0
  -21.8129  -30.7956   21.7022 C   0  0  0  0  0  0  0  0  0  0  0  0
  -19.9192  -30.0209   18.9708 C   0  0  0  0  0  0  0  0  0  0  0  0
  -27.4386  -16.6885   17.6107 C   0  0  0  0  0  0  0  0  0  0  0  0
  -27.1281  -32.8016   27.0463 C   0  0  0  0  0  0  0  0  0  0  0  0
  -25.4380  -30.9538   21.0338 C   0  0  0  0  0  0  0  0  0  0  0  0
  -23.3043  -28.9084   20.9411 C   0  0  0  0  0  0  0  0  0  0  0  0
  -25.6690  -32.7029   26.6086 C   0  0  0  0  0  0  0  0  0  0  0  0
  -24.2555  -16.4505   19.1879 C   0  0  0  0  0  0  0  0  0  0  0  0
  -25.2720  -31.2451   26.3988 C   0  0  0  0  0  0  0  0  0  0  0  0
  -24.2878  -15.0829   19.8725 C   0  0  0  0  0  0  0  0  0  0  0  0
  -24.9865  -16.4280   17.8474 C   0  0  0  0  0  0  0  0  0  0  0  0
  -26.4021  -14.5521   18.5894 C   0  0  0  0  0  0  0  0  0  0  0  0
  -26.1116  -30.5988   25.2902 C   0  0  1  0  0  0  0  0  0  0  0  0
  -24.2557  -30.9824   21.9975 C   0  0  1  0  0  0  0  0  0  0  0  0
  -25.7257  -14.5390   19.9709 C   0  0  2  0  0  0  0  0  0  0  0  0
  -31.2297  -15.6654   19.8069 C   0  0  0  0  0  0  0  0  0  0  0  0
  -17.6828  -30.4810   17.9295 C   0  0  0  0  0  0  0  0  0  0  0  0
  -20.4905  -28.9335   23.7254 C   0  0  0  0  0  0  0  0  0  0  0  0
  -18.5751  -28.6777   22.1335 C   0  0  0  0  0  0  0  0  0  0  0  0
  -19.1151  -30.9207   23.0823 C   0  0  0  0  0  0  0  0  0  0  0  0
  -21.1569  -31.1971   16.5534 C   0  0  0  0  0  0  0  0  0  0  0  0
  -30.8627  -20.4554   22.6468 C   0  0  0  0  0  0  0  0  0  0  0  0
  -29.9124  -16.8063   17.4504 C   0  0  0  0  0  0  0  0  0  0  0  0
  -27.7997  -23.8174   19.0072 C   0  0  0  0  0  0  0  0  0  0  0  0
  -29.2062  -23.2450   19.1451 C   0  0  0  0  0  0  0  0  0  0  0  0
  -27.8153  -25.3394   18.9549 C   0  0  0  0  0  0  0  0  0  1  0  0
  -29.1881  -21.7260   19.2405 C   0  0  0  0  0  0  0  0  0  0  0  0
  -20.6444  -29.9108   21.3407 C   0  0  1  0  0  0  0  0  0  0  0  0
  -19.1443  -30.8952   18.0015 C   0  0  2  0  0  0  0  0  0  0  0  0
  -19.7328  -29.6043   22.5623 C   0  0  0  0  0  0  0  0  0  0  0  0
  -24.7266  -12.3282   20.4143 N   0  0  0  0  0  0  0  0  0  0  0  0
  -25.7612  -13.1631   20.6102 N   0  0  0  0  0  0  0  0  0  0  0  0
  -23.0901  -30.2601   21.4837 N   0  0  0  0  0  0  0  0  0  0  0  0
  -26.3445  -15.9034   18.0103 N   0  0  0  0  0  0  0  0  0  0  0  0
  -27.8624  -13.3467   21.6882 N   0  0  0  0  0  0  0  0  0  0  0  0
  -26.4818   -9.1921   22.7970 N   0  0  0  0  0  0  0  0  0  0  0  0
  -25.6320  -31.0101   23.9882 N   0  0  0  0  0  0  0  0  0  0  0  0
  -19.9594  -30.5709   20.2346 N   0  0  0  0  0  0  0  0  0  0  0  0
  -28.6909  -16.1189   17.8058 N   0  0  0  0  0  0  0  0  0  0  0  0
  -19.7286  -30.7966   16.6341 N   0  3  0  0  0  0  0  0  0  0  0  0
  -28.1666  -10.7258   23.0577 O   0  0  0  0  0  0  0  0  0  0  0  0
  -23.9348  -29.4336   23.7506 O   0  0  0  0  0  0  0  0  0  0  0  0
  -21.6002  -31.9232   22.1549 O   0  0  0  0  0  0  0  0  0  0  0  0
  -20.4340  -28.9548   18.6408 O   0  0  0  0  0  0  0  0  0  0  0  0
  -27.3092  -17.8159   17.1215 O   0  0  0  0  0  0  0  0  0  0  0  0
  -21.7061   -6.7834   21.2394 O   0  0  0  0  0  0  0  0  0  0  0  0
  -31.7734  -20.1653   21.5881 O   0  0  0  0  0  0  0  0  0  0  0  0
  -26.4812  -25.8338   18.8454 O   0  0  0  0  0  0  0  0  0  1  0  0
  -30.5246  -21.2564   19.3518 O   0  0  0  0  0  0  0  0  0  0  0  0
  -20.8810   -4.3412   26.1137 F   0  0  0  0  0  0  0  0  0  0  0  0
  -19.1680   -6.5923   22.3185 F   0  0  0  0  0  0  0  0  0  0  0  0
  1  2  1  0  0  0  0
  1  5  2  0  0  0  0
  2  6  2  0  0  0  0
  3  8  2  0  0  0  0
  3 17  1  0  0  0  0
  4  9  1  0  0  0  0
  4 17  2  0  0  0  0
  5 19  1  0  0  0  0
  6 21  1  0  0  0  0
  7 10  2  0  0  0  0
  7 20  1  0  0  0  0
  8 25  1  0  0  0  0
  9 25  2  0  0  0  0
 10 26  1  0  0  0  0
 11 12  2  0  0  0  0
 11 27  1  0  0  0  0
 12 30  1  0  0  0  0
 13 22  1  0  0  0  0
 13 26  2  0  0  0  0
 14 23  2  0  0  0  0
 14 28  1  0  0  0  0
 15 24  2  0  0  0  0
 15 29  1  0  0  0  0
 16 30  2  0  0  0  0
 16 31  1  0  0  0  0
 17 32  1  0  0  0  0
 18 32  1  0  0  0  0
 18 33  2  0  0  0  0
 18 34  1  0  0  0  0
 19 21  2  0  0  0  0
 19 39  1  0  0  0  0
 20 22  2  0  0  0  0
 20 40  1  0  0  0  0
 21 48  1  0  0  0  0
 22 41  1  0  0  0  0
 23 24  1  0  0  0  0
 23 51  1  0  0  0  0
 24 58  1  0  0  0  0
 25 81  1  0  0  0  0
 26 83  1  0  0  0  0
 27 31  2  0  0  0  0
 27 81  1  0  0  0  0
 28 29  2  0  0  0  0
 28 82  1  0  0  0  0
 29 84  1  0  0  0  0
 30 85  1  0  0  0  0
 31 86  1  0  0  0  0
 32 66  2  0  0  0  0
 33 67  1  0  0  0  0
 33 70  1  0  0  0  0
 34 71  1  0  0  0  0
 34 76  2  0  0  0  0
 35 49  1  0  0  0  0
 35 72  1  0  0  0  0
 35 77  2  0  0  0  0
 36 63  1  0  0  0  0
 36 68  1  0  0  0  0
 36 78  2  0  0  0  0
 37 64  1  0  0  0  0
 37 73  1  0  0  0  0
 37 79  2  0  0  0  0
 38 69  1  0  0  0  0
 38 74  1  0  0  0  0
 38 80  2  0  0  0  0
 39 42  1  0  0  0  0
 40 49  1  0  0  0  0
 41 68  1  0  0  0  0
 42 44  1  0  0  0  0
 43 45  1  0  0  0  0
 43 46  1  0  0  0  0
 44 48  1  0  0  0  0
 45 50  1  0  0  0  0
 46 69  1  0  0  0  0
 47 50  1  0  0  0  0
 47 69  1  0  0  0  0
 48 72  1  0  0  0  0
 49 68  1  0  0  0  0
 50 67  1  0  0  0  0
 52 64  1  0  0  0  0
 53 65  1  0  0  0  0
 54 65  1  0  0  0  0
 55 65  1  0  0  0  0
 56 75  1  0  0  0  0
 57 82  1  0  0  0  0
 58 74  1  0  0  0  0
 59 60  1  0  0  0  0
 59 61  1  0  0  0  0
 60 62  1  0  0  0  0
 61 83  1  0  0  0  0
 62 84  1  0  0  0  0
 63 65  1  0  0  0  0
 63 73  1  0  0  0  0
 64 75  1  0  0  0  0
 66 67  1  0  0  0  0
M  CHG  1  75   1
M  ISO  4  38 100  61 101  74 100  83 101
M  END
> <Batch ID>
0109

> <Smiles>
CNC(C)C(=O)NC(C(=O)N1Cc2cc([101O:1][101CH2:1]CCCOc3cc(C[100NH:0][100C:0](=O)N4CCCC(n5nc(-c6ccc(Oc7ccc(F)cc7F)cc6)c(C(N)=O)c5N)C4)c(C)cc3OC)ccc2CC1C(=O)NC1CCCc2ccccc21)C(C)(C)C

> <Shape>
0.299

> <Color>
0.112

> <Negative vol penalty>
0.000

$$$$

  -OEChem-04052301233D

 85 94  0     1  0  0  0  0  0999 V2000
  -40.1153  -26.8828   19.6397 C   0  0  0  0  0  0  0  0  0  0  0  0
  -39.3669  -26.1868   20.5836 C   0  0  0  0  0  0  0  0  0  0  0  0
  -23.0460   -9.9015   19.9044 C   0  0  0  0  0  0  0  0  0  0  0  0
  -23.8291   -9.8279   22.1888 C   0  0  0  0  0  0  0  0  0  0  0  0
  -39.5226  -27.9022   18.8957 C   0  0  0  0  0  0  0  0  0  0  0  0
  -38.0256  -26.5105   20.7847 C   0  0  0  0  0  0  0  0  0  0  0  0
  -35.0631  -22.4146   21.0895 C   0  0  0  0  0  0  0  0  0  0  0  0
  -32.1256  -16.4655   22.6318 C   0  0  0  0  0  0  0  0  0  0  0  0
  -22.2925   -8.7487   20.1256 C   0  0  0  0  0  0  0  0  0  0  0  0
  -23.0755   -8.6751   22.4100 C   0  0  0  0  0  0  0  0  0  0  0  0
  -35.0674  -21.7140   22.2949 C   0  0  0  0  0  0  0  0  0  0  0  0
  -19.8453   -7.8919   23.0208 C   0  0  0  0  0  0  0  0  0  0  0  0
  -19.0999   -7.8227   24.1977 C   0  0  0  0  0  0  0  0  0  0  0  0
  -32.7218  -17.3136   23.5584 C   0  0  0  0  0  0  0  0  0  0  0  0
  -33.0056  -22.7965   22.9244 C   0  0  0  0  0  0  0  0  0  0  0  0
  -20.3281   -5.8502   24.8595 C   0  0  0  0  0  0  0  0  0  0  0  0
  -23.8144  -10.4411   20.9360 C   0  0  0  0  0  0  0  0  0  0  0  0
  -24.1818  -12.9651   20.8923 C   0  0  0  0  0  0  0  0  0  0  0  0
  -38.1707  -28.2321   19.0811 C   0  0  0  0  0  0  0  0  0  0  0  0
  -34.0341  -23.3211   20.7968 C   0  0  0  0  0  0  0  0  0  0  0  0
  -37.4146  -27.5361   20.0435 C   0  0  0  0  0  0  0  0  0  0  0  0
  -32.9892  -23.5055   21.7135 C   0  0  0  0  0  0  0  0  0  0  0  0
  -30.7428  -16.4653   22.4867 C   0  0  0  0  0  0  0  0  0  0  0  0
  -22.3072   -8.1355   21.3784 C   0  0  0  0  0  0  0  0  0  0  0  0
  -34.0400  -21.9071   23.2138 C   0  0  0  0  0  0  0  0  0  0  0  0
  -20.8321   -6.9402   22.7631 C   0  0  0  0  0  0  0  0  0  0  0  0
  -19.3413   -6.8018   25.1170 C   0  0  0  0  0  0  0  0  0  0  0  0
  -21.0735   -5.9194   23.6825 C   0  0  0  0  0  0  0  0  0  0  0  0
  -24.5934  -11.6315   20.7080 C   0  0  0  0  0  0  0  0  0  0  0  0
  -30.0068  -17.3252   23.2859 C   0  0  0  0  0  0  0  0  0  0  0  0
  -31.8972  -18.1357   24.3094 C   0  0  0  0  0  0  0  0  0  0  0  0
  -25.2781  -13.7144   20.5415 C   0  0  0  0  0  0  0  0  0  0  0  0
  -31.8625  -19.9123   26.1181 C   0  0  0  0  0  0  0  0  0  0  0  0
  -22.9212  -13.4804   21.3406 C   0  0  0  0  0  0  0  0  0  0  0  0
  -33.8892  -26.4479   20.2436 C   0  0  0  0  0  0  0  0  0  0  0  0
  -30.7804  -25.7932   19.5885 C   0  0  0  0  0  0  0  0  0  0  0  0
  -28.0988  -23.7291   20.0308 C   0  0  0  0  0  0  0  0  0  0  0  0
  -30.7566  -14.6976   20.6920 C   0  0  0  0  0  0  0  0  0  0  0  0
  -37.5865  -29.3733   18.2867 C   0  0  0  0  0  0  0  0  0  0  0  0
  -34.0300  -24.0491   19.4806 C   0  0  0  0  0  0  0  0  0  0  0  0
  -31.8505  -24.4521   21.4383 C   0  0  0  0  0  0  0  0  0  0  0  0
  -32.9175  -20.5953   26.9559 C   0  0  0  0  0  0  0  0  0  0  0  0
  -36.0603  -29.4031   18.2956 C   0  0  0  0  0  0  0  0  0  0  0  0
  -34.1142  -19.6703   26.8397 C   0  0  0  0  0  0  0  0  0  0  0  0
  -29.5926  -12.3717   18.2604 C   0  0  0  0  0  0  0  0  0  0  0  0
  -35.5307  -29.2056   19.7124 C   0  0  0  0  0  0  0  0  0  0  0  0
  -28.1544  -12.0815   18.6956 C   0  0  0  0  0  0  0  0  0  0  0  0
  -30.5223  -12.5528   19.4590 C   0  0  0  0  0  0  0  0  0  0  0  0
  -28.6372  -13.2527   20.8824 C   0  0  0  0  0  0  0  0  0  0  0  0
  -35.9503  -27.8414   20.2731 C   0  0  1  0  0  0  0  0  0  0  0  0
  -33.2031  -25.3308   19.5093 C   0  0  1  0  0  0  0  0  0  0  0  0
  -27.6507  -13.1269   19.7099 C   0  0  2  0  0  0  0  0  0  0  0  0
  -33.9681  -19.0624   25.4491 C   0  0  2  0  0  0  0  0  0  0  0  0
  -28.5169  -17.3687   23.1783 C   0  0  0  0  0  0  0  0  0  0  0  0
  -25.6833  -23.4751   19.4000 C   0  0  0  0  0  0  0  0  0  0  0  0
  -30.0300  -27.9636   21.5975 C   0  0  0  0  0  0  0  0  0  0  0  0
  -27.7078  -27.0287   21.6348 C   0  0  0  0  0  0  0  0  0  0  0  0
  -28.6467  -27.9473   19.5141 C   0  0  0  0  0  0  0  0  0  0  0  0
  -28.6067  -21.1543   18.6627 C   0  0  0  0  0  0  0  0  0  0  0  0
  -34.6514  -19.9346   24.3935 C   0  0  0  0  0  0  0  0  0  1  0  0
  -29.5060  -25.7392   20.3961 C   0  0  1  0  0  0  0  0  0  0  0  0
  -27.1190  -23.1246   19.0414 C   0  0  2  0  0  0  0  0  0  0  0  0
  -28.9950  -27.1533   20.7920 C   0  0  0  0  0  0  0  0  0  0  0  0
  -25.8529  -11.5360   20.2737 N   0  0  0  0  0  0  0  0  0  0  0  0
  -30.5502  -18.1634   24.1967 N   0  0  0  0  0  0  0  0  0  0  0  0
  -26.2421  -12.8190   20.1821 N   0  0  0  0  0  0  0  0  0  0  0  0
  -32.5210  -19.0043   25.2618 N   0  0  0  0  0  0  0  0  0  0  0  0
  -31.8947  -25.1454   20.1402 N   0  0  0  0  0  0  0  0  0  0  0  0
  -29.9832  -13.5610   20.3743 N   0  0  0  0  0  0  0  0  0  0  0  0
  -25.5019  -15.0453   20.5084 N   0  0  0  0  0  0  0  0  0  0  0  0
  -21.9031  -12.5715   21.6595 N   0  0  0  0  0  0  0  0  0  0  0  0
  -30.1274  -15.6028   21.5459 N   0  0  0  0  0  0  0  0  0  0  0  0
  -35.1213  -26.7914   19.7208 N   0  0  0  0  0  0  0  0  0  0  0  0
  -28.5568  -24.9594   19.6092 N   0  0  0  0  0  0  0  0  0  0  0  0
  -27.2500  -21.6402   19.0237 N   0  3  0  0  0  0  0  0  0  0  0  0
  -30.6754  -20.1878   26.2157 O   0  0  0  0  0  0  0  0  0  0  0  0
  -22.6986  -14.7110   21.4393 O   0  0  0  0  0  0  0  0  0  0  0  0
  -33.3406  -26.9611   21.2117 O   0  0  0  0  0  0  0  0  0  0  0  0
  -30.7849  -26.3821   18.5047 O   0  0  0  0  0  0  0  0  0  0  0  0
  -28.4225  -23.1678   21.0751 O   0  0  0  0  0  0  0  0  0  0  0  0
  -31.8826  -14.8694   20.2181 O   0  0  0  0  0  0  0  0  0  0  0  0
  -21.5719   -7.0108   21.5946 O   0  0  0  0  0  0  0  0  0  0  0  0
  -34.0421  -21.2250   24.3914 O   0  0  0  0  0  0  0  0  0  1  0  0
  -18.6264   -6.7364   26.2479 F   0  0  0  0  0  0  0  0  0  0  0  0
  -22.0209   -5.0030   23.4411 F   0  0  0  0  0  0  0  0  0  0  0  0
  1  2  1  0  0  0  0
  1  5  2  0  0  0  0
  2  6  2  0  0  0  0
  3  9  2  0  0  0  0
  3 17  1  0  0  0  0
  4 10  1  0  0  0  0
  4 17  2  0  0  0  0
  5 19  1  0  0  0  0
  6 21  1  0  0  0  0
  7 11  2  0  0  0  0
  7 20  1  0  0  0  0
  8 14  2  0  0  0  0
  8 23  1  0  0  0  0
  9 24  1  0  0  0  0
 10 24  2  0  0  0  0
 11 25  1  0  0  0  0
 12 13  2  0  0  0  0
 12 26  1  0  0  0  0
 13 27  1  0  0  0  0
 14 31  1  0  0  0  0
 15 22  1  0  0  0  0
 15 25  2  0  0  0  0
 16 27  2  0  0  0  0
 16 28  1  0  0  0  0
 17 29  1  0  0  0  0
 18 29  1  0  0  0  0
 18 32  2  0  0  0  0
 18 34  1  0  0  0  0
 19 21  2  0  0  0  0
 19 39  1  0  0  0  0
 20 22  2  0  0  0  0
 20 40  1  0  0  0  0
 21 50  1  0  0  0  0
 22 41  1  0  0  0  0
 23 30  2  0  0  0  0
 23 72  1  0  0  0  0
 24 82  1  0  0  0  0
 25 83  1  0  0  0  0
 26 28  2  0  0  0  0
 26 82  1  0  0  0  0
 27 84  1  0  0  0  0
 28 85  1  0  0  0  0
 29 64  2  0  0  0  0
 30 54  1  0  0  0  0
 30 65  1  0  0  0  0
 31 65  2  0  0  0  0
 31 67  1  0  0  0  0
 32 66  1  0  0  0  0
 32 70  1  0  0  0  0
 33 42  1  0  0  0  0
 33 67  1  0  0  0  0
 33 76  2  0  0  0  0
 34 71  1  0  0  0  0
 34 77  2  0  0  0  0
 35 51  1  0  0  0  0
 35 73  1  0  0  0  0
 35 78  2  0  0  0  0
 36 61  1  0  0  0  0
 36 68  1  0  0  0  0
 36 79  2  0  0  0  0
 37 62  1  0  0  0  0
 37 74  1  0  0  0  0
 37 80  2  0  0  0  0
 38 69  1  0  0  0  0
 38 72  1  0  0  0  0
 38 81  2  0  0  0  0
 39 43  1  0  0  0  0
 40 51  1  0  0  0  0
 41 68  1  0  0  0  0
 42 44  1  0  0  0  0
 43 46  1  0  0  0  0
 44 53  1  0  0  0  0
 45 47  1  0  0  0  0
 45 48  1  0  0  0  0
 46 50  1  0  0  0  0
 47 52  1  0  0  0  0
 48 69  1  0  0  0  0
 49 52  1  0  0  0  0
 49 69  1  0  0  0  0
 50 73  1  0  0  0  0
 51 68  1  0  0  0  0
 52 66  1  0  0  0  0
 53 60  1  0  0  0  0
 53 67  1  0  0  0  0
 55 62  1  0  0  0  0
 56 63  1  0  0  0  0
 57 63  1  0  0  0  0
 58 63  1  0  0  0  0
 59 75  1  0  0  0  0
 60 83  1  0  0  0  0
 61 63  1  0  0  0  0
 61 74  1  0  0  0  0
 62 75  1  0  0  0  0
 64 66  1  0  0  0  0
M  CHG  1  75   1
M  ISO  4  38 100  60 101  72 100  83 101
M  END
> <Batch ID>
0109

> <Smiles>
CNC(C)C(=O)NC(C(=O)N1Cc2cc([101O:1][101CH2:1]C3CCC(=O)N3c3ccc([100NH:0][100C:0](=O)N4CCCC(n5nc(-c6ccc(Oc7ccc(F)cc7F)cc6)c(C(N)=O)c5N)C4)c(C)n3)ccc2CC1C(=O)NC1CCCc2ccccc21)C(C)(C)C

> <Shape>
0.229

> <Color>
0.190

> <Negative vol penalty>
0.000

$$$$

  -OEChem-04052301233D

 86 94  0     1  0  0  0  0  0999 V2000
  -16.4708  -26.1061   24.4701 C   0  0  0  0  0  0  0  0  0  0  0  0
  -17.5153  -25.8237   23.5957 C   0  0  0  0  0  0  0  0  0  0  0  0
  -22.9078  -11.4308   18.4378 C   0  0  0  0  0  0  0  0  0  0  0  0
  -22.7370  -10.3945   20.6136 C   0  0  0  0  0  0  0  0  0  0  0  0
  -16.1606  -27.4298   24.7793 C   0  0  0  0  0  0  0  0  0  0  0  0
  -18.2497  -26.8650   23.0293 C   0  0  0  0  0  0  0  0  0  0  0  0
  -23.2396  -26.0087   23.1421 C   0  0  0  0  0  0  0  0  0  0  0  0
  -21.8536  -10.6411   17.9789 C   0  0  0  0  0  0  0  0  0  0  0  0
  -21.6827   -9.6048   20.1547 C   0  0  0  0  0  0  0  0  0  0  0  0
  -23.7573  -25.1340   22.1878 C   0  0  0  0  0  0  0  0  0  0  0  0
  -18.3735   -9.9649   19.5715 C   0  0  0  0  0  0  0  0  0  0  0  0
  -17.2538   -9.8400   20.3938 C   0  0  0  0  0  0  0  0  0  0  0  0
  -24.4841  -27.0163   20.8657 C   0  0  0  0  0  0  0  0  0  0  0  0
  -29.9166  -19.9006   18.4110 C   0  0  0  0  0  0  0  0  0  0  0  0
  -28.6307  -19.2610   20.3538 C   0  0  0  0  0  0  0  0  0  0  0  0
  -17.5874   -7.4488   20.4847 C   0  0  0  0  0  0  0  0  0  0  0  0
  -23.3496  -11.3075   19.7552 C   0  0  0  0  0  0  0  0  0  0  0  0
  -30.3956  -17.8224   19.5460 C   0  0  0  0  0  0  0  0  0  0  0  0
  -24.3515  -13.3936   20.8284 C   0  0  0  0  0  0  0  0  0  0  0  0
  -16.8977  -28.4875   24.2239 C   0  0  0  0  0  0  0  0  0  0  0  0
  -23.3308  -27.3961   22.9598 C   0  0  0  0  0  0  0  0  0  0  0  0
  -17.9483  -28.2041   23.3303 C   0  0  0  0  0  0  0  0  0  0  0  0
  -23.9691  -27.9064   21.8204 C   0  0  0  0  0  0  0  0  0  0  0  0
  -30.6645  -18.7284   18.5201 C   0  0  0  0  0  0  0  0  0  0  0  0
  -28.8997  -20.1670   19.3279 C   0  0  0  0  0  0  0  0  0  0  0  0
  -21.2410   -9.7282   18.8373 C   0  0  0  0  0  0  0  0  0  0  0  0
  -24.3771  -25.6378   21.0480 C   0  0  0  0  0  0  0  0  0  0  0  0
  -19.1002   -8.8318   19.2057 C   0  0  0  0  0  0  0  0  0  0  0  0
  -16.8607   -8.5819   20.8504 C   0  0  0  0  0  0  0  0  0  0  0  0
  -29.3787  -18.0887   20.4629 C   0  0  0  0  0  0  0  0  0  0  0  0
  -18.7072   -7.5738   19.6624 C   0  0  0  0  0  0  0  0  0  0  0  0
  -24.4389  -12.1225   20.2296 C   0  0  0  0  0  0  0  0  0  0  0  0
  -25.6541  -13.7376   21.0955 C   0  0  0  0  0  0  0  0  0  0  0  0
  -31.1793  -16.5677   19.6822 C   0  0  0  0  0  0  0  0  0  0  0  0
  -23.1961  -14.1919   21.1174 C   0  0  0  0  0  0  0  0  0  0  0  0
  -21.2293  -29.7604   22.6477 C   0  0  0  0  0  0  0  0  0  0  0  0
  -26.4965  -23.0231   19.7147 C   0  0  0  0  0  0  0  0  0  0  0  0
  -23.8883  -31.6155   22.7504 C   0  0  0  0  0  0  0  0  0  0  0  0
  -27.2575  -31.8786   22.2748 C   0  0  0  0  0  0  0  0  0  0  0  0
  -30.9927  -14.1003   19.6581 C   0  0  0  0  0  0  0  0  0  0  0  0
  -16.4949  -29.9036   24.5511 C   0  0  0  0  0  0  0  0  0  0  0  0
  -22.7911  -28.3262   24.0115 C   0  0  0  0  0  0  0  0  0  0  0  0
  -24.1107  -29.3877   21.5873 C   0  0  0  0  0  0  0  0  0  0  0  0
  -17.5623  -30.9370   24.2005 C   0  0  0  0  0  0  0  0  0  0  0  0
  -29.8979  -10.9793   20.9063 C   0  0  0  0  0  0  0  0  0  0  0  0
  -18.1132  -30.6817   22.8011 C   0  0  0  0  0  0  0  0  0  0  0  0
  -28.3718  -11.1029   20.8996 C   0  0  0  0  0  0  0  0  0  0  0  0
  -30.5282  -11.6654   19.6951 C   0  0  0  0  0  0  0  0  0  0  0  0
  -28.6008  -13.1811   19.4809 C   0  0  0  0  0  0  0  0  0  0  0  0
  -18.7840  -29.3054   22.7149 C   0  0  1  0  0  0  0  0  0  0  0  0
  -22.4831  -29.7207   23.4747 C   0  0  1  0  0  0  0  0  0  0  0  0
  -27.9237  -12.5669   20.7167 C   0  0  1  0  0  0  0  0  0  0  0  0
  -31.7479  -18.4681   17.5247 C   0  0  0  0  0  0  0  0  0  0  0  0
  -29.1421  -33.5305   22.4040 C   0  0  0  0  0  0  0  0  0  0  0  0
  -22.9517  -32.8845   20.1384 C   0  0  0  0  0  0  0  0  0  0  0  0
  -25.2634  -33.7963   19.8336 C   0  0  0  0  0  0  0  0  0  0  0  0
  -23.8980  -34.4958   21.8006 C   0  0  0  0  0  0  0  0  0  0  0  0
  -28.6660  -30.2863   24.3338 C   0  0  0  0  0  0  0  0  0  0  0  0
  -27.0886  -21.6898   20.1195 C   0  0  0  0  0  0  0  0  0  0  0  0
  -25.3526  -23.5206   20.5768 C   0  0  0  0  0  0  0  0  0  1  0  0
  -24.8545  -32.1567   21.7245 C   0  0  1  0  0  0  0  0  0  0  0  0
  -28.3553  -32.4616   23.1463 C   0  0  2  0  0  0  0  0  0  0  0  0
  -24.2377  -33.3054   20.8774 C   0  0  0  0  0  0  0  0  0  0  0  0
  -25.6976  -11.6885   20.1223 N   0  0  0  0  0  0  0  0  0  0  0  0
  -26.4130  -12.6926   20.6572 N   0  0  0  0  0  0  0  0  0  0  0  0
  -23.5614  -30.2564   22.6413 N   0  0  0  0  0  0  0  0  0  0  0  0
  -30.0608  -13.0494   19.5985 N   0  0  0  0  0  0  0  0  0  0  0  0
  -26.2129  -14.8292   21.6600 N   0  0  0  0  0  0  0  0  0  0  0  0
  -21.9335  -13.6876   20.7773 N   0  0  0  0  0  0  0  0  0  0  0  0
  -28.1554  -21.3330   19.2197 N   0  0  0  0  0  0  0  0  0  0  0  0
  -30.4427  -15.3857   19.6001 N   0  0  0  0  0  0  0  0  0  0  0  0
  -20.0971  -29.3443   23.3220 N   0  0  0  0  0  0  0  0  0  0  0  0
  -26.0583  -32.5345   22.4569 N   0  0  0  0  0  0  0  0  0  0  0  0
  -29.3017  -31.3919   23.5720 N   0  3  0  0  0  0  0  0  0  0  0  0
  -32.3981  -16.6354   19.8153 O   0  0  0  0  0  0  0  0  0  0  0  0
  -23.2821  -15.3261   21.6463 O   0  0  0  0  0  0  0  0  0  0  0  0
  -21.2845  -30.1418   21.4844 O   0  0  0  0  0  0  0  0  0  0  0  0
  -26.9080  -23.6689   18.7517 O   0  0  0  0  0  0  0  0  0  0  0  0
  -23.4456  -32.3691   23.6208 O   0  0  0  0  0  0  0  0  0  0  0  0
  -27.4458  -30.9380   21.5065 O   0  0  0  0  0  0  0  0  0  0  0  0
  -32.2061  -13.9118   19.7902 O   0  0  0  0  0  0  0  0  0  0  0  0
  -20.2121   -8.9576   18.3900 O   0  0  0  0  0  0  0  0  0  0  0  0
  -24.8826  -24.7862   20.1146 O   0  0  0  0  0  0  0  0  0  1  0  0
  -15.7863   -8.4622   21.6413 F   0  0  0  0  0  0  0  0  0  0  0  0
  -29.1104  -17.2258   21.4533 F   0  0  0  0  0  0  0  0  0  0  0  0
  -19.4020   -6.4817   19.3153 F   0  0  0  0  0  0  0  0  0  0  0  0
  1  2  1  0  0  0  0
  1  5  2  0  0  0  0
  2  6  2  0  0  0  0
  3  8  2  0  0  0  0
  3 17  1  0  0  0  0
  4  9  1  0  0  0  0
  4 17  2  0  0  0  0
  5 20  1  0  0  0  0
  6 22  1  0  0  0  0
  7 10  2  0  0  0  0
  7 21  1  0  0  0  0
  8 26  1  0  0  0  0
  9 26  2  0  0  0  0
 10 27  1  0  0  0  0
 11 12  2  0  0  0  0
 11 28  1  0  0  0  0
 12 29  1  0  0  0  0
 13 23  1  0  0  0  0
 13 27  2  0  0  0  0
 14 24  2  0  0  0  0
 14 25  1  0  0  0  0
 15 25  2  0  0  0  0
 15 30  1  0  0  0  0
 16 29  2  0  0  0  0
 16 31  1  0  0  0  0
 17 32  1  0  0  0  0
 18 24  1  0  0  0  0
 18 30  2  0  0  0  0
 18 34  1  0  0  0  0
 19 32  1  0  0  0  0
 19 33  2  0  0  0  0
 19 35  1  0  0  0  0
 20 22  2  0  0  0  0
 20 41  1  0  0  0  0
 21 23  2  0  0  0  0
 21 42  1  0  0  0  0
 22 50  1  0  0  0  0
 23 43  1  0  0  0  0
 24 53  1  0  0  0  0
 25 70  1  0  0  0  0
 26 82  1  0  0  0  0
 27 83  1  0  0  0  0
 28 31  2  0  0  0  0
 28 82  1  0  0  0  0
 29 84  1  0  0  0  0
 30 85  1  0  0  0  0
 31 86  1  0  0  0  0
 32 64  2  0  0  0  0
 33 65  1  0  0  0  0
 33 68  1  0  0  0  0
 34 71  1  0  0  0  0
 34 75  2  0  0  0  0
 35 69  1  0  0  0  0
 35 76  2  0  0  0  0
 36 51  1  0  0  0  0
 36 72  1  0  0  0  0
 36 77  2  0  0  0  0
 37 59  1  0  0  0  0
 37 60  1  0  0  0  0
 37 78  2  0  0  0  0
 38 61  1  0  0  0  0
 38 66  1  0  0  0  0
 38 79  2  0  0  0  0
 39 62  1  0  0  0  0
 39 73  1  0  0  0  0
 39 80  2  0  0  0  0
 40 67  1  0  0  0  0
 40 71  1  0  0  0  0
 40 81  2  0  0  0  0
 41 44  1  0  0  0  0
 42 51  1  0  0  0  0
 43 66  1  0  0  0  0
 44 46  1  0  0  0  0
 45 47  1  0  0  0  0
 45 48  1  0  0  0  0
 46 50  1  0  0  0  0
 47 52  1  0  0  0  0
 48 67  1  0  0  0  0
 49 52  1  0  0  0  0
 49 67  1  0  0  0  0
 50 72  1  0  0  0  0
 51 66  1  0  0  0  0
 52 65  1  0  0  0  0
 54 62  1  0  0  0  0
 55 63  1  0  0  0  0
 56 63  1  0  0  0  0
 57 63  1  0  0  0  0
 58 74  1  0  0  0  0
 59 70  1  0  0  0  0
 60 83  1  0  0  0  0
 61 63  1  0  0  0  0
 61 73  1  0  0  0  0
 62 74  1  0  0  0  0
 64 65  1  0  0  0  0
M  CHG  1  74   1
M  ISO  4  40 100  60 101  71 100  83 101
M  END
> <Batch ID>
0109

> <Smiles>
CNC(C)C(=O)NC(C(=O)N1Cc2cc([101O:1][101CH2:1]C(=O)CNc3cc(C)c(C(=O)[100NH:0][100C:0](=O)N4CCCC(n5nc(-c6ccc(Oc7ccc(F)cc7F)cc6)c(C(N)=O)c5N)C4)c(F)c3)ccc2CC1C(=O)NC1CCCc2ccccc21)C(C)(C)C

> <Shape>
0.270

> <Color>
0.094

> <Negative vol penalty>
0.000

$$$$

  -OEChem-04052301233D

 90 99  0     1  0  0  0  0  0999 V2000
  -23.6847  -38.5183   21.6959 C   0  0  0  0  0  0  0  0  0  0  0  0
  -24.4623  -37.7293   20.8543 C   0  0  0  0  0  0  0  0  0  0  0  0
  -24.3673   -8.9834   22.0251 C   0  0  0  0  0  0  0  0  0  0  0  0
  -22.6912   -9.9384   20.5706 C   0  0  0  0  0  0  0  0  0  0  0  0
  -23.3408  -38.0533   22.9645 C   0  0  0  0  0  0  0  0  0  0  0  0
  -24.8973  -36.4751   21.2813 C   0  0  0  0  0  0  0  0  0  0  0  0
  -26.3672  -29.9257   18.7791 C   0  0  0  0  0  0  0  0  0  0  0  0
  -28.3933  -21.3683   17.2514 C   0  0  0  0  0  0  0  0  0  0  0  0
  -27.8074  -20.1535   16.8957 C   0  0  0  0  0  0  0  0  0  0  0  0
  -23.6968   -7.7607   21.9951 C   0  0  0  0  0  0  0  0  0  0  0  0
  -22.0207   -8.7156   20.5405 C   0  0  0  0  0  0  0  0  0  0  0  0
  -27.3834  -28.9713   18.7908 C   0  0  0  0  0  0  0  0  0  0  0  0
  -20.9879   -6.3692   23.4613 C   0  0  0  0  0  0  0  0  0  0  0  0
  -20.8134   -5.6967   24.6708 C   0  0  0  0  0  0  0  0  0  0  0  0
  -26.6617  -28.2384   20.9728 C   0  0  0  0  0  0  0  0  0  0  0  0
  -28.4765  -20.6530   19.5576 C   0  0  0  0  0  0  0  0  0  0  0  0
  -22.0554   -3.8146   23.8034 C   0  0  0  0  0  0  0  0  0  0  0  0
  -23.8645  -10.0723   21.3129 C   0  0  0  0  0  0  0  0  0  0  0  0
  -24.8324  -12.1262   22.4759 C   0  0  0  0  0  0  0  0  0  0  0  0
  -23.7638  -36.7888   23.4036 C   0  0  0  0  0  0  0  0  0  0  0  0
  -25.4960  -30.0512   19.8707 C   0  0  0  0  0  0  0  0  0  0  0  0
  -24.5598  -35.9933   22.5575 C   0  0  0  0  0  0  0  0  0  0  0  0
  -25.6337  -29.1935   20.9714 C   0  0  0  0  0  0  0  0  0  0  0  0
  -28.7279  -21.6181   18.5823 C   0  0  0  0  0  0  0  0  0  0  0  0
  -27.5560  -19.1884   17.8709 C   0  0  0  0  0  0  0  0  0  0  0  0
  -22.5235   -7.6268   21.2527 C   0  0  0  0  0  0  0  0  0  0  0  0
  -27.5326  -28.1294   19.8890 C   0  0  0  0  0  0  0  0  0  0  0  0
  -21.6961   -5.7644   22.4228 C   0  0  0  0  0  0  0  0  0  0  0  0
  -21.3472   -4.4194   24.8419 C   0  0  0  0  0  0  0  0  0  0  0  0
  -27.8906  -19.4381   19.2019 C   0  0  0  0  0  0  0  0  0  0  0  0
  -22.2298   -4.4871   22.5939 C   0  0  0  0  0  0  0  0  0  0  0  0
  -24.5564  -11.3358   21.3441 C   0  0  0  0  0  0  0  0  0  0  0  0
  -25.5035  -13.2163   21.9780 C   0  0  0  0  0  0  0  0  0  0  0  0
  -29.4572  -25.2680   18.8252 C   0  0  0  0  0  0  0  0  0  0  0  0
  -28.7406  -24.1199   18.7543 C   0  0  0  0  0  0  0  0  0  0  0  0
  -30.9361  -25.1652   19.0644 C   0  0  0  0  0  0  0  0  0  0  0  0
  -29.1128  -17.7635   14.7880 C   0  0  0  0  0  0  0  0  0  0  0  0
  -28.3971  -17.1513   15.7381 C   0  0  0  0  0  0  0  0  0  0  0  0
  -24.5111  -11.8956   23.8540 C   0  0  0  0  0  0  0  0  0  0  0  0
  -24.8261  -32.3580   21.9524 C   0  0  0  0  0  0  0  0  0  0  0  0
  -22.5276  -30.2832   22.9191 C   0  0  0  0  0  0  0  0  0  0  0  0
  -22.2570  -26.7304   23.4869 C   0  0  0  0  0  0  0  0  0  0  0  0
  -26.1292  -17.2202   18.4016 C   0  0  0  0  0  0  0  0  0  0  0  0
  -23.4066  -36.3488   24.8013 C   0  0  0  0  0  0  0  0  0  0  0  0
  -24.3882  -31.0679   19.8311 C   0  0  0  0  0  0  0  0  0  0  0  0
  -24.7117  -29.2741   22.1597 C   0  0  0  0  0  0  0  0  0  0  0  0
  -31.5711  -23.7956   19.0754 C   0  0  0  0  0  0  0  0  0  0  0  0
  -23.5939  -34.8520   25.0352 C   0  0  0  0  0  0  0  0  0  0  0  0
  -27.4667  -14.0797   17.4059 C   0  0  0  0  0  0  0  0  0  0  0  0
  -24.9416  -34.3909   24.4894 C   0  0  0  0  0  0  0  0  0  0  0  0
  -26.8380  -13.1419   18.4358 C   0  0  0  0  0  0  0  0  0  0  0  0
  -30.6233  -22.7398   19.6168 C   0  0  0  0  0  0  0  0  0  0  0  0
  -26.4896  -15.1620   16.9454 C   0  0  0  0  0  0  0  0  0  0  0  0
  -25.2553  -14.9982   19.0842 C   0  0  0  0  0  0  0  0  0  0  0  0
  -25.0301  -34.6170   22.9753 C   0  0  1  0  0  0  0  0  0  0  0  0
  -23.8796  -31.4517   21.2173 C   0  0  1  0  0  0  0  0  0  0  0  0
  -26.2331  -13.9346   19.6079 C   0  0  1  0  0  0  0  0  0  0  0  0
  -27.2357  -24.1779   18.5772 C   0  0  0  0  0  0  0  0  0  0  0  0
  -20.2641  -25.2090   23.3844 C   0  0  0  0  0  0  0  0  0  0  0  0
  -22.3391  -30.8038   25.9196 C   0  0  0  0  0  0  0  0  0  0  0  0
  -21.6858  -28.4062   26.2241 C   0  0  0  0  0  0  0  0  0  0  0  0
  -20.2399  -29.9298   24.8786 C   0  0  0  0  0  0  0  0  0  0  0  0
  -23.5797  -24.9386   21.5378 C   0  0  0  0  0  0  0  0  0  0  0  0
  -28.9327  -26.6644   18.6442 C   0  0  0  0  0  0  0  0  0  1  0  0
  -26.9950  -17.5216   16.0919 C   0  0  0  0  0  0  0  0  0  0  0  0
  -22.4542  -29.1636   23.9291 C   0  0  1  0  0  0  0  0  0  0  0  0
  -21.4852  -25.7316   22.6437 C   0  0  2  0  0  0  0  0  0  0  0  0
  -21.7042  -29.5827   25.2249 C   0  0  0  0  0  0  0  0  0  0  0  0
  -25.0145  -11.8778   20.2125 N   0  0  0  0  0  0  0  0  0  0  0  0
  -25.5851  -13.0204   20.6307 N   0  0  0  0  0  0  0  0  0  0  0  0
  -29.3244  -22.8536   18.9439 N   0  0  0  0  0  0  0  0  0  0  0  0
  -23.6481  -30.2886   22.0764 N   0  0  0  0  0  0  0  0  0  0  0  0
  -25.9079  -15.8635   18.0986 N   0  0  0  0  0  0  0  0  0  0  0  0
  -26.0257  -14.3137   22.5656 N   0  0  0  0  0  0  0  0  0  0  0  0
  -23.2904  -12.3783   24.3452 N   0  0  0  0  0  0  0  0  0  0  0  0
  -24.2921  -33.5929   22.2673 N   0  0  0  0  0  0  0  0  0  0  0  0
  -21.8590  -28.0264   23.2354 N   0  0  0  0  0  0  0  0  0  0  0  0
  -26.9490  -17.9319   17.4995 N   0  0  0  0  0  0  0  0  0  0  0  0
  -22.3525  -24.5722   22.2906 N   0  3  0  0  0  0  0  0  0  0  0  0
  -31.6259  -26.1763   19.1934 O   0  0  0  0  0  0  0  0  0  0  0  0
  -25.2908  -11.2940   24.6310 O   0  0  0  0  0  0  0  0  0  0  0  0
  -25.9566  -31.9653   22.2159 O   0  0  0  0  0  0  0  0  0  0  0  0
  -21.6204  -31.1179   22.8745 O   0  0  0  0  0  0  0  0  0  0  0  0
  -23.1236  -26.3944   24.2911 O   0  0  0  0  0  0  0  0  0  0  0  0
  -25.6132  -17.7609   19.3872 O   0  0  0  0  0  0  0  0  0  0  0  0
  -21.8691   -6.4337   21.2229 O   0  0  0  0  0  0  0  0  0  0  0  0
  -28.5240  -27.1973   19.9033 O   0  0  0  0  0  0  0  0  0  1  0  0
  -21.1808   -3.7743   26.0039 F   0  0  0  0  0  0  0  0  0  0  0  0
  -27.6531  -18.5179   20.1475 F   0  0  0  0  0  0  0  0  0  0  0  0
  -22.9121   -3.9014   21.6003 F   0  0  0  0  0  0  0  0  0  0  0  0
  1  2  1  0  0  0  0
  1  5  2  0  0  0  0
  2  6  2  0  0  0  0
  3 10  2  0  0  0  0
  3 18  1  0  0  0  0
  4 11  1  0  0  0  0
  4 18  2  0  0  0  0
  5 20  1  0  0  0  0
  6 22  1  0  0  0  0
  7 12  2  0  0  0  0
  7 21  1  0  0  0  0
  8  9  2  0  0  0  0
  8 24  1  0  0  0  0
  9 25  1  0  0  0  0
 10 26  1  0  0  0  0
 11 26  2  0  0  0  0
 12 27  1  0  0  0  0
 13 14  2  0  0  0  0
 13 28  1  0  0  0  0
 14 29  1  0  0  0  0
 15 23  1  0  0  0  0
 15 27  2  0  0  0  0
 16 24  2  0  0  0  0
 16 30  1  0  0  0  0
 17 29  2  0  0  0  0
 17 31  1  0  0  0  0
 18 32  1  0  0  0  0
 19 32  1  0  0  0  0
 19 33  2  0  0  0  0
 19 39  1  0  0  0  0
 20 22  2  0  0  0  0
 20 44  1  0  0  0  0
 21 23  2  0  0  0  0
 21 45  1  0  0  0  0
 22 55  1  0  0  0  0
 23 46  1  0  0  0  0
 24 71  1  0  0  0  0
 25 30  2  0  0  0  0
 25 78  1  0  0  0  0
 26 86  1  0  0  0  0
 27 87  1  0  0  0  0
 28 31  2  0  0  0  0
 28 86  1  0  0  0  0
 29 88  1  0  0  0  0
 30 89  1  0  0  0  0
 31 90  1  0  0  0  0
 32 69  2  0  0  0  0
 33 70  1  0  0  0  0
 33 74  1  0  0  0  0
 34 35  2  0  0  0  0
 34 36  1  0  0  0  0
 34 64  1  0  0  0  0
 35 58  1  0  0  0  0
 35 71  1  0  0  0  0
 36 47  1  0  0  0  0
 36 80  2  0  0  0  0
 37 38  2  0  0  0  0
 38 65  1  0  0  0  0
 39 75  1  0  0  0  0
 39 81  2  0  0  0  0
 40 56  1  0  0  0  0
 40 76  1  0  0  0  0
 40 82  2  0  0  0  0
 41 66  1  0  0  0  0
 41 72  1  0  0  0  0
 41 83  2  0  0  0  0
 42 67  1  0  0  0  0
 42 77  1  0  0  0  0
 42 84  2  0  0  0  0
 43 73  1  0  0  0  0
 43 78  1  0  0  0  0
 43 85  2  0  0  0  0
 44 48  1  0  0  0  0
 45 56  1  0  0  0  0
 46 72  1  0  0  0  0
 47 52  1  0  0  0  0
 48 50  1  0  0  0  0
 49 51  1  0  0  0  0
 49 53  1  0  0  0  0
 50 55  1  0  0  0  0
 51 57  1  0  0  0  0
 52 71  1  0  0  0  0
 53 73  1  0  0  0  0
 54 57  1  0  0  0  0
 54 73  1  0  0  0  0
 55 76  1  0  0  0  0
 56 72  1  0  0  0  0
 57 70  1  0  0  0  0
 59 67  1  0  0  0  0
 60 68  1  0  0  0  0
 61 68  1  0  0  0  0
 62 68  1  0  0  0  0
 63 79  1  0  0  0  0
 64 87  1  0  0  0  0
 65 78  1  0  0  0  0
 66 68  1  0  0  0  0
 66 77  1  0  0  0  0
 67 79  1  0  0  0  0
 69 70  1  0  0  0  0
M  CHG  1  79   1
M  ISO  4  43 100  64 101  78 100  87 101
M  END
> <Batch ID>
0109

> <Smiles>
C=CC[100N:0](c1ccc(N2CCC(=O)C([101CH2:1][101O:1]c3ccc4c(c3)CN(C(=O)C(NC(=O)C(C)NC)C(C)(C)C)C(C(=O)NC3CCCc5ccccc53)C4)=C2C)cc1F)[100C:0](=O)N1CCCC(n2nc(-c3ccc(Oc4ccc(F)cc4F)cc3)c(C(N)=O)c2N)C1

> <Shape>
0.310

> <Color>
0.119

> <Negative vol penalty>
0.000

$$$$

  -OEChem-04052301233D

 84 93  0     1  0  0  0  0  0999 V2000
  -22.1571  -27.5976   11.0093 C   0  0  0  0  0  0  0  0  0  0  0  0
  -22.6735  -26.6830   11.9215 C   0  0  0  0  0  0  0  0  0  0  0  0
  -23.0511   -9.8666   19.9686 C   0  0  0  0  0  0  0  0  0  0  0  0
  -23.8198   -9.8888   22.2590 C   0  0  0  0  0  0  0  0  0  0  0  0
  -22.2473  -28.9647   11.2676 C   0  0  0  0  0  0  0  0  0  0  0  0
  -23.2813  -27.1350   13.0922 C   0  0  0  0  0  0  0  0  0  0  0  0
  -23.1547  -24.4327   18.5865 C   0  0  0  0  0  0  0  0  0  0  0  0
  -22.2905   -8.7281   20.2349 C   0  0  0  0  0  0  0  0  0  0  0  0
  -23.0591   -8.7503   22.5253 C   0  0  0  0  0  0  0  0  0  0  0  0
  -24.0658  -23.6112   19.2490 C   0  0  0  0  0  0  0  0  0  0  0  0
  -19.8214   -8.0097   23.1489 C   0  0  0  0  0  0  0  0  0  0  0  0
  -19.0684   -7.9953   24.3229 C   0  0  0  0  0  0  0  0  0  0  0  0
  -24.9405  -25.5326   20.4161 C   0  0  0  0  0  0  0  0  0  0  0  0
  -28.8876  -18.6483   24.4086 C   0  0  0  0  0  0  0  0  0  0  0  0
  -20.2825   -6.0476   25.0777 C   0  0  0  0  0  0  0  0  0  0  0  0
  -23.8158  -10.4469   20.9806 C   0  0  0  0  0  0  0  0  0  0  0  0
  -24.1961  -12.9649   20.8295 C   0  0  0  0  0  0  0  0  0  0  0  0
  -22.8479  -29.4335   12.4466 C   0  0  0  0  0  0  0  0  0  0  0  0
  -23.1370  -25.8142   18.8262 C   0  0  0  0  0  0  0  0  0  0  0  0
  -23.3808  -28.5098   13.3659 C   0  0  0  0  0  0  0  0  0  0  0  0
  -24.0265  -26.3691   19.7573 C   0  0  0  0  0  0  0  0  0  0  0  0
  -29.7181  -17.5750   23.9746 C   0  0  0  0  0  0  0  0  0  0  0  0
  -22.2945   -8.1700   21.5132 C   0  0  0  0  0  0  0  0  0  0  0  0
  -24.9608  -24.1615   20.1618 C   0  0  0  0  0  0  0  0  0  0  0  0
  -20.8049   -7.0431   22.9392 C   0  0  0  0  0  0  0  0  0  0  0  0
  -19.2990   -7.0143   25.2874 C   0  0  0  0  0  0  0  0  0  0  0  0
  -21.0355   -6.0621   23.9036 C   0  0  0  0  0  0  0  0  0  0  0  0
  -24.6022  -11.6227   20.7060 C   0  0  0  0  0  0  0  0  0  0  0  0
  -30.0613  -17.6909   22.6456 C   0  0  0  0  0  0  0  0  0  0  0  0
  -25.2983  -13.6931   20.4535 C   0  0  0  0  0  0  0  0  0  0  0  0
  -28.6279  -19.5440   23.3945 C   0  0  0  0  0  0  0  0  0  0  0  0
  -26.6257  -22.5657   22.9125 C   0  0  0  0  0  0  0  0  0  0  0  0
  -25.8005  -23.3155   22.1742 C   0  0  0  0  0  0  0  0  0  1  0  0
  -22.9353  -13.5052   21.2470 C   0  0  0  0  0  0  0  0  0  0  0  0
  -23.6268  -28.4052   17.0513 C   0  0  0  0  0  0  0  0  0  0  0  0
  -22.6856  -29.9510   19.7433 C   0  0  0  0  0  0  0  0  0  0  0  0
  -22.3374  -29.9069   23.1379 C   0  0  0  0  0  0  0  0  0  0  0  0
  -30.7978  -14.6293   20.6098 C   0  0  0  0  0  0  0  0  0  0  0  0
  -22.9643  -30.9220   12.6598 C   0  0  0  0  0  0  0  0  0  0  0  0
  -22.1301  -26.6829   18.1233 C   0  0  0  0  0  0  0  0  0  0  0  0
  -24.0345  -27.8434   20.0653 C   0  0  0  0  0  0  0  0  0  0  0  0
  -26.6080  -22.4824   24.4061 C   0  0  0  0  0  0  0  0  0  0  0  0
  -27.6269  -21.5939   22.3642 C   0  0  0  0  0  0  0  0  0  0  0  0
  -23.2892  -31.3073   14.1008 C   0  0  0  0  0  0  0  0  0  0  0  0
  -29.6144  -12.2348   18.2555 C   0  0  0  0  0  0  0  0  0  0  0  0
  -24.4223  -30.4416   14.6424 C   0  0  0  0  0  0  0  0  0  0  0  0
  -28.1743  -11.9685   18.6971 C   0  0  0  0  0  0  0  0  0  0  0  0
  -27.0923  -21.0600   24.6727 C   0  0  0  0  0  0  0  0  0  0  0  0
  -30.5394  -12.4555   19.4504 C   0  0  0  0  0  0  0  0  0  0  0  0
  -28.6545  -13.2322   20.8352 C   0  0  0  0  0  0  0  0  0  0  0  0
  -24.0254  -28.9604   14.6588 C   0  0  1  0  0  0  0  0  0  0  0  0
  -22.5453  -28.1496   18.0625 C   0  0  1  0  0  0  0  0  0  0  0  0
  -27.6732  -13.0588   19.6632 C   0  0  2  0  0  0  0  0  0  0  0  0
  -30.1547  -16.4684   24.8592 C   0  0  0  0  0  0  0  0  0  0  0  0
  -21.5738  -31.3302   25.0585 C   0  0  0  0  0  0  0  0  0  0  0  0
  -25.2639  -31.5726   19.5635 C   0  0  0  0  0  0  0  0  0  0  0  0
  -24.9133  -32.2635   21.9442 C   0  0  0  0  0  0  0  0  0  0  0  0
  -23.2414  -32.8966   20.2045 C   0  0  0  0  0  0  0  0  0  0  0  0
  -20.2245  -27.9728   23.8822 C   0  0  0  0  0  0  0  0  0  0  0  0
  -30.9015  -16.7930   21.8210 C   0  0  0  0  0  0  0  0  0  0  0  0
  -23.3863  -30.4904   20.9668 C   0  0  1  0  0  0  0  0  0  0  0  0
  -21.1713  -30.2791   24.0358 C   0  0  2  0  0  0  0  0  0  0  0  0
  -24.2026  -31.7782   20.6627 C   0  0  0  0  0  0  0  0  0  0  0  0
  -25.8638  -11.5024   20.2843 N   0  0  0  0  0  0  0  0  0  0  0  0
  -26.2600  -12.7784   20.1395 N   0  0  0  0  0  0  0  0  0  0  0  0
  -27.8593  -20.6879   23.4862 N   0  0  3  0  0  0  0  0  0  0  0  0
  -23.0352  -28.6521   19.3478 N   0  0  0  0  0  0  0  0  0  0  0  0
  -30.0082  -13.5028   20.3261 N   0  0  0  0  0  0  0  0  0  0  0  0
  -25.5289  -15.0202   20.3640 N   0  0  0  0  0  0  0  0  0  0  0  0
  -21.9108  -12.6158   21.5986 N   0  0  0  0  0  0  0  0  0  0  0  0
  -23.1561  -28.6826   15.7820 N   0  0  0  0  0  0  0  0  0  0  0  0
  -22.3556  -30.6627   21.9848 N   0  0  0  0  0  0  0  0  0  0  0  0
  -30.2162  -15.5771   21.4430 N   0  0  0  0  0  0  0  0  0  0  0  0
  -20.6761  -29.0781   24.7662 N   0  3  0  0  0  0  0  0  0  0  0  0
  -22.7183  -14.7399   21.2906 O   0  0  0  0  0  0  0  0  0  0  0  0
  -24.8014  -28.3560   17.3972 O   0  0  0  0  0  0  0  0  0  0  0  0
  -21.8533  -30.6535   19.1641 O   0  0  0  0  0  0  0  0  0  0  0  0
  -23.1529  -29.0356   23.4319 O   0  0  0  0  0  0  0  0  0  0  0  0
  -31.9345  -14.7818   20.1500 O   0  0  0  0  0  0  0  0  0  0  0  0
  -21.5522   -7.0592   21.7734 O   0  0  0  0  0  0  0  0  0  0  0  0
  -25.8515  -23.3620   20.8093 O   0  0  0  0  0  0  0  0  0  1  0  0
  -18.5768   -7.0014   26.4154 F   0  0  0  0  0  0  0  0  0  0  0  0
  -21.9798   -5.1315   23.7083 F   0  0  0  0  0  0  0  0  0  0  0  0
  -29.3835  -19.0894   21.9266 S   0  0  0  0  0  0  0  0  0  0  0  0
  1  2  1  0  0  0  0
  1  5  2  0  0  0  0
  2  6  2  0  0  0  0
  3  8  2  0  0  0  0
  3 16  1  0  0  0  0
  4  9  1  0  0  0  0
  4 16  2  0  0  0  0
  5 18  1  0  0  0  0
  6 20  1  0  0  0  0
  7 10  2  0  0  0  0
  7 19  1  0  0  0  0
  8 23  1  0  0  0  0
  9 23  2  0  0  0  0
 10 24  1  0  0  0  0
 11 12  2  0  0  0  0
 11 25  1  0  0  0  0
 12 26  1  0  0  0  0
 13 21  1  0  0  0  0
 13 24  2  0  0  0  0
 14 22  1  0  0  0  0
 14 31  2  0  0  0  0
 15 26  2  0  0  0  0
 15 27  1  0  0  0  0
 16 28  1  0  0  0  0
 17 28  1  0  0  0  0
 17 30  2  0  0  0  0
 17 34  1  0  0  0  0
 18 20  2  0  0  0  0
 18 39  1  0  0  0  0
 19 21  2  0  0  0  0
 19 40  1  0  0  0  0
 20 51  1  0  0  0  0
 21 41  1  0  0  0  0
 22 29  2  0  0  0  0
 22 54  1  0  0  0  0
 23 80  1  0  0  0  0
 24 81  1  0  0  0  0
 25 27  2  0  0  0  0
 25 80  1  0  0  0  0
 26 82  1  0  0  0  0
 27 83  1  0  0  0  0
 28 64  2  0  0  0  0
 29 60  1  0  0  0  0
 29 84  1  0  0  0  0
 30 65  1  0  0  0  0
 30 69  1  0  0  0  0
 31 66  1  0  0  0  0
 31 84  1  0  0  0  0
 32 33  2  0  0  0  0
 32 42  1  0  0  0  0
 32 43  1  0  0  0  0
 33 81  1  0  0  0  0
 34 70  1  0  0  0  0
 34 75  2  0  0  0  0
 35 52  1  0  0  0  0
 35 71  1  0  0  0  0
 35 76  2  0  0  0  0
 36 61  1  0  0  0  0
 36 67  1  0  0  0  0
 36 77  2  0  0  0  0
 37 62  1  0  0  0  0
 37 72  1  0  0  0  0
 37 78  2  0  0  0  0
 38 68  1  0  0  0  0
 38 73  1  0  0  0  0
 38 79  2  0  0  0  0
 39 44  1  0  0  0  0
 40 52  1  0  0  0  0
 41 67  1  0  0  0  0
 42 48  1  0  0  0  0
 43 66  1  0  0  0  0
 44 46  1  0  0  0  0
 45 47  1  0  0  0  0
 45 49  1  0  0  0  0
 46 51  1  0  0  0  0
 47 53  1  0  0  0  0
 48 66  1  0  0  0  0
 49 68  1  0  0  0  0
 50 53  1  0  0  0  0
 50 68  1  0  0  0  0
 51 71  1  0  0  0  0
 52 67  1  0  0  0  0
 53 65  1  0  0  0  0
 55 62  1  0  0  0  0
 56 63  1  0  0  0  0
 57 63  1  0  0  0  0
 58 63  1  0  0  0  0
 59 74  1  0  0  0  0
 60 73  1  0  0  0  0
 61 63  1  0  0  0  0
 61 72  1  0  0  0  0
 62 74  1  0  0  0  0
 64 65  1  0  0  0  0
M  CHG  1  74   1
M  ISO  4  33 101  38 100  73 100  81 101
M  END
> <Batch ID>
0109

> <Smiles>
CNC(C)C(=O)NC(C(=O)N1Cc2cc([101O:1][101CH:1]=C3CCN(c4cc(C)c(C[100NH:0][100C:0](=O)N5CCCC(n6nc(-c7ccc(Oc8ccc(F)cc8F)cc7)c(C(N)=O)c6N)C5)s4)C3)ccc2CC1C(=O)NC1CCCc2ccccc21)C(C)(C)C

> <Shape>
0.248

> <Color>
0.219

> <Negative vol penalty>
0.000

$$$$

  -OEChem-04052301233D

 85 93  0     1  0  0  0  0  0999 V2000
  -29.9543  -31.1371   26.1727 C   0  0  0  0  0  0  0  0  0  0  0  0
  -29.4841  -30.0903   25.3863 C   0  0  0  0  0  0  0  0  0  0  0  0
  -24.4471   -8.9120   21.7114 C   0  0  0  0  0  0  0  0  0  0  0  0
  -23.2458  -10.0016   19.9206 C   0  0  0  0  0  0  0  0  0  0  0  0
  -29.0606  -32.0713   26.6946 C   0  0  0  0  0  0  0  0  0  0  0  0
  -28.1197  -29.9764   25.1223 C   0  0  0  0  0  0  0  0  0  0  0  0
  -27.1617  -28.9450   20.2577 C   0  0  0  0  0  0  0  0  0  0  0  0
  -23.2592   -8.3304   22.1543 C   0  0  0  0  0  0  0  0  0  0  0  0
  -22.0579   -9.4199   20.3635 C   0  0  0  0  0  0  0  0  0  0  0  0
  -27.3455  -27.6283   19.8379 C   0  0  0  0  0  0  0  0  0  0  0  0
  -20.5445   -9.2619   23.9396 C   0  0  0  0  0  0  0  0  0  0  0  0
  -20.2823   -9.2882   25.3093 C   0  0  0  0  0  0  0  0  0  0  0  0
  -24.9687  -27.2505   20.0025 C   0  0  0  0  0  0  0  0  0  0  0  0
  -20.2193   -6.8733   25.3438 C   0  0  0  0  0  0  0  0  0  0  0  0
  -24.4404   -9.7477   20.5945 C   0  0  0  0  0  0  0  0  0  0  0  0
  -26.5774   -9.8189   19.2032 C   0  0  0  0  0  0  0  0  0  0  0  0
  -27.6856  -31.9744   26.4289 C   0  0  0  0  0  0  0  0  0  0  0  0
  -25.8791  -29.4220   20.5641 C   0  0  0  0  0  0  0  0  0  0  0  0
  -27.2065  -30.9094   25.6422 C   0  0  0  0  0  0  0  0  0  0  0  0
  -24.7710  -28.5744   20.4236 C   0  0  0  0  0  0  0  0  0  0  0  0
  -22.0646   -8.5843   21.4804 C   0  0  0  0  0  0  0  0  0  0  0  0
  -26.2492  -26.7800   19.7130 C   0  0  0  0  0  0  0  0  0  0  0  0
  -20.6442   -8.0412   23.2719 C   0  0  0  0  0  0  0  0  0  0  0  0
  -20.1197   -8.0940   26.0114 C   0  0  0  0  0  0  0  0  0  0  0  0
  -20.4816   -6.8469   23.9740 C   0  0  0  0  0  0  0  0  0  0  0  0
  -25.6670  -10.3493   20.1368 C   0  0  0  0  0  0  0  0  0  0  0  0
  -27.5682  -10.7658   19.1135 C   0  0  0  0  0  0  0  0  0  0  0  0
  -28.8327  -21.1192   18.1890 C   0  0  0  0  0  0  0  0  0  0  0  0
  -28.4908  -18.7066   18.3531 C   0  0  0  0  0  0  0  0  0  0  0  0
  -28.7659  -19.9286   17.5750 C   0  0  0  0  0  0  0  0  0  0  0  0
  -28.3092  -18.8307   19.6914 C   0  0  0  0  0  0  0  0  0  0  0  0
  -28.3879  -20.1745   20.3721 C   0  0  0  0  0  0  0  0  0  0  0  0
  -29.5157  -16.6644   17.5952 C   0  0  0  0  0  0  0  0  0  0  0  0
  -28.4063  -17.3981   17.7146 C   0  0  0  0  0  0  0  0  0  0  0  0
  -26.5314   -8.5809   18.4814 C   0  0  0  0  0  0  0  0  0  0  0  0
  -24.4754  -30.5633   23.1777 C   0  0  0  0  0  0  0  0  0  0  0  0
  -27.4905  -23.3751   19.7989 C   0  0  0  0  0  0  0  0  0  0  0  0
  -22.0185  -31.1322   21.1375 C   0  0  0  0  0  0  0  0  0  0  0  0
  -20.4377  -30.3486   18.2163 C   0  0  0  0  0  0  0  0  0  0  0  0
  -27.3811  -16.6333   20.1561 C   0  0  0  0  0  0  0  0  0  0  0  0
  -26.7526  -32.9810   27.0541 C   0  0  0  0  0  0  0  0  0  0  0  0
  -25.6946  -30.8527   20.9901 C   0  0  0  0  0  0  0  0  0  0  0  0
  -23.3710  -29.0436   20.7206 C   0  0  0  0  0  0  0  0  0  0  0  0
  -25.3652  -33.0030   26.4177 C   0  0  0  0  0  0  0  0  0  0  0  0
  -29.7289  -14.1886   21.6294 C   0  0  0  0  0  0  0  0  0  0  0  0
  -24.8343  -31.5833   26.2457 C   0  0  0  0  0  0  0  0  0  0  0  0
  -28.9909  -12.8792   21.3675 C   0  0  0  0  0  0  0  0  0  0  0  0
  -28.7670  -15.3457   21.8967 C   0  0  0  0  0  0  0  0  0  0  0  0
  -27.0084  -14.2191   20.5622 C   0  0  0  0  0  0  0  0  0  0  0  0
  -25.7364  -30.7662   25.3130 C   0  0  1  0  0  0  0  0  0  0  0  0
  -24.4034  -31.0823   21.7695 C   0  0  1  0  0  0  0  0  0  0  0  0
  -27.9589  -13.0547   20.2433 C   0  0  2  0  0  0  0  0  0  0  0  0
  -28.9668  -19.8394   16.0870 C   0  0  0  0  0  0  0  0  0  0  0  0
  -18.4324  -30.9588   16.8364 C   0  0  0  0  0  0  0  0  0  0  0  0
  -20.2262  -29.5862   23.0629 C   0  0  0  0  0  0  0  0  0  0  0  0
  -18.5289  -29.4094   21.2309 C   0  0  0  0  0  0  0  0  0  0  0  0
  -19.1908  -31.6507   22.1035 C   0  0  0  0  0  0  0  0  0  0  0  0
  -22.1210  -31.1924   15.9330 C   0  0  0  0  0  0  0  0  0  0  0  0
  -28.7441  -22.5958   20.1346 C   0  0  0  0  0  0  0  0  0  0  0  0
  -27.6663  -24.8716   19.6359 C   0  0  0  0  0  0  0  0  0  1  0  0
  -20.8156  -30.3501   20.6681 C   0  0  1  0  0  0  0  0  0  0  0  0
  -19.9085  -31.2206   17.0919 C   0  0  2  0  0  0  0  0  0  0  0  0
  -19.7168  -30.2394   21.7625 C   0  0  0  0  0  0  0  0  0  0  0  0
  -26.0460  -11.5407   20.6069 N   0  0  0  0  0  0  0  0  0  0  0  0
  -27.2054  -11.7667   19.9660 N   0  0  0  0  0  0  0  0  0  0  0  0
  -28.6551  -21.2881   19.5563 N   0  0  0  0  0  0  0  0  0  0  0  0
  -23.2429  -30.4491   21.1398 N   0  0  0  0  0  0  0  0  0  0  0  0
  -27.7470  -15.4573   20.8415 N   0  0  0  0  0  0  0  0  0  0  0  0
  -28.7057  -10.8315   18.3895 N   0  0  0  0  0  0  0  0  0  0  0  0
  -25.4420   -7.7246   18.6922 N   0  0  0  0  0  0  0  0  0  0  0  0
  -28.0571  -17.7886   20.5388 N   0  0  0  0  0  0  0  0  0  0  0  0
  -25.4896  -31.1217   23.9320 N   0  0  0  0  0  0  0  0  0  0  0  0
  -20.3688  -30.9894   19.4352 N   0  0  0  0  0  0  0  0  0  0  0  0
  -20.6583  -30.9528   15.8321 N   0  3  0  0  0  0  0  0  0  0  0  0
  -28.2202  -20.2513   21.5900 O   0  0  0  0  0  0  0  0  0  0  0  0
  -27.4380   -8.2365   17.6857 O   0  0  0  0  0  0  0  0  0  0  0  0
  -23.6694  -29.7197   23.5527 O   0  0  0  0  0  0  0  0  0  0  0  0
  -26.3857  -22.8393   19.7149 O   0  0  0  0  0  0  0  0  0  0  0  0
  -21.8782  -32.3083   21.4824 O   0  0  0  0  0  0  0  0  0  0  0  0
  -20.8656  -29.2113   18.0322 O   0  0  0  0  0  0  0  0  0  0  0  0
  -26.5105  -16.6442   19.2783 O   0  0  0  0  0  0  0  0  0  0  0  0
  -20.9054   -8.0167   21.9122 O   0  0  0  0  0  0  0  0  0  0  0  0
  -26.4259  -25.4941   19.3040 O   0  0  0  0  0  0  0  0  0  1  0  0
  -19.8694   -8.1194   27.3270 F   0  0  0  0  0  0  0  0  0  0  0  0
  -20.5773   -5.6711   23.3383 F   0  0  0  0  0  0  0  0  0  0  0  0
  1  2  1  0  0  0  0
  1  5  2  0  0  0  0
  2  6  2  0  0  0  0
  3  8  2  0  0  0  0
  3 15  1  0  0  0  0
  4  9  1  0  0  0  0
  4 15  2  0  0  0  0
  5 17  1  0  0  0  0
  6 19  1  0  0  0  0
  7 10  2  0  0  0  0
  7 18  1  0  0  0  0
  8 21  1  0  0  0  0
  9 21  2  0  0  0  0
 10 22  1  0  0  0  0
 11 12  2  0  0  0  0
 11 23  1  0  0  0  0
 12 24  1  0  0  0  0
 13 20  1  0  0  0  0
 13 22  2  0  0  0  0
 14 24  2  0  0  0  0
 14 25  1  0  0  0  0
 15 26  1  0  0  0  0
 16 26  1  0  0  0  0
 16 27  2  0  0  0  0
 16 35  1  0  0  0  0
 17 19  2  0  0  0  0
 17 41  1  0  0  0  0
 18 20  2  0  0  0  0
 18 42  1  0  0  0  0
 19 50  1  0  0  0  0
 20 43  1  0  0  0  0
 21 82  1  0  0  0  0
 22 83  1  0  0  0  0
 23 25  2  0  0  0  0
 23 82  1  0  0  0  0
 24 84  1  0  0  0  0
 25 85  1  0  0  0  0
 26 64  2  0  0  0  0
 27 65  1  0  0  0  0
 27 69  1  0  0  0  0
 28 30  2  0  0  0  0
 28 66  1  0  0  0  0
 29 30  1  0  0  0  0
 29 31  2  0  0  0  0
 29 34  1  0  0  0  0
 30 53  1  0  0  0  0
 31 32  1  0  0  0  0
 31 71  1  0  0  0  0
 32 66  1  0  0  0  0
 32 75  2  0  0  0  0
 33 34  2  0  0  0  0
 35 70  1  0  0  0  0
 35 76  2  0  0  0  0
 36 51  1  0  0  0  0
 36 72  1  0  0  0  0
 36 77  2  0  0  0  0
 37 59  1  0  0  0  0
 37 60  1  0  0  0  0
 37 78  2  0  0  0  0
 38 61  1  0  0  0  0
 38 67  1  0  0  0  0
 38 79  2  0  0  0  0
 39 62  1  0  0  0  0
 39 73  1  0  0  0  0
 39 80  2  0  0  0  0
 40 68  1  0  0  0  0
 40 71  1  0  0  0  0
 40 81  2  0  0  0  0
 41 44  1  0  0  0  0
 42 51  1  0  0  0  0
 43 67  1  0  0  0  0
 44 46  1  0  0  0  0
 45 47  1  0  0  0  0
 45 48  1  0  0  0  0
 46 50  1  0  0  0  0
 47 52  1  0  0  0  0
 48 68  1  0  0  0  0
 49 52  1  0  0  0  0
 49 68  1  0  0  0  0
 50 72  1  0  0  0  0
 51 67  1  0  0  0  0
 52 65  1  0  0  0  0
 54 62  1  0  0  0  0
 55 63  1  0  0  0  0
 56 63  1  0  0  0  0
 57 63  1  0  0  0  0
 58 74  1  0  0  0  0
 59 66  1  0  0  0  0
 60 83  1  0  0  0  0
 61 63  1  0  0  0  0
 61 73  1  0  0  0  0
 62 74  1  0  0  0  0
 64 65  1  0  0  0  0
M  CHG  1  74   1
M  ISO  4  40 100  60 101  71 100  83 101
M  END
> <Batch ID>
0109

> <Smiles>
C=Cc1c(C)cn(CC(=O)[101CH2:1][101O:1]c2ccc3c(c2)CN(C(=O)C(NC(=O)C(C)NC)C(C)(C)C)C(C(=O)NC2CCCc4ccccc42)C3)c(=O)c1[100NH:0][100C:0](=O)N1CCCC(n2nc(-c3ccc(Oc4ccc(F)cc4F)cc3)c(C(N)=O)c2N)C1

> <Shape>
0.296

> <Color>
0.084

> <Negative vol penalty>
0.000

$$$$

  -OEChem-04052301233D

 84 92  0     1  0  0  0  0  0999 V2000
  -33.9350  -31.6495   17.3436 C   0  0  0  0  0  0  0  0  0  0  0  0
  -33.4848  -30.3584   17.5999 C   0  0  0  0  0  0  0  0  0  0  0  0
  -23.0778  -10.6078   21.1739 C   0  0  0  0  0  0  0  0  0  0  0  0
  -24.6537   -8.9990   22.0487 C   0  0  0  0  0  0  0  0  0  0  0  0
  -33.6395  -32.6795   18.2356 C   0  0  0  0  0  0  0  0  0  0  0  0
  -32.7398  -30.0963   18.7491 C   0  0  0  0  0  0  0  0  0  0  0  0
  -28.1717  -26.0594   19.3339 C   0  0  0  0  0  0  0  0  0  0  0  0
  -22.1168   -9.6035   21.0580 C   0  0  0  0  0  0  0  0  0  0  0  0
  -23.6926   -7.9946   21.9329 C   0  0  0  0  0  0  0  0  0  0  0  0
  -28.1259  -24.7618   19.8419 C   0  0  0  0  0  0  0  0  0  0  0  0
  -20.9785   -6.9370   23.6461 C   0  0  0  0  0  0  0  0  0  0  0  0
  -20.8262   -6.0608   24.7206 C   0  0  0  0  0  0  0  0  0  0  0  0
  -31.5564  -15.9351   21.8397 C   0  0  0  0  0  0  0  0  0  0  0  0
  -27.3906  -25.6274   21.9701 C   0  0  0  0  0  0  0  0  0  0  0  0
  -21.3873   -4.2013   23.2837 C   0  0  0  0  0  0  0  0  0  0  0  0
  -30.8768  -16.7978   23.9493 C   0  0  0  0  0  0  0  0  0  0  0  0
  -24.3463  -10.3055   21.6692 C   0  0  0  0  0  0  0  0  0  0  0  0
  -31.5319  -14.6577   22.3883 C   0  0  0  0  0  0  0  0  0  0  0  0
  -25.5712  -12.1737   22.9009 C   0  0  0  0  0  0  0  0  0  0  0  0
  -32.8822  -32.4318   19.3914 C   0  0  0  0  0  0  0  0  0  0  0  0
  -27.8372  -27.1534   20.1449 C   0  0  0  0  0  0  0  0  0  0  0  0
  -32.4350  -31.1237   19.6581 C   0  0  0  0  0  0  0  0  0  0  0  0
  -27.4305  -26.9376   21.4693 C   0  0  0  0  0  0  0  0  0  0  0  0
  -22.4242   -8.2970   21.4375 C   0  0  0  0  0  0  0  0  0  0  0  0
  -27.7381  -24.5459   21.1610 C   0  0  0  0  0  0  0  0  0  0  0  0
  -21.3351   -6.4454   22.3903 C   0  0  0  0  0  0  0  0  0  0  0  0
  -31.2239  -17.0309   22.6284 C   0  0  0  0  0  0  0  0  0  0  0  0
  -21.0306   -4.6929   24.5394 C   0  0  0  0  0  0  0  0  0  0  0  0
  -21.5395   -5.0776   22.2092 C   0  0  0  0  0  0  0  0  0  0  0  0
  -25.3396  -11.3424   21.7887 C   0  0  0  0  0  0  0  0  0  0  0  0
  -31.1711  -14.5308   23.7201 C   0  0  0  0  0  0  0  0  0  0  0  0
  -26.6123  -12.9821   22.5145 C   0  0  0  0  0  0  0  0  0  0  0  0
  -31.8799  -13.5159   21.5539 C   0  0  0  0  0  0  0  0  0  0  0  0
  -24.9049  -12.2118   24.1699 C   0  0  0  0  0  0  0  0  0  0  0  0
  -31.6265  -13.5234   20.0948 C   0  0  0  0  0  0  0  0  0  0  0  0
  -29.3890  -29.7166   21.2058 C   0  0  0  0  0  0  0  0  0  0  0  0
  -26.4649  -30.5324   22.3487 C   0  0  0  0  0  0  0  0  0  0  0  0
  -23.3678  -29.5240   23.3675 C   0  0  0  0  0  0  0  0  0  0  0  0
  -32.6283  -33.5680   20.3502 C   0  0  0  0  0  0  0  0  0  0  0  0
  -27.8660  -28.5447   19.5740 C   0  0  0  0  0  0  0  0  0  0  0  0
  -27.0419  -28.0765   22.3751 C   0  0  0  0  0  0  0  0  0  0  0  0
  -31.5148  -33.2805   21.3540 C   0  0  0  0  0  0  0  0  0  0  0  0
  -28.7309  -13.7035   17.9877 C   0  0  0  0  0  0  0  0  0  0  0  0
  -31.6878  -31.8913   21.9599 C   0  0  0  0  0  0  0  0  0  0  0  0
  -27.6177  -13.1367   18.8683 C   0  0  0  0  0  0  0  0  0  0  0  0
  -30.0638  -13.0139   18.2598 C   0  0  0  0  0  0  0  0  0  0  0  0
  -29.3697  -12.4885   20.5817 C   0  0  0  0  0  0  0  0  0  0  0  0
  -31.6031  -30.8046   20.8813 C   0  0  1  0  0  0  0  0  0  0  0  0
  -27.9993  -29.6261   20.6417 C   0  0  1  0  0  0  0  0  0  0  0  0
  -28.0138  -13.1795   20.3549 C   0  0  2  0  0  0  0  0  0  0  0  0
  -21.2081  -30.4155   24.2832 C   0  0  0  0  0  0  0  0  0  0  0  0
  -27.7671  -30.8668   25.0878 C   0  0  0  0  0  0  0  0  0  0  0  0
  -25.4797  -30.8137   26.1043 C   0  0  0  0  0  0  0  0  0  0  0  0
  -26.0910  -32.6298   24.5072 C   0  0  0  0  0  0  0  0  0  0  0  0
  -21.8381  -28.5426   21.0318 C   0  0  0  0  0  0  0  0  0  0  0  0
  -28.9526  -21.2817   22.1586 C   0  0  0  0  0  0  0  0  0  0  0  0
  -29.9478  -20.2585   21.6224 C   0  0  0  0  0  0  0  0  0  0  0  0
  -28.6100  -22.3338   21.1122 C   0  0  0  0  0  0  0  0  0  1  0  0
  -30.3236  -19.2314   22.6811 C   0  0  0  0  0  0  0  0  0  0  0  0
  -25.7132  -30.2872   23.6347 C   0  0  1  0  0  0  0  0  0  0  0  0
  -21.9796  -30.0363   23.0286 C   0  0  2  0  0  0  0  0  0  0  0  0
  -26.2719  -31.1279   24.8173 C   0  0  0  0  0  0  0  0  0  0  0  0
  -30.8417  -15.5716   24.5175 N   0  0  0  0  0  0  0  0  0  0  0  0
  -26.1669  -11.5991   20.7719 N   0  0  0  0  0  0  0  0  0  0  0  0
  -32.4296  -12.4295   22.0225 N   0  0  0  0  0  0  0  0  0  0  0  0
  -26.9284  -12.6009   21.2437 N   0  0  0  0  0  0  0  0  0  0  0  0
  -30.3919  -13.0408   19.6838 N   0  0  0  0  0  0  0  0  0  0  0  0
  -27.0923  -29.4188   21.7725 N   0  0  0  0  0  0  0  0  0  0  0  0
  -31.1432  -13.2318   24.2867 N   0  0  0  0  0  0  0  0  0  0  0  0
  -27.2789  -13.9747   23.1412 N   0  0  0  0  0  0  0  0  0  0  0  0
  -23.8561  -11.3114   24.4011 N   0  0  0  0  0  0  0  0  0  0  0  0
  -30.2247  -30.5684   20.5089 N   0  0  0  0  0  0  0  0  0  0  0  0
  -24.3061  -30.5340   23.3384 N   0  0  0  0  0  0  0  0  0  0  0  0
  -21.2061  -28.9924   22.2988 N   0  3  0  0  0  0  0  0  0  0  0  0
  -25.2192  -13.0314   25.0660 O   0  0  0  0  0  0  0  0  0  0  0  0
  -32.5389  -13.9568   19.4033 O   0  0  0  0  0  0  0  0  0  0  0  0
  -29.6811  -29.0632   22.2005 O   0  0  0  0  0  0  0  0  0  0  0  0
  -26.4885  -31.6687   21.8692 O   0  0  0  0  0  0  0  0  0  0  0  0
  -23.5963  -28.3465   23.6352 O   0  0  0  0  0  0  0  0  0  0  0  0
  -21.4866   -7.3168   21.3247 O   0  0  0  0  0  0  0  0  0  0  0  0
  -27.6931  -23.2804   21.6595 O   0  0  0  0  0  0  0  0  0  1  0  0
  -31.2381  -18.3022   22.1160 O   0  0  0  0  0  0  0  0  0  0  0  0
  -20.8859   -3.8518   25.5717 F   0  0  0  0  0  0  0  0  0  0  0  0
  -21.8834   -4.5996   21.0054 F   0  0  0  0  0  0  0  0  0  0  0  0
  1  2  1  0  0  0  0
  1  5  2  0  0  0  0
  2  6  2  0  0  0  0
  3  8  2  0  0  0  0
  3 17  1  0  0  0  0
  4  9  1  0  0  0  0
  4 17  2  0  0  0  0
  5 20  1  0  0  0  0
  6 22  1  0  0  0  0
  7 10  2  0  0  0  0
  7 21  1  0  0  0  0
  8 24  1  0  0  0  0
  9 24  2  0  0  0  0
 10 25  1  0  0  0  0
 11 12  2  0  0  0  0
 11 26  1  0  0  0  0
 12 28  1  0  0  0  0
 13 18  1  0  0  0  0
 13 27  2  0  0  0  0
 14 23  1  0  0  0  0
 14 25  2  0  0  0  0
 15 28  2  0  0  0  0
 15 29  1  0  0  0  0
 16 27  1  0  0  0  0
 16 63  2  0  0  0  0
 17 30  1  0  0  0  0
 18 31  2  0  0  0  0
 18 33  1  0  0  0  0
 19 30  1  0  0  0  0
 19 32  2  0  0  0  0
 19 34  1  0  0  0  0
 20 22  2  0  0  0  0
 20 39  1  0  0  0  0
 21 23  2  0  0  0  0
 21 40  1  0  0  0  0
 22 48  1  0  0  0  0
 23 41  1  0  0  0  0
 24 80  1  0  0  0  0
 25 81  1  0  0  0  0
 26 29  2  0  0  0  0
 26 80  1  0  0  0  0
 27 82  1  0  0  0  0
 28 83  1  0  0  0  0
 29 84  1  0  0  0  0
 30 64  2  0  0  0  0
 31 63  1  0  0  0  0
 31 69  1  0  0  0  0
 32 66  1  0  0  0  0
 32 70  1  0  0  0  0
 33 35  1  0  0  0  0
 33 65  2  0  0  0  0
 34 71  1  0  0  0  0
 34 75  2  0  0  0  0
 35 67  1  0  0  0  0
 35 76  2  0  0  0  0
 36 49  1  0  0  0  0
 36 72  1  0  0  0  0
 36 77  2  0  0  0  0
 37 60  1  0  0  0  0
 37 68  1  0  0  0  0
 37 78  2  0  0  0  0
 38 61  1  0  0  0  0
 38 73  1  0  0  0  0
 38 79  2  0  0  0  0
 39 42  1  0  0  0  0
 40 49  1  0  0  0  0
 41 68  1  0  0  0  0
 42 44  1  0  0  0  0
 43 45  1  0  0  0  0
 43 46  1  0  0  0  0
 44 48  1  0  0  0  0
 45 50  1  0  0  0  0
 46 67  1  0  0  0  0
 47 50  1  0  0  0  0
 47 67  1  0  0  0  0
 48 72  1  0  0  0  0
 49 68  1  0  0  0  0
 50 66  1  0  0  0  0
 51 61  1  0  0  0  0
 52 62  1  0  0  0  0
 53 62  1  0  0  0  0
 54 62  1  0  0  0  0
 55 74  1  0  0  0  0
 56 57  1  0  0  0  0
 56 58  1  0  0  0  0
 57 59  1  0  0  0  0
 58 81  1  0  0  0  0
 59 82  1  0  0  0  0
 60 62  1  0  0  0  0
 60 73  1  0  0  0  0
 61 74  1  0  0  0  0
 64 66  1  0  0  0  0
M  CHG  1  74   1
M  ISO  4  33 100  35 100  58 101  81 101
M  END
> <Batch ID>
0109

> <Smiles>
CNC(C)C(=O)NC(C(=O)N1Cc2cc([101O:1][101CH2:1]CCCOc3cnc(N)c([100C:0](=N)[100C:0](=O)N4CCCC(n5nc(-c6ccc(Oc7ccc(F)cc7F)cc6)c(C(N)=O)c5N)C4)c3)ccc2CC1C(=O)NC1CCCc2ccccc21)C(C)(C)C

> <Shape>
0.287

> <Color>
0.131

> <Negative vol penalty>
0.000

$$$$

  -OEChem-04052301233D

 85 93  0     1  0  0  0  0  0999 V2000
  -21.2880  -29.6329   23.2330 C   0  0  0  0  0  0  0  0  0  0  0  0
  -22.0351  -28.6892   23.9306 C   0  0  0  0  0  0  0  0  0  0  0  0
  -22.9488   -9.9160   20.1046 C   0  0  0  0  0  0  0  0  0  0  0  0
  -23.6357  -10.1537   22.4087 C   0  0  0  0  0  0  0  0  0  0  0  0
  -21.8492  -30.2978   22.1436 C   0  0  0  0  0  0  0  0  0  0  0  0
  -23.3436  -28.4091   23.5385 C   0  0  0  0  0  0  0  0  0  0  0  0
  -28.0502  -26.9676   27.1821 C   0  0  0  0  0  0  0  0  0  0  0  0
  -22.1566   -8.8223   20.4536 C   0  0  0  0  0  0  0  0  0  0  0  0
  -22.8434   -9.0600   22.7577 C   0  0  0  0  0  0  0  0  0  0  0  0
  -28.6259  -25.7470   27.5321 C   0  0  0  0  0  0  0  0  0  0  0  0
  -23.0326   -5.6890   22.5802 C   0  0  0  0  0  0  0  0  0  0  0  0
  -23.5880   -4.7307   23.4281 C   0  0  0  0  0  0  0  0  0  0  0  0
  -30.7397  -14.9915   23.8139 C   0  0  0  0  0  0  0  0  0  0  0  0
  -30.2869  -26.0429   25.8080 C   0  0  0  0  0  0  0  0  0  0  0  0
  -31.7038  -16.6124   25.3239 C   0  0  0  0  0  0  0  0  0  0  0  0
  -21.8408   -5.1477   25.0438 C   0  0  0  0  0  0  0  0  0  0  0  0
  -23.6884  -10.5817   21.0822 C   0  0  0  0  0  0  0  0  0  0  0  0
  -30.6923  -15.9566   22.8081 C   0  0  0  0  0  0  0  0  0  0  0  0
  -24.1241  -13.0655   20.6970 C   0  0  0  0  0  0  0  0  0  0  0  0
  -23.1685  -30.0327   21.7438 C   0  0  0  0  0  0  0  0  0  0  0  0
  -28.5829  -27.7311   26.1334 C   0  0  0  0  0  0  0  0  0  0  0  0
  -23.9225  -29.0701   22.4418 C   0  0  0  0  0  0  0  0  0  0  0  0
  -29.7177  -27.2740   25.4483 C   0  0  0  0  0  0  0  0  0  0  0  0
  -31.1507  -17.2497   23.0601 C   0  0  0  0  0  0  0  0  0  0  0  0
  -22.1039   -8.3943   21.7801 C   0  0  0  0  0  0  0  0  0  0  0  0
  -29.7427  -25.2831   26.8432 C   0  0  0  0  0  0  0  0  0  0  0  0
  -21.8813   -6.3767   22.9642 C   0  0  0  0  0  0  0  0  0  0  0  0
  -31.6564  -17.5776   24.3180 C   0  0  0  0  0  0  0  0  0  0  0  0
  -22.9921   -4.4600   24.6598 C   0  0  0  0  0  0  0  0  0  0  0  0
  -31.2454  -15.3194   25.0719 C   0  0  0  0  0  0  0  0  0  0  0  0
  -21.2855   -6.1060   24.1960 C   0  0  0  0  0  0  0  0  0  0  0  0
  -24.5074  -11.7112   20.7222 C   0  0  0  0  0  0  0  0  0  0  0  0
  -25.2533  -13.7345   20.2922 C   0  0  0  0  0  0  0  0  0  0  0  0
  -30.1586  -15.5849   21.5043 C   0  0  0  0  0  0  0  0  0  0  0  0
  -22.8603  -13.6653   21.0114 C   0  0  0  0  0  0  0  0  0  0  0  0
  -30.7785  -14.5084   20.6980 C   0  0  0  0  0  0  0  0  0  0  0  0
  -27.4959  -28.7554   23.3275 C   0  0  0  0  0  0  0  0  0  0  0  0
  -30.3206  -30.3487   23.2548 C   0  0  0  0  0  0  0  0  0  0  0  0
  -33.5511  -30.5693   24.3327 C   0  0  0  0  0  0  0  0  0  0  0  0
  -23.7160  -30.7423   20.5309 C   0  0  0  0  0  0  0  0  0  0  0  0
  -27.9663  -29.0583   25.7857 C   0  0  0  0  0  0  0  0  0  0  0  0
  -30.3401  -28.0655   24.3282 C   0  0  0  0  0  0  0  0  0  0  0  0
  -25.2355  -30.6595   20.4109 C   0  0  0  0  0  0  0  0  0  0  0  0
  -29.6086  -12.0194   18.3973 C   0  0  0  0  0  0  0  0  0  0  0  0
  -25.7126  -29.2303   20.6486 C   0  0  0  0  0  0  0  0  0  0  0  0
  -28.1566  -11.8012   18.8214 C   0  0  0  0  0  0  0  0  0  0  0  0
  -30.5010  -12.3224   19.5966 C   0  0  0  0  0  0  0  0  0  0  0  0
  -28.5787  -13.2672   20.8458 C   0  0  0  0  0  0  0  0  0  0  0  0
  -25.3535  -28.7567   22.0622 C   0  0  1  0  0  0  0  0  0  0  0  0
  -28.2817  -29.5092   24.3629 C   0  0  1  0  0  0  0  0  0  0  0  0
  -27.6418  -12.9859   19.6581 C   0  0  2  0  0  0  0  0  0  0  0  0
  -31.1030  -18.2912   21.9874 C   0  0  0  0  0  0  0  0  0  0  0  0
  -35.6249  -31.9576   24.0701 C   0  0  0  0  0  0  0  0  0  0  0  0
  -30.8279  -29.0712   20.5307 C   0  0  0  0  0  0  0  0  0  0  0  0
  -33.2384  -29.7081   20.7586 C   0  0  0  0  0  0  0  0  0  0  0  0
  -31.4831  -31.4793   20.6918 C   0  0  0  0  0  0  0  0  0  0  0  0
  -33.5802  -31.2783   27.2059 C   0  0  0  0  0  0  0  0  0  0  0  0
  -30.8395  -21.8654   26.4147 C   0  0  0  0  0  0  0  0  0  0  0  0
  -31.5357  -21.0426   25.3362 C   0  0  0  0  0  0  0  0  0  0  0  0
  -30.9526  -23.3594   26.1420 C   0  0  0  0  0  0  0  0  0  1  0  0
  -31.4601  -19.5511   25.6304 C   0  0  0  0  0  0  0  0  0  0  0  0
  -31.7110  -30.0374   22.7561 C   0  0  1  0  0  0  0  0  0  0  0  0
  -34.3541  -31.7374   24.8759 C   0  0  2  0  0  0  0  0  0  0  0  0
  -31.8024  -30.0579   21.2041 C   0  0  0  0  0  0  0  0  0  0  0  0
  -25.7806  -11.5289   20.3620 N   0  0  0  0  0  0  0  0  0  0  0  0
  -29.1184  -16.1607   20.9680 N   0  0  0  0  0  0  0  0  0  0  0  0
  -26.2071  -12.7774   20.1066 N   0  0  0  0  0  0  0  0  0  0  0  0
  -29.9648  -13.4275   20.3886 N   0  0  0  0  0  0  0  0  0  0  0  0
  -29.6971  -29.3539   24.0214 N   0  0  0  0  0  0  0  0  0  0  0  0
  -25.5135  -15.0421   20.0805 N   0  0  0  0  0  0  0  0  0  0  0  0
  -21.8063  -12.8322   21.4107 N   0  0  0  0  0  0  0  0  0  0  0  0
  -26.2695  -29.3189   23.0315 N   0  0  0  0  0  0  0  0  0  0  0  0
  -32.6036  -30.9815   23.4197 N   0  0  0  0  0  0  0  0  0  0  0  0
  -34.7348  -31.4888   26.2952 N   0  3  0  0  0  0  0  0  0  0  0  0
  -22.6666  -14.9016   20.9244 O   0  0  0  0  0  0  0  0  0  0  0  0
  -31.9493  -14.6882   20.3893 O   0  0  0  0  0  0  0  0  0  0  0  0
  -27.9681  -27.7386   22.8327 O   0  0  0  0  0  0  0  0  0  0  0  0
  -29.8093  -31.4372   22.9804 O   0  0  0  0  0  0  0  0  0  0  0  0
  -33.7473  -29.4069   24.6805 O   0  0  0  0  0  0  0  0  0  0  0  0
  -21.3307   -7.3273   22.1211 O   0  0  0  0  0  0  0  0  0  0  0  0
  -30.3062  -24.0918   27.1823 O   0  0  0  0  0  0  0  0  0  1  0  0
  -32.1115  -18.8427   24.5850 O   0  0  0  0  0  0  0  0  0  0  0  0
  -23.5247   -3.5387   25.4732 F   0  0  0  0  0  0  0  0  0  0  0  0
  -31.2911  -14.3924   26.0378 F   0  0  0  0  0  0  0  0  0  0  0  0
  -20.1787   -6.7626   24.5699 F   0  0  0  0  0  0  0  0  0  0  0  0
  1  2  1  0  0  0  0
  1  5  2  0  0  0  0
  2  6  2  0  0  0  0
  3  8  2  0  0  0  0
  3 17  1  0  0  0  0
  4  9  1  0  0  0  0
  4 17  2  0  0  0  0
  5 20  1  0  0  0  0
  6 22  1  0  0  0  0
  7 10  2  0  0  0  0
  7 21  1  0  0  0  0
  8 25  1  0  0  0  0
  9 25  2  0  0  0  0
 10 26  1  0  0  0  0
 11 12  2  0  0  0  0
 11 27  1  0  0  0  0
 12 29  1  0  0  0  0
 13 18  2  0  0  0  0
 13 30  1  0  0  0  0
 14 23  1  0  0  0  0
 14 26  2  0  0  0  0
 15 28  1  0  0  0  0
 15 30  2  0  0  0  0
 16 29  2  0  0  0  0
 16 31  1  0  0  0  0
 17 32  1  0  0  0  0
 18 24  1  0  0  0  0
 18 34  1  0  0  0  0
 19 32  1  0  0  0  0
 19 33  2  0  0  0  0
 19 35  1  0  0  0  0
 20 22  2  0  0  0  0
 20 40  1  0  0  0  0
 21 23  2  0  0  0  0
 21 41  1  0  0  0  0
 22 49  1  0  0  0  0
 23 42  1  0  0  0  0
 24 28  2  0  0  0  0
 24 52  1  0  0  0  0
 25 80  1  0  0  0  0
 26 81  1  0  0  0  0
 27 31  2  0  0  0  0
 27 80  1  0  0  0  0
 28 82  1  0  0  0  0
 29 83  1  0  0  0  0
 30 84  1  0  0  0  0
 31 85  1  0  0  0  0
 32 65  2  0  0  0  0
 33 67  1  0  0  0  0
 33 70  1  0  0  0  0
 34 36  1  0  0  0  0
 34 66  2  0  0  0  0
 35 71  1  0  0  0  0
 35 75  2  0  0  0  0
 36 68  1  0  0  0  0
 36 76  2  0  0  0  0
 37 50  1  0  0  0  0
 37 72  1  0  0  0  0
 37 77  2  0  0  0  0
 38 62  1  0  0  0  0
 38 69  1  0  0  0  0
 38 78  2  0  0  0  0
 39 63  1  0  0  0  0
 39 73  1  0  0  0  0
 39 79  2  0  0  0  0
 40 43  1  0  0  0  0
 41 50  1  0  0  0  0
 42 69  1  0  0  0  0
 43 45  1  0  0  0  0
 44 46  1  0  0  0  0
 44 47  1  0  0  0  0
 45 49  1  0  0  0  0
 46 51  1  0  0  0  0
 47 68  1  0  0  0  0
 48 51  1  0  0  0  0
 48 68  1  0  0  0  0
 49 72  1  0  0  0  0
 50 69  1  0  0  0  0
 51 67  1  0  0  0  0
 53 63  1  0  0  0  0
 54 64  1  0  0  0  0
 55 64  1  0  0  0  0
 56 64  1  0  0  0  0
 57 74  1  0  0  0  0
 58 59  1  0  0  0  0
 58 60  1  0  0  0  0
 59 61  1  0  0  0  0
 60 81  1  0  0  0  0
 61 82  1  0  0  0  0
 62 64  1  0  0  0  0
 62 73  1  0  0  0  0
 63 74  1  0  0  0  0
 65 67  1  0  0  0  0
M  CHG  1  74   1
M  ISO  4  34 100  36 100  60 101  81 101
M  END
> <Batch ID>
0109

> <Smiles>
CNC(C)C(=O)NC(C(=O)N1Cc2cc([101O:1][101CH2:1]CCCOc3cc(F)cc([100C:0](=N)[100C:0](=O)N4CCCC(n5nc(-c6ccc(Oc7ccc(F)cc7F)cc6)c(C(N)=O)c5N)C4)c3C)ccc2CC1C(=O)NC1CCCc2ccccc21)C(C)(C)C

> <Shape>
0.248

> <Color>
0.202

> <Negative vol penalty>
0.000

$$$$

  -OEChem-04052301233D

 87 96  0     1  0  0  0  0  0999 V2000
  -31.3485  -32.6651   13.9160 C   0  0  0  0  0  0  0  0  0  0  0  0
  -31.3138  -31.7456   14.9594 C   0  0  0  0  0  0  0  0  0  0  0  0
  -22.6122  -10.4269   20.2695 C   0  0  0  0  0  0  0  0  0  0  0  0
  -24.2133   -9.6477   21.9023 C   0  0  0  0  0  0  0  0  0  0  0  0
  -30.1623  -33.2198   13.4375 C   0  0  0  0  0  0  0  0  0  0  0  0
  -30.0928  -31.3810   15.5256 C   0  0  0  0  0  0  0  0  0  0  0  0
  -29.6980  -26.3832   16.2407 C   0  0  0  0  0  0  0  0  0  0  0  0
  -31.6988  -18.8684   20.6214 C   0  0  0  0  0  0  0  0  0  0  0  0
  -31.4527  -17.4955   20.6049 C   0  0  0  0  0  0  0  0  0  0  0  0
  -21.8206   -9.3039   20.5098 C   0  0  0  0  0  0  0  0  0  0  0  0
  -23.4216   -8.5247   22.1427 C   0  0  0  0  0  0  0  0  0  0  0  0
  -30.3615  -25.8431   17.3415 C   0  0  0  0  0  0  0  0  0  0  0  0
  -19.6083   -8.2700   22.8485 C   0  0  0  0  0  0  0  0  0  0  0  0
  -18.2352   -8.4648   22.9979 C   0  0  0  0  0  0  0  0  0  0  0  0
  -28.2851  -25.8095   18.5690 C   0  0  0  0  0  0  0  0  0  0  0  0
  -30.1146  -19.1306   22.4266 C   0  0  0  0  0  0  0  0  0  0  0  0
  -17.8244   -7.0194   21.1060 C   0  0  0  0  0  0  0  0  0  0  0  0
  -23.8086  -10.5988   20.9657 C   0  0  0  0  0  0  0  0  0  0  0  0
  -24.2638  -13.1077   20.8880 C   0  0  0  0  0  0  0  0  0  0  0  0
  -28.9253  -32.8546   13.9917 C   0  0  0  0  0  0  0  0  0  0  0  0
  -28.3228  -26.6511   16.2996 C   0  0  0  0  0  0  0  0  0  0  0  0
  -28.8890  -31.9324   15.0550 C   0  0  0  0  0  0  0  0  0  0  0  0
  -27.6060  -26.3506   17.4666 C   0  0  0  0  0  0  0  0  0  0  0  0
  -29.8684  -17.7577   22.4100 C   0  0  0  0  0  0  0  0  0  0  0  0
  -31.0297  -19.6859   21.5324 C   0  0  0  0  0  0  0  0  0  0  0  0
  -30.5375  -16.9402   21.4991 C   0  0  0  0  0  0  0  0  0  0  0  0
  -22.2252   -8.3528   21.4464 C   0  0  0  0  0  0  0  0  0  0  0  0
  -29.6556  -25.5589   18.5069 C   0  0  0  0  0  0  0  0  0  0  0  0
  -20.0894   -7.4500   21.8278 C   0  0  0  0  0  0  0  0  0  0  0  0
  -17.3432   -7.8395   22.1267 C   0  0  0  0  0  0  0  0  0  0  0  0
  -19.1975   -6.8247   20.9566 C   0  0  0  0  0  0  0  0  0  0  0  0
  -24.6271  -11.7583   20.7175 C   0  0  0  0  0  0  0  0  0  0  0  0
  -25.3830  -13.8138   20.5203 C   0  0  0  0  0  0  0  0  0  0  0  0
  -31.6031  -23.2005   20.4222 C   0  0  0  0  0  0  0  0  0  0  0  0
  -31.0695  -21.9555   20.4663 C   0  0  0  0  0  0  0  0  0  0  0  0
  -32.4916  -23.6297   21.5541 C   0  0  0  0  0  0  0  0  0  0  0  0
  -23.0252  -13.6723   21.3384 C   0  0  0  0  0  0  0  0  0  0  0  0
  -26.5354  -29.2691   16.0651 C   0  0  0  0  0  0  0  0  0  0  0  0
  -24.0913  -27.1394   16.1809 C   0  0  0  0  0  0  0  0  0  0  0  0
  -23.2900  -24.1487   18.0332 C   0  0  0  0  0  0  0  0  0  0  0  0
  -30.8935  -14.6061   20.6207 C   0  0  0  0  0  0  0  0  0  0  0  0
  -27.6735  -33.5167   13.4728 C   0  0  0  0  0  0  0  0  0  0  0  0
  -27.6166  -27.2089   15.0943 C   0  0  0  0  0  0  0  0  0  0  0  0
  -26.1246  -26.6006   17.5740 C   0  0  0  0  0  0  0  0  0  0  0  0
  -32.8573  -22.6133   22.6088 C   0  0  0  0  0  0  0  0  0  0  0  0
  -26.3904  -32.7951   13.8770 C   0  0  0  0  0  0  0  0  0  0  0  0
  -29.6312  -12.2928   18.2264 C   0  0  0  0  0  0  0  0  0  0  0  0
  -26.4209  -32.4429   15.3609 C   0  0  0  0  0  0  0  0  0  0  0  0
  -28.1869  -12.0585   18.6751 C   0  0  0  0  0  0  0  0  0  0  0  0
  -31.7383  -21.6127   22.8386 C   0  0  0  0  0  0  0  0  0  0  0  0
  -30.5753  -12.4559   19.4163 C   0  0  0  0  0  0  0  0  0  0  0  0
  -28.7263  -13.2388   20.8437 C   0  0  0  0  0  0  0  0  0  0  0  0
  -27.5820  -31.4931   15.6787 C   0  0  1  0  0  0  0  0  0  0  0  0
  -26.3125  -27.9202   15.4419 C   0  0  1  0  0  0  0  0  0  0  0  0
  -27.7275  -13.1334   19.6797 C   0  0  2  0  0  0  0  0  0  0  0  0
  -28.8840  -17.1898   23.3803 C   0  0  0  0  0  0  0  0  0  0  0  0
  -30.1164  -21.5026   19.3771 C   0  0  0  0  0  0  0  0  0  0  0  0
  -21.8405  -22.1925   17.4255 C   0  0  0  0  0  0  0  0  0  0  0  0
  -21.9043  -28.6715   17.6573 C   0  0  0  0  0  0  0  0  0  0  0  0
  -21.0806  -26.4868   18.5609 C   0  0  0  0  0  0  0  0  0  0  0  0
  -21.0689  -26.9010   16.1010 C   0  0  0  0  0  0  0  0  0  0  0  0
  -25.4844  -22.2234   18.5197 C   0  0  0  0  0  0  0  0  0  0  0  0
  -31.4362  -24.2085   19.3205 C   0  0  0  0  0  0  0  0  0  1  0  0
  -23.2704  -26.5130   17.2821 C   0  0  1  0  0  0  0  0  0  0  0  0
  -23.2619  -22.7285   17.4980 C   0  0  2  0  0  0  0  0  0  0  0  0
  -21.8579  -27.1513   17.4047 C   0  0  0  0  0  0  0  0  0  0  0  0
  -25.8793  -11.6134   20.2758 N   0  0  0  0  0  0  0  0  0  0  0  0
  -26.3124  -12.8808   20.1654 N   0  0  0  0  0  0  0  0  0  0  0  0
  -31.2807  -21.0823   21.5495 N   0  0  0  0  0  0  0  0  0  0  0  0
  -25.4804  -27.1528   16.3708 N   0  0  0  0  0  0  0  0  0  0  0  0
  -30.0785  -13.4935   20.3226 N   0  0  0  0  0  0  0  0  0  0  0  0
  -25.6530  -15.1355   20.4690 N   0  0  0  0  0  0  0  0  0  0  0  0
  -22.8539  -13.8979   22.7111 N   0  0  0  0  0  0  0  0  0  0  0  0
  -30.3026  -15.5432   21.4676 N   0  0  0  0  0  0  0  0  0  0  0  0
  -27.2559  -30.1427   15.2731 N   0  0  0  0  0  0  0  0  0  0  0  0
  -23.2568  -25.0787   17.0157 N   0  0  0  0  0  0  0  0  0  0  0  0
  -24.0596  -21.8276   18.3772 N   0  3  0  0  0  0  0  0  0  0  0  0
  -32.9574  -24.7682   21.5934 O   0  0  0  0  0  0  0  0  0  0  0  0
  -22.0917  -13.9529   20.5489 O   0  0  0  0  0  0  0  0  0  0  0  0
  -26.0856  -29.5007   17.1812 O   0  0  0  0  0  0  0  0  0  0  0  0
  -23.5216  -27.5935   15.1854 O   0  0  0  0  0  0  0  0  0  0  0  0
  -23.3332  -24.4073   19.2339 O   0  0  0  0  0  0  0  0  0  0  0  0
  -32.0213  -14.7325   20.1370 O   0  0  0  0  0  0  0  0  0  0  0  0
  -21.4529   -7.2570   21.6813 O   0  0  0  0  0  0  0  0  0  0  0  0
  -30.3010  -25.0323   19.5830 O   0  0  0  0  0  0  0  0  0  1  0  0
  -16.0246   -8.0254   22.2712 F   0  0  0  0  0  0  0  0  0  0  0  0
  -19.6537   -6.0348   19.9749 F   0  0  0  0  0  0  0  0  0  0  0  0
  1  2  1  0  0  0  0
  1  5  2  0  0  0  0
  2  6  2  0  0  0  0
  3 10  2  0  0  0  0
  3 18  1  0  0  0  0
  4 11  1  0  0  0  0
  4 18  2  0  0  0  0
  5 20  1  0  0  0  0
  6 22  1  0  0  0  0
  7 12  2  0  0  0  0
  7 21  1  0  0  0  0
  8  9  2  0  0  0  0
  8 25  1  0  0  0  0
  9 26  1  0  0  0  0
 10 27  1  0  0  0  0
 11 27  2  0  0  0  0
 12 28  1  0  0  0  0
 13 14  2  0  0  0  0
 13 29  1  0  0  0  0
 14 30  1  0  0  0  0
 15 23  1  0  0  0  0
 15 28  2  0  0  0  0
 16 24  1  0  0  0  0
 16 25  2  0  0  0  0
 17 30  2  0  0  0  0
 17 31  1  0  0  0  0
 18 32  1  0  0  0  0
 19 32  1  0  0  0  0
 19 33  2  0  0  0  0
 19 37  1  0  0  0  0
 20 22  2  0  0  0  0
 20 42  1  0  0  0  0
 21 23  2  0  0  0  0
 21 43  1  0  0  0  0
 22 53  1  0  0  0  0
 23 44  1  0  0  0  0
 24 26  2  0  0  0  0
 24 56  1  0  0  0  0
 25 69  1  0  0  0  0
 26 74  1  0  0  0  0
 27 84  1  0  0  0  0
 28 85  1  0  0  0  0
 29 31  2  0  0  0  0
 29 84  1  0  0  0  0
 30 86  1  0  0  0  0
 31 87  1  0  0  0  0
 32 67  2  0  0  0  0
 33 68  1  0  0  0  0
 33 72  1  0  0  0  0
 34 35  2  0  0  0  0
 34 36  1  0  0  0  0
 34 63  1  0  0  0  0
 35 57  1  0  0  0  0
 35 69  1  0  0  0  0
 36 45  1  0  0  0  0
 36 78  2  0  0  0  0
 37 73  1  0  0  0  0
 37 79  2  0  0  0  0
 38 54  1  0  0  0  0
 38 75  1  0  0  0  0
 38 80  2  0  0  0  0
 39 64  1  0  0  0  0
 39 70  1  0  0  0  0
 39 81  2  0  0  0  0
 40 65  1  0  0  0  0
 40 76  1  0  0  0  0
 40 82  2  0  0  0  0
 41 71  1  0  0  0  0
 41 74  1  0  0  0  0
 41 83  2  0  0  0  0
 42 46  1  0  0  0  0
 43 54  1  0  0  0  0
 44 70  1  0  0  0  0
 45 50  1  0  0  0  0
 46 48  1  0  0  0  0
 47 49  1  0  0  0  0
 47 51  1  0  0  0  0
 48 53  1  0  0  0  0
 49 55  1  0  0  0  0
 50 69  1  0  0  0  0
 51 71  1  0  0  0  0
 52 55  1  0  0  0  0
 52 71  1  0  0  0  0
 53 75  1  0  0  0  0
 54 70  1  0  0  0  0
 55 68  1  0  0  0  0
 58 65  1  0  0  0  0
 59 66  1  0  0  0  0
 60 66  1  0  0  0  0
 61 66  1  0  0  0  0
 62 77  1  0  0  0  0
 63 85  1  0  0  0  0
 64 66  1  0  0  0  0
 64 76  1  0  0  0  0
 65 77  1  0  0  0  0
 67 68  1  0  0  0  0
M  CHG  1  77   1
M  ISO  4  41 100  63 101  74 100  85 101
M  END
> <Batch ID>
0109

> <Smiles>
CNC(C)C(=O)NC(C(=O)N1Cc2cc([101O:1][101CH2:1]C3=C(C)N(c4ccc([100NH:0][100C:0](=O)N5CCCC(n6nc(-c7ccc(Oc8ccc(F)cc8F)cc7)c(C(N)=O)c6N)C5)c(C)c4)CCC3=O)ccc2CC1C(=O)NC1CCCc2ccccc21)C(C)(C)C

> <Shape>
0.192

> <Color>
0.187

> <Negative vol penalty>
0.000

$$$$

  -OEChem-04052301233D

 89 98  0     1  0  0  0  0  0999 V2000
  -34.4904  -24.6292   20.2419 C   0  0  0  0  0  0  0  0  0  0  0  0
  -33.7403  -25.4166   19.3758 C   0  0  0  0  0  0  0  0  0  0  0  0
  -27.4035  -15.1379   19.5291 C   0  0  0  0  0  0  0  0  0  0  0  0
  -27.1020  -16.9803   21.0626 C   0  0  0  0  0  0  0  0  0  0  0  0
  -33.9151  -24.1494   21.4166 C   0  0  0  0  0  0  0  0  0  0  0  0
  -32.4184  -25.7342   19.6897 C   0  0  0  0  0  0  0  0  0  0  0  0
  -25.2060  -28.9498   18.7599 C   0  0  0  0  0  0  0  0  0  0  0  0
  -18.9719  -22.2832   23.1884 C   0  0  0  0  0  0  0  0  0  0  0  0
  -19.2948  -23.6399   23.1631 C   0  0  0  0  0  0  0  0  0  0  0  0
  -28.7225  -15.5355   19.3108 C   0  0  0  0  0  0  0  0  0  0  0  0
  -28.4211  -17.3778   20.8444 C   0  0  0  0  0  0  0  0  0  0  0  0
  -23.8836  -28.8599   19.1924 C   0  0  0  0  0  0  0  0  0  0  0  0
  -30.1598  -19.0486   18.4745 C   0  0  0  0  0  0  0  0  0  0  0  0
  -30.4012  -20.4063   18.2648 C   0  0  0  0  0  0  0  0  0  0  0  0
  -24.6185  -29.1231   21.4749 C   0  0  0  0  0  0  0  0  0  0  0  0
  -18.0028  -23.9098   21.1395 C   0  0  0  0  0  0  0  0  0  0  0  0
  -31.8402  -20.4500   20.2050 C   0  0  0  0  0  0  0  0  0  0  0  0
  -26.5932  -15.8603   20.4050 C   0  0  0  0  0  0  0  0  0  0  0  0
  -24.7875  -14.2162   21.1427 C   0  0  0  0  0  0  0  0  0  0  0  0
  -32.5816  -24.4515   21.7383 C   0  0  0  0  0  0  0  0  0  0  0  0
  -26.2474  -29.1163   19.6842 C   0  0  0  0  0  0  0  0  0  0  0  0
  -31.8272  -25.2794   20.8823 C   0  0  0  0  0  0  0  0  0  0  0  0
  -25.9530  -29.2173   21.0514 C   0  0  0  0  0  0  0  0  0  0  0  0
  -18.1645  -21.7397   22.1891 C   0  0  0  0  0  0  0  0  0  0  0  0
  -17.6799  -22.5530   21.1648 C   0  0  0  0  0  0  0  0  0  0  0  0
  -18.8102  -24.4532   22.1388 C   0  0  0  0  0  0  0  0  0  0  0  0
  -29.2314  -16.6554   19.9684 C   0  0  0  0  0  0  0  0  0  0  0  0
  -23.5900  -28.9437   20.5502 C   0  0  0  0  0  0  0  0  0  0  0  0
  -30.7585  -18.3916   19.5495 C   0  0  0  0  0  0  0  0  0  0  0  0
  -31.2414  -21.1070   19.1301 C   0  0  0  0  0  0  0  0  0  0  0  0
  -31.5988  -19.0923   20.4147 C   0  0  0  0  0  0  0  0  0  0  0  0
  -25.2304  -15.4505   20.6305 C   0  0  0  0  0  0  0  0  0  0  0  0
  -23.4184  -14.3240   21.1623 C   0  0  0  0  0  0  0  0  0  0  0  0
  -20.7278  -27.6471   22.3252 C   0  0  0  0  0  0  0  0  0  0  0  0
  -20.4436  -26.3535   22.0381 C   0  0  0  0  0  0  0  0  0  0  0  0
  -19.6065  -28.5316   22.7891 C   0  0  0  0  0  0  0  0  0  0  0  0
  -25.5459  -13.0745   21.5632 C   0  0  0  0  0  0  0  0  0  0  0  0
  -28.7979  -27.4137   20.5206 C   0  0  0  0  0  0  0  0  0  0  0  0
  -29.4689  -30.0277   22.3202 C   0  0  0  0  0  0  0  0  0  0  0  0
  -27.6364  -32.3240   24.4146 C   0  0  0  0  0  0  0  0  0  0  0  0
  -19.8468  -19.0093   21.5457 C   0  0  0  0  0  0  0  0  0  0  0  0
  -32.0115  -23.9123   23.0266 C   0  0  0  0  0  0  0  0  0  0  0  0
  -27.6660  -29.2383   19.1994 C   0  0  0  0  0  0  0  0  0  0  0  0
  -27.0327  -29.4165   22.0824 C   0  0  0  0  0  0  0  0  0  0  0  0
  -18.2555  -27.9085   23.0453 C   0  0  0  0  0  0  0  0  0  0  0  0
  -30.4867  -23.9298   23.0551 C   0  0  0  0  0  0  0  0  0  0  0  0
  -19.8022  -16.5172   18.9217 C   0  0  0  0  0  0  0  0  0  0  0  0
  -29.9746  -25.2992   22.6344 C   0  0  0  0  0  0  0  0  0  0  0  0
  -21.1609  -15.8428   19.1197 C   0  0  0  0  0  0  0  0  0  0  0  0
  -17.9866  -26.7427   22.1100 C   0  0  0  0  0  0  0  0  0  0  0  0
  -19.8881  -18.0191   19.1770 C   0  0  0  0  0  0  0  0  0  0  0  0
  -21.7894  -17.7136   20.7150 C   0  0  0  0  0  0  0  0  0  0  0  0
  -30.3781  -25.6125   21.1881 C   0  0  1  0  0  0  0  0  0  0  0  0
  -28.6954  -28.8917   20.2707 C   0  0  1  0  0  0  0  0  0  0  0  0
  -21.7641  -16.1903   20.4936 C   0  0  2  0  0  0  0  0  0  0  0  0
  -21.5314  -25.4406   21.5062 C   0  0  0  0  0  0  0  0  0  0  0  0
  -28.1025  -34.7170   25.0093 C   0  0  0  0  0  0  0  0  0  0  0  0
  -30.8456  -28.8471   24.7739 C   0  0  0  0  0  0  0  0  0  0  0  0
  -29.9250  -30.7477   26.1187 C   0  0  0  0  0  0  0  0  0  0  0  0
  -31.5028  -31.2003   24.2403 C   0  0  0  0  0  0  0  0  0  0  0  0
  -24.9738  -33.2000   23.4646 C   0  0  0  0  0  0  0  0  0  0  0  0
  -17.8334  -20.2843   22.2368 C   0  0  0  0  0  0  0  0  0  0  0  0
  -16.8151  -21.9931   20.0834 C   0  0  0  0  0  0  0  0  0  0  0  0
  -22.0797  -28.3009   22.2713 C   0  0  0  0  0  0  0  0  0  1  0  0
  -29.1371  -30.4732   23.7239 C   0  0  1  0  0  0  0  0  0  0  0  0
  -27.3173  -33.7763   24.1086 C   0  0  2  0  0  0  0  0  0  0  0  0
  -30.3352  -30.3000   24.6995 C   0  0  0  0  0  0  0  0  0  0  0  0
  -24.2242  -16.2813   20.3452 N   0  0  0  0  0  0  0  0  0  0  0  0
  -23.1354  -15.5677   20.6792 N   0  0  0  0  0  0  0  0  0  0  0  0
  -19.1381  -25.8334   22.1141 N   0  0  0  0  0  0  0  0  0  0  0  0
  -28.4047  -29.5235   21.5593 N   0  0  0  0  0  0  0  0  0  0  0  0
  -20.4529  -18.2814   20.5083 N   0  0  0  0  0  0  0  0  0  0  0  0
  -22.4410  -13.4753   21.5454 N   0  0  0  0  0  0  0  0  0  0  0  0
  -25.9515  -12.9982   22.9026 N   0  0  0  0  0  0  0  0  0  0  0  0
  -30.0590  -26.9929   20.8973 N   0  0  0  0  0  0  0  0  0  0  0  0
  -28.6503  -31.8441   23.6128 N   0  0  0  0  0  0  0  0  0  0  0  0
  -18.5847  -19.5192   21.2666 N   0  0  0  0  0  0  0  0  0  0  0  0
  -17.5857  -21.4940   18.9122 N   0  3  0  0  0  0  0  0  0  0  0  0
  -25.8640  -34.0401   24.3065 N   0  3  0  0  0  0  0  0  0  0  0  0
  -19.7965  -29.7275   23.0097 O   0  0  0  0  0  0  0  0  0  0  0  0
  -25.8689  -12.1572   20.7707 O   0  0  0  0  0  0  0  0  0  0  0  0
  -27.8058  -26.7075   20.3834 O   0  0  0  0  0  0  0  0  0  0  0  0
  -30.6282  -30.1302   21.9114 O   0  0  0  0  0  0  0  0  0  0  0  0
  -27.0478  -31.6809   25.2809 O   0  0  0  0  0  0  0  0  0  0  0  0
  -20.3882  -19.1872   22.6422 O   0  0  0  0  0  0  0  0  0  0  0  0
  -30.5185  -17.0435   19.7558 O   0  0  0  0  0  0  0  0  0  0  0  0
  -22.3001  -28.8556   20.9751 O   0  0  0  0  0  0  0  0  0  1  0  0
  -31.4744  -22.4105   18.9277 F   0  0  0  0  0  0  0  0  0  0  0  0
  -32.1778  -18.4663   21.4484 F   0  0  0  0  0  0  0  0  0  0  0  0
  1  2  1  0  0  0  0
  1  5  2  0  0  0  0
  2  6  2  0  0  0  0
  3 10  2  0  0  0  0
  3 18  1  0  0  0  0
  4 11  1  0  0  0  0
  4 18  2  0  0  0  0
  5 20  1  0  0  0  0
  6 22  1  0  0  0  0
  7 12  2  0  0  0  0
  7 21  1  0  0  0  0
  8  9  2  0  0  0  0
  8 24  1  0  0  0  0
  9 26  1  0  0  0  0
 10 27  1  0  0  0  0
 11 27  2  0  0  0  0
 12 28  1  0  0  0  0
 13 14  2  0  0  0  0
 13 29  1  0  0  0  0
 14 30  1  0  0  0  0
 15 23  1  0  0  0  0
 15 28  2  0  0  0  0
 16 25  1  0  0  0  0
 16 26  2  0  0  0  0
 17 30  2  0  0  0  0
 17 31  1  0  0  0  0
 18 32  1  0  0  0  0
 19 32  1  0  0  0  0
 19 33  2  0  0  0  0
 19 37  1  0  0  0  0
 20 22  2  0  0  0  0
 20 42  1  0  0  0  0
 21 23  2  0  0  0  0
 21 43  1  0  0  0  0
 22 53  1  0  0  0  0
 23 44  1  0  0  0  0
 24 25  2  0  0  0  0
 24 62  1  0  0  0  0
 25 63  1  0  0  0  0
 26 70  1  0  0  0  0
 27 86  1  0  0  0  0
 28 87  1  0  0  0  0
 29 31  2  0  0  0  0
 29 86  1  0  0  0  0
 30 88  1  0  0  0  0
 31 89  1  0  0  0  0
 32 68  2  0  0  0  0
 33 69  1  0  0  0  0
 33 73  1  0  0  0  0
 34 35  2  0  0  0  0
 34 36  1  0  0  0  0
 34 64  1  0  0  0  0
 35 56  1  0  0  0  0
 35 70  1  0  0  0  0
 36 45  1  0  0  0  0
 36 80  2  0  0  0  0
 37 74  1  0  0  0  0
 37 81  2  0  0  0  0
 38 54  1  0  0  0  0
 38 75  1  0  0  0  0
 38 82  2  0  0  0  0
 39 65  1  0  0  0  0
 39 71  1  0  0  0  0
 39 83  2  0  0  0  0
 40 66  1  0  0  0  0
 40 76  1  0  0  0  0
 40 84  2  0  0  0  0
 41 72  1  0  0  0  0
 41 77  1  0  0  0  0
 41 85  2  0  0  0  0
 42 46  1  0  0  0  0
 43 54  1  0  0  0  0
 44 71  1  0  0  0  0
 45 50  1  0  0  0  0
 46 48  1  0  0  0  0
 47 49  1  0  0  0  0
 47 51  1  0  0  0  0
 48 53  1  0  0  0  0
 49 55  1  0  0  0  0
 50 70  1  0  0  0  0
 51 72  1  0  0  0  0
 52 55  1  0  0  0  0
 52 72  1  0  0  0  0
 53 75  1  0  0  0  0
 54 71  1  0  0  0  0
 55 69  1  0  0  0  0
 57 66  1  0  0  0  0
 58 67  1  0  0  0  0
 59 67  1  0  0  0  0
 60 67  1  0  0  0  0
 61 79  1  0  0  0  0
 62 77  1  0  0  0  0
 63 78  1  0  0  0  0
 64 87  1  0  0  0  0
 65 67  1  0  0  0  0
 65 76  1  0  0  0  0
 66 79  1  0  0  0  0
 68 69  1  0  0  0  0
M  CHG  2  78   1  79   1
M  ISO  4  41 100  64 101  77 100  87 101
M  END
> <Batch ID>
0109

> <Smiles>
CNC(C)C(=O)NC(C(=O)N1Cc2cc([101O:1][101CH2:1]C3=C(C)N(c4ccc(C[100NH:0][100C:0](=O)N5CCCC(n6nc(-c7ccc(Oc8ccc(F)cc8F)cc7)c(C(N)=O)c6N)C5)c(CN)c4)CCC3=O)ccc2CC1C(=O)NC1CCCc2ccccc21)C(C)(C)C

> <Shape>
0.232

> <Color>
0.088

> <Negative vol penalty>
0.000

$$$$

  -OEChem-04052301233D

 90 99  0     1  0  0  0  0  0999 V2000
  -24.1674  -31.0184   20.0347 C   0  0  0  0  0  0  0  0  0  0  0  0
  -24.6871  -29.7753   19.6880 C   0  0  0  0  0  0  0  0  0  0  0  0
  -22.7183  -10.0021   20.0941 C   0  0  0  0  0  0  0  0  0  0  0  0
  -24.4003   -9.2617   21.6625 C   0  0  0  0  0  0  0  0  0  0  0  0
  -24.5437  -31.6199   21.2349 C   0  0  0  0  0  0  0  0  0  0  0  0
  -25.5844  -29.1336   20.5409 C   0  0  0  0  0  0  0  0  0  0  0  0
  -27.5402  -22.5832   22.6819 C   0  0  0  0  0  0  0  0  0  0  0  0
  -22.0417   -8.7923   20.2485 C   0  0  0  0  0  0  0  0  0  0  0  0
  -23.7236   -8.0518   21.8170 C   0  0  0  0  0  0  0  0  0  0  0  0
  -28.6779  -21.7884   22.8145 C   0  0  0  0  0  0  0  0  0  0  0  0
  -21.0195   -6.9083   23.4905 C   0  0  0  0  0  0  0  0  0  0  0  0
  -20.8509   -6.4227   24.7871 C   0  0  0  0  0  0  0  0  0  0  0  0
  -31.8445  -16.6462   22.7813 C   0  0  0  0  0  0  0  0  0  0  0  0
  -29.1950  -22.8868   24.8990 C   0  0  0  0  0  0  0  0  0  0  0  0
  -30.2247  -18.1523   24.4814 C   0  0  0  0  0  0  0  0  0  0  0  0
  -22.0775   -4.4261   24.1989 C   0  0  0  0  0  0  0  0  0  0  0  0
  -23.8977  -10.2369   20.8010 C   0  0  0  0  0  0  0  0  0  0  0  0
  -32.4228  -17.4668   23.7497 C   0  0  0  0  0  0  0  0  0  0  0  0
  -24.1058  -12.7769   20.9140 C   0  0  0  0  0  0  0  0  0  0  0  0
  -25.4387  -30.9808   22.1074 C   0  0  0  0  0  0  0  0  0  0  0  0
  -27.2267  -23.5450   23.6531 C   0  0  0  0  0  0  0  0  0  0  0  0
  -25.9741  -29.7277   21.7533 C   0  0  0  0  0  0  0  0  0  0  0  0
  -28.0514  -23.6909   24.7777 C   0  0  0  0  0  0  0  0  0  0  0  0
  -31.6129  -18.2199   24.5998 C   0  0  0  0  0  0  0  0  0  0  0  0
  -30.4563  -16.5787   22.6629 C   0  0  0  0  0  0  0  0  0  0  0  0
  -22.5443   -7.8171   21.1100 C   0  0  0  0  0  0  0  0  0  0  0  0
  -29.5071  -21.9421   23.9217 C   0  0  0  0  0  0  0  0  0  0  0  0
  -21.7169   -6.1527   22.5479 C   0  0  0  0  0  0  0  0  0  0  0  0
  -29.6464  -17.3317   23.5130 C   0  0  0  0  0  0  0  0  0  0  0  0
  -21.3800   -5.1817   25.1414 C   0  0  0  0  0  0  0  0  0  0  0  0
  -22.2460   -4.9116   22.9022 C   0  0  0  0  0  0  0  0  0  0  0  0
  -24.5975  -11.4862   20.6414 C   0  0  0  0  0  0  0  0  0  0  0  0
  -25.1481  -13.6147   20.6008 C   0  0  0  0  0  0  0  0  0  0  0  0
  -33.4457  -20.6557   27.5377 C   0  0  0  0  0  0  0  0  0  0  0  0
  -33.8762  -17.5157   23.8479 C   0  0  0  0  0  0  0  0  0  0  0  0
  -22.8217  -13.1822   21.4065 C   0  0  0  0  0  0  0  0  0  0  0  0
  -26.9244  -26.7092   23.6607 C   0  0  0  0  0  0  0  0  0  0  0  0
  -25.9225  -26.2161   26.7063 C   0  0  0  0  0  0  0  0  0  0  0  0
  -25.9327  -24.2162   29.4716 C   0  0  0  0  0  0  0  0  0  0  0  0
  -30.5558  -14.9315   20.7595 C   0  0  0  0  0  0  0  0  0  0  0  0
  -25.8525  -31.6917   23.3716 C   0  0  0  0  0  0  0  0  0  0  0  0
  -25.9813  -24.3761   23.5088 C   0  0  0  0  0  0  0  0  0  0  0  0
  -27.7481  -24.6949   25.8586 C   0  0  0  0  0  0  0  0  0  0  0  0
  -32.9864  -19.2673   27.8991 C   0  0  0  0  0  0  0  0  0  0  0  0
  -33.7510  -20.8887   26.0788 C   0  0  0  0  0  0  0  0  0  0  0  0
  -26.5188  -30.7759   24.3951 C   0  0  0  0  0  0  0  0  0  0  0  0
  -29.5063  -12.6937   18.1966 C   0  0  0  0  0  0  0  0  0  0  0  0
  -27.5684  -29.8973   23.7219 C   0  0  0  0  0  0  0  0  0  0  0  0
  -28.0952  -12.2863   18.6266 C   0  0  0  0  0  0  0  0  0  0  0  0
  -31.8527  -18.8124   26.9903 C   0  0  0  0  0  0  0  0  0  0  0  0
  -30.4392  -12.8578   19.3952 C   0  0  0  0  0  0  0  0  0  0  0  0
  -28.5339  -13.3462   20.8785 C   0  0  0  0  0  0  0  0  0  0  0  0
  -26.9308  -28.9888   22.6637 C   0  0  1  0  0  0  0  0  0  0  0  0
  -26.0374  -25.6789   24.3005 C   0  0  1  0  0  0  0  0  0  0  0  0
  -27.5411  -13.2320   19.7102 C   0  0  2  0  0  0  0  0  0  0  0  0
  -32.6083  -20.4061   25.1816 C   0  0  2  0  0  0  0  0  0  0  0  0
  -34.7201  -17.9750   22.6613 C   0  0  0  0  0  0  0  0  0  0  0  0
  -25.0546  -24.0965   31.8194 C   0  0  0  0  0  0  0  0  0  0  0  0
  -28.0242  -28.2426   27.5930 C   0  0  0  0  0  0  0  0  0  0  0  0
  -27.7610  -27.3878   29.9315 C   0  0  0  0  0  0  0  0  0  0  0  0
  -25.8238  -28.4410   28.7650 C   0  0  0  0  0  0  0  0  0  0  0  0
  -24.4099  -21.7437   28.8997 C   0  0  0  0  0  0  0  0  0  0  0  0
  -27.6178  -16.2938   24.1939 C   0  0  0  0  0  0  0  0  0  0  0  0
  -31.4233  -21.3787   25.2127 C   0  0  0  0  0  0  0  0  0  1  0  0
  -26.5971  -26.1411   28.0548 C   0  0  1  0  0  0  0  0  0  0  0  0
  -24.8071  -23.7270   30.3651 C   0  0  2  0  0  0  0  0  0  0  0  0
  -27.0586  -27.5355   28.5649 C   0  0  0  0  0  0  0  0  0  0  0  0
  -25.8543  -11.4981   20.1895 N   0  0  0  0  0  0  0  0  0  0  0  0
  -34.5055  -17.1567   24.9407 N   0  0  0  0  0  0  0  0  0  0  0  0
  -26.1612  -12.8065   20.1757 N   0  0  0  0  0  0  0  0  0  0  0  0
  -32.1735  -19.0506   25.5776 N   0  0  2  0  0  0  0  0  0  0  0  0
  -26.5225  -25.4883   25.6689 N   0  0  0  0  0  0  0  0  0  0  0  0
  -29.8508  -13.7704   20.3779 N   0  0  0  0  0  0  0  0  0  0  0  0
  -25.2877  -14.9565   20.6501 N   0  0  0  0  0  0  0  0  0  0  0  0
  -22.6398  -13.2854   22.7924 N   0  0  0  0  0  0  0  0  0  0  0  0
  -29.8831  -15.7397   21.6753 N   0  0  0  0  0  0  0  0  0  0  0  0
  -26.2668  -27.8678   23.2937 N   0  0  0  0  0  0  0  0  0  0  0  0
  -25.6607  -25.4600   28.9423 N   0  0  0  0  0  0  0  0  0  0  0  0
  -24.6786  -22.2452   30.2720 N   0  3  0  0  0  0  0  0  0  0  0  0
  -33.6571  -21.5143   28.3917 O   0  0  0  0  0  0  0  0  0  0  0  0
  -21.8592  -13.4291   20.6409 O   0  0  0  0  0  0  0  0  0  0  0  0
  -28.1173  -26.4713   23.5125 O   0  0  0  0  0  0  0  0  0  0  0  0
  -24.8969  -26.8897   26.5798 O   0  0  0  0  0  0  0  0  0  0  0  0
  -26.9528  -23.5621   29.2669 O   0  0  0  0  0  0  0  0  0  0  0  0
  -31.6623  -15.2037   20.2864 O   0  0  0  0  0  0  0  0  0  0  0  0
  -21.8841   -6.6365   21.2612 O   0  0  0  0  0  0  0  0  0  0  0  0
  -28.2880  -17.2806   23.4127 O   0  0  0  0  0  0  0  0  0  0  0  0
  -30.6185  -21.1680   24.0533 O   0  0  0  0  0  0  0  0  0  1  0  0
  -21.2194   -4.7162   26.3871 F   0  0  0  0  0  0  0  0  0  0  0  0
  -22.9181   -4.1818   22.0014 F   0  0  0  0  0  0  0  0  0  0  0  0
  1  2  1  0  0  0  0
  1  5  2  0  0  0  0
  2  6  2  0  0  0  0
  3  8  2  0  0  0  0
  3 17  1  0  0  0  0
  4  9  1  0  0  0  0
  4 17  2  0  0  0  0
  5 20  1  0  0  0  0
  6 22  1  0  0  0  0
  7 10  2  0  0  0  0
  7 21  1  0  0  0  0
  8 26  1  0  0  0  0
  9 26  2  0  0  0  0
 10 27  1  0  0  0  0
 11 12  2  0  0  0  0
 11 28  1  0  0  0  0
 12 30  1  0  0  0  0
 13 18  1  0  0  0  0
 13 25  2  0  0  0  0
 14 23  1  0  0  0  0
 14 27  2  0  0  0  0
 15 24  1  0  0  0  0
 15 29  2  0  0  0  0
 16 30  2  0  0  0  0
 16 31  1  0  0  0  0
 17 32  1  0  0  0  0
 18 24  2  0  0  0  0
 18 35  1  0  0  0  0
 19 32  1  0  0  0  0
 19 33  2  0  0  0  0
 19 36  1  0  0  0  0
 20 22  2  0  0  0  0
 20 41  1  0  0  0  0
 21 23  2  0  0  0  0
 21 42  1  0  0  0  0
 22 53  1  0  0  0  0
 23 43  1  0  0  0  0
 24 71  1  0  0  0  0
 25 29  1  0  0  0  0
 25 76  1  0  0  0  0
 26 86  1  0  0  0  0
 27 88  1  0  0  0  0
 28 31  2  0  0  0  0
 28 86  1  0  0  0  0
 29 87  1  0  0  0  0
 30 89  1  0  0  0  0
 31 90  1  0  0  0  0
 32 68  2  0  0  0  0
 33 70  1  0  0  0  0
 33 74  1  0  0  0  0
 34 44  1  0  0  0  0
 34 45  1  0  0  0  0
 34 80  2  0  0  0  0
 35 57  1  0  0  0  0
 35 69  2  0  0  0  0
 36 75  1  0  0  0  0
 36 81  2  0  0  0  0
 37 54  1  0  0  0  0
 37 77  1  0  0  0  0
 37 82  2  0  0  0  0
 38 65  1  0  0  0  0
 38 72  1  0  0  0  0
 38 83  2  0  0  0  0
 39 66  1  0  0  0  0
 39 78  1  0  0  0  0
 39 84  2  0  0  0  0
 40 73  1  0  0  0  0
 40 76  1  0  0  0  0
 40 85  2  0  0  0  0
 41 46  1  0  0  0  0
 42 54  1  0  0  0  0
 43 72  1  0  0  0  0
 44 50  1  0  0  0  0
 45 56  1  0  0  0  0
 46 48  1  0  0  0  0
 47 49  1  0  0  0  0
 47 51  1  0  0  0  0
 48 53  1  0  0  0  0
 49 55  1  0  0  0  0
 50 71  1  0  0  0  0
 51 73  1  0  0  0  0
 52 55  1  0  0  0  0
 52 73  1  0  0  0  0
 53 77  1  0  0  0  0
 54 72  1  0  0  0  0
 55 70  1  0  0  0  0
 56 64  1  0  0  0  0
 56 71  1  0  0  0  0
 58 66  1  0  0  0  0
 59 67  1  0  0  0  0
 60 67  1  0  0  0  0
 61 67  1  0  0  0  0
 62 79  1  0  0  0  0
 63 87  1  0  0  0  0
 64 88  1  0  0  0  0
 65 67  1  0  0  0  0
 65 78  1  0  0  0  0
 66 79  1  0  0  0  0
 68 70  1  0  0  0  0
M  CHG  1  79   1
M  ISO  4  40 100  64 101  76 100  88 101
M  END
> <Batch ID>
0109

> <Smiles>
CNC(C)C(=O)NC(C(=O)N1Cc2cc([101O:1][101CH2:1]C3CC(=O)CCN3c3cc(OC)c([100NH:0][100C:0](=O)N4CCCC(n5nc(-c6ccc(Oc7ccc(F)cc7F)cc6)c(C(N)=O)c5N)C4)cc3C(C)=N)ccc2CC1C(=O)NC1CCCc2ccccc21)C(C)(C)C

> <Shape>
0.245

> <Color>
0.180

> <Negative vol penalty>
0.000

$$$$

  -OEChem-04052301233D

 84 92  0     1  0  0  0  0  0999 V2000
  -25.1842  -17.9503   16.4368 C   0  0  0  0  0  0  0  0  0  0  0  0
  -25.6844  -17.5888   17.6836 C   0  0  0  0  0  0  0  0  0  0  0  0
  -23.0724   -9.8697   19.9445 C   0  0  0  0  0  0  0  0  0  0  0  0
  -23.8347   -9.8794   22.2370 C   0  0  0  0  0  0  0  0  0  0  0  0
  -24.3554  -19.0649   16.3160 C   0  0  0  0  0  0  0  0  0  0  0  0
  -25.3569  -18.3423   18.8102 C   0  0  0  0  0  0  0  0  0  0  0  0
  -24.4903  -16.2637   24.5053 C   0  0  0  0  0  0  0  0  0  0  0  0
  -22.3290   -8.7167   20.1965 C   0  0  0  0  0  0  0  0  0  0  0  0
  -23.0912   -8.7264   22.4891 C   0  0  0  0  0  0  0  0  0  0  0  0
  -25.3201  -16.2216   25.6249 C   0  0  0  0  0  0  0  0  0  0  0  0
  -22.9023   -5.3987   20.4905 C   0  0  0  0  0  0  0  0  0  0  0  0
  -22.9684   -4.3680   19.5530 C   0  0  0  0  0  0  0  0  0  0  0  0
  -24.3401  -18.2772   26.4208 C   0  0  0  0  0  0  0  0  0  0  0  0
  -29.4703  -18.4940   23.2568 C   0  0  0  0  0  0  0  0  0  0  0  0
  -30.2908  -17.2768   25.6291 C   0  0  0  0  0  0  0  0  0  0  0  0
  -20.5835   -4.5329   19.2036 C   0  0  0  0  0  0  0  0  0  0  0  0
  -23.8253  -10.4510   20.9647 C   0  0  0  0  0  0  0  0  0  0  0  0
  -24.1665  -12.9761   20.8415 C   0  0  0  0  0  0  0  0  0  0  0  0
  -24.0097  -19.8269   17.4432 C   0  0  0  0  0  0  0  0  0  0  0  0
  -23.5853  -17.3203   24.3293 C   0  0  0  0  0  0  0  0  0  0  0  0
  -24.5238  -19.4690   18.7042 C   0  0  0  0  0  0  0  0  0  0  0  0
  -23.4981  -18.3290   25.2994 C   0  0  0  0  0  0  0  0  0  0  0  0
  -30.3343  -17.3997   23.2166 C   0  0  0  0  0  0  0  0  0  0  0  0
  -30.7445  -16.7911   24.4027 C   0  0  0  0  0  0  0  0  0  0  0  0
  -29.0166  -18.9798   24.4831 C   0  0  0  0  0  0  0  0  0  0  0  0
  -22.3384   -8.1450   21.4688 C   0  0  0  0  0  0  0  0  0  0  0  0
  -25.2471  -17.2300   26.5814 C   0  0  0  0  0  0  0  0  0  0  0  0
  -21.6768   -5.9964   20.7847 C   0  0  0  0  0  0  0  0  0  0  0  0
  -29.4269  -18.3712   25.6693 C   0  0  0  0  0  0  0  0  0  0  0  0
  -21.8090   -3.9352   18.9095 C   0  0  0  0  0  0  0  0  0  0  0  0
  -20.5174   -5.5636   20.1412 C   0  0  0  0  0  0  0  0  0  0  0  0
  -24.5938  -11.6418   20.7049 C   0  0  0  0  0  0  0  0  0  0  0  0
  -25.2581  -13.7254   20.4763 C   0  0  0  0  0  0  0  0  0  0  0  0
  -22.8963  -13.4922   21.2612 C   0  0  0  0  0  0  0  0  0  0  0  0
  -23.1968  -19.6015   22.1501 C   0  0  0  0  0  0  0  0  0  0  0  0
  -20.5115  -20.2333   23.8567 C   0  0  0  0  0  0  0  0  0  0  0  0
  -18.8557  -20.0292   26.8338 C   0  0  0  0  0  0  0  0  0  0  0  0
  -30.7418  -14.7458   20.6578 C   0  0  0  0  0  0  0  0  0  0  0  0
  -23.1489  -21.0510   17.2558 C   0  0  0  0  0  0  0  0  0  0  0  0
  -22.6784  -17.3370   23.1295 C   0  0  0  0  0  0  0  0  0  0  0  0
  -22.5292  -19.4745   25.1675 C   0  0  0  0  0  0  0  0  0  0  0  0
  -22.5465  -21.5769   18.5562 C   0  0  0  0  0  0  0  0  0  0  0  0
  -29.6022  -12.3584   18.2749 C   0  0  0  0  0  0  0  0  0  0  0  0
  -23.6087  -21.6405   19.6491 C   0  0  0  0  0  0  0  0  0  0  0  0
  -28.1653  -12.0649   18.7096 C   0  0  0  0  0  0  0  0  0  0  0  0
  -30.5205  -12.5807   19.4746 C   0  0  0  0  0  0  0  0  0  0  0  0
  -28.6201  -13.3130   20.8623 C   0  0  0  0  0  0  0  0  0  0  0  0
  -24.1712  -20.2468   19.9535 C   0  0  1  0  0  0  0  0  0  0  0  0
  -22.1558  -18.7306   22.7948 C   0  0  1  0  0  0  0  0  0  0  0  0
  -27.6447  -13.1369   19.6859 C   0  0  2  0  0  0  0  0  0  0  0  0
  -31.6706  -15.6195   24.3854 C   0  0  0  0  0  0  0  0  0  0  0  0
  -16.6917  -20.6683   27.9322 C   0  0  0  0  0  0  0  0  0  0  0  0
  -21.4694  -23.1234   24.0571 C   0  0  0  0  0  0  0  0  0  0  0  0
  -19.8201  -23.4684   25.9087 C   0  0  0  0  0  0  0  0  0  0  0  0
  -19.0199  -22.8639   23.6247 C   0  0  0  0  0  0  0  0  0  0  0  0
  -18.1646  -17.2039   27.3802 C   0  0  0  0  0  0  0  0  0  0  0  0
  -30.8085  -16.8978   21.8922 C   0  0  0  0  0  0  0  0  0  0  0  0
  -27.7991  -18.3128   28.9109 C   0  0  0  0  0  0  0  0  0  0  0  0
  -26.4388  -18.4433   28.2439 C   0  0  0  0  0  0  0  0  0  1  0  0
  -28.8747  -17.8759   27.9288 C   0  0  0  0  0  0  0  0  0  0  0  0
  -20.1769  -21.1142   25.0361 C   0  0  1  0  0  0  0  0  0  0  0  0
  -17.4438  -19.5863   27.1729 C   0  0  2  0  0  0  0  0  0  0  0  0
  -20.1413  -22.6220   24.6585 C   0  0  0  0  0  0  0  0  0  0  0  0
  -25.8583  -11.5457   20.2854 N   0  0  0  0  0  0  0  0  0  0  0  0
  -26.2348  -12.8293   20.1552 N   0  0  0  0  0  0  0  0  0  0  0  0
  -21.6681  -19.4495   23.9736 N   0  0  0  0  0  0  0  0  0  0  0  0
  -29.9707  -13.6101   20.3600 N   0  0  0  0  0  0  0  0  0  0  0  0
  -28.1420  -20.0882   24.5098 N   0  0  0  0  0  0  0  0  0  0  0  0
  -25.4681  -15.0569   20.4015 N   0  0  0  0  0  0  0  0  0  0  0  0
  -21.8849  -12.5832   21.6005 N   0  0  0  0  0  0  0  0  0  0  0  0
  -23.2446  -19.4957   20.7732 N   0  0  0  0  0  0  0  0  0  0  0  0
  -18.9236  -20.6055   25.5830 N   0  0  0  0  0  0  0  0  0  0  0  0
  -30.1433  -15.6755   21.4994 N   0  0  0  0  0  0  0  0  0  0  0  0
  -17.4747  -18.3567   28.0142 N   0  3  0  0  0  0  0  0  0  0  0  0
  -22.6598  -14.7228   21.3174 O   0  0  0  0  0  0  0  0  0  0  0  0
  -23.9033  -20.3175   22.8500 O   0  0  0  0  0  0  0  0  0  0  0  0
  -19.7699  -20.2352   22.8709 O   0  0  0  0  0  0  0  0  0  0  0  0
  -19.8027  -19.8824   27.6032 O   0  0  0  0  0  0  0  0  0  0  0  0
  -31.8772  -14.9210   20.2028 O   0  0  0  0  0  0  0  0  0  0  0  0
  -21.6129   -7.0200   21.7151 O   0  0  0  0  0  0  0  0  0  0  0  0
  -26.0563  -17.1918   27.6749 O   0  0  0  0  0  0  0  0  0  1  0  0
  -28.9916  -18.8325   26.8843 O   0  0  0  0  0  0  0  0  0  0  0  0
  -21.8729   -2.9465   18.0081 F   0  0  0  0  0  0  0  0  0  0  0  0
  -19.3374   -6.1348   20.4187 F   0  0  0  0  0  0  0  0  0  0  0  0
  1  2  1  0  0  0  0
  1  5  2  0  0  0  0
  2  6  2  0  0  0  0
  3  8  2  0  0  0  0
  3 17  1  0  0  0  0
  4  9  1  0  0  0  0
  4 17  2  0  0  0  0
  5 19  1  0  0  0  0
  6 21  1  0  0  0  0
  7 10  2  0  0  0  0
  7 20  1  0  0  0  0
  8 26  1  0  0  0  0
  9 26  2  0  0  0  0
 10 27  1  0  0  0  0
 11 12  2  0  0  0  0
 11 28  1  0  0  0  0
 12 30  1  0  0  0  0
 13 22  1  0  0  0  0
 13 27  2  0  0  0  0
 14 23  2  0  0  0  0
 14 25  1  0  0  0  0
 15 24  2  0  0  0  0
 15 29  1  0  0  0  0
 16 30  2  0  0  0  0
 16 31  1  0  0  0  0
 17 32  1  0  0  0  0
 18 32  1  0  0  0  0
 18 33  2  0  0  0  0
 18 34  1  0  0  0  0
 19 21  2  0  0  0  0
 19 39  1  0  0  0  0
 20 22  2  0  0  0  0
 20 40  1  0  0  0  0
 21 48  1  0  0  0  0
 22 41  1  0  0  0  0
 23 24  1  0  0  0  0
 23 57  1  0  0  0  0
 24 51  1  0  0  0  0
 25 29  2  0  0  0  0
 25 68  1  0  0  0  0
 26 80  1  0  0  0  0
 27 81  1  0  0  0  0
 28 31  2  0  0  0  0
 28 80  1  0  0  0  0
 29 82  1  0  0  0  0
 30 83  1  0  0  0  0
 31 84  1  0  0  0  0
 32 64  2  0  0  0  0
 33 65  1  0  0  0  0
 33 69  1  0  0  0  0
 34 70  1  0  0  0  0
 34 75  2  0  0  0  0
 35 49  1  0  0  0  0
 35 71  1  0  0  0  0
 35 76  2  0  0  0  0
 36 61  1  0  0  0  0
 36 66  1  0  0  0  0
 36 77  2  0  0  0  0
 37 62  1  0  0  0  0
 37 72  1  0  0  0  0
 37 78  2  0  0  0  0
 38 67  1  0  0  0  0
 38 73  1  0  0  0  0
 38 79  2  0  0  0  0
 39 42  1  0  0  0  0
 40 49  1  0  0  0  0
 41 66  1  0  0  0  0
 42 44  1  0  0  0  0
 43 45  1  0  0  0  0
 43 46  1  0  0  0  0
 44 48  1  0  0  0  0
 45 50  1  0  0  0  0
 46 67  1  0  0  0  0
 47 50  1  0  0  0  0
 47 67  1  0  0  0  0
 48 71  1  0  0  0  0
 49 66  1  0  0  0  0
 50 65  1  0  0  0  0
 52 62  1  0  0  0  0
 53 63  1  0  0  0  0
 54 63  1  0  0  0  0
 55 63  1  0  0  0  0
 56 74  1  0  0  0  0
 57 73  1  0  0  0  0
 58 59  1  0  0  0  0
 58 60  1  0  0  0  0
 59 81  1  0  0  0  0
 60 82  1  0  0  0  0
 61 63  1  0  0  0  0
 61 72  1  0  0  0  0
 62 74  1  0  0  0  0
 64 65  1  0  0  0  0
M  CHG  1  74   1
M  ISO  4  38 100  59 101  73 100  81 101
M  END
> <Batch ID>
0109

> <Smiles>
CNC(C)C(=O)NC(C(=O)N1Cc2cc([101O:1][101CH2:1]CCOc3cc(C)c(C[100NH:0][100C:0](=O)N4CCCC(n5nc(-c6ccc(Oc7ccc(F)cc7F)cc6)c(C(N)=O)c5N)C4)cc3N)ccc2CC1C(=O)NC1CCCc2ccccc21)C(C)(C)C

> <Shape>
0.149

> <Color>
0.187

> <Negative vol penalty>
0.000

$$$$

  -OEChem-04052301233D

 87 95  0     1  0  0  0  0  0999 V2000
  -23.5927  -24.1701   28.2937 C   0  0  0  0  0  0  0  0  0  0  0  0
  -24.5584  -25.1476   28.0823 C   0  0  0  0  0  0  0  0  0  0  0  0
  -26.6385  -15.6850   21.0599 C   0  0  0  0  0  0  0  0  0  0  0  0
  -25.7789  -15.2894   18.8369 C   0  0  0  0  0  0  0  0  0  0  0  0
  -22.4801  -24.1026   27.4578 C   0  0  0  0  0  0  0  0  0  0  0  0
  -24.4061  -26.0653   27.0423 C   0  0  0  0  0  0  0  0  0  0  0  0
  -27.6661  -29.7425   26.8109 C   0  0  0  0  0  0  0  0  0  0  0  0
  -26.5371  -14.3227   21.3416 C   0  0  0  0  0  0  0  0  0  0  0  0
  -25.6775  -13.9270   19.1186 C   0  0  0  0  0  0  0  0  0  0  0  0
  -28.9910  -29.5518   26.4212 C   0  0  0  0  0  0  0  0  0  0  0  0
  -24.8532  -10.3963   19.3726 C   0  0  0  0  0  0  0  0  0  0  0  0
  -23.6825   -9.7408   18.9913 C   0  0  0  0  0  0  0  0  0  0  0  0
  -28.8057  -24.8870   20.1849 C   0  0  0  0  0  0  0  0  0  0  0  0
  -28.4831  -30.4892   24.2573 C   0  0  0  0  0  0  0  0  0  0  0  0
  -30.8796  -25.4080   21.3095 C   0  0  0  0  0  0  0  0  0  0  0  0
  -22.3946  -11.2207   20.4015 C   0  0  0  0  0  0  0  0  0  0  0  0
  -26.2593  -16.1684   19.8076 C   0  0  0  0  0  0  0  0  0  0  0  0
  -28.0922  -25.4833   21.2246 C   0  0  0  0  0  0  0  0  0  0  0  0
  -28.7723  -26.0420   22.3066 C   0  0  0  0  0  0  0  0  0  0  0  0
  -27.4703  -18.2507   18.9679 C   0  0  0  0  0  0  0  0  0  0  0  0
  -22.3210  -25.0125   26.3996 C   0  0  0  0  0  0  0  0  0  0  0  0
  -26.7356  -30.2990   25.9216 C   0  0  0  0  0  0  0  0  0  0  0  0
  -23.2782  -26.0285   26.2025 C   0  0  0  0  0  0  0  0  0  0  0  0
  -27.1476  -30.6883   24.6391 C   0  0  0  0  0  0  0  0  0  0  0  0
  -26.0566  -13.4437   20.3709 C   0  0  0  0  0  0  0  0  0  0  0  0
  -29.3990  -29.9225   25.1432 C   0  0  0  0  0  0  0  0  0  0  0  0
  -24.7947  -11.4640   20.2684 C   0  0  0  0  0  0  0  0  0  0  0  0
  -30.1995  -24.8493   20.2274 C   0  0  0  0  0  0  0  0  0  0  0  0
  -30.1660  -26.0044   22.3491 C   0  0  0  0  0  0  0  0  0  0  0  0
  -22.4532  -10.1530   19.5057 C   0  0  0  0  0  0  0  0  0  0  0  0
  -23.5654  -11.8761   20.7828 C   0  0  0  0  0  0  0  0  0  0  0  0
  -26.3633  -17.5757   19.5162 C   0  0  0  0  0  0  0  0  0  0  0  0
  -27.0684  -19.5617   18.8891 C   0  0  0  0  0  0  0  0  0  0  0  0
  -27.6511  -26.0223   24.4878 C   0  0  0  0  0  0  0  0  0  0  0  0
  -28.0343  -26.6691   23.3994 C   0  0  0  0  0  0  0  0  0  0  0  0
  -26.6093  -25.5006   21.1369 C   0  0  0  0  0  0  0  0  0  0  0  0
  -28.7476  -17.7385   18.5656 C   0  0  0  0  0  0  0  0  0  0  0  0
  -24.0377  -29.2908   24.5767 C   0  0  0  0  0  0  0  0  0  0  0  0
  -23.8972  -32.3432   23.4880 C   0  0  0  0  0  0  0  0  0  0  0  0
  -25.5610  -35.2141   22.6901 C   0  0  0  0  0  0  0  0  0  0  0  0
  -24.6119  -24.0440   21.0275 C   0  0  0  0  0  0  0  0  0  0  0  0
  -21.0936  -24.8988   25.5302 C   0  0  0  0  0  0  0  0  0  0  0  0
  -25.3163  -30.5228   26.3664 C   0  0  0  0  0  0  0  0  0  0  0  0
  -26.1923  -31.3087   23.6535 C   0  0  0  0  0  0  0  0  0  0  0  0
  -21.2405  -25.6241   24.1966 C   0  0  0  0  0  0  0  0  0  0  0  0
  -22.4968  -21.6519   19.5103 C   0  0  0  0  0  0  0  0  0  0  0  0
  -21.7510  -27.0385   24.4277 C   0  0  0  0  0  0  0  0  0  0  0  0
  -23.4054  -20.4339   19.3226 C   0  0  0  0  0  0  0  0  0  0  0  0
  -22.7865  -22.3791   20.8226 C   0  0  0  0  0  0  0  0  0  0  0  0
  -25.0956  -21.5276   20.8494 C   0  0  0  0  0  0  0  0  0  0  0  0
  -23.1490  -27.0182   25.0588 C   0  0  1  0  0  0  0  0  0  0  0  0
  -24.3344  -30.6239   25.2032 C   0  0  1  0  0  0  0  0  0  0  0  0
  -24.8910  -20.8022   19.5096 C   0  0  1  0  0  0  0  0  0  0  0  0
  -25.1816  -37.5254   21.7894 C   0  0  0  0  0  0  0  0  0  0  0  0
  -23.5831  -31.1944   20.6788 C   0  0  0  0  0  0  0  0  0  0  0  0
  -24.1606  -33.4530   19.7659 C   0  0  0  0  0  0  0  0  0  0  0  0
  -22.1199  -33.1620   21.1708 C   0  0  0  0  0  0  0  0  0  0  0  0
  -26.5884  -36.4723   25.1640 C   0  0  0  0  0  0  0  0  0  0  0  0
  -30.1375  -23.7153   18.1379 C   0  0  0  0  0  0  0  0  0  0  0  0
  -32.4220  -28.1011   24.3703 C   0  0  0  0  0  0  0  0  0  0  0  0
  -31.3932  -28.6433   25.3501 C   0  0  0  0  0  0  0  0  0  1  0  0
  -31.7760  -27.5891   23.0925 C   0  0  0  0  0  0  0  0  0  0  0  0
  -24.3992  -33.0647   22.2605 C   0  0  1  0  0  0  0  0  0  0  0  0
  -25.2893  -36.6661   23.0395 C   0  0  2  0  0  0  0  0  0  0  0  0
  -23.5835  -32.7051   20.9867 C   0  0  0  0  0  0  0  0  0  0  0  0
  -25.3354  -18.3905   19.7682 N   0  0  0  0  0  0  0  0  0  0  0  0
  -25.7949  -19.5912   19.3764 N   0  0  0  0  0  0  0  0  0  0  0  0
  -24.8139  -31.5012   24.1334 N   0  0  0  0  0  0  0  0  0  0  0  0
  -24.2115  -22.7008   20.9182 N   0  0  0  0  0  0  0  0  0  0  0  0
  -27.6837  -20.6807   18.4512 N   0  0  0  0  0  0  0  0  0  0  0  0
  -28.9946  -16.3670   18.7149 N   0  0  0  0  0  0  0  0  0  0  0  0
  -25.9953  -24.2496   21.0697 N   0  0  0  0  0  0  0  0  0  0  0  0
  -23.5085  -28.3626   25.4529 N   0  0  0  0  0  0  0  0  0  0  0  0
  -24.3945  -34.4855   22.5917 N   0  0  0  0  0  0  0  0  0  0  0  0
  -26.3867  -37.2085   23.8895 N   0  3  0  0  0  0  0  0  0  0  0  0
  -26.0210  -26.5780   21.1676 O   0  0  0  0  0  0  0  0  0  0  0  0
  -29.6492  -18.4779   18.1031 O   0  0  0  0  0  0  0  0  0  0  0  0
  -24.2702  -29.1177   23.3860 O   0  0  0  0  0  0  0  0  0  0  0  0
  -22.7368  -32.5257   23.8644 O   0  0  0  0  0  0  0  0  0  0  0  0
  -26.6945  -34.7714   22.5176 O   0  0  0  0  0  0  0  0  0  0  0  0
  -23.8087  -24.9820   21.0472 O   0  0  0  0  0  0  0  0  0  0  0  0
  -25.9577  -12.1142   20.6453 O   0  0  0  0  0  0  0  0  0  0  0  0
  -30.8958  -24.2671   19.2131 O   0  0  0  0  0  0  0  0  0  0  0  0
  -30.6915  -29.7368   24.7600 O   0  0  0  0  0  0  0  0  0  1  0  0
  -30.8623  -26.5445   23.3989 O   0  0  0  0  0  0  0  0  0  0  0  0
  -21.3289   -9.5245   19.1383 F   0  0  0  0  0  0  0  0  0  0  0  0
  -23.5027  -12.9019   21.6428 F   0  0  0  0  0  0  0  0  0  0  0  0
  1  2  1  0  0  0  0
  1  5  2  0  0  0  0
  2  6  2  0  0  0  0
  3  8  2  0  0  0  0
  3 17  1  0  0  0  0
  4  9  1  0  0  0  0
  4 17  2  0  0  0  0
  5 21  1  0  0  0  0
  6 23  1  0  0  0  0
  7 10  2  0  0  0  0
  7 22  1  0  0  0  0
  8 25  1  0  0  0  0
  9 25  2  0  0  0  0
 10 26  1  0  0  0  0
 11 12  2  0  0  0  0
 11 27  1  0  0  0  0
 12 30  1  0  0  0  0
 13 18  1  0  0  0  0
 13 28  2  0  0  0  0
 14 24  1  0  0  0  0
 14 26  2  0  0  0  0
 15 28  1  0  0  0  0
 15 29  2  0  0  0  0
 16 30  2  0  0  0  0
 16 31  1  0  0  0  0
 17 32  1  0  0  0  0
 18 19  2  0  0  0  0
 18 36  1  0  0  0  0
 19 29  1  0  0  0  0
 19 35  1  0  0  0  0
 20 32  1  0  0  0  0
 20 33  2  0  0  0  0
 20 37  1  0  0  0  0
 21 23  2  0  0  0  0
 21 42  1  0  0  0  0
 22 24  2  0  0  0  0
 22 43  1  0  0  0  0
 23 51  1  0  0  0  0
 24 44  1  0  0  0  0
 25 82  1  0  0  0  0
 26 84  1  0  0  0  0
 27 31  2  0  0  0  0
 27 82  1  0  0  0  0
 28 83  1  0  0  0  0
 29 85  1  0  0  0  0
 30 86  1  0  0  0  0
 31 87  1  0  0  0  0
 32 66  2  0  0  0  0
 33 67  1  0  0  0  0
 33 70  1  0  0  0  0
 34 35  2  0  0  0  0
 36 72  1  0  0  0  0
 36 76  2  0  0  0  0
 37 71  1  0  0  0  0
 37 77  2  0  0  0  0
 38 52  1  0  0  0  0
 38 73  1  0  0  0  0
 38 78  2  0  0  0  0
 39 63  1  0  0  0  0
 39 68  1  0  0  0  0
 39 79  2  0  0  0  0
 40 64  1  0  0  0  0
 40 74  1  0  0  0  0
 40 80  2  0  0  0  0
 41 69  1  0  0  0  0
 41 72  1  0  0  0  0
 41 81  2  0  0  0  0
 42 45  1  0  0  0  0
 43 52  1  0  0  0  0
 44 68  1  0  0  0  0
 45 47  1  0  0  0  0
 46 48  1  0  0  0  0
 46 49  1  0  0  0  0
 47 51  1  0  0  0  0
 48 53  1  0  0  0  0
 49 69  1  0  0  0  0
 50 53  1  0  0  0  0
 50 69  1  0  0  0  0
 51 73  1  0  0  0  0
 52 68  1  0  0  0  0
 53 67  1  0  0  0  0
 54 64  1  0  0  0  0
 55 65  1  0  0  0  0
 56 65  1  0  0  0  0
 57 65  1  0  0  0  0
 58 75  1  0  0  0  0
 59 83  1  0  0  0  0
 60 61  1  0  0  0  0
 60 62  1  0  0  0  0
 61 84  1  0  0  0  0
 62 85  1  0  0  0  0
 63 65  1  0  0  0  0
 63 74  1  0  0  0  0
 64 75  1  0  0  0  0
 66 67  1  0  0  0  0
M  CHG  1  75   1
M  ISO  4  41 100  61 101  72 100  84 101
M  END
> <Batch ID>
0109

> <Smiles>
C=Cc1c(OCC[101CH2:1][101O:1]c2ccc3c(c2)CN(C(=O)C(NC(=O)C(C)NC)C(C)(C)C)C(C(=O)NC2CCCc4ccccc42)C3)cc(OC)cc1C(=O)[100NH:0][100C:0](=O)N1CCCC(n2nc(-c3ccc(Oc4ccc(F)cc4F)cc3)c(C(N)=O)c2N)C1

> <Shape>
0.205

> <Color>
0.094

> <Negative vol penalty>
0.000

$$$$

  -OEChem-04052301233D

 92101  0     1  0  0  0  0  0999 V2000
  -32.0226  -33.1742   21.4412 C   0  0  0  0  0  0  0  0  0  0  0  0
  -31.4966  -31.8913   21.3271 C   0  0  0  0  0  0  0  0  0  0  0  0
  -23.8745  -12.8122   24.0402 C   0  0  0  0  0  0  0  0  0  0  0  0
  -24.9053  -14.9573   23.6241 C   0  0  0  0  0  0  0  0  0  0  0  0
  -31.4168  -34.1021   22.2873 C   0  0  0  0  0  0  0  0  0  0  0  0
  -30.3650  -31.5353   22.0600 C   0  0  0  0  0  0  0  0  0  0  0  0
  -26.9722  -28.9985   19.2853 C   0  0  0  0  0  0  0  0  0  0  0  0
  -23.4867  -13.2445   25.3083 C   0  0  0  0  0  0  0  0  0  0  0  0
  -24.5174  -15.3897   24.8922 C   0  0  0  0  0  0  0  0  0  0  0  0
  -27.2295  -27.6502   19.0413 C   0  0  0  0  0  0  0  0  0  0  0  0
  -21.7057  -16.5277   26.3821 C   0  0  0  0  0  0  0  0  0  0  0  0
  -21.1457  -17.8008   26.4880 C   0  0  0  0  0  0  0  0  0  0  0  0
  -27.9863  -19.2398   16.3624 C   0  0  0  0  0  0  0  0  0  0  0  0
  -25.6937  -27.0449   20.8003 C   0  0  0  0  0  0  0  0  0  0  0  0
  -28.7295  -19.7846   18.5958 C   0  0  0  0  0  0  0  0  0  0  0  0
  -22.9234  -18.4581   27.9863 C   0  0  0  0  0  0  0  0  0  0  0  0
  -24.5839  -13.6686   23.1980 C   0  0  0  0  0  0  0  0  0  0  0  0
  -28.8027  -18.1089   16.3666 C   0  0  0  0  0  0  0  0  0  0  0  0
  -24.1466  -12.7910   20.8430 C   0  0  0  0  0  0  0  0  0  0  0  0
  -30.2715  -33.7602   23.0236 C   0  0  0  0  0  0  0  0  0  0  0  0
  -26.0804  -29.3811   20.2976 C   0  0  0  0  0  0  0  0  0  0  0  0
  -29.7441  -32.4591   22.9178 C   0  0  0  0  0  0  0  0  0  0  0  0
  -25.4248  -28.3987   21.0534 C   0  0  0  0  0  0  0  0  0  0  0  0
  -29.5825  -17.8158   17.4854 C   0  0  0  0  0  0  0  0  0  0  0  0
  -27.9497  -20.0778   17.4770 C   0  0  0  0  0  0  0  0  0  0  0  0
  -23.8081  -14.5333   25.7344 C   0  0  0  0  0  0  0  0  0  0  0  0
  -26.5924  -26.6732   19.8007 C   0  0  0  0  0  0  0  0  0  0  0  0
  -22.8745  -16.2197   27.0784 C   0  0  0  0  0  0  0  0  0  0  0  0
  -29.5459  -18.6536   18.6000 C   0  0  0  0  0  0  0  0  0  0  0  0
  -21.7546  -18.7660   27.2900 C   0  0  0  0  0  0  0  0  0  0  0  0
  -23.4834  -17.1849   27.8805 C   0  0  0  0  0  0  0  0  0  0  0  0
  -24.9853  -13.2224   21.8881 C   0  0  0  0  0  0  0  0  0  0  0  0
  -25.0071  -12.4780   19.8192 C   0  0  0  0  0  0  0  0  0  0  0  0
  -26.7617  -23.5689   17.9641 C   0  0  0  0  0  0  0  0  0  0  0  0
  -27.5918  -22.5502   17.6246 C   0  0  0  0  0  0  0  0  0  0  0  0
  -29.2113  -17.6662   13.9892 C   0  0  0  0  0  0  0  0  0  0  0  0
  -28.8192  -17.2552   15.1855 C   0  0  0  0  0  0  0  0  0  0  0  0
  -22.7175  -12.6829   20.8013 C   0  0  0  0  0  0  0  0  0  0  0  0
  -26.3245  -31.0610   22.9850 C   0  0  0  0  0  0  0  0  0  0  0  0
  -23.1027  -30.6894   23.0507 C   0  0  0  0  0  0  0  0  0  0  0  0
  -20.7426  -28.0452   22.3757 C   0  0  0  0  0  0  0  0  0  0  0  0
  -30.5383  -14.3082   18.4383 C   0  0  0  0  0  0  0  0  0  0  0  0
  -29.6794  -34.7824   23.9612 C   0  0  0  0  0  0  0  0  0  0  0  0
  -25.7933  -30.8391   20.5305 C   0  0  0  0  0  0  0  0  0  0  0  0
  -24.4432  -28.7566   22.1383 C   0  0  0  0  0  0  0  0  0  0  0  0
  -25.2767  -23.3316   18.1240 C   0  0  0  0  0  0  0  0  0  0  0  0
  -28.2632  -34.4418   24.4179 C   0  0  0  0  0  0  0  0  0  0  0  0
  -24.8067  -22.0810   17.3887 C   0  0  0  0  0  0  0  0  0  0  0  0
  -29.4721  -10.9600   19.0126 C   0  0  0  0  0  0  0  0  0  0  0  0
  -28.1774  -32.9804   24.8464 C   0  0  0  0  0  0  0  0  0  0  0  0
  -28.1256  -11.1212   19.7204 C   0  0  0  0  0  0  0  0  0  0  0  0
  -25.7019  -20.8882   17.6990 C   0  0  0  0  0  0  0  0  0  0  0  0
  -30.4645  -12.0413   19.4345 C   0  0  0  0  0  0  0  0  0  0  0  0
  -28.6271  -13.5854   19.9944 C   0  0  0  0  0  0  0  0  0  0  0  0
  -28.5033  -32.0427   23.6776 C   0  0  1  0  0  0  0  0  0  0  0  0
  -25.2571  -31.1265   21.9295 C   0  0  1  0  0  0  0  0  0  0  0  0
  -27.5750  -12.5510   19.5592 C   0  0  2  0  0  0  0  0  0  0  0  0
  -29.0511  -22.8140   17.3160 C   0  0  0  0  0  0  0  0  0  0  0  0
  -29.7224  -16.9613   23.1288 C   0  0  0  0  0  0  0  0  0  0  0  0
  -18.3451  -28.1463   21.6415 C   0  0  0  0  0  0  0  0  0  0  0  0
  -22.4841  -30.5161   26.0335 C   0  0  0  0  0  0  0  0  0  0  0  0
  -20.5415  -29.0391   25.4738 C   0  0  0  0  0  0  0  0  0  0  0  0
  -20.6070  -31.3848   24.6276 C   0  0  0  0  0  0  0  0  0  0  0  0
  -21.2680  -26.3221   20.0275 C   0  0  0  0  0  0  0  0  0  0  0  0
  -30.4656  -16.6072   17.5066 C   0  0  0  0  0  0  0  0  0  0  0  0
  -27.1836  -24.9891   18.2291 C   0  0  0  0  0  0  0  0  0  1  0  0
  -30.4129  -17.2368   21.8052 C   0  0  0  0  0  0  0  0  0  0  0  0
  -29.6028  -18.1809   20.9300 C   0  0  0  0  0  0  0  0  0  0  0  0
  -22.1566  -29.6598   23.6198 C   0  0  1  0  0  0  0  0  0  0  0  0
  -19.7877  -27.9579   21.1988 C   0  0  2  0  0  0  0  0  0  0  0  0
  -21.4736  -30.1430   24.9304 C   0  0  0  0  0  0  0  0  0  0  0  0
  -26.2792  -13.1877   21.5587 N   0  0  0  0  0  0  0  0  0  0  0  0
  -26.2601  -12.7307   20.2950 N   0  0  0  0  0  0  0  0  0  0  0  0
  -27.1171  -21.2313   17.4730 N   0  0  0  0  0  0  0  0  0  0  0  0
  -24.2008  -30.1957   22.3322 N   0  0  0  0  0  0  0  0  0  0  0  0
  -29.8816  -13.3732   19.2554 N   0  0  0  0  0  0  0  0  0  0  0  0
  -24.8066  -12.0138   18.5675 N   0  0  0  0  0  0  0  0  0  0  0  0
  -21.9865  -13.0461   21.9406 N   0  0  0  0  0  0  0  0  0  0  0  0
  -27.3714  -31.9396   22.7817 N   0  0  0  0  0  0  0  0  0  0  0  0
  -21.2245  -29.3255   22.5485 N   0  0  0  0  0  0  0  0  0  0  0  0
  -29.9150  -15.5441   18.3174 N   0  0  0  0  0  0  0  0  0  0  0  0
  -19.9055  -26.6295   20.5337 N   0  3  0  0  0  0  0  0  0  0  0  0
  -22.1080  -12.2608   19.7895 O   0  0  0  0  0  0  0  0  0  0  0  0
  -26.2061  -30.2728   23.9159 O   0  0  0  0  0  0  0  0  0  0  0  0
  -22.8718  -31.8877   23.2306 O   0  0  0  0  0  0  0  0  0  0  0  0
  -21.0292  -27.0755   23.0743 O   0  0  0  0  0  0  0  0  0  0  0  0
  -31.5987  -14.0580   17.8552 O   0  0  0  0  0  0  0  0  0  0  0  0
  -23.4296  -14.9555   26.9717 O   0  0  0  0  0  0  0  0  0  0  0  0
  -26.8423  -25.3564   19.5651 O   0  0  0  0  0  0  0  0  0  1  0  0
  -30.2998  -18.3839   19.7026 O   0  0  0  0  0  0  0  0  0  0  0  0
  -21.2177  -19.9891   27.3904 F   0  0  0  0  0  0  0  0  0  0  0  0
  -24.6070  -16.8953   28.5508 F   0  0  0  0  0  0  0  0  0  0  0  0
  1  2  1  0  0  0  0
  1  5  2  0  0  0  0
  2  6  2  0  0  0  0
  3  8  2  0  0  0  0
  3 17  1  0  0  0  0
  4  9  1  0  0  0  0
  4 17  2  0  0  0  0
  5 20  1  0  0  0  0
  6 22  1  0  0  0  0
  7 10  2  0  0  0  0
  7 21  1  0  0  0  0
  8 26  1  0  0  0  0
  9 26  2  0  0  0  0
 10 27  1  0  0  0  0
 11 12  2  0  0  0  0
 11 28  1  0  0  0  0
 12 30  1  0  0  0  0
 13 18  1  0  0  0  0
 13 25  2  0  0  0  0
 14 23  1  0  0  0  0
 14 27  2  0  0  0  0
 15 25  1  0  0  0  0
 15 29  2  0  0  0  0
 16 30  2  0  0  0  0
 16 31  1  0  0  0  0
 17 32  1  0  0  0  0
 18 24  2  0  0  0  0
 18 37  1  0  0  0  0
 19 32  1  0  0  0  0
 19 33  2  0  0  0  0
 19 38  1  0  0  0  0
 20 22  2  0  0  0  0
 20 43  1  0  0  0  0
 21 23  2  0  0  0  0
 21 44  1  0  0  0  0
 22 55  1  0  0  0  0
 23 45  1  0  0  0  0
 24 29  1  0  0  0  0
 24 65  1  0  0  0  0
 25 74  1  0  0  0  0
 26 88  1  0  0  0  0
 27 89  1  0  0  0  0
 28 31  2  0  0  0  0
 28 88  1  0  0  0  0
 29 90  1  0  0  0  0
 30 91  1  0  0  0  0
 31 92  1  0  0  0  0
 32 72  2  0  0  0  0
 33 73  1  0  0  0  0
 33 77  1  0  0  0  0
 34 35  2  0  0  0  0
 34 46  1  0  0  0  0
 34 66  1  0  0  0  0
 35 58  1  0  0  0  0
 35 74  1  0  0  0  0
 36 37  2  0  0  0  0
 38 78  1  0  0  0  0
 38 83  2  0  0  0  0
 39 56  1  0  0  0  0
 39 79  1  0  0  0  0
 39 84  2  0  0  0  0
 40 69  1  0  0  0  0
 40 75  1  0  0  0  0
 40 85  2  0  0  0  0
 41 70  1  0  0  0  0
 41 80  1  0  0  0  0
 41 86  2  0  0  0  0
 42 76  1  0  0  0  0
 42 81  1  0  0  0  0
 42 87  2  0  0  0  0
 43 47  1  0  0  0  0
 44 56  1  0  0  0  0
 45 75  1  0  0  0  0
 46 48  1  0  0  0  0
 47 50  1  0  0  0  0
 48 52  1  0  0  0  0
 49 51  1  0  0  0  0
 49 53  1  0  0  0  0
 50 55  1  0  0  0  0
 51 57  1  0  0  0  0
 52 74  1  0  0  0  0
 53 76  1  0  0  0  0
 54 57  1  0  0  0  0
 54 76  1  0  0  0  0
 55 79  1  0  0  0  0
 56 75  1  0  0  0  0
 57 73  1  0  0  0  0
 59 67  1  0  0  0  0
 60 70  1  0  0  0  0
 61 71  1  0  0  0  0
 62 71  1  0  0  0  0
 63 71  1  0  0  0  0
 64 82  1  0  0  0  0
 65 81  1  0  0  0  0
 66 89  1  0  0  0  0
 67 68  1  0  0  0  0
 68 90  1  0  0  0  0
 69 71  1  0  0  0  0
 69 80  1  0  0  0  0
 70 82  1  0  0  0  0
 72 73  1  0  0  0  0
M  CHG  1  82   1
M  ISO  4  42 100  66 101  81 100  89 101
M  END
> <Batch ID>
0109

> <Smiles>
C=Cc1cc(N2CCCC([101CH2:1][101O:1]c3ccc4c(c3)CN(C(=O)C(NC(=O)C(C)NC)C(C)(C)C)C(C(=O)NC3CCCc5ccccc53)C4)=C2C)cc(OCCC)c1C[100NH:0][100C:0](=O)N1CCCC(n2nc(-c3ccc(Oc4ccc(F)cc4F)cc3)c(C(N)=O)c2N)C1

> <Shape>
0.243

> <Color>
0.118

> <Negative vol penalty>
0.000

$$$$

  -OEChem-04052301233D

 85 94  0     1  0  0  0  0  0999 V2000
  -27.2272  -31.0332   14.1628 C   0  0  0  0  0  0  0  0  0  0  0  0
  -27.0583  -29.9245   14.9860 C   0  0  0  0  0  0  0  0  0  0  0  0
  -22.9234  -11.3132   19.0234 C   0  0  0  0  0  0  0  0  0  0  0  0
  -23.0967  -10.0917   21.1007 C   0  0  0  0  0  0  0  0  0  0  0  0
  -27.5429  -32.2719   14.7196 C   0  0  0  0  0  0  0  0  0  0  0  0
  -27.2062  -30.0536   16.3665 C   0  0  0  0  0  0  0  0  0  0  0  0
  -23.5398  -27.6938   18.9421 C   0  0  0  0  0  0  0  0  0  0  0  0
  -21.9265  -10.4381   18.5920 C   0  0  0  0  0  0  0  0  0  0  0  0
  -22.0997   -9.2167   20.6694 C   0  0  0  0  0  0  0  0  0  0  0  0
  -23.6402  -26.3089   19.0681 C   0  0  0  0  0  0  0  0  0  0  0  0
  -18.6183   -9.9771   19.1180 C   0  0  0  0  0  0  0  0  0  0  0  0
  -17.4839  -10.5294   18.5234 C   0  0  0  0  0  0  0  0  0  0  0  0
  -24.5215  -26.5816   21.2970 C   0  0  0  0  0  0  0  0  0  0  0  0
  -29.3375  -20.7160   19.3998 C   0  0  0  0  0  0  0  0  0  0  0  0
  -17.9448   -9.2956   16.4979 C   0  0  0  0  0  0  0  0  0  0  0  0
  -23.5085  -11.1399   20.2777 C   0  0  0  0  0  0  0  0  0  0  0  0
  -24.3663  -13.2411   21.4426 C   0  0  0  0  0  0  0  0  0  0  0  0
  -27.6852  -32.4182   16.1085 C   0  0  0  0  0  0  0  0  0  0  0  0
  -23.9404  -28.5348   19.9903 C   0  0  0  0  0  0  0  0  0  0  0  0
  -27.5254  -31.2951   16.9424 C   0  0  0  0  0  0  0  0  0  0  0  0
  -24.4228  -27.9767   21.1828 C   0  0  0  0  0  0  0  0  0  0  0  0
  -30.3647  -19.7293   19.3583 C   0  0  0  0  0  0  0  0  0  0  0  0
  -21.5146   -9.3899   19.4150 C   0  0  0  0  0  0  0  0  0  0  0  0
  -24.1338  -25.7528   20.2446 C   0  0  0  0  0  0  0  0  0  0  0  0
  -19.4161   -9.0841   18.4025 C   0  0  0  0  0  0  0  0  0  0  0  0
  -17.1471  -10.1887   17.2134 C   0  0  0  0  0  0  0  0  0  0  0  0
  -19.0793   -8.7434   17.0925 C   0  0  0  0  0  0  0  0  0  0  0  0
  -24.5388  -12.0432   20.7237 C   0  0  0  0  0  0  0  0  0  0  0  0
  -29.8581  -18.4512   19.4434 C   0  0  0  0  0  0  0  0  0  0  0  0
  -25.6406  -13.7217   21.6199 C   0  0  0  0  0  0  0  0  0  0  0  0
  -28.0849  -20.1542   19.5148 C   0  0  0  0  0  0  0  0  0  0  0  0
  -25.2723  -22.4422   19.4866 C   0  0  0  0  0  0  0  0  0  0  0  0
  -26.4854  -22.0717   19.0322 C   0  0  0  0  0  0  0  0  0  0  0  0
  -30.5734  -17.1627   19.4364 C   0  0  0  0  0  0  0  0  0  0  0  0
  -23.1618  -13.8637   21.9087 C   0  0  0  0  0  0  0  0  0  0  0  0
  -26.1532  -30.7904   20.3358 C   0  0  0  0  0  0  0  0  0  0  0  0
  -24.7293  -31.1981   23.2217 C   0  0  0  0  0  0  0  0  0  0  0  0
  -22.8405  -29.8688   25.7341 C   0  0  0  0  0  0  0  0  0  0  0  0
  -30.6822  -14.8664   19.5165 C   0  0  0  0  0  0  0  0  0  0  0  0
  -28.0735  -33.7671   16.6603 C   0  0  0  0  0  0  0  0  0  0  0  0
  -23.8007  -30.0257   19.8488 C   0  0  0  0  0  0  0  0  0  0  0  0
  -24.8472  -28.8352   22.3453 C   0  0  0  0  0  0  0  0  0  0  0  0
  -24.7321  -21.4157   20.4468 C   0  0  0  0  0  0  0  0  0  0  0  0
  -27.8440  -33.8992   18.1637 C   0  0  0  0  0  0  0  0  0  0  0  0
  -30.1320  -11.5513   20.8251 C   0  0  0  0  0  0  0  0  0  0  0  0
  -28.3809  -32.6732   18.8955 C   0  0  0  0  0  0  0  0  0  0  0  0
  -28.6098  -11.4720   20.9405 C   0  0  0  0  0  0  0  0  0  0  0  0
  -25.7675  -20.2808   20.3843 C   0  0  0  0  0  0  0  0  0  0  0  0
  -30.5597  -12.3767   19.6154 C   0  0  0  0  0  0  0  0  0  0  0  0
  -28.4493  -13.6758   19.7007 C   0  0  0  0  0  0  0  0  0  0  0  0
  -27.6532  -31.4002   18.4466 C   0  0  1  0  0  0  0  0  0  0  0  0
  -24.7197  -30.8035   20.7858 C   0  0  1  0  0  0  0  0  0  0  0  0
  -27.9805  -12.8765   20.9285 C   0  0  1  0  0  0  0  0  0  0  0  0
  -31.8062  -20.0560   19.2385 C   0  0  0  0  0  0  0  0  0  0  0  0
  -27.2760  -22.7959   17.9931 C   0  0  0  0  0  0  0  0  0  0  0  0
  -21.8737  -30.4310   27.9805 C   0  0  0  0  0  0  0  0  0  0  0  0
  -27.4850  -30.8648   24.4884 C   0  0  0  0  0  0  0  0  0  0  0  0
  -26.3512  -30.4844   26.6879 C   0  0  0  0  0  0  0  0  0  0  0  0
  -26.0794  -32.6650   25.5073 C   0  0  0  0  0  0  0  0  0  0  0  0
  -20.0707  -29.4671   24.7717 C   0  0  0  0  0  0  0  0  0  0  0  0
  -24.4658  -23.6538   19.1768 C   0  0  0  0  0  0  0  0  0  1  0  0
  -24.9181  -30.6109   24.5995 C   0  0  1  0  0  0  0  0  0  0  0  0
  -21.6325  -30.4074   26.4792 C   0  0  2  0  0  0  0  0  0  0  0  0
  -26.2023  -31.1399   25.2983 C   0  0  0  0  0  0  0  0  0  0  0  0
  -25.8217  -11.7790   20.4619 N   0  0  0  0  0  0  0  0  0  0  0  0
  -29.9464  -16.0359   19.5283 N   0  0  0  0  0  0  0  0  0  0  0  0
  -26.4668  -12.8178   21.0194 N   0  0  0  0  0  0  0  0  0  0  0  0
  -26.8620  -20.8452   19.5820 N   0  0  0  0  0  0  0  0  0  0  0  0
  -24.6975  -30.2876   22.1560 N   0  0  0  0  0  0  0  0  0  0  0  0
  -29.9160  -13.6910   19.6211 N   0  0  0  0  0  0  0  0  0  0  0  0
  -26.1239  -14.8252   22.2292 N   0  0  0  0  0  0  0  0  0  0  0  0
  -21.9379  -13.2355   21.6405 N   0  0  0  0  0  0  0  0  0  0  0  0
  -26.3512  -31.3149   19.0728 N   0  0  0  0  0  0  0  0  0  0  0  0
  -23.6852  -30.8814   25.3310 N   0  0  0  0  0  0  0  0  0  0  0  0
  -20.4368  -29.5601   26.2085 N   0  3  0  0  0  0  0  0  0  0  0  0
  -23.1693  -14.9535   22.5298 O   0  0  0  0  0  0  0  0  0  0  0  0
  -27.0160  -30.3392   21.0800 O   0  0  0  0  0  0  0  0  0  0  0  0
  -24.6070  -32.4192   23.0963 O   0  0  0  0  0  0  0  0  0  0  0  0
  -23.0189  -28.6695   25.5332 O   0  0  0  0  0  0  0  0  0  0  0  0
  -31.9109  -14.8283   19.4174 O   0  0  0  0  0  0  0  0  0  0  0  0
  -20.5417   -8.5361   18.9945 O   0  0  0  0  0  0  0  0  0  0  0  0
  -24.2334  -24.4014   20.3699 O   0  0  0  0  0  0  0  0  0  1  0  0
  -16.0568  -10.7179   16.6431 F   0  0  0  0  0  0  0  0  0  0  0  0
  -19.8412   -7.8851   16.4006 F   0  0  0  0  0  0  0  0  0  0  0  0
  -28.1506  -18.4440   19.5726 S   0  0  0  0  0  0  0  0  0  0  0  0
  1  2  1  0  0  0  0
  1  5  2  0  0  0  0
  2  6  2  0  0  0  0
  3  8  2  0  0  0  0
  3 16  1  0  0  0  0
  4  9  1  0  0  0  0
  4 16  2  0  0  0  0
  5 18  1  0  0  0  0
  6 20  1  0  0  0  0
  7 10  2  0  0  0  0
  7 19  1  0  0  0  0
  8 23  1  0  0  0  0
  9 23  2  0  0  0  0
 10 24  1  0  0  0  0
 11 12  2  0  0  0  0
 11 25  1  0  0  0  0
 12 26  1  0  0  0  0
 13 21  1  0  0  0  0
 13 24  2  0  0  0  0
 14 22  1  0  0  0  0
 14 31  2  0  0  0  0
 15 26  2  0  0  0  0
 15 27  1  0  0  0  0
 16 28  1  0  0  0  0
 17 28  1  0  0  0  0
 17 30  2  0  0  0  0
 17 35  1  0  0  0  0
 18 20  2  0  0  0  0
 18 40  1  0  0  0  0
 19 21  2  0  0  0  0
 19 41  1  0  0  0  0
 20 51  1  0  0  0  0
 21 42  1  0  0  0  0
 22 29  2  0  0  0  0
 22 54  1  0  0  0  0
 23 81  1  0  0  0  0
 24 82  1  0  0  0  0
 25 27  2  0  0  0  0
 25 81  1  0  0  0  0
 26 83  1  0  0  0  0
 27 84  1  0  0  0  0
 28 65  2  0  0  0  0
 29 34  1  0  0  0  0
 29 85  1  0  0  0  0
 30 67  1  0  0  0  0
 30 71  1  0  0  0  0
 31 68  1  0  0  0  0
 31 85  1  0  0  0  0
 32 33  2  0  0  0  0
 32 43  1  0  0  0  0
 32 61  1  0  0  0  0
 33 55  1  0  0  0  0
 33 68  1  0  0  0  0
 34 66  2  0  0  0  0
 35 72  1  0  0  0  0
 35 76  2  0  0  0  0
 36 52  1  0  0  0  0
 36 73  1  0  0  0  0
 36 77  2  0  0  0  0
 37 62  1  0  0  0  0
 37 69  1  0  0  0  0
 37 78  2  0  0  0  0
 38 63  1  0  0  0  0
 38 74  1  0  0  0  0
 38 79  2  0  0  0  0
 39 66  1  0  0  0  0
 39 70  1  0  0  0  0
 39 80  2  0  0  0  0
 40 44  1  0  0  0  0
 41 52  1  0  0  0  0
 42 69  1  0  0  0  0
 43 48  1  0  0  0  0
 44 46  1  0  0  0  0
 45 47  1  0  0  0  0
 45 49  1  0  0  0  0
 46 51  1  0  0  0  0
 47 53  1  0  0  0  0
 48 68  1  0  0  0  0
 49 70  1  0  0  0  0
 50 53  1  0  0  0  0
 50 70  1  0  0  0  0
 51 73  1  0  0  0  0
 52 69  1  0  0  0  0
 53 67  1  0  0  0  0
 56 63  1  0  0  0  0
 57 64  1  0  0  0  0
 58 64  1  0  0  0  0
 59 64  1  0  0  0  0
 60 75  1  0  0  0  0
 61 82  1  0  0  0  0
 62 64  1  0  0  0  0
 62 74  1  0  0  0  0
 63 75  1  0  0  0  0
 65 67  1  0  0  0  0
M  CHG  1  75   1
M  ISO  4  39 100  61 101  66 100  82 101
M  END
> <Batch ID>
0109

> <Smiles>
CNC(C)C(=O)NC(C(=O)N1Cc2cc([101O:1][101CH2:1]C3=C(C)N(c4cc(C)c(C=[100N:0][100C:0](=O)N5CCCC(n6nc(-c7ccc(Oc8ccc(F)cc8F)cc7)c(C(N)=O)c6N)C5)s4)CC3)ccc2CC1C(=O)NC1CCCc2ccccc21)C(C)(C)C

> <Shape>
0.237

> <Color>
0.111

> <Negative vol penalty>
0.000

$$$$

  -OEChem-04052301233D

 88 96  0     1  0  0  0  0  0999 V2000
  -22.3451   -7.6936   21.4229 C   0  0  0  0  0  0  0  0  0  0  0  0
  -23.3574   -8.5331   20.9689 C   0  0  0  0  0  0  0  0  0  0  0  0
  -21.3653  -27.8946   20.8536 C   0  0  0  0  0  0  0  0  0  0  0  0
  -22.1509  -26.3879   22.5711 C   0  0  0  0  0  0  0  0  0  0  0  0
  -21.0804   -8.2130   21.6959 C   0  0  0  0  0  0  0  0  0  0  0  0
  -23.1050   -9.8924   20.7867 C   0  0  0  0  0  0  0  0  0  0  0  0
  -26.7990  -12.8195   22.6390 C   0  0  0  0  0  0  0  0  0  0  0  0
  -20.1201  -27.9582   21.4789 C   0  0  0  0  0  0  0  0  0  0  0  0
  -20.9056  -26.4515   23.1965 C   0  0  0  0  0  0  0  0  0  0  0  0
  -27.9593  -12.9399   21.8755 C   0  0  0  0  0  0  0  0  0  0  0  0
  -18.7415  -29.5420   24.1291 C   0  0  0  0  0  0  0  0  0  0  0  0
  -18.1522  -30.7980   24.2740 C   0  0  0  0  0  0  0  0  0  0  0  0
  -27.1884  -15.0719   21.0511 C   0  0  0  0  0  0  0  0  0  0  0  0
  -30.1981  -20.7717   19.3626 C   0  0  0  0  0  0  0  0  0  0  0  0
  -32.4726  -21.5351   19.0789 C   0  0  0  0  0  0  0  0  0  0  0  0
  -16.2588  -30.0604   22.9672 C   0  0  0  0  0  0  0  0  0  0  0  0
  -22.3807  -27.1094   21.3997 C   0  0  0  0  0  0  0  0  0  0  0  0
  -24.7764  -27.8794   20.9807 C   0  0  0  0  0  0  0  0  0  0  0  0
  -20.8151   -9.5810   21.5261 C   0  0  0  0  0  0  0  0  0  0  0  0
  -25.8180  -13.8210   22.6058 C   0  0  0  0  0  0  0  0  0  0  0  0
  -21.8351  -10.4303   21.0563 C   0  0  0  0  0  0  0  0  0  0  0  0
  -26.0177  -14.9630   21.8170 C   0  0  0  0  0  0  0  0  0  0  0  0
  -29.7418  -22.0835   19.2347 C   0  0  0  0  0  0  0  0  0  0  0  0
  -30.6509  -23.1212   19.0288 C   0  0  0  0  0  0  0  0  0  0  0  0
  -31.5635  -20.4974   19.2848 C   0  0  0  0  0  0  0  0  0  0  0  0
  -32.0163  -22.8470   18.9509 C   0  0  0  0  0  0  0  0  0  0  0  0
  -19.8903  -27.2366   22.6503 C   0  0  0  0  0  0  0  0  0  0  0  0
  -28.1529  -14.0649   21.0792 C   0  0  0  0  0  0  0  0  0  0  0  0
  -18.0894  -28.5453   23.4032 C   0  0  0  0  0  0  0  0  0  0  0  0
  -16.9109  -31.0571   23.6931 C   0  0  0  0  0  0  0  0  0  0  0  0
  -16.8481  -28.8044   22.8222 C   0  0  0  0  0  0  0  0  0  0  0  0
  -23.6671  -27.0429   20.7540 C   0  0  0  0  0  0  0  0  0  0  0  0
  -25.7426  -27.4077   20.1261 C   0  0  0  0  0  0  0  0  0  0  0  0
  -24.9206  -28.9841   21.8833 C   0  0  0  0  0  0  0  0  0  0  0  0
  -31.9793  -16.8056   19.7178 C   0  0  0  0  0  0  0  0  0  0  0  0
  -31.2623  -15.4901   19.9506 C   0  0  0  0  0  0  0  0  0  0  0  0
  -22.7652  -13.9425   21.7287 C   0  0  0  0  0  0  0  0  0  0  0  0
  -27.6288  -22.3582   17.9598 C   0  0  0  0  0  0  0  0  0  0  0  0
  -22.9449  -16.9515   22.9270 C   0  0  0  0  0  0  0  0  0  0  0  0
  -24.8888  -19.6398   23.7277 C   0  0  0  0  0  0  0  0  0  0  0  0
  -19.4192  -10.0879   21.7890 C   0  0  0  0  0  0  0  0  0  0  0  0
  -24.5842  -13.6886   23.4558 C   0  0  0  0  0  0  0  0  0  0  0  0
  -25.0044  -16.0759   21.7620 C   0  0  0  0  0  0  0  0  0  0  0  0
  -19.3384  -11.6060   21.9275 C   0  0  0  0  0  0  0  0  0  0  0  0
  -25.7376  -24.6913   16.0053 C   0  0  0  0  0  0  0  0  0  0  0  0
  -20.1208  -12.2864   20.8087 C   0  0  0  0  0  0  0  0  0  0  0  0
  -25.0928  -25.5977   17.0530 C   0  0  0  0  0  0  0  0  0  0  0  0
  -25.8438  -23.2525   16.5009 C   0  0  0  0  0  0  0  0  0  0  0  0
  -25.9182  -24.0157   18.8533 C   0  0  0  0  0  0  0  0  0  0  0  0
  -21.6072  -11.9146   20.8698 C   0  0  1  0  0  0  0  0  0  0  0  0
  -23.4164  -14.5294   22.9490 C   0  0  1  0  0  0  0  0  0  0  0  0
  -25.8199  -25.4845   18.4046 C   0  0  2  0  0  0  0  0  0  0  0  0
  -30.3785  -25.3407   20.1628 C   0  0  0  0  0  0  0  0  0  0  0  0
  -27.5322  -21.3567   20.2255 C   0  0  0  0  0  0  0  0  0  0  0  0
  -24.7463  -21.9675   24.6545 C   0  0  0  0  0  0  0  0  0  0  0  0
  -21.8575  -17.9460   20.2553 C   0  0  0  0  0  0  0  0  0  0  0  0
  -22.6239  -20.2465   20.8789 C   0  0  0  0  0  0  0  0  0  0  0  0
  -20.8999  -19.0903   22.2623 C   0  0  0  0  0  0  0  0  0  0  0  0
  -26.6124  -18.9521   26.0332 C   0  0  0  0  0  0  0  0  0  0  0  0
  -30.1569  -24.5273   18.8925 C   0  0  0  0  0  0  0  0  0  0  0  0
  -31.1502  -18.0605   19.6259 C   0  0  0  0  0  0  0  0  0  0  0  0
  -29.7604  -15.5063   20.0822 C   0  0  0  0  0  0  0  0  0  1  0  0
  -28.2746  -22.3500   19.3225 C   0  0  1  0  0  0  0  0  0  0  0  0
  -23.3014  -18.3065   22.3650 C   0  0  1  0  0  0  0  0  0  0  0  0
  -24.9567  -20.4967   24.9789 C   0  0  2  0  0  0  0  0  0  0  0  0
  -22.1891  -18.8756   21.4397 C   0  0  0  0  0  0  0  0  0  0  0  0
  -23.9052  -26.1104   19.8278 N   0  0  0  0  0  0  0  0  0  0  0  0
  -25.1752  -26.3583   19.4649 N   0  0  0  0  0  0  0  0  0  0  0  0
  -23.8115  -15.8971   22.6062 N   0  0  0  0  0  0  0  0  0  0  0  0
  -26.5205  -23.1898   17.7976 N   0  0  0  0  0  0  0  0  0  0  0  0
  -32.9525  -23.8840   18.7428 N   0  0  0  0  0  0  0  0  0  0  0  0
  -27.0136  -27.7923   19.8832 N   0  0  0  0  0  0  0  0  0  0  0  0
  -23.8291  -29.3352   22.6894 N   0  0  0  0  0  0  0  0  0  0  0  0
  -32.0169  -19.1932   19.4118 N   0  0  0  0  0  0  0  0  0  0  0  0
  -22.2732  -12.6644   21.9132 N   0  0  0  0  0  0  0  0  0  0  0  0
  -23.6171  -19.1533   23.5104 N   0  0  0  0  0  0  0  0  0  0  0  0
  -26.2847  -20.3463   25.6384 N   0  3  0  0  0  0  0  0  0  0  0  0
  -25.9803  -29.6508   21.9604 O   0  0  0  0  0  0  0  0  0  0  0  0
  -33.1991  -16.7645   19.6170 O   0  0  0  0  0  0  0  0  0  0  0  0
  -31.9485  -14.4786   20.0219 O   0  0  0  0  0  0  0  0  0  0  0  0
  -22.7117  -14.6010   20.6967 O   0  0  0  0  0  0  0  0  0  0  0  0
  -28.0985  -21.6484   17.0667 O   0  0  0  0  0  0  0  0  0  0  0  0
  -21.9386  -16.8344   23.6308 O   0  0  0  0  0  0  0  0  0  0  0  0
  -25.8653  -19.4267   23.0125 O   0  0  0  0  0  0  0  0  0  0  0  0
  -18.6754  -27.2986   23.2608 O   0  0  0  0  0  0  0  0  0  0  0  0
  -29.2842  -14.1846   20.3325 O   0  0  0  0  0  0  0  0  0  1  0  0
  -16.3444  -32.2628   23.8336 F   0  0  0  0  0  0  0  0  0  0  0  0
  -16.2163  -27.8505   22.1247 F   0  0  0  0  0  0  0  0  0  0  0  0
  1  2  1  0  0  0  0
  1  5  2  0  0  0  0
  2  6  2  0  0  0  0
  3  8  2  0  0  0  0
  3 17  1  0  0  0  0
  4  9  1  0  0  0  0
  4 17  2  0  0  0  0
  5 19  1  0  0  0  0
  6 21  1  0  0  0  0
  7 10  2  0  0  0  0
  7 20  1  0  0  0  0
  8 27  1  0  0  0  0
  9 27  2  0  0  0  0
 10 28  1  0  0  0  0
 11 12  2  0  0  0  0
 11 29  1  0  0  0  0
 12 30  1  0  0  0  0
 13 22  1  0  0  0  0
 13 28  2  0  0  0  0
 14 23  1  0  0  0  0
 14 25  2  0  0  0  0
 15 25  1  0  0  0  0
 15 26  2  0  0  0  0
 16 30  2  0  0  0  0
 16 31  1  0  0  0  0
 17 32  1  0  0  0  0
 18 32  1  0  0  0  0
 18 33  2  0  0  0  0
 18 34  1  0  0  0  0
 19 21  2  0  0  0  0
 19 41  1  0  0  0  0
 20 22  2  0  0  0  0
 20 42  1  0  0  0  0
 21 50  1  0  0  0  0
 22 43  1  0  0  0  0
 23 24  2  0  0  0  0
 23 63  1  0  0  0  0
 24 26  1  0  0  0  0
 24 60  1  0  0  0  0
 25 74  1  0  0  0  0
 26 71  1  0  0  0  0
 27 85  1  0  0  0  0
 28 86  1  0  0  0  0
 29 31  2  0  0  0  0
 29 85  1  0  0  0  0
 30 87  1  0  0  0  0
 31 88  1  0  0  0  0
 32 67  2  0  0  0  0
 33 68  1  0  0  0  0
 33 72  1  0  0  0  0
 34 73  1  0  0  0  0
 34 78  2  0  0  0  0
 35 36  1  0  0  0  0
 35 61  1  0  0  0  0
 35 79  2  0  0  0  0
 36 62  1  0  0  0  0
 36 80  2  0  0  0  0
 37 51  1  0  0  0  0
 37 75  1  0  0  0  0
 37 81  2  0  0  0  0
 38 63  1  0  0  0  0
 38 70  1  0  0  0  0
 38 82  2  0  0  0  0
 39 64  1  0  0  0  0
 39 69  1  0  0  0  0
 39 83  2  0  0  0  0
 40 65  1  0  0  0  0
 40 76  1  0  0  0  0
 40 84  2  0  0  0  0
 41 44  1  0  0  0  0
 42 51  1  0  0  0  0
 43 69  1  0  0  0  0
 44 46  1  0  0  0  0
 45 47  1  0  0  0  0
 45 48  1  0  0  0  0
 46 50  1  0  0  0  0
 47 52  1  0  0  0  0
 48 70  1  0  0  0  0
 49 52  1  0  0  0  0
 49 70  1  0  0  0  0
 50 75  1  0  0  0  0
 51 69  1  0  0  0  0
 52 68  1  0  0  0  0
 53 60  1  0  0  0  0
 54 63  1  0  0  0  0
 55 65  1  0  0  0  0
 56 66  1  0  0  0  0
 57 66  1  0  0  0  0
 58 66  1  0  0  0  0
 59 77  1  0  0  0  0
 61 74  1  0  0  0  0
 62 86  1  0  0  0  0
 64 66  1  0  0  0  0
 64 76  1  0  0  0  0
 65 77  1  0  0  0  0
 67 68  1  0  0  0  0
M  CHG  1  77   1
M  ISO  4  38 100  62 101  63 100  86 101
M  END
> <Batch ID>
0109

> <Smiles>
CCc1c(N)cc(NCC(=O)C(=O)[101CH2:1][101O:1]c2ccc3c(c2)CN(C(=O)C(NC(=O)C(C)NC)C(C)(C)C)C(C(=O)NC2CCCc4ccccc42)C3)cc1[100CH:0](C)[100C:0](=O)N1CCCC(n2nc(-c3ccc(Oc4ccc(F)cc4F)cc3)c(C(N)=O)c2N)C1

> <Shape>
0.228

> <Color>
0.070

> <Negative vol penalty>
0.000

$$$$

  -OEChem-04052301233D

 86 94  0     1  0  0  0  0  0999 V2000
  -19.1154  -31.9284   23.1738 C   0  0  0  0  0  0  0  0  0  0  0  0
  -20.4706  -31.8280   22.8756 C   0  0  0  0  0  0  0  0  0  0  0  0
  -24.2945   -9.2381   21.4967 C   0  0  0  0  0  0  0  0  0  0  0  0
  -24.7578  -10.3750   23.5776 C   0  0  0  0  0  0  0  0  0  0  0  0
  -18.3274  -30.7795   23.2263 C   0  0  0  0  0  0  0  0  0  0  0  0
  -21.0387  -30.5783   22.6308 C   0  0  0  0  0  0  0  0  0  0  0  0
  -26.1568  -27.4414   18.7216 C   0  0  0  0  0  0  0  0  0  0  0  0
  -23.9188   -8.0963   22.2042 C   0  0  0  0  0  0  0  0  0  0  0  0
  -24.3820   -9.2331   24.2851 C   0  0  0  0  0  0  0  0  0  0  0  0
  -27.2575  -26.5979   18.8659 C   0  0  0  0  0  0  0  0  0  0  0  0
  -21.2176   -7.0062   23.9214 C   0  0  0  0  0  0  0  0  0  0  0  0
  -20.0502   -6.3534   23.5257 C   0  0  0  0  0  0  0  0  0  0  0  0
  -29.8224  -19.0664   22.9221 C   0  0  0  0  0  0  0  0  0  0  0  0
  -25.7823  -24.6896   18.9061 C   0  0  0  0  0  0  0  0  0  0  0  0
  -32.0755  -17.9045   21.7575 C   0  0  0  0  0  0  0  0  0  0  0  0
  -21.3228   -4.3491   23.0780 C   0  0  0  0  0  0  0  0  0  0  0  0
  -24.7141  -10.3775   22.1834 C   0  0  0  0  0  0  0  0  0  0  0  0
  -30.1061  -17.7190   23.1447 C   0  0  0  0  0  0  0  0  0  0  0  0
  -24.2734  -12.6229   21.0558 C   0  0  0  0  0  0  0  0  0  0  0  0
  -18.8841  -29.5160   22.9725 C   0  0  0  0  0  0  0  0  0  0  0  0
  -24.8576  -26.9152   18.6794 C   0  0  0  0  0  0  0  0  0  0  0  0
  -20.2576  -29.4112   22.6813 C   0  0  0  0  0  0  0  0  0  0  0  0
  -24.6670  -25.5283   18.7587 C   0  0  0  0  0  0  0  0  0  0  0  0
  -31.2327  -17.1380   22.5624 C   0  0  0  0  0  0  0  0  0  0  0  0
  -31.7917  -19.2520   21.5349 C   0  0  0  0  0  0  0  0  0  0  0  0
  -23.9625   -8.0938   23.5984 C   0  0  0  0  0  0  0  0  0  0  0  0
  -27.0702  -25.2221   18.9610 C   0  0  0  0  0  0  0  0  0  0  0  0
  -22.4377   -6.3305   23.8952 C   0  0  0  0  0  0  0  0  0  0  0  0
  -30.6652  -19.8329   22.1172 C   0  0  0  0  0  0  0  0  0  0  0  0
  -20.1028   -5.0248   23.1041 C   0  0  0  0  0  0  0  0  0  0  0  0
  -22.4902   -5.0019   23.4736 C   0  0  0  0  0  0  0  0  0  0  0  0
  -25.1029  -11.5572   21.4531 C   0  0  0  0  0  0  0  0  0  0  0  0
  -25.1150  -13.4862   20.3977 C   0  0  0  0  0  0  0  0  0  0  0  0
  -27.9294  -16.7386   23.7068 C   0  0  0  0  0  0  0  0  0  0  0  0
  -29.2068  -16.9448   23.9901 C   0  0  0  0  0  0  0  0  0  0  0  0
  -22.8678  -12.8154   21.2630 C   0  0  0  0  0  0  0  0  0  0  0  0
  -22.2559  -27.2165   20.4806 C   0  0  0  0  0  0  0  0  0  0  0  0
  -29.2123  -22.7465   20.5147 C   0  0  0  0  0  0  0  0  0  0  0  0
  -20.8958  -25.4469   18.1267 C   0  0  0  0  0  0  0  0  0  0  0  0
  -21.3010  -23.2078   15.5833 C   0  0  0  0  0  0  0  0  0  0  0  0
  -31.0160  -14.4537   20.7034 C   0  0  0  0  0  0  0  0  0  0  0  0
  -18.0023  -28.2979   23.0873 C   0  0  0  0  0  0  0  0  0  0  0  0
  -23.6827  -27.8364   18.4966 C   0  0  0  0  0  0  0  0  0  0  0  0
  -23.2942  -24.9118   18.6983 C   0  0  0  0  0  0  0  0  0  0  0  0
  -18.6025  -27.0489   22.4469 C   0  0  0  0  0  0  0  0  0  0  0  0
  -29.1417  -13.5491   17.8146 C   0  0  0  0  0  0  0  0  0  0  0  0
  -20.0620  -26.8862   22.8596 C   0  0  0  0  0  0  0  0  0  0  0  0
  -27.8192  -13.0322   18.3836 C   0  0  0  0  0  0  0  0  0  0  0  0
  -30.3250  -13.1684   18.7016 C   0  0  0  0  0  0  0  0  0  0  0  0
  -28.8680  -13.0458   20.6855 C   0  0  0  0  0  0  0  0  0  0  0  0
  -20.9053  -28.0759   22.3854 C   0  0  1  0  0  0  0  0  0  0  0  0
  -22.3686  -27.2324   18.9824 C   0  0  1  0  0  0  0  0  0  0  0  0
  -27.6391  -13.4530   19.8546 C   0  0  2  0  0  0  0  0  0  0  0  0
  -20.0002  -21.9194   13.8671 C   0  0  0  0  0  0  0  0  0  0  0  0
  -19.9501  -23.5189   20.2943 C   0  0  0  0  0  0  0  0  0  0  0  0
  -19.5150  -21.8264   18.5015 C   0  0  0  0  0  0  0  0  0  0  0  0
  -18.2654  -23.9854   18.5058 C   0  0  0  0  0  0  0  0  0  0  0  0
  -22.7360  -24.5121   13.3475 C   0  0  0  0  0  0  0  0  0  0  0  0
  -31.5675  -15.6972   22.7792 C   0  0  0  0  0  0  0  0  0  0  0  0
  -27.9370  -23.1819   19.8225 C   0  0  0  0  0  0  0  0  0  1  0  0
  -29.1289  -21.4546   21.3014 C   0  0  0  0  0  0  0  0  0  0  0  0
  -20.7122  -23.9708   17.8692 C   0  0  1  0  0  0  0  0  0  0  0  0
  -20.7752  -23.1949   14.1593 C   0  0  2  0  0  0  0  0  0  0  0  0
  -19.6365  -23.3368   18.7958 C   0  0  0  0  0  0  0  0  0  0  0  0
  -26.3739  -11.7257   21.0786 N   0  0  0  0  0  0  0  0  0  0  0  0
  -26.3493  -12.9074   20.4390 N   0  0  0  0  0  0  0  0  0  0  0  0
  -22.1767  -25.8546   18.5251 N   0  0  0  0  0  0  0  0  0  0  0  0
  -30.0918  -13.5971   20.0829 N   0  0  0  0  0  0  0  0  0  0  0  0
  -32.6533  -20.0162   20.7180 N   0  0  0  0  0  0  0  0  0  0  0  0
  -24.9122  -14.6762   19.7935 N   0  0  0  0  0  0  0  0  0  0  0  0
  -22.1541  -11.8304   21.9592 N   0  0  0  0  0  0  0  0  0  0  0  0
  -21.1982  -27.9568   20.9731 N   0  0  0  0  0  0  0  0  0  0  0  0
  -20.4274  -23.8372   16.4446 N   0  0  0  0  0  0  0  0  0  0  0  0
  -30.7161  -14.8165   22.0107 N   0  0  0  0  0  0  0  0  0  0  0  0
  -21.9028  -23.2923   13.1898 N   0  3  0  0  0  0  0  0  0  0  0  0
  -22.2596  -13.8230   20.8290 O   0  0  0  0  0  0  0  0  0  0  0  0
  -23.0676  -26.5786   21.1408 O   0  0  0  0  0  0  0  0  0  0  0  0
  -30.2509  -23.4018   20.4427 O   0  0  0  0  0  0  0  0  0  0  0  0
  -19.9397  -26.2111   17.9729 O   0  0  0  0  0  0  0  0  0  0  0  0
  -22.3773  -22.7062   15.9005 O   0  0  0  0  0  0  0  0  0  0  0  0
  -32.0302  -14.8690   20.1326 O   0  0  0  0  0  0  0  0  0  0  0  0
  -23.5957   -6.9798   24.2891 O   0  0  0  0  0  0  0  0  0  0  0  0
  -28.1428  -24.3966   19.1025 O   0  0  0  0  0  0  0  0  0  1  0  0
  -30.3683  -21.1592   21.9100 O   0  0  0  0  0  0  0  0  0  0  0  0
  -18.9814   -4.3976   22.7257 F   0  0  0  0  0  0  0  0  0  0  0  0
  -23.6592   -4.3472   23.4475 F   0  0  0  0  0  0  0  0  0  0  0  0
  1  2  1  0  0  0  0
  1  5  2  0  0  0  0
  2  6  2  0  0  0  0
  3  8  2  0  0  0  0
  3 17  1  0  0  0  0
  4  9  1  0  0  0  0
  4 17  2  0  0  0  0
  5 20  1  0  0  0  0
  6 22  1  0  0  0  0
  7 10  2  0  0  0  0
  7 21  1  0  0  0  0
  8 26  1  0  0  0  0
  9 26  2  0  0  0  0
 10 27  1  0  0  0  0
 11 12  2  0  0  0  0
 11 28  1  0  0  0  0
 12 30  1  0  0  0  0
 13 18  1  0  0  0  0
 13 29  2  0  0  0  0
 14 23  1  0  0  0  0
 14 27  2  0  0  0  0
 15 24  1  0  0  0  0
 15 25  2  0  0  0  0
 16 30  2  0  0  0  0
 16 31  1  0  0  0  0
 17 32  1  0  0  0  0
 18 24  2  0  0  0  0
 18 35  1  0  0  0  0
 19 32  1  0  0  0  0
 19 33  2  0  0  0  0
 19 36  1  0  0  0  0
 20 22  2  0  0  0  0
 20 42  1  0  0  0  0
 21 23  2  0  0  0  0
 21 43  1  0  0  0  0
 22 51  1  0  0  0  0
 23 44  1  0  0  0  0
 24 59  1  0  0  0  0
 25 29  1  0  0  0  0
 25 69  1  0  0  0  0
 26 82  1  0  0  0  0
 27 83  1  0  0  0  0
 28 31  2  0  0  0  0
 28 82  1  0  0  0  0
 29 84  1  0  0  0  0
 30 85  1  0  0  0  0
 31 86  1  0  0  0  0
 32 65  2  0  0  0  0
 33 66  1  0  0  0  0
 33 70  1  0  0  0  0
 34 35  2  0  0  0  0
 36 71  1  0  0  0  0
 36 76  2  0  0  0  0
 37 52  1  0  0  0  0
 37 72  1  0  0  0  0
 37 77  2  0  0  0  0
 38 60  1  0  0  0  0
 38 61  1  0  0  0  0
 38 78  2  0  0  0  0
 39 62  1  0  0  0  0
 39 67  1  0  0  0  0
 39 79  2  0  0  0  0
 40 63  1  0  0  0  0
 40 73  1  0  0  0  0
 40 80  2  0  0  0  0
 41 68  1  0  0  0  0
 41 74  1  0  0  0  0
 41 81  2  0  0  0  0
 42 45  1  0  0  0  0
 43 52  1  0  0  0  0
 44 67  1  0  0  0  0
 45 47  1  0  0  0  0
 46 48  1  0  0  0  0
 46 49  1  0  0  0  0
 47 51  1  0  0  0  0
 48 53  1  0  0  0  0
 49 68  1  0  0  0  0
 50 53  1  0  0  0  0
 50 68  1  0  0  0  0
 51 72  1  0  0  0  0
 52 67  1  0  0  0  0
 53 66  1  0  0  0  0
 54 63  1  0  0  0  0
 55 64  1  0  0  0  0
 56 64  1  0  0  0  0
 57 64  1  0  0  0  0
 58 75  1  0  0  0  0
 59 74  1  0  0  0  0
 60 83  1  0  0  0  0
 61 84  1  0  0  0  0
 62 64  1  0  0  0  0
 62 73  1  0  0  0  0
 63 75  1  0  0  0  0
 65 66  1  0  0  0  0
M  CHG  1  75   1
M  ISO  4  41 100  60 101  74 100  83 101
M  END
> <Batch ID>
0109

> <Smiles>
C=Cc1cc(OCC(=O)[101CH2:1][101O:1]c2ccc3c(c2)CN(C(=O)C(NC(=O)C(C)NC)C(C)(C)C)C(C(=O)NC2CCCc4ccccc42)C3)c(N)cc1C[100NH:0][100C:0](=O)N1CCCC(n2nc(-c3ccc(Oc4ccc(F)cc4F)cc3)c(C(N)=O)c2N)C1

> <Shape>
0.269

> <Color>
0.121

> <Negative vol penalty>
0.000

$$$$

  -OEChem-04052301233D

 89 98  0     1  0  0  0  0  0999 V2000
  -35.6565  -33.1579   23.7066 C   0  0  0  0  0  0  0  0  0  0  0  0
  -34.9394  -32.4084   24.6337 C   0  0  0  0  0  0  0  0  0  0  0  0
  -22.8391  -10.1122   20.1053 C   0  0  0  0  0  0  0  0  0  0  0  0
  -24.2392   -9.5482   21.9917 C   0  0  0  0  0  0  0  0  0  0  0  0
  -35.0313  -33.6129   22.5465 C   0  0  0  0  0  0  0  0  0  0  0  0
  -33.5962  -32.1144   24.4016 C   0  0  0  0  0  0  0  0  0  0  0  0
  -31.2962  -25.2961   24.0683 C   0  0  0  0  0  0  0  0  0  0  0  0
  -29.2086  -17.4757   20.4927 C   0  0  0  0  0  0  0  0  0  0  0  0
  -27.2285  -18.2119   19.3204 C   0  0  0  0  0  0  0  0  0  0  0  0
  -29.5502  -16.6676   19.4083 C   0  0  0  0  0  0  0  0  0  0  0  0
  -27.5701  -17.4039   18.2360 C   0  0  0  0  0  0  0  0  0  0  0  0
  -22.1163   -8.9335   20.2893 C   0  0  0  0  0  0  0  0  0  0  0  0
  -23.5164   -8.3695   22.1758 C   0  0  0  0  0  0  0  0  0  0  0  0
  -30.7421  -24.0226   24.2003 C   0  0  0  0  0  0  0  0  0  0  0  0
  -20.5581   -7.4486   23.5253 C   0  0  0  0  0  0  0  0  0  0  0  0
  -20.1791   -7.1192   24.8266 C   0  0  0  0  0  0  0  0  0  0  0  0
  -28.5537  -24.9088   23.6773 C   0  0  0  0  0  0  0  0  0  0  0  0
  -21.4310   -5.0588   24.6696 C   0  0  0  0  0  0  0  0  0  0  0  0
  -23.9006  -10.4195   20.9564 C   0  0  0  0  0  0  0  0  0  0  0  0
  -24.1528  -12.9538   20.8095 C   0  0  0  0  0  0  0  0  0  0  0  0
  -33.6824  -33.3162   22.2954 C   0  0  0  0  0  0  0  0  0  0  0  0
  -30.4826  -26.3794   23.7248 C   0  0  0  0  0  0  0  0  0  0  0  0
  -32.9520  -32.5671   23.2376 C   0  0  0  0  0  0  0  0  0  0  0  0
  -29.1052  -26.1845   23.5314 C   0  0  0  0  0  0  0  0  0  0  0  0
  -28.0477  -18.2478   20.4488 C   0  0  0  0  0  0  0  0  0  0  0  0
  -28.7309  -16.6317   18.2799 C   0  0  0  0  0  0  0  0  0  0  0  0
  -22.4549   -8.0622   21.3246 C   0  0  0  0  0  0  0  0  0  0  0  0
  -29.3743  -23.8295   24.0055 C   0  0  0  0  0  0  0  0  0  0  0  0
  -21.3736   -6.5831   22.7961 C   0  0  0  0  0  0  0  0  0  0  0  0
  -20.6155   -5.9242   25.3988 C   0  0  0  0  0  0  0  0  0  0  0  0
  -21.8100   -5.3882   23.3683 C   0  0  0  0  0  0  0  0  0  0  0  0
  -24.6480  -11.6367   20.7665 C   0  0  0  0  0  0  0  0  0  0  0  0
  -25.2519  -13.7418   20.5694 C   0  0  0  0  0  0  0  0  0  0  0  0
  -28.8520  -20.3138   23.3268 C   0  0  0  0  0  0  0  0  0  0  0  0
  -28.5336  -20.1050   22.0210 C   0  0  0  0  0  0  0  0  0  0  0  0
  -26.9735  -17.6367   23.3783 C   0  0  0  0  0  0  0  0  0  0  0  0
  -22.8187  -13.4230   21.0455 C   0  0  0  0  0  0  0  0  0  0  0  0
  -30.2579  -30.0508   22.9860 C   0  0  0  0  0  0  0  0  0  0  0  0
  -28.4223  -28.6251   20.9840 C   0  0  0  0  0  0  0  0  0  0  0  0
  -26.8432  -26.6481   18.6960 C   0  0  0  0  0  0  0  0  0  0  0  0
  -29.8040  -14.5930   17.2883 C   0  0  0  0  0  0  0  0  0  0  0  0
  -33.0369  -33.8700   21.0499 C   0  0  0  0  0  0  0  0  0  0  0  0
  -31.0259  -27.7794   23.6322 C   0  0  0  0  0  0  0  0  0  0  0  0
  -28.2628  -27.3852   23.1971 C   0  0  0  0  0  0  0  0  0  0  0  0
  -28.4436  -19.3926   24.4716 C   0  0  0  0  0  0  0  0  0  0  0  0
  -28.2521  -17.9132   24.1383 C   0  0  0  0  0  0  0  0  0  0  0  0
  -26.5337  -18.6412   22.3416 C   0  0  0  0  0  0  0  0  0  0  0  0
  -31.7120  -33.1975   20.7000 C   0  0  0  0  0  0  0  0  0  0  0  0
  -30.1719  -12.6318   20.4045 C   0  0  0  0  0  0  0  0  0  0  0  0
  -30.8307  -33.0771   21.9392 C   0  0  0  0  0  0  0  0  0  0  0  0
  -28.7324  -12.2370   20.7289 C   0  0  0  0  0  0  0  0  0  0  0  0
  -30.3853  -12.8128   18.9047 C   0  0  0  0  0  0  0  0  0  0  0  0
  -27.9938  -13.3895   18.6057 C   0  0  0  0  0  0  0  0  0  0  0  0
  -31.5000  -32.2066   23.0097 C   0  0  1  0  0  0  0  0  0  0  0  0
  -30.3425  -28.6209   22.5394 C   0  0  1  0  0  0  0  0  0  0  0  0
  -27.7430  -13.2405   20.1138 C   0  0  1  0  0  0  0  0  0  0  0  0
  -29.0081  -21.0707   20.9498 C   0  0  0  0  0  0  0  0  0  0  0  0
  -30.0459  -17.2878   15.4500 C   0  0  0  0  0  0  0  0  0  0  0  0
  -25.4226  -26.7736   16.6311 C   0  0  0  0  0  0  0  0  0  0  0  0
  -26.0103  -29.3760   22.6935 C   0  0  0  0  0  0  0  0  0  0  0  0
  -24.5342  -28.5682   20.8396 C   0  0  0  0  0  0  0  0  0  0  0  0
  -26.0859  -30.4826   20.4520 C   0  0  0  0  0  0  0  0  0  0  0  0
  -28.8633  -25.2123   17.0784 C   0  0  0  0  0  0  0  0  0  0  0  0
  -29.6866  -21.4797   23.8092 C   0  0  0  0  0  0  0  0  0  1  0  0
  -28.9162  -16.3462   15.8152 C   0  0  0  0  0  0  0  0  0  0  0  0
  -27.0287  -28.1464   20.6645 C   0  0  1  0  0  0  0  0  0  0  0  0
  -26.8379  -26.6705   17.1781 C   0  0  2  0  0  0  0  0  0  0  0  0
  -25.9341  -29.1260   21.1741 C   0  0  0  0  0  0  0  0  0  0  0  0
  -25.9594  -11.5867   20.5184 N   0  0  0  0  0  0  0  0  0  0  0  0
  -26.2977  -12.8822   20.4033 N   0  0  0  0  0  0  0  0  0  0  0  0
  -27.6979  -19.0714   21.5566 N   0  0  0  0  0  0  0  0  0  0  0  0
  -28.9600  -28.2302   22.2150 N   0  0  0  0  0  0  0  0  0  0  0  0
  -29.3990  -13.7240   18.3222 N   0  0  0  0  0  0  0  0  0  0  0  0
  -25.4160  -15.0791   20.4862 N   0  0  0  0  0  0  0  0  0  0  0  0
  -21.8090  -12.4784   21.2748 N   0  0  0  0  0  0  0  0  0  0  0  0
  -31.3729  -30.8048   22.6732 N   0  0  0  0  0  0  0  0  0  0  0  0
  -26.9976  -27.9121   19.2249 N   0  0  0  0  0  0  0  0  0  0  0  0
  -29.0842  -15.7961   17.1585 N   0  0  0  0  0  0  0  0  0  0  0  0
  -27.4606  -25.4282   16.6395 N   0  3  0  0  0  0  0  0  0  0  0  0
  -26.3165  -16.6170   23.5923 O   0  0  0  0  0  0  0  0  0  0  0  0
  -22.5275  -14.6431   21.0366 O   0  0  0  0  0  0  0  0  0  0  0  0
  -29.2546  -30.4430   23.5702 O   0  0  0  0  0  0  0  0  0  0  0  0
  -29.0180  -29.3347   20.1686 O   0  0  0  0  0  0  0  0  0  0  0  0
  -26.7188  -25.6133   19.3473 O   0  0  0  0  0  0  0  0  0  0  0  0
  -30.7084  -14.2940   16.4988 O   0  0  0  0  0  0  0  0  0  0  0  0
  -21.7497   -6.9120   21.5046 O   0  0  0  0  0  0  0  0  0  0  0  0
  -28.8407  -22.5829   24.1315 O   0  0  0  0  0  0  0  0  0  1  0  0
  -20.2527   -5.6087   26.6489 F   0  0  0  0  0  0  0  0  0  0  0  0
  -22.5945   -4.5533   22.6731 F   0  0  0  0  0  0  0  0  0  0  0  0
  1  2  1  0  0  0  0
  1  5  2  0  0  0  0
  2  6  2  0  0  0  0
  3 12  2  0  0  0  0
  3 19  1  0  0  0  0
  4 13  1  0  0  0  0
  4 19  2  0  0  0  0
  5 21  1  0  0  0  0
  6 23  1  0  0  0  0
  7 14  2  0  0  0  0
  7 22  1  0  0  0  0
  8 10  2  0  0  0  0
  8 25  1  0  0  0  0
  9 11  1  0  0  0  0
  9 25  2  0  0  0  0
 10 26  1  0  0  0  0
 11 26  2  0  0  0  0
 12 27  1  0  0  0  0
 13 27  2  0  0  0  0
 14 28  1  0  0  0  0
 15 16  2  0  0  0  0
 15 29  1  0  0  0  0
 16 30  1  0  0  0  0
 17 24  1  0  0  0  0
 17 28  2  0  0  0  0
 18 30  2  0  0  0  0
 18 31  1  0  0  0  0
 19 32  1  0  0  0  0
 20 32  1  0  0  0  0
 20 33  2  0  0  0  0
 20 37  1  0  0  0  0
 21 23  2  0  0  0  0
 21 42  1  0  0  0  0
 22 24  2  0  0  0  0
 22 43  1  0  0  0  0
 23 54  1  0  0  0  0
 24 44  1  0  0  0  0
 25 71  1  0  0  0  0
 26 78  1  0  0  0  0
 27 86  1  0  0  0  0
 28 87  1  0  0  0  0
 29 31  2  0  0  0  0
 29 86  1  0  0  0  0
 30 88  1  0  0  0  0
 31 89  1  0  0  0  0
 32 69  2  0  0  0  0
 33 70  1  0  0  0  0
 33 74  1  0  0  0  0
 34 35  2  0  0  0  0
 34 45  1  0  0  0  0
 34 64  1  0  0  0  0
 35 57  1  0  0  0  0
 35 71  1  0  0  0  0
 36 46  1  0  0  0  0
 36 47  1  0  0  0  0
 36 80  2  0  0  0  0
 37 75  1  0  0  0  0
 37 81  2  0  0  0  0
 38 55  1  0  0  0  0
 38 76  1  0  0  0  0
 38 82  2  0  0  0  0
 39 66  1  0  0  0  0
 39 72  1  0  0  0  0
 39 83  2  0  0  0  0
 40 67  1  0  0  0  0
 40 77  1  0  0  0  0
 40 84  2  0  0  0  0
 41 73  1  0  0  0  0
 41 78  1  0  0  0  0
 41 85  2  0  0  0  0
 42 48  1  0  0  0  0
 43 55  1  0  0  0  0
 44 72  1  0  0  0  0
 45 46  1  0  0  0  0
 47 71  1  0  0  0  0
 48 50  1  0  0  0  0
 49 51  1  0  0  0  0
 49 52  1  0  0  0  0
 50 54  1  0  0  0  0
 51 56  1  0  0  0  0
 52 73  1  0  0  0  0
 53 56  1  0  0  0  0
 53 73  1  0  0  0  0
 54 76  1  0  0  0  0
 55 72  1  0  0  0  0
 56 70  1  0  0  0  0
 58 65  1  0  0  0  0
 59 67  1  0  0  0  0
 60 68  1  0  0  0  0
 61 68  1  0  0  0  0
 62 68  1  0  0  0  0
 63 79  1  0  0  0  0
 64 87  1  0  0  0  0
 65 78  1  0  0  0  0
 66 68  1  0  0  0  0
 66 77  1  0  0  0  0
 67 79  1  0  0  0  0
 69 70  1  0  0  0  0
M  CHG  1  79   1
M  ISO  4  41 100  64 101  78 100  87 101
M  END
> <Batch ID>
0109

> <Smiles>
CC[100N:0](c1ccc(N2CC(=O)CCC([101CH2:1][101O:1]c3ccc4c(c3)CN(C(=O)C(NC(=O)C(C)NC)C(C)(C)C)C(C(=O)NC3CCCc5ccccc53)C4)=C2C)cc1)[100C:0](=O)N1CCCC(n2nc(-c3ccc(Oc4ccc(F)cc4F)cc3)c(C(N)=O)c2N)C1

> <Shape>
0.246

> <Color>
0.180

> <Negative vol penalty>
0.000

$$$$

  -OEChem-04052301233D

 92101  0     1  0  0  0  0  0999 V2000
  -33.3982  -12.5490   22.0236 C   0  0  0  0  0  0  0  0  0  0  0  0
  -33.3224  -13.9270   21.8484 C   0  0  0  0  0  0  0  0  0  0  0  0
  -17.5871  -21.6892   20.1176 C   0  0  0  0  0  0  0  0  0  0  0  0
  -19.3580  -22.8603   18.9645 C   0  0  0  0  0  0  0  0  0  0  0  0
  -32.5079  -11.7120   21.3522 C   0  0  0  0  0  0  0  0  0  0  0  0
  -32.3567  -14.4689   21.0009 C   0  0  0  0  0  0  0  0  0  0  0  0
  -29.3928  -19.7801   21.7164 C   0  0  0  0  0  0  0  0  0  0  0  0
  -17.3083  -20.9679   18.9569 C   0  0  0  0  0  0  0  0  0  0  0  0
  -19.0792  -22.1388   17.8037 C   0  0  0  0  0  0  0  0  0  0  0  0
  -29.5920  -21.0466   21.1688 C   0  0  0  0  0  0  0  0  0  0  0  0
  -16.7960  -22.2148   15.3113 C   0  0  0  0  0  0  0  0  0  0  0  0
  -16.7371  -22.9193   14.1089 C   0  0  0  0  0  0  0  0  0  0  0  0
  -27.9460  -20.5655   19.4723 C   0  0  0  0  0  0  0  0  0  0  0  0
  -25.3545  -28.0944   19.2740 C   0  0  0  0  0  0  0  0  0  0  0  0
  -26.2615  -28.0315   21.5124 C   0  0  0  0  0  0  0  0  0  0  0  0
  -18.5378  -21.5695   13.2298 C   0  0  0  0  0  0  0  0  0  0  0  0
  -18.6120  -22.6355   20.1215 C   0  0  0  0  0  0  0  0  0  0  0  0
  -19.2906  -22.8644   22.5699 C   0  0  0  0  0  0  0  0  0  0  0  0
  -31.5246  -12.2445   20.5035 C   0  0  0  0  0  0  0  0  0  0  0  0
  -28.4749  -18.8911   21.1386 C   0  0  0  0  0  0  0  0  0  0  0  0
  -31.4532  -13.6382   20.3165 C   0  0  0  0  0  0  0  0  0  0  0  0
  -27.7350  -19.2892   20.0160 C   0  0  0  0  0  0  0  0  0  0  0  0
  -24.2707  -28.8422   19.7341 C   0  0  0  0  0  0  0  0  0  0  0  0
  -24.1823  -29.1847   21.0834 C   0  0  0  0  0  0  0  0  0  0  0  0
  -26.3499  -27.6890   20.1631 C   0  0  0  0  0  0  0  0  0  0  0  0
  -18.0543  -21.1926   17.7999 C   0  0  0  0  0  0  0  0  0  0  0  0
  -28.8707  -21.4384   20.0449 C   0  0  0  0  0  0  0  0  0  0  0  0
  -17.7259  -21.1877   15.4730 C   0  0  0  0  0  0  0  0  0  0  0  0
  -25.1777  -28.7793   21.9725 C   0  0  0  0  0  0  0  0  0  0  0  0
  -17.6080  -22.5966   13.0681 C   0  0  0  0  0  0  0  0  0  0  0  0
  -18.5968  -20.8651   14.4323 C   0  0  0  0  0  0  0  0  0  0  0  0
  -18.9001  -23.3814   21.3201 C   0  0  0  0  0  0  0  0  0  0  0  0
  -19.4402  -23.9721   23.3681 C   0  0  0  0  0  0  0  0  0  0  0  0
  -28.9684  -25.0415   19.8795 C   0  0  0  0  0  0  0  0  0  0  0  0
  -27.7820  -25.6368   20.1520 C   0  0  0  0  0  0  0  0  0  0  0  0
  -29.9159  -25.7561   18.9619 C   0  0  0  0  0  0  0  0  0  0  0  0
  -19.4996  -21.5045   22.9731 C   0  0  0  0  0  0  0  0  0  0  0  0
  -28.6776  -16.0198   19.7904 C   0  0  0  0  0  0  0  0  0  0  0  0
  -25.4415  -16.2400   19.7504 C   0  0  0  0  0  0  0  0  0  0  0  0
  -22.9837  -18.7823   19.0338 C   0  0  0  0  0  0  0  0  0  0  0  0
  -20.6301  -29.7198   22.1853 C   0  0  0  0  0  0  0  0  0  0  0  0
  -30.6147  -11.2970   19.7625 C   0  0  0  0  0  0  0  0  0  0  0  0
  -28.2521  -17.5384   21.7573 C   0  0  0  0  0  0  0  0  0  0  0  0
  -26.7230  -18.3797   19.3701 C   0  0  0  0  0  0  0  0  0  0  0  0
  -29.3891  -26.9371   18.1851 C   0  0  0  0  0  0  0  0  0  0  0  0
  -29.3799  -11.9740   19.1734 C   0  0  0  0  0  0  0  0  0  0  0  0
  -17.8040  -28.4331   23.9272 C   0  0  0  0  0  0  0  0  0  0  0  0
  -29.7690  -13.2618   18.4544 C   0  0  0  0  0  0  0  0  0  0  0  0
  -17.7997  -26.9459   23.5693 C   0  0  0  0  0  0  0  0  0  0  0  0
  -28.4521  -27.7768   19.0317 C   0  0  0  0  0  0  0  0  0  0  0  0
  -18.2559  -29.2954   22.7507 C   0  0  0  0  0  0  0  0  0  0  0  0
  -19.5475  -27.4222   21.8039 C   0  0  0  0  0  0  0  0  0  0  0  0
  -30.4036  -14.2653   19.4248 C   0  0  1  0  0  0  0  0  0  0  0  0
  -27.6659  -16.5238   20.7804 C   0  0  1  0  0  0  0  0  0  0  0  0
  -19.1523  -26.5080   22.9762 C   0  0  2  0  0  0  0  0  0  0  0  0
  -23.2180  -29.2642   18.7622 C   0  0  0  0  0  0  0  0  0  0  0  0
  -26.7180  -24.8758   20.9199 C   0  0  0  0  0  0  0  0  0  0  0  0
  -26.7340  -31.5941   25.5864 C   0  0  0  0  0  0  0  0  0  0  0  0
  -20.6318  -19.0581   19.8643 C   0  0  0  0  0  0  0  0  0  0  0  0
  -24.6749  -14.7438   17.2041 C   0  0  0  0  0  0  0  0  0  0  0  0
  -22.6879  -16.2531   16.9986 C   0  0  0  0  0  0  0  0  0  0  0  0
  -22.9131  -14.7532   18.9790 C   0  0  0  0  0  0  0  0  0  0  0  0
  -23.5305  -21.5175   20.0231 C   0  0  0  0  0  0  0  0  0  0  0  0
  -23.0227  -29.9863   21.5823 C   0  0  0  0  0  0  0  0  0  0  0  0
  -29.4485  -23.7176   20.4018 C   0  0  0  0  0  0  0  0  0  1  0  0
  -25.6489  -30.7250   24.9767 C   0  0  0  0  0  0  0  0  0  0  0  0
  -26.1786  -29.8819   23.8269 C   0  0  0  0  0  0  0  0  0  0  0  0
  -24.4182  -16.7746   18.7777 C   0  0  1  0  0  0  0  0  0  0  0  0
  -22.0822  -19.4825   20.0345 C   0  0  2  0  0  0  0  0  0  0  0  0
  -23.6998  -15.6419   17.9912 C   0  0  0  0  0  0  0  0  0  0  0  0
  -18.8072  -24.7139   21.3195 N   0  0  0  0  0  0  0  0  0  0  0  0
  -19.1414  -25.0434   22.5788 N   0  0  0  0  0  0  0  0  0  0  0  0
  -27.4547  -26.9267   19.6941 N   0  0  0  0  0  0  0  0  0  0  0  0
  -26.5456  -17.0648   20.0081 N   0  0  0  0  0  0  0  0  0  0  0  0
  -19.5455  -28.8287   22.2358 N   0  0  0  0  0  0  0  0  0  0  0  0
  -19.7967  -24.1243   24.6612 N   0  0  0  0  0  0  0  0  0  0  0  0
  -18.4144  -20.7885   23.4966 N   0  0  0  0  0  0  0  0  0  0  0  0
  -29.3833  -14.9127   20.2213 N   0  0  0  0  0  0  0  0  0  0  0  0
  -23.5219  -17.6243   19.5541 N   0  0  0  0  0  0  0  0  0  0  0  0
  -21.8174  -29.1948   21.6899 N   0  0  0  0  0  0  0  0  0  0  0  0
  -22.1631  -20.9602   19.8592 N   0  3  0  0  0  0  0  0  0  0  0  0
  -31.0608  -25.3431   18.7835 O   0  0  0  0  0  0  0  0  0  0  0  0
  -20.6196  -20.9461   22.8876 O   0  0  0  0  0  0  0  0  0  0  0  0
  -28.8072  -16.5920   18.7145 O   0  0  0  0  0  0  0  0  0  0  0  0
  -25.2640  -15.1345   20.2680 O   0  0  0  0  0  0  0  0  0  0  0  0
  -23.1871  -19.2170   17.9023 O   0  0  0  0  0  0  0  0  0  0  0  0
  -20.5480  -30.8946   22.5594 O   0  0  0  0  0  0  0  0  0  0  0  0
  -17.7827  -20.4887   16.6671 O   0  0  0  0  0  0  0  0  0  0  0  0
  -29.0638  -22.6739   19.5080 O   0  0  0  0  0  0  0  0  0  1  0  0
  -25.1084  -29.1045   23.2941 O   0  0  0  0  0  0  0  0  0  0  0  0
  -17.5502  -23.2722   11.9130 F   0  0  0  0  0  0  0  0  0  0  0  0
  -19.4914  -19.8786   14.5813 F   0  0  0  0  0  0  0  0  0  0  0  0
  1  2  1  0  0  0  0
  1  5  2  0  0  0  0
  2  6  2  0  0  0  0
  3  8  2  0  0  0  0
  3 17  1  0  0  0  0
  4  9  1  0  0  0  0
  4 17  2  0  0  0  0
  5 19  1  0  0  0  0
  6 21  1  0  0  0  0
  7 10  2  0  0  0  0
  7 20  1  0  0  0  0
  8 26  1  0  0  0  0
  9 26  2  0  0  0  0
 10 27  1  0  0  0  0
 11 12  2  0  0  0  0
 11 28  1  0  0  0  0
 12 30  1  0  0  0  0
 13 22  1  0  0  0  0
 13 27  2  0  0  0  0
 14 23  2  0  0  0  0
 14 25  1  0  0  0  0
 15 25  2  0  0  0  0
 15 29  1  0  0  0  0
 16 30  2  0  0  0  0
 16 31  1  0  0  0  0
 17 32  1  0  0  0  0
 18 32  1  0  0  0  0
 18 33  2  0  0  0  0
 18 37  1  0  0  0  0
 19 21  2  0  0  0  0
 19 42  1  0  0  0  0
 20 22  2  0  0  0  0
 20 43  1  0  0  0  0
 21 53  1  0  0  0  0
 22 44  1  0  0  0  0
 23 24  1  0  0  0  0
 23 56  1  0  0  0  0
 24 29  2  0  0  0  0
 24 64  1  0  0  0  0
 25 73  1  0  0  0  0
 26 88  1  0  0  0  0
 27 89  1  0  0  0  0
 28 31  2  0  0  0  0
 28 88  1  0  0  0  0
 29 90  1  0  0  0  0
 30 91  1  0  0  0  0
 31 92  1  0  0  0  0
 32 71  2  0  0  0  0
 33 72  1  0  0  0  0
 33 76  1  0  0  0  0
 34 35  2  0  0  0  0
 34 36  1  0  0  0  0
 34 65  1  0  0  0  0
 35 57  1  0  0  0  0
 35 73  1  0  0  0  0
 36 45  1  0  0  0  0
 36 82  2  0  0  0  0
 37 77  1  0  0  0  0
 37 83  2  0  0  0  0
 38 54  1  0  0  0  0
 38 78  1  0  0  0  0
 38 84  2  0  0  0  0
 39 68  1  0  0  0  0
 39 74  1  0  0  0  0
 39 85  2  0  0  0  0
 40 69  1  0  0  0  0
 40 79  1  0  0  0  0
 40 86  2  0  0  0  0
 41 75  1  0  0  0  0
 41 80  1  0  0  0  0
 41 87  2  0  0  0  0
 42 46  1  0  0  0  0
 43 54  1  0  0  0  0
 44 74  1  0  0  0  0
 45 50  1  0  0  0  0
 46 48  1  0  0  0  0
 47 49  1  0  0  0  0
 47 51  1  0  0  0  0
 48 53  1  0  0  0  0
 49 55  1  0  0  0  0
 50 73  1  0  0  0  0
 51 75  1  0  0  0  0
 52 55  1  0  0  0  0
 52 75  1  0  0  0  0
 53 78  1  0  0  0  0
 54 74  1  0  0  0  0
 55 72  1  0  0  0  0
 58 66  1  0  0  0  0
 59 69  1  0  0  0  0
 60 70  1  0  0  0  0
 61 70  1  0  0  0  0
 62 70  1  0  0  0  0
 63 81  1  0  0  0  0
 64 80  1  0  0  0  0
 65 89  1  0  0  0  0
 66 67  1  0  0  0  0
 67 90  1  0  0  0  0
 68 70  1  0  0  0  0
 68 79  1  0  0  0  0
 69 81  1  0  0  0  0
 71 72  1  0  0  0  0
M  CHG  1  81   1
M  ISO  4  41 100  65 101  80 100  89 101
M  END
> <Batch ID>
0109

> <Smiles>
CCCOc1cc(N2CCC(=O)C([101CH2:1][101O:1]c3ccc4c(c3)CN(C(=O)C(NC(=O)C(C)NC)C(C)(C)C)C(C(=O)NC3CCCc5ccccc53)C4)=C2C)cc(C)c1C[100NH:0][100C:0](=O)N1CCCC(n2nc(-c3ccc(Oc4ccc(F)cc4F)cc3)c(C(N)=O)c2N)C1

> <Shape>
0.236

> <Color>
0.090

> <Negative vol penalty>
0.000

$$$$

  -OEChem-04052301233D

 86 94  0     1  0  0  0  0  0999 V2000
  -27.4631  -38.2917   20.3076 C   0  0  0  0  0  0  0  0  0  0  0  0
  -28.0411  -37.0484   20.0721 C   0  0  0  0  0  0  0  0  0  0  0  0
  -24.4278  -13.3728   23.9845 C   0  0  0  0  0  0  0  0  0  0  0  0
  -23.5592  -14.9933   22.4171 C   0  0  0  0  0  0  0  0  0  0  0  0
  -29.4945  -18.5769   20.0761 C   0  0  0  0  0  0  0  0  0  0  0  0
  -26.4834  -38.4288   21.2902 C   0  0  0  0  0  0  0  0  0  0  0  0
  -27.6407  -35.9417   20.8198 C   0  0  0  0  0  0  0  0  0  0  0  0
  -27.2216  -30.1467   18.8836 C   0  0  0  0  0  0  0  0  0  0  0  0
  -29.7053  -19.9243   19.7835 C   0  0  0  0  0  0  0  0  0  0  0  0
  -23.8983  -14.1120   25.0422 C   0  0  0  0  0  0  0  0  0  0  0  0
  -23.0296  -15.7325   23.4748 C   0  0  0  0  0  0  0  0  0  0  0  0
  -28.0778  -29.0531   19.0045 C   0  0  0  0  0  0  0  0  0  0  0  0
  -21.7586  -18.2352   25.7837 C   0  0  0  0  0  0  0  0  0  0  0  0
  -21.9412  -19.6179   25.7637 C   0  0  0  0  0  0  0  0  0  0  0  0
  -26.8406  -28.3058   20.9359 C   0  0  0  0  0  0  0  0  0  0  0  0
  -27.9532  -20.5345   21.3311 C   0  0  0  0  0  0  0  0  0  0  0  0
  -24.3364  -19.3018   25.7768 C   0  0  0  0  0  0  0  0  0  0  0  0
  -24.2583  -13.8135   22.6719 C   0  0  0  0  0  0  0  0  0  0  0  0
  -28.5130  -18.2082   20.9962 C   0  0  0  0  0  0  0  0  0  0  0  0
  -24.1722  -12.0179   20.8619 C   0  0  0  0  0  0  0  0  0  0  0  0
  -26.0639  -37.3212   22.0437 C   0  0  0  0  0  0  0  0  0  0  0  0
  -26.1733  -30.3343   19.7959 C   0  0  0  0  0  0  0  0  0  0  0  0
  -26.6555  -36.0644   21.8143 C   0  0  0  0  0  0  0  0  0  0  0  0
  -25.9710  -29.4013   20.8228 C   0  0  0  0  0  0  0  0  0  0  0  0
  -27.7424  -19.1870   21.6237 C   0  0  0  0  0  0  0  0  0  0  0  0
  -28.9346  -20.9031   20.4110 C   0  0  0  0  0  0  0  0  0  0  0  0
  -23.1991  -15.2918   24.7874 C   0  0  0  0  0  0  0  0  0  0  0  0
  -27.8892  -28.1340   20.0325 C   0  0  0  0  0  0  0  0  0  0  0  0
  -22.8649  -17.3858   25.8002 C   0  0  0  0  0  0  0  0  0  0  0  0
  -23.2300  -20.1512   25.7603 C   0  0  0  0  0  0  0  0  0  0  0  0
  -24.1538  -17.9191   25.7968 C   0  0  0  0  0  0  0  0  0  0  0  0
  -24.8056  -13.0506   21.5789 C   0  0  0  0  0  0  0  0  0  0  0  0
  -25.1047  -11.6219   19.9345 C   0  0  0  0  0  0  0  0  0  0  0  0
  -28.3122  -16.7778   21.2869 C   0  0  0  0  0  0  0  0  0  0  0  0
  -22.8584  -11.4659   21.0201 C   0  0  0  0  0  0  0  0  0  0  0  0
  -25.4128  -32.5858   21.9068 C   0  0  0  0  0  0  0  0  0  0  0  0
  -28.8842  -24.6480   20.1760 C   0  0  0  0  0  0  0  0  0  0  0  0
  -22.7107  -30.8208   22.2313 C   0  0  0  0  0  0  0  0  0  0  0  0
  -21.1775  -27.7872   21.9252 C   0  0  0  0  0  0  0  0  0  0  0  0
  -29.5349  -14.6621   21.5631 C   0  0  0  0  0  0  0  0  0  0  0  0
  -25.0355  -37.5280   23.1274 C   0  0  0  0  0  0  0  0  0  0  0  0
  -25.2422  -31.5047   19.6357 C   0  0  0  0  0  0  0  0  0  0  0  0
  -24.8481  -29.5462   21.8160 C   0  0  0  0  0  0  0  0  0  0  0  0
  -24.3994  -36.2304   23.6191 C   0  0  0  0  0  0  0  0  0  0  0  0
  -27.6084  -14.7127   18.3604 C   0  0  0  0  0  0  0  0  0  0  0  0
  -25.4701  -35.1747   23.8757 C   0  0  0  0  0  0  0  0  0  0  0  0
  -27.4472  -13.2193   18.0889 C   0  0  0  0  0  0  0  0  0  0  0  0
  -28.8923  -14.9893   19.1297 C   0  0  0  0  0  0  0  0  0  0  0  0
  -28.7818  -12.7458   20.1860 C   0  0  0  0  0  0  0  0  0  0  0  0
  -26.2299  -34.8352   22.5877 C   0  0  1  0  0  0  0  0  0  0  0  0
  -24.5211  -31.8758   20.9279 C   0  0  1  0  0  0  0  0  0  0  0  0
  -27.5173  -12.3806   19.3808 C   0  0  1  0  0  0  0  0  0  0  0  0
  -26.6854  -18.8195   22.6135 C   0  0  0  0  0  0  0  0  0  0  0  0
  -18.9746  -26.6463   22.3034 C   0  0  0  0  0  0  0  0  0  0  0  0
  -23.2594  -30.7614   25.2321 C   0  0  0  0  0  0  0  0  0  0  0  0
  -21.6265  -28.8731   25.4228 C   0  0  0  0  0  0  0  0  0  0  0  0
  -20.8599  -31.1060   24.6170 C   0  0  0  0  0  0  0  0  0  0  0  0
  -30.1785  -16.5837   22.9277 C   0  0  0  0  0  0  0  0  0  0  0  0
  -20.9033  -27.1116   19.0569 C   0  0  0  0  0  0  0  0  0  0  0  0
  -28.3968  -23.3204   20.7162 C   0  0  0  0  0  0  0  0  0  0  0  0
  -28.1772  -25.8750   20.7181 C   0  0  0  0  0  0  0  0  0  1  0  0
  -22.2867  -29.6659   23.1062 C   0  0  1  0  0  0  0  0  0  0  0  0
  -19.8508  -27.3870   21.3053 C   0  0  2  0  0  0  0  0  0  0  0  0
  -22.0306  -30.0996   24.5771 C   0  0  0  0  0  0  0  0  0  0  0  0
  -26.0447  -13.2953   21.1444 N   0  0  0  0  0  0  0  0  0  0  0  0
  -26.1974  -12.4105   20.1444 N   0  0  0  0  0  0  0  0  0  0  0  0
  -23.9683  -30.7105   21.6213 N   0  0  0  0  0  0  0  0  0  0  0  0
  -28.9693  -14.1912   20.3596 N   0  0  0  0  0  0  0  0  0  0  0  0
  -25.0883  -10.6794   18.9681 N   0  0  0  0  0  0  0  0  0  0  0  0
  -22.0299  -11.9896   22.0219 N   0  0  0  0  0  0  0  0  0  0  0  0
  -29.1433  -22.2432   20.1182 N   0  0  0  0  0  0  0  0  0  0  0  0
  -25.4392  -33.9586   21.7506 N   0  0  0  0  0  0  0  0  0  0  0  0
  -21.1317  -29.0607   22.4519 N   0  0  0  0  0  0  0  0  0  0  0  0
  -29.3967  -16.0449   21.8134 N   0  0  0  0  0  0  0  0  0  0  0  0
  -20.0754  -26.5006   20.1285 N   0  3  0  0  0  0  0  0  0  0  0  0
  -27.1915  -16.3256   21.0562 O   0  0  0  0  0  0  0  0  0  0  0  0
  -22.4379  -10.5247   20.3053 O   0  0  0  0  0  0  0  0  0  0  0  0
  -26.0300  -31.9365   22.7430 O   0  0  0  0  0  0  0  0  0  0  0  0
  -29.7928  -24.7375   19.3512 O   0  0  0  0  0  0  0  0  0  0  0  0
  -21.9509  -31.7820   22.0884 O   0  0  0  0  0  0  0  0  0  0  0  0
  -22.1554  -27.0430   21.9439 O   0  0  0  0  0  0  0  0  0  0  0  0
  -30.0826  -13.9103   22.3779 O   0  0  0  0  0  0  0  0  0  0  0  0
  -22.6821  -16.0133   25.8192 O   0  0  0  0  0  0  0  0  0  0  0  0
  -28.7239  -27.0660   20.1533 O   0  0  0  0  0  0  0  0  0  1  0  0
  -23.4052  -21.4790   25.7395 F   0  0  0  0  0  0  0  0  0  0  0  0
  -25.2205  -17.1081   25.8114 F   0  0  0  0  0  0  0  0  0  0  0  0
  1  2  1  0  0  0  0
  1  6  2  0  0  0  0
  2  7  2  0  0  0  0
  3 10  2  0  0  0  0
  3 18  1  0  0  0  0
  4 11  1  0  0  0  0
  4 18  2  0  0  0  0
  5  9  2  0  0  0  0
  5 19  1  0  0  0  0
  6 21  1  0  0  0  0
  7 23  1  0  0  0  0
  8 12  2  0  0  0  0
  8 22  1  0  0  0  0
  9 26  1  0  0  0  0
 10 27  1  0  0  0  0
 11 27  2  0  0  0  0
 12 28  1  0  0  0  0
 13 14  2  0  0  0  0
 13 29  1  0  0  0  0
 14 30  1  0  0  0  0
 15 24  1  0  0  0  0
 15 28  2  0  0  0  0
 16 25  1  0  0  0  0
 16 26  2  0  0  0  0
 17 30  2  0  0  0  0
 17 31  1  0  0  0  0
 18 32  1  0  0  0  0
 19 25  2  0  0  0  0
 19 34  1  0  0  0  0
 20 32  1  0  0  0  0
 20 33  2  0  0  0  0
 20 35  1  0  0  0  0
 21 23  2  0  0  0  0
 21 41  1  0  0  0  0
 22 24  2  0  0  0  0
 22 42  1  0  0  0  0
 23 50  1  0  0  0  0
 24 43  1  0  0  0  0
 25 53  1  0  0  0  0
 26 71  1  0  0  0  0
 27 83  1  0  0  0  0
 28 84  1  0  0  0  0
 29 31  2  0  0  0  0
 29 83  1  0  0  0  0
 30 85  1  0  0  0  0
 31 86  1  0  0  0  0
 32 65  2  0  0  0  0
 33 66  1  0  0  0  0
 33 69  1  0  0  0  0
 34 74  1  0  0  0  0
 34 76  2  0  0  0  0
 35 70  1  0  0  0  0
 35 77  2  0  0  0  0
 36 51  1  0  0  0  0
 36 72  1  0  0  0  0
 36 78  2  0  0  0  0
 37 60  1  0  0  0  0
 37 61  1  0  0  0  0
 37 79  2  0  0  0  0
 38 62  1  0  0  0  0
 38 67  1  0  0  0  0
 38 80  2  0  0  0  0
 39 63  1  0  0  0  0
 39 73  1  0  0  0  0
 39 81  2  0  0  0  0
 40 68  1  0  0  0  0
 40 74  1  0  0  0  0
 40 82  2  0  0  0  0
 41 44  1  0  0  0  0
 42 51  1  0  0  0  0
 43 67  1  0  0  0  0
 44 46  1  0  0  0  0
 45 47  1  0  0  0  0
 45 48  1  0  0  0  0
 46 50  1  0  0  0  0
 47 52  1  0  0  0  0
 48 68  1  0  0  0  0
 49 52  1  0  0  0  0
 49 68  1  0  0  0  0
 50 72  1  0  0  0  0
 51 67  1  0  0  0  0
 52 66  1  0  0  0  0
 54 63  1  0  0  0  0
 55 64  1  0  0  0  0
 56 64  1  0  0  0  0
 57 64  1  0  0  0  0
 58 74  1  0  0  0  0
 59 75  1  0  0  0  0
 60 71  1  0  0  0  0
 61 84  1  0  0  0  0
 62 64  1  0  0  0  0
 62 73  1  0  0  0  0
 63 75  1  0  0  0  0
 65 66  1  0  0  0  0
M  CHG  1  75   1
M  ISO  4  40 100  61 101  74 100  84 101
M  END
> <Batch ID>
0109

> <Smiles>
CNC(C)C(=O)NC(C(=O)N1Cc2cc([101O:1][101CH2:1]C(=O)CNc3ccc(C(=O)[100N:0](C)[100C:0](=O)N4CCCC(n5nc(-c6ccc(Oc7ccc(F)cc7F)cc6)c(C(N)=O)c5N)C4)c(C)c3)ccc2CC1C(=O)NC1CCCc2ccccc21)C(C)(C)C

> <Shape>
0.300

> <Color>
0.087

> <Negative vol penalty>
0.000

$$$$

  -OEChem-04052301233D

 86 94  0     1  0  0  0  0  0999 V2000
  -16.5725  -30.2433   23.7026 C   0  0  0  0  0  0  0  0  0  0  0  0
  -17.4409  -29.6009   24.5793 C   0  0  0  0  0  0  0  0  0  0  0  0
  -26.3268  -13.8809   21.1068 C   0  0  0  0  0  0  0  0  0  0  0  0
  -26.5342  -12.1182   19.4677 C   0  0  0  0  0  0  0  0  0  0  0  0
  -16.8909  -30.3324   22.3482 C   0  0  0  0  0  0  0  0  0  0  0  0
  -18.6278  -29.0462   24.1018 C   0  0  0  0  0  0  0  0  0  0  0  0
  -25.3985  -27.7968   26.0799 C   0  0  0  0  0  0  0  0  0  0  0  0
  -25.0517  -13.4228   21.4382 C   0  0  0  0  0  0  0  0  0  0  0  0
  -25.2591  -11.6600   19.7991 C   0  0  0  0  0  0  0  0  0  0  0  0
  -26.3262  -26.7584   26.1491 C   0  0  0  0  0  0  0  0  0  0  0  0
  -23.8336   -9.8229   22.2514 C   0  0  0  0  0  0  0  0  0  0  0  0
  -23.6640   -8.4488   22.4205 C   0  0  0  0  0  0  0  0  0  0  0  0
  -27.3081  -19.4037   19.9653 C   0  0  0  0  0  0  0  0  0  0  0  0
  -27.9360  -21.3901   18.7420 C   0  0  0  0  0  0  0  0  0  0  0  0
  -26.8099  -27.0423   23.8029 C   0  0  0  0  0  0  0  0  0  0  0  0
  -22.0348   -8.4303   20.6366 C   0  0  0  0  0  0  0  0  0  0  0  0
  -27.0680  -13.2286   20.1215 C   0  0  0  0  0  0  0  0  0  0  0  0
  -27.6390  -20.0274   18.7624 C   0  0  0  0  0  0  0  0  0  0  0  0
  -29.6070  -13.3082   20.3559 C   0  0  0  0  0  0  0  0  0  0  0  0
  -18.0870  -29.7870   21.8555 C   0  0  0  0  0  0  0  0  0  0  0  0
  -25.1612  -28.4596   24.8671 C   0  0  0  0  0  0  0  0  0  0  0  0
  -18.9619  -29.1270   22.7393 C   0  0  0  0  0  0  0  0  0  0  0  0
  -25.8805  -28.0905   23.7215 C   0  0  0  0  0  0  0  0  0  0  0  0
  -27.2742  -20.1427   21.1479 C   0  0  0  0  0  0  0  0  0  0  0  0
  -27.9021  -22.1291   19.9245 C   0  0  0  0  0  0  0  0  0  0  0  0
  -24.5178  -12.3123   20.7844 C   0  0  0  0  0  0  0  0  0  0  0  0
  -27.0300  -26.3790   25.0098 C   0  0  0  0  0  0  0  0  0  0  0  0
  -23.1037  -10.5008   21.2749 C   0  0  0  0  0  0  0  0  0  0  0  0
  -27.5712  -21.5054   21.1275 C   0  0  0  0  0  0  0  0  0  0  0  0
  -22.7646   -7.7525   21.6132 C   0  0  0  0  0  0  0  0  0  0  0  0
  -22.2043   -9.8044   20.4675 C   0  0  0  0  0  0  0  0  0  0  0  0
  -28.3850  -13.7018   19.7783 C   0  0  0  0  0  0  0  0  0  0  0  0
  -30.5555  -14.0416   19.6860 C   0  0  0  0  0  0  0  0  0  0  0  0
  -27.6761  -19.2462   17.5129 C   0  0  0  0  0  0  0  0  0  0  0  0
  -29.8619  -12.3639   21.4043 C   0  0  0  0  0  0  0  0  0  0  0  0
  -22.6378  -28.8312   22.9703 C   0  0  0  0  0  0  0  0  0  0  0  0
  -24.6258  -30.8319   21.3681 C   0  0  0  0  0  0  0  0  0  0  0  0
  -27.8266  -31.7463   20.6158 C   0  0  0  0  0  0  0  0  0  0  0  0
  -27.1666  -17.0303   16.5951 C   0  0  0  0  0  0  0  0  0  0  0  0
  -18.3656  -29.8667   20.3754 C   0  0  0  0  0  0  0  0  0  0  0  0
  -24.1766  -29.5955   24.8152 C   0  0  0  0  0  0  0  0  0  0  0  0
  -25.6773  -28.7837   22.4000 C   0  0  0  0  0  0  0  0  0  0  0  0
  -19.8208  -29.5809   20.0133 C   0  0  0  0  0  0  0  0  0  0  0  0
  -29.7962  -14.8923   15.4852 C   0  0  0  0  0  0  0  0  0  0  0  0
  -20.3183  -28.3375   20.7436 C   0  0  0  0  0  0  0  0  0  0  0  0
  -30.9213  -15.1053   16.4939 C   0  0  0  0  0  0  0  0  0  0  0  0
  -29.0492  -16.1916   15.2184 C   0  0  0  0  0  0  0  0  0  0  0  0
  -29.5549  -17.0195   17.5035 C   0  0  0  0  0  0  0  0  0  0  0  0
  -20.2707  -28.5345   22.2636 C   0  0  1  0  0  0  0  0  0  0  0  0
  -23.6415  -29.8588   23.4110 C   0  0  1  0  0  0  0  0  0  0  0  0
  -30.4517  -15.7949   17.7862 C   0  0  1  0  0  0  0  0  0  0  0  0
  -26.9159  -19.4569   22.4253 C   0  0  0  0  0  0  0  0  0  0  0  0
  -29.1347  -33.3946   19.2486 C   0  0  0  0  0  0  0  0  0  0  0  0
  -23.9953  -29.2359   18.8451 C   0  0  0  0  0  0  0  0  0  0  0  0
  -25.9950  -30.2860   17.7650 C   0  0  0  0  0  0  0  0  0  0  0  0
  -24.0917  -31.7132   18.5156 C   0  0  0  0  0  0  0  0  0  0  0  0
  -25.4030  -18.2506   17.7652 C   0  0  0  0  0  0  0  0  0  0  0  0
  -29.1081  -32.9002   23.0210 C   0  0  0  0  0  0  0  0  0  0  0  0
  -28.5464  -23.1770   24.2620 C   0  0  0  0  0  0  0  0  0  0  0  0
  -28.1301  -24.5917   23.8911 C   0  0  0  0  0  0  0  0  0  1  0  0
  -28.7478  -22.3029   23.0341 C   0  0  0  0  0  0  0  0  0  0  0  0
  -25.6197  -30.6763   20.2425 C   0  0  1  0  0  0  0  0  0  0  0  0
  -28.5107  -33.1014   20.6041 C   0  0  2  0  0  0  0  0  0  0  0  0
  -24.9281  -30.4633   18.8664 C   0  0  0  0  0  0  0  0  0  0  0  0
  -28.5401  -14.6145   18.8156 N   0  0  0  0  0  0  0  0  0  0  0  0
  -29.8707  -14.8006   18.7831 N   0  0  0  0  0  0  0  0  0  0  0  0
  -24.6992  -29.8841   22.3987 N   0  0  0  0  0  0  0  0  0  0  0  0
  -28.5472  -16.7836   16.4575 N   0  0  0  0  0  0  0  0  0  0  0  0
  -28.2046  -23.5082   19.8875 N   0  0  0  0  0  0  0  0  0  0  0  0
  -31.9002  -14.1049   19.7870 N   0  0  0  0  0  0  0  0  0  0  0  0
  -28.7729  -11.6984   21.9834 N   0  0  0  0  0  0  0  0  0  0  0  0
  -21.3843  -29.3476   22.7030 N   0  0  0  0  0  0  0  0  0  0  0  0
  -26.4882  -31.8471   20.3000 N   0  0  0  0  0  0  0  0  0  0  0  0
  -26.8144  -18.1372   17.3946 N   0  0  0  0  0  0  0  0  0  0  0  0
  -29.5849  -33.1482   21.6360 N   0  3  0  0  0  0  0  0  0  0  0  0
  -28.4580  -19.6319   16.6444 O   0  0  0  0  0  0  0  0  0  0  0  0
  -31.0196  -12.1298   21.8267 O   0  0  0  0  0  0  0  0  0  0  0  0
  -22.9760  -27.6569   22.8781 O   0  0  0  0  0  0  0  0  0  0  0  0
  -23.8189  -31.7644   21.3377 O   0  0  0  0  0  0  0  0  0  0  0  0
  -28.4209  -30.7023   20.8752 O   0  0  0  0  0  0  0  0  0  0  0  0
  -26.3069  -16.3414   16.0342 O   0  0  0  0  0  0  0  0  0  0  0  0
  -23.2737  -11.8649   21.1076 O   0  0  0  0  0  0  0  0  0  0  0  0
  -27.9356  -25.3653   25.0744 O   0  0  0  0  0  0  0  0  0  1  0  0
  -27.5384  -22.2286   22.2913 O   0  0  0  0  0  0  0  0  0  0  0  0
  -22.6030   -6.4326   21.7747 F   0  0  0  0  0  0  0  0  0  0  0  0
  -21.5012  -10.4499   19.5269 F   0  0  0  0  0  0  0  0  0  0  0  0
  1  2  1  0  0  0  0
  1  5  2  0  0  0  0
  2  6  2  0  0  0  0
  3  8  2  0  0  0  0
  3 17  1  0  0  0  0
  4  9  1  0  0  0  0
  4 17  2  0  0  0  0
  5 20  1  0  0  0  0
  6 22  1  0  0  0  0
  7 10  2  0  0  0  0
  7 21  1  0  0  0  0
  8 26  1  0  0  0  0
  9 26  2  0  0  0  0
 10 27  1  0  0  0  0
 11 12  2  0  0  0  0
 11 28  1  0  0  0  0
 12 30  1  0  0  0  0
 13 18  1  0  0  0  0
 13 24  2  0  0  0  0
 14 18  2  0  0  0  0
 14 25  1  0  0  0  0
 15 23  1  0  0  0  0
 15 27  2  0  0  0  0
 16 30  2  0  0  0  0
 16 31  1  0  0  0  0
 17 32  1  0  0  0  0
 18 34  1  0  0  0  0
 19 32  1  0  0  0  0
 19 33  2  0  0  0  0
 19 35  1  0  0  0  0
 20 22  2  0  0  0  0
 20 40  1  0  0  0  0
 21 23  2  0  0  0  0
 21 41  1  0  0  0  0
 22 49  1  0  0  0  0
 23 42  1  0  0  0  0
 24 29  1  0  0  0  0
 24 52  1  0  0  0  0
 25 29  2  0  0  0  0
 25 69  1  0  0  0  0
 26 82  1  0  0  0  0
 27 83  1  0  0  0  0
 28 31  2  0  0  0  0
 28 82  1  0  0  0  0
 29 84  1  0  0  0  0
 30 85  1  0  0  0  0
 31 86  1  0  0  0  0
 32 65  2  0  0  0  0
 33 66  1  0  0  0  0
 33 70  1  0  0  0  0
 34 74  1  0  0  0  0
 34 76  2  0  0  0  0
 35 71  1  0  0  0  0
 35 77  2  0  0  0  0
 36 50  1  0  0  0  0
 36 72  1  0  0  0  0
 36 78  2  0  0  0  0
 37 62  1  0  0  0  0
 37 67  1  0  0  0  0
 37 79  2  0  0  0  0
 38 63  1  0  0  0  0
 38 73  1  0  0  0  0
 38 80  2  0  0  0  0
 39 68  1  0  0  0  0
 39 74  1  0  0  0  0
 39 81  2  0  0  0  0
 40 43  1  0  0  0  0
 41 50  1  0  0  0  0
 42 67  1  0  0  0  0
 43 45  1  0  0  0  0
 44 46  1  0  0  0  0
 44 47  1  0  0  0  0
 45 49  1  0  0  0  0
 46 51  1  0  0  0  0
 47 68  1  0  0  0  0
 48 51  1  0  0  0  0
 48 68  1  0  0  0  0
 49 72  1  0  0  0  0
 50 67  1  0  0  0  0
 51 66  1  0  0  0  0
 53 63  1  0  0  0  0
 54 64  1  0  0  0  0
 55 64  1  0  0  0  0
 56 64  1  0  0  0  0
 57 74  1  0  0  0  0
 58 75  1  0  0  0  0
 59 60  1  0  0  0  0
 59 61  1  0  0  0  0
 60 83  1  0  0  0  0
 61 84  1  0  0  0  0
 62 64  1  0  0  0  0
 62 73  1  0  0  0  0
 63 75  1  0  0  0  0
 65 66  1  0  0  0  0
M  CHG  1  75   1
M  ISO  4  39 100  60 101  74 100  83 101
M  END
> <Batch ID>
0109

> <Smiles>
CNC(C)C(=O)NC(C(=O)N1Cc2cc([101O:1][101CH2:1]CCOc3c(C)cc(C(=O)[100N:0](C)[100C:0](=O)N4CCCC(n5nc(-c6ccc(Oc7ccc(F)cc7F)cc6)c(C(N)=O)c5N)C4)cc3N)ccc2CC1C(=O)NC1CCCc2ccccc21)C(C)(C)C

> <Shape>
0.243

> <Color>
0.086

> <Negative vol penalty>
0.000

$$$$

  -OEChem-04052301233D

 86 95  0     1  0  0  0  0  0999 V2000
  -32.3119  -25.1347   15.4445 C   0  0  0  0  0  0  0  0  0  0  0  0
  -31.0507  -24.6433   15.1233 C   0  0  0  0  0  0  0  0  0  0  0  0
  -27.9938  -17.0024   21.3201 C   0  0  0  0  0  0  0  0  0  0  0  0
  -27.5117  -17.0955   18.9545 C   0  0  0  0  0  0  0  0  0  0  0  0
  -32.6021  -25.5017   16.7579 C   0  0  0  0  0  0  0  0  0  0  0  0
  -30.0792  -24.5174   16.1157 C   0  0  0  0  0  0  0  0  0  0  0  0
  -22.9936  -24.9465   17.0783 C   0  0  0  0  0  0  0  0  0  0  0  0
  -28.6666  -18.2210   21.2309 C   0  0  0  0  0  0  0  0  0  0  0  0
  -28.1845  -18.3142   18.8653 C   0  0  0  0  0  0  0  0  0  0  0  0
  -21.9313  -24.2109   17.6017 C   0  0  0  0  0  0  0  0  0  0  0  0
  -27.8662  -21.5020   21.0656 C   0  0  0  0  0  0  0  0  0  0  0  0
  -27.6066  -22.4590   22.0465 C   0  0  0  0  0  0  0  0  0  0  0  0
  -20.0155  -16.9111   21.4775 C   0  0  0  0  0  0  0  0  0  0  0  0
  -22.5205  -24.9504   19.8210 C   0  0  0  0  0  0  0  0  0  0  0  0
  -29.9384  -22.4437   22.6785 C   0  0  0  0  0  0  0  0  0  0  0  0
  -20.6698  -16.4111   23.6510 C   0  0  0  0  0  0  0  0  0  0  0  0
  -27.4164  -16.4396   20.1818 C   0  0  0  0  0  0  0  0  0  0  0  0
  -20.4111  -15.8987   22.3988 C   0  0  0  0  0  0  0  0  0  0  0  0
  -27.2529  -13.9448   20.6887 C   0  0  0  0  0  0  0  0  0  0  0  0
  -31.6307  -25.3893   17.7650 C   0  0  0  0  0  0  0  0  0  0  0  0
  -23.8354  -25.6822   17.9249 C   0  0  0  0  0  0  0  0  0  0  0  0
  -30.3571  -24.8819   17.4441 C   0  0  0  0  0  0  0  0  0  0  0  0
  -23.5913  -25.6966   19.3056 C   0  0  0  0  0  0  0  0  0  0  0  0
  -28.7619  -18.8769   20.0036 C   0  0  0  0  0  0  0  0  0  0  0  0
  -21.6963  -24.2104   18.9736 C   0  0  0  0  0  0  0  0  0  0  0  0
  -29.1619  -21.0157   20.8911 C   0  0  0  0  0  0  0  0  0  0  0  0
  -28.6427  -22.9299   22.8530 C   0  0  0  0  0  0  0  0  0  0  0  0
  -30.1980  -21.4866   21.6976 C   0  0  0  0  0  0  0  0  0  0  0  0
  -26.7218  -15.1805   20.2731 C   0  0  0  0  0  0  0  0  0  0  0  0
  -26.1980  -13.0699   20.5985 C   0  0  0  0  0  0  0  0  0  0  0  0
  -19.9868  -18.1588   22.0608 C   0  0  0  0  0  0  0  0  0  0  0  0
  -20.0067  -21.7269   20.9737 C   0  0  0  0  0  0  0  0  0  0  0  0
  -20.4758  -20.4985   21.3020 C   0  0  0  0  0  0  0  0  0  0  0  0
  -18.5255  -21.8928   20.7909 C   0  0  0  0  0  0  0  0  0  0  0  0
  -20.5369  -14.4975   22.0957 C   0  0  0  0  0  0  0  0  0  0  0  0
  -28.5811  -13.6171   21.1179 C   0  0  0  0  0  0  0  0  0  0  0  0
  -20.2549  -13.9615   20.7442 C   0  0  0  0  0  0  0  0  0  0  0  0
  -26.9329  -25.5982   18.6335 C   0  0  0  0  0  0  0  0  0  0  0  0
  -26.2237  -28.2830   20.3102 C   0  0  0  0  0  0  0  0  0  0  0  0
  -23.5573  -29.4180   22.4594 C   0  0  0  0  0  0  0  0  0  0  0  0
  -32.0059  -25.7541   19.1795 C   0  0  0  0  0  0  0  0  0  0  0  0
  -24.9609  -26.4920   17.3419 C   0  0  0  0  0  0  0  0  0  0  0  0
  -24.4534  -26.4862   20.2552 C   0  0  0  0  0  0  0  0  0  0  0  0
  -17.6239  -20.7262   21.1152 C   0  0  0  0  0  0  0  0  0  0  0  0
  -30.8025  -25.9421   20.0997 C   0  0  0  0  0  0  0  0  0  0  0  0
  -22.1470  -12.3073   18.1868 C   0  0  0  0  0  0  0  0  0  0  0  0
  -29.8105  -24.7971   19.9219 C   0  0  0  0  0  0  0  0  0  0  0  0
  -23.5782  -12.7760   18.4475 C   0  0  0  0  0  0  0  0  0  0  0  0
  -18.2966  -19.3964   20.8229 C   0  0  0  0  0  0  0  0  0  0  0  0
  -21.1337  -13.3998   18.5124 C   0  0  0  0  0  0  0  0  0  0  0  0
  -22.6797  -14.4022   20.1719 C   0  0  0  0  0  0  0  0  0  0  0  0
  -29.2689  -24.7540   18.4879 C   0  0  1  0  0  0  0  0  0  0  0  0
  -26.0658  -26.7921   18.3501 C   0  0  1  0  0  0  0  0  0  0  0  0
  -23.7299  -13.3160   19.8807 C   0  0  2  0  0  0  0  0  0  0  0  0
  -21.9691  -20.2702   21.4346 C   0  0  0  0  0  0  0  0  0  0  0  0
  -22.7359  -31.7370   22.9545 C   0  0  0  0  0  0  0  0  0  0  0  0
  -28.1189  -28.1323   22.6968 C   0  0  0  0  0  0  0  0  0  0  0  0
  -26.4034  -29.3574   24.0475 C   0  0  0  0  0  0  0  0  0  0  0  0
  -27.4320  -30.4498   22.0547 C   0  0  0  0  0  0  0  0  0  0  0  0
  -20.7893  -28.7316   21.6682 C   0  0  0  0  0  0  0  0  0  0  0  0
  -20.8173  -22.9815   20.8102 C   0  0  0  0  0  0  0  0  0  1  0  0
  -25.7700  -28.5742   21.7202 C   0  0  1  0  0  0  0  0  0  0  0  0
  -22.5163  -30.4744   22.1356 C   0  0  2  0  0  0  0  0  0  0  0  0
  -26.9245  -29.1040   22.6168 C   0  0  0  0  0  0  0  0  0  0  0  0
  -25.4299  -15.1018   19.9433 N   0  0  0  0  0  0  0  0  0  0  0  0
  -20.9068  -13.5898   22.9709 N   0  0  0  0  0  0  0  0  0  0  0  0
  -25.1404  -13.8060   20.1515 N   0  0  0  0  0  0  0  0  0  0  0  0
  -19.6333  -19.3782   21.4274 N   0  0  0  0  0  0  0  0  0  0  0  0
  -21.3287  -13.9151   19.8662 N   0  0  0  0  0  0  0  0  0  0  0  0
  -25.5452  -27.2569   19.6374 N   0  0  0  0  0  0  0  0  0  0  0  0
  -26.0812  -11.7504   20.8587 N   0  0  0  0  0  0  0  0  0  0  0  0
  -29.5127  -13.2075   20.1542 N   0  0  0  0  0  0  0  0  0  0  0  0
  -28.2615  -25.7753   18.2972 N   0  0  0  0  0  0  0  0  0  0  0  0
  -24.6369  -29.4858   21.6044 N   0  0  0  0  0  0  0  0  0  0  0  0
  -21.1481  -29.9591   22.4242 N   0  3  0  0  0  0  0  0  0  0  0  0
  -18.0506  -22.9721   20.4381 O   0  0  0  0  0  0  0  0  0  0  0  0
  -28.9268  -13.6698   22.3226 O   0  0  0  0  0  0  0  0  0  0  0  0
  -19.0979  -13.6151   20.5451 O   0  0  0  0  0  0  0  0  0  0  0  0
  -26.4339  -24.5914   19.1224 O   0  0  0  0  0  0  0  0  0  0  0  0
  -27.1415  -28.9464   19.8210 O   0  0  0  0  0  0  0  0  0  0  0  0
  -23.4275  -28.6155   23.3811 O   0  0  0  0  0  0  0  0  0  0  0  0
  -29.4181  -20.0662   19.9163 O   0  0  0  0  0  0  0  0  0  0  0  0
  -20.6604  -23.4927   19.4871 O   0  0  0  0  0  0  0  0  0  1  0  0
  -28.3936  -23.8501   23.7939 F   0  0  0  0  0  0  0  0  0  0  0  0
  -31.4450  -21.0241   21.5339 F   0  0  0  0  0  0  0  0  0  0  0  0
  -20.4357  -18.1063   23.7125 S   0  0  0  0  0  0  0  0  0  0  0  0
  1  2  1  0  0  0  0
  1  5  2  0  0  0  0
  2  6  2  0  0  0  0
  3  8  2  0  0  0  0
  3 17  1  0  0  0  0
  4  9  1  0  0  0  0
  4 17  2  0  0  0  0
  5 20  1  0  0  0  0
  6 22  1  0  0  0  0
  7 10  2  0  0  0  0
  7 21  1  0  0  0  0
  8 24  1  0  0  0  0
  9 24  2  0  0  0  0
 10 25  1  0  0  0  0
 11 12  2  0  0  0  0
 11 26  1  0  0  0  0
 12 27  1  0  0  0  0
 13 18  1  0  0  0  0
 13 31  2  0  0  0  0
 14 23  1  0  0  0  0
 14 25  2  0  0  0  0
 15 27  2  0  0  0  0
 15 28  1  0  0  0  0
 16 18  2  0  0  0  0
 16 86  1  0  0  0  0
 17 29  1  0  0  0  0
 18 35  1  0  0  0  0
 19 29  1  0  0  0  0
 19 30  2  0  0  0  0
 19 36  1  0  0  0  0
 20 22  2  0  0  0  0
 20 41  1  0  0  0  0
 21 23  2  0  0  0  0
 21 42  1  0  0  0  0
 22 52  1  0  0  0  0
 23 43  1  0  0  0  0
 24 82  1  0  0  0  0
 25 83  1  0  0  0  0
 26 28  2  0  0  0  0
 26 82  1  0  0  0  0
 27 84  1  0  0  0  0
 28 85  1  0  0  0  0
 29 65  2  0  0  0  0
 30 67  1  0  0  0  0
 30 71  1  0  0  0  0
 31 68  1  0  0  0  0
 31 86  1  0  0  0  0
 32 33  2  0  0  0  0
 32 34  1  0  0  0  0
 32 61  1  0  0  0  0
 33 55  1  0  0  0  0
 33 68  1  0  0  0  0
 34 44  1  0  0  0  0
 34 76  2  0  0  0  0
 35 37  1  0  0  0  0
 35 66  2  0  0  0  0
 36 72  1  0  0  0  0
 36 77  2  0  0  0  0
 37 69  1  0  0  0  0
 37 78  2  0  0  0  0
 38 53  1  0  0  0  0
 38 73  1  0  0  0  0
 38 79  2  0  0  0  0
 39 62  1  0  0  0  0
 39 70  1  0  0  0  0
 39 80  2  0  0  0  0
 40 63  1  0  0  0  0
 40 74  1  0  0  0  0
 40 81  2  0  0  0  0
 41 45  1  0  0  0  0
 42 53  1  0  0  0  0
 43 70  1  0  0  0  0
 44 49  1  0  0  0  0
 45 47  1  0  0  0  0
 46 48  1  0  0  0  0
 46 50  1  0  0  0  0
 47 52  1  0  0  0  0
 48 54  1  0  0  0  0
 49 68  1  0  0  0  0
 50 69  1  0  0  0  0
 51 54  1  0  0  0  0
 51 69  1  0  0  0  0
 52 73  1  0  0  0  0
 53 70  1  0  0  0  0
 54 67  1  0  0  0  0
 56 63  1  0  0  0  0
 57 64  1  0  0  0  0
 58 64  1  0  0  0  0
 59 64  1  0  0  0  0
 60 75  1  0  0  0  0
 61 83  1  0  0  0  0
 62 64  1  0  0  0  0
 62 74  1  0  0  0  0
 63 75  1  0  0  0  0
 65 67  1  0  0  0  0
M  CHG  1  75   1
M  ISO  4  35 100  37 100  61 101  83 101
M  END
> <Batch ID>
0109

> <Smiles>
CNC(C)C(=O)NC(C(=O)N1Cc2cc([101O:1][101CH2:1]C3=C(C)N(c4cc([100C:0](=N)[100C:0](=O)N5CCCC(n6nc(-c7ccc(Oc8ccc(F)cc8F)cc7)c(C(N)=O)c6N)C5)cs4)CCC3=O)ccc2CC1C(=O)NC1CCCc2ccccc21)C(C)(C)C

> <Shape>
0.218

> <Color>
0.081

> <Negative vol penalty>
0.000

$$$$

  -OEChem-04052301233D

 89 98  0     1  0  0  0  0  0999 V2000
  -19.8385  -34.0068   20.8148 C   0  0  0  0  0  0  0  0  0  0  0  0
  -21.0418  -33.4352   20.4139 C   0  0  0  0  0  0  0  0  0  0  0  0
  -24.1134   -9.4638   22.8844 C   0  0  0  0  0  0  0  0  0  0  0  0
  -24.0051   -9.9682   20.5241 C   0  0  0  0  0  0  0  0  0  0  0  0
  -19.2108  -33.5634   21.9781 C   0  0  0  0  0  0  0  0  0  0  0  0
  -21.6187  -32.4205   21.1768 C   0  0  0  0  0  0  0  0  0  0  0  0
  -24.8163  -27.6243   19.1085 C   0  0  0  0  0  0  0  0  0  0  0  0
  -23.0831   -8.5358   22.7334 C   0  0  0  0  0  0  0  0  0  0  0  0
  -22.9748   -9.0402   20.3731 C   0  0  0  0  0  0  0  0  0  0  0  0
  -26.1858  -27.3831   19.0078 C   0  0  0  0  0  0  0  0  0  0  0  0
  -22.7310   -5.3649   21.6133 C   0  0  0  0  0  0  0  0  0  0  0  0
  -22.8796   -4.1246   22.2338 C   0  0  0  0  0  0  0  0  0  0  0  0
  -26.1270  -26.2051   21.1121 C   0  0  0  0  0  0  0  0  0  0  0  0
  -29.9483  -20.9548   19.9138 C   0  0  0  0  0  0  0  0  0  0  0  0
  -28.5401  -22.4218   18.6093 C   0  0  0  0  0  0  0  0  0  0  0  0
  -20.8765   -4.5293   23.5226 C   0  0  0  0  0  0  0  0  0  0  0  0
  -24.5744  -10.1801   21.7797 C   0  0  0  0  0  0  0  0  0  0  0  0
  -26.9452  -10.8919   22.3964 C   0  0  0  0  0  0  0  0  0  0  0  0
  -19.7754  -32.5361   22.7505 C   0  0  0  0  0  0  0  0  0  0  0  0
  -24.0927  -27.1664   20.2190 C   0  0  0  0  0  0  0  0  0  0  0  0
  -20.9986  -31.9638   22.3523 C   0  0  0  0  0  0  0  0  0  0  0  0
  -24.7479  -26.4396   21.2233 C   0  0  0  0  0  0  0  0  0  0  0  0
  -29.2931  -19.8472   19.3757 C   0  0  0  0  0  0  0  0  0  0  0  0
  -28.2614  -20.0269   18.4543 C   0  0  0  0  0  0  0  0  0  0  0  0
  -29.5718  -22.2421   19.5307 C   0  0  0  0  0  0  0  0  0  0  0  0
  -22.5138   -8.3240   21.4778 C   0  0  0  0  0  0  0  0  0  0  0  0
  -26.8419  -26.6759   20.0110 C   0  0  0  0  0  0  0  0  0  0  0  0
  -21.6551   -6.1875   21.9475 C   0  0  0  0  0  0  0  0  0  0  0  0
  -27.8849  -21.3142   18.0711 C   0  0  0  0  0  0  0  0  0  0  0  0
  -21.9524   -3.7067   23.1884 C   0  0  0  0  0  0  0  0  0  0  0  0
  -20.7279   -5.7697   22.9021 C   0  0  0  0  0  0  0  0  0  0  0  0
  -25.6383  -11.1392   21.9352 C   0  0  0  0  0  0  0  0  0  0  0  0
  -27.5606  -12.1192   22.3587 C   0  0  0  0  0  0  0  0  0  0  0  0
  -31.3006  -23.3495   21.0186 C   0  0  0  0  0  0  0  0  0  0  0  0
  -27.5489   -9.6627   22.8209 C   0  0  0  0  0  0  0  0  0  0  0  0
  -22.4215  -28.5588   22.5368 C   0  0  0  0  0  0  0  0  0  0  0  0
  -21.6881  -25.4964   23.3152 C   0  0  0  0  0  0  0  0  0  0  0  0
  -22.5336  -22.1925   23.1872 C   0  0  0  0  0  0  0  0  0  0  0  0
  -26.7784  -16.8830   19.1491 C   0  0  0  0  0  0  0  0  0  0  0  0
  -19.0840  -32.1228   24.0256 C   0  0  0  0  0  0  0  0  0  0  0  0
  -22.6109  -27.4117   20.2997 C   0  0  0  0  0  0  0  0  0  0  0  0
  -24.0129  -25.9089   22.4260 C   0  0  0  0  0  0  0  0  0  0  0  0
  -31.7051  -24.7783   21.2945 C   0  0  0  0  0  0  0  0  0  0  0  0
  -19.5709  -30.7850   24.5764 C   0  0  0  0  0  0  0  0  0  0  0  0
  -31.1395  -25.5403   20.1111 C   0  0  0  0  0  0  0  0  0  0  0  0
  -26.6354  -16.7940   22.6766 C   0  0  0  0  0  0  0  0  0  0  0  0
  -21.0951  -30.7268   24.5672 C   0  0  0  0  0  0  0  0  0  0  0  0
  -26.4806  -15.2961   22.9355 C   0  0  0  0  0  0  0  0  0  0  0  0
  -25.8181  -17.2558   21.4686 C   0  0  0  0  0  0  0  0  0  0  0  0
  -25.9304  -14.9843   20.4938 C   0  0  0  0  0  0  0  0  0  0  0  0
  -21.6432  -30.8438   23.1398 C   0  0  1  0  0  0  0  0  0  0  0  0
  -22.0709  -27.3441   21.7249 C   0  0  1  0  0  0  0  0  0  0  0  0
  -26.7886  -14.4836   21.6658 C   0  0  2  0  0  0  0  0  0  0  0  0
  -29.8885  -24.7527   19.7380 C   0  0  2  0  0  0  0  0  0  0  0  0
  -29.7147  -18.4792   19.8022 C   0  0  0  0  0  0  0  0  0  0  0  0
  -21.7582  -19.9299   23.9464 C   0  0  0  0  0  0  0  0  0  0  0  0
  -22.6603  -26.1138   26.1408 C   0  0  0  0  0  0  0  0  0  0  0  0
  -22.7616  -23.6493   26.5695 C   0  0  0  0  0  0  0  0  0  0  0  0
  -20.5791  -24.7313   26.0324 C   0  0  0  0  0  0  0  0  0  0  0  0
  -25.4386  -19.0299   19.1229 C   0  0  0  0  0  0  0  0  0  0  0  0
  -22.2723  -21.2202   20.4042 C   0  0  0  0  0  0  0  0  0  0  0  0
  -26.5616  -22.8589   16.8387 C   0  0  0  0  0  0  0  0  0  0  0  0
  -27.5569  -18.8432   17.8724 C   0  0  0  0  0  0  0  0  0  0  0  0
  -28.6726  -25.2475   20.5247 C   0  0  0  0  0  0  0  0  0  1  0  0
  -22.3025  -24.4431   24.2052 C   0  0  1  0  0  0  0  0  0  0  0  0
  -21.7252  -20.9591   22.8273 C   0  0  2  0  0  0  0  0  0  0  0  0
  -22.0904  -24.7459   25.7154 C   0  0  0  0  0  0  0  0  0  0  0  0
  -25.4345  -12.4228   21.6272 N   0  0  0  0  0  0  0  0  0  0  0  0
  -26.6215  -12.9931   21.8955 N   0  0  0  0  0  0  0  0  0  0  0  0
  -30.2449  -23.3791   20.0827 N   0  0  0  0  0  0  0  0  0  0  0  0
  -22.5662  -26.1800   22.4624 N   0  0  0  0  0  0  0  0  0  0  0  0
  -26.1071  -16.4245   20.2921 N   0  0  0  0  0  0  0  0  0  0  0  0
  -28.8081  -12.5254   22.6769 N   0  0  0  0  0  0  0  0  0  0  0  0
  -26.7744   -8.4947   22.7969 N   0  0  0  0  0  0  0  0  0  0  0  0
  -21.5017  -29.5854   22.4393 N   0  0  0  0  0  0  0  0  0  0  0  0
  -21.7488  -23.1660   23.7683 N   0  0  0  0  0  0  0  0  0  0  0  0
  -26.6277  -18.2375   18.8158 N   0  0  0  0  0  0  0  0  0  0  0  0
  -22.2672  -20.3270   21.5913 N   0  3  0  0  0  0  0  0  0  0  0  0
  -31.8328  -22.4028   21.5800 O   0  0  0  0  0  0  0  0  0  0  0  0
  -28.7348   -9.6047   23.2256 O   0  0  0  0  0  0  0  0  0  0  0  0
  -23.4497  -28.5638   23.2034 O   0  0  0  0  0  0  0  0  0  0  0  0
  -20.4727  -25.7000   23.3695 O   0  0  0  0  0  0  0  0  0  0  0  0
  -23.7413  -22.2820   22.9776 O   0  0  0  0  0  0  0  0  0  0  0  0
  -27.4688  -16.1227   18.4581 O   0  0  0  0  0  0  0  0  0  0  0  0
  -21.5085   -7.4183   21.3300 O   0  0  0  0  0  0  0  0  0  0  0  0
  -26.8795  -21.5093   17.1723 O   0  0  0  0  0  0  0  0  0  0  0  0
  -28.1786  -26.4396   19.9155 O   0  0  0  0  0  0  0  0  0  1  0  0
  -22.0944   -2.5150   23.7831 F   0  0  0  0  0  0  0  0  0  0  0  0
  -19.6916   -6.5550   23.2264 F   0  0  0  0  0  0  0  0  0  0  0  0
  1  2  1  0  0  0  0
  1  5  2  0  0  0  0
  2  6  2  0  0  0  0
  3  8  2  0  0  0  0
  3 17  1  0  0  0  0
  4  9  1  0  0  0  0
  4 17  2  0  0  0  0
  5 19  1  0  0  0  0
  6 21  1  0  0  0  0
  7 10  2  0  0  0  0
  7 20  1  0  0  0  0
  8 26  1  0  0  0  0
  9 26  2  0  0  0  0
 10 27  1  0  0  0  0
 11 12  2  0  0  0  0
 11 28  1  0  0  0  0
 12 30  1  0  0  0  0
 13 22  1  0  0  0  0
 13 27  2  0  0  0  0
 14 23  2  0  0  0  0
 14 25  1  0  0  0  0
 15 25  2  0  0  0  0
 15 29  1  0  0  0  0
 16 30  2  0  0  0  0
 16 31  1  0  0  0  0
 17 32  1  0  0  0  0
 18 32  1  0  0  0  0
 18 33  2  0  0  0  0
 18 35  1  0  0  0  0
 19 21  2  0  0  0  0
 19 40  1  0  0  0  0
 20 22  2  0  0  0  0
 20 41  1  0  0  0  0
 21 51  1  0  0  0  0
 22 42  1  0  0  0  0
 23 24  1  0  0  0  0
 23 55  1  0  0  0  0
 24 29  2  0  0  0  0
 24 63  1  0  0  0  0
 25 70  1  0  0  0  0
 26 85  1  0  0  0  0
 27 87  1  0  0  0  0
 28 31  2  0  0  0  0
 28 85  1  0  0  0  0
 29 86  1  0  0  0  0
 30 88  1  0  0  0  0
 31 89  1  0  0  0  0
 32 68  2  0  0  0  0
 33 69  1  0  0  0  0
 33 73  1  0  0  0  0
 34 43  1  0  0  0  0
 34 70  1  0  0  0  0
 34 79  2  0  0  0  0
 35 74  1  0  0  0  0
 35 80  2  0  0  0  0
 36 52  1  0  0  0  0
 36 75  1  0  0  0  0
 36 81  2  0  0  0  0
 37 65  1  0  0  0  0
 37 71  1  0  0  0  0
 37 82  2  0  0  0  0
 38 66  1  0  0  0  0
 38 76  1  0  0  0  0
 38 83  2  0  0  0  0
 39 72  1  0  0  0  0
 39 77  1  0  0  0  0
 39 84  2  0  0  0  0
 40 44  1  0  0  0  0
 41 52  1  0  0  0  0
 42 71  1  0  0  0  0
 43 45  1  0  0  0  0
 44 47  1  0  0  0  0
 45 54  1  0  0  0  0
 46 48  1  0  0  0  0
 46 49  1  0  0  0  0
 47 51  1  0  0  0  0
 48 53  1  0  0  0  0
 49 72  1  0  0  0  0
 50 53  1  0  0  0  0
 50 72  1  0  0  0  0
 51 75  1  0  0  0  0
 52 71  1  0  0  0  0
 53 69  1  0  0  0  0
 54 64  1  0  0  0  0
 54 70  1  0  0  0  0
 56 66  1  0  0  0  0
 57 67  1  0  0  0  0
 58 67  1  0  0  0  0
 59 67  1  0  0  0  0
 60 77  1  0  0  0  0
 61 78  1  0  0  0  0
 62 86  1  0  0  0  0
 63 77  1  0  0  0  0
 64 87  1  0  0  0  0
 65 67  1  0  0  0  0
 65 76  1  0  0  0  0
 66 78  1  0  0  0  0
 68 69  1  0  0  0  0
M  CHG  1  78   1
M  ISO  4  39 100  64 101  77 100  87 101
M  END
> <Batch ID>
0109

> <Smiles>
CNC(C)C(=O)NC(C(=O)N1Cc2cc([101O:1][101CH2:1]C3CCC(=O)N3c3cc(C)c(C[100N:0](C)[100C:0](=O)N4CCCC(n5nc(-c6ccc(Oc7ccc(F)cc7F)cc6)c(C(N)=O)c5N)C4)c(OC)c3)ccc2CC1C(=O)NC1CCCc2ccccc21)C(C)(C)C

> <Shape>
0.213

> <Color>
0.093

> <Negative vol penalty>
0.000

$$$$

  -OEChem-04052301233D

 89 98  0     1  0  0  0  0  0999 V2000
  -20.6103  -35.4206   15.9705 C   0  0  0  0  0  0  0  0  0  0  0  0
  -21.9220  -35.3537   16.4290 C   0  0  0  0  0  0  0  0  0  0  0  0
  -24.7763   -8.1997   20.7661 C   0  0  0  0  0  0  0  0  0  0  0  0
  -23.1007   -9.9085   20.4352 C   0  0  0  0  0  0  0  0  0  0  0  0
  -19.5673  -34.9663   16.7764 C   0  0  0  0  0  0  0  0  0  0  0  0
  -22.1914  -34.8334   17.6944 C   0  0  0  0  0  0  0  0  0  0  0  0
  -26.6127  -29.2526   18.5407 C   0  0  0  0  0  0  0  0  0  0  0  0
  -23.8183   -7.3743   21.3548 C   0  0  0  0  0  0  0  0  0  0  0  0
  -22.1427   -9.0831   21.0239 C   0  0  0  0  0  0  0  0  0  0  0  0
  -27.6459  -28.3560   18.8147 C   0  0  0  0  0  0  0  0  0  0  0  0
  -21.3091   -5.3500   20.3353 C   0  0  0  0  0  0  0  0  0  0  0  0
  -21.2782   -4.0115   19.9443 C   0  0  0  0  0  0  0  0  0  0  0  0
  -27.1232  -28.4587   21.1734 C   0  0  0  0  0  0  0  0  0  0  0  0
  -24.7986  -21.6596   21.6143 C   0  0  0  0  0  0  0  0  0  0  0  0
  -24.5917  -19.3246   21.0295 C   0  0  0  0  0  0  0  0  0  0  0  0
  -26.7683  -20.3725   21.0656 C   0  0  0  0  0  0  0  0  0  0  0  0
  -21.7026   -3.3356   22.2247 C   0  0  0  0  0  0  0  0  0  0  0  0
  -24.4175   -9.4668   20.3064 C   0  0  0  0  0  0  0  0  0  0  0  0
  -26.1689  -10.0512   18.5460 C   0  0  0  0  0  0  0  0  0  0  0  0
  -19.8248  -34.4313   18.0484 C   0  0  0  0  0  0  0  0  0  0  0  0
  -25.8197  -29.7448   19.5814 C   0  0  0  0  0  0  0  0  0  0  0  0
  -21.1507  -34.3727   18.5187 C   0  0  0  0  0  0  0  0  0  0  0  0
  -26.0787  -29.3469   20.9033 C   0  0  0  0  0  0  0  0  0  0  0  0
  -24.0041  -20.5320   21.4073 C   0  0  0  0  0  0  0  0  0  0  0  0
  -26.1807  -21.5799   21.4434 C   0  0  0  0  0  0  0  0  0  0  0  0
  -25.9738  -19.2449   20.8587 C   0  0  0  0  0  0  0  0  0  0  0  0
  -22.5015   -7.8160   21.4837 C   0  0  0  0  0  0  0  0  0  0  0  0
  -27.9007  -27.9604   20.1279 C   0  0  0  0  0  0  0  0  0  0  0  0
  -21.5368   -5.6814   21.6710 C   0  0  0  0  0  0  0  0  0  0  0  0
  -21.4749   -3.0043   20.8889 C   0  0  0  0  0  0  0  0  0  0  0  0
  -21.7335   -4.6741   22.6157 C   0  0  0  0  0  0  0  0  0  0  0  0
  -25.4068  -10.3201   19.6987 C   0  0  0  0  0  0  0  0  0  0  0  0
  -26.9548  -11.1662   18.3861 C   0  0  0  0  0  0  0  0  0  0  0  0
  -28.7541  -24.2433   20.9637 C   0  0  0  0  0  0  0  0  0  0  0  0
  -27.8111  -23.3148   20.6724 C   0  0  0  0  0  0  0  0  0  0  0  0
  -28.8395  -24.7344   22.3786 C   0  0  0  0  0  0  0  0  0  0  0  0
  -26.1664   -8.8968   17.6957 C   0  0  0  0  0  0  0  0  0  0  0  0
  -23.0237  -31.9878   20.6298 C   0  0  0  0  0  0  0  0  0  0  0  0
  -22.8552  -29.3184   22.3613 C   0  0  0  0  0  0  0  0  0  0  0  0
  -19.4323  -30.2036   23.0810 C   0  0  0  0  0  0  0  0  0  0  0  0
  -25.9340  -16.7985   20.2278 C   0  0  0  0  0  0  0  0  0  0  0  0
  -18.6603  -33.9965   18.9025 C   0  0  0  0  0  0  0  0  0  0  0  0
  -24.7382  -30.7624   19.3361 C   0  0  0  0  0  0  0  0  0  0  0  0
  -25.2229  -29.9264   21.9944 C   0  0  0  0  0  0  0  0  0  0  0  0
  -27.7098  -24.3856   23.3154 C   0  0  0  0  0  0  0  0  0  0  0  0
  -19.0648  -33.1134   20.0801 C   0  0  0  0  0  0  0  0  0  0  0  0
  -28.6076  -14.4020   21.5818 C   0  0  0  0  0  0  0  0  0  0  0  0
  -20.2683  -33.7081   20.8046 C   0  0  0  0  0  0  0  0  0  0  0  0
  -28.4953  -13.2857   20.5461 C   0  0  0  0  0  0  0  0  0  0  0  0
  -27.2234  -22.9679   23.0844 C   0  0  0  0  0  0  0  0  0  0  0  0
  -28.1015  -15.7368   21.0494 C   0  0  0  0  0  0  0  0  0  0  0  0
  -26.1716  -14.3242   20.3173 C   0  0  0  0  0  0  0  0  0  0  0  0
  -21.4854  -33.7921   19.8755 C   0  0  1  0  0  0  0  0  0  0  0  0
  -23.5302  -30.6185   20.2833 C   0  0  1  0  0  0  0  0  0  0  0  0
  -27.2101  -13.3749   19.6995 C   0  0  2  0  0  0  0  0  0  0  0  0
  -27.5612  -22.9246   19.2280 C   0  0  0  0  0  0  0  0  0  0  0  0
  -21.8034  -21.0039   20.3023 C   0  0  0  0  0  0  0  0  0  0  0  0
  -17.6929  -29.0175   24.4468 C   0  0  0  0  0  0  0  0  0  0  0  0
  -22.0074  -28.1017   19.6946 C   0  0  0  0  0  0  0  0  0  0  0  0
  -19.6255  -28.3043   20.4387 C   0  0  0  0  0  0  0  0  0  0  0  0
  -21.2088  -26.8558   21.7107 C   0  0  0  0  0  0  0  0  0  0  0  0
  -18.9729  -32.5852   24.7768 C   0  0  0  0  0  0  0  0  0  0  0  0
  -22.5264  -20.6173   21.5900 C   0  0  0  0  0  0  0  0  0  0  0  0
  -29.7408  -24.8500   20.0076 C   0  0  0  0  0  0  0  0  0  0  0  0
  -29.2180  -26.1304   19.3705 C   0  0  0  0  0  0  0  0  0  1  0  0
  -21.4292  -29.3695   21.8682 C   0  0  1  0  0  0  0  0  0  0  0  0
  -18.7368  -30.1233   24.4280 C   0  0  2  0  0  0  0  0  0  0  0  0
  -21.0846  -28.1807   20.9272 C   0  0  0  0  0  0  0  0  0  0  0  0
  -25.6838  -11.5124   20.2334 N   0  0  0  0  0  0  0  0  0  0  0  0
  -26.6287  -12.0025   19.4130 N   0  0  0  0  0  0  0  0  0  0  0  0
  -26.9902  -22.7295   21.6543 N   0  0  0  0  0  0  0  0  0  0  0  0
  -23.8189  -29.9539   21.5686 N   0  0  0  0  0  0  0  0  0  0  0  0
  -26.7321  -15.6653   20.5195 N   0  0  0  0  0  0  0  0  0  0  0  0
  -27.8861  -11.5030   17.4688 N   0  0  0  0  0  0  0  0  0  0  0  0
  -25.2970   -7.8416   18.0042 N   0  0  0  0  0  0  0  0  0  0  0  0
  -26.5703  -18.0177   20.4752 N   0  0  0  0  0  0  0  0  0  0  0  0
  -22.1020  -32.4908   19.7315 N   0  0  0  0  0  0  0  0  0  0  0  0
  -20.5887  -29.4530   23.0577 N   0  0  0  0  0  0  0  0  0  0  0  0
  -18.0598  -31.4139   24.7392 N   0  3  0  0  0  0  0  0  0  0  0  0
  -29.7574  -25.4681   22.7422 O   0  0  0  0  0  0  0  0  0  0  0  0
  -26.9249   -8.7967   16.7016 O   0  0  0  0  0  0  0  0  0  0  0  0
  -23.4369  -32.5474   21.6387 O   0  0  0  0  0  0  0  0  0  0  0  0
  -23.1053  -28.7247   23.4136 O   0  0  0  0  0  0  0  0  0  0  0  0
  -18.9916  -30.8631   22.1422 O   0  0  0  0  0  0  0  0  0  0  0  0
  -24.7891  -16.6877   19.7841 O   0  0  0  0  0  0  0  0  0  0  0  0
  -21.5663   -7.0107   22.0578 O   0  0  0  0  0  0  0  0  0  0  0  0
  -28.9080  -27.0816   20.3881 O   0  0  0  0  0  0  0  0  0  1  0  0
  -21.4438   -1.7188   20.5135 F   0  0  0  0  0  0  0  0  0  0  0  0
  -21.9514   -4.9862   23.9006 F   0  0  0  0  0  0  0  0  0  0  0  0
  1  2  1  0  0  0  0
  1  5  2  0  0  0  0
  2  6  2  0  0  0  0
  3  8  2  0  0  0  0
  3 18  1  0  0  0  0
  4  9  1  0  0  0  0
  4 18  2  0  0  0  0
  5 20  1  0  0  0  0
  6 22  1  0  0  0  0
  7 10  2  0  0  0  0
  7 21  1  0  0  0  0
  8 27  1  0  0  0  0
  9 27  2  0  0  0  0
 10 28  1  0  0  0  0
 11 12  2  0  0  0  0
 11 29  1  0  0  0  0
 12 30  1  0  0  0  0
 13 23  1  0  0  0  0
 13 28  2  0  0  0  0
 14 24  2  0  0  0  0
 14 25  1  0  0  0  0
 15 24  1  0  0  0  0
 15 26  2  0  0  0  0
 16 25  2  0  0  0  0
 16 26  1  0  0  0  0
 17 30  2  0  0  0  0
 17 31  1  0  0  0  0
 18 32  1  0  0  0  0
 19 32  1  0  0  0  0
 19 33  2  0  0  0  0
 19 37  1  0  0  0  0
 20 22  2  0  0  0  0
 20 42  1  0  0  0  0
 21 23  2  0  0  0  0
 21 43  1  0  0  0  0
 22 53  1  0  0  0  0
 23 44  1  0  0  0  0
 24 63  1  0  0  0  0
 25 71  1  0  0  0  0
 26 76  1  0  0  0  0
 27 86  1  0  0  0  0
 28 87  1  0  0  0  0
 29 31  2  0  0  0  0
 29 86  1  0  0  0  0
 30 88  1  0  0  0  0
 31 89  1  0  0  0  0
 32 69  2  0  0  0  0
 33 70  1  0  0  0  0
 33 74  1  0  0  0  0
 34 35  2  0  0  0  0
 34 36  1  0  0  0  0
 34 64  1  0  0  0  0
 35 56  1  0  0  0  0
 35 71  1  0  0  0  0
 36 45  1  0  0  0  0
 36 80  2  0  0  0  0
 37 75  1  0  0  0  0
 37 81  2  0  0  0  0
 38 54  1  0  0  0  0
 38 77  1  0  0  0  0
 38 82  2  0  0  0  0
 39 66  1  0  0  0  0
 39 72  1  0  0  0  0
 39 83  2  0  0  0  0
 40 67  1  0  0  0  0
 40 78  1  0  0  0  0
 40 84  2  0  0  0  0
 41 73  1  0  0  0  0
 41 76  1  0  0  0  0
 41 85  2  0  0  0  0
 42 46  1  0  0  0  0
 43 54  1  0  0  0  0
 44 72  1  0  0  0  0
 45 50  1  0  0  0  0
 46 48  1  0  0  0  0
 47 49  1  0  0  0  0
 47 51  1  0  0  0  0
 48 53  1  0  0  0  0
 49 55  1  0  0  0  0
 50 71  1  0  0  0  0
 51 73  1  0  0  0  0
 52 55  1  0  0  0  0
 52 73  1  0  0  0  0
 53 77  1  0  0  0  0
 54 72  1  0  0  0  0
 55 70  1  0  0  0  0
 57 63  1  0  0  0  0
 58 67  1  0  0  0  0
 59 68  1  0  0  0  0
 60 68  1  0  0  0  0
 61 68  1  0  0  0  0
 62 79  1  0  0  0  0
 64 65  1  0  0  0  0
 65 87  1  0  0  0  0
 66 68  1  0  0  0  0
 66 78  1  0  0  0  0
 67 79  1  0  0  0  0
 69 70  1  0  0  0  0
M  CHG  1  79   1
M  ISO  4  41 100  65 101  76 100  87 101
M  END
> <Batch ID>
0109

> <Smiles>
CCc1cc([100NH:0][100C:0](=O)N2CCCC(n3nc(-c4ccc(Oc5ccc(F)cc5F)cc4)c(C(N)=O)c3N)C2)cc(N2CCC(=O)C(C[101CH2:1][101O:1]c3ccc4c(c3)CN(C(=O)C(NC(=O)C(C)NC)C(C)(C)C)C(C(=O)NC3CCCc5ccccc53)C4)=C2C)c1

> <Shape>
0.241

> <Color>
0.099

> <Negative vol penalty>
0.000

$$$$

  -OEChem-04052301233D

 88 97  0     1  0  0  0  0  0999 V2000
  -18.0648  -21.4100   19.8040 C   0  0  0  0  0  0  0  0  0  0  0  0
  -19.4509  -21.4365   19.9209 C   0  0  0  0  0  0  0  0  0  0  0  0
  -31.1863  -17.1834   24.1135 C   0  0  0  0  0  0  0  0  0  0  0  0
  -22.7975  -10.1414   20.0896 C   0  0  0  0  0  0  0  0  0  0  0  0
  -24.1743   -9.5621   21.9885 C   0  0  0  0  0  0  0  0  0  0  0  0
  -17.4572  -20.5092   18.9303 C   0  0  0  0  0  0  0  0  0  0  0  0
  -20.2300  -20.5614   19.1649 C   0  0  0  0  0  0  0  0  0  0  0  0
  -25.7619  -21.6761   16.7854 C   0  0  0  0  0  0  0  0  0  0  0  0
  -30.7383  -15.8644   24.1850 C   0  0  0  0  0  0  0  0  0  0  0  0
  -31.3211  -17.8080   22.8736 C   0  0  0  0  0  0  0  0  0  0  0  0
  -22.0609   -8.9703   20.2664 C   0  0  0  0  0  0  0  0  0  0  0  0
  -23.4376   -8.3910   22.1654 C   0  0  0  0  0  0  0  0  0  0  0  0
  -27.0493  -21.3569   17.2148 C   0  0  0  0  0  0  0  0  0  0  0  0
  -23.2782   -5.3140   20.7734 C   0  0  0  0  0  0  0  0  0  0  0  0
  -23.9835   -4.1345   21.0118 C   0  0  0  0  0  0  0  0  0  0  0  0
  -27.0324  -19.4063   15.7956 C   0  0  0  0  0  0  0  0  0  0  0  0
  -30.5600  -15.7946   21.7765 C   0  0  0  0  0  0  0  0  0  0  0  0
  -22.8567   -3.8898   23.1349 C   0  0  0  0  0  0  0  0  0  0  0  0
  -23.8543  -10.4374   20.9506 C   0  0  0  0  0  0  0  0  0  0  0  0
  -24.1342  -12.9689   20.8073 C   0  0  0  0  0  0  0  0  0  0  0  0
  -18.2298  -19.6292   18.1562 C   0  0  0  0  0  0  0  0  0  0  0  0
  -25.0947  -20.8555   15.8646 C   0  0  0  0  0  0  0  0  0  0  0  0
  -19.6321  -19.6470   18.2811 C   0  0  0  0  0  0  0  0  0  0  0  0
  -25.7376  -19.7187   15.3542 C   0  0  0  0  0  0  0  0  0  0  0  0
  -30.4251  -15.1700   23.0165 C   0  0  0  0  0  0  0  0  0  0  0  0
  -31.0080  -17.1136   21.7051 C   0  0  0  0  0  0  0  0  0  0  0  0
  -22.3809   -8.0950   21.3043 C   0  0  0  0  0  0  0  0  0  0  0  0
  -27.6837  -20.2202   16.7220 C   0  0  0  0  0  0  0  0  0  0  0  0
  -22.3621   -5.7815   21.7157 C   0  0  0  0  0  0  0  0  0  0  0  0
  -23.7727   -3.4224   22.1925 C   0  0  0  0  0  0  0  0  0  0  0  0
  -22.1514   -5.0694   22.8965 C   0  0  0  0  0  0  0  0  0  0  0  0
  -24.6160  -11.6467   20.7682 C   0  0  0  0  0  0  0  0  0  0  0  0
  -25.2436  -13.7455   20.5777 C   0  0  0  0  0  0  0  0  0  0  0  0
  -30.3265  -18.2781   18.2277 C   0  0  0  0  0  0  0  0  0  0  0  0
  -30.0997  -17.9544   19.5240 C   0  0  0  0  0  0  0  0  0  0  0  0
  -31.7504  -18.3667   17.7594 C   0  0  0  0  0  0  0  0  0  0  0  0
  -22.8030  -13.4519   21.0312 C   0  0  0  0  0  0  0  0  0  0  0  0
  -22.4274  -19.1274   15.9212 C   0  0  0  0  0  0  0  0  0  0  0  0
  -23.1019  -18.6975   12.7775 C   0  0  0  0  0  0  0  0  0  0  0  0
  -26.0356  -18.0572   10.7774 C   0  0  0  0  0  0  0  0  0  0  0  0
  -31.1400  -12.3009   21.4047 C   0  0  0  0  0  0  0  0  0  0  0  0
  -17.5257  -18.6409   17.2606 C   0  0  0  0  0  0  0  0  0  0  0  0
  -23.7165  -21.2282   15.3912 C   0  0  0  0  0  0  0  0  0  0  0  0
  -25.0725  -18.8159   14.3486 C   0  0  0  0  0  0  0  0  0  0  0  0
  -32.8490  -17.9582   18.7108 C   0  0  0  0  0  0  0  0  0  0  0  0
  -18.4409  -18.0041   16.2179 C   0  0  0  0  0  0  0  0  0  0  0  0
  -29.4908  -13.6747   18.3889 C   0  0  0  0  0  0  0  0  0  0  0  0
  -19.7453  -17.5450   16.8618 C   0  0  0  0  0  0  0  0  0  0  0  0
  -28.0184  -13.3528   18.6386 C   0  0  0  0  0  0  0  0  0  0  0  0
  -32.4873  -18.2648   20.1536 C   0  0  0  0  0  0  0  0  0  0  0  0
  -30.4147  -12.6731   19.0751 C   0  0  0  0  0  0  0  0  0  0  0  0
  -28.6910  -12.2013   20.7839 C   0  0  0  0  0  0  0  0  0  0  0  0
  -20.5126  -18.7305   17.4597 C   0  0  1  0  0  0  0  0  0  0  0  0
  -22.9325  -20.0410   14.8405 C   0  0  1  0  0  0  0  0  0  0  0  0
  -27.7339  -13.2187   20.1447 C   0  0  2  0  0  0  0  0  0  0  0  0
  -28.6803  -17.9152   20.0562 C   0  0  0  0  0  0  0  0  0  0  0  0
  -26.5255  -18.6045    8.3778 C   0  0  0  0  0  0  0  0  0  0  0  0
  -22.0785  -15.8763   12.2270 C   0  0  0  0  0  0  0  0  0  0  0  0
  -23.8649  -15.6425   10.4886 C   0  0  0  0  0  0  0  0  0  0  0  0
  -22.0992  -17.3860   10.2334 C   0  0  0  0  0  0  0  0  0  0  0  0
  -32.0410  -12.5955   23.6808 C   0  0  0  0  0  0  0  0  0  0  0  0
  -28.5119  -19.5112   11.4936 C   0  0  0  0  0  0  0  0  0  0  0  0
  -29.9468  -13.7596   23.0932 C   0  0  0  0  0  0  0  0  0  0  0  0
  -29.2874  -18.5222   17.1700 C   0  0  0  0  0  0  0  0  0  1  0  0
  -23.8986  -17.6911   11.9830 C   0  0  1  0  0  0  0  0  0  0  0  0
  -26.7164  -19.0254    9.8267 C   0  0  2  0  0  0  0  0  0  0  0  0
  -22.9920  -16.6554   11.2599 C   0  0  0  0  0  0  0  0  0  0  0  0
  -25.9291  -11.5832   20.5321 N   0  0  0  0  0  0  0  0  0  0  0  0
  -26.2819  -12.8752   20.4208 N   0  0  0  0  0  0  0  0  0  0  0  0
  -31.1447  -17.7491   20.4440 N   0  0  0  0  0  0  0  0  0  0  0  0
  -23.7225  -19.2193   13.9214 N   0  0  0  0  0  0  0  0  0  0  0  0
  -30.0944  -12.5330   20.4960 N   0  0  0  0  0  0  0  0  0  0  0  0
  -25.4224  -15.0811   20.4967 N   0  0  0  0  0  0  0  0  0  0  0  0
  -22.4024  -13.7212   22.3470 N   0  0  0  0  0  0  0  0  0  0  0  0
  -21.1852  -19.4750   16.4167 N   0  0  0  0  0  0  0  0  0  0  0  0
  -24.7551  -18.4627   11.0888 N   0  0  0  0  0  0  0  0  0  0  0  0
  -30.9793  -12.8008   22.7058 N   0  0  0  0  0  0  0  0  0  0  0  0
  -28.1783  -19.0873   10.1094 N   0  3  0  0  0  0  0  0  0  0  0  0
  -32.0154  -18.7113   16.6079 O   0  0  0  0  0  0  0  0  0  0  0  0
  -21.9872  -13.6235   20.0939 O   0  0  0  0  0  0  0  0  0  0  0  0
  -23.1133  -18.1767   16.2780 O   0  0  0  0  0  0  0  0  0  0  0  0
  -21.9734  -19.0146   12.3934 O   0  0  0  0  0  0  0  0  0  0  0  0
  -26.5836  -17.0409   11.1984 O   0  0  0  0  0  0  0  0  0  0  0  0
  -32.1631  -11.6905   21.0692 O   0  0  0  0  0  0  0  0  0  0  0  0
  -21.6621   -6.9523   21.4772 O   0  0  0  0  0  0  0  0  0  0  0  0
  -28.9400  -19.9060   17.1399 O   0  0  0  0  0  0  0  0  0  1  0  0
  -24.4490   -2.2889   22.4206 F   0  0  0  0  0  0  0  0  0  0  0  0
  -21.2718   -5.5129   23.8050 F   0  0  0  0  0  0  0  0  0  0  0  0
  1  2  1  0  0  0  0
  1  6  2  0  0  0  0
  2  7  2  0  0  0  0
  3  9  1  0  0  0  0
  3 10  2  0  0  0  0
  4 11  2  0  0  0  0
  4 19  1  0  0  0  0
  5 12  1  0  0  0  0
  5 19  2  0  0  0  0
  6 21  1  0  0  0  0
  7 23  1  0  0  0  0
  8 13  2  0  0  0  0
  8 22  1  0  0  0  0
  9 25  2  0  0  0  0
 10 26  1  0  0  0  0
 11 27  1  0  0  0  0
 12 27  2  0  0  0  0
 13 28  1  0  0  0  0
 14 15  2  0  0  0  0
 14 29  1  0  0  0  0
 15 30  1  0  0  0  0
 16 24  1  0  0  0  0
 16 28  2  0  0  0  0
 17 25  1  0  0  0  0
 17 26  2  0  0  0  0
 18 30  2  0  0  0  0
 18 31  1  0  0  0  0
 19 32  1  0  0  0  0
 20 32  1  0  0  0  0
 20 33  2  0  0  0  0
 20 37  1  0  0  0  0
 21 23  2  0  0  0  0
 21 42  1  0  0  0  0
 22 24  2  0  0  0  0
 22 43  1  0  0  0  0
 23 53  1  0  0  0  0
 24 44  1  0  0  0  0
 25 63  1  0  0  0  0
 26 70  1  0  0  0  0
 27 85  1  0  0  0  0
 28 86  1  0  0  0  0
 29 31  2  0  0  0  0
 29 85  1  0  0  0  0
 30 87  1  0  0  0  0
 31 88  1  0  0  0  0
 32 68  2  0  0  0  0
 33 69  1  0  0  0  0
 33 73  1  0  0  0  0
 34 35  2  0  0  0  0
 34 36  1  0  0  0  0
 34 64  1  0  0  0  0
 35 56  1  0  0  0  0
 35 70  1  0  0  0  0
 36 45  1  0  0  0  0
 36 79  2  0  0  0  0
 37 74  1  0  0  0  0
 37 80  2  0  0  0  0
 38 54  1  0  0  0  0
 38 75  1  0  0  0  0
 38 81  2  0  0  0  0
 39 65  1  0  0  0  0
 39 71  1  0  0  0  0
 39 82  2  0  0  0  0
 40 66  1  0  0  0  0
 40 76  1  0  0  0  0
 40 83  2  0  0  0  0
 41 72  1  0  0  0  0
 41 77  1  0  0  0  0
 41 84  2  0  0  0  0
 42 46  1  0  0  0  0
 43 54  1  0  0  0  0
 44 71  1  0  0  0  0
 45 50  1  0  0  0  0
 46 48  1  0  0  0  0
 47 49  1  0  0  0  0
 47 51  1  0  0  0  0
 48 53  1  0  0  0  0
 49 55  1  0  0  0  0
 50 70  1  0  0  0  0
 51 72  1  0  0  0  0
 52 55  1  0  0  0  0
 52 72  1  0  0  0  0
 53 75  1  0  0  0  0
 54 71  1  0  0  0  0
 55 69  1  0  0  0  0
 57 66  1  0  0  0  0
 58 67  1  0  0  0  0
 59 67  1  0  0  0  0
 60 67  1  0  0  0  0
 61 77  1  0  0  0  0
 62 78  1  0  0  0  0
 63 77  1  0  0  0  0
 64 86  1  0  0  0  0
 65 67  1  0  0  0  0
 65 76  1  0  0  0  0
 66 78  1  0  0  0  0
 68 69  1  0  0  0  0
M  CHG  1  78   1
M  ISO  4  41 100  64 101  77 100  86 101
M  END
> <Batch ID>
0109

> <Smiles>
CNC(C)C(=O)NC(C(=O)N1Cc2cc([101O:1][101CH2:1]C3=C(C)N(c4cccc(C[100N:0](C)[100C:0](=O)N5CCCC(n6nc(-c7ccc(Oc8ccc(F)cc8F)cc7)c(C(N)=O)c6N)C5)c4)CCC3=O)ccc2CC1C(=O)NC1CCCc2ccccc21)C(C)(C)C

> <Shape>
0.184

> <Color>
0.158

> <Negative vol penalty>
0.000

$$$$

  -OEChem-04052301233D

 86 94  0     1  0  0  0  0  0999 V2000
  -28.9646  -37.0692   23.1242 C   0  0  0  0  0  0  0  0  0  0  0  0
  -29.1996  -36.0767   22.1781 C   0  0  0  0  0  0  0  0  0  0  0  0
  -23.5051  -17.0132   21.5045 C   0  0  0  0  0  0  0  0  0  0  0  0
  -22.6573  -16.1657   19.4069 C   0  0  0  0  0  0  0  0  0  0  0  0
  -28.3637  -36.7440   24.3395 C   0  0  0  0  0  0  0  0  0  0  0  0
  -28.8349  -34.7580   22.4474 C   0  0  0  0  0  0  0  0  0  0  0  0
  -26.4747  -28.8390   19.1745 C   0  0  0  0  0  0  0  0  0  0  0  0
  -22.6091  -18.0800   21.4357 C   0  0  0  0  0  0  0  0  0  0  0  0
  -21.7612  -17.2325   19.3381 C   0  0  0  0  0  0  0  0  0  0  0  0
  -26.7766  -27.4835   19.0509 C   0  0  0  0  0  0  0  0  0  0  0  0
  -22.3795  -21.0391   19.8185 C   0  0  0  0  0  0  0  0  0  0  0  0
  -22.8658  -22.3129   20.1128 C   0  0  0  0  0  0  0  0  0  0  0  0
  -29.8540  -17.9735   21.6169 C   0  0  0  0  0  0  0  0  0  0  0  0
  -25.6732  -27.0523   21.1523 C   0  0  0  0  0  0  0  0  0  0  0  0
  -30.7370  -17.5098   19.4163 C   0  0  0  0  0  0  0  0  0  0  0  0
  -21.2802  -22.4992   21.9262 C   0  0  0  0  0  0  0  0  0  0  0  0
  -23.5293  -16.0561   20.4901 C   0  0  0  0  0  0  0  0  0  0  0  0
  -29.4655  -19.2444   21.1932 C   0  0  0  0  0  0  0  0  0  0  0  0
  -24.2371  -13.6974   21.1560 C   0  0  0  0  0  0  0  0  0  0  0  0
  -27.9826  -35.4223   24.6199 C   0  0  0  0  0  0  0  0  0  0  0  0
  -25.7782  -29.3137   20.2952 C   0  0  0  0  0  0  0  0  0  0  0  0
  -28.2296  -34.4145   23.6682 C   0  0  0  0  0  0  0  0  0  0  0  0
  -25.3615  -28.4139   21.2865 C   0  0  0  0  0  0  0  0  0  0  0  0
  -30.4898  -17.1062   20.7284 C   0  0  0  0  0  0  0  0  0  0  0  0
  -21.7371  -18.1896   20.3526 C   0  0  0  0  0  0  0  0  0  0  0  0
  -26.3783  -26.5903   20.0412 C   0  0  0  0  0  0  0  0  0  0  0  0
  -21.3436  -20.4954   20.5781 C   0  0  0  0  0  0  0  0  0  0  0  0
  -29.7128  -19.6481   19.8811 C   0  0  0  0  0  0  0  0  0  0  0  0
  -22.3161  -23.0430   21.1666 C   0  0  0  0  0  0  0  0  0  0  0  0
  -30.3486  -18.7808   18.9927 C   0  0  0  0  0  0  0  0  0  0  0  0
  -20.7939  -21.2254   21.6319 C   0  0  0  0  0  0  0  0  0  0  0  0
  -24.4550  -14.9542   20.5603 C   0  0  0  0  0  0  0  0  0  0  0  0
  -25.4118  -13.0144   20.9562 C   0  0  0  0  0  0  0  0  0  0  0  0
  -27.5731  -20.5935   21.9768 C   0  0  0  0  0  0  0  0  0  0  0  0
  -28.8043  -20.1323   22.1399 C   0  0  0  0  0  0  0  0  0  0  0  0
  -23.0765  -13.1926   21.8297 C   0  0  0  0  0  0  0  0  0  0  0  0
  -26.4314  -31.3534   22.6440 C   0  0  0  0  0  0  0  0  0  0  0  0
  -23.3245  -30.8441   23.4249 C   0  0  0  0  0  0  0  0  0  0  0  0
  -20.5967  -28.7989   23.2731 C   0  0  0  0  0  0  0  0  0  0  0  0
  -30.9430  -14.7031   20.2693 C   0  0  0  0  0  0  0  0  0  0  0  0
  -27.3793  -35.1109   25.9666 C   0  0  0  0  0  0  0  0  0  0  0  0
  -25.4370  -30.7749   20.4007 C   0  0  0  0  0  0  0  0  0  0  0  0
  -24.5937  -28.8698   22.4994 C   0  0  0  0  0  0  0  0  0  0  0  0
  -26.6819  -33.7541   26.0226 C   0  0  0  0  0  0  0  0  0  0  0  0
  -29.1156  -12.7171   17.9543 C   0  0  0  0  0  0  0  0  0  0  0  0
  -27.5593  -32.6766   25.3934 C   0  0  0  0  0  0  0  0  0  0  0  0
  -27.6789  -12.9556   18.4177 C   0  0  0  0  0  0  0  0  0  0  0  0
  -29.9604  -13.9893   18.0307 C   0  0  0  0  0  0  0  0  0  0  0  0
  -28.5065  -14.8816   19.8235 C   0  0  0  0  0  0  0  0  0  0  0  0
  -27.8256  -32.9769   23.9134 C   0  0  1  0  0  0  0  0  0  0  0  0
  -25.1723  -31.2246   21.8342 C   0  0  1  0  0  0  0  0  0  0  0  0
  -27.6492  -13.6064   19.8119 C   0  0  1  0  0  0  0  0  0  0  0  0
  -18.2122  -28.6353   24.0377 C   0  0  0  0  0  0  0  0  0  0  0  0
  -24.2770  -30.1374   26.2361 C   0  0  0  0  0  0  0  0  0  0  0  0
  -22.0410  -29.0921   26.6556 C   0  0  0  0  0  0  0  0  0  0  0  0
  -22.2019  -31.5311   26.1573 C   0  0  0  0  0  0  0  0  0  0  0  0
  -31.4837  -15.6493   22.5026 C   0  0  0  0  0  0  0  0  0  0  0  0
  -19.5891  -28.7124   20.4917 C   0  0  0  0  0  0  0  0  0  0  0  0
  -28.4250  -23.6155   19.7461 C   0  0  0  0  0  0  0  0  0  0  0  0
  -29.7115  -23.2226   19.0283 C   0  0  0  0  0  0  0  0  0  0  0  0
  -27.8624  -24.9266   19.2133 C   0  0  0  0  0  0  0  0  0  1  0  0
  -30.2975  -21.9347   19.5894 C   0  0  0  0  0  0  0  0  0  0  0  0
  -22.5901  -29.8586   24.3015 C   0  0  1  0  0  0  0  0  0  0  0  0
  -19.1464  -29.0784   22.9225 C   0  0  2  0  0  0  0  0  0  0  0  0
  -22.7937  -30.1462   25.8159 C   0  0  0  0  0  0  0  0  0  0  0  0
  -25.6725  -15.0658   20.0226 N   0  0  0  0  0  0  0  0  0  0  0  0
  -26.2302  -13.8703   20.2796 N   0  0  0  0  0  0  0  0  0  0  0  0
  -24.2896  -30.3091   22.5600 N   0  0  0  0  0  0  0  0  0  0  0  0
  -29.8686  -14.5962   19.3661 N   0  0  0  0  0  0  0  0  0  0  0  0
  -25.8142  -11.7712   21.2950 N   0  0  0  0  0  0  0  0  0  0  0  0
  -21.9561  -14.0265   21.9464 N   0  0  0  0  0  0  0  0  0  0  0  0
  -26.6713  -32.6313   23.1118 N   0  0  0  0  0  0  0  0  0  0  0  0
  -21.1969  -29.8874   23.8698 N   0  0  0  0  0  0  0  0  0  0  0  0
  -30.8930  -15.7909   21.1674 N   0  0  0  0  0  0  0  0  0  0  0  0
  -18.7662  -28.3555   21.6760 N   0  3  0  0  0  0  0  0  0  0  0  0
  -23.0400  -12.0420   22.3281 O   0  0  0  0  0  0  0  0  0  0  0  0
  -27.1326  -30.3661   22.8317 O   0  0  0  0  0  0  0  0  0  0  0  0
  -23.0468  -32.0437   23.4994 O   0  0  0  0  0  0  0  0  0  0  0  0
  -21.1416  -27.7212   23.0441 O   0  0  0  0  0  0  0  0  0  0  0  0
  -31.8625  -13.8760   20.2898 O   0  0  0  0  0  0  0  0  0  0  0  0
  -20.8625  -19.2303   20.2852 O   0  0  0  0  0  0  0  0  0  0  0  0
  -26.6722  -25.2669   19.9233 O   0  0  0  0  0  0  0  0  0  1  0  0
  -29.3431  -20.8925   19.4412 O   0  0  0  0  0  0  0  0  0  0  0  0
  -22.7842  -24.2656   21.4500 F   0  0  0  0  0  0  0  0  0  0  0  0
  -30.5891  -19.1625   17.7307 F   0  0  0  0  0  0  0  0  0  0  0  0
  -19.7994  -20.7078   22.3659 F   0  0  0  0  0  0  0  0  0  0  0  0
  1  2  1  0  0  0  0
  1  5  2  0  0  0  0
  2  6  2  0  0  0  0
  3  8  2  0  0  0  0
  3 17  1  0  0  0  0
  4  9  1  0  0  0  0
  4 17  2  0  0  0  0
  5 20  1  0  0  0  0
  6 22  1  0  0  0  0
  7 10  2  0  0  0  0
  7 21  1  0  0  0  0
  8 25  1  0  0  0  0
  9 25  2  0  0  0  0
 10 26  1  0  0  0  0
 11 12  2  0  0  0  0
 11 27  1  0  0  0  0
 12 29  1  0  0  0  0
 13 18  1  0  0  0  0
 13 24  2  0  0  0  0
 14 23  1  0  0  0  0
 14 26  2  0  0  0  0
 15 24  1  0  0  0  0
 15 30  2  0  0  0  0
 16 29  2  0  0  0  0
 16 31  1  0  0  0  0
 17 32  1  0  0  0  0
 18 28  2  0  0  0  0
 18 35  1  0  0  0  0
 19 32  1  0  0  0  0
 19 33  2  0  0  0  0
 19 36  1  0  0  0  0
 20 22  2  0  0  0  0
 20 41  1  0  0  0  0
 21 23  2  0  0  0  0
 21 42  1  0  0  0  0
 22 50  1  0  0  0  0
 23 43  1  0  0  0  0
 24 74  1  0  0  0  0
 25 81  1  0  0  0  0
 26 82  1  0  0  0  0
 27 31  2  0  0  0  0
 27 81  1  0  0  0  0
 28 30  1  0  0  0  0
 28 83  1  0  0  0  0
 29 84  1  0  0  0  0
 30 85  1  0  0  0  0
 31 86  1  0  0  0  0
 32 66  2  0  0  0  0
 33 67  1  0  0  0  0
 33 70  1  0  0  0  0
 34 35  2  0  0  0  0
 36 71  1  0  0  0  0
 36 76  2  0  0  0  0
 37 51  1  0  0  0  0
 37 72  1  0  0  0  0
 37 77  2  0  0  0  0
 38 63  1  0  0  0  0
 38 68  1  0  0  0  0
 38 78  2  0  0  0  0
 39 64  1  0  0  0  0
 39 73  1  0  0  0  0
 39 79  2  0  0  0  0
 40 69  1  0  0  0  0
 40 74  1  0  0  0  0
 40 80  2  0  0  0  0
 41 44  1  0  0  0  0
 42 51  1  0  0  0  0
 43 68  1  0  0  0  0
 44 46  1  0  0  0  0
 45 47  1  0  0  0  0
 45 48  1  0  0  0  0
 46 50  1  0  0  0  0
 47 52  1  0  0  0  0
 48 69  1  0  0  0  0
 49 52  1  0  0  0  0
 49 69  1  0  0  0  0
 50 72  1  0  0  0  0
 51 68  1  0  0  0  0
 52 67  1  0  0  0  0
 53 64  1  0  0  0  0
 54 65  1  0  0  0  0
 55 65  1  0  0  0  0
 56 65  1  0  0  0  0
 57 74  1  0  0  0  0
 58 75  1  0  0  0  0
 59 60  1  0  0  0  0
 59 61  1  0  0  0  0
 60 62  1  0  0  0  0
 61 82  1  0  0  0  0
 62 83  1  0  0  0  0
 63 65  1  0  0  0  0
 63 73  1  0  0  0  0
 64 75  1  0  0  0  0
 66 67  1  0  0  0  0
M  CHG  1  75   1
M  ISO  4  40 100  61 101  74 100  82 101
M  END
> <Batch ID>
0109

> <Smiles>
C=Cc1cc([100N:0](C)[100C:0](=O)N2CCCC(n3nc(-c4ccc(Oc5ccc(F)cc5F)cc4)c(C(N)=O)c3N)C2)cc(F)c1OCCC[101CH2:1][101O:1]c1ccc2c(c1)CN(C(=O)C(NC(=O)C(C)NC)C(C)(C)C)C(C(=O)NC1CCCc3ccccc31)C2

> <Shape>
0.308

> <Color>
0.109

> <Negative vol penalty>
0.000

$$$$

  -OEChem-04052301233D

 85 94  0     1  0  0  0  0  0999 V2000
  -23.8913  -36.8331   22.7988 C   0  0  0  0  0  0  0  0  0  0  0  0
  -24.8116  -35.9035   22.3251 C   0  0  0  0  0  0  0  0  0  0  0  0
  -26.7191  -11.8746   20.6766 C   0  0  0  0  0  0  0  0  0  0  0  0
  -25.4149  -13.9080   20.6426 C   0  0  0  0  0  0  0  0  0  0  0  0
  -22.8787  -36.4293   23.6680 C   0  0  0  0  0  0  0  0  0  0  0  0
  -24.7204  -34.5696   22.7213 C   0  0  0  0  0  0  0  0  0  0  0  0
  -26.0611  -29.6304   19.3580 C   0  0  0  0  0  0  0  0  0  0  0  0
  -31.2655  -20.9074   17.2359 C   0  0  0  0  0  0  0  0  0  0  0  0
  -25.6316  -11.1860   21.2140 C   0  0  0  0  0  0  0  0  0  0  0  0
  -24.3273  -13.2194   21.1800 C   0  0  0  0  0  0  0  0  0  0  0  0
  -27.1913  -28.8164   19.2959 C   0  0  0  0  0  0  0  0  0  0  0  0
  -22.7362   -9.8425   20.0984 C   0  0  0  0  0  0  0  0  0  0  0  0
  -31.3017  -22.1642   16.6321 C   0  0  0  0  0  0  0  0  0  0  0  0
  -22.4238   -8.5973   19.5532 C   0  0  0  0  0  0  0  0  0  0  0  0
  -26.1528  -27.2678   20.8263 C   0  0  0  0  0  0  0  0  0  0  0  0
  -32.3848  -21.8084   19.1783 C   0  0  0  0  0  0  0  0  0  0  0  0
  -22.7692   -7.5661   21.7106 C   0  0  0  0  0  0  0  0  0  0  0  0
  -26.6108  -13.2356   20.3910 C   0  0  0  0  0  0  0  0  0  0  0  0
  -28.0411  -14.1221   18.4737 C   0  0  0  0  0  0  0  0  0  0  0  0
  -22.7693  -35.0880   24.0674 C   0  0  0  0  0  0  0  0  0  0  0  0
  -24.9708  -29.2740   20.1646 C   0  0  0  0  0  0  0  0  0  0  0  0
  -23.7062  -34.1478   23.5977 C   0  0  0  0  0  0  0  0  0  0  0  0
  -25.0089  -28.0776   20.8950 C   0  0  0  0  0  0  0  0  0  0  0  0
  -32.4210  -23.0652   18.5744 C   0  0  0  0  0  0  0  0  0  0  0  0
  -31.8070  -20.7295   18.5091 C   0  0  0  0  0  0  0  0  0  0  0  0
  -24.4357  -11.8584   21.4656 C   0  0  0  0  0  0  0  0  0  0  0  0
  -27.2385  -27.6364   20.0323 C   0  0  0  0  0  0  0  0  0  0  0  0
  -23.0651   -9.9496   21.4498 C   0  0  0  0  0  0  0  0  0  0  0  0
  -22.4403   -7.4590   20.3593 C   0  0  0  0  0  0  0  0  0  0  0  0
  -31.8795  -23.2431   17.3012 C   0  0  0  0  0  0  0  0  0  0  0  0
  -23.0816   -8.8114   22.2559 C   0  0  0  0  0  0  0  0  0  0  0  0
  -27.7340  -13.9476   19.8364 C   0  0  0  0  0  0  0  0  0  0  0  0
  -29.1968  -14.8643   18.4745 C   0  0  0  0  0  0  0  0  0  0  0  0
  -30.4693  -26.3438   20.9100 C   0  0  0  0  0  0  0  0  0  0  0  0
  -29.3436  -27.0632   20.8754 C   0  0  0  0  0  0  0  0  0  1  0  0
  -27.3441  -13.6550   17.3111 C   0  0  0  0  0  0  0  0  0  0  0  0
  -23.5170  -30.5751   22.6740 C   0  0  0  0  0  0  0  0  0  0  0  0
  -21.4288  -28.1312   22.2396 C   0  0  0  0  0  0  0  0  0  0  0  0
  -20.8478  -25.0004   21.0118 C   0  0  0  0  0  0  0  0  0  0  0  0
  -32.2609  -19.1049   20.3802 C   0  0  0  0  0  0  0  0  0  0  0  0
  -21.6863  -34.7080   25.0458 C   0  0  0  0  0  0  0  0  0  0  0  0
  -23.7482  -30.1494   20.1999 C   0  0  0  0  0  0  0  0  0  0  0  0
  -23.8565  -27.6398   21.7603 C   0  0  0  0  0  0  0  0  0  0  0  0
  -31.6004  -26.5431   21.8744 C   0  0  0  0  0  0  0  0  0  0  0  0
  -30.8230  -25.2511   19.9520 C   0  0  0  0  0  0  0  0  0  0  0  0
  -21.4339  -33.2043   25.1214 C   0  0  0  0  0  0  0  0  0  0  0  0
  -32.3266  -16.0827   22.2615 C   0  0  0  0  0  0  0  0  0  0  0  0
  -22.7536  -32.4461   25.2233 C   0  0  0  0  0  0  0  0  0  0  0  0
  -31.1629  -15.2722   21.6862 C   0  0  0  0  0  0  0  0  0  0  0  0
  -32.0038  -17.5747   22.3212 C   0  0  0  0  0  0  0  0  0  0  0  0
  -30.3819  -17.3513   20.4803 C   0  0  0  0  0  0  0  0  0  0  0  0
  -32.7886  -25.9108   21.1620 C   0  0  0  0  0  0  0  0  0  0  0  0
  -23.6254  -32.6871   23.9850 C   0  0  1  0  0  0  0  0  0  0  0  0
  -22.9042  -29.9467   21.4545 C   0  0  1  0  0  0  0  0  0  0  0  0
  -30.6845  -15.8505   20.3400 C   0  0  2  0  0  0  0  0  0  0  0  0
  -19.0553  -23.2524   20.8418 C   0  0  0  0  0  0  0  0  0  0  0  0
  -21.8617  -27.4055   25.1715 C   0  0  0  0  0  0  0  0  0  0  0  0
  -20.8370  -25.1709   24.6975 C   0  0  0  0  0  0  0  0  0  0  0  0
  -19.4889  -27.2482   24.3973 C   0  0  0  0  0  0  0  0  0  0  0  0
  -20.8846  -25.0844   18.0537 C   0  0  0  0  0  0  0  0  0  0  0  0
  -33.0419  -24.2246   19.2965 C   0  0  0  0  0  0  0  0  0  0  0  0
  -21.3243  -26.7119   22.7433 C   0  0  1  0  0  0  0  0  0  0  0  0
  -19.7164  -24.4439   20.1665 C   0  0  2  0  0  0  0  0  0  0  0  0
  -20.9006  -26.6431   24.2377 C   0  0  0  0  0  0  0  0  0  0  0  0
  -28.6229  -14.5319   20.6442 N   0  0  0  0  0  0  0  0  0  0  0  0
  -29.5000  -15.0806   19.7865 N   0  0  0  0  0  0  0  0  0  0  0  0
  -22.6861  -28.5328   21.7666 N   0  0  0  0  0  0  0  0  0  0  0  0
  -31.5616  -18.0534   21.0096 N   0  0  0  0  0  0  0  0  0  0  0  0
  -29.9731  -15.3465   17.4808 N   0  0  0  0  0  0  0  0  0  0  0  0
  -26.1730  -12.9060   17.4902 N   0  0  0  0  0  0  0  0  0  0  0  0
  -31.7692  -19.4527   19.1225 N   0  0  0  0  0  0  0  0  0  0  0  0
  -23.1521  -31.8932   22.8714 N   0  0  0  0  0  0  0  0  0  0  0  0
  -20.4175  -26.0213   21.8327 N   0  0  0  0  0  0  0  0  0  0  0  0
  -32.1824  -24.7581   20.3937 N   0  3  2  0  0  0  0  0  0  0  0  0
  -20.2297  -24.0058   18.8377 N   0  3  0  0  0  0  0  0  0  0  0  0
  -27.7566  -13.8807   16.1482 O   0  0  0  0  0  0  0  0  0  0  0  0
  -24.2644  -29.9127   23.3842 O   0  0  0  0  0  0  0  0  0  0  0  0
  -20.4297  -28.8545   22.2583 O   0  0  0  0  0  0  0  0  0  0  0  0
  -21.9974  -24.5699   20.9528 O   0  0  0  0  0  0  0  0  0  0  0  0
  -33.2417  -19.6379   20.9055 O   0  0  0  0  0  0  0  0  0  0  0  0
  -23.3742  -11.1868   21.9897 O   0  0  0  0  0  0  0  0  0  0  0  0
  -28.3408  -26.8405   19.9740 O   0  0  0  0  0  0  0  0  0  1  0  0
  -22.1388   -6.2635   19.8359 F   0  0  0  0  0  0  0  0  0  0  0  0
  -31.9107  -24.4467   16.7123 F   0  0  0  0  0  0  0  0  0  0  0  0
  -23.3956   -8.9081   23.5550 F   0  0  0  0  0  0  0  0  0  0  0  0
  1  2  1  0  0  0  0
  1  5  2  0  0  0  0
  2  6  2  0  0  0  0
  3  9  2  0  0  0  0
  3 18  1  0  0  0  0
  4 10  1  0  0  0  0
  4 18  2  0  0  0  0
  5 20  1  0  0  0  0
  6 22  1  0  0  0  0
  7 11  2  0  0  0  0
  7 21  1  0  0  0  0
  8 13  2  0  0  0  0
  8 25  1  0  0  0  0
  9 26  1  0  0  0  0
 10 26  2  0  0  0  0
 11 27  1  0  0  0  0
 12 14  2  0  0  0  0
 12 28  1  0  0  0  0
 13 30  1  0  0  0  0
 14 29  1  0  0  0  0
 15 23  1  0  0  0  0
 15 27  2  0  0  0  0
 16 24  1  0  0  0  0
 16 25  2  0  0  0  0
 17 29  2  0  0  0  0
 17 31  1  0  0  0  0
 18 32  1  0  0  0  0
 19 32  1  0  0  0  0
 19 33  2  0  0  0  0
 19 36  1  0  0  0  0
 20 22  2  0  0  0  0
 20 41  1  0  0  0  0
 21 23  2  0  0  0  0
 21 42  1  0  0  0  0
 22 53  1  0  0  0  0
 23 43  1  0  0  0  0
 24 30  2  0  0  0  0
 24 61  1  0  0  0  0
 25 71  1  0  0  0  0
 26 81  1  0  0  0  0
 27 82  1  0  0  0  0
 28 31  2  0  0  0  0
 28 81  1  0  0  0  0
 29 83  1  0  0  0  0
 30 84  1  0  0  0  0
 31 85  1  0  0  0  0
 32 65  2  0  0  0  0
 33 66  1  0  0  0  0
 33 69  1  0  0  0  0
 34 35  2  0  0  0  0
 34 44  1  0  0  0  0
 34 45  1  0  0  0  0
 35 82  1  0  0  0  0
 36 70  1  0  0  0  0
 36 76  2  0  0  0  0
 37 54  1  0  0  0  0
 37 72  1  0  0  0  0
 37 77  2  0  0  0  0
 38 62  1  0  0  0  0
 38 67  1  0  0  0  0
 38 78  2  0  0  0  0
 39 63  1  0  0  0  0
 39 73  1  0  0  0  0
 39 79  2  0  0  0  0
 40 68  1  0  0  0  0
 40 71  1  0  0  0  0
 40 80  2  0  0  0  0
 41 46  1  0  0  0  0
 42 54  1  0  0  0  0
 43 67  1  0  0  0  0
 44 52  1  0  0  0  0
 45 74  1  0  0  0  0
 46 48  1  0  0  0  0
 47 49  1  0  0  0  0
 47 50  1  0  0  0  0
 48 53  1  0  0  0  0
 49 55  1  0  0  0  0
 50 68  1  0  0  0  0
 51 55  1  0  0  0  0
 51 68  1  0  0  0  0
 52 74  1  0  0  0  0
 53 72  1  0  0  0  0
 54 67  1  0  0  0  0
 55 66  1  0  0  0  0
 56 63  1  0  0  0  0
 57 64  1  0  0  0  0
 58 64  1  0  0  0  0
 59 64  1  0  0  0  0
 60 75  1  0  0  0  0
 61 74  1  0  0  0  0
 62 64  1  0  0  0  0
 62 73  1  0  0  0  0
 63 75  1  0  0  0  0
 65 66  1  0  0  0  0
M  CHG  2  74   1  75   1
M  ISO  4  35 101  40 100  71 100  82 101
M  END
> <Batch ID>
0109

> <Smiles>
CNC(C)C(=O)NC(C(=O)N1Cc2cc([101O:1][101CH:1]=C3CCN(Cc4cc([100NH:0][100C:0](=O)N5CCCC(n6nc(-c7ccc(Oc8ccc(F)cc8F)cc7)c(C(N)=O)c6N)C5)ccc4F)C3)ccc2CC1C(=O)NC1CCCc2ccccc21)C(C)(C)C

> <Shape>
0.276

> <Color>
0.069

> <Negative vol penalty>
0.000

$$$$

  -OEChem-04052301233D

 89 98  0     1  0  0  0  0  0999 V2000
  -21.6561  -11.8420   21.3948 C   0  0  0  0  0  0  0  0  0  0  0  0
  -21.6473  -13.1917   21.7319 C   0  0  0  0  0  0  0  0  0  0  0  0
  -29.9683  -28.1404   20.9468 C   0  0  0  0  0  0  0  0  0  0  0  0
  -28.4870  -27.1481   22.5772 C   0  0  0  0  0  0  0  0  0  0  0  0
  -22.8498  -11.2257   21.0216 C   0  0  0  0  0  0  0  0  0  0  0  0
  -22.8324  -13.9257   21.6970 C   0  0  0  0  0  0  0  0  0  0  0  0
  -22.2552  -18.4430   19.4821 C   0  0  0  0  0  0  0  0  0  0  0  0
  -31.0689  -27.7542   21.7117 C   0  0  0  0  0  0  0  0  0  0  0  0
  -29.5877  -26.7618   23.3421 C   0  0  0  0  0  0  0  0  0  0  0  0
  -21.6610  -19.4519   20.2389 C   0  0  0  0  0  0  0  0  0  0  0  0
  -32.0211  -25.1980   25.5445 C   0  0  0  0  0  0  0  0  0  0  0  0
  -32.0312  -23.9018   26.0596 C   0  0  0  0  0  0  0  0  0  0  0  0
  -23.8400  -20.3740   20.7092 C   0  0  0  0  0  0  0  0  0  0  0  0
  -19.1098  -28.8772   22.1073 C   0  0  0  0  0  0  0  0  0  0  0  0
  -20.3828  -26.9687   22.8652 C   0  0  0  0  0  0  0  0  0  0  0  0
  -31.9222  -23.0099   23.8169 C   0  0  0  0  0  0  0  0  0  0  0  0
  -28.6773  -27.8373   21.3796 C   0  0  0  0  0  0  0  0  0  0  0  0
  -27.2498  -27.8585   19.2655 C   0  0  0  0  0  0  0  0  0  0  0  0
  -24.0484  -11.9548   20.9727 C   0  0  0  0  0  0  0  0  0  0  0  0
  -23.6492  -18.3855   19.3419 C   0  0  0  0  0  0  0  0  0  0  0  0
  -24.0434  -13.3182   21.3240 C   0  0  0  0  0  0  0  0  0  0  0  0
  -24.4492  -19.3648   19.9479 C   0  0  0  0  0  0  0  0  0  0  0  0
  -17.9726  -28.0766   22.0012 C   0  0  0  0  0  0  0  0  0  0  0  0
  -18.0404  -26.7220   22.3271 C   0  0  0  0  0  0  0  0  0  0  0  0
  -19.2455  -26.1681   22.7592 C   0  0  0  0  0  0  0  0  0  0  0  0
  -20.3149  -28.3233   22.5393 C   0  0  0  0  0  0  0  0  0  0  0  0
  -30.8786  -27.0649   22.9093 C   0  0  0  0  0  0  0  0  0  0  0  0
  -22.4536  -20.4159   20.8550 C   0  0  0  0  0  0  0  0  0  0  0  0
  -31.9615  -25.4002   24.1657 C   0  0  0  0  0  0  0  0  0  0  0  0
  -31.9818  -22.8077   25.1957 C   0  0  0  0  0  0  0  0  0  0  0  0
  -31.9121  -24.3062   23.3018 C   0  0  0  0  0  0  0  0  0  0  0  0
  -27.5399  -28.2365   20.5901 C   0  0  0  0  0  0  0  0  0  0  0  0
  -26.0696  -28.4989   18.9764 C   0  0  0  0  0  0  0  0  0  0  0  0
  -19.9925  -22.5135   22.5784 C   0  0  0  0  0  0  0  0  0  0  0  0
  -19.6640  -23.7680   22.1855 C   0  0  0  0  0  0  0  0  0  0  0  0
  -19.8899  -22.1880   24.0391 C   0  0  0  0  0  0  0  0  0  0  0  0
  -27.9817  -27.0049   18.3758 C   0  0  0  0  0  0  0  0  0  0  0  0
  -25.8986  -16.2837   20.1334 C   0  0  0  0  0  0  0  0  0  0  0  0
  -27.8232  -18.3107   18.4874 C   0  0  0  0  0  0  0  0  0  0  0  0
  -28.3799  -21.4674   17.3161 C   0  0  0  0  0  0  0  0  0  0  0  0
  -21.5736  -30.4987   22.3662 C   0  0  0  0  0  0  0  0  0  0  0  0
  -25.3222  -11.2340   20.6089 C   0  0  0  0  0  0  0  0  0  0  0  0
  -24.2729  -17.3063   18.5001 C   0  0  0  0  0  0  0  0  0  0  0  0
  -25.9491  -19.3594   19.8115 C   0  0  0  0  0  0  0  0  0  0  0  0
  -19.1690  -23.1682   24.9306 C   0  0  0  0  0  0  0  0  0  0  0  0
  -26.4675  -12.1718   20.2357 C   0  0  0  0  0  0  0  0  0  0  0  0
  -23.5572  -32.4140   20.1138 C   0  0  0  0  0  0  0  0  0  0  0  0
  -26.5811  -13.3055   21.2499 C   0  0  0  0  0  0  0  0  0  0  0  0
  -24.7743  -31.5231   19.8550 C   0  0  0  0  0  0  0  0  0  0  0  0
  -19.4896  -24.5992   24.5442 C   0  0  0  0  0  0  0  0  0  0  0  0
  -23.0736  -32.3078   21.5590 C   0  0  0  0  0  0  0  0  0  0  0  0
  -24.0350  -30.0495   21.7704 C   0  0  0  0  0  0  0  0  0  0  0  0
  -25.3040  -14.1540   21.2743 C   0  0  1  0  0  0  0  0  0  0  0  0
  -25.7351  -17.0463   18.8491 C   0  0  1  0  0  0  0  0  0  0  0  0
  -24.5187  -30.0733   20.3112 C   0  0  2  0  0  0  0  0  0  0  0  0
  -16.6950  -28.6941   21.5349 C   0  0  0  0  0  0  0  0  0  0  0  0
  -19.5704  -24.0921   20.7068 C   0  0  0  0  0  0  0  0  0  0  0  0
  -15.8508  -26.0854   23.3698 C   0  0  0  0  0  0  0  0  0  0  0  0
  -30.0577  -22.8269   16.0378 C   0  0  0  0  0  0  0  0  0  0  0  0
  -29.6185  -18.4084   20.9526 C   0  0  0  0  0  0  0  0  0  0  0  0
  -30.7047  -20.4506   19.9947 C   0  0  0  0  0  0  0  0  0  0  0  0
  -30.8422  -18.2787   18.7754 C   0  0  0  0  0  0  0  0  0  0  0  0
  -26.4280  -22.0783   15.1769 C   0  0  0  0  0  0  0  0  0  0  0  0
  -16.8181  -25.8662   22.2119 C   0  0  0  0  0  0  0  0  0  0  0  0
  -20.4531  -21.3874   21.6977 C   0  0  0  0  0  0  0  0  0  1  0  0
  -28.6447  -19.5273   18.8393 C   0  0  1  0  0  0  0  0  0  0  0  0
  -28.8013  -21.9748   15.9488 C   0  0  2  0  0  0  0  0  0  0  0  0
  -29.9244  -19.1655   19.6449 C   0  0  0  0  0  0  0  0  0  0  0  0
  -26.6184  -29.0537   21.1068 N   0  0  0  0  0  0  0  0  0  0  0  0
  -25.7377  -29.1946   20.1015 N   0  0  0  0  0  0  0  0  0  0  0  0
  -19.3350  -24.7894   23.0962 N   0  0  0  0  0  0  0  0  0  0  0  0
  -26.5122  -18.2802   18.9834 N   0  0  0  0  0  0  0  0  0  0  0  0
  -22.8483  -30.9063   21.9193 N   0  0  0  0  0  0  0  0  0  0  0  0
  -25.2938  -28.5291   17.8720 N   0  0  0  0  0  0  0  0  0  0  0  0
  -27.6925  -25.6335   18.3771 N   0  0  0  0  0  0  0  0  0  0  0  0
  -21.4698  -29.1370   22.6485 N   0  0  0  0  0  0  0  0  0  0  0  0
  -25.2721  -15.0520   20.1399 N   0  0  0  0  0  0  0  0  0  0  0  0
  -28.9058  -20.2210   17.5828 N   0  0  0  0  0  0  0  0  0  0  0  0
  -27.7162  -22.7989   15.3451 N   0  3  0  0  0  0  0  0  0  0  0  0
  -20.3047  -21.1182   24.4822 O   0  0  0  0  0  0  0  0  0  0  0  0
  -28.8773  -27.4428   17.6145 O   0  0  0  0  0  0  0  0  0  0  0  0
  -26.5463  -16.7756   21.0499 O   0  0  0  0  0  0  0  0  0  0  0  0
  -28.3239  -17.4235   17.7918 O   0  0  0  0  0  0  0  0  0  0  0  0
  -27.6594  -22.1139   18.0735 O   0  0  0  0  0  0  0  0  0  0  0  0
  -20.6351  -31.2936   22.4635 O   0  0  0  0  0  0  0  0  0  0  0  0
  -31.9524  -26.6878   23.6559 O   0  0  0  0  0  0  0  0  0  0  0  0
  -21.8763  -21.4015   21.5948 O   0  0  0  0  0  0  0  0  0  1  0  0
  -31.9930  -21.5630   25.6904 F   0  0  0  0  0  0  0  0  0  0  0  0
  -31.8559  -24.4941   21.9762 F   0  0  0  0  0  0  0  0  0  0  0  0
  1  2  1  0  0  0  0
  1  5  2  0  0  0  0
  2  6  2  0  0  0  0
  3  8  2  0  0  0  0
  3 17  1  0  0  0  0
  4  9  1  0  0  0  0
  4 17  2  0  0  0  0
  5 19  1  0  0  0  0
  6 21  1  0  0  0  0
  7 10  2  0  0  0  0
  7 20  1  0  0  0  0
  8 27  1  0  0  0  0
  9 27  2  0  0  0  0
 10 28  1  0  0  0  0
 11 12  2  0  0  0  0
 11 29  1  0  0  0  0
 12 30  1  0  0  0  0
 13 22  1  0  0  0  0
 13 28  2  0  0  0  0
 14 23  2  0  0  0  0
 14 26  1  0  0  0  0
 15 25  1  0  0  0  0
 15 26  2  0  0  0  0
 16 30  2  0  0  0  0
 16 31  1  0  0  0  0
 17 32  1  0  0  0  0
 18 32  1  0  0  0  0
 18 33  2  0  0  0  0
 18 37  1  0  0  0  0
 19 21  2  0  0  0  0
 19 42  1  0  0  0  0
 20 22  2  0  0  0  0
 20 43  1  0  0  0  0
 21 53  1  0  0  0  0
 22 44  1  0  0  0  0
 23 24  1  0  0  0  0
 23 56  1  0  0  0  0
 24 25  2  0  0  0  0
 24 64  1  0  0  0  0
 25 71  1  0  0  0  0
 26 76  1  0  0  0  0
 27 86  1  0  0  0  0
 28 87  1  0  0  0  0
 29 31  2  0  0  0  0
 29 86  1  0  0  0  0
 30 88  1  0  0  0  0
 31 89  1  0  0  0  0
 32 69  2  0  0  0  0
 33 70  1  0  0  0  0
 33 74  1  0  0  0  0
 34 35  2  0  0  0  0
 34 36  1  0  0  0  0
 34 65  1  0  0  0  0
 35 57  1  0  0  0  0
 35 71  1  0  0  0  0
 36 45  1  0  0  0  0
 36 80  2  0  0  0  0
 37 75  1  0  0  0  0
 37 81  2  0  0  0  0
 38 54  1  0  0  0  0
 38 77  1  0  0  0  0
 38 82  2  0  0  0  0
 39 66  1  0  0  0  0
 39 72  1  0  0  0  0
 39 83  2  0  0  0  0
 40 67  1  0  0  0  0
 40 78  1  0  0  0  0
 40 84  2  0  0  0  0
 41 73  1  0  0  0  0
 41 76  1  0  0  0  0
 41 85  2  0  0  0  0
 42 46  1  0  0  0  0
 43 54  1  0  0  0  0
 44 72  1  0  0  0  0
 45 50  1  0  0  0  0
 46 48  1  0  0  0  0
 47 49  1  0  0  0  0
 47 51  1  0  0  0  0
 48 53  1  0  0  0  0
 49 55  1  0  0  0  0
 50 71  1  0  0  0  0
 51 73  1  0  0  0  0
 52 55  1  0  0  0  0
 52 73  1  0  0  0  0
 53 77  1  0  0  0  0
 54 72  1  0  0  0  0
 55 70  1  0  0  0  0
 58 64  1  0  0  0  0
 59 67  1  0  0  0  0
 60 68  1  0  0  0  0
 61 68  1  0  0  0  0
 62 68  1  0  0  0  0
 63 79  1  0  0  0  0
 65 87  1  0  0  0  0
 66 68  1  0  0  0  0
 66 78  1  0  0  0  0
 67 79  1  0  0  0  0
 69 70  1  0  0  0  0
M  CHG  1  79   1
M  ISO  4  41 100  65 101  76 100  87 101
M  END
> <Batch ID>
0109

> <Smiles>
CCc1c(C)cc([100NH:0][100C:0](=O)N2CCCC(n3nc(-c4ccc(Oc5ccc(F)cc5F)cc4)c(C(N)=O)c3N)C2)cc1N1CCC(=O)C([101CH2:1][101O:1]c2ccc3c(c2)CN(C(=O)C(NC(=O)C(C)NC)C(C)(C)C)C(C(=O)NC2CCCc4ccccc42)C3)=C1C

> <Shape>
0.222

> <Color>
0.085

> <Negative vol penalty>
0.000

$$$$

  -OEChem-04052301233D

 90 99  0     1  0  0  0  0  0999 V2000
  -19.1147  -34.1875   18.0609 C   0  0  0  0  0  0  0  0  0  0  0  0
  -19.9258  -33.1415   17.6325 C   0  0  0  0  0  0  0  0  0  0  0  0
  -23.5178   -9.0446   20.2451 C   0  0  0  0  0  0  0  0  0  0  0  0
  -23.4262  -10.7661   21.9377 C   0  0  0  0  0  0  0  0  0  0  0  0
  -19.5136  -34.9829   19.1342 C   0  0  0  0  0  0  0  0  0  0  0  0
  -21.1370  -32.8912   18.2766 C   0  0  0  0  0  0  0  0  0  0  0  0
  -23.7426  -27.4307   19.2249 C   0  0  0  0  0  0  0  0  0  0  0  0
  -22.5956   -8.2863   20.9663 C   0  0  0  0  0  0  0  0  0  0  0  0
  -22.5039  -10.0078   22.6590 C   0  0  0  0  0  0  0  0  0  0  0  0
  -24.7499  -26.7422   18.5503 C   0  0  0  0  0  0  0  0  0  0  0  0
  -22.6116   -6.2565   23.6689 C   0  0  0  0  0  0  0  0  0  0  0  0
  -22.8719   -4.8948   23.8220 C   0  0  0  0  0  0  0  0  0  0  0  0
  -29.9799  -18.6516   19.4761 C   0  0  0  0  0  0  0  0  0  0  0  0
  -26.3721  -27.5863   20.1236 C   0  0  0  0  0  0  0  0  0  0  0  0
  -28.1789  -19.6960   17.6192 C   0  0  0  0  0  0  0  0  0  0  0  0
  -20.7997   -4.3720   22.6952 C   0  0  0  0  0  0  0  0  0  0  0  0
  -23.9331  -10.2845   20.7308 C   0  0  0  0  0  0  0  0  0  0  0  0
  -29.9800  -20.0182   19.1970 C   0  0  0  0  0  0  0  0  0  0  0  0
  -24.7420  -11.5617   18.6760 C   0  0  0  0  0  0  0  0  0  0  0  0
  -20.7257  -34.7362   19.7979 C   0  0  0  0  0  0  0  0  0  0  0  0
  -24.0446  -28.2122   20.3493 C   0  0  0  0  0  0  0  0  0  0  0  0
  -21.5531  -33.6850   19.3589 C   0  0  0  0  0  0  0  0  0  0  0  0
  -25.3663  -28.2816   20.8122 C   0  0  0  0  0  0  0  0  0  0  0  0
  -29.0795  -20.5404   18.2686 C   0  0  0  0  0  0  0  0  0  0  0  0
  -29.0794  -17.8071   18.8268 C   0  0  0  0  0  0  0  0  0  0  0  0
  -22.0887   -8.7679   22.1732 C   0  0  0  0  0  0  0  0  0  0  0  0
  -26.0653  -26.8223   18.9979 C   0  0  0  0  0  0  0  0  0  0  0  0
  -21.4453   -6.6760   23.0291 C   0  0  0  0  0  0  0  0  0  0  0  0
  -28.1788  -18.3294   17.8984 C   0  0  0  0  0  0  0  0  0  0  0  0
  -21.9660   -3.9525   23.3351 C   0  0  0  0  0  0  0  0  0  0  0  0
  -20.5394   -5.7338   22.5422 C   0  0  0  0  0  0  0  0  0  0  0  0
  -24.8861  -11.0680   19.9865 C   0  0  0  0  0  0  0  0  0  0  0  0
  -25.9135  -12.2361   18.4325 C   0  0  0  0  0  0  0  0  0  0  0  0
  -27.8647  -24.0125   17.6244 C   0  0  0  0  0  0  0  0  0  0  0  0
  -27.9425  -22.7666   18.1515 C   0  0  0  0  0  0  0  0  0  0  0  0
  -29.0690  -24.5452   16.9059 C   0  0  0  0  0  0  0  0  0  0  0  0
  -30.5849  -21.8592   20.7003 C   0  0  0  0  0  0  0  0  0  0  0  0
  -30.9365  -20.8694   19.8942 C   0  0  0  0  0  0  0  0  0  0  0  0
  -23.6471  -11.4231   17.7608 C   0  0  0  0  0  0  0  0  0  0  0  0
  -23.7979  -31.2987   21.0677 C   0  0  0  0  0  0  0  0  0  0  0  0
  -24.7340  -30.2901   24.0051 C   0  0  0  0  0  0  0  0  0  0  0  0
  -26.3378  -27.9363   25.8852 C   0  0  0  0  0  0  0  0  0  0  0  0
  -29.9279  -15.7547   20.0159 C   0  0  0  0  0  0  0  0  0  0  0  0
  -21.1370  -35.6526   20.9229 C   0  0  0  0  0  0  0  0  0  0  0  0
  -22.9424  -28.9273   21.0817 C   0  0  0  0  0  0  0  0  0  0  0  0
  -25.7398  -29.0906   22.0265 C   0  0  0  0  0  0  0  0  0  0  0  0
  -30.3681  -23.7928   17.0536 C   0  0  0  0  0  0  0  0  0  0  0  0
  -22.2583  -35.0868   21.7905 C   0  0  0  0  0  0  0  0  0  0  0  0
  -30.2468  -12.3613   21.0456 C   0  0  0  0  0  0  0  0  0  0  0  0
  -23.3742  -34.5206   20.9181 C   0  0  0  0  0  0  0  0  0  0  0  0
  -28.8687  -11.7629   20.7540 C   0  0  0  0  0  0  0  0  0  0  0  0
  -30.1387  -22.2938   17.0395 C   0  0  0  0  0  0  0  0  0  0  0  0
  -30.1460  -13.8035   21.5391 C   0  0  0  0  0  0  0  0  0  0  0  0
  -27.9904  -14.1037   20.3847 C   0  0  0  0  0  0  0  0  0  0  0  0
  -22.8624  -33.3665   20.0478 C   0  0  1  0  0  0  0  0  0  0  0  0
  -23.4427  -30.1065   21.9103 C   0  0  1  0  0  0  0  0  0  0  0  0
  -28.0444  -12.6736   19.8230 C   0  0  2  0  0  0  0  0  0  0  0  0
  -26.8262  -22.2565   19.0429 C   0  0  0  0  0  0  0  0  0  0  0  0
  -26.9727  -27.4049   28.2541 C   0  0  0  0  0  0  0  0  0  0  0  0
  -26.9602  -32.3726   23.8731 C   0  0  0  0  0  0  0  0  0  0  0  0
  -28.0932  -31.1793   25.7601 C   0  0  0  0  0  0  0  0  0  0  0  0
  -25.8364  -32.1864   26.0996 C   0  0  0  0  0  0  0  0  0  0  0  0
  -24.7668  -25.4283   25.8660 C   0  0  0  0  0  0  0  0  0  0  0  0
  -26.0236  -17.3243   17.8741 C   0  0  0  0  0  0  0  0  0  0  0  0
  -26.6843  -24.9393   17.6836 C   0  0  0  0  0  0  0  0  0  1  0  0
  -26.0623  -30.0959   24.6958 C   0  0  1  0  0  0  0  0  0  0  0  0
  -25.9331  -27.2183   27.1600 C   0  0  2  0  0  0  0  0  0  0  0  0
  -26.7316  -31.4448   25.0831 C   0  0  0  0  0  0  0  0  0  0  0  0
  -26.0569  -11.4003   20.5369 N   0  0  0  0  0  0  0  0  0  0  0  0
  -26.6591  -12.1100   19.5675 N   0  0  0  0  0  0  0  0  0  0  0  0
  -29.0578  -21.9291   17.9642 N   0  0  0  0  0  0  0  0  0  0  0  0
  -24.6278  -29.7768   22.7047 N   0  0  0  0  0  0  0  0  0  0  0  0
  -29.3551  -14.6078   20.6051 N   0  0  0  0  0  0  0  0  0  0  0  0
  -26.3682  -12.9188   17.3603 N   0  0  0  0  0  0  0  0  0  0  0  0
  -22.6345  -12.3919   17.7789 N   0  0  0  0  0  0  0  0  0  0  0  0
  -29.0925  -16.4209   19.1198 N   0  0  0  0  0  0  0  0  0  0  0  0
  -22.7405  -32.1569   20.8329 N   0  0  0  0  0  0  0  0  0  0  0  0
  -25.8090  -29.2084   25.8256 N   0  0  0  0  0  0  0  0  0  0  0  0
  -25.7763  -25.7584   26.9047 N   0  3  0  0  0  0  0  0  0  0  0  0
  -29.0211  -25.6061   16.2853 O   0  0  0  0  0  0  0  0  0  0  0  0
  -23.5608  -10.4596   16.9622 O   0  0  0  0  0  0  0  0  0  0  0  0
  -24.9466  -31.4312   20.6619 O   0  0  0  0  0  0  0  0  0  0  0  0
  -23.8219  -30.8693   24.6003 O   0  0  0  0  0  0  0  0  0  0  0  0
  -27.0546  -27.4217   25.0297 O   0  0  0  0  0  0  0  0  0  0  0  0
  -31.0845  -16.1036   20.2656 O   0  0  0  0  0  0  0  0  0  0  0  0
  -21.1886   -8.0284   22.8772 O   0  0  0  0  0  0  0  0  0  0  0  0
  -27.2919  -17.5202   17.2528 O   0  0  0  0  0  0  0  0  0  0  0  0
  -27.0506  -26.1518   18.3410 O   0  0  0  0  0  0  0  0  0  1  0  0
  -22.2169   -2.6448   23.4809 F   0  0  0  0  0  0  0  0  0  0  0  0
  -19.4178   -6.1307   21.9255 F   0  0  0  0  0  0  0  0  0  0  0  0
  1  2  1  0  0  0  0
  1  5  2  0  0  0  0
  2  6  2  0  0  0  0
  3  8  2  0  0  0  0
  3 17  1  0  0  0  0
  4  9  1  0  0  0  0
  4 17  2  0  0  0  0
  5 20  1  0  0  0  0
  6 22  1  0  0  0  0
  7 10  2  0  0  0  0
  7 21  1  0  0  0  0
  8 26  1  0  0  0  0
  9 26  2  0  0  0  0
 10 27  1  0  0  0  0
 11 12  2  0  0  0  0
 11 28  1  0  0  0  0
 12 30  1  0  0  0  0
 13 18  1  0  0  0  0
 13 25  2  0  0  0  0
 14 23  1  0  0  0  0
 14 27  2  0  0  0  0
 15 24  1  0  0  0  0
 15 29  2  0  0  0  0
 16 30  2  0  0  0  0
 16 31  1  0  0  0  0
 17 32  1  0  0  0  0
 18 24  2  0  0  0  0
 18 38  1  0  0  0  0
 19 32  1  0  0  0  0
 19 33  2  0  0  0  0
 19 39  1  0  0  0  0
 20 22  2  0  0  0  0
 20 44  1  0  0  0  0
 21 23  2  0  0  0  0
 21 45  1  0  0  0  0
 22 55  1  0  0  0  0
 23 46  1  0  0  0  0
 24 71  1  0  0  0  0
 25 29  1  0  0  0  0
 25 76  1  0  0  0  0
 26 86  1  0  0  0  0
 27 88  1  0  0  0  0
 28 31  2  0  0  0  0
 28 86  1  0  0  0  0
 29 87  1  0  0  0  0
 30 89  1  0  0  0  0
 31 90  1  0  0  0  0
 32 69  2  0  0  0  0
 33 70  1  0  0  0  0
 33 74  1  0  0  0  0
 34 35  2  0  0  0  0
 34 36  1  0  0  0  0
 34 65  1  0  0  0  0
 35 58  1  0  0  0  0
 35 71  1  0  0  0  0
 36 47  1  0  0  0  0
 36 80  2  0  0  0  0
 37 38  2  0  0  0  0
 39 75  1  0  0  0  0
 39 81  2  0  0  0  0
 40 56  1  0  0  0  0
 40 77  1  0  0  0  0
 40 82  2  0  0  0  0
 41 66  1  0  0  0  0
 41 72  1  0  0  0  0
 41 83  2  0  0  0  0
 42 67  1  0  0  0  0
 42 78  1  0  0  0  0
 42 84  2  0  0  0  0
 43 73  1  0  0  0  0
 43 76  1  0  0  0  0
 43 85  2  0  0  0  0
 44 48  1  0  0  0  0
 45 56  1  0  0  0  0
 46 72  1  0  0  0  0
 47 52  1  0  0  0  0
 48 50  1  0  0  0  0
 49 51  1  0  0  0  0
 49 53  1  0  0  0  0
 50 55  1  0  0  0  0
 51 57  1  0  0  0  0
 52 71  1  0  0  0  0
 53 73  1  0  0  0  0
 54 57  1  0  0  0  0
 54 73  1  0  0  0  0
 55 77  1  0  0  0  0
 56 72  1  0  0  0  0
 57 70  1  0  0  0  0
 59 67  1  0  0  0  0
 60 68  1  0  0  0  0
 61 68  1  0  0  0  0
 62 68  1  0  0  0  0
 63 79  1  0  0  0  0
 64 87  1  0  0  0  0
 65 88  1  0  0  0  0
 66 68  1  0  0  0  0
 66 78  1  0  0  0  0
 67 79  1  0  0  0  0
 69 70  1  0  0  0  0
M  CHG  1  79   1
M  ISO  4  43 100  65 101  76 100  88 101
M  END
> <Batch ID>
0109

> <Smiles>
C=Cc1cc([100NH:0][100C:0](=O)N2CCCC(n3nc(-c4ccc(Oc5ccc(F)cc5F)cc4)c(C(N)=O)c3N)C2)c(OC)cc1N1CCC(=O)C([101CH2:1][101O:1]c2ccc3c(c2)CN(C(=O)C(NC(=O)C(C)NC)C(C)(C)C)C(C(=O)NC2CCCc4ccccc42)C3)=C1C

> <Shape>
0.275

> <Color>
0.080

> <Negative vol penalty>
0.000

$$$$

  -OEChem-04052301233D

 82 90  0     1  0  0  0  0  0999 V2000
  -29.7591  -12.2930   19.7204 C   0  0  0  0  0  0  0  0  0  0  0  0
  -29.7248  -13.6370   20.0781 C   0  0  0  0  0  0  0  0  0  0  0  0
  -28.8269  -26.7159   18.6771 C   0  0  0  0  0  0  0  0  0  0  0  0
  -26.8340  -25.4071   18.2870 C   0  0  0  0  0  0  0  0  0  0  0  0
  -28.6091  -11.6728   19.2338 C   0  0  0  0  0  0  0  0  0  0  0  0
  -28.5406  -14.3618   19.9485 C   0  0  0  0  0  0  0  0  0  0  0  0
  -24.9046  -19.7122   23.0257 C   0  0  0  0  0  0  0  0  0  0  0  0
  -29.5955  -25.5522   18.6550 C   0  0  0  0  0  0  0  0  0  0  0  0
  -27.6026  -24.2433   18.2648 C   0  0  0  0  0  0  0  0  0  0  0  0
  -24.2925  -20.9230   22.7045 C   0  0  0  0  0  0  0  0  0  0  0  0
  -28.9923  -20.8909   18.4639 C   0  0  0  0  0  0  0  0  0  0  0  0
  -28.5181  -19.7871   19.1727 C   0  0  0  0  0  0  0  0  0  0  0  0
  -22.3474  -19.7266   21.9272 C   0  0  0  0  0  0  0  0  0  0  0  0
  -19.7969  -26.3009   22.0257 C   0  0  0  0  0  0  0  0  0  0  0  0
  -18.6338  -27.8934   20.6300 C   0  0  0  0  0  0  0  0  0  0  0  0
  -18.4364  -25.5269   20.1853 C   0  0  0  0  0  0  0  0  0  0  0  0
  -28.5855  -21.0715   21.2179 C   0  0  0  0  0  0  0  0  0  0  0  0
  -27.4461  -26.6434   18.4931 C   0  0  0  0  0  0  0  0  0  0  0  0
  -26.3241  -28.6691   17.4230 C   0  0  0  0  0  0  0  0  0  0  0  0
  -27.4077  -12.3879   19.1072 C   0  0  0  0  0  0  0  0  0  0  0  0
  -24.2460  -18.4970   22.7895 C   0  0  0  0  0  0  0  0  0  0  0  0
  -27.3738  -13.7509   19.4585 C   0  0  0  0  0  0  0  0  0  0  0  0
  -22.9523  -18.5019   22.2486 C   0  0  0  0  0  0  0  0  0  0  0  0
  -19.4751  -27.6206   21.7087 C   0  0  0  0  0  0  0  0  0  0  0  0
  -19.2776  -25.2541   21.2640 C   0  0  0  0  0  0  0  0  0  0  0  0
  -18.1145  -26.8466   19.8683 C   0  0  0  0  0  0  0  0  0  0  0  0
  -28.9834  -24.3159   18.4488 C   0  0  0  0  0  0  0  0  0  0  0  0
  -23.0149  -20.9302   22.1526 C   0  0  0  0  0  0  0  0  0  0  0  0
  -29.2632  -22.0850   19.1321 C   0  0  0  0  0  0  0  0  0  0  0  0
  -28.3147  -19.8774   20.5497 C   0  0  0  0  0  0  0  0  0  0  0  0
  -29.0597  -22.1753   20.5091 C   0  0  0  0  0  0  0  0  0  0  0  0
  -26.6515  -27.8451   18.5164 C   0  0  0  0  0  0  0  0  0  0  0  0
  -25.5583  -29.6718   17.9658 C   0  0  0  0  0  0  0  0  0  0  0  0
  -20.6556  -23.4486   21.0051 C   0  0  0  0  0  0  0  0  0  0  0  0
  -26.6803  -28.5397   16.0402 C   0  0  0  0  0  0  0  0  0  0  0  0
  -24.8222  -15.9479   20.9801 C   0  0  0  0  0  0  0  0  0  0  0  0
  -22.2235  -14.7565   22.5130 C   0  0  0  0  0  0  0  0  0  0  0  0
  -19.3295  -15.3700   24.2145 C   0  0  0  0  0  0  0  0  0  0  0  0
  -22.1441  -29.9923   22.8742 C   0  0  0  0  0  0  0  0  0  0  0  0
  -26.2027  -11.6867   18.5319 C   0  0  0  0  0  0  0  0  0  0  0  0
  -24.9092  -17.2006   23.1662 C   0  0  0  0  0  0  0  0  0  0  0  0
  -22.1943  -17.2254   21.9943 C   0  0  0  0  0  0  0  0  0  0  0  0
  -24.8914  -12.4284   18.7778 C   0  0  0  0  0  0  0  0  0  0  0  0
  -24.8975  -32.0902   22.0408 C   0  0  0  0  0  0  0  0  0  0  0  0
  -25.0476  -13.9108   18.4540 C   0  0  0  0  0  0  0  0  0  0  0  0
  -25.6297  -31.3144   20.9444 C   0  0  0  0  0  0  0  0  0  0  0  0
  -24.3186  -31.1569   23.1019 C   0  0  0  0  0  0  0  0  0  0  0  0
  -24.1892  -29.3054   21.4805 C   0  0  0  0  0  0  0  0  0  0  0  0
  -26.1019  -14.5644   19.3556 C   0  0  1  0  0  0  0  0  0  0  0  0
  -24.3516  -16.0012   22.4061 C   0  0  1  0  0  0  0  0  0  0  0  0
  -24.7424  -30.2000   20.3580 C   0  0  2  0  0  0  0  0  0  0  0  0
  -17.4003  -14.1952   25.3078 C   0  0  0  0  0  0  0  0  0  0  0  0
  -21.0301  -14.1666   19.7675 C   0  0  0  0  0  0  0  0  0  0  0  0
  -18.7988  -13.9013   20.8716 C   0  0  0  0  0  0  0  0  0  0  0  0
  -20.6738  -12.3680   21.4683 C   0  0  0  0  0  0  0  0  0  0  0  0
  -19.9740  -16.5274   26.8610 C   0  0  0  0  0  0  0  0  0  0  0  0
  -20.0308  -28.7393   22.5234 C   0  0  0  0  0  0  0  0  0  0  0  0
  -21.1056  -22.0440   21.2752 C   0  0  0  0  0  0  0  0  0  1  0  0
  -20.7351  -14.7680   22.2610 C   0  0  1  0  0  0  0  0  0  0  0  0
  -18.7818  -14.7979   25.5096 C   0  0  2  0  0  0  0  0  0  0  0  0
  -20.3242  -13.8251   21.0950 C   0  0  0  0  0  0  0  0  0  0  0  0
  -26.1360  -28.2861   19.6670 N   0  0  0  0  0  0  0  0  0  0  0  0
  -19.6020  -23.9248   21.5836 N   0  0  0  0  0  0  0  0  0  0  0  0
  -25.4770  -29.3983   19.2995 N   0  0  0  0  0  0  0  0  0  0  0  0
  -22.8878  -15.9834   22.3736 N   0  0  0  0  0  0  0  0  0  0  0  0
  -23.4860  -30.1243   22.4803 N   0  0  0  0  0  0  0  0  0  0  0  0
  -17.2642  -27.1225   18.7774 N   0  0  0  0  0  0  0  0  0  0  0  0
  -24.9534  -30.7520   17.4277 N   0  0  0  0  0  0  0  0  0  0  0  0
  -27.4725  -27.4501   15.6535 N   0  0  0  0  0  0  0  0  0  0  0  0
  -25.5548  -14.8177   20.6713 N   0  0  0  0  0  0  0  0  0  0  0  0
  -20.1026  -14.4511   23.5369 N   0  0  0  0  0  0  0  0  0  0  0  0
  -21.4239  -28.9932   22.2309 N   0  0  0  0  0  0  0  0  0  0  0  0
  -18.6825  -15.8644   26.5458 N   0  3  0  0  0  0  0  0  0  0  0  0
  -26.3208  -29.3748   15.1760 O   0  0  0  0  0  0  0  0  0  0  0  0
  -24.5402  -16.8637   20.2162 O   0  0  0  0  0  0  0  0  0  0  0  0
  -22.7752  -13.6995   22.8291 O   0  0  0  0  0  0  0  0  0  0  0  0
  -19.0919  -16.5161   23.8395 O   0  0  0  0  0  0  0  0  0  0  0  0
  -21.6249  -30.7150   23.7315 O   0  0  0  0  0  0  0  0  0  0  0  0
  -29.7332  -23.1801   18.4269 O   0  0  0  0  0  0  0  0  0  0  0  0
  -22.4154  -22.1106   21.8376 O   0  0  0  0  0  0  0  0  0  1  0  0
  -27.8578  -18.8178   21.2300 F   0  0  0  0  0  0  0  0  0  0  0  0
  -29.3170  -23.3202   21.1563 F   0  0  0  0  0  0  0  0  0  0  0  0
  1  2  1  0  0  0  0
  1  5  2  0  0  0  0
  2  6  2  0  0  0  0
  3  8  2  0  0  0  0
  3 18  1  0  0  0  0
  4  9  1  0  0  0  0
  4 18  2  0  0  0  0
  5 20  1  0  0  0  0
  6 22  1  0  0  0  0
  7 10  2  0  0  0  0
  7 21  1  0  0  0  0
  8 27  1  0  0  0  0
  9 27  2  0  0  0  0
 10 28  1  0  0  0  0
 11 12  2  0  0  0  0
 11 29  1  0  0  0  0
 12 30  1  0  0  0  0
 13 23  1  0  0  0  0
 13 28  2  0  0  0  0
 14 24  1  0  0  0  0
 14 25  2  0  0  0  0
 15 24  2  0  0  0  0
 15 26  1  0  0  0  0
 16 25  1  0  0  0  0
 16 26  2  0  0  0  0
 17 30  2  0  0  0  0
 17 31  1  0  0  0  0
 18 32  1  0  0  0  0
 19 32  1  0  0  0  0
 19 33  2  0  0  0  0
 19 35  1  0  0  0  0
 20 22  2  0  0  0  0
 20 40  1  0  0  0  0
 21 23  2  0  0  0  0
 21 41  1  0  0  0  0
 22 49  1  0  0  0  0
 23 42  1  0  0  0  0
 24 57  1  0  0  0  0
 25 63  1  0  0  0  0
 26 67  1  0  0  0  0
 27 79  1  0  0  0  0
 28 80  1  0  0  0  0
 29 31  2  0  0  0  0
 29 79  1  0  0  0  0
 30 81  1  0  0  0  0
 31 82  1  0  0  0  0
 32 62  2  0  0  0  0
 33 64  1  0  0  0  0
 33 68  1  0  0  0  0
 34 58  1  0  0  0  0
 34 63  2  0  0  0  0
 35 69  1  0  0  0  0
 35 74  2  0  0  0  0
 36 50  1  0  0  0  0
 36 70  1  0  0  0  0
 36 75  2  0  0  0  0
 37 59  1  0  0  0  0
 37 65  1  0  0  0  0
 37 76  2  0  0  0  0
 38 60  1  0  0  0  0
 38 71  1  0  0  0  0
 38 77  2  0  0  0  0
 39 66  1  0  0  0  0
 39 72  1  0  0  0  0
 39 78  2  0  0  0  0
 40 43  1  0  0  0  0
 41 50  1  0  0  0  0
 42 65  1  0  0  0  0
 43 45  1  0  0  0  0
 44 46  1  0  0  0  0
 44 47  1  0  0  0  0
 45 49  1  0  0  0  0
 46 51  1  0  0  0  0
 47 66  1  0  0  0  0
 48 51  1  0  0  0  0
 48 66  1  0  0  0  0
 49 70  1  0  0  0  0
 50 65  1  0  0  0  0
 51 64  1  0  0  0  0
 52 60  1  0  0  0  0
 53 61  1  0  0  0  0
 54 61  1  0  0  0  0
 55 61  1  0  0  0  0
 56 73  1  0  0  0  0
 57 72  1  0  0  0  0
 58 80  1  0  0  0  0
 59 61  1  0  0  0  0
 59 71  1  0  0  0  0
 60 73  1  0  0  0  0
 62 64  1  0  0  0  0
M  CHG  1  73   1
M  ISO  4  39 100  58 101  72 100  80 101
M  END
> <Batch ID>
0109

> <Smiles>
CNC(C)C(=O)NC(C(=O)N1Cc2cc([101O:1][101CH:1]=CNc3cc(N)cc(C[100NH:0][100C:0](=O)N4CCCC(n5nc(-c6ccc(Oc7ccc(F)cc7F)cc6)c(C(N)=O)c5N)C4)c3)ccc2CC1C(=O)NC1CCCc2ccccc21)C(C)(C)C

> <Shape>
0.228

> <Color>
0.064

> <Negative vol penalty>
0.000

$$$$

  -OEChem-04052301233D

 90 99  0     1  0  0  0  0  0999 V2000
  -18.1499   -9.0876   22.2878 C   0  0  0  0  0  0  0  0  0  0  0  0
  -18.5280  -10.1474   23.1059 C   0  0  0  0  0  0  0  0  0  0  0  0
  -24.7189  -29.0509   22.2467 C   0  0  0  0  0  0  0  0  0  0  0  0
  -25.2239  -30.9236   20.8063 C   0  0  0  0  0  0  0  0  0  0  0  0
  -19.1233   -8.2895   21.6884 C   0  0  0  0  0  0  0  0  0  0  0  0
  -19.8799  -10.4091   23.3258 C   0  0  0  0  0  0  0  0  0  0  0  0
  -22.7477  -16.7922   21.6161 C   0  0  0  0  0  0  0  0  0  0  0  0
  -24.0826  -29.9108   23.1417 C   0  0  0  0  0  0  0  0  0  0  0  0
  -24.5875  -31.7836   21.7013 C   0  0  0  0  0  0  0  0  0  0  0  0
  -23.3244  -18.0581   21.5114 C   0  0  0  0  0  0  0  0  0  0  0  0
  -25.2964  -33.2821   24.6480 C   0  0  0  0  0  0  0  0  0  0  0  0
  -25.9395  -34.4782   24.9659 C   0  0  0  0  0  0  0  0  0  0  0  0
  -28.7746  -25.1631   20.4235 C   0  0  0  0  0  0  0  0  0  0  0  0
  -25.4571  -17.1558   22.2083 C   0  0  0  0  0  0  0  0  0  0  0  0
  -30.3326  -23.3643   20.0064 C   0  0  0  0  0  0  0  0  0  0  0  0
  -24.0566  -35.7205   24.1007 C   0  0  0  0  0  0  0  0  0  0  0  0
  -25.2896  -29.5573   21.0789 C   0  0  0  0  0  0  0  0  0  0  0  0
  -29.8378  -26.0601   20.5264 C   0  0  0  0  0  0  0  0  0  0  0  0
  -25.3783  -27.5764   19.4740 C   0  0  0  0  0  0  0  0  0  0  0  0
  -20.4879   -8.5474   21.8933 C   0  0  0  0  0  0  0  0  0  0  0  0
  -23.5280  -15.6991   22.0029 C   0  0  0  0  0  0  0  0  0  0  0  0
  -20.8725   -9.6128   22.7296 C   0  0  0  0  0  0  0  0  0  0  0  0
  -24.8878  -15.8831   22.3028 C   0  0  0  0  0  0  0  0  0  0  0  0
  -29.0220  -23.8152   20.1636 C   0  0  0  0  0  0  0  0  0  0  0  0
  -31.1484  -25.6092   20.3693 C   0  0  0  0  0  0  0  0  0  0  0  0
  -24.0169  -31.2772   22.8691 C   0  0  0  0  0  0  0  0  0  0  0  0
  -24.6757  -18.2394   21.8071 C   0  0  0  0  0  0  0  0  0  0  0  0
  -24.0334  -33.3051   24.0564 C   0  0  0  0  0  0  0  0  0  0  0  0
  -25.3197  -35.6975   24.6923 C   0  0  0  0  0  0  0  0  0  0  0  0
  -31.3958  -24.2613   20.1093 C   0  0  0  0  0  0  0  0  0  0  0  0
  -23.4135  -34.5243   23.7828 C   0  0  0  0  0  0  0  0  0  0  0  0
  -25.9476  -28.6695   20.1542 C   0  0  0  0  0  0  0  0  0  0  0  0
  -26.4087  -27.0642   18.7240 C   0  0  0  0  0  0  0  0  0  0  0  0
  -26.8959  -20.7756   20.5559 C   0  0  0  0  0  0  0  0  0  0  0  0
  -27.7521  -21.7749   20.8801 C   0  0  0  0  0  0  0  0  0  0  0  0
  -26.1682  -20.8650   19.2454 C   0  0  0  0  0  0  0  0  0  0  0  0
  -30.0104  -28.1192   21.8476 C   0  0  0  0  0  0  0  0  0  0  0  0
  -29.5403  -27.4614   20.7993 C   0  0  0  0  0  0  0  0  0  0  0  0
  -24.0378  -27.0693   19.5163 C   0  0  0  0  0  0  0  0  0  0  0  0
  -23.6791  -12.0159   22.7008 C   0  0  0  0  0  0  0  0  0  0  0  0
  -26.2580  -12.7466   21.2088 C   0  0  0  0  0  0  0  0  0  0  0  0
  -29.0662  -12.7659   19.2722 C   0  0  0  0  0  0  0  0  0  0  0  0
  -32.4376  -27.6273   19.6233 C   0  0  0  0  0  0  0  0  0  0  0  0
  -21.5032   -7.6281   21.2619 C   0  0  0  0  0  0  0  0  0  0  0  0
  -22.9348  -14.3289   22.1884 C   0  0  0  0  0  0  0  0  0  0  0  0
  -25.6805  -14.6848   22.7484 C   0  0  0  0  0  0  0  0  0  0  0  0
  -26.5263  -21.9834   18.2968 C   0  0  0  0  0  0  0  0  0  0  0  0
  -22.9175   -8.2023   21.2453 C   0  0  0  0  0  0  0  0  0  0  0  0
  -30.4811  -28.3211   16.5600 C   0  0  0  0  0  0  0  0  0  0  0  0
  -23.2712   -8.7899   22.6078 C   0  0  0  0  0  0  0  0  0  0  0  0
  -29.0589  -28.4793   17.0944 C   0  0  0  0  0  0  0  0  0  0  0  0
  -26.9414  -23.2411   19.0400 C   0  0  0  0  0  0  0  0  0  0  0  0
  -31.5243  -28.7189   17.5998 C   0  0  0  0  0  0  0  0  0  0  0  0
  -29.9568  -28.1470   19.4321 C   0  0  0  0  0  0  0  0  0  0  0  0
  -22.3291   -9.9436   22.9725 C   0  0  1  0  0  0  0  0  0  0  0  0
  -23.9009  -13.1953   21.8002 C   0  0  1  0  0  0  0  0  0  0  0  0
  -28.8882  -27.7141   18.4171 C   0  0  1  0  0  0  0  0  0  0  0  0
  -28.4606  -21.7580   22.2208 C   0  0  0  0  0  0  0  0  0  0  0  0
  -31.2199  -11.5289   18.9131 C   0  0  0  0  0  0  0  0  0  0  0  0
  -27.4143  -14.0386   23.7183 C   0  0  0  0  0  0  0  0  0  0  0  0
  -29.7034  -13.5785   22.8145 C   0  0  0  0  0  0  0  0  0  0  0  0
  -28.1594  -11.6850   23.3182 C   0  0  0  0  0  0  0  0  0  0  0  0
  -33.3965  -26.1176   21.3065 C   0  0  0  0  0  0  0  0  0  0  0  0
  -28.3422  -12.0800   16.4858 C   0  0  0  0  0  0  0  0  0  0  0  0
  -26.6185  -19.5370   21.3600 C   0  0  0  0  0  0  0  0  0  1  0  0
  -27.7062  -13.1533   21.3106 C   0  0  1  0  0  0  0  0  0  0  0  0
  -29.7632  -11.6624   18.4971 C   0  0  2  0  0  0  0  0  0  0  0  0
  -28.2271  -13.1291   22.7753 C   0  0  0  0  0  0  0  0  0  0  0  0
  -27.2394  -28.8424   19.8623 N   0  0  0  0  0  0  0  0  0  0  0  0
  -27.4905  -27.8509   18.9905 N   0  0  0  0  0  0  0  0  0  0  0  0
  -27.9408  -22.9024   20.0595 N   0  0  0  0  0  0  0  0  0  0  0  0
  -25.3328  -13.5173   21.9233 N   0  0  0  0  0  0  0  0  0  0  0  0
  -31.3131  -28.0276   18.8726 N   0  0  0  0  0  0  0  0  0  0  0  0
  -26.4858  -26.0222   17.8693 N   0  0  0  0  0  0  0  0  0  0  0  0
  -23.7234  -26.0907   20.4691 N   0  0  0  0  0  0  0  0  0  0  0  0
  -22.7016  -11.1455   22.2576 N   0  0  0  0  0  0  0  0  0  0  0  0
  -28.4403  -12.2804   20.4008 N   0  0  0  0  0  0  0  0  0  0  0  0
  -32.2668  -26.5148   20.4691 N   0  0  0  0  0  0  0  0  0  0  0  0
  -29.7162  -11.9472   17.0350 N   0  3  0  0  0  0  0  0  0  0  0  0
  -25.3377  -20.0147   18.9259 O   0  0  0  0  0  0  0  0  0  0  0  0
  -23.1495  -27.4600   18.7214 O   0  0  0  0  0  0  0  0  0  0  0  0
  -24.3463  -11.9018   23.7224 O   0  0  0  0  0  0  0  0  0  0  0  0
  -25.9530  -11.7690   20.5199 O   0  0  0  0  0  0  0  0  0  0  0  0
  -29.0792  -13.9417   18.9145 O   0  0  0  0  0  0  0  0  0  0  0  0
  -33.5053  -28.2512   19.5857 O   0  0  0  0  0  0  0  0  0  0  0  0
  -23.3958  -32.1166   23.7421 O   0  0  0  0  0  0  0  0  0  0  0  0
  -25.2334  -19.4771   21.6985 O   0  0  0  0  0  0  0  0  0  1  0  0
  -25.9367  -36.8461   24.9990 F   0  0  0  0  0  0  0  0  0  0  0  0
  -32.6508  -23.8152   19.9547 F   0  0  0  0  0  0  0  0  0  0  0  0
  -22.1997  -34.5527   23.2156 F   0  0  0  0  0  0  0  0  0  0  0  0
  1  2  1  0  0  0  0
  1  5  2  0  0  0  0
  2  6  2  0  0  0  0
  3  8  2  0  0  0  0
  3 17  1  0  0  0  0
  4  9  1  0  0  0  0
  4 17  2  0  0  0  0
  5 20  1  0  0  0  0
  6 22  1  0  0  0  0
  7 10  2  0  0  0  0
  7 21  1  0  0  0  0
  8 26  1  0  0  0  0
  9 26  2  0  0  0  0
 10 27  1  0  0  0  0
 11 12  2  0  0  0  0
 11 28  1  0  0  0  0
 12 29  1  0  0  0  0
 13 18  1  0  0  0  0
 13 24  2  0  0  0  0
 14 23  1  0  0  0  0
 14 27  2  0  0  0  0
 15 24  1  0  0  0  0
 15 30  2  0  0  0  0
 16 29  2  0  0  0  0
 16 31  1  0  0  0  0
 17 32  1  0  0  0  0
 18 25  2  0  0  0  0
 18 38  1  0  0  0  0
 19 32  1  0  0  0  0
 19 33  2  0  0  0  0
 19 39  1  0  0  0  0
 20 22  2  0  0  0  0
 20 44  1  0  0  0  0
 21 23  2  0  0  0  0
 21 45  1  0  0  0  0
 22 55  1  0  0  0  0
 23 46  1  0  0  0  0
 24 71  1  0  0  0  0
 25 30  1  0  0  0  0
 25 78  1  0  0  0  0
 26 86  1  0  0  0  0
 27 87  1  0  0  0  0
 28 31  2  0  0  0  0
 28 86  1  0  0  0  0
 29 88  1  0  0  0  0
 30 89  1  0  0  0  0
 31 90  1  0  0  0  0
 32 69  2  0  0  0  0
 33 70  1  0  0  0  0
 33 74  1  0  0  0  0
 34 35  2  0  0  0  0
 34 36  1  0  0  0  0
 34 65  1  0  0  0  0
 35 58  1  0  0  0  0
 35 71  1  0  0  0  0
 36 47  1  0  0  0  0
 36 80  2  0  0  0  0
 37 38  2  0  0  0  0
 39 75  1  0  0  0  0
 39 81  2  0  0  0  0
 40 56  1  0  0  0  0
 40 76  1  0  0  0  0
 40 82  2  0  0  0  0
 41 66  1  0  0  0  0
 41 72  1  0  0  0  0
 41 83  2  0  0  0  0
 42 67  1  0  0  0  0
 42 77  1  0  0  0  0
 42 84  2  0  0  0  0
 43 73  1  0  0  0  0
 43 78  1  0  0  0  0
 43 85  2  0  0  0  0
 44 48  1  0  0  0  0
 45 56  1  0  0  0  0
 46 72  1  0  0  0  0
 47 52  1  0  0  0  0
 48 50  1  0  0  0  0
 49 51  1  0  0  0  0
 49 53  1  0  0  0  0
 50 55  1  0  0  0  0
 51 57  1  0  0  0  0
 52 71  1  0  0  0  0
 53 73  1  0  0  0  0
 54 57  1  0  0  0  0
 54 73  1  0  0  0  0
 55 76  1  0  0  0  0
 56 72  1  0  0  0  0
 57 70  1  0  0  0  0
 59 67  1  0  0  0  0
 60 68  1  0  0  0  0
 61 68  1  0  0  0  0
 62 68  1  0  0  0  0
 63 78  1  0  0  0  0
 64 79  1  0  0  0  0
 65 87  1  0  0  0  0
 66 68  1  0  0  0  0
 66 77  1  0  0  0  0
 67 79  1  0  0  0  0
 69 70  1  0  0  0  0
M  CHG  1  79   1
M  ISO  4  43 100  65 101  78 100  87 101
M  END
> <Batch ID>
0109

> <Smiles>
C=Cc1cc(N2CCC(=O)C([101CH2:1][101O:1]c3ccc4c(c3)CN(C(=O)C(NC(=O)C(C)NC)C(C)(C)C)C(C(=O)NC3CCCc5ccccc53)C4)=C2C)cc(F)c1[100N:0](C)[100C:0](=O)N1CCCC(n2nc(-c3ccc(Oc4ccc(F)cc4F)cc3)c(C(N)=O)c2N)C1

> <Shape>
0.265

> <Color>
0.055

> <Negative vol penalty>
0.000

$$$$

  -OEChem-04052301233D

 90 99  0     1  0  0  0  0  0999 V2000
  -21.7549  -12.1166   19.1963 C   0  0  0  0  0  0  0  0  0  0  0  0
  -21.5565  -13.3732   19.7594 C   0  0  0  0  0  0  0  0  0  0  0  0
  -19.7009  -20.6132   23.9540 C   0  0  0  0  0  0  0  0  0  0  0  0
  -21.0373  -21.0684   21.9934 C   0  0  0  0  0  0  0  0  0  0  0  0
  -23.0007  -11.4984   19.2955 C   0  0  0  0  0  0  0  0  0  0  0  0
  -22.6035  -14.0119   20.4230 C   0  0  0  0  0  0  0  0  0  0  0  0
  -25.7599  -21.0489   19.1803 C   0  0  0  0  0  0  0  0  0  0  0  0
  -25.5413  -29.1981   20.4548 C   0  0  0  0  0  0  0  0  0  0  0  0
  -26.8464  -28.8494   20.8024 C   0  0  0  0  0  0  0  0  0  0  0  0
  -19.4517  -19.3235   23.4847 C   0  0  0  0  0  0  0  0  0  0  0  0
  -20.7882  -19.7786   21.5241 C   0  0  0  0  0  0  0  0  0  0  0  0
  -26.5038  -22.2074   18.9554 C   0  0  0  0  0  0  0  0  0  0  0  0
  -21.0790  -16.3625   23.3545 C   0  0  0  0  0  0  0  0  0  0  0  0
  -21.1928  -15.3093   24.2619 C   0  0  0  0  0  0  0  0  0  0  0  0
  -28.4511  -21.1600   19.9345 C   0  0  0  0  0  0  0  0  0  0  0  0
  -26.6003  -26.7544   19.6244 C   0  0  0  0  0  0  0  0  0  0  0  0
  -18.8763  -14.7353   23.8862 C   0  0  0  0  0  0  0  0  0  0  0  0
  -20.4937  -21.4857   23.2083 C   0  0  0  0  0  0  0  0  0  0  0  0
  -21.3831  -23.1776   24.8976 C   0  0  0  0  0  0  0  0  0  0  0  0
  -24.0662  -12.1340   19.9522 C   0  0  0  0  0  0  0  0  0  0  0  0
  -26.3637  -19.9348   19.7699 C   0  0  0  0  0  0  0  0  0  0  0  0
  -23.8643  -13.4010   20.5322 C   0  0  0  0  0  0  0  0  0  0  0  0
  -27.7144  -19.9924   20.1509 C   0  0  0  0  0  0  0  0  0  0  0  0
  -24.7657  -28.3249   19.6921 C   0  0  0  0  0  0  0  0  0  0  0  0
  -25.2952  -27.1031   19.2769 C   0  0  0  0  0  0  0  0  0  0  0  0
  -27.3759  -27.6276   20.3871 C   0  0  0  0  0  0  0  0  0  0  0  0
  -19.9954  -18.9062   22.2699 C   0  0  0  0  0  0  0  0  0  0  0  0
  -27.8460  -22.2629   19.3319 C   0  0  0  0  0  0  0  0  0  0  0  0
  -19.8638  -16.6022   22.7130 C   0  0  0  0  0  0  0  0  0  0  0  0
  -20.0915  -14.4957   24.5277 C   0  0  0  0  0  0  0  0  0  0  0  0
  -18.7624  -15.7886   22.9788 C   0  0  0  0  0  0  0  0  0  0  0  0
  -20.7510  -22.8182   23.6922 C   0  0  0  0  0  0  0  0  0  0  0  0
  -21.3830  -24.5511   24.8892 C   0  0  0  0  0  0  0  0  0  0  0  0
  -30.7208  -25.7365   19.2292 C   0  0  0  0  0  0  0  0  0  0  0  0
  -29.8540  -25.1743   20.0909 C   0  0  0  0  0  0  0  0  0  0  0  0
  -31.0905  -27.1740   19.1958 C   0  0  0  0  0  0  0  0  0  0  0  0
  -21.9223  -22.3444   25.9324 C   0  0  0  0  0  0  0  0  0  0  0  0
  -25.9843  -16.3969   20.9597 C   0  0  0  0  0  0  0  0  0  0  0  0
  -28.7253  -16.5892   19.5957 C   0  0  0  0  0  0  0  0  0  0  0  0
  -31.6275  -15.9918   17.9052 C   0  0  0  0  0  0  0  0  0  0  0  0
  -21.1752  -28.6015   20.4844 C   0  0  0  0  0  0  0  0  0  0  0  0
  -25.3813  -11.4058   20.0750 C   0  0  0  0  0  0  0  0  0  0  0  0
  -25.5847  -18.6873   20.0872 C   0  0  0  0  0  0  0  0  0  0  0  0
  -28.3128  -18.7817   20.8135 C   0  0  0  0  0  0  0  0  0  0  0  0
  -31.0776  -27.9479   20.4898 C   0  0  0  0  0  0  0  0  0  0  0  0
  -26.5448  -12.3119   20.4694 C   0  0  0  0  0  0  0  0  0  0  0  0
  -18.9069  -28.2850   23.2105 C   0  0  0  0  0  0  0  0  0  0  0  0
  -26.1462  -13.2178   21.6301 C   0  0  0  0  0  0  0  0  0  0  0  0
  -19.1794  -26.8805   23.7518 C   0  0  0  0  0  0  0  0  0  0  0  0
  -29.6738  -28.3473   20.9144 C   0  0  0  0  0  0  0  0  0  0  0  0
  -19.0269  -28.3365   21.6890 C   0  0  0  0  0  0  0  0  0  0  0  0
  -20.5718  -26.4164   21.6916 C   0  0  0  0  0  0  0  0  0  0  0  0
  -24.9825  -14.1365   21.2384 C   0  0  1  0  0  0  0  0  0  0  0  0
  -28.9827  -25.8841   21.1191 C   0  0  1  0  0  0  0  0  0  0  0  0
  -26.4156  -17.4010   19.9314 C   0  0  1  0  0  0  0  0  0  0  0  0
  -20.5175  -26.3268   23.2263 C   0  0  2  0  0  0  0  0  0  0  0  0
  -29.5214  -25.7860   22.5505 C   0  0  0  0  0  0  0  0  0  0  0  0
  -24.8775  -26.1708   16.9872 C   0  0  0  0  0  0  0  0  0  0  0  0
  -33.6176  -14.4633   17.8870 C   0  0  0  0  0  0  0  0  0  0  0  0
  -29.8823  -18.0731   21.9964 C   0  0  0  0  0  0  0  0  0  0  0  0
  -32.1429  -17.2142   21.3481 C   0  0  0  0  0  0  0  0  0  0  0  0
  -30.3345  -15.6136   21.9728 C   0  0  0  0  0  0  0  0  0  0  0  0
  -30.9954  -15.0114   15.1852 C   0  0  0  0  0  0  0  0  0  0  0  0
  -24.4831  -26.1516   18.4609 C   0  0  0  0  0  0  0  0  0  0  0  0
  -23.3708  -28.7197   19.3334 C   0  0  0  0  0  0  0  0  0  0  0  0
  -29.6283  -23.6817   20.0160 C   0  0  0  0  0  0  0  0  0  1  0  0
  -30.2053  -16.8268   19.7584 C   0  0  1  0  0  0  0  0  0  0  0  0
  -32.2202  -14.7130   17.3415 C   0  0  2  0  0  0  0  0  0  0  0  0
  -30.6257  -16.9471   21.2505 C   0  0  0  0  0  0  0  0  0  0  0  0
  -20.3763  -23.8779   22.9705 N   0  0  0  0  0  0  0  0  0  0  0  0
  -20.7742  -24.9166   23.7247 N   0  0  0  0  0  0  0  0  0  0  0  0
  -28.6873  -27.2782   20.7357 N   0  0  3  0  0  0  0  0  0  0  0  0
  -27.8668  -17.5603   20.1252 N   0  0  0  0  0  0  0  0  0  0  0  0
  -20.3189  -27.7988   21.2560 N   0  0  0  0  0  0  0  0  0  0  0  0
  -21.8441  -25.4697   25.7643 N   0  0  0  0  0  0  0  0  0  0  0  0
  -23.2651  -21.9529   25.8432 N   0  0  0  0  0  0  0  0  0  0  0  0
  -25.4578  -15.2360   20.4263 N   0  0  0  0  0  0  0  0  0  0  0  0
  -30.8735  -15.7510   19.0342 N   0  0  0  0  0  0  0  0  0  0  0  0
  -22.3826  -28.0174   20.1216 N   0  0  0  0  0  0  0  0  0  0  0  0
  -32.3028  -14.7913   15.8556 N   0  3  0  0  0  0  0  0  0  0  0  0
  -31.4467  -27.6869   18.1366 O   0  0  0  0  0  0  0  0  0  0  0  0
  -21.2293  -21.9451   26.8987 O   0  0  0  0  0  0  0  0  0  0  0  0
  -26.1202  -16.6546   22.1500 O   0  0  0  0  0  0  0  0  0  0  0  0
  -28.3380  -15.5684   19.0202 O   0  0  0  0  0  0  0  0  0  0  0  0
  -31.8176  -17.0946   17.3970 O   0  0  0  0  0  0  0  0  0  0  0  0
  -20.8875  -29.7554   20.1486 O   0  0  0  0  0  0  0  0  0  0  0  0
  -19.7526  -17.6477   21.8118 O   0  0  0  0  0  0  0  0  0  0  0  0
  -28.5676  -23.3954   19.1053 O   0  0  0  0  0  0  0  0  0  1  0  0
  -20.2013  -13.4833   25.3979 F   0  0  0  0  0  0  0  0  0  0  0  0
  -17.5927  -16.0132   22.3647 F   0  0  0  0  0  0  0  0  0  0  0  0
  1  2  1  0  0  0  0
  1  5  2  0  0  0  0
  2  6  2  0  0  0  0
  3 10  2  0  0  0  0
  3 18  1  0  0  0  0
  4 11  1  0  0  0  0
  4 18  2  0  0  0  0
  5 20  1  0  0  0  0
  6 22  1  0  0  0  0
  7 12  2  0  0  0  0
  7 21  1  0  0  0  0
  8  9  2  0  0  0  0
  8 24  1  0  0  0  0
  9 26  1  0  0  0  0
 10 27  1  0  0  0  0
 11 27  2  0  0  0  0
 12 28  1  0  0  0  0
 13 14  2  0  0  0  0
 13 29  1  0  0  0  0
 14 30  1  0  0  0  0
 15 23  1  0  0  0  0
 15 28  2  0  0  0  0
 16 25  1  0  0  0  0
 16 26  2  0  0  0  0
 17 30  2  0  0  0  0
 17 31  1  0  0  0  0
 18 32  1  0  0  0  0
 19 32  1  0  0  0  0
 19 33  2  0  0  0  0
 19 37  1  0  0  0  0
 20 22  2  0  0  0  0
 20 42  1  0  0  0  0
 21 23  2  0  0  0  0
 21 43  1  0  0  0  0
 22 53  1  0  0  0  0
 23 44  1  0  0  0  0
 24 25  2  0  0  0  0
 24 65  1  0  0  0  0
 25 64  1  0  0  0  0
 26 72  1  0  0  0  0
 27 87  1  0  0  0  0
 28 88  1  0  0  0  0
 29 31  2  0  0  0  0
 29 87  1  0  0  0  0
 30 89  1  0  0  0  0
 31 90  1  0  0  0  0
 32 70  2  0  0  0  0
 33 71  1  0  0  0  0
 33 75  1  0  0  0  0
 34 35  2  0  0  0  0
 34 36  1  0  0  0  0
 35 54  1  0  0  0  0
 35 66  1  0  0  0  0
 36 45  1  0  0  0  0
 36 81  2  0  0  0  0
 37 76  1  0  0  0  0
 37 82  2  0  0  0  0
 38 55  1  0  0  0  0
 38 77  1  0  0  0  0
 38 83  2  0  0  0  0
 39 67  1  0  0  0  0
 39 73  1  0  0  0  0
 39 84  2  0  0  0  0
 40 68  1  0  0  0  0
 40 78  1  0  0  0  0
 40 85  2  0  0  0  0
 41 74  1  0  0  0  0
 41 79  1  0  0  0  0
 41 86  2  0  0  0  0
 42 46  1  0  0  0  0
 43 55  1  0  0  0  0
 44 73  1  0  0  0  0
 45 50  1  0  0  0  0
 46 48  1  0  0  0  0
 47 49  1  0  0  0  0
 47 51  1  0  0  0  0
 48 53  1  0  0  0  0
 49 56  1  0  0  0  0
 50 72  1  0  0  0  0
 51 74  1  0  0  0  0
 52 56  1  0  0  0  0
 52 74  1  0  0  0  0
 53 77  1  0  0  0  0
 54 57  1  0  0  0  0
 54 72  1  0  0  0  0
 55 73  1  0  0  0  0
 56 71  1  0  0  0  0
 58 64  1  0  0  0  0
 59 68  1  0  0  0  0
 60 69  1  0  0  0  0
 61 69  1  0  0  0  0
 62 69  1  0  0  0  0
 63 80  1  0  0  0  0
 65 79  1  0  0  0  0
 66 88  1  0  0  0  0
 67 69  1  0  0  0  0
 67 78  1  0  0  0  0
 68 80  1  0  0  0  0
 70 71  1  0  0  0  0
M  CHG  1  80   1
M  ISO  4  41 100  66 101  79 100  88 101
M  END
> <Batch ID>
0109

> <Smiles>
CCc1cc(N2CCC(=O)CC([101CH2:1][101O:1]c3ccc4c(c3)CN(C(=O)C(NC(=O)C(C)NC)C(C)(C)C)C(C(=O)NC3CCCc5ccccc53)C4)=C2C)ccc1C[100NH:0][100C:0](=O)N1CCCC(n2nc(-c3ccc(Oc4ccc(F)cc4F)cc3)c(C(N)=O)c2N)C1

> <Shape>
0.232

> <Color>
0.083

> <Negative vol penalty>
0.000

$$$$

  -OEChem-04052301233D

 81 89  0     1  0  0  0  0  0999 V2000
  -29.4390  -35.9313   22.9569 C   0  0  0  0  0  0  0  0  0  0  0  0
  -29.4474  -34.5486   22.8035 C   0  0  0  0  0  0  0  0  0  0  0  0
  -24.6227  -12.1693   21.6470 C   0  0  0  0  0  0  0  0  0  0  0  0
  -25.9425  -11.8788   19.6443 C   0  0  0  0  0  0  0  0  0  0  0  0
  -31.7935  -22.6058   18.3221 C   0  0  0  0  0  0  0  0  0  0  0  0
  -28.3055  -36.5689   23.4595 C   0  0  0  0  0  0  0  0  0  0  0  0
  -28.3225  -33.8026   23.1536 C   0  0  0  0  0  0  0  0  0  0  0  0
  -27.1516  -30.3075   19.6811 C   0  0  0  0  0  0  0  0  0  0  0  0
  -31.9678  -21.2439   18.0769 C   0  0  0  0  0  0  0  0  0  0  0  0
  -24.0771  -10.8976   21.4719 C   0  0  0  0  0  0  0  0  0  0  0  0
  -25.3970  -10.6070   19.4692 C   0  0  0  0  0  0  0  0  0  0  0  0
  -27.9137  -29.1401   19.6706 C   0  0  0  0  0  0  0  0  0  0  0  0
  -21.6870   -9.4536   19.5675 C   0  0  0  0  0  0  0  0  0  0  0  0
  -20.3094   -9.3118   19.7333 C   0  0  0  0  0  0  0  0  0  0  0  0
  -29.4517  -22.2242   18.7775 C   0  0  0  0  0  0  0  0  0  0  0  0
  -26.1653  -27.9951   20.8752 C   0  0  0  0  0  0  0  0  0  0  0  0
  -20.6871   -7.7286   21.5188 C   0  0  0  0  0  0  0  0  0  0  0  0
  -25.5554  -12.6599   20.7331 C   0  0  0  0  0  0  0  0  0  0  0  0
  -30.5354  -23.0960   18.6725 C   0  0  0  0  0  0  0  0  0  0  0  0
  -27.2825  -14.3086   21.6312 C   0  0  0  0  0  0  0  0  0  0  0  0
  -27.1627  -35.8313   23.8068 C   0  0  0  0  0  0  0  0  0  0  0  0
  -25.8932  -30.3305   20.2993 C   0  0  0  0  0  0  0  0  0  0  0  0
  -27.1731  -34.4308   23.6625 C   0  0  0  0  0  0  0  0  0  0  0  0
  -25.3881  -29.1634   20.8900 C   0  0  0  0  0  0  0  0  0  0  0  0
  -30.8841  -20.3720   18.1819 C   0  0  0  0  0  0  0  0  0  0  0  0
  -29.6260  -20.8621   18.5322 C   0  0  0  0  0  0  0  0  0  0  0  0
  -24.4643  -10.1164   20.3831 C   0  0  0  0  0  0  0  0  0  0  0  0
  -27.4218  -27.9844   20.2702 C   0  0  0  0  0  0  0  0  0  0  0  0
  -22.5648   -8.7329   20.3774 C   0  0  0  0  0  0  0  0  0  0  0  0
  -19.8094   -8.4494   20.7089 C   0  0  0  0  0  0  0  0  0  0  0  0
  -22.0648   -7.8704   21.3530 C   0  0  0  0  0  0  0  0  0  0  0  0
  -26.1189  -13.9738   20.9131 C   0  0  0  0  0  0  0  0  0  0  0  0
  -27.3861  -15.6720   21.5007 C   0  0  0  0  0  0  0  0  0  0  0  0
  -30.3532  -24.5340   18.9316 C   0  0  0  0  0  0  0  0  0  0  0  0
  -29.1792  -25.1837   18.8997 C   0  0  0  0  0  0  0  0  0  0  0  0
  -28.1888  -13.4629   22.3516 C   0  0  0  0  0  0  0  0  0  0  0  0
  -24.6199  -31.9256   22.7362 C   0  0  0  0  0  0  0  0  0  0  0  0
  -21.8963  -30.4510   21.7719 C   0  0  0  0  0  0  0  0  0  0  0  0
  -20.4427  -27.8312   20.1378 C   0  0  0  0  0  0  0  0  0  0  0  0
  -27.1734  -20.2996   18.4116 C   0  0  0  0  0  0  0  0  0  0  0  0
  -25.9781  -36.5599   24.3904 C   0  0  0  0  0  0  0  0  0  0  0  0
  -25.0720  -31.5905   20.2787 C   0  0  0  0  0  0  0  0  0  0  0  0
  -24.0343  -29.1301   21.5492 C   0  0  0  0  0  0  0  0  0  0  0  0
  -24.6933  -35.7355   24.3857 C   0  0  0  0  0  0  0  0  0  0  0  0
  -24.0920  -19.0687   19.7027 C   0  0  0  0  0  0  0  0  0  0  0  0
  -24.9613  -34.3263   24.9046 C   0  0  0  0  0  0  0  0  0  0  0  0
  -24.4404  -17.6610   20.1918 C   0  0  0  0  0  0  0  0  0  0  0  0
  -24.8465  -19.4276   18.4238 C   0  0  0  0  0  0  0  0  0  0  0  0
  -26.6514  -17.8465   18.9818 C   0  0  0  0  0  0  0  0  0  0  0  0
  -25.9635  -33.5895   24.0078 C   0  0  1  0  0  0  0  0  0  0  0  0
  -24.0245  -31.6393   21.3867 C   0  0  1  0  0  0  0  0  0  0  0  0
  -25.9650  -17.4644   20.3034 C   0  0  2  0  0  0  0  0  0  0  0  0
  -31.0998  -18.9180   17.9122 C   0  0  0  0  0  0  0  0  0  0  0  0
  -18.1970  -26.8782   19.5493 C   0  0  0  0  0  0  0  0  0  0  0  0
  -21.5750  -29.4464   24.6350 C   0  0  0  0  0  0  0  0  0  0  0  0
  -19.9119  -27.7772   23.7887 C   0  0  0  0  0  0  0  0  0  0  0  0
  -19.4549  -30.2185   23.5562 C   0  0  0  0  0  0  0  0  0  0  0  0
  -20.9731  -28.0690   17.2359 C   0  0  0  0  0  0  0  0  0  0  0  0
  -29.0456  -26.6505   19.1567 C   0  0  0  0  0  0  0  0  0  1  0  0
  -21.2165  -29.1427   22.0963 C   0  0  1  0  0  0  0  0  0  0  0  0
  -19.3359  -27.7804   19.1001 C   0  0  2  0  0  0  0  0  0  0  0  0
  -20.5659  -29.1470   23.5084 C   0  0  0  0  0  0  0  0  0  0  0  0
  -25.5256  -15.0386   20.3671 N   0  0  0  0  0  0  0  0  0  0  0  0
  -26.3196  -16.0559   20.7423 N   0  0  0  0  0  0  0  0  0  0  0  0
  -23.2720  -30.3890   21.5085 N   0  0  0  0  0  0  0  0  0  0  0  0
  -26.2849  -19.2208   18.6055 N   0  0  0  0  0  0  0  0  0  0  0  0
  -28.2846  -16.5678   21.9620 N   0  0  0  0  0  0  0  0  0  0  0  0
  -27.9340  -12.0851   22.3844 N   0  0  0  0  0  0  0  0  0  0  0  0
  -28.5134  -19.9919   18.6445 N   0  0  0  0  0  0  0  0  0  0  0  0
  -25.3133  -33.1190   22.8035 N   0  0  0  0  0  0  0  0  0  0  0  0
  -20.2793  -28.8887   21.0074 N   0  0  0  0  0  0  0  0  0  0  0  0
  -19.8628  -27.2629   17.8057 N   0  3  0  0  0  0  0  0  0  0  0  0
  -29.1857  -13.9175   22.9623 O   0  0  0  0  0  0  0  0  0  0  0  0
  -24.4608  -31.1238   23.6492 O   0  0  0  0  0  0  0  0  0  0  0  0
  -21.2298  -31.4887   21.7459 O   0  0  0  0  0  0  0  0  0  0  0  0
  -21.3583  -27.0122   20.1757 O   0  0  0  0  0  0  0  0  0  0  0  0
  -26.7721  -21.4212   18.0909 O   0  0  0  0  0  0  0  0  0  0  0  0
  -23.9323   -8.8753   20.2121 O   0  0  0  0  0  0  0  0  0  0  0  0
  -28.1639  -26.8438   20.2620 O   0  0  0  0  0  0  0  0  0  1  0  0
  -18.4864   -8.3145   20.8690 F   0  0  0  0  0  0  0  0  0  0  0  0
  -22.9032   -7.1763   22.1348 F   0  0  0  0  0  0  0  0  0  0  0  0
  1  2  1  0  0  0  0
  1  6  2  0  0  0  0
  2  7  2  0  0  0  0
  3 10  2  0  0  0  0
  3 18  1  0  0  0  0
  4 11  1  0  0  0  0
  4 18  2  0  0  0  0
  5  9  2  0  0  0  0
  5 19  1  0  0  0  0
  6 21  1  0  0  0  0
  7 23  1  0  0  0  0
  8 12  2  0  0  0  0
  8 22  1  0  0  0  0
  9 25  1  0  0  0  0
 10 27  1  0  0  0  0
 11 27  2  0  0  0  0
 12 28  1  0  0  0  0
 13 14  2  0  0  0  0
 13 29  1  0  0  0  0
 14 30  1  0  0  0  0
 15 19  2  0  0  0  0
 15 26  1  0  0  0  0
 16 24  1  0  0  0  0
 16 28  2  0  0  0  0
 17 30  2  0  0  0  0
 17 31  1  0  0  0  0
 18 32  1  0  0  0  0
 19 34  1  0  0  0  0
 20 32  1  0  0  0  0
 20 33  2  0  0  0  0
 20 36  1  0  0  0  0
 21 23  2  0  0  0  0
 21 41  1  0  0  0  0
 22 24  2  0  0  0  0
 22 42  1  0  0  0  0
 23 50  1  0  0  0  0
 24 43  1  0  0  0  0
 25 26  2  0  0  0  0
 25 53  1  0  0  0  0
 26 69  1  0  0  0  0
 27 78  1  0  0  0  0
 28 79  1  0  0  0  0
 29 31  2  0  0  0  0
 29 78  1  0  0  0  0
 30 80  1  0  0  0  0
 31 81  1  0  0  0  0
 32 63  2  0  0  0  0
 33 64  1  0  0  0  0
 33 67  1  0  0  0  0
 34 35  2  0  0  0  0
 35 59  1  0  0  0  0
 36 68  1  0  0  0  0
 36 73  2  0  0  0  0
 37 51  1  0  0  0  0
 37 70  1  0  0  0  0
 37 74  2  0  0  0  0
 38 60  1  0  0  0  0
 38 65  1  0  0  0  0
 38 75  2  0  0  0  0
 39 61  1  0  0  0  0
 39 71  1  0  0  0  0
 39 76  2  0  0  0  0
 40 66  1  0  0  0  0
 40 69  1  0  0  0  0
 40 77  2  0  0  0  0
 41 44  1  0  0  0  0
 42 51  1  0  0  0  0
 43 65  1  0  0  0  0
 44 46  1  0  0  0  0
 45 47  1  0  0  0  0
 45 48  1  0  0  0  0
 46 50  1  0  0  0  0
 47 52  1  0  0  0  0
 48 66  1  0  0  0  0
 49 52  1  0  0  0  0
 49 66  1  0  0  0  0
 50 70  1  0  0  0  0
 51 65  1  0  0  0  0
 52 64  1  0  0  0  0
 54 61  1  0  0  0  0
 55 62  1  0  0  0  0
 56 62  1  0  0  0  0
 57 62  1  0  0  0  0
 58 72  1  0  0  0  0
 59 79  1  0  0  0  0
 60 62  1  0  0  0  0
 60 71  1  0  0  0  0
 61 72  1  0  0  0  0
 63 64  1  0  0  0  0
M  CHG  1  72   1
M  ISO  4  40 100  59 101  69 100  79 101
M  END
> <Batch ID>
0109

> <Smiles>
CNC(C)C(=O)NC(C(=O)N1Cc2cc([101O:1][101CH2:1]C=Cc3ccc(C)c([100NH:0][100C:0](=O)N4CCCC(n5nc(-c6ccc(Oc7ccc(F)cc7F)cc6)c(C(N)=O)c5N)C4)c3)ccc2CC1C(=O)NC1CCCc2ccccc21)C(C)(C)C

> <Shape>
0.293

> <Color>
0.070

> <Negative vol penalty>
0.000

$$$$

  -OEChem-04052301233D

 89 98  0     1  0  0  0  0  0999 V2000
  -21.5228   -8.8493   24.8440 C   0  0  0  0  0  0  0  0  0  0  0  0
  -22.7858   -9.3921   25.0574 C   0  0  0  0  0  0  0  0  0  0  0  0
  -25.0065  -27.5960   20.2448 C   0  0  0  0  0  0  0  0  0  0  0  0
  -26.3499  -27.1812   22.2096 C   0  0  0  0  0  0  0  0  0  0  0  0
  -21.0869   -8.5904   23.5452 C   0  0  0  0  0  0  0  0  0  0  0  0
  -23.6142   -9.6754   23.9721 C   0  0  0  0  0  0  0  0  0  0  0  0
  -24.7505  -16.2450   23.1019 C   0  0  0  0  0  0  0  0  0  0  0  0
  -23.9897  -28.1111   21.0488 C   0  0  0  0  0  0  0  0  0  0  0  0
  -25.3331  -27.6963   23.0136 C   0  0  0  0  0  0  0  0  0  0  0  0
  -25.3642  -17.4750   23.3399 C   0  0  0  0  0  0  0  0  0  0  0  0
  -21.5278  -26.9072   23.0271 C   0  0  0  0  0  0  0  0  0  0  0  0
  -20.2214  -26.4975   22.7604 C   0  0  0  0  0  0  0  0  0  0  0  0
  -27.3021  -16.7639   22.0801 C   0  0  0  0  0  0  0  0  0  0  0  0
  -30.2520  -25.0629   22.9811 C   0  0  0  0  0  0  0  0  0  0  0  0
  -32.1934  -24.7770   20.9981 C   0  0  0  0  0  0  0  0  0  0  0  0
  -19.5865  -28.7916   22.3467 C   0  0  0  0  0  0  0  0  0  0  0  0
  -26.1867  -27.1309   20.8252 C   0  0  0  0  0  0  0  0  0  0  0  0
  -27.1569  -25.4926   19.1276 C   0  0  0  0  0  0  0  0  0  0  0  0
  -21.9066   -8.8797   22.4429 C   0  0  0  0  0  0  0  0  0  0  0  0
  -25.4047  -15.2743   22.3382 C   0  0  0  0  0  0  0  0  0  0  0  0
  -23.1894   -9.4190   22.6573 C   0  0  0  0  0  0  0  0  0  0  0  0
  -26.6871  -15.5347   21.8279 C   0  0  0  0  0  0  0  0  0  0  0  0
  -31.3387  -25.9363   22.9379 C   0  0  0  0  0  0  0  0  0  0  0  0
  -30.1360  -24.0465   22.0329 C   0  0  0  0  0  0  0  0  0  0  0  0
  -32.3094  -25.7934   21.9464 C   0  0  0  0  0  0  0  0  0  0  0  0
  -24.1530  -28.1613   22.4331 C   0  0  0  0  0  0  0  0  0  0  0  0
  -26.6369  -17.7337   22.8304 C   0  0  0  0  0  0  0  0  0  0  0  0
  -21.8636  -28.2591   22.9537 C   0  0  0  0  0  0  0  0  0  0  0  0
  -19.2508  -27.4397   22.4202 C   0  0  0  0  0  0  0  0  0  0  0  0
  -31.1067  -23.9036   21.0414 C   0  0  0  0  0  0  0  0  0  0  0  0
  -20.8929  -29.2013   22.6134 C   0  0  0  0  0  0  0  0  0  0  0  0
  -27.2371  -26.5982   19.9953 C   0  0  0  0  0  0  0  0  0  0  0  0
  -28.4111  -25.3974   18.5759 C   0  0  0  0  0  0  0  0  0  0  0  0
  -28.0948  -20.9192   22.0247 C   0  0  0  0  0  0  0  0  0  0  0  0
  -29.1344  -21.7622   22.2364 C   0  0  0  0  0  0  0  0  0  0  0  0
  -26.7565  -21.5220   21.7150 C   0  0  0  0  0  0  0  0  0  0  0  0
  -26.0478  -24.6289   18.8454 C   0  0  0  0  0  0  0  0  0  0  0  0
  -25.2953  -11.8418   20.8277 C   0  0  0  0  0  0  0  0  0  0  0  0
  -26.5815  -13.6911   18.7453 C   0  0  0  0  0  0  0  0  0  0  0  0
  -27.6640  -15.2056   15.8867 C   0  0  0  0  0  0  0  0  0  0  0  0
  -33.7231  -27.5013   20.7736 C   0  0  0  0  0  0  0  0  0  0  0  0
  -21.4105   -8.5385   21.0600 C   0  0  0  0  0  0  0  0  0  0  0  0
  -24.8074  -13.9126   22.1084 C   0  0  0  0  0  0  0  0  0  0  0  0
  -27.3674  -14.4479   21.0410 C   0  0  0  0  0  0  0  0  0  0  0  0
  -26.5837  -23.0046   21.9328 C   0  0  0  0  0  0  0  0  0  0  0  0
  -22.2024   -9.2159   19.9445 C   0  0  0  0  0  0  0  0  0  0  0  0
  -32.2326  -28.0293   17.4281 C   0  0  0  0  0  0  0  0  0  0  0  0
  -23.7009   -9.0781   20.1940 C   0  0  0  0  0  0  0  0  0  0  0  0
  -30.7573  -27.7076   17.6593 C   0  0  0  0  0  0  0  0  0  0  0  0
  -27.8221  -23.7697   21.5075 C   0  0  0  0  0  0  0  0  0  0  0  0
  -32.9019  -28.5581   18.6930 C   0  0  0  0  0  0  0  0  0  0  0  0
  -31.2780  -27.3251   20.1015 C   0  0  0  0  0  0  0  0  0  0  0  0
  -24.1073   -9.7630   21.5044 C   0  0  1  0  0  0  0  0  0  0  0  0
  -25.1455  -13.3312   20.7239 C   0  0  1  0  0  0  0  0  0  0  0  0
  -30.5910  -26.7524   18.8527 C   0  0  1  0  0  0  0  0  0  0  0  0
  -31.4391  -27.0142   23.9679 C   0  0  0  0  0  0  0  0  0  0  0  0
  -30.4583  -21.2132   22.7332 C   0  0  0  0  0  0  0  0  0  0  0  0
  -28.9391  -14.7452   13.7750 C   0  0  0  0  0  0  0  0  0  0  0  0
  -29.1952  -13.7414   20.3170 C   0  0  0  0  0  0  0  0  0  0  0  0
  -30.3918  -14.2357   18.1740 C   0  0  0  0  0  0  0  0  0  0  0  0
  -29.1399  -12.0940   18.4362 C   0  0  0  0  0  0  0  0  0  0  0  0
  -34.4778  -26.5461   22.9066 C   0  0  0  0  0  0  0  0  0  0  0  0
  -25.3340  -15.8873   14.1938 C   0  0  0  0  0  0  0  0  0  0  0  0
  -28.1337  -19.4184   22.0696 C   0  0  0  0  0  0  0  0  0  1  0  0
  -27.8559  -14.2556   18.1703 C   0  0  1  0  0  0  0  0  0  0  0  0
  -27.5670  -14.7930   14.4290 C   0  0  2  0  0  0  0  0  0  0  0  0
  -29.1247  -13.5986   18.7835 C   0  0  0  0  0  0  0  0  0  0  0  0
  -28.4467  -27.1647   19.9982 N   0  0  0  0  0  0  0  0  0  0  0  0
  -29.1381  -26.4120   19.1256 N   0  0  0  0  0  0  0  0  0  0  0  0
  -29.0281  -23.1566   22.0785 N   0  0  0  0  0  0  0  0  0  0  0  0
  -26.4048  -13.8103   20.1292 N   0  0  0  0  0  0  0  0  0  0  0  0
  -32.6844  -27.6684   19.8348 N   0  0  0  0  0  0  0  0  0  0  0  0
  -28.9520  -24.5455   17.6791 N   0  0  0  0  0  0  0  0  0  0  0  0
  -24.8315  -24.8680   19.4995 N   0  0  0  0  0  0  0  0  0  0  0  0
  -24.1784  -11.1972   21.3241 N   0  0  0  0  0  0  0  0  0  0  0  0
  -27.7491  -14.1122   16.7224 N   0  0  0  0  0  0  0  0  0  0  0  0
  -33.4416  -26.6851   21.8857 N   0  0  0  0  0  0  0  0  0  0  0  0
  -26.7193  -15.7577   13.6729 N   0  3  0  0  0  0  0  0  0  0  0  0
  -25.8061  -20.8188   21.3755 O   0  0  0  0  0  0  0  0  0  0  0  0
  -26.1374  -23.6635   18.0495 O   0  0  0  0  0  0  0  0  0  0  0  0
  -26.3461  -11.3147   20.4816 O   0  0  0  0  0  0  0  0  0  0  0  0
  -25.7657  -13.1535   17.9911 O   0  0  0  0  0  0  0  0  0  0  0  0
  -27.6678  -16.3805   16.2476 O   0  0  0  0  0  0  0  0  0  0  0  0
  -34.8087  -28.0836   20.6590 O   0  0  0  0  0  0  0  0  0  0  0  0
  -23.1612  -28.6641   23.2179 O   0  0  0  0  0  0  0  0  0  0  0  0
  -27.2284  -18.9382   23.0627 O   0  0  0  0  0  0  0  0  0  1  0  0
  -17.9966  -27.0460   22.1626 F   0  0  0  0  0  0  0  0  0  0  0  0
  -31.0064  -22.9297   20.1255 F   0  0  0  0  0  0  0  0  0  0  0  0
  -21.2098  -30.5013   22.5401 F   0  0  0  0  0  0  0  0  0  0  0  0
  1  2  1  0  0  0  0
  1  5  2  0  0  0  0
  2  6  2  0  0  0  0
  3  8  2  0  0  0  0
  3 17  1  0  0  0  0
  4  9  1  0  0  0  0
  4 17  2  0  0  0  0
  5 19  1  0  0  0  0
  6 21  1  0  0  0  0
  7 10  2  0  0  0  0
  7 20  1  0  0  0  0
  8 26  1  0  0  0  0
  9 26  2  0  0  0  0
 10 27  1  0  0  0  0
 11 12  2  0  0  0  0
 11 28  1  0  0  0  0
 12 29  1  0  0  0  0
 13 22  1  0  0  0  0
 13 27  2  0  0  0  0
 14 23  2  0  0  0  0
 14 24  1  0  0  0  0
 15 25  2  0  0  0  0
 15 30  1  0  0  0  0
 16 29  2  0  0  0  0
 16 31  1  0  0  0  0
 17 32  1  0  0  0  0
 18 32  1  0  0  0  0
 18 33  2  0  0  0  0
 18 37  1  0  0  0  0
 19 21  2  0  0  0  0
 19 42  1  0  0  0  0
 20 22  2  0  0  0  0
 20 43  1  0  0  0  0
 21 53  1  0  0  0  0
 22 44  1  0  0  0  0
 23 25  1  0  0  0  0
 23 56  1  0  0  0  0
 24 30  2  0  0  0  0
 24 70  1  0  0  0  0
 25 77  1  0  0  0  0
 26 85  1  0  0  0  0
 27 86  1  0  0  0  0
 28 31  2  0  0  0  0
 28 85  1  0  0  0  0
 29 87  1  0  0  0  0
 30 88  1  0  0  0  0
 31 89  1  0  0  0  0
 32 68  2  0  0  0  0
 33 69  1  0  0  0  0
 33 73  1  0  0  0  0
 34 35  2  0  0  0  0
 34 36  1  0  0  0  0
 34 64  1  0  0  0  0
 35 57  1  0  0  0  0
 35 70  1  0  0  0  0
 36 45  1  0  0  0  0
 36 79  2  0  0  0  0
 37 74  1  0  0  0  0
 37 80  2  0  0  0  0
 38 54  1  0  0  0  0
 38 75  1  0  0  0  0
 38 81  2  0  0  0  0
 39 65  1  0  0  0  0
 39 71  1  0  0  0  0
 39 82  2  0  0  0  0
 40 66  1  0  0  0  0
 40 76  1  0  0  0  0
 40 83  2  0  0  0  0
 41 72  1  0  0  0  0
 41 77  1  0  0  0  0
 41 84  2  0  0  0  0
 42 46  1  0  0  0  0
 43 54  1  0  0  0  0
 44 71  1  0  0  0  0
 45 50  1  0  0  0  0
 46 48  1  0  0  0  0
 47 49  1  0  0  0  0
 47 51  1  0  0  0  0
 48 53  1  0  0  0  0
 49 55  1  0  0  0  0
 50 70  1  0  0  0  0
 51 72  1  0  0  0  0
 52 55  1  0  0  0  0
 52 72  1  0  0  0  0
 53 75  1  0  0  0  0
 54 71  1  0  0  0  0
 55 69  1  0  0  0  0
 58 66  1  0  0  0  0
 59 67  1  0  0  0  0
 60 67  1  0  0  0  0
 61 67  1  0  0  0  0
 62 77  1  0  0  0  0
 63 78  1  0  0  0  0
 64 86  1  0  0  0  0
 65 67  1  0  0  0  0
 65 76  1  0  0  0  0
 66 78  1  0  0  0  0
 68 69  1  0  0  0  0
M  CHG  1  78   1
M  ISO  4  41 100  64 101  77 100  86 101
M  END
> <Batch ID>
0109

> <Smiles>
CNC(C)C(=O)NC(C(=O)N1Cc2cc([101O:1][101CH2:1]C3=C(C)N(c4cc(C)c([100N:0](C)[100C:0](=O)N5CCCC(n6nc(-c7ccc(Oc8ccc(F)cc8F)cc7)c(C(N)=O)c6N)C5)cc4F)CCC3=O)ccc2CC1C(=O)NC1CCCc2ccccc21)C(C)(C)C

> <Shape>
0.227

> <Color>
0.070

> <Negative vol penalty>
0.000

$$$$

  -OEChem-04052301233D

 84 92  0     1  0  0  0  0  0999 V2000
  -21.8586  -27.6703   21.8205 C   0  0  0  0  0  0  0  0  0  0  0  0
  -22.7514  -26.6535   21.4972 C   0  0  0  0  0  0  0  0  0  0  0  0
  -23.1889   -9.8887   19.8723 C   0  0  0  0  0  0  0  0  0  0  0  0
  -23.8015   -9.8307   22.2086 C   0  0  0  0  0  0  0  0  0  0  0  0
  -22.2383  -29.0035   21.6710 C   0  0  0  0  0  0  0  0  0  0  0  0
  -24.0241  -26.9694   21.0230 C   0  0  0  0  0  0  0  0  0  0  0  0
  -27.6546  -24.1954   23.2069 C   0  0  0  0  0  0  0  0  0  0  0  0
  -29.3242  -14.3458   25.2484 C   0  0  0  0  0  0  0  0  0  0  0  0
  -22.4547   -8.7140   20.0356 C   0  0  0  0  0  0  0  0  0  0  0  0
  -23.0672   -8.6560   22.3720 C   0  0  0  0  0  0  0  0  0  0  0  0
  -27.8174  -22.8877   22.7517 C   0  0  0  0  0  0  0  0  0  0  0  0
  -29.8345  -15.6165   24.9830 C   0  0  0  0  0  0  0  0  0  0  0  0
  -23.0759   -5.3987   20.2522 C   0  0  0  0  0  0  0  0  0  0  0  0
  -23.2235   -4.4035   19.2862 C   0  0  0  0  0  0  0  0  0  0  0  0
  -31.0006  -14.7455   23.0546 C   0  0  0  0  0  0  0  0  0  0  0  0
  -29.6859  -23.5970   21.4008 C   0  0  0  0  0  0  0  0  0  0  0  0
  -20.8632   -4.5371   18.7880 C   0  0  0  0  0  0  0  0  0  0  0  0
  -23.8624  -10.4470   20.9588 C   0  0  0  0  0  0  0  0  0  0  0  0
  -30.4903  -13.4748   23.3200 C   0  0  0  0  0  0  0  0  0  0  0  0
  -24.1588  -12.9807   20.9448 C   0  0  0  0  0  0  0  0  0  0  0  0
  -23.5197  -29.3359   21.2039 C   0  0  0  0  0  0  0  0  0  0  0  0
  -28.5008  -25.2175   22.7533 C   0  0  0  0  0  0  0  0  0  0  0  0
  -24.4208  -28.3082   20.8658 C   0  0  0  0  0  0  0  0  0  0  0  0
  -29.5334  -24.9164   21.8537 C   0  0  0  0  0  0  0  0  0  0  0  0
  -29.6521  -13.2749   24.4169 C   0  0  0  0  0  0  0  0  0  0  0  0
  -22.3938   -8.0977   21.2854 C   0  0  0  0  0  0  0  0  0  0  0  0
  -30.6727  -15.8164   23.8861 C   0  0  0  0  0  0  0  0  0  0  0  0
  -28.8314  -22.5889   21.8463 C   0  0  0  0  0  0  0  0  0  0  0  0
  -21.8220   -5.9631   20.4863 C   0  0  0  0  0  0  0  0  0  0  0  0
  -22.1171   -3.9727   18.5540 C   0  0  0  0  0  0  0  0  0  0  0  0
  -20.7156   -5.5323   19.7541 C   0  0  0  0  0  0  0  0  0  0  0  0
  -24.6215  -11.6601   20.7906 C   0  0  0  0  0  0  0  0  0  0  0  0
  -25.2561  -13.7624   20.6774 C   0  0  0  0  0  0  0  0  0  0  0  0
  -31.3083  -18.8579   22.0810 C   0  0  0  0  0  0  0  0  0  0  0  0
  -30.4329  -19.4326   21.2434 C   0  0  0  0  0  0  0  0  0  0  0  0
  -30.8528  -12.3763   22.4334 C   0  0  0  0  0  0  0  0  0  0  0  0
  -22.8539  -13.4582   21.2983 C   0  0  0  0  0  0  0  0  0  0  0  0
  -31.1470  -12.6096   21.0009 C   0  0  0  0  0  0  0  0  0  0  0  0
  -28.0857  -27.9173   21.1278 C   0  0  0  0  0  0  0  0  0  0  0  0
  -31.2329  -28.3421   21.7889 C   0  0  0  0  0  0  0  0  0  0  0  0
  -34.2438  -26.9395   22.5722 C   0  0  0  0  0  0  0  0  0  0  0  0
  -23.8682  -30.7909   21.0139 C   0  0  0  0  0  0  0  0  0  0  0  0
  -28.3289  -26.6179   23.2745 C   0  0  0  0  0  0  0  0  0  0  0  0
  -30.4813  -25.9737   21.3518 C   0  0  0  0  0  0  0  0  0  0  0  0
  -25.3659  -31.0435   20.8606 C   0  0  0  0  0  0  0  0  0  0  0  0
  -29.3142  -13.8035   18.1597 C   0  0  0  0  0  0  0  0  0  0  0  0
  -25.9761  -30.0528   19.8742 C   0  0  0  0  0  0  0  0  0  0  0  0
  -27.8638  -13.4734   18.5111 C   0  0  0  0  0  0  0  0  0  0  0  0
  -30.2737  -12.7490   18.7016 C   0  0  0  0  0  0  0  0  0  0  0  0
  -28.6967  -12.1888   20.5313 C   0  0  0  0  0  0  0  0  0  0  0  0
  -25.8189  -28.6109   20.3719 C   0  0  1  0  0  0  0  0  0  0  0  0
  -28.9242  -27.6764   22.3511 C   0  0  1  0  0  0  0  0  0  0  0  0
  -27.7004  -13.2461   20.0245 C   0  0  2  0  0  0  0  0  0  0  0  0
  -36.6408  -27.5378   23.0125 C   0  0  0  0  0  0  0  0  0  0  0  0
  -31.6773  -28.7520   18.7981 C   0  0  0  0  0  0  0  0  0  0  0  0
  -34.1252  -28.3948   19.1838 C   0  0  0  0  0  0  0  0  0  0  0  0
  -32.9610  -30.3164   20.2676 C   0  0  0  0  0  0  0  0  0  0  0  0
  -34.1323  -25.8486   25.3211 C   0  0  0  0  0  0  0  0  0  0  0  0
  -31.4336  -17.3807   22.2644 C   0  0  0  0  0  0  0  0  0  0  0  0
  -30.3155  -20.9093   21.0511 C   0  0  0  0  0  0  0  0  0  1  0  0
  -32.5280  -27.9714   21.1075 C   0  0  1  0  0  0  0  0  0  0  0  0
  -35.2737  -27.2905   23.6309 C   0  0  2  0  0  0  0  0  0  0  0  0
  -32.8040  -28.8389   19.8470 C   0  0  0  0  0  0  0  0  0  0  0  0
  -25.9120  -11.6022   20.4513 N   0  0  0  0  0  0  0  0  0  0  0  0
  -30.9434  -11.1379   22.8318 N   0  0  0  0  0  0  0  0  0  0  0  0
  -26.2697  -12.8962   20.3901 N   0  0  0  0  0  0  0  0  0  0  0  0
  -30.0675  -12.5318   20.1321 N   0  0  0  0  0  0  0  0  0  0  0  0
  -30.2685  -27.3291   21.8858 N   0  0  0  0  0  0  0  0  0  0  0  0
  -29.1268  -11.9955   24.7042 N   0  0  0  0  0  0  0  0  0  0  0  0
  -25.4431  -15.0992   20.6623 N   0  0  0  0  0  0  0  0  0  0  0  0
  -21.8417  -12.5193   21.5397 N   0  0  0  0  0  0  0  0  0  0  0  0
  -26.7935  -28.3228   21.4022 N   0  0  0  0  0  0  0  0  0  0  0  0
  -33.5656  -28.0554   22.1296 N   0  0  0  0  0  0  0  0  0  0  0  0
  -35.3985  -26.1824   24.6195 N   0  3  0  0  0  0  0  0  0  0  0  0
  -22.5891  -14.6815   21.3813 O   0  0  0  0  0  0  0  0  0  0  0  0
  -32.3180  -12.8470   20.7348 O   0  0  0  0  0  0  0  0  0  0  0  0
  -28.5753  -27.7492   20.0170 O   0  0  0  0  0  0  0  0  0  0  0  0
  -31.0853  -29.4863   22.2256 O   0  0  0  0  0  0  0  0  0  0  0  0
  -34.0620  -25.7908   22.1748 O   0  0  0  0  0  0  0  0  0  0  0  0
  -21.6772   -6.9516   21.4452 O   0  0  0  0  0  0  0  0  0  0  0  0
  -31.1735  -17.0655   23.6251 O   0  0  0  0  0  0  0  0  0  0  0  0
  -28.9921  -21.3135   21.3998 O   0  0  0  0  0  0  0  0  0  1  0  0
  -22.2593   -3.0180   17.6252 F   0  0  0  0  0  0  0  0  0  0  0  0
  -19.5086   -6.0716   19.9736 F   0  0  0  0  0  0  0  0  0  0  0  0
  1  2  1  0  0  0  0
  1  5  2  0  0  0  0
  2  6  2  0  0  0  0
  3  9  2  0  0  0  0
  3 18  1  0  0  0  0
  4 10  1  0  0  0  0
  4 18  2  0  0  0  0
  5 21  1  0  0  0  0
  6 23  1  0  0  0  0
  7 11  2  0  0  0  0
  7 22  1  0  0  0  0
  8 12  2  0  0  0  0
  8 25  1  0  0  0  0
  9 26  1  0  0  0  0
 10 26  2  0  0  0  0
 11 28  1  0  0  0  0
 12 27  1  0  0  0  0
 13 14  2  0  0  0  0
 13 29  1  0  0  0  0
 14 30  1  0  0  0  0
 15 19  1  0  0  0  0
 15 27  2  0  0  0  0
 16 24  1  0  0  0  0
 16 28  2  0  0  0  0
 17 30  2  0  0  0  0
 17 31  1  0  0  0  0
 18 32  1  0  0  0  0
 19 25  2  0  0  0  0
 19 36  1  0  0  0  0
 20 32  1  0  0  0  0
 20 33  2  0  0  0  0
 20 37  1  0  0  0  0
 21 23  2  0  0  0  0
 21 42  1  0  0  0  0
 22 24  2  0  0  0  0
 22 43  1  0  0  0  0
 23 51  1  0  0  0  0
 24 44  1  0  0  0  0
 25 69  1  0  0  0  0
 26 80  1  0  0  0  0
 27 81  1  0  0  0  0
 28 82  1  0  0  0  0
 29 31  2  0  0  0  0
 29 80  1  0  0  0  0
 30 83  1  0  0  0  0
 31 84  1  0  0  0  0
 32 64  2  0  0  0  0
 33 66  1  0  0  0  0
 33 70  1  0  0  0  0
 34 35  2  0  0  0  0
 34 59  1  0  0  0  0
 35 60  1  0  0  0  0
 36 38  1  0  0  0  0
 36 65  2  0  0  0  0
 37 71  1  0  0  0  0
 37 75  2  0  0  0  0
 38 67  1  0  0  0  0
 38 76  2  0  0  0  0
 39 52  1  0  0  0  0
 39 72  1  0  0  0  0
 39 77  2  0  0  0  0
 40 61  1  0  0  0  0
 40 68  1  0  0  0  0
 40 78  2  0  0  0  0
 41 62  1  0  0  0  0
 41 73  1  0  0  0  0
 41 79  2  0  0  0  0
 42 45  1  0  0  0  0
 43 52  1  0  0  0  0
 44 68  1  0  0  0  0
 45 47  1  0  0  0  0
 46 48  1  0  0  0  0
 46 49  1  0  0  0  0
 47 51  1  0  0  0  0
 48 53  1  0  0  0  0
 49 67  1  0  0  0  0
 50 53  1  0  0  0  0
 50 67  1  0  0  0  0
 51 72  1  0  0  0  0
 52 68  1  0  0  0  0
 53 66  1  0  0  0  0
 54 62  1  0  0  0  0
 55 63  1  0  0  0  0
 56 63  1  0  0  0  0
 57 63  1  0  0  0  0
 58 74  1  0  0  0  0
 59 81  1  0  0  0  0
 60 82  1  0  0  0  0
 61 63  1  0  0  0  0
 61 73  1  0  0  0  0
 62 74  1  0  0  0  0
 64 66  1  0  0  0  0
M  CHG  1  74   1
M  ISO  4  36 100  38 100  60 101  82 101
M  END
> <Batch ID>
0109

> <Smiles>
CNC(C)C(=O)NC(C(=O)N1Cc2cc([101O:1][101CH2:1]C=CCOc3ccc(N)c([100C:0](=N)[100C:0](=O)N4CCCC(n5nc(-c6ccc(Oc7ccc(F)cc7F)cc6)c(C(N)=O)c5N)C4)c3)ccc2CC1C(=O)NC1CCCc2ccccc21)C(C)(C)C

> <Shape>
0.243

> <Color>
0.188

> <Negative vol penalty>
0.000

$$$$

  -OEChem-04052301233D

 90 99  0     1  0  0  0  0  0999 V2000
  -26.7555  -33.5247   18.9396 C   0  0  0  0  0  0  0  0  0  0  0  0
  -27.6067  -32.6320   18.2963 C   0  0  0  0  0  0  0  0  0  0  0  0
  -22.3412  -10.4684   21.7770 C   0  0  0  0  0  0  0  0  0  0  0  0
  -23.4998   -9.6939   19.8035 C   0  0  0  0  0  0  0  0  0  0  0  0
  -26.1391  -33.1596   20.1358 C   0  0  0  0  0  0  0  0  0  0  0  0
  -27.8429  -31.3739   18.8494 C   0  0  0  0  0  0  0  0  0  0  0  0
  -29.1863  -24.6005   16.9435 C   0  0  0  0  0  0  0  0  0  0  0  0
  -28.2442  -18.2146   15.5401 C   0  0  0  0  0  0  0  0  0  0  0  0
  -29.4389  -18.3676   16.2436 C   0  0  0  0  0  0  0  0  0  0  0  0
  -21.9511   -9.1598   22.0616 C   0  0  0  0  0  0  0  0  0  0  0  0
  -23.1098   -8.3853   20.0881 C   0  0  0  0  0  0  0  0  0  0  0  0
  -30.0954  -23.5725   17.1895 C   0  0  0  0  0  0  0  0  0  0  0  0
  -23.3342   -6.3864   23.4136 C   0  0  0  0  0  0  0  0  0  0  0  0
  -23.4624   -5.9435   24.7300 C   0  0  0  0  0  0  0  0  0  0  0  0
  -28.9137  -23.0212   19.2190 C   0  0  0  0  0  0  0  0  0  0  0  0
  -27.0010  -18.8373   17.5159 C   0  0  0  0  0  0  0  0  0  0  0  0
  -21.0836   -5.5313   24.8231 C   0  0  0  0  0  0  0  0  0  0  0  0
  -23.1155  -10.7355   20.6479 C   0  0  0  0  0  0  0  0  0  0  0  0
  -24.6893  -12.7385   20.7848 C   0  0  0  0  0  0  0  0  0  0  0  0
  -26.3604  -31.8928   20.6988 C   0  0  0  0  0  0  0  0  0  0  0  0
  -28.1387  -24.8539   17.8406 C   0  0  0  0  0  0  0  0  0  0  0  0
  -27.2300  -30.9920   20.0549 C   0  0  0  0  0  0  0  0  0  0  0  0
  -27.9911  -24.0513   18.9808 C   0  0  0  0  0  0  0  0  0  0  0  0
  -27.0253  -18.4495   16.1763 C   0  0  0  0  0  0  0  0  0  0  0  0
  -28.1957  -18.9903   18.2194 C   0  0  0  0  0  0  0  0  0  0  0  0
  -29.4147  -18.7554   17.5832 C   0  0  0  0  0  0  0  0  0  0  0  0
  -22.3354   -8.1182   21.2172 C   0  0  0  0  0  0  0  0  0  0  0  0
  -29.9609  -22.7845   18.3288 C   0  0  0  0  0  0  0  0  0  0  0  0
  -22.0806   -6.4019   22.8019 C   0  0  0  0  0  0  0  0  0  0  0  0
  -22.3372   -5.5159   25.4347 C   0  0  0  0  0  0  0  0  0  0  0  0
  -20.9554   -5.9743   23.5066 C   0  0  0  0  0  0  0  0  0  0  0  0
  -23.5183  -12.0871   20.3531 C   0  0  0  0  0  0  0  0  0  0  0  0
  -24.6034  -13.9962   20.2397 C   0  0  0  0  0  0  0  0  0  0  0  0
  -30.9921  -18.1685   19.4355 C   0  0  0  0  0  0  0  0  0  0  0  0
  -25.7591  -12.2503   21.6050 C   0  0  0  0  0  0  0  0  0  0  0  0
  -27.2899  -27.3187   19.6594 C   0  0  0  0  0  0  0  0  0  0  0  0
  -27.2372  -18.8497   21.9564 C   0  0  0  0  0  0  0  0  0  0  0  0
  -24.6793  -25.4853   20.2472 C   0  0  0  0  0  0  0  0  0  0  0  0
  -23.2916  -22.3692   20.3531 C   0  0  0  0  0  0  0  0  0  0  0  0
  -23.4974  -17.3686   15.9328 C   0  0  0  0  0  0  0  0  0  0  0  0
  -25.7088  -31.5609   22.0179 C   0  0  0  0  0  0  0  0  0  0  0  0
  -27.1507  -25.9495   17.5472 C   0  0  0  0  0  0  0  0  0  0  0  0
  -26.8718  -24.2694   19.9647 C   0  0  0  0  0  0  0  0  0  0  0  0
  -32.4565  -18.4029   19.7028 C   0  0  0  0  0  0  0  0  0  0  0  0
  -25.7182  -30.0695   22.3436 C   0  0  0  0  0  0  0  0  0  0  0  0
  -32.7581  -19.6868   18.9598 C   0  0  0  0  0  0  0  0  0  0  0  0
  -20.7487  -16.3337   17.9452 C   0  0  0  0  0  0  0  0  0  0  0  0
  -27.0997  -29.4757   22.0870 C   0  0  0  0  0  0  0  0  0  0  0  0
  -21.3191  -15.1869   18.7816 C   0  0  0  0  0  0  0  0  0  0  0  0
  -21.3242  -16.3411   16.5308 C   0  0  0  0  0  0  0  0  0  0  0  0
  -23.3678  -15.1970   17.2979 C   0  0  0  0  0  0  0  0  0  0  0  0
  -27.4919  -29.6090   20.6106 C   0  0  1  0  0  0  0  0  0  0  0  0
  -26.4245  -26.4485   18.7926 C   0  0  1  0  0  0  0  0  0  0  0  0
  -22.8593  -15.1816   18.7496 C   0  0  2  0  0  0  0  0  0  0  0  0
  -31.7702  -19.6974   17.7927 C   0  0  2  0  0  0  0  0  0  0  0  0
  -26.4126  -17.9666   22.8315 C   0  0  0  0  0  0  0  0  0  0  0  0
  -21.1500  -21.1843   20.9071 C   0  0  0  0  0  0  0  0  0  0  0  0
  -25.2580  -25.8356   23.2225 C   0  0  0  0  0  0  0  0  0  0  0  0
  -23.7201  -23.9130   23.6768 C   0  0  0  0  0  0  0  0  0  0  0  0
  -22.8391  -25.9863   22.6054 C   0  0  0  0  0  0  0  0  0  0  0  0
  -23.0238  -21.3206   17.5986 C   0  0  0  0  0  0  0  0  0  0  0  0
  -28.1397  -19.4038   19.6544 C   0  0  0  0  0  0  0  0  0  0  0  0
  -25.7477  -18.2836   15.4246 C   0  0  0  0  0  0  0  0  0  0  0  0
  -27.3115  -18.4333   20.5032 C   0  0  0  0  0  0  0  0  0  0  0  0
  -31.4388  -21.1482   17.4375 C   0  0  0  0  0  0  0  0  0  1  0  0
  -24.3197  -24.4332   21.2683 C   0  0  1  0  0  0  0  0  0  0  0  0
  -21.9802  -21.8316   19.8096 C   0  0  2  0  0  0  0  0  0  0  0  0
  -24.0566  -25.0389   22.6759 C   0  0  0  0  0  0  0  0  0  0  0  0
  -22.7451  -12.8667   19.5926 N   0  0  0  0  0  0  0  0  0  0  0  0
  -23.4316  -14.0209   19.5421 N   0  0  0  0  0  0  0  0  0  0  0  0
  -30.6475  -18.9063   18.2853 N   0  0  0  0  0  0  0  0  0  0  0  0
  -25.9350  -25.3569   19.6370 N   0  0  0  0  0  0  0  0  0  0  0  0
  -22.7885  -16.3374   16.5707 N   0  0  0  0  0  0  0  0  0  0  0  0
  -25.4165  -15.0725   20.2938 N   0  0  0  0  0  0  0  0  0  0  0  0
  -25.6887  -10.9340   22.0812 N   0  0  0  0  0  0  0  0  0  0  0  0
  -26.8151  -28.6070   19.8154 N   0  0  0  0  0  0  0  0  0  0  0  0
  -23.1892  -23.6960   20.7142 N   0  0  0  0  0  0  0  0  0  0  0  0
  -24.8819  -17.2929   16.0242 N   0  0  0  0  0  0  0  0  0  0  0  0
  -22.2363  -20.8135   18.7518 N   0  3  0  0  0  0  0  0  0  0  0  0
  -30.3214  -17.3813   20.0888 O   0  0  0  0  0  0  0  0  0  0  0  0
  -26.7402  -12.9655   21.9203 O   0  0  0  0  0  0  0  0  0  0  0  0
  -28.3120  -26.8553   20.1516 O   0  0  0  0  0  0  0  0  0  0  0  0
  -27.7924  -19.8333   22.4289 O   0  0  0  0  0  0  0  0  0  0  0  0
  -23.8726  -26.3838   19.9949 O   0  0  0  0  0  0  0  0  0  0  0  0
  -24.3045  -21.6800   20.4513 O   0  0  0  0  0  0  0  0  0  0  0  0
  -22.9379  -18.2916   15.3312 O   0  0  0  0  0  0  0  0  0  0  0  0
  -21.9551   -6.8412   21.4947 O   0  0  0  0  0  0  0  0  0  0  0  0
  -30.8473  -21.7809   18.5717 O   0  0  0  0  0  0  0  0  0  1  0  0
  -22.4607   -5.0891   26.6984 F   0  0  0  0  0  0  0  0  0  0  0  0
  -19.7487   -5.9858   22.9239 F   0  0  0  0  0  0  0  0  0  0  0  0
  1  2  1  0  0  0  0
  1  5  2  0  0  0  0
  2  6  2  0  0  0  0
  3 10  2  0  0  0  0
  3 18  1  0  0  0  0
  4 11  1  0  0  0  0
  4 18  2  0  0  0  0
  5 20  1  0  0  0  0
  6 22  1  0  0  0  0
  7 12  2  0  0  0  0
  7 21  1  0  0  0  0
  8  9  2  0  0  0  0
  8 24  1  0  0  0  0
  9 26  1  0  0  0  0
 10 27  1  0  0  0  0
 11 27  2  0  0  0  0
 12 28  1  0  0  0  0
 13 14  2  0  0  0  0
 13 29  1  0  0  0  0
 14 30  1  0  0  0  0
 15 23  1  0  0  0  0
 15 28  2  0  0  0  0
 16 24  2  0  0  0  0
 16 25  1  0  0  0  0
 17 30  2  0  0  0  0
 17 31  1  0  0  0  0
 18 32  1  0  0  0  0
 19 32  1  0  0  0  0
 19 33  2  0  0  0  0
 19 35  1  0  0  0  0
 20 22  2  0  0  0  0
 20 41  1  0  0  0  0
 21 23  2  0  0  0  0
 21 42  1  0  0  0  0
 22 52  1  0  0  0  0
 23 43  1  0  0  0  0
 24 63  1  0  0  0  0
 25 26  2  0  0  0  0
 25 62  1  0  0  0  0
 26 71  1  0  0  0  0
 27 87  1  0  0  0  0
 28 88  1  0  0  0  0
 29 31  2  0  0  0  0
 29 87  1  0  0  0  0
 30 89  1  0  0  0  0
 31 90  1  0  0  0  0
 32 69  2  0  0  0  0
 33 70  1  0  0  0  0
 33 74  1  0  0  0  0
 34 44  1  0  0  0  0
 34 71  1  0  0  0  0
 34 80  2  0  0  0  0
 35 75  1  0  0  0  0
 35 81  2  0  0  0  0
 36 53  1  0  0  0  0
 36 76  1  0  0  0  0
 36 82  2  0  0  0  0
 37 56  1  0  0  0  0
 37 64  1  0  0  0  0
 37 83  2  0  0  0  0
 38 66  1  0  0  0  0
 38 72  1  0  0  0  0
 38 84  2  0  0  0  0
 39 67  1  0  0  0  0
 39 77  1  0  0  0  0
 39 85  2  0  0  0  0
 40 73  1  0  0  0  0
 40 78  1  0  0  0  0
 40 86  2  0  0  0  0
 41 45  1  0  0  0  0
 42 53  1  0  0  0  0
 43 72  1  0  0  0  0
 44 46  1  0  0  0  0
 45 48  1  0  0  0  0
 46 55  1  0  0  0  0
 47 49  1  0  0  0  0
 47 50  1  0  0  0  0
 48 52  1  0  0  0  0
 49 54  1  0  0  0  0
 50 73  1  0  0  0  0
 51 54  1  0  0  0  0
 51 73  1  0  0  0  0
 52 76  1  0  0  0  0
 53 72  1  0  0  0  0
 54 70  1  0  0  0  0
 55 65  1  0  0  0  0
 55 71  1  0  0  0  0
 57 67  1  0  0  0  0
 58 68  1  0  0  0  0
 59 68  1  0  0  0  0
 60 68  1  0  0  0  0
 61 79  1  0  0  0  0
 62 64  1  0  0  0  0
 63 78  1  0  0  0  0
 65 88  1  0  0  0  0
 66 68  1  0  0  0  0
 66 77  1  0  0  0  0
 67 79  1  0  0  0  0
 69 70  1  0  0  0  0
M  CHG  1  79   1
M  ISO  4  40 100  65 101  78 100  88 101
M  END
> <Batch ID>
0109

> <Smiles>
CNC(C)C(=O)NC(C(=O)N1Cc2cc([101O:1][101CH2:1]C3CCC(=O)N3c3ccc(C[100NH:0][100C:0](=O)N4CCCC(n5nc(-c6ccc(Oc7ccc(F)cc7F)cc6)c(C(N)=O)c5N)C4)cc3CCC(C)=O)ccc2CC1C(=O)NC1CCCc2ccccc21)C(C)(C)C

> <Shape>
0.202

> <Color>
0.115

> <Negative vol penalty>
0.000

$$$$

  -OEChem-04052301233D

 83 91  0     1  0  0  0  0  0999 V2000
  -30.9552  -31.9084   25.3957 C   0  0  0  0  0  0  0  0  0  0  0  0
  -30.9102  -31.9314   24.0055 C   0  0  0  0  0  0  0  0  0  0  0  0
  -26.9263  -12.7279   21.0744 C   0  0  0  0  0  0  0  0  0  0  0  0
  -26.7648  -13.2097   18.7124 C   0  0  0  0  0  0  0  0  0  0  0  0
  -30.2624  -25.0111   18.7902 C   0  0  0  0  0  0  0  0  0  0  0  0
  -30.4062  -30.8324   26.0921 C   0  0  0  0  0  0  0  0  0  0  0  0
  -30.3173  -30.8778   23.3106 C   0  0  0  0  0  0  0  0  0  0  0  0
  -26.5734  -29.5235   17.3553 C   0  0  0  0  0  0  0  0  0  0  0  0
  -26.3161  -11.4914   20.8640 C   0  0  0  0  0  0  0  0  0  0  0  0
  -26.1546  -11.9731   18.5020 C   0  0  0  0  0  0  0  0  0  0  0  0
  -30.0617  -25.4096   17.4687 C   0  0  0  0  0  0  0  0  0  0  0  0
  -26.5914  -28.6897   16.2380 C   0  0  0  0  0  0  0  0  0  0  0  0
  -23.1869  -10.3088   20.3800 C   0  0  0  0  0  0  0  0  0  0  0  0
  -22.1780   -9.9261   21.2638 C   0  0  0  0  0  0  0  0  0  0  0  0
  -25.6051  -26.9214   17.5492 C   0  0  0  0  0  0  0  0  0  0  0  0
  -28.9403  -23.3196   17.0087 C   0  0  0  0  0  0  0  0  0  0  0  0
  -23.4629   -7.9772   21.8866 C   0  0  0  0  0  0  0  0  0  0  0  0
  -27.1506  -13.5871   19.9986 C   0  0  0  0  0  0  0  0  0  0  0  0
  -29.8022  -23.7667   19.2210 C   0  0  0  0  0  0  0  0  0  0  0  0
  -29.1585  -15.1503   20.1793 C   0  0  0  0  0  0  0  0  0  0  0  0
  -29.7977  -29.7697   25.4058 C   0  0  0  0  0  0  0  0  0  0  0  0
  -26.0804  -29.0581   18.5828 C   0  0  0  0  0  0  0  0  0  0  0  0
  -29.7609  -29.7860   23.9984 C   0  0  0  0  0  0  0  0  0  0  0  0
  -25.5796  -27.7520   18.6800 C   0  0  0  0  0  0  0  0  0  0  0  0
  -29.1411  -22.9210   18.3302 C   0  0  0  0  0  0  0  0  0  0  0  0
  -25.9302  -11.1140   19.5778 C   0  0  0  0  0  0  0  0  0  0  0  0
  -26.1099  -27.3876   16.3356 C   0  0  0  0  0  0  0  0  0  0  0  0
  -29.4006  -24.5640   16.5779 C   0  0  0  0  0  0  0  0  0  0  0  0
  -24.3338   -9.5257   20.2493 C   0  0  0  0  0  0  0  0  0  0  0  0
  -22.3160   -8.7603   22.0171 C   0  0  0  0  0  0  0  0  0  0  0  0
  -24.4718   -8.3599   21.0027 C   0  0  0  0  0  0  0  0  0  0  0  0
  -27.7805  -14.8647   20.2155 C   0  0  0  0  0  0  0  0  0  0  0  0
  -29.2376  -16.4950   20.4473 C   0  0  0  0  0  0  0  0  0  0  0  0
  -29.5368  -24.0394   21.6439 C   0  0  0  0  0  0  0  0  0  0  0  0
  -30.0295  -23.3788   20.6068 C   0  0  0  0  0  0  0  0  0  0  0  0
  -30.2678  -14.2780   19.9260 C   0  0  0  0  0  0  0  0  0  0  0  0
  -27.3166  -28.6305   21.4798 C   0  0  0  0  0  0  0  0  0  0  0  0
  -27.3806  -21.7006   19.5852 C   0  0  0  0  0  0  0  0  0  0  0  0
  -24.2469  -27.9308   22.2605 C   0  0  0  0  0  0  0  0  0  0  0  0
  -21.1673  -26.8715   21.2401 C   0  0  0  0  0  0  0  0  0  0  0  0
  -29.2600  -28.6058   26.2000 C   0  0  0  0  0  0  0  0  0  0  0  0
  -26.0432  -29.9786   19.7719 C   0  0  0  0  0  0  0  0  0  0  0  0
  -25.0209  -27.2108   19.9697 C   0  0  0  0  0  0  0  0  0  0  0  0
  -28.3168  -27.7084   25.4030 C   0  0  0  0  0  0  0  0  0  0  0  0
  -25.7406  -19.7432   22.0991 C   0  0  0  0  0  0  0  0  0  0  0  0
  -28.9092  -27.3945   24.0328 C   0  0  0  0  0  0  0  0  0  0  0  0
  -26.2146  -18.3193   21.8112 C   0  0  0  0  0  0  0  0  0  0  0  0
  -25.5712  -20.5460   20.8130 C   0  0  0  0  0  0  0  0  0  0  0  0
  -27.2696  -19.1604   19.6654 C   0  0  0  0  0  0  0  0  0  0  0  0
  -29.1043  -28.6737   23.2099 C   0  0  1  0  0  0  0  0  0  0  0  0
  -25.9933  -29.2340   21.1025 C   0  0  1  0  0  0  0  0  0  0  0  0
  -27.4830  -18.3244   20.9397 C   0  0  2  0  0  0  0  0  0  0  0  0
  -18.8699  -26.3634   22.1126 C   0  0  0  0  0  0  0  0  0  0  0  0
  -25.2743  -25.3072   23.4313 C   0  0  0  0  0  0  0  0  0  0  0  0
  -22.9197  -24.4565   23.4105 C   0  0  0  0  0  0  0  0  0  0  0  0
  -23.5146  -26.4416   24.7991 C   0  0  0  0  0  0  0  0  0  0  0  0
  -19.9326  -28.9478   19.5303 C   0  0  0  0  0  0  0  0  0  0  0  0
  -28.6353  -21.5806   18.7573 C   0  0  0  0  0  0  0  0  0  0  0  0
  -27.5323  -25.4711   13.6233 C   0  0  0  0  0  0  0  0  0  0  0  0
  -27.1631  -26.7871   14.2896 C   0  0  0  0  0  0  0  0  0  1  0  0
  -28.0465  -24.4502   14.6262 C   0  0  0  0  0  0  0  0  0  0  0  0
  -23.4093  -26.6750   22.2838 C   0  0  1  0  0  0  0  0  0  0  0  0
  -19.7761  -27.4202   21.5003 C   0  0  2  0  0  0  0  0  0  0  0  0
  -23.7917  -25.7293   23.4572 C   0  0  0  0  0  0  0  0  0  0  0  0
  -27.0377  -15.9415   20.4854 N   0  0  0  0  0  0  0  0  0  0  0  0
  -27.9523  -16.9167   20.6213 N   0  0  0  0  0  0  0  0  0  0  0  0
  -25.0119  -28.1473   21.1057 N   0  0  0  0  0  0  0  0  0  0  0  0
  -26.7899  -20.5078   20.0028 N   0  0  0  0  0  0  0  0  0  0  0  0
  -30.2806  -17.3461   20.5488 N   0  0  0  0  0  0  0  0  0  0  0  0
  -30.0085  -12.9249   19.6685 N   0  0  0  0  0  0  0  0  0  0  0  0
  -27.8414  -29.1190   22.6611 N   0  0  0  0  0  0  0  0  0  0  0  0
  -22.0177  -27.1127   22.2984 N   0  0  0  0  0  0  0  0  0  0  0  0
  -19.1579  -27.8894   20.2280 N   0  3  0  0  0  0  0  0  0  0  0  0
  -31.4549  -14.6830   19.9441 O   0  0  0  0  0  0  0  0  0  0  0  0
  -27.8232  -27.7832   20.7538 O   0  0  0  0  0  0  0  0  0  0  0  0
  -26.9417  -22.8219   19.8542 O   0  0  0  0  0  0  0  0  0  0  0  0
  -24.2176  -28.6952   23.2282 O   0  0  0  0  0  0  0  0  0  0  0  0
  -21.4685  -26.2840   20.2034 O   0  0  0  0  0  0  0  0  0  0  0  0
  -25.3350   -9.9074   19.3720 O   0  0  0  0  0  0  0  0  0  0  0  0
  -26.1269  -26.5715   15.2468 O   0  0  0  0  0  0  0  0  0  1  0  0
  -29.2029  -24.9559   15.2795 O   0  0  0  0  0  0  0  0  0  0  0  0
  -21.3477   -8.3937   22.8670 F   0  0  0  0  0  0  0  0  0  0  0  0
  -25.5719   -7.6041   20.8824 F   0  0  0  0  0  0  0  0  0  0  0  0
  1  2  1  0  0  0  0
  1  6  2  0  0  0  0
  2  7  2  0  0  0  0
  3  9  2  0  0  0  0
  3 18  1  0  0  0  0
  4 10  1  0  0  0  0
  4 18  2  0  0  0  0
  5 11  2  0  0  0  0
  5 19  1  0  0  0  0
  6 21  1  0  0  0  0
  7 23  1  0  0  0  0
  8 12  2  0  0  0  0
  8 22  1  0  0  0  0
  9 26  1  0  0  0  0
 10 26  2  0  0  0  0
 11 28  1  0  0  0  0
 12 27  1  0  0  0  0
 13 14  2  0  0  0  0
 13 29  1  0  0  0  0
 14 30  1  0  0  0  0
 15 24  1  0  0  0  0
 15 27  2  0  0  0  0
 16 25  1  0  0  0  0
 16 28  2  0  0  0  0
 17 30  2  0  0  0  0
 17 31  1  0  0  0  0
 18 32  1  0  0  0  0
 19 25  2  0  0  0  0
 19 35  1  0  0  0  0
 20 32  1  0  0  0  0
 20 33  2  0  0  0  0
 20 36  1  0  0  0  0
 21 23  2  0  0  0  0
 21 41  1  0  0  0  0
 22 24  2  0  0  0  0
 22 42  1  0  0  0  0
 23 50  1  0  0  0  0
 24 43  1  0  0  0  0
 25 58  1  0  0  0  0
 26 79  1  0  0  0  0
 27 80  1  0  0  0  0
 28 81  1  0  0  0  0
 29 31  2  0  0  0  0
 29 79  1  0  0  0  0
 30 82  1  0  0  0  0
 31 83  1  0  0  0  0
 32 65  2  0  0  0  0
 33 66  1  0  0  0  0
 33 69  1  0  0  0  0
 34 35  2  0  0  0  0
 36 70  1  0  0  0  0
 36 74  2  0  0  0  0
 37 51  1  0  0  0  0
 37 71  1  0  0  0  0
 37 75  2  0  0  0  0
 38 58  1  0  0  0  0
 38 68  1  0  0  0  0
 38 76  2  0  0  0  0
 39 62  1  0  0  0  0
 39 67  1  0  0  0  0
 39 77  2  0  0  0  0
 40 63  1  0  0  0  0
 40 72  1  0  0  0  0
 40 78  2  0  0  0  0
 41 44  1  0  0  0  0
 42 51  1  0  0  0  0
 43 67  1  0  0  0  0
 44 46  1  0  0  0  0
 45 47  1  0  0  0  0
 45 48  1  0  0  0  0
 46 50  1  0  0  0  0
 47 52  1  0  0  0  0
 48 68  1  0  0  0  0
 49 52  1  0  0  0  0
 49 68  1  0  0  0  0
 50 71  1  0  0  0  0
 51 67  1  0  0  0  0
 52 66  1  0  0  0  0
 53 63  1  0  0  0  0
 54 64  1  0  0  0  0
 55 64  1  0  0  0  0
 56 64  1  0  0  0  0
 57 73  1  0  0  0  0
 59 60  1  0  0  0  0
 59 61  1  0  0  0  0
 60 80  1  0  0  0  0
 61 81  1  0  0  0  0
 62 64  1  0  0  0  0
 62 72  1  0  0  0  0
 63 73  1  0  0  0  0
 65 66  1  0  0  0  0
M  CHG  1  73   1
M  ISO  4  38 100  58 100  60 101  80 101
M  END
> <Batch ID>
0109

> <Smiles>
C=Cc1ccc(OCC[101CH2:1][101O:1]c2ccc3c(c2)CN(C(=O)C(NC(=O)C(C)NC)C(C)(C)C)C(C(=O)NC2CCCc4ccccc42)C3)cc1[100CH2:0][100C:0](=O)N1CCCC(n2nc(-c3ccc(Oc4ccc(F)cc4F)cc3)c(C(N)=O)c2N)C1

> <Shape>
0.226

> <Color>
0.078

> <Negative vol penalty>
0.000

$$$$

  -OEChem-04052301233D

 87 95  0     1  0  0  0  0  0999 V2000
  -16.0947  -25.8727   24.6189 C   0  0  0  0  0  0  0  0  0  0  0  0
  -17.2727  -25.3778   24.0687 C   0  0  0  0  0  0  0  0  0  0  0  0
  -22.9494  -10.2998   21.5669 C   0  0  0  0  0  0  0  0  0  0  0  0
  -23.9279  -11.0513   23.6441 C   0  0  0  0  0  0  0  0  0  0  0  0
  -15.8200  -27.2385   24.5620 C   0  0  0  0  0  0  0  0  0  0  0  0
  -18.1763  -26.2483   23.4602 C   0  0  0  0  0  0  0  0  0  0  0  0
  -22.9692  -25.3310   24.8133 C   0  0  0  0  0  0  0  0  0  0  0  0
  -22.1781   -9.3715   22.2660 C   0  0  0  0  0  0  0  0  0  0  0  0
  -23.1565  -10.1230   24.3433 C   0  0  0  0  0  0  0  0  0  0  0  0
  -23.6080  -24.2527   24.2026 C   0  0  0  0  0  0  0  0  0  0  0  0
  -22.6136   -6.3324   23.6796 C   0  0  0  0  0  0  0  0  0  0  0  0
  -22.5387   -5.0368   23.1683 C   0  0  0  0  0  0  0  0  0  0  0  0
  -29.4673  -16.4054   18.5166 C   0  0  0  0  0  0  0  0  0  0  0  0
  -24.7148  -25.7721   22.6909 C   0  0  0  0  0  0  0  0  0  0  0  0
  -28.3236  -18.5202   18.2790 C   0  0  0  0  0  0  0  0  0  0  0  0
  -20.1422   -5.2588   22.9568 C   0  0  0  0  0  0  0  0  0  0  0  0
  -23.8244  -11.1397   22.2559 C   0  0  0  0  0  0  0  0  0  0  0  0
  -29.7066  -16.6859   19.8618 C   0  0  0  0  0  0  0  0  0  0  0  0
  -24.2756  -13.4257   21.2175 C   0  0  0  0  0  0  0  0  0  0  0  0
  -16.7252  -28.1274   23.9611 C   0  0  0  0  0  0  0  0  0  0  0  0
  -23.1905  -26.6393   24.3595 C   0  0  0  0  0  0  0  0  0  0  0  0
  -17.9128  -27.6270   23.3940 C   0  0  0  0  0  0  0  0  0  0  0  0
  -24.0796  -26.8656   23.2991 C   0  0  0  0  0  0  0  0  0  0  0  0
  -28.7759  -17.3226   17.7251 C   0  0  0  0  0  0  0  0  0  0  0  0
  -22.2815   -9.2831   23.6542 C   0  0  0  0  0  0  0  0  0  0  0  0
  -24.4787  -24.4728   23.1394 C   0  0  0  0  0  0  0  0  0  0  0  0
  -21.4527   -7.0912   23.8297 C   0  0  0  0  0  0  0  0  0  0  0  0
  -28.5628  -18.8007   19.6243 C   0  0  0  0  0  0  0  0  0  0  0  0
  -29.2543  -17.8835   20.4157 C   0  0  0  0  0  0  0  0  0  0  0  0
  -21.3031   -4.5000   22.8068 C   0  0  0  0  0  0  0  0  0  0  0  0
  -20.2171   -6.5544   23.4682 C   0  0  0  0  0  0  0  0  0  0  0  0
  -24.6219  -12.0985   21.5342 C   0  0  0  0  0  0  0  0  0  0  0  0
  -25.3625  -13.9098   20.5313 C   0  0  0  0  0  0  0  0  0  0  0  0
  -30.4303  -15.7137   20.6698 C   0  0  0  0  0  0  0  0  0  0  0  0
  -23.0784  -14.1557   21.5167 C   0  0  0  0  0  0  0  0  0  0  0  0
  -30.9137  -14.4393   20.0904 C   0  0  0  0  0  0  0  0  0  0  0  0
  -21.3630  -28.9175   23.1050 C   0  0  0  0  0  0  0  0  0  0  0  0
  -24.0673  -30.6896   23.3677 C   0  0  0  0  0  0  0  0  0  0  0  0
  -27.4729  -30.7653   23.5739 C   0  0  0  0  0  0  0  0  0  0  0  0
  -16.3627  -29.5892   23.8817 C   0  0  0  0  0  0  0  0  0  0  0  0
  -22.5143  -27.7941   25.0462 C   0  0  0  0  0  0  0  0  0  0  0  0
  -24.3669  -28.2527   22.7874 C   0  0  0  0  0  0  0  0  0  0  0  0
  -17.5474  -30.4935   23.5514 C   0  0  0  0  0  0  0  0  0  0  0  0
  -29.3953  -11.5369   18.6321 C   0  0  0  0  0  0  0  0  0  0  0  0
  -18.3512  -29.9173   22.3900 C   0  0  0  0  0  0  0  0  0  0  0  0
  -28.0031  -11.5126   19.2621 C   0  0  0  0  0  0  0  0  0  0  0  0
  -30.4399  -12.0707   19.6069 C   0  0  0  0  0  0  0  0  0  0  0  0
  -28.7172  -13.4004   20.7955 C   0  0  0  0  0  0  0  0  0  0  0  0
  -18.9294  -28.5428   22.7474 C   0  0  1  0  0  0  0  0  0  0  0  0
  -22.4178  -29.0380   24.1683 C   0  0  1  0  0  0  0  0  0  0  0  0
  -27.6305  -12.8930   19.8316 C   0  0  2  0  0  0  0  0  0  0  0  0
  -29.4013  -32.3624   23.7411 C   0  0  0  0  0  0  0  0  0  0  0  0
  -23.7680  -31.3572   20.4055 C   0  0  0  0  0  0  0  0  0  0  0  0
  -26.1506  -32.1263   20.4096 C   0  0  0  0  0  0  0  0  0  0  0  0
  -24.4668  -33.2807   21.8429 C   0  0  0  0  0  0  0  0  0  0  0  0
  -28.3230  -29.6479   26.1792 C   0  0  0  0  0  0  0  0  0  0  0  0
  -28.4968  -17.7392   22.6654 C   0  0  0  0  0  0  0  0  0  0  0  0
  -28.5203  -17.0230   16.2868 C   0  0  0  0  0  0  0  0  0  0  0  0
  -24.8187  -21.3608   21.3158 C   0  0  0  0  0  0  0  0  0  0  0  0
  -26.3135  -21.0603   21.3101 C   0  0  0  0  0  0  0  0  0  0  0  0
  -24.4136  -22.1725   22.5391 C   0  0  0  0  0  0  0  0  0  1  0  0
  -26.7119  -20.2127   20.1103 C   0  0  0  0  0  0  0  0  0  0  0  0
  -25.2559  -30.9645   22.4786 C   0  0  1  0  0  0  0  0  0  0  0  0
  -28.4091  -31.5057   24.5120 C   0  0  2  0  0  0  0  0  0  0  0  0
  -24.9037  -31.9057   21.2923 C   0  0  0  0  0  0  0  0  0  0  0  0
  -25.8340  -11.7609   21.0860 N   0  0  0  0  0  0  0  0  0  0  0  0
  -30.6996  -15.8939   21.9333 N   0  0  0  0  0  0  0  0  0  0  0  0
  -26.2587  -12.8830   20.4805 N   0  0  0  0  0  0  0  0  0  0  0  0
  -30.0383  -13.3644   20.1558 N   0  0  0  0  0  0  0  0  0  0  0  0
  -23.6767  -29.3484   23.4876 N   0  0  0  0  0  0  0  0  0  0  0  0
  -25.6294  -15.1093   19.9725 N   0  0  0  0  0  0  0  0  0  0  0  0
  -22.0610  -13.5071   22.2298 N   0  0  0  0  0  0  0  0  0  0  0  0
  -20.0920  -28.6889   23.5968 N   0  0  0  0  0  0  0  0  0  0  0  0
  -26.3097  -31.4713   23.3510 N   0  0  0  0  0  0  0  0  0  0  0  0
  -27.2381  -16.3032   16.0517 N   0  3  0  0  0  0  0  0  0  0  0  0
  -29.1740  -30.5392   25.3497 N   0  3  0  0  0  0  0  0  0  0  0  0
  -22.9091  -15.3427   21.1481 O   0  0  0  0  0  0  0  0  0  0  0  0
  -32.0407  -14.4708   19.6136 O   0  0  0  0  0  0  0  0  0  0  0  0
  -21.6786  -29.0256   21.9258 O   0  0  0  0  0  0  0  0  0  0  0  0
  -23.5104  -31.6295   23.9405 O   0  0  0  0  0  0  0  0  0  0  0  0
  -27.7478  -29.6719   23.0847 O   0  0  0  0  0  0  0  0  0  0  0  0
  -21.5288   -8.3775   24.3367 O   0  0  0  0  0  0  0  0  0  0  0  0
  -29.4850  -18.1647   21.7304 O   0  0  0  0  0  0  0  0  0  0  0  0
  -25.1030  -23.4220   22.5411 O   0  0  0  0  0  0  0  0  0  1  0  0
  -28.1132  -19.9815   20.1557 O   0  0  0  0  0  0  0  0  0  0  0  0
  -21.2315   -3.2565   22.3143 F   0  0  0  0  0  0  0  0  0  0  0  0
  -19.0986   -7.2789   23.6089 F   0  0  0  0  0  0  0  0  0  0  0  0
  1  2  1  0  0  0  0
  1  5  2  0  0  0  0
  2  6  2  0  0  0  0
  3  8  2  0  0  0  0
  3 17  1  0  0  0  0
  4  9  1  0  0  0  0
  4 17  2  0  0  0  0
  5 20  1  0  0  0  0
  6 22  1  0  0  0  0
  7 10  2  0  0  0  0
  7 21  1  0  0  0  0
  8 25  1  0  0  0  0
  9 25  2  0  0  0  0
 10 26  1  0  0  0  0
 11 12  2  0  0  0  0
 11 27  1  0  0  0  0
 12 30  1  0  0  0  0
 13 18  2  0  0  0  0
 13 24  1  0  0  0  0
 14 23  1  0  0  0  0
 14 26  2  0  0  0  0
 15 24  2  0  0  0  0
 15 28  1  0  0  0  0
 16 30  2  0  0  0  0
 16 31  1  0  0  0  0
 17 32  1  0  0  0  0
 18 29  1  0  0  0  0
 18 34  1  0  0  0  0
 19 32  1  0  0  0  0
 19 33  2  0  0  0  0
 19 35  1  0  0  0  0
 20 22  2  0  0  0  0
 20 40  1  0  0  0  0
 21 23  2  0  0  0  0
 21 41  1  0  0  0  0
 22 49  1  0  0  0  0
 23 42  1  0  0  0  0
 24 58  1  0  0  0  0
 25 82  1  0  0  0  0
 26 84  1  0  0  0  0
 27 31  2  0  0  0  0
 27 82  1  0  0  0  0
 28 29  2  0  0  0  0
 28 85  1  0  0  0  0
 29 83  1  0  0  0  0
 30 86  1  0  0  0  0
 31 87  1  0  0  0  0
 32 66  2  0  0  0  0
 33 68  1  0  0  0  0
 33 71  1  0  0  0  0
 34 36  1  0  0  0  0
 34 67  2  0  0  0  0
 35 72  1  0  0  0  0
 35 77  2  0  0  0  0
 36 69  1  0  0  0  0
 36 78  2  0  0  0  0
 37 50  1  0  0  0  0
 37 73  1  0  0  0  0
 37 79  2  0  0  0  0
 38 63  1  0  0  0  0
 38 70  1  0  0  0  0
 38 80  2  0  0  0  0
 39 64  1  0  0  0  0
 39 74  1  0  0  0  0
 39 81  2  0  0  0  0
 40 43  1  0  0  0  0
 41 50  1  0  0  0  0
 42 70  1  0  0  0  0
 43 45  1  0  0  0  0
 44 46  1  0  0  0  0
 44 47  1  0  0  0  0
 45 49  1  0  0  0  0
 46 51  1  0  0  0  0
 47 69  1  0  0  0  0
 48 51  1  0  0  0  0
 48 69  1  0  0  0  0
 49 73  1  0  0  0  0
 50 70  1  0  0  0  0
 51 68  1  0  0  0  0
 52 64  1  0  0  0  0
 53 65  1  0  0  0  0
 54 65  1  0  0  0  0
 55 65  1  0  0  0  0
 56 76  1  0  0  0  0
 57 83  1  0  0  0  0
 58 75  1  0  0  0  0
 59 60  1  0  0  0  0
 59 61  1  0  0  0  0
 60 62  1  0  0  0  0
 61 84  1  0  0  0  0
 62 85  1  0  0  0  0
 63 65  1  0  0  0  0
 63 74  1  0  0  0  0
 64 76  1  0  0  0  0
 66 68  1  0  0  0  0
M  CHG  2  75   1  76   1
M  ISO  4  34 100  36 100  61 101  84 101
M  END
> <Batch ID>
0109

> <Smiles>
CNC(C)C(=O)NC(C(=O)N1Cc2cc([101O:1][101CH2:1]CCCOc3cc(CN)cc([100C:0](=N)[100C:0](=O)N4CCCC(n5nc(-c6ccc(Oc7ccc(F)cc7F)cc6)c(C(N)=O)c5N)C4)c3OC)ccc2CC1C(=O)NC1CCCc2ccccc21)C(C)(C)C

> <Shape>
0.324

> <Color>
0.161

> <Negative vol penalty>
0.000

$$$$

  -OEChem-04052301233D

 83 91  0     1  0  0  0  0  0999 V2000
  -25.8419  -37.8603   24.3773 C   0  0  0  0  0  0  0  0  0  0  0  0
  -26.6022  -37.1446   23.4580 C   0  0  0  0  0  0  0  0  0  0  0  0
  -22.6232  -10.3739   20.5612 C   0  0  0  0  0  0  0  0  0  0  0  0
  -24.3440   -9.5074   22.0190 C   0  0  0  0  0  0  0  0  0  0  0  0
  -25.1176  -37.1839   25.3581 C   0  0  0  0  0  0  0  0  0  0  0  0
  -26.6396  -35.7520   23.5197 C   0  0  0  0  0  0  0  0  0  0  0  0
  -27.1817  -29.9895   19.2988 C   0  0  0  0  0  0  0  0  0  0  0  0
  -22.0332   -9.1112   20.5070 C   0  0  0  0  0  0  0  0  0  0  0  0
  -23.7540   -8.2446   21.9649 C   0  0  0  0  0  0  0  0  0  0  0  0
  -27.9324  -28.8229   19.1600 C   0  0  0  0  0  0  0  0  0  0  0  0
  -21.1278   -6.6613   23.3850 C   0  0  0  0  0  0  0  0  0  0  0  0
  -20.9864   -5.9618   24.5834 C   0  0  0  0  0  0  0  0  0  0  0  0
  -26.5780  -27.7576   20.8481 C   0  0  0  0  0  0  0  0  0  0  0  0
  -22.3551   -4.1762   23.7028 C   0  0  0  0  0  0  0  0  0  0  0  0
  -23.7787  -10.5721   21.3172 C   0  0  0  0  0  0  0  0  0  0  0  0
  -24.1205  -12.9013   22.2997 C   0  0  0  0  0  0  0  0  0  0  0  0
  -25.1384  -35.7819   25.4257 C   0  0  0  0  0  0  0  0  0  0  0  0
  -26.1287  -30.0526   20.2227 C   0  0  0  0  0  0  0  0  0  0  0  0
  -25.9160  -35.0563   24.5031 C   0  0  0  0  0  0  0  0  0  0  0  0
  -25.8138  -28.9254   20.9949 C   0  0  0  0  0  0  0  0  0  0  0  0
  -22.5986   -8.0466   21.2089 C   0  0  0  0  0  0  0  0  0  0  0  0
  -27.6325  -27.7077   19.9367 C   0  0  0  0  0  0  0  0  0  0  0  0
  -21.8829   -6.1182   22.3454 C   0  0  0  0  0  0  0  0  0  0  0  0
  -21.6000   -4.7193   24.7423 C   0  0  0  0  0  0  0  0  0  0  0  0
  -22.4965   -4.8757   22.5043 C   0  0  0  0  0  0  0  0  0  0  0  0
  -24.3890  -11.8761   21.3731 C   0  0  0  0  0  0  0  0  0  0  0  0
  -29.0258  -19.0739   22.7777 C   0  0  0  0  0  0  0  0  0  0  0  0
  -30.0822  -18.4851   22.1147 C   0  0  0  0  0  0  0  0  0  0  0  0
  -24.9539  -13.9276   21.9274 C   0  0  0  0  0  0  0  0  0  0  0  0
  -29.5775  -20.7531   21.4794 C   0  0  0  0  0  0  0  0  0  0  0  0
  -23.2001  -12.9239   23.3988 C   0  0  0  0  0  0  0  0  0  0  0  0
  -25.5130  -31.7988   22.8064 C   0  0  0  0  0  0  0  0  0  0  0  0
  -28.9193  -24.2816   20.3845 C   0  0  0  0  0  0  0  0  0  0  0  0
  -22.6550  -30.2695   22.6811 C   0  0  0  0  0  0  0  0  0  0  0  0
  -20.8650  -27.5539   21.6477 C   0  0  0  0  0  0  0  0  0  0  0  0
  -29.9547  -15.7850   20.2881 C   0  0  0  0  0  0  0  0  0  0  0  0
  -24.3769  -35.0972   26.5329 C   0  0  0  0  0  0  0  0  0  0  0  0
  -25.3114  -31.3097   20.3414 C   0  0  0  0  0  0  0  0  0  0  0  0
  -24.6803  -28.9350   21.9867 C   0  0  0  0  0  0  0  0  0  0  0  0
  -24.1716  -33.6030   26.2974 C   0  0  0  0  0  0  0  0  0  0  0  0
  -27.7684  -14.5394   17.7692 C   0  0  0  0  0  0  0  0  0  0  0  0
  -25.4748  -32.9492   25.8489 C   0  0  0  0  0  0  0  0  0  0  0  0
  -26.6763  -13.8152   18.5582 C   0  0  0  0  0  0  0  0  0  0  0  0
  -29.1393  -14.3751   18.4217 C   0  0  0  0  0  0  0  0  0  0  0  0
  -28.1060  -14.0358   20.6333 C   0  0  0  0  0  0  0  0  0  0  0  0
  -25.9622  -33.5438   24.5221 C   0  0  1  0  0  0  0  0  0  0  0  0
  -24.5897  -31.4290   21.6801 C   0  0  1  0  0  0  0  0  0  0  0  0
  -26.6967  -14.2194   20.0446 C   0  0  2  0  0  0  0  0  0  0  0  0
  -28.1956  -18.4424   23.8237 C   0  0  0  0  0  0  0  0  0  0  0  0
  -18.5586  -26.5683   21.7273 C   0  0  0  0  0  0  0  0  0  0  0  0
  -23.1094  -29.4469   25.5840 C   0  0  0  0  0  0  0  0  0  0  0  0
  -21.3088  -27.7297   25.3063 C   0  0  0  0  0  0  0  0  0  0  0  0
  -20.7694  -30.1521   25.0537 C   0  0  0  0  0  0  0  0  0  0  0  0
  -20.6139  -27.6087   18.6993 C   0  0  0  0  0  0  0  0  0  0  0  0
  -30.6554  -17.1313   22.2518 C   0  0  0  0  0  0  0  0  0  0  0  0
  -28.6389  -23.0503   21.2195 C   0  0  0  0  0  0  0  0  0  0  0  0
  -28.0017  -25.4633   20.6312 C   0  0  0  0  0  0  0  0  0  1  0  0
  -22.1039  -28.9849   23.2513 C   0  0  1  0  0  0  0  0  0  0  0  0
  -19.5262  -27.4393   20.9413 C   0  0  2  0  0  0  0  0  0  0  0  0
  -21.8455  -29.0785   24.7816 C   0  0  0  0  0  0  0  0  0  0  0  0
  -25.3200  -12.2198   20.4792 N   0  0  0  0  0  0  0  0  0  0  0  0
  -28.7352  -20.3746   22.4150 N   0  0  0  0  0  0  0  0  0  0  0  0
  -25.6438  -13.4726   20.8424 N   0  0  0  0  0  0  0  0  0  0  0  0
  -23.9147  -30.1897   22.0707 N   0  0  0  0  0  0  0  0  0  0  0  0
  -29.0908  -14.7769   19.8296 N   0  0  0  0  0  0  0  0  0  0  0  0
  -25.1565  -15.1658   22.4254 N   0  0  0  0  0  0  0  0  0  0  0  0
  -22.4203  -11.7847   23.6408 N   0  0  0  0  0  0  0  0  0  0  0  0
  -29.5727  -22.0062   20.8835 N   0  0  0  0  0  0  0  0  0  0  0  0
  -25.2042  -32.9999   23.4158 N   0  0  0  0  0  0  0  0  0  0  0  0
  -20.9186  -28.6641   22.4636 N   0  0  0  0  0  0  0  0  0  0  0  0
  -29.8393  -16.1098   21.6342 N   0  0  0  0  0  0  0  0  0  0  0  0
  -19.7040  -26.8411   19.5880 N   0  3  0  0  0  0  0  0  0  0  0  0
  -23.0611  -13.9306   24.1342 O   0  0  0  0  0  0  0  0  0  0  0  0
  -26.4362  -31.0491   23.1017 O   0  0  0  0  0  0  0  0  0  0  0  0
  -29.8286  -24.3314   19.5571 O   0  0  0  0  0  0  0  0  0  0  0  0
  -21.9890  -31.3043   22.7677 O   0  0  0  0  0  0  0  0  0  0  0  0
  -21.7712  -26.7380   21.4940 O   0  0  0  0  0  0  0  0  0  0  0  0
  -30.7649  -16.3573   19.5512 O   0  0  0  0  0  0  0  0  0  0  0  0
  -22.0230   -6.8143   21.1564 O   0  0  0  0  0  0  0  0  0  0  0  0
  -28.3640  -26.5680   19.8036 O   0  0  0  0  0  0  0  0  0  1  0  0
  -21.4654   -4.0484   25.8938 F   0  0  0  0  0  0  0  0  0  0  0  0
  -23.2241   -4.3495   21.5095 F   0  0  0  0  0  0  0  0  0  0  0  0
  -30.7448  -19.5952   20.9879 S   0  0  0  0  0  0  0  0  0  0  0  0
  1  2  1  0  0  0  0
  1  5  2  0  0  0  0
  2  6  2  0  0  0  0
  3  8  2  0  0  0  0
  3 15  1  0  0  0  0
  4  9  1  0  0  0  0
  4 15  2  0  0  0  0
  5 17  1  0  0  0  0
  6 19  1  0  0  0  0
  7 10  2  0  0  0  0
  7 18  1  0  0  0  0
  8 21  1  0  0  0  0
  9 21  2  0  0  0  0
 10 22  1  0  0  0  0
 11 12  2  0  0  0  0
 11 23  1  0  0  0  0
 12 24  1  0  0  0  0
 13 20  1  0  0  0  0
 13 22  2  0  0  0  0
 14 24  2  0  0  0  0
 14 25  1  0  0  0  0
 15 26  1  0  0  0  0
 16 26  1  0  0  0  0
 16 29  2  0  0  0  0
 16 31  1  0  0  0  0
 17 19  2  0  0  0  0
 17 37  1  0  0  0  0
 18 20  2  0  0  0  0
 18 38  1  0  0  0  0
 19 46  1  0  0  0  0
 20 39  1  0  0  0  0
 21 79  1  0  0  0  0
 22 80  1  0  0  0  0
 23 25  2  0  0  0  0
 23 79  1  0  0  0  0
 24 81  1  0  0  0  0
 25 82  1  0  0  0  0
 26 61  2  0  0  0  0
 27 28  2  0  0  0  0
 27 49  1  0  0  0  0
 27 62  1  0  0  0  0
 28 55  1  0  0  0  0
 28 83  1  0  0  0  0
 29 63  1  0  0  0  0
 29 66  1  0  0  0  0
 30 62  2  0  0  0  0
 30 68  1  0  0  0  0
 30 83  1  0  0  0  0
 31 67  1  0  0  0  0
 31 73  2  0  0  0  0
 32 47  1  0  0  0  0
 32 69  1  0  0  0  0
 32 74  2  0  0  0  0
 33 56  1  0  0  0  0
 33 57  1  0  0  0  0
 33 75  2  0  0  0  0
 34 58  1  0  0  0  0
 34 64  1  0  0  0  0
 34 76  2  0  0  0  0
 35 59  1  0  0  0  0
 35 70  1  0  0  0  0
 35 77  2  0  0  0  0
 36 65  1  0  0  0  0
 36 71  1  0  0  0  0
 36 78  2  0  0  0  0
 37 40  1  0  0  0  0
 38 47  1  0  0  0  0
 39 64  1  0  0  0  0
 40 42  1  0  0  0  0
 41 43  1  0  0  0  0
 41 44  1  0  0  0  0
 42 46  1  0  0  0  0
 43 48  1  0  0  0  0
 44 65  1  0  0  0  0
 45 48  1  0  0  0  0
 45 65  1  0  0  0  0
 46 69  1  0  0  0  0
 47 64  1  0  0  0  0
 48 63  1  0  0  0  0
 50 59  1  0  0  0  0
 51 60  1  0  0  0  0
 52 60  1  0  0  0  0
 53 60  1  0  0  0  0
 54 72  1  0  0  0  0
 55 71  1  0  0  0  0
 56 68  1  0  0  0  0
 57 80  1  0  0  0  0
 58 60  1  0  0  0  0
 58 70  1  0  0  0  0
 59 72  1  0  0  0  0
 61 63  1  0  0  0  0
M  CHG  1  72   1
M  ISO  4  36 100  57 101  71 100  80 101
M  END
> <Batch ID>
0109

> <Smiles>
CNC(C)C(=O)NC(C(=O)N1Cc2cc([101O:1][101CH2:1]C(=O)CNc3nc(C)c(C[100NH:0][100C:0](=O)N4CCCC(n5nc(-c6ccc(Oc7ccc(F)cc7F)cc6)c(C(N)=O)c5N)C4)s3)ccc2CC1C(=O)NC1CCCc2ccccc21)C(C)(C)C

> <Shape>
0.384

> <Color>
0.140

> <Negative vol penalty>
0.000

$$$$

  -OEChem-04052301233D

 87 95  0     1  0  0  0  0  0999 V2000
  -31.0488  -35.1366   18.0545 C   0  0  0  0  0  0  0  0  0  0  0  0
  -30.8753  -33.8179   18.4624 C   0  0  0  0  0  0  0  0  0  0  0  0
  -23.1170   -9.8024   21.4830 C   0  0  0  0  0  0  0  0  0  0  0  0
  -23.8410  -10.7432   23.5872 C   0  0  0  0  0  0  0  0  0  0  0  0
  -30.2576  -36.1447   18.6036 C   0  0  0  0  0  0  0  0  0  0  0  0
  -29.9112  -33.5067   19.4206 C   0  0  0  0  0  0  0  0  0  0  0  0
  -26.5174  -28.4172   19.7108 C   0  0  0  0  0  0  0  0  0  0  0  0
  -22.3981   -8.8230   22.1681 C   0  0  0  0  0  0  0  0  0  0  0  0
  -23.1221   -9.7637   24.2724 C   0  0  0  0  0  0  0  0  0  0  0  0
  -26.6439  -27.2468   20.4577 C   0  0  0  0  0  0  0  0  0  0  0  0
  -23.0479   -5.9122   23.7587 C   0  0  0  0  0  0  0  0  0  0  0  0
  -23.1547   -4.5966   23.3079 C   0  0  0  0  0  0  0  0  0  0  0  0
  -25.1203  -28.1385   22.1017 C   0  0  0  0  0  0  0  0  0  0  0  0
  -28.6655  -19.6178   22.7142 C   0  0  0  0  0  0  0  0  0  0  0  0
  -28.2868  -20.2046   20.4013 C   0  0  0  0  0  0  0  0  0  0  0  0
  -20.7725   -4.5399   22.9090 C   0  0  0  0  0  0  0  0  0  0  0  0
  -23.8385  -10.7625   22.1925 C   0  0  0  0  0  0  0  0  0  0  0  0
  -24.1195  -13.0402   21.0785 C   0  0  0  0  0  0  0  0  0  0  0  0
  -29.2767  -35.8445   19.5619 C   0  0  0  0  0  0  0  0  0  0  0  0
  -25.6985  -29.4632   20.1599 C   0  0  0  0  0  0  0  0  0  0  0  0
  -29.1070  -34.5120   19.9841 C   0  0  0  0  0  0  0  0  0  0  0  0
  -24.9831  -29.3201   21.3573 C   0  0  0  0  0  0  0  0  0  0  0  0
  -29.5087  -18.5816   22.3133 C   0  0  0  0  0  0  0  0  0  0  0  0
  -29.7411  -18.3570   20.9564 C   0  0  0  0  0  0  0  0  0  0  0  0
  -28.0544  -20.4293   21.7582 C   0  0  0  0  0  0  0  0  0  0  0  0
  -22.4006   -8.8036   23.5629 C   0  0  0  0  0  0  0  0  0  0  0  0
  -25.9475  -27.1084   21.6548 C   0  0  0  0  0  0  0  0  0  0  0  0
  -21.8034   -6.5417   23.7847 C   0  0  0  0  0  0  0  0  0  0  0  0
  -29.1302  -19.1685   20.0004 C   0  0  0  0  0  0  0  0  0  0  0  0
  -22.0170   -3.9104   22.8830 C   0  0  0  0  0  0  0  0  0  0  0  0
  -20.6657   -5.8555   23.3598 C   0  0  0  0  0  0  0  0  0  0  0  0
  -24.5818  -11.7742   21.4852 C   0  0  0  0  0  0  0  0  0  0  0  0
  -25.1983  -13.6144   20.4516 C   0  0  0  0  0  0  0  0  0  0  0  0
  -27.7765  -22.6102   22.3570 C   0  0  0  0  0  0  0  0  0  0  0  0
  -22.8304  -13.6432   21.2520 C   0  0  0  0  0  0  0  0  0  0  0  0
  -26.9339  -23.7653   22.7912 C   0  0  0  0  0  0  0  0  0  0  0  0
  -26.1838  -32.4912   20.9960 C   0  0  0  0  0  0  0  0  0  0  0  0
  -22.9458  -32.5521   21.1790 C   0  0  0  0  0  0  0  0  0  0  0  0
  -20.0343  -30.8205   21.5931 C   0  0  0  0  0  0  0  0  0  0  0  0
  -30.6516  -14.7820   20.2423 C   0  0  0  0  0  0  0  0  0  0  0  0
  -28.4778  -36.9744   20.1616 C   0  0  0  0  0  0  0  0  0  0  0  0
  -25.5520  -30.7085   19.3291 C   0  0  0  0  0  0  0  0  0  0  0  0
  -24.0751  -30.4054   21.8731 C   0  0  0  0  0  0  0  0  0  0  0  0
  -27.2232  -36.5101   20.8969 C   0  0  0  0  0  0  0  0  0  0  0  0
  -29.6103  -11.6130   18.9973 C   0  0  0  0  0  0  0  0  0  0  0  0
  -27.5450  -35.3314   21.8101 C   0  0  0  0  0  0  0  0  0  0  0  0
  -28.1741  -11.4745   19.5052 C   0  0  0  0  0  0  0  0  0  0  0  0
  -30.5030  -12.3198   20.0149 C   0  0  0  0  0  0  0  0  0  0  0  0
  -28.5626  -13.4869   20.9876 C   0  0  0  0  0  0  0  0  0  0  0  0
  -28.0548  -34.1314   21.0029 C   0  0  1  0  0  0  0  0  0  0  0  0
  -25.0915  -31.9164   20.1392 C   0  0  1  0  0  0  0  0  0  0  0  0
  -27.6114  -12.8302   19.9727 C   0  0  2  0  0  0  0  0  0  0  0  0
  -31.3297  -18.4230   24.0295 C   0  0  0  0  0  0  0  0  0  0  0  0
  -17.5503  -31.1483   21.7339 C   0  0  0  0  0  0  0  0  0  0  0  0
  -23.2512  -33.6294   24.0173 C   0  0  0  0  0  0  0  0  0  0  0  0
  -20.8522  -33.0405   24.4244 C   0  0  0  0  0  0  0  0  0  0  0  0
  -21.4431  -34.7194   22.6767 C   0  0  0  0  0  0  0  0  0  0  0  0
  -19.5584  -29.1194   19.2185 C   0  0  0  0  0  0  0  0  0  0  0  0
  -28.4550  -18.0744   17.9997 C   0  0  0  0  0  0  0  0  0  0  0  0
  -30.1509  -17.7268   23.3563 C   0  0  0  0  0  0  0  0  0  0  0  0
  -30.6451  -17.2481   20.5210 C   0  0  0  0  0  0  0  0  0  0  0  0
  -26.9283  -24.9524   21.8677 C   0  0  0  0  0  0  0  0  0  1  0  0
  -21.9307  -32.2737   22.2611 C   0  0  1  0  0  0  0  0  0  0  0  0
  -18.7280  -30.8468   20.8202 C   0  0  2  0  0  0  0  0  0  0  0  0
  -21.8878  -33.3959   23.3364 C   0  0  0  0  0  0  0  0  0  0  0  0
  -25.8549  -11.5564   21.1451 N   0  0  0  0  0  0  0  0  0  0  0  0
  -27.2048  -21.4729   22.1620 N   0  0  0  0  0  0  0  0  0  0  0  0
  -26.2019  -12.6932   20.5180 N   0  0  0  0  0  0  0  0  0  0  0  0
  -23.9700  -31.6065   21.0282 N   0  0  0  0  0  0  0  0  0  0  0  0
  -29.9136  -13.5995   20.4158 N   0  0  0  0  0  0  0  0  0  0  0  0
  -25.3768  -14.8124   19.8554 N   0  0  0  0  0  0  0  0  0  0  0  0
  -21.8362  -12.9145   21.9189 N   0  0  0  0  0  0  0  0  0  0  0  0
  -26.9519  -33.4486   20.3612 N   0  0  0  0  0  0  0  0  0  0  0  0
  -20.6598  -32.0492   21.5807 N   0  0  0  0  0  0  0  0  0  0  0  0
  -30.0167  -15.9515   20.6423 N   0  0  0  0  0  0  0  0  0  0  0  0
  -18.4883  -29.5307   20.1633 N   0  3  0  0  0  0  0  0  0  0  0  0
  -22.5629  -14.7876   20.8136 O   0  0  0  0  0  0  0  0  0  0  0  0
  -26.3099  -23.6648   23.8357 O   0  0  0  0  0  0  0  0  0  0  0  0
  -26.3188  -32.0965   22.1483 O   0  0  0  0  0  0  0  0  0  0  0  0
  -22.8300  -33.5674   20.4880 O   0  0  0  0  0  0  0  0  0  0  0  0
  -20.4556  -29.8119   22.1550 O   0  0  0  0  0  0  0  0  0  0  0  0
  -31.7897  -14.7952   19.7612 O   0  0  0  0  0  0  0  0  0  0  0  0
  -21.6991   -7.8482   24.2318 O   0  0  0  0  0  0  0  0  0  0  0  0
  -29.3451  -18.9640   18.6704 O   0  0  0  0  0  0  0  0  0  0  0  0
  -26.0697  -25.9674   22.3862 O   0  0  0  0  0  0  0  0  0  1  0  0
  -22.1200   -2.6475   22.4486 F   0  0  0  0  0  0  0  0  0  0  0  0
  -19.4676   -6.4554   23.3814 F   0  0  0  0  0  0  0  0  0  0  0  0
  1  2  1  0  0  0  0
  1  5  2  0  0  0  0
  2  6  2  0  0  0  0
  3  8  2  0  0  0  0
  3 17  1  0  0  0  0
  4  9  1  0  0  0  0
  4 17  2  0  0  0  0
  5 19  1  0  0  0  0
  6 21  1  0  0  0  0
  7 10  2  0  0  0  0
  7 20  1  0  0  0  0
  8 26  1  0  0  0  0
  9 26  2  0  0  0  0
 10 27  1  0  0  0  0
 11 12  2  0  0  0  0
 11 28  1  0  0  0  0
 12 30  1  0  0  0  0
 13 22  1  0  0  0  0
 13 27  2  0  0  0  0
 14 23  1  0  0  0  0
 14 25  2  0  0  0  0
 15 25  1  0  0  0  0
 15 29  2  0  0  0  0
 16 30  2  0  0  0  0
 16 31  1  0  0  0  0
 17 32  1  0  0  0  0
 18 32  1  0  0  0  0
 18 33  2  0  0  0  0
 18 35  1  0  0  0  0
 19 21  2  0  0  0  0
 19 41  1  0  0  0  0
 20 22  2  0  0  0  0
 20 42  1  0  0  0  0
 21 50  1  0  0  0  0
 22 43  1  0  0  0  0
 23 24  2  0  0  0  0
 23 60  1  0  0  0  0
 24 29  1  0  0  0  0
 24 61  1  0  0  0  0
 25 67  1  0  0  0  0
 26 83  1  0  0  0  0
 27 85  1  0  0  0  0
 28 31  2  0  0  0  0
 28 83  1  0  0  0  0
 29 84  1  0  0  0  0
 30 86  1  0  0  0  0
 31 87  1  0  0  0  0
 32 66  2  0  0  0  0
 33 68  1  0  0  0  0
 33 71  1  0  0  0  0
 34 36  1  0  0  0  0
 34 67  2  0  0  0  0
 35 72  1  0  0  0  0
 35 77  2  0  0  0  0
 36 62  1  0  0  0  0
 36 78  2  0  0  0  0
 37 51  1  0  0  0  0
 37 73  1  0  0  0  0
 37 79  2  0  0  0  0
 38 63  1  0  0  0  0
 38 69  1  0  0  0  0
 38 80  2  0  0  0  0
 39 64  1  0  0  0  0
 39 74  1  0  0  0  0
 39 81  2  0  0  0  0
 40 70  1  0  0  0  0
 40 75  1  0  0  0  0
 40 82  2  0  0  0  0
 41 44  1  0  0  0  0
 42 51  1  0  0  0  0
 43 69  1  0  0  0  0
 44 46  1  0  0  0  0
 45 47  1  0  0  0  0
 45 48  1  0  0  0  0
 46 50  1  0  0  0  0
 47 52  1  0  0  0  0
 48 70  1  0  0  0  0
 49 52  1  0  0  0  0
 49 70  1  0  0  0  0
 50 73  1  0  0  0  0
 51 69  1  0  0  0  0
 52 68  1  0  0  0  0
 53 60  1  0  0  0  0
 54 64  1  0  0  0  0
 55 65  1  0  0  0  0
 56 65  1  0  0  0  0
 57 65  1  0  0  0  0
 58 76  1  0  0  0  0
 59 84  1  0  0  0  0
 61 75  1  0  0  0  0
 62 85  1  0  0  0  0
 63 65  1  0  0  0  0
 63 74  1  0  0  0  0
 64 76  1  0  0  0  0
 66 68  1  0  0  0  0
M  CHG  1  76   1
M  ISO  4  40 100  62 101  75 100  85 101
M  END
> <Batch ID>
0109

> <Smiles>
C=Cc1cc(NCC(=O)[101CH2:1][101O:1]c2ccc3c(c2)CN(C(=O)C(NC(=O)C(C)NC)C(C)(C)C)C(C(=O)NC2CCCc4ccccc42)C3)cc(OC)c1C[100NH:0][100C:0](=O)N1CCCC(n2nc(-c3ccc(Oc4ccc(F)cc4F)cc3)c(C(N)=O)c2N)C1

> <Shape>
0.265

> <Color>
0.175

> <Negative vol penalty>
0.000

$$$$

  -OEChem-04052301233D

 89 98  0     1  0  0  0  0  0999 V2000
  -21.8176  -37.4944   19.7310 C   0  0  0  0  0  0  0  0  0  0  0  0
  -22.6680  -36.6421   19.0341 C   0  0  0  0  0  0  0  0  0  0  0  0
  -23.8487   -9.0607   21.1389 C   0  0  0  0  0  0  0  0  0  0  0  0
  -25.3289   -9.6985   22.9387 C   0  0  0  0  0  0  0  0  0  0  0  0
  -21.6418  -37.3319   21.1045 C   0  0  0  0  0  0  0  0  0  0  0  0
  -23.3440  -35.6273   19.7106 C   0  0  0  0  0  0  0  0  0  0  0  0
  -25.7893  -28.9597   18.7725 C   0  0  0  0  0  0  0  0  0  0  0  0
  -23.5725   -7.8594   21.7917 C   0  0  0  0  0  0  0  0  0  0  0  0
  -25.0526   -8.4972   23.5916 C   0  0  0  0  0  0  0  0  0  0  0  0
  -26.9570  -28.2110   18.9129 C   0  0  0  0  0  0  0  0  0  0  0  0
  -21.6381   -6.8061   24.3572 C   0  0  0  0  0  0  0  0  0  0  0  0
  -20.3063   -6.3976   24.4270 C   0  0  0  0  0  0  0  0  0  0  0  0
  -29.1973  -20.7220   19.2124 C   0  0  0  0  0  0  0  0  0  0  0  0
  -26.5148  -27.9749   21.2725 C   0  0  0  0  0  0  0  0  0  0  0  0
  -29.5494  -20.6600   21.6018 C   0  0  0  0  0  0  0  0  0  0  0  0
  -20.8639   -4.3749   23.2292 C   0  0  0  0  0  0  0  0  0  0  0  0
  -24.7270   -9.9802   21.7124 C   0  0  0  0  0  0  0  0  0  0  0  0
  -28.8134  -19.3812   19.2341 C   0  0  0  0  0  0  0  0  0  0  0  0
  -24.0949  -12.2275   20.6839 C   0  0  0  0  0  0  0  0  0  0  0  0
  -22.3085  -36.3085   21.7965 C   0  0  0  0  0  0  0  0  0  0  0  0
  -24.9799  -29.2313   19.8849 C   0  0  0  0  0  0  0  0  0  0  0  0
  -23.1780  -35.4517   21.0949 C   0  0  0  0  0  0  0  0  0  0  0  0
  -25.3360  -28.7251   21.1431 C   0  0  0  0  0  0  0  0  0  0  0  0
  -28.7974  -18.6798   20.4397 C   0  0  0  0  0  0  0  0  0  0  0  0
  -29.5653  -21.3614   20.3962 C   0  0  0  0  0  0  0  0  0  0  0  0
  -24.1744   -7.5776   23.0181 C   0  0  0  0  0  0  0  0  0  0  0  0
  -27.3214  -27.7209   20.1635 C   0  0  0  0  0  0  0  0  0  0  0  0
  -22.5829   -5.9991   23.7233 C   0  0  0  0  0  0  0  0  0  0  0  0
  -19.9191   -5.1820   23.8630 C   0  0  0  0  0  0  0  0  0  0  0  0
  -29.1654  -19.3192   21.6236 C   0  0  0  0  0  0  0  0  0  0  0  0
  -22.1958   -4.7835   23.1593 C   0  0  0  0  0  0  0  0  0  0  0  0
  -25.0132  -11.2211   21.0382 C   0  0  0  0  0  0  0  0  0  0  0  0
  -24.8595  -13.1896   20.0706 C   0  0  0  0  0  0  0  0  0  0  0  0
  -29.6512  -25.0141   19.6456 C   0  0  0  0  0  0  0  0  0  0  0  0
  -29.1460  -23.7912   19.9388 C   0  0  0  0  0  0  0  0  0  0  0  0
  -31.1370  -25.2079   19.7443 C   0  0  0  0  0  0  0  0  0  0  0  0
  -29.2593  -18.5988   16.9529 C   0  0  0  0  0  0  0  0  0  0  0  0
  -28.4362  -18.7408   17.9807 C   0  0  0  0  0  0  0  0  0  0  0  0
  -22.6774  -12.2875   20.8909 C   0  0  0  0  0  0  0  0  0  0  0  0
  -24.0446  -31.8717   21.3873 C   0  0  0  0  0  0  0  0  0  0  0  0
  -29.4816  -16.3387   19.9756 C   0  0  0  0  0  0  0  0  0  0  0  0
  -22.2147  -29.7942   23.0778 C   0  0  0  0  0  0  0  0  0  0  0  0
  -22.6132  -26.5182   24.5360 C   0  0  0  0  0  0  0  0  0  0  0  0
  -22.1233  -36.2016   23.2895 C   0  0  0  0  0  0  0  0  0  0  0  0
  -23.7095  -30.0178   19.7120 C   0  0  0  0  0  0  0  0  0  0  0  0
  -24.4909  -28.9715   22.3652 C   0  0  0  0  0  0  0  0  0  0  0  0
  -32.0037  -24.0047   20.0276 C   0  0  0  0  0  0  0  0  0  0  0  0
  -22.5868  -34.8665   23.8667 C   0  0  0  0  0  0  0  0  0  0  0  0
  -29.6550  -13.0827   18.4894 C   0  0  0  0  0  0  0  0  0  0  0  0
  -23.9578  -34.4925   23.3124 C   0  0  0  0  0  0  0  0  0  0  0  0
  -28.4034  -12.3810   19.0151 C   0  0  0  0  0  0  0  0  0  0  0  0
  -31.2935  -22.9948   20.9120 C   0  0  0  0  0  0  0  0  0  0  0  0
  -30.2439  -14.0288   19.5312 C   0  0  0  0  0  0  0  0  0  0  0  0
  -28.0226  -14.3427   20.5746 C   0  0  0  0  0  0  0  0  0  0  0  0
  -23.9096  -34.3235   21.7891 C   0  0  1  0  0  0  0  0  0  0  0  0
  -23.2291  -30.6689   21.0053 C   0  0  1  0  0  0  0  0  0  0  0  0
  -27.3783  -13.4007   19.5422 C   0  0  2  0  0  0  0  0  0  0  0  0
  -27.6464  -23.5670   19.9139 C   0  0  0  0  0  0  0  0  0  0  0  0
  -20.9183  -24.7339   25.0272 C   0  0  0  0  0  0  0  0  0  0  0  0
  -22.1260  -31.0496   25.8574 C   0  0  0  0  0  0  0  0  0  0  0  0
  -21.9276  -28.7452   26.8157 C   0  0  0  0  0  0  0  0  0  0  0  0
  -20.1533  -29.6189   25.2955 C   0  0  0  0  0  0  0  0  0  0  0  0
  -24.1069  -24.5041   22.9641 C   0  0  0  0  0  0  0  0  0  0  0  0
  -28.3922  -17.2418   20.4968 C   0  0  0  0  0  0  0  0  0  0  0  0
  -28.8776  -26.2152   19.1801 C   0  0  0  0  0  0  0  0  0  1  0  0
  -22.4041  -28.9821   24.3362 C   0  0  1  0  0  0  0  0  0  0  0  0
  -21.9788  -25.2259   24.0545 C   0  0  2  0  0  0  0  0  0  0  0  0
  -21.6747  -29.6058   25.5595 C   0  0  0  0  0  0  0  0  0  0  0  0
  -26.2655  -11.5162   20.6796 N   0  0  0  0  0  0  0  0  0  0  0  0
  -26.1395  -12.7190   20.0935 N   0  0  0  0  0  0  0  0  0  0  0  0
  -29.9554  -22.7254   20.3739 N   0  0  0  0  0  0  0  0  0  0  0  0
  -23.2615  -29.7513   22.1460 N   0  0  0  0  0  0  0  0  0  0  0  0
  -29.2333  -14.9668   20.0232 N   0  0  0  0  0  0  0  0  0  0  0  0
  -24.5552  -14.3836   19.5191 N   0  0  0  0  0  0  0  0  0  0  0  0
  -22.1989  -12.8644   22.0751 N   0  0  0  0  0  0  0  0  0  0  0  0
  -23.3214  -33.0480   21.4404 N   0  0  0  0  0  0  0  0  0  0  0  0
  -21.9771  -27.6248   24.0142 N   0  0  0  0  0  0  0  0  0  0  0  0
  -23.0136  -24.1632   23.9104 N   0  3  0  0  0  0  0  0  0  0  0  0
  -31.6438  -26.3114   19.5439 O   0  0  0  0  0  0  0  0  0  0  0  0
  -21.8598  -11.8278   20.0579 O   0  0  0  0  0  0  0  0  0  0  0  0
  -25.2411  -31.7419   21.6183 O   0  0  0  0  0  0  0  0  0  0  0  0
  -30.5203  -16.8396   19.5369 O   0  0  0  0  0  0  0  0  0  0  0  0
  -21.1732  -30.4371   22.9240 O   0  0  0  0  0  0  0  0  0  0  0  0
  -23.5742  -26.5436   25.3017 O   0  0  0  0  0  0  0  0  0  0  0  0
  -23.9049   -6.4056   23.6555 O   0  0  0  0  0  0  0  0  0  0  0  0
  -28.4610  -26.9905   20.3034 O   0  0  0  0  0  0  0  0  0  1  0  0
  -18.6404   -4.7892   23.9315 F   0  0  0  0  0  0  0  0  0  0  0  0
  -29.1543  -18.6541   22.7874 F   0  0  0  0  0  0  0  0  0  0  0  0
  -23.0991   -4.0033   22.5501 F   0  0  0  0  0  0  0  0  0  0  0  0
  1  2  1  0  0  0  0
  1  5  2  0  0  0  0
  2  6  2  0  0  0  0
  3  8  2  0  0  0  0
  3 17  1  0  0  0  0
  4  9  1  0  0  0  0
  4 17  2  0  0  0  0
  5 20  1  0  0  0  0
  6 22  1  0  0  0  0
  7 10  2  0  0  0  0
  7 21  1  0  0  0  0
  8 26  1  0  0  0  0
  9 26  2  0  0  0  0
 10 27  1  0  0  0  0
 11 12  2  0  0  0  0
 11 28  1  0  0  0  0
 12 29  1  0  0  0  0
 13 18  1  0  0  0  0
 13 25  2  0  0  0  0
 14 23  1  0  0  0  0
 14 27  2  0  0  0  0
 15 25  1  0  0  0  0
 15 30  2  0  0  0  0
 16 29  2  0  0  0  0
 16 31  1  0  0  0  0
 17 32  1  0  0  0  0
 18 24  2  0  0  0  0
 18 38  1  0  0  0  0
 19 32  1  0  0  0  0
 19 33  2  0  0  0  0
 19 39  1  0  0  0  0
 20 22  2  0  0  0  0
 20 44  1  0  0  0  0
 21 23  2  0  0  0  0
 21 45  1  0  0  0  0
 22 55  1  0  0  0  0
 23 46  1  0  0  0  0
 24 30  1  0  0  0  0
 24 64  1  0  0  0  0
 25 71  1  0  0  0  0
 26 85  1  0  0  0  0
 27 86  1  0  0  0  0
 28 31  2  0  0  0  0
 28 85  1  0  0  0  0
 29 87  1  0  0  0  0
 30 88  1  0  0  0  0
 31 89  1  0  0  0  0
 32 69  2  0  0  0  0
 33 70  1  0  0  0  0
 33 74  1  0  0  0  0
 34 35  2  0  0  0  0
 34 36  1  0  0  0  0
 34 65  1  0  0  0  0
 35 58  1  0  0  0  0
 35 71  1  0  0  0  0
 36 47  1  0  0  0  0
 36 79  2  0  0  0  0
 37 38  2  0  0  0  0
 39 75  1  0  0  0  0
 39 80  2  0  0  0  0
 40 56  1  0  0  0  0
 40 76  1  0  0  0  0
 40 81  2  0  0  0  0
 41 64  1  0  0  0  0
 41 73  1  0  0  0  0
 41 82  2  0  0  0  0
 42 66  1  0  0  0  0
 42 72  1  0  0  0  0
 42 83  2  0  0  0  0
 43 67  1  0  0  0  0
 43 77  1  0  0  0  0
 43 84  2  0  0  0  0
 44 48  1  0  0  0  0
 45 56  1  0  0  0  0
 46 72  1  0  0  0  0
 47 52  1  0  0  0  0
 48 50  1  0  0  0  0
 49 51  1  0  0  0  0
 49 53  1  0  0  0  0
 50 55  1  0  0  0  0
 51 57  1  0  0  0  0
 52 71  1  0  0  0  0
 53 73  1  0  0  0  0
 54 57  1  0  0  0  0
 54 73  1  0  0  0  0
 55 76  1  0  0  0  0
 56 72  1  0  0  0  0
 57 70  1  0  0  0  0
 59 67  1  0  0  0  0
 60 68  1  0  0  0  0
 61 68  1  0  0  0  0
 62 68  1  0  0  0  0
 63 78  1  0  0  0  0
 65 86  1  0  0  0  0
 66 68  1  0  0  0  0
 66 77  1  0  0  0  0
 67 78  1  0  0  0  0
 69 70  1  0  0  0  0
M  CHG  1  78   1
M  ISO  4  41 100  64 100  65 101  86 101
M  END
> <Batch ID>
0109

> <Smiles>
C=Cc1cc(N2CCC(=O)C([101CH2:1][101O:1]c3ccc4c(c3)CN(C(=O)C(NC(=O)C(C)NC)C(C)(C)C)C(C(=O)NC3CCCc5ccccc53)C4)=C2C)cc(F)c1[100CH2:0][100C:0](=O)N1CCCC(n2nc(-c3ccc(Oc4ccc(F)cc4F)cc3)c(C(N)=O)c2N)C1

> <Shape>
0.323

> <Color>
0.141

> <Negative vol penalty>
0.000

$$$$

  -OEChem-04052301233D

 85 93  0     1  0  0  0  0  0999 V2000
  -30.3958  -20.7609    3.7226 C   0  0  0  0  0  0  0  0  0  0  0  0
  -30.7151  -20.4792    5.0470 C   0  0  0  0  0  0  0  0  0  0  0  0
  -22.9870   -9.9051   19.9901 C   0  0  0  0  0  0  0  0  0  0  0  0
  -23.7663   -9.9336   22.2768 C   0  0  0  0  0  0  0  0  0  0  0  0
  -27.7192  -18.4076   21.3627 C   0  0  0  0  0  0  0  0  0  0  0  0
  -30.1946  -22.0807    3.3208 C   0  0  0  0  0  0  0  0  0  0  0  0
  -30.8346  -21.5173    5.9703 C   0  0  0  0  0  0  0  0  0  0  0  0
  -28.5171  -20.4939   10.3551 C   0  0  0  0  0  0  0  0  0  0  0  0
  -22.2276   -8.7675   20.2630 C   0  0  0  0  0  0  0  0  0  0  0  0
  -23.0068   -8.7959   22.5498 C   0  0  0  0  0  0  0  0  0  0  0  0
  -28.0987  -18.9500   20.1350 C   0  0  0  0  0  0  0  0  0  0  0  0
  -29.1760  -19.6412   11.2397 C   0  0  0  0  0  0  0  0  0  0  0  0
  -23.2416   -5.4621   22.0388 C   0  0  0  0  0  0  0  0  0  0  0  0
  -23.8472   -4.4378   22.7666 C   0  0  0  0  0  0  0  0  0  0  0  0
  -29.8139  -17.2622   19.9194 C   0  0  0  0  0  0  0  0  0  0  0  0
  -29.9293  -21.5494   12.5087 C   0  0  0  0  0  0  0  0  0  0  0  0
  -22.1631   -4.6627   24.4843 C   0  0  0  0  0  0  0  0  0  0  0  0
  -23.7565  -10.4882   20.9970 C   0  0  0  0  0  0  0  0  0  0  0  0
  -28.3871  -17.2925   21.8689 C   0  0  0  0  0  0  0  0  0  0  0  0
  -29.4345  -16.7198   21.1472 C   0  0  0  0  0  0  0  0  0  0  0  0
  -24.1362  -13.0057   20.8372 C   0  0  0  0  0  0  0  0  0  0  0  0
  -30.3021  -23.1348    4.2417 C   0  0  0  0  0  0  0  0  0  0  0  0
  -28.5685  -21.8837   10.5348 C   0  0  0  0  0  0  0  0  0  0  0  0
  -30.6359  -22.8526    5.5801 C   0  0  0  0  0  0  0  0  0  0  0  0
  -29.2681  -22.4175   11.6265 C   0  0  0  0  0  0  0  0  0  0  0  0
  -22.2374   -8.2129   21.5429 C   0  0  0  0  0  0  0  0  0  0  0  0
  -29.1460  -18.3774   19.4133 C   0  0  0  0  0  0  0  0  0  0  0  0
  -29.8846  -20.1690   12.3150 C   0  0  0  0  0  0  0  0  0  0  0  0
  -22.0968   -6.0867   22.5338 C   0  0  0  0  0  0  0  0  0  0  0  0
  -23.3080   -4.0381   23.9894 C   0  0  0  0  0  0  0  0  0  0  0  0
  -21.5576   -5.6870   23.7565 C   0  0  0  0  0  0  0  0  0  0  0  0
  -24.5416  -11.6631   20.7155 C   0  0  0  0  0  0  0  0  0  0  0  0
  -25.2368  -13.7327   20.4540 C   0  0  0  0  0  0  0  0  0  0  0  0
  -27.9566  -17.4571   24.2778 C   0  0  0  0  0  0  0  0  0  0  0  0
  -27.9655  -16.7535   23.1560 C   0  0  0  0  0  0  0  0  0  0  0  0
  -30.1589  -15.5546   21.6409 C   0  0  0  0  0  0  0  0  0  0  0  0
  -22.8775  -13.5473   21.2589 C   0  0  0  0  0  0  0  0  0  0  0  0
  -30.7612  -14.5731   20.7097 C   0  0  0  0  0  0  0  0  0  0  0  0
  -29.6795  -24.3262    8.8308 C   0  0  0  0  0  0  0  0  0  0  0  0
  -28.2908  -26.0875   11.1742 C   0  0  0  0  0  0  0  0  0  0  0  0
  -27.1749  -26.2585   14.3948 C   0  0  0  0  0  0  0  0  0  0  0  0
  -30.1222  -24.5493    3.7502 C   0  0  0  0  0  0  0  0  0  0  0  0
  -27.8301  -22.7887    9.5870 C   0  0  0  0  0  0  0  0  0  0  0  0
  -29.3371  -23.9014   11.8752 C   0  0  0  0  0  0  0  0  0  0  0  0
  -29.8991  -25.5602    4.8721 C   0  0  0  0  0  0  0  0  0  0  0  0
  -29.5351  -12.2944   18.2276 C   0  0  0  0  0  0  0  0  0  0  0  0
  -30.9080  -25.3425    5.9953 C   0  0  0  0  0  0  0  0  0  0  0  0
  -28.1059  -12.0077   18.6868 C   0  0  0  0  0  0  0  0  0  0  0  0
  -30.4722  -12.4982   19.4136 C   0  0  0  0  0  0  0  0  0  0  0  0
  -28.5895  -13.2802   20.8251 C   0  0  0  0  0  0  0  0  0  0  0  0
  -30.7500  -23.9494    6.6165 C   0  0  1  0  0  0  0  0  0  0  0  0
  -28.3775  -24.2127    9.5720 C   0  0  1  0  0  0  0  0  0  0  0  0
  -27.6080  -13.0961   19.6545 C   0  0  2  0  0  0  0  0  0  0  0  0
  -26.1235  -27.8413   16.0339 C   0  0  0  0  0  0  0  0  0  0  0  0
  -30.9763  -27.4890   11.5398 C   0  0  0  0  0  0  0  0  0  0  0  0
  -30.1549  -28.3358   13.7481 C   0  0  0  0  0  0  0  0  0  0  0  0
  -28.9873  -29.0013   11.6465 C   0  0  0  0  0  0  0  0  0  0  0  0
  -24.7841  -24.5405   14.6971 C   0  0  0  0  0  0  0  0  0  0  0  0
  -29.7593  -18.5112   15.8422 C   0  0  0  0  0  0  0  0  0  0  0  0
  -30.3063  -17.5645   14.7796 C   0  0  0  0  0  0  0  0  0  0  0  0
  -30.0606  -18.0112   17.2488 C   0  0  0  0  0  0  0  0  0  0  0  0
  -29.9684  -18.0413   13.3741 C   0  0  0  0  0  0  0  0  0  1  0  0
  -28.7392  -26.6369   12.5069 C   0  0  1  0  0  0  0  0  0  0  0  0
  -25.8728  -26.7702   14.9839 C   0  0  2  0  0  0  0  0  0  0  0  0
  -29.7149  -27.8378   12.3548 C   0  0  0  0  0  0  0  0  0  0  0  0
  -25.8013  -11.5415   20.2883 N   0  0  0  0  0  0  0  0  0  0  0  0
  -30.3245  -15.3029   22.9092 N   0  0  0  0  0  0  0  0  0  0  0  0
  -26.1969  -12.8170   20.1381 N   0  0  0  0  0  0  0  0  0  0  0  0
  -29.9524  -13.5111   20.3301 N   0  0  0  0  0  0  0  0  0  0  0  0
  -28.6040  -24.7453   10.9171 N   0  0  0  0  0  0  0  0  0  0  0  0
  -25.4671  -15.0595   20.3597 N   0  0  0  0  0  0  0  0  0  0  0  0
  -21.8545  -12.6590   21.6178 N   0  0  0  0  0  0  0  0  0  0  0  0
  -29.6129  -23.9211    7.5113 N   0  0  0  0  0  0  0  0  0  0  0  0
  -27.5230  -26.9457   13.2512 N   0  0  0  0  0  0  0  0  0  0  0  0
  -25.1189  -25.6541   15.6218 N   0  3  0  0  0  0  0  0  0  0  0  0
  -22.6608  -14.7821   21.3001 O   0  0  0  0  0  0  0  0  0  0  0  0
  -31.9150  -14.8049   20.3730 O   0  0  0  0  0  0  0  0  0  0  0  0
  -30.6708  -24.7514    9.4124 O   0  0  0  0  0  0  0  0  0  0  0  0
  -27.6786  -26.8202   10.3931 O   0  0  0  0  0  0  0  0  0  0  0  0
  -27.8208  -25.3434   14.9008 O   0  0  0  0  0  0  0  0  0  0  0  0
  -21.4962   -7.1029   21.8096 O   0  0  0  0  0  0  0  0  0  0  0  0
  -29.5183  -18.9104   18.2068 O   0  0  0  0  0  0  0  0  0  0  0  0
  -30.5292  -19.3390   13.1795 O   0  0  0  0  0  0  0  0  0  1  0  0
  -23.8888   -3.0535   24.6875 F   0  0  0  0  0  0  0  0  0  0  0  0
  -20.4572   -6.2825   24.2366 F   0  0  0  0  0  0  0  0  0  0  0  0
  1  2  1  0  0  0  0
  1  6  2  0  0  0  0
  2  7  2  0  0  0  0
  3  9  2  0  0  0  0
  3 18  1  0  0  0  0
  4 10  1  0  0  0  0
  4 18  2  0  0  0  0
  5 11  2  0  0  0  0
  5 19  1  0  0  0  0
  6 22  1  0  0  0  0
  7 24  1  0  0  0  0
  8 12  2  0  0  0  0
  8 23  1  0  0  0  0
  9 26  1  0  0  0  0
 10 26  2  0  0  0  0
 11 27  1  0  0  0  0
 12 28  1  0  0  0  0
 13 14  2  0  0  0  0
 13 29  1  0  0  0  0
 14 30  1  0  0  0  0
 15 20  1  0  0  0  0
 15 27  2  0  0  0  0
 16 25  1  0  0  0  0
 16 28  2  0  0  0  0
 17 30  2  0  0  0  0
 17 31  1  0  0  0  0
 18 32  1  0  0  0  0
 19 20  2  0  0  0  0
 19 35  1  0  0  0  0
 20 36  1  0  0  0  0
 21 32  1  0  0  0  0
 21 33  2  0  0  0  0
 21 37  1  0  0  0  0
 22 24  2  0  0  0  0
 22 42  1  0  0  0  0
 23 25  2  0  0  0  0
 23 43  1  0  0  0  0
 24 51  1  0  0  0  0
 25 44  1  0  0  0  0
 26 81  1  0  0  0  0
 27 82  1  0  0  0  0
 28 83  1  0  0  0  0
 29 31  2  0  0  0  0
 29 81  1  0  0  0  0
 30 84  1  0  0  0  0
 31 85  1  0  0  0  0
 32 66  2  0  0  0  0
 33 68  1  0  0  0  0
 33 71  1  0  0  0  0
 34 35  2  0  0  0  0
 36 38  1  0  0  0  0
 36 67  2  0  0  0  0
 37 72  1  0  0  0  0
 37 76  2  0  0  0  0
 38 69  1  0  0  0  0
 38 77  2  0  0  0  0
 39 52  1  0  0  0  0
 39 73  1  0  0  0  0
 39 78  2  0  0  0  0
 40 63  1  0  0  0  0
 40 70  1  0  0  0  0
 40 79  2  0  0  0  0
 41 64  1  0  0  0  0
 41 74  1  0  0  0  0
 41 80  2  0  0  0  0
 42 45  1  0  0  0  0
 43 52  1  0  0  0  0
 44 70  1  0  0  0  0
 45 47  1  0  0  0  0
 46 48  1  0  0  0  0
 46 49  1  0  0  0  0
 47 51  1  0  0  0  0
 48 53  1  0  0  0  0
 49 69  1  0  0  0  0
 50 53  1  0  0  0  0
 50 69  1  0  0  0  0
 51 73  1  0  0  0  0
 52 70  1  0  0  0  0
 53 68  1  0  0  0  0
 54 64  1  0  0  0  0
 55 65  1  0  0  0  0
 56 65  1  0  0  0  0
 57 65  1  0  0  0  0
 58 75  1  0  0  0  0
 59 60  1  0  0  0  0
 59 61  1  0  0  0  0
 60 62  1  0  0  0  0
 61 82  1  0  0  0  0
 62 83  1  0  0  0  0
 63 65  1  0  0  0  0
 63 74  1  0  0  0  0
 64 75  1  0  0  0  0
 66 68  1  0  0  0  0
M  CHG  1  75   1
M  ISO  4  36 100  38 100  62 101  83 101
M  END
> <Batch ID>
0109

> <Smiles>
C=Cc1ccc(OCCC[101CH2:1][101O:1]c2ccc3c(c2)CN(C(=O)C(NC(=O)C(C)NC)C(C)(C)C)C(C(=O)NC2CCCc4ccccc42)C3)cc1[100C:0](=N)[100C:0](=O)N1CCCC(n2nc(-c3ccc(Oc4ccc(F)cc4F)cc3)c(C(N)=O)c2N)C1

> <Shape>
0.201

> <Color>
0.190

> <Negative vol penalty>
0.000

$$$$

  -OEChem-04052301233D

 87 96  0     1  0  0  0  0  0999 V2000
  -21.8340  -28.3827   22.9251 C   0  0  0  0  0  0  0  0  0  0  0  0
  -22.7485  -28.1725   23.9522 C   0  0  0  0  0  0  0  0  0  0  0  0
  -22.8567  -10.0799   20.0694 C   0  0  0  0  0  0  0  0  0  0  0  0
  -24.2815   -9.5127   21.9363 C   0  0  0  0  0  0  0  0  0  0  0  0
  -20.8161  -27.4571   22.6994 C   0  0  0  0  0  0  0  0  0  0  0  0
  -22.6450  -27.0371   24.7549 C   0  0  0  0  0  0  0  0  0  0  0  0
  -27.9145  -21.4648   26.2411 C   0  0  0  0  0  0  0  0  0  0  0  0
  -22.1545   -8.8873   20.2430 C   0  0  0  0  0  0  0  0  0  0  0  0
  -23.5793   -8.3201   22.1099 C   0  0  0  0  0  0  0  0  0  0  0  0
  -28.7077  -20.3372   26.4546 C   0  0  0  0  0  0  0  0  0  0  0  0
  -20.6476   -7.3331   23.4707 C   0  0  0  0  0  0  0  0  0  0  0  0
  -20.2848   -6.9797   24.7703 C   0  0  0  0  0  0  0  0  0  0  0  0
  -30.9178  -13.0132   25.0717 C   0  0  0  0  0  0  0  0  0  0  0  0
  -33.0281  -13.6262   26.0756 C   0  0  0  0  0  0  0  0  0  0  0  0
  -26.7266  -19.0004   26.8240 C   0  0  0  0  0  0  0  0  0  0  0  0
  -32.8167  -13.5312   23.6707 C   0  0  0  0  0  0  0  0  0  0  0  0
  -21.5683   -4.9421   24.5745 C   0  0  0  0  0  0  0  0  0  0  0  0
  -23.9203  -10.3926   20.9161 C   0  0  0  0  0  0  0  0  0  0  0  0
  -31.6917  -13.2492   26.2079 C   0  0  0  0  0  0  0  0  0  0  0  0
  -24.1306  -12.9324   20.8023 C   0  0  0  0  0  0  0  0  0  0  0  0
  -20.7058  -26.3048   23.4936 C   0  0  0  0  0  0  0  0  0  0  0  0
  -26.5221  -21.3610   26.3032 C   0  0  0  0  0  0  0  0  0  0  0  0
  -21.6238  -26.0958   24.5405 C   0  0  0  0  0  0  0  0  0  0  0  0
  -25.9266  -20.1238   26.5988 C   0  0  0  0  0  0  0  0  0  0  0  0
  -31.4803  -13.1541   23.8031 C   0  0  0  0  0  0  0  0  0  0  0  0
  -22.5157   -8.0074   21.2632 C   0  0  0  0  0  0  0  0  0  0  0  0
  -28.1152  -19.1082   26.7455 C   0  0  0  0  0  0  0  0  0  0  0  0
  -21.4707   -6.4910   22.7229 C   0  0  0  0  0  0  0  0  0  0  0  0
  -33.5906  -13.7672   24.8069 C   0  0  0  0  0  0  0  0  0  0  0  0
  -20.7452   -5.7842   25.3222 C   0  0  0  0  0  0  0  0  0  0  0  0
  -21.9310   -5.2956   23.2748 C   0  0  0  0  0  0  0  0  0  0  0  0
  -24.6464  -11.6242   20.7369 C   0  0  0  0  0  0  0  0  0  0  0  0
  -25.2148  -13.7413   20.5642 C   0  0  0  0  0  0  0  0  0  0  0  0
  -29.5323  -16.2943   28.4667 C   0  0  0  0  0  0  0  0  0  0  0  0
  -28.8142  -17.3789   28.1576 C   0  0  0  0  0  0  0  0  0  1  0  0
  -31.0989  -13.1018   27.5457 C   0  0  0  0  0  0  0  0  0  0  0  0
  -22.7911  -13.3767   21.0557 C   0  0  0  0  0  0  0  0  0  0  0  0
  -23.2094  -23.0969   26.0052 C   0  0  0  0  0  0  0  0  0  0  0  0
  -22.8979  -20.3487   24.6782 C   0  0  0  0  0  0  0  0  0  0  0  0
  -21.9876  -17.7015   22.7287 C   0  0  0  0  0  0  0  0  0  0  0  0
  -31.0972  -13.0099   21.3174 C   0  0  0  0  0  0  0  0  0  0  0  0
  -19.5604  -25.3565   23.2418 C   0  0  0  0  0  0  0  0  0  0  0  0
  -25.6306  -22.5622   26.1409 C   0  0  0  0  0  0  0  0  0  0  0  0
  -24.4261  -20.0667   26.6895 C   0  0  0  0  0  0  0  0  0  0  0  0
  -29.4784  -15.5678   29.7765 C   0  0  0  0  0  0  0  0  0  0  0  0
  -30.4196  -15.5544   27.5146 C   0  0  0  0  0  0  0  0  0  0  0  0
  -19.7449  -23.9907   23.8980 C   0  0  0  0  0  0  0  0  0  0  0  0
  -29.4206  -13.7885   18.2744 C   0  0  0  0  0  0  0  0  0  0  0  0
  -20.2037  -24.1507   25.3440 C   0  0  0  0  0  0  0  0  0  0  0  0
  -27.9581  -13.4466   18.5685 C   0  0  0  0  0  0  0  0  0  0  0  0
  -29.7688  -14.1362   29.3614 C   0  0  0  0  0  0  0  0  0  0  0  0
  -30.3788  -12.8072   18.9472 C   0  0  0  0  0  0  0  0  0  0  0  0
  -28.7110  -12.2879   20.6845 C   0  0  0  0  0  0  0  0  0  0  0  0
  -21.5593  -24.8638   25.4169 C   0  0  1  0  0  0  0  0  0  0  0  0
  -24.3001  -22.2359   25.4392 C   0  0  1  0  0  0  0  0  0  0  0  0
  -27.7100  -13.2868   20.0812 C   0  0  2  0  0  0  0  0  0  0  0  0
  -19.9734  -16.3990   21.9911 C   0  0  0  0  0  0  0  0  0  0  0  0
  -22.7905  -18.9796   27.4018 C   0  0  0  0  0  0  0  0  0  0  0  0
  -21.4884  -17.1242   26.3386 C   0  0  0  0  0  0  0  0  0  0  0  0
  -20.5565  -19.4378   26.3753 C   0  0  0  0  0  0  0  0  0  0  0  0
  -22.4521  -18.3715   19.8837 C   0  0  0  0  0  0  0  0  0  0  0  0
  -35.4051  -14.2610   23.3511 C   0  0  0  0  0  0  0  0  0  0  0  0
  -22.4920  -18.9055   24.8383 C   0  0  1  0  0  0  0  0  0  0  0  0
  -20.9098  -17.5534   21.6699 C   0  0  2  0  0  0  0  0  0  0  0  0
  -21.8575  -18.6190   26.2285 C   0  0  0  0  0  0  0  0  0  0  0  0
  -25.9564  -11.5988   20.4774 N   0  0  0  0  0  0  0  0  0  0  0  0
  -26.2728  -12.9011   20.3776 N   0  0  0  0  0  0  0  0  0  0  0  0
  -30.5061  -14.2234   28.1092 N   0  0  0  0  0  0  0  0  0  0  0  0
  -23.8266  -20.8504   25.5981 N   0  0  0  0  0  0  0  0  0  0  0  0
  -30.0869  -12.7105   20.3791 N   0  0  0  0  0  0  0  0  0  0  0  0
  -25.3567  -15.0821   20.4982 N   0  0  0  0  0  0  0  0  0  0  0  0
  -21.9271  -13.5495   19.9658 N   0  0  0  0  0  0  0  0  0  0  0  0
  -30.6939  -12.9150   22.6489 N   0  0  0  0  0  0  0  0  0  0  0  0
  -22.6302  -23.9489   25.0843 N   0  0  0  0  0  0  0  0  0  0  0  0
  -21.6206  -18.5989   23.7091 N   0  0  0  0  0  0  0  0  0  0  0  0
  -21.5251  -17.3024   20.3360 N   0  3  0  0  0  0  0  0  0  0  0  0
  -31.1576  -11.9912   28.0695 O   0  0  0  0  0  0  0  0  0  0  0  0
  -22.3779  -13.6292   22.2128 O   0  0  0  0  0  0  0  0  0  0  0  0
  -22.9131  -22.9956   27.1899 O   0  0  0  0  0  0  0  0  0  0  0  0
  -22.4023  -21.0171   23.7666 O   0  0  0  0  0  0  0  0  0  0  0  0
  -23.0474  -17.0802   22.6918 O   0  0  0  0  0  0  0  0  0  0  0  0
  -32.2285  -13.3536   20.9654 O   0  0  0  0  0  0  0  0  0  0  0  0
  -21.8306   -6.8437   21.4330 O   0  0  0  0  0  0  0  0  0  0  0  0
  -28.8953  -18.0104   26.9483 O   0  0  0  0  0  0  0  0  0  1  0  0
  -34.8944  -14.1355   24.6775 O   0  0  0  0  0  0  0  0  0  0  0  0
  -20.3980   -5.4457   26.5709 F   0  0  0  0  0  0  0  0  0  0  0  0
  -22.7229   -4.4831   22.5617 F   0  0  0  0  0  0  0  0  0  0  0  0
  1  2  1  0  0  0  0
  1  5  2  0  0  0  0
  2  6  2  0  0  0  0
  3  8  2  0  0  0  0
  3 18  1  0  0  0  0
  4  9  1  0  0  0  0
  4 18  2  0  0  0  0
  5 21  1  0  0  0  0
  6 23  1  0  0  0  0
  7 10  2  0  0  0  0
  7 22  1  0  0  0  0
  8 26  1  0  0  0  0
  9 26  2  0  0  0  0
 10 27  1  0  0  0  0
 11 12  2  0  0  0  0
 11 28  1  0  0  0  0
 12 30  1  0  0  0  0
 13 19  1  0  0  0  0
 13 25  2  0  0  0  0
 14 19  2  0  0  0  0
 14 29  1  0  0  0  0
 15 24  1  0  0  0  0
 15 27  2  0  0  0  0
 16 25  1  0  0  0  0
 16 29  2  0  0  0  0
 17 30  2  0  0  0  0
 17 31  1  0  0  0  0
 18 32  1  0  0  0  0
 19 36  1  0  0  0  0
 20 32  1  0  0  0  0
 20 33  2  0  0  0  0
 20 37  1  0  0  0  0
 21 23  2  0  0  0  0
 21 42  1  0  0  0  0
 22 24  2  0  0  0  0
 22 43  1  0  0  0  0
 23 54  1  0  0  0  0
 24 44  1  0  0  0  0
 25 73  1  0  0  0  0
 26 83  1  0  0  0  0
 27 84  1  0  0  0  0
 28 31  2  0  0  0  0
 28 83  1  0  0  0  0
 29 85  1  0  0  0  0
 30 86  1  0  0  0  0
 31 87  1  0  0  0  0
 32 66  2  0  0  0  0
 33 67  1  0  0  0  0
 33 71  1  0  0  0  0
 34 35  2  0  0  0  0
 34 45  1  0  0  0  0
 34 46  1  0  0  0  0
 35 84  1  0  0  0  0
 36 68  1  0  0  0  0
 36 77  2  0  0  0  0
 37 72  1  0  0  0  0
 37 78  2  0  0  0  0
 38 55  1  0  0  0  0
 38 74  1  0  0  0  0
 38 79  2  0  0  0  0
 39 63  1  0  0  0  0
 39 69  1  0  0  0  0
 39 80  2  0  0  0  0
 40 64  1  0  0  0  0
 40 75  1  0  0  0  0
 40 81  2  0  0  0  0
 41 70  1  0  0  0  0
 41 73  1  0  0  0  0
 41 82  2  0  0  0  0
 42 47  1  0  0  0  0
 43 55  1  0  0  0  0
 44 69  1  0  0  0  0
 45 51  1  0  0  0  0
 46 68  1  0  0  0  0
 47 49  1  0  0  0  0
 48 50  1  0  0  0  0
 48 52  1  0  0  0  0
 49 54  1  0  0  0  0
 50 56  1  0  0  0  0
 51 68  1  0  0  0  0
 52 70  1  0  0  0  0
 53 56  1  0  0  0  0
 53 70  1  0  0  0  0
 54 74  1  0  0  0  0
 55 69  1  0  0  0  0
 56 67  1  0  0  0  0
 57 64  1  0  0  0  0
 58 65  1  0  0  0  0
 59 65  1  0  0  0  0
 60 65  1  0  0  0  0
 61 76  1  0  0  0  0
 62 85  1  0  0  0  0
 63 65  1  0  0  0  0
 63 75  1  0  0  0  0
 64 76  1  0  0  0  0
 66 67  1  0  0  0  0
M  CHG  1  76   1
M  ISO  4  35 101  41 100  73 100  84 101
M  END
> <Batch ID>
0109

> <Smiles>
CNC(C)C(=O)NC(C(=O)N1Cc2cc([101O:1][101CH:1]=C3CCN(C(=O)c4cc([100NH:0][100C:0](=O)N5CCCC(n6nc(-c7ccc(Oc8ccc(F)cc8F)cc7)c(C(N)=O)c6N)C5)cc(OC)c4)C3)ccc2CC1C(=O)NC1CCCc2ccccc21)C(C)(C)C

> <Shape>
0.176

> <Color>
0.144

> <Negative vol penalty>
0.000

$$$$

  -OEChem-04052301233D

 85 93  0     1  0  0  0  0  0999 V2000
  -17.7376  -26.0164   22.6607 C   0  0  0  0  0  0  0  0  0  0  0  0
  -19.0655  -25.6203   22.5373 C   0  0  0  0  0  0  0  0  0  0  0  0
  -25.9982  -10.8802   20.0516 C   0  0  0  0  0  0  0  0  0  0  0  0
  -26.0126  -12.1388   17.9894 C   0  0  0  0  0  0  0  0  0  0  0  0
  -17.3727  -27.3294   22.3660 C   0  0  0  0  0  0  0  0  0  0  0  0
  -20.0292  -26.5367   22.1181 C   0  0  0  0  0  0  0  0  0  0  0  0
  -25.8709  -26.8259   23.9338 C   0  0  0  0  0  0  0  0  0  0  0  0
  -24.7236  -10.4004   19.7499 C   0  0  0  0  0  0  0  0  0  0  0  0
  -24.7380  -11.6590   17.6877 C   0  0  0  0  0  0  0  0  0  0  0  0
  -27.0551  -26.3640   23.3612 C   0  0  0  0  0  0  0  0  0  0  0  0
  -21.5403  -11.5275   19.8924 C   0  0  0  0  0  0  0  0  0  0  0  0
  -20.5884  -11.5331   20.9119 C   0  0  0  0  0  0  0  0  0  0  0  0
  -27.4350  -28.5447   22.4023 C   0  0  0  0  0  0  0  0  0  0  0  0
  -30.6965  -21.7307   17.1774 C   0  0  0  0  0  0  0  0  0  0  0  0
  -20.3644   -9.1355   20.7162 C   0  0  0  0  0  0  0  0  0  0  0  0
  -26.6426  -11.7494   19.1714 C   0  0  0  0  0  0  0  0  0  0  0  0
  -29.1919  -11.6621   19.1348 C   0  0  0  0  0  0  0  0  0  0  0  0
  -18.3341  -28.2649   21.9522 C   0  0  0  0  0  0  0  0  0  0  0  0
  -25.4536  -28.1500   23.7357 C   0  0  0  0  0  0  0  0  0  0  0  0
  -19.6767  -27.8631   21.8162 C   0  0  0  0  0  0  0  0  0  0  0  0
  -26.2464  -29.0217   22.9757 C   0  0  0  0  0  0  0  0  0  0  0  0
  -31.3240  -20.5081   16.9386 C   0  0  0  0  0  0  0  0  0  0  0  0
  -31.0510  -19.4124   17.7575 C   0  0  0  0  0  0  0  0  0  0  0  0
  -29.5230  -20.7620   19.0540 C   0  0  0  0  0  0  0  0  0  0  0  0
  -30.1505  -19.5394   18.8152 C   0  0  0  0  0  0  0  0  0  0  0  0
  -24.0936  -10.7898   18.5680 C   0  0  0  0  0  0  0  0  0  0  0  0
  -27.8359  -27.2225   22.5929 C   0  0  0  0  0  0  0  0  0  0  0  0
  -21.9042  -10.3258   19.2847 C   0  0  0  0  0  0  0  0  0  0  0  0
  -29.7960  -21.8577   18.2351 C   0  0  0  0  0  0  0  0  0  0  0  0
  -20.0005  -10.3372   21.3238 C   0  0  0  0  0  0  0  0  0  0  0  0
  -21.3163   -9.1298   19.6966 C   0  0  0  0  0  0  0  0  0  0  0  0
  -27.9590  -12.2458   19.4827 C   0  0  0  0  0  0  0  0  0  0  0  0
  -30.1345  -12.5123   19.6593 C   0  0  0  0  0  0  0  0  0  0  0  0
  -29.4610  -10.4589   18.4029 C   0  0  0  0  0  0  0  0  0  0  0  0
  -22.9257  -29.5273   22.3879 C   0  0  0  0  0  0  0  0  0  0  0  0
  -24.2625  -32.2378   23.5664 C   0  0  0  0  0  0  0  0  0  0  0  0
  -27.0714  -33.8559   24.6335 C   0  0  0  0  0  0  0  0  0  0  0  0
  -30.0764  -18.3295   21.0237 C   0  0  0  0  0  0  0  0  0  0  0  0
  -17.8841  -29.6605   21.5993 C   0  0  0  0  0  0  0  0  0  0  0  0
  -24.1872  -28.6403   24.3824 C   0  0  0  0  0  0  0  0  0  0  0  0
  -25.8531  -30.4579   22.7496 C   0  0  0  0  0  0  0  0  0  0  0  0
  -19.0283  -30.6681   21.5217 C   0  0  0  0  0  0  0  0  0  0  0  0
  -30.7888  -15.6309   23.2343 C   0  0  0  0  0  0  0  0  0  0  0  0
  -20.1915  -30.0940   20.7191 C   0  0  0  0  0  0  0  0  0  0  0  0
  -30.2616  -14.4027   22.4888 C   0  0  0  0  0  0  0  0  0  0  0  0
  -29.8989  -16.8530   23.0145 C   0  0  0  0  0  0  0  0  0  0  0  0
  -29.1047  -15.9535   20.8629 C   0  0  0  0  0  0  0  0  0  0  0  0
  -20.7551  -28.8346   21.3882 C   0  0  1  0  0  0  0  0  0  0  0  0
  -23.5975  -29.8646   23.6890 C   0  0  1  0  0  0  0  0  0  0  0  0
  -30.0037  -14.7140   21.0015 C   0  0  2  0  0  0  0  0  0  0  0  0
  -32.2845  -20.3995   15.7996 C   0  0  0  0  0  0  0  0  0  0  0  0
  -31.7292  -18.1038   17.4965 C   0  0  0  0  0  0  0  0  0  0  0  0
  -28.5548  -20.9115   20.1852 C   0  0  0  0  0  0  0  0  0  0  0  0
  -27.8564  -36.0760   25.5006 C   0  0  0  0  0  0  0  0  0  0  0  0
  -24.1069  -33.3916   20.7461 C   0  0  0  0  0  0  0  0  0  0  0  0
  -25.7252  -35.1646   21.4572 C   0  0  0  0  0  0  0  0  0  0  0  0
  -23.4963  -34.9960   22.5647 C   0  0  0  0  0  0  0  0  0  0  0  0
  -27.9765  -32.6684   27.1888 C   0  0  0  0  0  0  0  0  0  0  0  0
  -30.1574  -26.3693   19.9566 C   0  0  0  0  0  0  0  0  0  0  0  0
  -29.2937  -25.1615   19.6100 C   0  0  0  0  0  0  0  0  0  0  0  0
  -29.3961  -27.3793   20.8048 C   0  0  0  0  0  0  0  0  0  1  0  0
  -30.0399  -24.1717   18.7265 C   0  0  0  0  0  0  0  0  0  0  0  0
  -25.2581  -33.2496   23.0527 C   0  0  1  0  0  0  0  0  0  0  0  0
  -27.3431  -34.6931   25.8703 C   0  0  2  0  0  0  0  0  0  0  0  0
  -24.6533  -34.1729   21.9577 C   0  0  0  0  0  0  0  0  0  0  0  0
  -28.1021  -13.3791   20.1749 N   0  0  0  0  0  0  0  0  0  0  0  0
  -29.4361  -13.5144   20.2662 N   0  0  0  0  0  0  0  0  0  0  0  0
  -24.6031  -30.8882   23.3975 N   0  0  0  0  0  0  0  0  0  0  0  0
  -29.7021  -17.0892   21.5826 N   0  0  0  0  0  0  0  0  0  0  0  0
  -31.4843  -12.4930   19.6561 N   0  0  0  0  0  0  0  0  0  0  0  0
  -28.3763   -9.7043   17.9356 N   0  0  0  0  0  0  0  0  0  0  0  0
  -29.8727  -18.4268   19.6476 N   0  0  0  0  0  0  0  0  0  0  0  0
  -21.5912  -29.1916   22.5142 N   0  0  0  0  0  0  0  0  0  0  0  0
  -25.7589  -33.9606   24.2241 N   0  0  0  0  0  0  0  0  0  0  0  0
  -28.3614  -34.0287   26.7321 N   0  3  0  0  0  0  0  0  0  0  0  0
  -30.6287  -10.0561   18.1843 O   0  0  0  0  0  0  0  0  0  0  0  0
  -23.5700  -29.5700   21.3464 O   0  0  0  0  0  0  0  0  0  0  0  0
  -23.2242  -32.6304   24.1044 O   0  0  0  0  0  0  0  0  0  0  0  0
  -27.9378  -33.1797   24.0832 O   0  0  0  0  0  0  0  0  0  0  0  0
  -30.5685  -19.2287   21.7102 O   0  0  0  0  0  0  0  0  0  0  0  0
  -22.8500  -10.3217   18.2732 O   0  0  0  0  0  0  0  0  0  0  0  0
  -28.9919  -26.7740   22.0322 O   0  0  0  0  0  0  0  0  0  1  0  0
  -29.1889  -23.0671   18.4533 O   0  0  0  0  0  0  0  0  0  0  0  0
  -19.0875  -10.3426   22.3040 F   0  0  0  0  0  0  0  0  0  0  0  0
  -21.6628   -7.9721   19.1174 F   0  0  0  0  0  0  0  0  0  0  0  0
  1  2  1  0  0  0  0
  1  5  2  0  0  0  0
  2  6  2  0  0  0  0
  3  8  2  0  0  0  0
  3 16  1  0  0  0  0
  4  9  1  0  0  0  0
  4 16  2  0  0  0  0
  5 18  1  0  0  0  0
  6 20  1  0  0  0  0
  7 10  2  0  0  0  0
  7 19  1  0  0  0  0
  8 26  1  0  0  0  0
  9 26  2  0  0  0  0
 10 27  1  0  0  0  0
 11 12  2  0  0  0  0
 11 28  1  0  0  0  0
 12 30  1  0  0  0  0
 13 21  1  0  0  0  0
 13 27  2  0  0  0  0
 14 22  2  0  0  0  0
 14 29  1  0  0  0  0
 15 30  2  0  0  0  0
 15 31  1  0  0  0  0
 16 32  1  0  0  0  0
 17 32  1  0  0  0  0
 17 33  2  0  0  0  0
 17 34  1  0  0  0  0
 18 20  2  0  0  0  0
 18 39  1  0  0  0  0
 19 21  2  0  0  0  0
 19 40  1  0  0  0  0
 20 48  1  0  0  0  0
 21 41  1  0  0  0  0
 22 23  1  0  0  0  0
 22 51  1  0  0  0  0
 23 25  2  0  0  0  0
 23 52  1  0  0  0  0
 24 25  1  0  0  0  0
 24 29  2  0  0  0  0
 24 53  1  0  0  0  0
 25 72  1  0  0  0  0
 26 81  1  0  0  0  0
 27 82  1  0  0  0  0
 28 31  2  0  0  0  0
 28 81  1  0  0  0  0
 29 83  1  0  0  0  0
 30 84  1  0  0  0  0
 31 85  1  0  0  0  0
 32 66  2  0  0  0  0
 33 67  1  0  0  0  0
 33 70  1  0  0  0  0
 34 71  1  0  0  0  0
 34 76  2  0  0  0  0
 35 49  1  0  0  0  0
 35 73  1  0  0  0  0
 35 77  2  0  0  0  0
 36 63  1  0  0  0  0
 36 68  1  0  0  0  0
 36 78  2  0  0  0  0
 37 64  1  0  0  0  0
 37 74  1  0  0  0  0
 37 79  2  0  0  0  0
 38 69  1  0  0  0  0
 38 72  1  0  0  0  0
 38 80  2  0  0  0  0
 39 42  1  0  0  0  0
 40 49  1  0  0  0  0
 41 68  1  0  0  0  0
 42 44  1  0  0  0  0
 43 45  1  0  0  0  0
 43 46  1  0  0  0  0
 44 48  1  0  0  0  0
 45 50  1  0  0  0  0
 46 69  1  0  0  0  0
 47 50  1  0  0  0  0
 47 69  1  0  0  0  0
 48 73  1  0  0  0  0
 49 68  1  0  0  0  0
 50 67  1  0  0  0  0
 54 64  1  0  0  0  0
 55 65  1  0  0  0  0
 56 65  1  0  0  0  0
 57 65  1  0  0  0  0
 58 75  1  0  0  0  0
 59 60  1  0  0  0  0
 59 61  1  0  0  0  0
 60 62  1  0  0  0  0
 61 82  1  0  0  0  0
 62 83  1  0  0  0  0
 63 65  1  0  0  0  0
 63 74  1  0  0  0  0
 64 75  1  0  0  0  0
 66 67  1  0  0  0  0
M  CHG  1  75   1
M  ISO  4  38 100  61 101  72 100  82 101
M  END
> <Batch ID>
0109

> <Smiles>
CNC(C)C(=O)NC(C(=O)N1Cc2cc([101O:1][101CH2:1]CCCOc3cc(C)c(C)c([100NH:0][100C:0](=O)N4CCCC(n5nc(-c6ccc(Oc7ccc(F)cc7F)cc6)c(C(N)=O)c5N)C4)c3C)ccc2CC1C(=O)NC1CCCc2ccccc21)C(C)(C)C

> <Shape>
0.311

> <Color>
0.094

> <Negative vol penalty>
0.000

$$$$

  -OEChem-04052301233D

 85 93  0     1  0  0  0  0  0999 V2000
  -25.0826  -16.1390   15.2299 C   0  0  0  0  0  0  0  0  0  0  0  0
  -25.5852  -16.2646   16.5210 C   0  0  0  0  0  0  0  0  0  0  0  0
  -23.1025   -9.8605   21.4145 C   0  0  0  0  0  0  0  0  0  0  0  0
  -23.8653  -10.7054   23.5456 C   0  0  0  0  0  0  0  0  0  0  0  0
  -24.2320  -17.1169   14.7160 C   0  0  0  0  0  0  0  0  0  0  0  0
  -25.2384  -17.3689   17.2986 C   0  0  0  0  0  0  0  0  0  0  0  0
  -24.3920  -17.4814   23.3630 C   0  0  0  0  0  0  0  0  0  0  0  0
  -22.3830   -8.8604   22.0685 C   0  0  0  0  0  0  0  0  0  0  0  0
  -23.1457   -9.7053   24.1996 C   0  0  0  0  0  0  0  0  0  0  0  0
  -25.2182  -17.8652   24.4184 C   0  0  0  0  0  0  0  0  0  0  0  0
  -23.0241   -5.8795   23.5271 C   0  0  0  0  0  0  0  0  0  0  0  0
  -23.1110   -4.5829   23.0205 C   0  0  0  0  0  0  0  0  0  0  0  0
  -24.1941  -20.0493   24.4179 C   0  0  0  0  0  0  0  0  0  0  0  0
  -30.1669  -18.9470   24.0128 C   0  0  0  0  0  0  0  0  0  0  0  0
  -29.3240  -19.2188   21.3674 C   0  0  0  0  0  0  0  0  0  0  0  0
  -20.7230   -4.5664   22.6535 C   0  0  0  0  0  0  0  0  0  0  0  0
  -23.8437  -10.7829   22.1530 C   0  0  0  0  0  0  0  0  0  0  0  0
  -24.1331  -13.1022   21.1309 C   0  0  0  0  0  0  0  0  0  0  0  0
  -23.8668  -18.2289   15.4912 C   0  0  0  0  0  0  0  0  0  0  0  0
  -23.4667  -18.3838   22.8190 C   0  0  0  0  0  0  0  0  0  0  0  0
  -24.3832  -18.3633   16.7941 C   0  0  0  0  0  0  0  0  0  0  0  0
  -23.3556  -19.6737   23.3573 C   0  0  0  0  0  0  0  0  0  0  0  0
  -30.6314  -18.0635   23.0386 C   0  0  0  0  0  0  0  0  0  0  0  0
  -30.2100  -18.1994   21.7159 C   0  0  0  0  0  0  0  0  0  0  0  0
  -22.4045   -8.7828   23.4611 C   0  0  0  0  0  0  0  0  0  0  0  0
  -25.1213  -19.1502   24.9441 C   0  0  0  0  0  0  0  0  0  0  0  0
  -21.7868   -6.5196   23.5971 C   0  0  0  0  0  0  0  0  0  0  0  0
  -28.8594  -20.1023   22.3417 C   0  0  0  0  0  0  0  0  0  0  0  0
  -29.2808  -19.9664   23.6644 C   0  0  0  0  0  0  0  0  0  0  0  0
  -21.9604   -3.9263   22.5837 C   0  0  0  0  0  0  0  0  0  0  0  0
  -20.6362   -5.8631   23.1602 C   0  0  0  0  0  0  0  0  0  0  0  0
  -24.5876  -11.8159   21.4780 C   0  0  0  0  0  0  0  0  0  0  0  0
  -25.2090  -13.6915   20.5131 C   0  0  0  0  0  0  0  0  0  0  0  0
  -22.8528  -13.7102   21.3476 C   0  0  0  0  0  0  0  0  0  0  0  0
  -23.0407  -19.7105   19.9621 C   0  0  0  0  0  0  0  0  0  0  0  0
  -20.3368  -20.8644   21.3331 C   0  0  0  0  0  0  0  0  0  0  0  0
  -18.6741  -21.7212   24.1875 C   0  0  0  0  0  0  0  0  0  0  0  0
  -30.6708  -14.8130   20.2750 C   0  0  0  0  0  0  0  0  0  0  0  0
  -22.9823  -19.2840   14.8756 C   0  0  0  0  0  0  0  0  0  0  0  0
  -22.5642  -17.9457   21.6983 C   0  0  0  0  0  0  0  0  0  0  0  0
  -22.3643  -20.6736   22.8224 C   0  0  0  0  0  0  0  0  0  0  0  0
  -22.3646  -20.2337   15.8987 C   0  0  0  0  0  0  0  0  0  0  0  0
  -29.5794  -11.7092   18.9142 C   0  0  0  0  0  0  0  0  0  0  0  0
  -23.4211  -20.7108   16.8901 C   0  0  0  0  0  0  0  0  0  0  0  0
  -28.1489  -11.5637   19.4362 C   0  0  0  0  0  0  0  0  0  0  0  0
  -30.4934  -12.3640   19.9475 C   0  0  0  0  0  0  0  0  0  0  0  0
  -28.5789  -13.5086   20.9954 C   0  0  0  0  0  0  0  0  0  0  0  0
  -24.0103  -19.5342   17.6774 C   0  0  1  0  0  0  0  0  0  0  0  0
  -22.0150  -19.1122   20.8827 C   0  0  1  0  0  0  0  0  0  0  0  0
  -27.6069  -12.9042   19.9677 C   0  0  2  0  0  0  0  0  0  0  0  0
  -31.5803  -16.9808   23.4351 C   0  0  0  0  0  0  0  0  0  0  0  0
  -16.4936  -22.6716   24.9873 C   0  0  0  0  0  0  0  0  0  0  0  0
  -21.2357  -23.6488   20.4676 C   0  0  0  0  0  0  0  0  0  0  0  0
  -19.5727  -24.6090   22.0740 C   0  0  0  0  0  0  0  0  0  0  0  0
  -18.7936  -23.2009   20.1680 C   0  0  0  0  0  0  0  0  0  0  0  0
  -18.0378  -19.2734   25.7245 C   0  0  0  0  0  0  0  0  0  0  0  0
  -27.6137  -21.1639   20.6163 C   0  0  0  0  0  0  0  0  0  0  0  0
  -30.6939  -17.2652   20.6561 C   0  0  0  0  0  0  0  0  0  0  0  0
  -27.6422  -21.0555   26.7124 C   0  0  0  0  0  0  0  0  0  0  0  0
  -26.2821  -20.9077   26.0486 C   0  0  0  0  0  0  0  0  0  1  0  0
  -28.7301  -20.3137   25.9517 C   0  0  0  0  0  0  0  0  0  0  0  0
  -19.9800  -22.1063   22.1138 C   0  0  1  0  0  0  0  0  0  0  0  0
  -17.2701  -21.4033   24.6695 C   0  0  2  0  0  0  0  0  0  0  0  0
  -19.9157  -23.3733   21.2149 C   0  0  0  0  0  0  0  0  0  0  0  0
  -25.8536  -11.5999   21.1110 N   0  0  0  0  0  0  0  0  0  0  0  0
  -26.2037  -12.7585   20.5269 N   0  0  0  0  0  0  0  0  0  0  0  0
  -21.5085  -20.1998   21.7221 N   0  0  0  0  0  0  0  0  0  0  0  0
  -29.9230  -13.6316   20.4096 N   0  0  0  0  0  0  0  0  0  0  0  0
  -25.3917  -14.9115   19.9648 N   0  0  0  0  0  0  0  0  0  0  0  0
  -21.8604  -12.9641   21.9978 N   0  0  0  0  0  0  0  0  0  0  0  0
  -23.0958  -19.1133   18.7172 N   0  0  0  0  0  0  0  0  0  0  0  0
  -18.7352  -21.8056   22.8126 N   0  0  0  0  0  0  0  0  0  0  0  0
  -30.0537  -15.9709   20.7323 N   0  0  0  0  0  0  0  0  0  0  0  0
  -17.3225  -20.5636   25.8996 N   0  3  0  0  0  0  0  0  0  0  0  0
  -22.5912  -14.8745   20.9611 O   0  0  0  0  0  0  0  0  0  0  0  0
  -23.7300  -20.6457   20.3518 O   0  0  0  0  0  0  0  0  0  0  0  0
  -19.5991  -20.4935   20.4166 O   0  0  0  0  0  0  0  0  0  0  0  0
  -19.6210  -21.8826   24.9543 O   0  0  0  0  0  0  0  0  0  0  0  0
  -31.8022  -14.8350   19.7787 O   0  0  0  0  0  0  0  0  0  0  0  0
  -21.7023   -7.8073   24.0996 O   0  0  0  0  0  0  0  0  0  0  0  0
  -27.9948  -21.0942   21.9889 O   0  0  0  0  0  0  0  0  0  0  0  0
  -25.9270  -19.5276   25.9739 O   0  0  0  0  0  0  0  0  0  1  0  0
  -28.8317  -20.8283   24.6309 O   0  0  0  0  0  0  0  0  0  0  0  0
  -22.0442   -2.6817   22.0957 F   0  0  0  0  0  0  0  0  0  0  0  0
  -19.4448   -6.4733   23.2238 F   0  0  0  0  0  0  0  0  0  0  0  0
  1  2  1  0  0  0  0
  1  5  2  0  0  0  0
  2  6  2  0  0  0  0
  3  8  2  0  0  0  0
  3 17  1  0  0  0  0
  4  9  1  0  0  0  0
  4 17  2  0  0  0  0
  5 19  1  0  0  0  0
  6 21  1  0  0  0  0
  7 10  2  0  0  0  0
  7 20  1  0  0  0  0
  8 25  1  0  0  0  0
  9 25  2  0  0  0  0
 10 26  1  0  0  0  0
 11 12  2  0  0  0  0
 11 27  1  0  0  0  0
 12 30  1  0  0  0  0
 13 22  1  0  0  0  0
 13 26  2  0  0  0  0
 14 23  2  0  0  0  0
 14 29  1  0  0  0  0
 15 24  2  0  0  0  0
 15 28  1  0  0  0  0
 16 30  2  0  0  0  0
 16 31  1  0  0  0  0
 17 32  1  0  0  0  0
 18 32  1  0  0  0  0
 18 33  2  0  0  0  0
 18 34  1  0  0  0  0
 19 21  2  0  0  0  0
 19 39  1  0  0  0  0
 20 22  2  0  0  0  0
 20 40  1  0  0  0  0
 21 48  1  0  0  0  0
 22 41  1  0  0  0  0
 23 24  1  0  0  0  0
 23 51  1  0  0  0  0
 24 58  1  0  0  0  0
 25 80  1  0  0  0  0
 26 82  1  0  0  0  0
 27 31  2  0  0  0  0
 27 80  1  0  0  0  0
 28 29  2  0  0  0  0
 28 81  1  0  0  0  0
 29 83  1  0  0  0  0
 30 84  1  0  0  0  0
 31 85  1  0  0  0  0
 32 65  2  0  0  0  0
 33 66  1  0  0  0  0
 33 69  1  0  0  0  0
 34 70  1  0  0  0  0
 34 75  2  0  0  0  0
 35 49  1  0  0  0  0
 35 71  1  0  0  0  0
 35 76  2  0  0  0  0
 36 62  1  0  0  0  0
 36 67  1  0  0  0  0
 36 77  2  0  0  0  0
 37 63  1  0  0  0  0
 37 72  1  0  0  0  0
 37 78  2  0  0  0  0
 38 68  1  0  0  0  0
 38 73  1  0  0  0  0
 38 79  2  0  0  0  0
 39 42  1  0  0  0  0
 40 49  1  0  0  0  0
 41 67  1  0  0  0  0
 42 44  1  0  0  0  0
 43 45  1  0  0  0  0
 43 46  1  0  0  0  0
 44 48  1  0  0  0  0
 45 50  1  0  0  0  0
 46 68  1  0  0  0  0
 47 50  1  0  0  0  0
 47 68  1  0  0  0  0
 48 71  1  0  0  0  0
 49 67  1  0  0  0  0
 50 66  1  0  0  0  0
 52 63  1  0  0  0  0
 53 64  1  0  0  0  0
 54 64  1  0  0  0  0
 55 64  1  0  0  0  0
 56 74  1  0  0  0  0
 57 81  1  0  0  0  0
 58 73  1  0  0  0  0
 59 60  1  0  0  0  0
 59 61  1  0  0  0  0
 60 82  1  0  0  0  0
 61 83  1  0  0  0  0
 62 64  1  0  0  0  0
 62 72  1  0  0  0  0
 63 74  1  0  0  0  0
 65 66  1  0  0  0  0
M  CHG  1  74   1
M  ISO  4  38 100  60 101  73 100  82 101
M  END
> <Batch ID>
0109

> <Smiles>
CNC(C)C(=O)NC(C(=O)N1Cc2cc([101O:1][101CH2:1]CCOc3cc(C)c(C[100NH:0][100C:0](=O)N4CCCC(n5nc(-c6ccc(Oc7ccc(F)cc7F)cc6)c(C(N)=O)c5N)C4)cc3OC)ccc2CC1C(=O)NC1CCCc2ccccc21)C(C)(C)C

> <Shape>
0.171

> <Color>
0.153

> <Negative vol penalty>
0.000

$$$$

  -OEChem-04052301233D

 90 99  0     1  0  0  0  0  0999 V2000
  -19.8828   -9.9831   21.8698 C   0  0  0  0  0  0  0  0  0  0  0  0
  -20.7198  -10.9658   22.3887 C   0  0  0  0  0  0  0  0  0  0  0  0
  -21.7818  -29.8871   21.2303 C   0  0  0  0  0  0  0  0  0  0  0  0
  -22.8238  -28.2201   22.6348 C   0  0  0  0  0  0  0  0  0  0  0  0
  -20.4281   -8.8758   21.2215 C   0  0  0  0  0  0  0  0  0  0  0  0
  -22.1027  -10.8412   22.2604 C   0  0  0  0  0  0  0  0  0  0  0  0
  -24.3179  -15.1627   20.8243 C   0  0  0  0  0  0  0  0  0  0  0  0
  -20.5243  -29.4609   21.6574 C   0  0  0  0  0  0  0  0  0  0  0  0
  -21.5662  -27.7940   23.0620 C   0  0  0  0  0  0  0  0  0  0  0  0
  -24.5038  -16.1386   21.8025 C   0  0  0  0  0  0  0  0  0  0  0  0
  -18.5472  -29.8621   24.3710 C   0  0  0  0  0  0  0  0  0  0  0  0
  -17.6163  -30.8397   24.7221 C   0  0  0  0  0  0  0  0  0  0  0  0
  -26.8088  -15.4640   22.0287 C   0  0  0  0  0  0  0  0  0  0  0  0
  -28.6312  -22.5824   22.4008 C   0  0  0  0  0  0  0  0  0  0  0  0
  -27.1846  -24.1569   23.5256 C   0  0  0  0  0  0  0  0  0  0  0  0
  -16.1198  -30.0308   23.0065 C   0  0  0  0  0  0  0  0  0  0  0  0
  -22.9316  -29.2666   21.7189 C   0  0  0  0  0  0  0  0  0  0  0  0
  -28.8983  -24.9532   22.0202 C   0  0  0  0  0  0  0  0  0  0  0  0
  -24.7889  -30.9903   21.4232 C   0  0  0  0  0  0  0  0  0  0  0  0
  -21.8180   -8.7423   21.0767 C   0  0  0  0  0  0  0  0  0  0  0  0
  -25.3749  -14.3215   20.4481 C   0  0  0  0  0  0  0  0  0  0  0  0
  -22.6672   -9.7304   21.6107 C   0  0  0  0  0  0  0  0  0  0  0  0
  -26.6344  -14.4799   21.0437 C   0  0  0  0  0  0  0  0  0  0  0  0
  -29.2914  -23.6381   21.7721 C   0  0  0  0  0  0  0  0  0  0  0  0
  -27.8448  -25.2126   22.8970 C   0  0  0  0  0  0  0  0  0  0  0  0
  -27.5777  -22.8418   23.2775 C   0  0  0  0  0  0  0  0  0  0  0  0
  -20.4164  -28.4144   22.5733 C   0  0  0  0  0  0  0  0  0  0  0  0
  -25.7486  -16.2874   22.4069 C   0  0  0  0  0  0  0  0  0  0  0  0
  -18.2645  -28.9690   23.3375 C   0  0  0  0  0  0  0  0  0  0  0  0
  -16.4025  -30.9240   24.0399 C   0  0  0  0  0  0  0  0  0  0  0  0
  -17.0508  -29.0533   22.6553 C   0  0  0  0  0  0  0  0  0  0  0  0
  -24.2310  -29.7060   21.2776 C   0  0  0  0  0  0  0  0  0  0  0  0
  -26.0303  -30.8931   20.8437 C   0  0  0  0  0  0  0  0  0  0  0  0
  -25.8683  -19.5810   23.8769 C   0  0  0  0  0  0  0  0  0  0  0  0
  -26.2238  -20.7310   23.2540 C   0  0  0  0  0  0  0  0  0  0  0  0
  -26.2697  -19.4008   25.3125 C   0  0  0  0  0  0  0  0  0  0  0  0
  -29.5902  -26.0573   21.3633 C   0  0  0  0  0  0  0  0  0  0  0  0
  -24.2345  -32.1659   22.0284 C   0  0  0  0  0  0  0  0  0  0  0  0
  -29.6255  -26.1712   19.8871 C   0  0  0  0  0  0  0  0  0  0  0  0
  -25.8943  -11.1873   20.5543 C   0  0  0  0  0  0  0  0  0  0  0  0
  -28.5792  -11.9704   18.9110 C   0  0  0  0  0  0  0  0  0  0  0  0
  -31.0792  -14.5687   19.0358 C   0  0  0  0  0  0  0  0  0  0  0  0
  -22.3628   -7.5042   20.4096 C   0  0  0  0  0  0  0  0  0  0  0  0
  -25.1652  -13.2914   19.3723 C   0  0  0  0  0  0  0  0  0  0  0  0
  -27.8070  -13.6156   20.6609 C   0  0  0  0  0  0  0  0  0  0  0  0
  -27.1608  -20.4405   25.9482 C   0  0  0  0  0  0  0  0  0  0  0  0
  -23.8238   -7.6332   19.9862 C   0  0  0  0  0  0  0  0  0  0  0  0
  -28.4191  -28.5173   17.4587 C   0  0  0  0  0  0  0  0  0  0  0  0
  -24.6560   -8.2320   21.1156 C   0  0  0  0  0  0  0  0  0  0  0  0
  -27.2344  -29.1773   18.1636 C   0  0  0  0  0  0  0  0  0  0  0  0
  -26.9024  -21.8262   25.3830 C   0  0  0  0  0  0  0  0  0  0  0  0
  -28.5543  -27.0493   17.8500 C   0  0  0  0  0  0  0  0  0  0  0  0
  -27.4683  -27.4850   20.0362 C   0  0  0  0  0  0  0  0  0  0  0  0
  -24.1714   -9.6431   21.4697 C   0  0  1  0  0  0  0  0  0  0  0  0
  -26.1742  -12.1488   19.4342 C   0  0  1  0  0  0  0  0  0  0  0  0
  -27.3163  -28.9758   19.6872 C   0  0  2  0  0  0  0  0  0  0  0  0
  -30.4164  -23.3285   20.8387 C   0  0  0  0  0  0  0  0  0  0  0  0
  -27.4017  -26.6108   23.1832 C   0  0  0  0  0  0  0  0  0  0  0  0
  -24.4550  -21.6885   21.8182 C   0  0  0  0  0  0  0  0  0  0  0  0
  -32.5434  -15.5121   17.2293 C   0  0  0  0  0  0  0  0  0  0  0  0
  -30.6178   -9.9250   19.8961 C   0  0  0  0  0  0  0  0  0  0  0  0
  -32.4097  -11.6320   19.5171 C   0  0  0  0  0  0  0  0  0  0  0  0
  -31.0509  -10.8049   17.5955 C   0  0  0  0  0  0  0  0  0  0  0  0
  -30.1458  -17.3279   19.5596 C   0  0  0  0  0  0  0  0  0  0  0  0
  -25.1373  -18.4195   23.2650 C   0  0  0  0  0  0  0  0  0  1  0  0
  -25.7859  -20.9826   21.8241 C   0  0  0  0  0  0  0  0  0  0  0  0
  -29.9896  -12.3543   19.2881 C   0  0  1  0  0  0  0  0  0  0  0  0
  -31.2684  -15.6965   18.0374 C   0  0  2  0  0  0  0  0  0  0  0  0
  -30.9950  -11.1847   19.0913 C   0  0  0  0  0  0  0  0  0  0  0  0
  -25.0507  -28.8554   20.6542 N   0  0  0  0  0  0  0  0  0  0  0  0
  -30.2091  -26.9991   22.0173 N   0  0  0  0  0  0  0  0  0  0  0  0
  -26.1363  -29.6067   20.4030 N   0  0  0  0  0  0  0  0  0  0  0  0
  -26.9062  -21.7680   23.9170 N   0  0  0  0  0  0  0  0  0  0  0  0
  -28.5928  -26.8907   19.3024 N   0  0  0  0  0  0  0  0  0  0  0  0
  -27.5501  -12.6187   19.6085 N   0  0  0  0  0  0  0  0  0  0  0  0
  -27.0306  -31.7834   20.6730 N   0  0  0  0  0  0  0  0  0  0  0  0
  -22.9466  -32.0915   22.5762 N   0  0  0  0  0  0  0  0  0  0  0  0
  -24.6449  -10.6001   20.4928 N   0  0  0  0  0  0  0  0  0  0  0  0
  -30.3069  -13.5512   18.5167 N   0  0  0  0  0  0  0  0  0  0  0  0
  -31.3452  -17.0064   18.7441 N   0  3  0  0  0  0  0  0  0  0  0  0
  -25.9275  -18.4003   25.9422 O   0  0  0  0  0  0  0  0  0  0  0  0
  -24.8562  -33.2548   22.0672 O   0  0  0  0  0  0  0  0  0  0  0  0
  -30.5672  -25.6148   19.3376 O   0  0  0  0  0  0  0  0  0  0  0  0
  -26.7491  -10.9915   21.4103 O   0  0  0  0  0  0  0  0  0  0  0  0
  -28.3971  -11.1315   18.0252 O   0  0  0  0  0  0  0  0  0  0  0  0
  -31.5708  -14.5868   20.1621 O   0  0  0  0  0  0  0  0  0  0  0  0
  -19.1894  -27.9985   22.9905 O   0  0  0  0  0  0  0  0  0  0  0  0
  -25.9327  -17.2387   23.3624 O   0  0  0  0  0  0  0  0  0  1  0  0
  -15.5080  -31.8618   24.3783 F   0  0  0  0  0  0  0  0  0  0  0  0
  -16.7730  -28.1973   21.6624 F   0  0  0  0  0  0  0  0  0  0  0  0
  1  2  1  0  0  0  0
  1  5  2  0  0  0  0
  2  6  2  0  0  0  0
  3  8  2  0  0  0  0
  3 17  1  0  0  0  0
  4  9  1  0  0  0  0
  4 17  2  0  0  0  0
  5 20  1  0  0  0  0
  6 22  1  0  0  0  0
  7 10  2  0  0  0  0
  7 21  1  0  0  0  0
  8 27  1  0  0  0  0
  9 27  2  0  0  0  0
 10 28  1  0  0  0  0
 11 12  2  0  0  0  0
 11 29  1  0  0  0  0
 12 30  1  0  0  0  0
 13 23  1  0  0  0  0
 13 28  2  0  0  0  0
 14 24  2  0  0  0  0
 14 26  1  0  0  0  0
 15 25  1  0  0  0  0
 15 26  2  0  0  0  0
 16 30  2  0  0  0  0
 16 31  1  0  0  0  0
 17 32  1  0  0  0  0
 18 24  1  0  0  0  0
 18 25  2  0  0  0  0
 18 37  1  0  0  0  0
 19 32  1  0  0  0  0
 19 33  2  0  0  0  0
 19 38  1  0  0  0  0
 20 22  2  0  0  0  0
 20 43  1  0  0  0  0
 21 23  2  0  0  0  0
 21 44  1  0  0  0  0
 22 54  1  0  0  0  0
 23 45  1  0  0  0  0
 24 57  1  0  0  0  0
 25 58  1  0  0  0  0
 26 73  1  0  0  0  0
 27 87  1  0  0  0  0
 28 88  1  0  0  0  0
 29 31  2  0  0  0  0
 29 87  1  0  0  0  0
 30 89  1  0  0  0  0
 31 90  1  0  0  0  0
 32 70  2  0  0  0  0
 33 72  1  0  0  0  0
 33 76  1  0  0  0  0
 34 35  2  0  0  0  0
 34 36  1  0  0  0  0
 34 65  1  0  0  0  0
 35 66  1  0  0  0  0
 35 73  1  0  0  0  0
 36 46  1  0  0  0  0
 36 81  2  0  0  0  0
 37 39  1  0  0  0  0
 37 71  2  0  0  0  0
 38 77  1  0  0  0  0
 38 82  2  0  0  0  0
 39 74  1  0  0  0  0
 39 83  2  0  0  0  0
 40 55  1  0  0  0  0
 40 78  1  0  0  0  0
 40 84  2  0  0  0  0
 41 67  1  0  0  0  0
 41 75  1  0  0  0  0
 41 85  2  0  0  0  0
 42 68  1  0  0  0  0
 42 79  1  0  0  0  0
 42 86  2  0  0  0  0
 43 47  1  0  0  0  0
 44 55  1  0  0  0  0
 45 75  1  0  0  0  0
 46 51  1  0  0  0  0
 47 49  1  0  0  0  0
 48 50  1  0  0  0  0
 48 52  1  0  0  0  0
 49 54  1  0  0  0  0
 50 56  1  0  0  0  0
 51 73  1  0  0  0  0
 52 74  1  0  0  0  0
 53 56  1  0  0  0  0
 53 74  1  0  0  0  0
 54 78  1  0  0  0  0
 55 75  1  0  0  0  0
 56 72  1  0  0  0  0
 59 66  1  0  0  0  0
 60 68  1  0  0  0  0
 61 69  1  0  0  0  0
 62 69  1  0  0  0  0
 63 69  1  0  0  0  0
 64 80  1  0  0  0  0
 65 88  1  0  0  0  0
 67 69  1  0  0  0  0
 67 79  1  0  0  0  0
 68 80  1  0  0  0  0
 70 72  1  0  0  0  0
M  CHG  1  80   1
M  ISO  4  37 100  39 100  65 101  88 101
M  END
> <Batch ID>
0109

> <Smiles>
CCC1=C([101CH2:1][101O:1]c2ccc3c(c2)CN(C(=O)C(NC(=O)C(C)NC)C(C)(C)C)C(C(=O)NC2CCCc4ccccc42)C3)C(=O)CCN1c1cc(C)c([100C:0](=N)[100C:0](=O)N2CCCC(n3nc(-c4ccc(Oc5ccc(F)cc5F)cc4)c(C(N)=O)c3N)C2)c(C)c1

> <Shape>
0.297

> <Color>
0.074

> <Negative vol penalty>
0.000

$$$$

  -OEChem-04052301233D

 86 95  0     1  0  0  0  0  0999 V2000
  -25.1024  -35.7893   23.5070 C   0  0  0  0  0  0  0  0  0  0  0  0
  -25.8803  -34.7070   23.1083 C   0  0  0  0  0  0  0  0  0  0  0  0
  -23.4785  -10.1939   22.2081 C   0  0  0  0  0  0  0  0  0  0  0  0
  -24.9620  -11.0448   23.9146 C   0  0  0  0  0  0  0  0  0  0  0  0
  -23.8649  -35.5718   24.1114 C   0  0  0  0  0  0  0  0  0  0  0  0
  -25.4216  -33.4065   23.3147 C   0  0  0  0  0  0  0  0  0  0  0  0
  -26.3539  -28.5559   19.6941 C   0  0  0  0  0  0  0  0  0  0  0  0
  -32.0308  -18.2557   21.2502 C   0  0  0  0  0  0  0  0  0  0  0  0
  -31.7461  -19.5570   20.8366 C   0  0  0  0  0  0  0  0  0  0  0  0
  -23.0235   -9.2151   23.0916 C   0  0  0  0  0  0  0  0  0  0  0  0
  -24.5070  -10.0661   24.7982 C   0  0  0  0  0  0  0  0  0  0  0  0
  -27.2689  -27.5055   19.7504 C   0  0  0  0  0  0  0  0  0  0  0  0
  -20.8746   -9.0138   25.6943 C   0  0  0  0  0  0  0  0  0  0  0  0
  -19.4990   -8.7937   25.7655 C   0  0  0  0  0  0  0  0  0  0  0  0
  -25.6190  -26.1353   20.8548 C   0  0  0  0  0  0  0  0  0  0  0  0
  -30.0473  -18.2602   22.6297 C   0  0  0  0  0  0  0  0  0  0  0  0
  -19.8309   -6.4993   25.0855 C   0  0  0  0  0  0  0  0  0  0  0  0
  -24.4478  -11.1087   22.6195 C   0  0  0  0  0  0  0  0  0  0  0  0
  -24.1537  -13.1206   21.0790 C   0  0  0  0  0  0  0  0  0  0  0  0
  -23.3865  -34.2680   24.3165 C   0  0  0  0  0  0  0  0  0  0  0  0
  -25.0659  -28.4072   20.2285 C   0  0  0  0  0  0  0  0  0  0  0  0
  -24.1772  -33.1713   23.9236 C   0  0  0  0  0  0  0  0  0  0  0  0
  -24.6887  -27.1845   20.8018 C   0  0  0  0  0  0  0  0  0  0  0  0
  -31.1814  -17.6073   22.1467 C   0  0  0  0  0  0  0  0  0  0  0  0
  -29.7626  -19.5616   22.2161 C   0  0  0  0  0  0  0  0  0  0  0  0
  -30.6120  -20.2100   21.3195 C   0  0  0  0  0  0  0  0  0  0  0  0
  -23.5377   -9.1512   24.3866 C   0  0  0  0  0  0  0  0  0  0  0  0
  -26.9025  -26.2959   20.3334 C   0  0  0  0  0  0  0  0  0  0  0  0
  -21.7283   -7.9766   25.3186 C   0  0  0  0  0  0  0  0  0  0  0  0
  -18.9772   -7.5365   25.4611 C   0  0  0  0  0  0  0  0  0  0  0  0
  -21.2065   -6.7194   25.0142 C   0  0  0  0  0  0  0  0  0  0  0  0
  -24.9187  -12.1196   21.7071 C   0  0  0  0  0  0  0  0  0  0  0  0
  -25.0598  -13.8190   20.3189 C   0  0  0  0  0  0  0  0  0  0  0  0
  -22.7496  -13.3947   21.1741 C   0  0  0  0  0  0  0  0  0  0  0  0
  -23.4249  -29.8232   22.5536 C   0  0  0  0  0  0  0  0  0  0  0  0
  -21.0015  -27.9797   21.4349 C   0  0  0  0  0  0  0  0  0  0  0  0
  -18.9954  -25.6153   20.0095 C   0  0  0  0  0  0  0  0  0  0  0  0
  -30.9767  -14.6295   20.7494 C   0  0  0  0  0  0  0  0  0  0  0  0
  -22.0638  -34.0820   25.0168 C   0  0  0  0  0  0  0  0  0  0  0  0
  -24.0818  -29.5410   20.1360 C   0  0  0  0  0  0  0  0  0  0  0  0
  -23.3115  -26.9672   21.3716 C   0  0  0  0  0  0  0  0  0  0  0  0
  -21.4834  -32.6788   24.8595 C   0  0  0  0  0  0  0  0  0  0  0  0
  -29.1979  -13.2698   17.9810 C   0  0  0  0  0  0  0  0  0  0  0  0
  -22.5559  -31.6255   25.1184 C   0  0  0  0  0  0  0  0  0  0  0  0
  -27.8305  -12.9111   18.5654 C   0  0  0  0  0  0  0  0  0  0  0  0
  -30.0969  -23.8964   21.4910 C   0  0  0  0  0  0  0  0  0  0  0  0
  -29.3156  -23.0578   19.2664 C   0  0  0  0  0  0  0  0  0  0  0  0
  -30.3229  -13.0203   18.9831 C   0  0  0  0  0  0  0  0  0  0  0  0
  -30.9069  -22.6164   21.6860 C   0  0  0  0  0  0  0  0  0  0  0  0
  -30.1229  -21.7759   19.4670 C   0  0  0  0  0  0  0  0  0  0  0  0
  -28.7740  -13.3148   20.8774 C   0  0  0  0  0  0  0  0  0  0  0  0
  -23.7030  -31.7461   24.1079 C   0  0  1  0  0  0  0  0  0  0  0  0
  -22.9661  -29.4498   21.1723 C   0  0  1  0  0  0  0  0  0  0  0  0
  -29.9362  -24.2437   20.0087 C   0  0  0  0  0  0  0  0  0  0  0  0
  -27.6022  -13.6021   19.9232 C   0  0  2  0  0  0  0  0  0  0  0  0
  -28.5413  -20.2373   22.7492 C   0  0  0  0  0  0  0  0  0  0  0  0
  -16.6884  -24.6392   20.1592 C   0  0  0  0  0  0  0  0  0  0  0  0
  -21.8165  -26.4444   23.9426 C   0  0  0  0  0  0  0  0  0  0  0  0
  -19.9366  -24.8527   23.4946 C   0  0  0  0  0  0  0  0  0  0  0  0
  -19.4519  -27.2587   23.9404 C   0  0  0  0  0  0  0  0  0  0  0  0
  -18.3491  -26.4200   17.2357 C   0  0  0  0  0  0  0  0  0  0  0  0
  -31.4861  -16.2159   22.5887 C   0  0  0  0  0  0  0  0  0  0  0  0
  -29.0872  -25.5005   19.8331 C   0  0  0  0  0  0  0  0  0  1  0  0
  -20.4888  -26.5915   21.7332 C   0  0  1  0  0  0  0  0  0  0  0  0
  -17.5700  -25.6831   19.4915 C   0  0  2  0  0  0  0  0  0  0  0  0
  -20.4436  -26.2913   23.2581 C   0  0  0  0  0  0  0  0  0  0  0  0
  -26.2112  -12.1737   21.3748 N   0  0  0  0  0  0  0  0  0  0  0  0
  -26.2654  -13.2170   20.5295 N   0  0  0  0  0  0  0  0  0  0  0  0
  -30.3419  -21.5166   20.8933 N   0  0  0  0  0  0  0  0  0  0  0  0
  -22.3871  -28.1078   21.2629 N   0  0  0  0  0  0  0  0  0  0  0  0
  -30.0460  -13.7042   20.2487 N   0  0  0  0  0  0  0  0  0  0  0  0
  -24.9350  -14.8830   19.4976 N   0  0  0  0  0  0  0  0  0  0  0  0
  -21.9642  -12.5795   22.0005 N   0  0  0  0  0  0  0  0  0  0  0  0
  -23.3188  -31.1716   22.8363 N   0  0  0  0  0  0  0  0  0  0  0  0
  -19.1973  -26.4807   21.0638 N   0  0  0  0  0  0  0  0  0  0  0  0
  -30.6338  -15.2373   21.9509 N   0  0  0  0  0  0  0  0  0  0  0  0
  -17.5421  -25.4501   18.0199 N   0  3  0  0  0  0  0  0  0  0  0  0
  -22.2047  -14.3244   20.5321 O   0  0  0  0  0  0  0  0  0  0  0  0
  -23.8428  -28.9521   23.3075 O   0  0  0  0  0  0  0  0  0  0  0  0
  -20.2013  -28.9147   21.3504 O   0  0  0  0  0  0  0  0  0  0  0  0
  -19.8437  -24.8667   19.5295 O   0  0  0  0  0  0  0  0  0  0  0  0
  -32.0323  -14.8983   20.1659 O   0  0  0  0  0  0  0  0  0  0  0  0
  -23.0938   -8.1965   25.2491 O   0  0  0  0  0  0  0  0  0  0  0  0
  -27.7939  -25.2693   20.3902 O   0  0  0  0  0  0  0  0  0  1  0  0
  -17.6564   -7.3249   25.5311 F   0  0  0  0  0  0  0  0  0  0  0  0
  -22.0218   -5.7188   24.6538 F   0  0  0  0  0  0  0  0  0  0  0  0
  1  2  1  0  0  0  0
  1  5  2  0  0  0  0
  2  6  2  0  0  0  0
  3 10  2  0  0  0  0
  3 18  1  0  0  0  0
  4 11  1  0  0  0  0
  4 18  2  0  0  0  0
  5 20  1  0  0  0  0
  6 22  1  0  0  0  0
  7 12  2  0  0  0  0
  7 21  1  0  0  0  0
  8  9  2  0  0  0  0
  8 24  1  0  0  0  0
  9 26  1  0  0  0  0
 10 27  1  0  0  0  0
 11 27  2  0  0  0  0
 12 28  1  0  0  0  0
 13 14  2  0  0  0  0
 13 29  1  0  0  0  0
 14 30  1  0  0  0  0
 15 23  1  0  0  0  0
 15 28  2  0  0  0  0
 16 24  2  0  0  0  0
 16 25  1  0  0  0  0
 17 30  2  0  0  0  0
 17 31  1  0  0  0  0
 18 32  1  0  0  0  0
 19 32  1  0  0  0  0
 19 33  2  0  0  0  0
 19 34  1  0  0  0  0
 20 22  2  0  0  0  0
 20 39  1  0  0  0  0
 21 23  2  0  0  0  0
 21 40  1  0  0  0  0
 22 52  1  0  0  0  0
 23 41  1  0  0  0  0
 24 62  1  0  0  0  0
 25 26  2  0  0  0  0
 25 56  1  0  0  0  0
 26 69  1  0  0  0  0
 27 83  1  0  0  0  0
 28 84  1  0  0  0  0
 29 31  2  0  0  0  0
 29 83  1  0  0  0  0
 30 85  1  0  0  0  0
 31 86  1  0  0  0  0
 32 67  2  0  0  0  0
 33 68  1  0  0  0  0
 33 72  1  0  0  0  0
 34 73  1  0  0  0  0
 34 78  2  0  0  0  0
 35 53  1  0  0  0  0
 35 74  1  0  0  0  0
 35 79  2  0  0  0  0
 36 64  1  0  0  0  0
 36 70  1  0  0  0  0
 36 80  2  0  0  0  0
 37 65  1  0  0  0  0
 37 75  1  0  0  0  0
 37 81  2  0  0  0  0
 38 71  1  0  0  0  0
 38 76  1  0  0  0  0
 38 82  2  0  0  0  0
 39 42  1  0  0  0  0
 40 53  1  0  0  0  0
 41 70  1  0  0  0  0
 42 44  1  0  0  0  0
 43 45  1  0  0  0  0
 43 48  1  0  0  0  0
 44 52  1  0  0  0  0
 45 55  1  0  0  0  0
 46 49  1  0  0  0  0
 46 54  1  0  0  0  0
 47 50  1  0  0  0  0
 47 54  1  0  0  0  0
 48 71  1  0  0  0  0
 49 69  1  0  0  0  0
 50 69  1  0  0  0  0
 51 55  1  0  0  0  0
 51 71  1  0  0  0  0
 52 74  1  0  0  0  0
 53 70  1  0  0  0  0
 54 63  1  0  0  0  0
 55 68  1  0  0  0  0
 57 65  1  0  0  0  0
 58 66  1  0  0  0  0
 59 66  1  0  0  0  0
 60 66  1  0  0  0  0
 61 77  1  0  0  0  0
 62 76  1  0  0  0  0
 63 84  1  0  0  0  0
 64 66  1  0  0  0  0
 64 75  1  0  0  0  0
 65 77  1  0  0  0  0
 67 68  1  0  0  0  0
M  CHG  1  77   1
M  ISO  4  38 100  63 101  76 100  84 101
M  END
> <Batch ID>
0109

> <Smiles>
CNC(C)C(=O)NC(C(=O)N1Cc2cc([101O:1][101CH2:1]C3CCN(c4ccc(C[100NH:0][100C:0](=O)N5CCCC(n6nc(-c7ccc(Oc8ccc(F)cc8F)cc7)c(C(N)=O)c6N)C5)cc4C)CC3)ccc2CC1C(=O)NC1CCCc2ccccc21)C(C)(C)C

> <Shape>
0.317

> <Color>
0.138

> <Negative vol penalty>
0.000

$$$$

  -OEChem-04052301233D

 86 94  0     1  0  0  0  0  0999 V2000
  -21.7702  -29.6778   24.5986 C   0  0  0  0  0  0  0  0  0  0  0  0
  -22.2682  -28.4164   24.9086 C   0  0  0  0  0  0  0  0  0  0  0  0
  -27.7635  -23.1959   20.4288 C   0  0  0  0  0  0  0  0  0  0  0  0
  -29.3667  -23.4896   18.6454 C   0  0  0  0  0  0  0  0  0  0  0  0
  -20.7087  -29.8064   23.7038 C   0  0  0  0  0  0  0  0  0  0  0  0
  -21.7042  -27.2826   24.3247 C   0  0  0  0  0  0  0  0  0  0  0  0
  -23.4607  -20.7351   22.0090 C   0  0  0  0  0  0  0  0  0  0  0  0
  -27.6974  -24.5790   20.5972 C   0  0  0  0  0  0  0  0  0  0  0  0
  -29.3007  -24.8727   18.8138 C   0  0  0  0  0  0  0  0  0  0  0  0
  -23.0757  -19.4028   22.1522 C   0  0  0  0  0  0  0  0  0  0  0  0
  -26.2028  -27.2046   19.0789 C   0  0  0  0  0  0  0  0  0  0  0  0
  -24.9404  -27.7808   19.2199 C   0  0  0  0  0  0  0  0  0  0  0  0
  -25.7727  -14.0324   21.7037 C   0  0  0  0  0  0  0  0  0  0  0  0
  -21.2976  -19.7518   20.5598 C   0  0  0  0  0  0  0  0  0  0  0  0
  -24.0932  -13.2312   20.1628 C   0  0  0  0  0  0  0  0  0  0  0  0
  -25.5694  -28.6263   21.3941 C   0  0  0  0  0  0  0  0  0  0  0  0
  -28.5982  -22.6512   19.4530 C   0  0  0  0  0  0  0  0  0  0  0  0
  -26.7568  -13.3559   20.9829 C   0  0  0  0  0  0  0  0  0  0  0  0
  -27.8702  -20.4298   18.4316 C   0  0  0  0  0  0  0  0  0  0  0  0
  -20.1378  -28.6743   23.1013 C   0  0  0  0  0  0  0  0  0  0  0  0
  -22.7590  -21.5901   21.1470 C   0  0  0  0  0  0  0  0  0  0  0  0
  -20.6332  -27.3961   23.4220 C   0  0  0  0  0  0  0  0  0  0  0  0
  -21.6772  -21.0939   20.4056 C   0  0  0  0  0  0  0  0  0  0  0  0
  -25.0773  -12.5547   19.4420 C   0  0  0  0  0  0  0  0  0  0  0  0
  -26.4091  -12.6171   19.8521 C   0  0  0  0  0  0  0  0  0  0  0  0
  -24.4409  -13.9700   21.2937 C   0  0  0  0  0  0  0  0  0  0  0  0
  -28.4660  -25.4174   19.7897 C   0  0  0  0  0  0  0  0  0  0  0  0
  -21.9922  -18.9117   21.4297 C   0  0  0  0  0  0  0  0  0  0  0  0
  -27.1485  -27.3391   20.0954 C   0  0  0  0  0  0  0  0  0  0  0  0
  -24.6237  -28.4917   20.3775 C   0  0  0  0  0  0  0  0  0  0  0  0
  -26.8318  -28.0500   21.2530 C   0  0  0  0  0  0  0  0  0  0  0  0
  -28.6673  -21.2226   19.2790 C   0  0  0  0  0  0  0  0  0  0  0  0
  -28.3264  -19.1496   18.6298 C   0  0  0  0  0  0  0  0  0  0  0  0
  -28.1664  -13.4409   21.4440 C   0  0  0  0  0  0  0  0  0  0  0  0
  -26.8121  -20.8162   17.5446 C   0  0  0  0  0  0  0  0  0  0  0  0
  -21.0762  -24.2612   21.5169 C   0  0  0  0  0  0  0  0  0  0  0  0
  -20.9923  -24.1954   18.2748 C   0  0  0  0  0  0  0  0  0  0  0  0
  -22.0765  -14.7026   21.7594 C   0  0  0  0  0  0  0  0  0  0  0  0
  -21.1885  -22.3537   15.4084 C   0  0  0  0  0  0  0  0  0  0  0  0
  -30.0011  -15.0281   21.9324 C   0  0  0  0  0  0  0  0  0  0  0  0
  -18.9609  -28.8599   22.1764 C   0  0  0  0  0  0  0  0  0  0  0  0
  -23.2035  -23.0177   20.9836 C   0  0  0  0  0  0  0  0  0  0  0  0
  -20.9034  -21.9654   19.4516 C   0  0  0  0  0  0  0  0  0  0  0  0
  -18.6649  -27.6356   21.3141 C   0  0  0  0  0  0  0  0  0  0  0  0
  -32.4266  -17.4512   21.0706 C   0  0  0  0  0  0  0  0  0  0  0  0
  -18.6832  -26.3680   22.1625 C   0  0  0  0  0  0  0  0  0  0  0  0
  -31.6024  -18.5823   20.4498 C   0  0  0  0  0  0  0  0  0  0  0  0
  -31.7027  -16.8028   22.2498 C   0  0  0  0  0  0  0  0  0  0  0  0
  -29.5142  -17.4824   21.3518 C   0  0  0  0  0  0  0  0  0  0  0  0
  -20.0643  -26.1442   22.7902 C   0  0  1  0  0  0  0  0  0  0  0  0
  -22.0978  -23.9322   20.4653 C   0  0  1  0  0  0  0  0  0  0  0  0
  -30.1694  -18.1208   20.1164 C   0  0  1  0  0  0  0  0  0  0  0  0
  -24.6791  -11.7706   18.2345 C   0  0  0  0  0  0  0  0  0  0  0  0
  -27.4626  -11.8895   19.0774 C   0  0  0  0  0  0  0  0  0  0  0  0
  -21.0434  -22.5722   12.9127 C   0  0  0  0  0  0  0  0  0  0  0  0
  -17.9559  -24.4202   18.4736 C   0  0  0  0  0  0  0  0  0  0  0  0
  -17.8149  -23.6862   16.0841 C   0  0  0  0  0  0  0  0  0  0  0  0
  -18.9888  -25.8084   16.6679 C   0  0  0  0  0  0  0  0  0  0  0  0
  -23.9650  -21.3947   15.0467 C   0  0  0  0  0  0  0  0  0  0  0  0
  -21.3599  -15.5585   22.7976 C   0  0  0  0  0  0  0  0  0  0  0  0
  -21.8559  -16.9960   22.8325 C   0  0  0  0  0  0  0  0  0  1  0  0
  -20.0697  -23.5959   17.2412 C   0  0  1  0  0  0  0  0  0  0  0  0
  -21.9651  -22.5715   14.1223 C   0  0  2  0  0  0  0  0  0  0  0  0
  -18.7205  -24.3615   17.1360 C   0  0  0  0  0  0  0  0  0  0  0  0
  -29.5619  -20.5058   19.9645 N   0  0  0  0  0  0  0  0  0  0  0  0
  -29.3297  -19.2493   19.5483 N   0  0  0  0  0  0  0  0  0  0  0  0
  -21.3727  -23.3556   19.3313 N   0  0  0  0  0  0  0  0  0  0  0  0
  -30.3578  -16.3854   21.8494 N   0  0  0  0  0  0  0  0  0  0  0  0
  -27.9631  -17.9594   18.1063 N   0  0  0  0  0  0  0  0  0  0  0  0
  -26.4711  -22.1732   17.4625 N   0  0  0  0  0  0  0  0  0  0  0  0
  -23.4426  -14.6569   22.0247 N   0  0  0  0  0  0  0  0  0  0  0  0
  -28.7097  -14.7252   21.4866 N   0  0  0  0  0  0  0  0  0  0  0  0
  -20.9842  -25.6085   21.8098 N   0  0  0  0  0  0  0  0  0  0  0  0
  -20.8281  -23.5479   15.9959 N   0  0  0  0  0  0  0  0  0  0  0  0
  -22.9785  -21.4941   13.9403 N   0  3  0  0  0  0  0  0  0  0  0  0
  -28.7456  -12.4147   21.7894 O   0  0  0  0  0  0  0  0  0  0  0  0
  -26.1765  -19.9809   16.8578 O   0  0  0  0  0  0  0  0  0  0  0  0
  -20.4191  -23.3597   22.0239 O   0  0  0  0  0  0  0  0  0  0  0  0
  -21.3676  -25.3633   18.1457 O   0  0  0  0  0  0  0  0  0  0  0  0
  -21.4783  -14.1553   20.8392 O   0  0  0  0  0  0  0  0  0  0  0  0
  -20.9247  -21.2359   15.8460 O   0  0  0  0  0  0  0  0  0  0  0  0
  -30.7779  -14.1555   22.3326 O   0  0  0  0  0  0  0  0  0  0  0  0
  -28.4016  -26.7670   19.9535 O   0  0  0  0  0  0  0  0  0  0  0  0
  -21.6140  -17.6118   21.5681 O   0  0  0  0  0  0  0  0  0  1  0  0
  -23.4119  -29.0464   20.5122 F   0  0  0  0  0  0  0  0  0  0  0  0
  -27.7365  -28.1836   22.2325 F   0  0  0  0  0  0  0  0  0  0  0  0
  1  2  1  0  0  0  0
  1  5  2  0  0  0  0
  2  6  2  0  0  0  0
  3  8  2  0  0  0  0
  3 17  1  0  0  0  0
  4  9  1  0  0  0  0
  4 17  2  0  0  0  0
  5 20  1  0  0  0  0
  6 22  1  0  0  0  0
  7 10  2  0  0  0  0
  7 21  1  0  0  0  0
  8 27  1  0  0  0  0
  9 27  2  0  0  0  0
 10 28  1  0  0  0  0
 11 12  2  0  0  0  0
 11 29  1  0  0  0  0
 12 30  1  0  0  0  0
 13 18  1  0  0  0  0
 13 26  2  0  0  0  0
 14 23  1  0  0  0  0
 14 28  2  0  0  0  0
 15 24  2  0  0  0  0
 15 26  1  0  0  0  0
 16 30  2  0  0  0  0
 16 31  1  0  0  0  0
 17 32  1  0  0  0  0
 18 25  2  0  0  0  0
 18 34  1  0  0  0  0
 19 32  1  0  0  0  0
 19 33  2  0  0  0  0
 19 35  1  0  0  0  0
 20 22  2  0  0  0  0
 20 41  1  0  0  0  0
 21 23  2  0  0  0  0
 21 42  1  0  0  0  0
 22 50  1  0  0  0  0
 23 43  1  0  0  0  0
 24 25  1  0  0  0  0
 24 53  1  0  0  0  0
 25 54  1  0  0  0  0
 26 71  1  0  0  0  0
 27 83  1  0  0  0  0
 28 84  1  0  0  0  0
 29 31  2  0  0  0  0
 29 83  1  0  0  0  0
 30 85  1  0  0  0  0
 31 86  1  0  0  0  0
 32 65  2  0  0  0  0
 33 66  1  0  0  0  0
 33 69  1  0  0  0  0
 34 72  1  0  0  0  0
 34 76  2  0  0  0  0
 35 70  1  0  0  0  0
 35 77  2  0  0  0  0
 36 51  1  0  0  0  0
 36 73  1  0  0  0  0
 36 78  2  0  0  0  0
 37 62  1  0  0  0  0
 37 67  1  0  0  0  0
 37 79  2  0  0  0  0
 38 60  1  0  0  0  0
 38 71  1  0  0  0  0
 38 80  2  0  0  0  0
 39 63  1  0  0  0  0
 39 74  1  0  0  0  0
 39 81  2  0  0  0  0
 40 68  1  0  0  0  0
 40 72  1  0  0  0  0
 40 82  2  0  0  0  0
 41 44  1  0  0  0  0
 42 51  1  0  0  0  0
 43 67  1  0  0  0  0
 44 46  1  0  0  0  0
 45 47  1  0  0  0  0
 45 48  1  0  0  0  0
 46 50  1  0  0  0  0
 47 52  1  0  0  0  0
 48 68  1  0  0  0  0
 49 52  1  0  0  0  0
 49 68  1  0  0  0  0
 50 73  1  0  0  0  0
 51 67  1  0  0  0  0
 52 66  1  0  0  0  0
 55 63  1  0  0  0  0
 56 64  1  0  0  0  0
 57 64  1  0  0  0  0
 58 64  1  0  0  0  0
 59 75  1  0  0  0  0
 60 61  1  0  0  0  0
 61 84  1  0  0  0  0
 62 64  1  0  0  0  0
 62 74  1  0  0  0  0
 63 75  1  0  0  0  0
 65 66  1  0  0  0  0
M  CHG  1  75   1
M  ISO  4  40 100  61 101  72 100  84 101
M  END
> <Batch ID>
0109

> <Smiles>
CNC(C)C(=O)NC(C(=O)N1Cc2cc([101O:1][101CH2:1]CC(=O)Nc3cc(C)c(C)c(C(=O)[100NH:0][100C:0](=O)N4CCCC(n5nc(-c6ccc(Oc7ccc(F)cc7F)cc6)c(C(N)=O)c5N)C4)c3)ccc2CC1C(=O)NC1CCCc2ccccc21)C(C)(C)C

> <Shape>
0.237

> <Color>
0.091

> <Negative vol penalty>
0.000

$$$$

  -OEChem-04052301233D

 92102  0     1  0  0  0  0  0999 V2000
  -23.7079  -30.2613   25.0220 C   0  0  0  0  0  0  0  0  0  0  0  0
  -22.8428  -29.2667   24.5773 C   0  0  0  0  0  0  0  0  0  0  0  0
  -23.1455  -10.2584   22.0927 C   0  0  0  0  0  0  0  0  0  0  0  0
  -23.7013   -9.4325   19.8914 C   0  0  0  0  0  0  0  0  0  0  0  0
  -24.5346  -30.9216   24.1140 C   0  0  0  0  0  0  0  0  0  0  0  0
  -22.8032  -28.9325   23.2241 C   0  0  0  0  0  0  0  0  0  0  0  0
  -24.1993  -22.2181   21.0198 C   0  0  0  0  0  0  0  0  0  0  0  0
  -27.0625  -14.5298   17.5018 C   0  0  0  0  0  0  0  0  0  0  0  0
  -26.8439  -14.2056   15.1176 C   0  0  0  0  0  0  0  0  0  0  0  0
  -28.1515  -13.6584   17.5205 C   0  0  0  0  0  0  0  0  0  0  0  0
  -27.9330  -13.3343   15.1363 C   0  0  0  0  0  0  0  0  0  0  0  0
  -22.3701   -9.1221   22.3233 C   0  0  0  0  0  0  0  0  0  0  0  0
  -22.9259   -8.2961   20.1220 C   0  0  0  0  0  0  0  0  0  0  0  0
  -24.2472  -20.9100   20.5374 C   0  0  0  0  0  0  0  0  0  0  0  0
  -22.8794   -5.8893   23.1732 C   0  0  0  0  0  0  0  0  0  0  0  0
  -23.0173   -5.2494   24.4049 C   0  0  0  0  0  0  0  0  0  0  0  0
  -23.9891  -21.7235   18.2748 C   0  0  0  0  0  0  0  0  0  0  0  0
  -20.6752   -5.6260   24.8627 C   0  0  0  0  0  0  0  0  0  0  0  0
  -23.8111  -10.4136   20.8767 C   0  0  0  0  0  0  0  0  0  0  0  0
  -24.1787  -12.9269   20.6409 C   0  0  0  0  0  0  0  0  0  0  0  0
  -24.5120  -30.5887   22.7504 C   0  0  0  0  0  0  0  0  0  0  0  0
  -24.0614  -23.2863   20.1290 C   0  0  0  0  0  0  0  0  0  0  0  0
  -23.6294  -29.5900   22.2968 C   0  0  0  0  0  0  0  0  0  0  0  0
  -23.9530  -23.0368   18.7510 C   0  0  0  0  0  0  0  0  0  0  0  0
  -26.4086  -14.8033   16.3004 C   0  0  0  0  0  0  0  0  0  0  0  0
  -28.5868  -13.0607   16.3378 C   0  0  0  0  0  0  0  0  0  0  0  0
  -22.2603   -8.1410   21.3380 C   0  0  0  0  0  0  0  0  0  0  0  0
  -24.1421  -20.6633   19.1683 C   0  0  0  0  0  0  0  0  0  0  0  0
  -21.6394   -6.3976   22.7862 C   0  0  0  0  0  0  0  0  0  0  0  0
  -21.9152   -5.1177   25.2496 C   0  0  0  0  0  0  0  0  0  0  0  0
  -20.5373   -6.2659   23.6310 C   0  0  0  0  0  0  0  0  0  0  0  0
  -24.6117  -11.5874   20.6377 C   0  0  0  0  0  0  0  0  0  0  0  0
  -25.3102  -13.6542   20.3628 C   0  0  0  0  0  0  0  0  0  0  0  0
  -24.1995  -17.7394   16.9542 C   0  0  0  0  0  0  0  0  0  0  0  0
  -25.3294  -17.0412   16.6786 C   0  0  0  0  0  0  0  0  0  0  0  0
  -22.8888  -17.0006   16.9249 C   0  0  0  0  0  0  0  0  0  0  0  0
  -26.8580  -18.6042   17.6868 C   0  0  0  0  0  0  0  0  0  0  0  0
  -26.6200  -17.7139   16.7185 C   0  0  0  0  0  0  0  0  0  0  0  0
  -22.8707  -13.4656   20.8745 C   0  0  0  0  0  0  0  0  0  0  0  0
  -23.8140  -27.0012   19.6667 C   0  0  0  0  0  0  0  0  0  0  0  0
  -25.5891  -25.9378   17.4021 C   0  0  0  0  0  0  0  0  0  0  0  0
  -27.8287  -24.4246   15.3208 C   0  0  0  0  0  0  0  0  0  0  0  0
  -30.4225  -11.8352   17.5292 C   0  0  0  0  0  0  0  0  0  0  0  0
  -25.3901  -31.3629   21.7995 C   0  0  0  0  0  0  0  0  0  0  0  0
  -23.9433  -24.7073   20.6090 C   0  0  0  0  0  0  0  0  0  0  0  0
  -23.7711  -24.2145   17.8329 C   0  0  0  0  0  0  0  0  0  0  0  0
  -22.8988  -15.5143   16.6616 C   0  0  0  0  0  0  0  0  0  0  0  0
  -25.5569  -30.6899   20.4395 C   0  0  0  0  0  0  0  0  0  0  0  0
  -29.9532  -11.2178   12.7929 C   0  0  0  0  0  0  0  0  0  0  0  0
  -30.9090  -12.4103   12.8703 C   0  0  0  0  0  0  0  0  0  0  0  0
  -30.0688  -13.5338   20.7976 C   0  0  0  0  0  0  0  0  0  0  0  0
  -24.2067  -30.2215   19.9064 C   0  0  0  0  0  0  0  0  0  0  0  0
  -28.6101  -13.2655   21.1633 C   0  0  0  0  0  0  0  0  0  0  0  0
  -29.2903  -11.1167   14.1635 C   0  0  0  0  0  0  0  0  0  0  0  0
  -30.7757  -12.9688   14.2842 C   0  0  0  0  0  0  0  0  0  0  0  0
  -24.0541  -15.1088   15.7642 C   0  0  0  0  0  0  0  0  0  0  0  0
  -30.6458  -12.4264   19.9210 C   0  0  0  0  0  0  0  0  0  0  0  0
  -28.3863  -11.9007   19.0494 C   0  0  0  0  0  0  0  0  0  0  0  0
  -23.5753  -29.1821   20.8405 C   0  0  1  0  0  0  0  0  0  0  0  0
  -24.5992  -25.7227   19.6561 C   0  0  1  0  0  0  0  0  0  0  0  0
  -27.7698  -13.0221   19.8988 C   0  0  1  0  0  0  0  0  0  0  0  0
  -30.2904  -11.7789   15.1008 C   0  0  0  0  0  0  0  0  0  0  0  0
  -29.3900  -24.9124   13.4177 C   0  0  0  0  0  0  0  0  0  0  0  0
  -23.2125  -26.0905   15.4963 C   0  0  0  0  0  0  0  0  0  0  0  0
  -24.7873  -25.6200   13.6078 C   0  0  0  0  0  0  0  0  0  0  0  0
  -25.0688  -27.6845   14.9793 C   0  0  0  0  0  0  0  0  0  0  0  0
  -30.1885  -23.5565   16.8818 C   0  0  0  0  0  0  0  0  0  0  0  0
  -24.0807  -19.2013   17.2932 C   0  0  0  0  0  0  0  0  0  1  0  0
  -25.6638  -25.4406   15.9806 C   0  0  1  0  0  0  0  0  0  0  0  0
  -29.2474  -24.7944   14.9272 C   0  0  2  0  0  0  0  0  0  0  0  0
  -24.6810  -26.1909   15.0380 C   0  0  0  0  0  0  0  0  0  0  0  0
  -25.9164  -11.4679   20.3779 N   0  0  0  0  0  0  0  0  0  0  0  0
  -26.3130  -12.7417   20.2153 N   0  0  0  0  0  0  0  0  0  0  0  0
  -25.2982  -15.6893   16.2815 N   0  0  0  0  0  0  0  0  0  0  0  0
  -24.6599  -25.3129   18.2428 N   0  0  0  0  0  0  0  0  0  0  0  0
  -29.8038  -12.1647   18.7526 N   0  0  0  0  0  0  0  0  0  0  0  0
  -25.5351  -14.9789   20.2324 N   0  0  0  0  0  0  0  0  0  0  0  0
  -22.5080  -13.7936   22.1880 N   0  0  0  0  0  0  0  0  0  0  0  0
  -24.1985  -27.8894   20.6529 N   0  0  0  0  0  0  0  0  0  0  0  0
  -27.0647  -25.5414   15.5860 N   0  0  0  0  0  0  0  0  0  0  0  0
  -29.7131  -12.1596   16.3571 N   0  0  0  0  0  0  0  0  0  0  0  0
  -30.2054  -23.7601   15.4104 N   0  3  0  0  0  0  0  0  0  0  0  0
  -21.8323  -17.5820   17.1724 O   0  0  0  0  0  0  0  0  0  0  0  0
  -22.0420  -13.6354   19.9483 O   0  0  0  0  0  0  0  0  0  0  0  0
  -22.9252  -27.1713   18.8403 O   0  0  0  0  0  0  0  0  0  0  0  0
  -26.3293  -26.8588   17.7586 O   0  0  0  0  0  0  0  0  0  0  0  0
  -27.4364  -23.2615   15.3830 O   0  0  0  0  0  0  0  0  0  0  0  0
  -31.5073  -11.2421   17.4833 O   0  0  0  0  0  0  0  0  0  0  0  0
  -21.5040   -7.0319   21.5627 O   0  0  0  0  0  0  0  0  0  0  0  0
  -24.1942  -19.3842   18.7038 O   0  0  0  0  0  0  0  0  0  1  0  0
  -22.0475   -4.5018   26.4317 F   0  0  0  0  0  0  0  0  0  0  0  0
  -19.3432   -6.7512   23.2642 F   0  0  0  0  0  0  0  0  0  0  0  0
  1  2  1  0  0  0  0
  1  5  2  0  0  0  0
  2  6  2  0  0  0  0
  3 12  2  0  0  0  0
  3 19  1  0  0  0  0
  4 13  1  0  0  0  0
  4 19  2  0  0  0  0
  5 21  1  0  0  0  0
  6 23  1  0  0  0  0
  7 14  2  0  0  0  0
  7 22  1  0  0  0  0
  8 10  2  0  0  0  0
  8 25  1  0  0  0  0
  9 11  1  0  0  0  0
  9 25  2  0  0  0  0
 10 26  1  0  0  0  0
 11 26  2  0  0  0  0
 12 27  1  0  0  0  0
 13 27  2  0  0  0  0
 14 28  1  0  0  0  0
 15 16  2  0  0  0  0
 15 29  1  0  0  0  0
 16 30  1  0  0  0  0
 17 24  1  0  0  0  0
 17 28  2  0  0  0  0
 18 30  2  0  0  0  0
 18 31  1  0  0  0  0
 19 32  1  0  0  0  0
 20 32  1  0  0  0  0
 20 33  2  0  0  0  0
 20 39  1  0  0  0  0
 21 23  2  0  0  0  0
 21 44  1  0  0  0  0
 22 24  2  0  0  0  0
 22 45  1  0  0  0  0
 23 59  1  0  0  0  0
 24 46  1  0  0  0  0
 25 74  1  0  0  0  0
 26 81  1  0  0  0  0
 27 89  1  0  0  0  0
 28 90  1  0  0  0  0
 29 31  2  0  0  0  0
 29 89  1  0  0  0  0
 30 91  1  0  0  0  0
 31 92  1  0  0  0  0
 32 72  2  0  0  0  0
 33 73  1  0  0  0  0
 33 77  1  0  0  0  0
 34 35  2  0  0  0  0
 34 36  1  0  0  0  0
 34 68  1  0  0  0  0
 35 38  1  0  0  0  0
 35 74  1  0  0  0  0
 36 47  1  0  0  0  0
 36 83  2  0  0  0  0
 37 38  2  0  0  0  0
 39 78  1  0  0  0  0
 39 84  2  0  0  0  0
 40 60  1  0  0  0  0
 40 79  1  0  0  0  0
 40 85  2  0  0  0  0
 41 69  1  0  0  0  0
 41 75  1  0  0  0  0
 41 86  2  0  0  0  0
 42 70  1  0  0  0  0
 42 80  1  0  0  0  0
 42 87  2  0  0  0  0
 43 76  1  0  0  0  0
 43 81  1  0  0  0  0
 43 88  2  0  0  0  0
 44 48  1  0  0  0  0
 45 60  1  0  0  0  0
 46 75  1  0  0  0  0
 47 56  1  0  0  0  0
 48 52  1  0  0  0  0
 49 50  1  0  0  0  0
 49 54  1  0  0  0  0
 50 55  1  0  0  0  0
 51 53  1  0  0  0  0
 51 57  1  0  0  0  0
 52 59  1  0  0  0  0
 53 61  1  0  0  0  0
 54 62  1  0  0  0  0
 55 62  1  0  0  0  0
 56 74  1  0  0  0  0
 57 76  1  0  0  0  0
 58 61  1  0  0  0  0
 58 76  1  0  0  0  0
 59 79  1  0  0  0  0
 60 75  1  0  0  0  0
 61 73  1  0  0  0  0
 62 81  1  0  0  0  0
 63 70  1  0  0  0  0
 64 71  1  0  0  0  0
 65 71  1  0  0  0  0
 66 71  1  0  0  0  0
 67 82  1  0  0  0  0
 68 90  1  0  0  0  0
 69 71  1  0  0  0  0
 69 80  1  0  0  0  0
 70 82  1  0  0  0  0
 72 73  1  0  0  0  0
M  CHG  1  82   1
M  ISO  4  43 100  68 101  81 100  90 101
M  END
> <Batch ID>
0109

> <Smiles>
C=CC1=C([101CH2:1][101O:1]c2ccc3c(c2)CN(C(=O)C(NC(=O)C(C)NC)C(C)(C)C)C(C(=O)NC2CCCc4ccccc42)C3)C(=O)CCN1c1ccc([100N:0](C2CCCC2)[100C:0](=O)N2CCCC(n3nc(-c4ccc(Oc5ccc(F)cc5F)cc4)c(C(N)=O)c3N)C2)cc1

> <Shape>
0.218

> <Color>
0.173

> <Negative vol penalty>
0.000

$$$$

  -OEChem-04052301233D

 89 98  0     1  0  0  0  0  0999 V2000
  -19.5763  -27.9495   26.6512 C   0  0  0  0  0  0  0  0  0  0  0  0
  -20.8532  -27.5868   26.2346 C   0  0  0  0  0  0  0  0  0  0  0  0
  -21.8509  -13.4378   21.3145 C   0  0  0  0  0  0  0  0  0  0  0  0
  -22.8095  -12.0406   23.0366 C   0  0  0  0  0  0  0  0  0  0  0  0
  -18.5833  -28.2074   25.7071 C   0  0  0  0  0  0  0  0  0  0  0  0
  -21.1374  -27.4807   24.8736 C   0  0  0  0  0  0  0  0  0  0  0  0
  -26.4276  -28.8346   22.1011 C   0  0  0  0  0  0  0  0  0  0  0  0
  -20.6316  -13.4365   21.9920 C   0  0  0  0  0  0  0  0  0  0  0  0
  -21.5902  -12.0392   23.7142 C   0  0  0  0  0  0  0  0  0  0  0  0
  -27.4964  -28.0435   21.6822 C   0  0  0  0  0  0  0  0  0  0  0  0
  -18.6070  -10.4668   23.4717 C   0  0  0  0  0  0  0  0  0  0  0  0
  -18.1415   -9.2483   23.9657 C   0  0  0  0  0  0  0  0  0  0  0  0
  -30.3439  -20.6547   21.2685 C   0  0  0  0  0  0  0  0  0  0  0  0
  -26.5610  -27.9672   19.4599 C   0  0  0  0  0  0  0  0  0  0  0  0
  -28.7327  -20.4486   19.4799 C   0  0  0  0  0  0  0  0  0  0  0  0
  -18.1625  -10.1491   26.2074 C   0  0  0  0  0  0  0  0  0  0  0  0
  -22.9398  -12.7398   21.8368 C   0  0  0  0  0  0  0  0  0  0  0  0
  -30.0593  -19.3511   21.6750 C   0  0  0  0  0  0  0  0  0  0  0  0
  -24.4475  -12.2722   19.8328 C   0  0  0  0  0  0  0  0  0  0  0  0
  -18.8581  -28.1138   24.3336 C   0  0  0  0  0  0  0  0  0  0  0  0
  -25.4101  -29.1895   21.2038 C   0  0  0  0  0  0  0  0  0  0  0  0
  -20.1468  -27.7363   23.9103 C   0  0  0  0  0  0  0  0  0  0  0  0
  -25.4817  -28.7650   19.8693 C   0  0  0  0  0  0  0  0  0  0  0  0
  -28.4482  -19.1450   19.8865 C   0  0  0  0  0  0  0  0  0  0  0  0
  -29.6805  -21.2035   20.1709 C   0  0  0  0  0  0  0  0  0  0  0  0
  -29.1115  -18.5963   20.9841 C   0  0  0  0  0  0  0  0  0  0  0  0
  -20.5013  -12.7372   23.1919 C   0  0  0  0  0  0  0  0  0  0  0  0
  -27.5617  -27.6072   20.3621 C   0  0  0  0  0  0  0  0  0  0  0  0
  -18.8504  -11.5265   24.3455 C   0  0  0  0  0  0  0  0  0  0  0  0
  -17.9192   -9.0894   25.3336 C   0  0  0  0  0  0  0  0  0  0  0  0
  -18.6281  -11.3677   25.7134 C   0  0  0  0  0  0  0  0  0  0  0  0
  -24.1993  -12.7403   21.1371 C   0  0  0  0  0  0  0  0  0  0  0  0
  -25.7889  -12.4938   19.6378 C   0  0  0  0  0  0  0  0  0  0  0  0
  -29.2715  -24.7273   19.0183 C   0  0  0  0  0  0  0  0  0  0  0  0
  -29.0338  -23.5802   19.6997 C   0  0  0  0  0  0  0  0  0  0  0  0
  -30.5624  -24.8453   18.2603 C   0  0  0  0  0  0  0  0  0  0  0  0
  -32.0923  -18.7226   22.8945 C   0  0  0  0  0  0  0  0  0  0  0  0
  -30.7733  -18.8150   22.8281 C   0  0  0  0  0  0  0  0  0  0  0  0
  -23.5460  -11.6892   18.8825 C   0  0  0  0  0  0  0  0  0  0  0  0
  -22.2801  -28.6611   21.0386 C   0  0  0  0  0  0  0  0  0  0  0  0
  -22.4660  -30.6856   18.5109 C   0  0  0  0  0  0  0  0  0  0  0  0
  -24.7031  -31.2317   15.7334 C   0  0  0  0  0  0  0  0  0  0  0  0
  -29.6738  -16.3651   22.0096 C   0  0  0  0  0  0  0  0  0  0  0  0
  -17.7396  -28.3560   23.3513 C   0  0  0  0  0  0  0  0  0  0  0  0
  -24.2778  -30.0658   21.6647 C   0  0  0  0  0  0  0  0  0  0  0  0
  -24.4254  -29.1354   18.8616 C   0  0  0  0  0  0  0  0  0  0  0  0
  -31.4641  -23.6371   18.1797 C   0  0  0  0  0  0  0  0  0  0  0  0
  -18.2235  -28.5861   21.9219 C   0  0  0  0  0  0  0  0  0  0  0  0
  -29.9196  -12.8132   22.0399 C   0  0  0  0  0  0  0  0  0  0  0  0
  -19.2666  -27.5419   21.5368 C   0  0  0  0  0  0  0  0  0  0  0  0
  -28.5046  -12.3489   21.6871 C   0  0  0  0  0  0  0  0  0  0  0  0
  -31.3767  -22.7846   19.4335 C   0  0  0  0  0  0  0  0  0  0  0  0
  -29.9039  -14.0634   22.9176 C   0  0  0  0  0  0  0  0  0  0  0  0
  -27.6982  -14.7183   22.0371 C   0  0  0  0  0  0  0  0  0  0  0  0
  -20.5006  -27.6347   22.4424 C   0  0  1  0  0  0  0  0  0  0  0  0
  -23.0316  -29.9390   20.7939 C   0  0  1  0  0  0  0  0  0  0  0  0
  -27.6637  -13.4997   21.1004 C   0  0  2  0  0  0  0  0  0  0  0  0
  -27.4279  -18.3617   19.1251 C   0  0  0  0  0  0  0  0  0  0  0  0
  -27.7725  -23.4418   20.5301 C   0  0  0  0  0  0  0  0  0  0  0  0
  -25.1852  -33.3091   14.4108 C   0  0  0  0  0  0  0  0  0  0  0  0
  -20.3255  -29.6251   16.6126 C   0  0  0  0  0  0  0  0  0  0  0  0
  -21.7115  -30.4528   14.6989 C   0  0  0  0  0  0  0  0  0  0  0  0
  -20.8131  -32.0665   16.3757 C   0  0  0  0  0  0  0  0  0  0  0  0
  -27.6072  -31.0390   16.2700 C   0  0  0  0  0  0  0  0  0  0  0  0
  -28.3473  -25.9060   18.8977 C   0  0  0  0  0  0  0  0  0  1  0  0
  -22.7087  -30.5266   17.0294 C   0  0  1  0  0  0  0  0  0  0  0  0
  -25.6467  -32.4056   15.5437 C   0  0  2  0  0  0  0  0  0  0  0  0
  -21.4006  -30.6495   16.1981 C   0  0  0  0  0  0  0  0  0  0  0  0
  -25.2952  -13.2228   21.7289 N   0  0  0  0  0  0  0  0  0  0  0  0
  -26.2450  -13.0589   20.7923 N   0  0  0  0  0  0  0  0  0  0  0  0
  -29.9686  -22.5299   19.7576 N   0  0  0  0  0  0  0  0  0  0  0  0
  -23.3350  -29.9886   19.3623 N   0  0  0  0  0  0  0  0  0  0  0  0
  -29.0919  -15.1121   22.2965 N   0  0  0  0  0  0  0  0  0  0  0  0
  -26.6109  -12.2584   18.5933 N   0  0  0  0  0  0  0  0  0  0  0  0
  -22.2011  -11.5342   19.2452 N   0  0  0  0  0  0  0  0  0  0  0  0
  -28.8144  -17.2716   21.3898 N   0  0  0  0  0  0  0  0  0  0  0  0
  -21.3368  -28.7469   22.0447 N   0  0  0  0  0  0  0  0  0  0  0  0
  -23.7346  -31.5021   16.6768 N   0  0  0  0  0  0  0  0  0  0  0  0
  -27.0201  -31.9206   15.2283 N   0  3  0  0  0  0  0  0  0  0  0  0
  -30.8547  -25.8853   17.6706 O   0  0  0  0  0  0  0  0  0  0  0  0
  -23.9253  -11.3016   17.7514 O   0  0  0  0  0  0  0  0  0  0  0  0
  -22.5360  -27.6710   20.3634 O   0  0  0  0  0  0  0  0  0  0  0  0
  -21.5440  -31.4076   18.8986 O   0  0  0  0  0  0  0  0  0  0  0  0
  -24.8119  -30.1813   15.1046 O   0  0  0  0  0  0  0  0  0  0  0  0
  -30.8557  -16.6062   22.2683 O   0  0  0  0  0  0  0  0  0  0  0  0
  -19.3118  -12.7359   23.8534 O   0  0  0  0  0  0  0  0  0  0  0  0
  -28.6035  -26.8343   19.9508 O   0  0  0  0  0  0  0  0  0  1  0  0
  -17.4706   -7.9197   25.8076 F   0  0  0  0  0  0  0  0  0  0  0  0
  -18.8589  -12.3824   26.5576 F   0  0  0  0  0  0  0  0  0  0  0  0
  1  2  1  0  0  0  0
  1  5  2  0  0  0  0
  2  6  2  0  0  0  0
  3  8  2  0  0  0  0
  3 17  1  0  0  0  0
  4  9  1  0  0  0  0
  4 17  2  0  0  0  0
  5 20  1  0  0  0  0
  6 22  1  0  0  0  0
  7 10  2  0  0  0  0
  7 21  1  0  0  0  0
  8 27  1  0  0  0  0
  9 27  2  0  0  0  0
 10 28  1  0  0  0  0
 11 12  2  0  0  0  0
 11 29  1  0  0  0  0
 12 30  1  0  0  0  0
 13 18  1  0  0  0  0
 13 25  2  0  0  0  0
 14 23  1  0  0  0  0
 14 28  2  0  0  0  0
 15 24  2  0  0  0  0
 15 25  1  0  0  0  0
 16 30  2  0  0  0  0
 16 31  1  0  0  0  0
 17 32  1  0  0  0  0
 18 26  2  0  0  0  0
 18 38  1  0  0  0  0
 19 32  1  0  0  0  0
 19 33  2  0  0  0  0
 19 39  1  0  0  0  0
 20 22  2  0  0  0  0
 20 44  1  0  0  0  0
 21 23  2  0  0  0  0
 21 45  1  0  0  0  0
 22 55  1  0  0  0  0
 23 46  1  0  0  0  0
 24 26  1  0  0  0  0
 24 58  1  0  0  0  0
 25 71  1  0  0  0  0
 26 76  1  0  0  0  0
 27 86  1  0  0  0  0
 28 87  1  0  0  0  0
 29 31  2  0  0  0  0
 29 86  1  0  0  0  0
 30 88  1  0  0  0  0
 31 89  1  0  0  0  0
 32 69  2  0  0  0  0
 33 70  1  0  0  0  0
 33 74  1  0  0  0  0
 34 35  2  0  0  0  0
 34 36  1  0  0  0  0
 34 65  1  0  0  0  0
 35 59  1  0  0  0  0
 35 71  1  0  0  0  0
 36 47  1  0  0  0  0
 36 80  2  0  0  0  0
 37 38  2  0  0  0  0
 39 75  1  0  0  0  0
 39 81  2  0  0  0  0
 40 56  1  0  0  0  0
 40 77  1  0  0  0  0
 40 82  2  0  0  0  0
 41 66  1  0  0  0  0
 41 72  1  0  0  0  0
 41 83  2  0  0  0  0
 42 67  1  0  0  0  0
 42 78  1  0  0  0  0
 42 84  2  0  0  0  0
 43 73  1  0  0  0  0
 43 76  1  0  0  0  0
 43 85  2  0  0  0  0
 44 48  1  0  0  0  0
 45 56  1  0  0  0  0
 46 72  1  0  0  0  0
 47 52  1  0  0  0  0
 48 50  1  0  0  0  0
 49 51  1  0  0  0  0
 49 53  1  0  0  0  0
 50 55  1  0  0  0  0
 51 57  1  0  0  0  0
 52 71  1  0  0  0  0
 53 73  1  0  0  0  0
 54 57  1  0  0  0  0
 54 73  1  0  0  0  0
 55 77  1  0  0  0  0
 56 72  1  0  0  0  0
 57 70  1  0  0  0  0
 60 67  1  0  0  0  0
 61 68  1  0  0  0  0
 62 68  1  0  0  0  0
 63 68  1  0  0  0  0
 64 79  1  0  0  0  0
 65 87  1  0  0  0  0
 66 68  1  0  0  0  0
 66 78  1  0  0  0  0
 67 79  1  0  0  0  0
 69 70  1  0  0  0  0
M  CHG  1  79   1
M  ISO  4  43 100  65 101  76 100  87 101
M  END
> <Batch ID>
0109

> <Smiles>
C=Cc1cc(N2CCC(=O)C([101CH2:1][101O:1]c3ccc4c(c3)CN(C(=O)C(NC(=O)C(C)NC)C(C)(C)C)C(C(=O)NC3CCCc5ccccc53)C4)=C2C)cc(C)c1[100NH:0][100C:0](=O)N1CCCC(n2nc(-c3ccc(Oc4ccc(F)cc4F)cc3)c(C(N)=O)c2N)C1

> <Shape>
0.273

> <Color>
0.081

> <Negative vol penalty>
0.000

$$$$

  -OEChem-04052301233D

 84 92  0     1  0  0  0  0  0999 V2000
  -28.7392  -34.0042   19.0172 C   0  0  0  0  0  0  0  0  0  0  0  0
  -28.7289  -32.7474   19.6136 C   0  0  0  0  0  0  0  0  0  0  0  0
  -23.0505   -9.9718   19.9393 C   0  0  0  0  0  0  0  0  0  0  0  0
  -23.8969   -9.8961   22.2010 C   0  0  0  0  0  0  0  0  0  0  0  0
  -27.6186  -34.8284   19.1112 C   0  0  0  0  0  0  0  0  0  0  0  0
  -27.5982  -32.3145   20.3054 C   0  0  0  0  0  0  0  0  0  0  0  0
  -26.3505  -27.5347   19.1911 C   0  0  0  0  0  0  0  0  0  0  0  0
  -22.3017   -8.8200   20.1810 C   0  0  0  0  0  0  0  0  0  0  0  0
  -23.1480   -8.7444   22.4427 C   0  0  0  0  0  0  0  0  0  0  0  0
  -27.0978  -26.5243   19.7948 C   0  0  0  0  0  0  0  0  0  0  0  0
  -19.9350   -7.9657   23.1429 C   0  0  0  0  0  0  0  0  0  0  0  0
  -19.2225   -7.8971   24.3401 C   0  0  0  0  0  0  0  0  0  0  0  0
  -25.3469  -26.2111   21.4243 C   0  0  0  0  0  0  0  0  0  0  0  0
  -28.9229  -17.7055   22.0111 C   0  0  0  0  0  0  0  0  0  0  0  0
  -20.4657   -5.9225   24.9667 C   0  0  0  0  0  0  0  0  0  0  0  0
  -23.8481  -10.5098   20.9493 C   0  0  0  0  0  0  0  0  0  0  0  0
  -24.2180  -13.0333   20.8963 C   0  0  0  0  0  0  0  0  0  0  0  0
  -26.4701  -34.4015   19.7963 C   0  0  0  0  0  0  0  0  0  0  0  0
  -25.0984  -27.8989   19.7069 C   0  0  0  0  0  0  0  0  0  0  0  0
  -26.4617  -33.1343   20.4098 C   0  0  0  0  0  0  0  0  0  0  0  0
  -24.5845  -27.2247   20.8238 C   0  0  0  0  0  0  0  0  0  0  0  0
  -22.3505   -8.2063   21.4326 C   0  0  0  0  0  0  0  0  0  0  0  0
  -26.5973  -25.8643   20.9133 C   0  0  0  0  0  0  0  0  0  0  0  0
  -20.9127   -7.0127   22.8575 C   0  0  0  0  0  0  0  0  0  0  0  0
  -28.3532  -18.6127   21.0861 C   0  0  0  0  0  0  0  0  0  0  0  0
  -19.4879   -6.8755   25.2520 C   0  0  0  0  0  0  0  0  0  0  0  0
  -21.1781   -5.9911   23.7695 C   0  0  0  0  0  0  0  0  0  0  0  0
  -24.6223  -11.6992   20.7001 C   0  0  0  0  0  0  0  0  0  0  0  0
  -29.5293  -16.7252   21.2607 C   0  0  0  0  0  0  0  0  0  0  0  0
  -28.6523  -18.1222   19.8363 C   0  0  0  0  0  0  0  0  0  0  0  0
  -25.3052  -13.7811   20.5153 C   0  0  0  0  0  0  0  0  0  0  0  0
  -22.9711  -13.5503   21.3797 C   0  0  0  0  0  0  0  0  0  0  0  0
  -30.2565  -15.5624   21.6410 C   0  0  0  0  0  0  0  0  0  0  0  0
  -30.8331  -14.6275   20.6476 C   0  0  0  0  0  0  0  0  0  0  0  0
  -23.8686  -30.5566   20.9432 C   0  0  0  0  0  0  0  0  0  0  0  0
  -21.1177  -28.8381   20.9025 C   0  0  0  0  0  0  0  0  0  0  0  0
  -19.6159  -25.7736   20.8923 C   0  0  0  0  0  0  0  0  0  0  0  0
  -25.3003  -35.3465   19.9115 C   0  0  0  0  0  0  0  0  0  0  0  0
  -24.2929  -28.9727   19.0282 C   0  0  0  0  0  0  0  0  0  0  0  0
  -23.2368  -27.5642   21.4042 C   0  0  0  0  0  0  0  0  0  0  0  0
  -24.0054  -34.6630   20.3430 C   0  0  0  0  0  0  0  0  0  0  0  0
  -29.5389  -12.4629   18.0988 C   0  0  0  0  0  0  0  0  0  0  0  0
  -24.2607  -33.7331   21.5248 C   0  0  0  0  0  0  0  0  0  0  0  0
  -28.1244  -12.1503   18.5859 C   0  0  0  0  0  0  0  0  0  0  0  0
  -30.5102  -12.6143   19.2650 C   0  0  0  0  0  0  0  0  0  0  0  0
  -28.6683  -13.3232   20.7662 C   0  0  0  0  0  0  0  0  0  0  0  0
  -25.2450  -32.6192   21.1478 C   0  0  1  0  0  0  0  0  0  0  0  0
  -23.2568  -29.6130   19.9467 C   0  0  1  0  0  0  0  0  0  0  0  0
  -27.6531  -13.1906   19.6176 C   0  0  2  0  0  0  0  0  0  0  0  0
  -26.9128  -18.2994   18.0394 C   0  0  0  0  0  0  0  0  0  0  0  0
  -17.3530  -24.6889   20.8963 C   0  0  0  0  0  0  0  0  0  0  0  0
  -20.8113  -29.4938   23.8666 C   0  0  0  0  0  0  0  0  0  0  0  0
  -19.1194  -27.6553   24.0270 C   0  0  0  0  0  0  0  0  0  0  0  0
  -18.6908  -29.6167   22.5464 C   0  0  0  0  0  0  0  0  0  0  0  0
  -20.1214  -24.4421   18.2979 C   0  0  0  0  0  0  0  0  0  0  0  0
  -28.3568  -18.5859   18.4727 C   0  0  0  0  0  0  0  0  0  0  0  0
  -27.4039  -22.5437   22.1168 C   0  0  0  0  0  0  0  0  0  0  0  0
  -26.6554  -21.3949   22.7837 C   0  0  0  0  0  0  0  0  0  0  0  0
  -26.5987  -23.8358   22.1547 C   0  0  0  0  0  0  0  0  0  1  0  0
  -27.4408  -20.0933   22.7083 C   0  0  0  0  0  0  0  0  0  0  0  0
  -20.4247  -27.9066   21.8674 C   0  0  1  0  0  0  0  0  0  0  0  0
  -18.4987  -25.2022   20.0380 C   0  0  2  0  0  0  0  0  0  0  0  0
  -19.7878  -28.6628   23.0673 C   0  0  0  0  0  0  0  0  0  0  0  0
  -25.8690  -11.6020   20.2308 N   0  0  0  0  0  0  0  0  0  0  0  0
  -30.4908  -15.2030   22.8925 N   0  0  0  0  0  0  0  0  0  0  0  0
  -26.2575  -12.8845   20.1289 N   0  0  0  0  0  0  0  0  0  0  0  0
  -30.0156  -13.5816   20.2427 N   0  0  0  0  0  0  0  0  0  0  0  0
  -22.4900  -28.6254   20.7089 N   0  0  0  0  0  0  0  0  0  0  0  0
  -25.5300  -15.1117   20.4765 N   0  0  0  0  0  0  0  0  0  0  0  0
  -21.9610  -12.6428   21.7265 N   0  0  0  0  0  0  0  0  0  0  0  0
  -24.5774  -31.5962   20.3719 N   0  0  0  0  0  0  0  0  0  0  0  0
  -19.4741  -27.1328   21.0762 N   0  0  0  0  0  0  0  0  0  0  0  0
  -19.0067  -24.0734   19.2082 N   0  3  0  0  0  0  0  0  0  0  0  0
  -22.7532  -14.7812   21.4850 O   0  0  0  0  0  0  0  0  0  0  0  0
  -31.9760  -14.8786   20.2883 O   0  0  0  0  0  0  0  0  0  0  0  0
  -23.7083  -30.3571   22.1416 O   0  0  0  0  0  0  0  0  0  0  0  0
  -20.4640  -29.7175   20.3359 O   0  0  0  0  0  0  0  0  0  0  0  0
  -20.5216  -25.0827   21.3536 O   0  0  0  0  0  0  0  0  0  0  0  0
  -29.3691  -16.9719   19.9340 O   0  0  0  0  0  0  0  0  0  0  0  0
  -21.6197   -7.0826   21.6689 O   0  0  0  0  0  0  0  0  0  0  0  0
  -27.3250  -24.8782   21.5048 O   0  0  0  0  0  0  0  0  0  1  0  0
  -27.6428  -19.7566   21.3427 O   0  0  0  0  0  0  0  0  0  0  0  0
  -18.8047   -6.8107   26.4023 F   0  0  0  0  0  0  0  0  0  0  0  0
  -22.1171   -5.0734   23.5014 F   0  0  0  0  0  0  0  0  0  0  0  0
  1  2  1  0  0  0  0
  1  5  2  0  0  0  0
  2  6  2  0  0  0  0
  3  8  2  0  0  0  0
  3 16  1  0  0  0  0
  4  9  1  0  0  0  0
  4 16  2  0  0  0  0
  5 18  1  0  0  0  0
  6 20  1  0  0  0  0
  7 10  2  0  0  0  0
  7 19  1  0  0  0  0
  8 22  1  0  0  0  0
  9 22  2  0  0  0  0
 10 23  1  0  0  0  0
 11 12  2  0  0  0  0
 11 24  1  0  0  0  0
 12 26  1  0  0  0  0
 13 21  1  0  0  0  0
 13 23  2  0  0  0  0
 14 25  1  0  0  0  0
 14 29  2  0  0  0  0
 15 26  2  0  0  0  0
 15 27  1  0  0  0  0
 16 28  1  0  0  0  0
 17 28  1  0  0  0  0
 17 31  2  0  0  0  0
 17 32  1  0  0  0  0
 18 20  2  0  0  0  0
 18 38  1  0  0  0  0
 19 21  2  0  0  0  0
 19 39  1  0  0  0  0
 20 47  1  0  0  0  0
 21 40  1  0  0  0  0
 22 80  1  0  0  0  0
 23 81  1  0  0  0  0
 24 27  2  0  0  0  0
 24 80  1  0  0  0  0
 25 30  2  0  0  0  0
 25 82  1  0  0  0  0
 26 83  1  0  0  0  0
 27 84  1  0  0  0  0
 28 64  2  0  0  0  0
 29 33  1  0  0  0  0
 29 79  1  0  0  0  0
 30 56  1  0  0  0  0
 30 79  1  0  0  0  0
 31 66  1  0  0  0  0
 31 69  1  0  0  0  0
 32 70  1  0  0  0  0
 32 74  2  0  0  0  0
 33 34  1  0  0  0  0
 33 65  2  0  0  0  0
 34 67  1  0  0  0  0
 34 75  2  0  0  0  0
 35 48  1  0  0  0  0
 35 71  1  0  0  0  0
 35 76  2  0  0  0  0
 36 61  1  0  0  0  0
 36 68  1  0  0  0  0
 36 77  2  0  0  0  0
 37 62  1  0  0  0  0
 37 72  1  0  0  0  0
 37 78  2  0  0  0  0
 38 41  1  0  0  0  0
 39 48  1  0  0  0  0
 40 68  1  0  0  0  0
 41 43  1  0  0  0  0
 42 44  1  0  0  0  0
 42 45  1  0  0  0  0
 43 47  1  0  0  0  0
 44 49  1  0  0  0  0
 45 67  1  0  0  0  0
 46 49  1  0  0  0  0
 46 67  1  0  0  0  0
 47 71  1  0  0  0  0
 48 68  1  0  0  0  0
 49 66  1  0  0  0  0
 50 56  1  0  0  0  0
 51 62  1  0  0  0  0
 52 63  1  0  0  0  0
 53 63  1  0  0  0  0
 54 63  1  0  0  0  0
 55 73  1  0  0  0  0
 57 58  1  0  0  0  0
 57 59  1  0  0  0  0
 58 60  1  0  0  0  0
 59 81  1  0  0  0  0
 60 82  1  0  0  0  0
 61 63  1  0  0  0  0
 61 72  1  0  0  0  0
 62 73  1  0  0  0  0
 64 66  1  0  0  0  0
M  CHG  1  73   1
M  ISO  4  33 100  34 100  59 101  81 101
M  END
> <Batch ID>
0109

> <Smiles>
CCc1oc([100C:0](=N)[100C:0](=O)N2CCCC(n3nc(-c4ccc(Oc5ccc(F)cc5F)cc4)c(C(N)=O)c3N)C2)cc1OCCC[101CH2:1][101O:1]c1ccc2c(c1)CN(C(=O)C(NC(=O)C(C)NC)C(C)(C)C)C(C(=O)NC1CCCc3ccccc31)C2

> <Shape>
0.336

> <Color>
0.190

> <Negative vol penalty>
0.000

$$$$

  -OEChem-04052301233D

 85 94  0     1  0  0  0  0  0999 V2000
  -30.1667  -36.3856   22.7148 C   0  0  0  0  0  0  0  0  0  0  0  0
  -30.2868  -35.1356   22.1159 C   0  0  0  0  0  0  0  0  0  0  0  0
  -23.8786   -9.0431   19.8258 C   0  0  0  0  0  0  0  0  0  0  0  0
  -23.1579  -10.2496   21.7910 C   0  0  0  0  0  0  0  0  0  0  0  0
  -29.2692  -36.5705   23.7656 C   0  0  0  0  0  0  0  0  0  0  0  0
  -29.5101  -34.0695   22.5683 C   0  0  0  0  0  0  0  0  0  0  0  0
  -27.1699  -29.5269   19.1929 C   0  0  0  0  0  0  0  0  0  0  0  0
  -23.2419   -7.8951   20.2971 C   0  0  0  0  0  0  0  0  0  0  0  0
  -22.5211   -9.1016   22.2623 C   0  0  0  0  0  0  0  0  0  0  0  0
  -27.5932  -28.2197   18.9568 C   0  0  0  0  0  0  0  0  0  0  0  0
  -19.6385   -7.4368   21.6793 C   0  0  0  0  0  0  0  0  0  0  0  0
  -18.3497   -7.5774   22.1939 C   0  0  0  0  0  0  0  0  0  0  0  0
  -26.1246  -27.4351   20.7023 C   0  0  0  0  0  0  0  0  0  0  0  0
  -19.1084   -6.7295   24.3253 C   0  0  0  0  0  0  0  0  0  0  0  0
  -27.6449  -19.3142   19.2260 C   0  0  0  0  0  0  0  0  0  0  0  0
  -23.8367  -10.2204   20.5728 C   0  0  0  0  0  0  0  0  0  0  0  0
  -23.9426  -12.4101   19.2684 C   0  0  0  0  0  0  0  0  0  0  0  0
  -28.4742  -35.5085   24.2247 C   0  0  0  0  0  0  0  0  0  0  0  0
  -26.2271  -29.7997   20.1945 C   0  0  0  0  0  0  0  0  0  0  0  0
  -28.6021  -34.2401   23.6271 C   0  0  0  0  0  0  0  0  0  0  0  0
  -25.6890  -28.7463   20.9474 C   0  0  0  0  0  0  0  0  0  0  0  0
  -22.5631   -7.9243   21.5153 C   0  0  0  0  0  0  0  0  0  0  0  0
  -27.0727  -27.1739   19.7134 C   0  0  0  0  0  0  0  0  0  0  0  0
  -20.6623   -6.9425   22.4876 C   0  0  0  0  0  0  0  0  0  0  0  0
  -18.0847   -7.2237   23.5169 C   0  0  0  0  0  0  0  0  0  0  0  0
  -20.3972   -6.5889   23.8106 C   0  0  0  0  0  0  0  0  0  0  0  0
  -24.4947  -11.4065   20.0868 C   0  0  0  0  0  0  0  0  0  0  0  0
  -28.2392  -20.5831   19.3615 C   0  0  0  0  0  0  0  0  0  0  0  0
  -28.4182  -18.4880   20.0045 C   0  0  0  0  0  0  0  0  0  0  0  0
  -24.9650  -13.3102   19.0918 C   0  0  0  0  0  0  0  0  0  0  0  0
  -27.1096  -23.8871   18.2692 C   0  0  0  0  0  0  0  0  0  0  0  0
  -26.7937  -25.1515   18.5721 C   0  0  0  0  0  0  0  0  0  1  0  0
  -22.6236  -12.5191   18.7171 C   0  0  0  0  0  0  0  0  0  0  0  0
  -29.4575  -23.3268   18.2608 C   0  0  0  0  0  0  0  0  0  0  0  0
  -26.2347  -31.5039   22.8777 C   0  0  0  0  0  0  0  0  0  0  0  0
  -23.0823  -30.7400   22.9118 C   0  0  0  0  0  0  0  0  0  0  0  0
  -20.6060  -28.6120   21.9186 C   0  0  0  0  0  0  0  0  0  0  0  0
  -29.1800  -16.3481   21.0939 C   0  0  0  0  0  0  0  0  0  0  0  0
  -27.5523  -35.7449   25.3947 C   0  0  0  0  0  0  0  0  0  0  0  0
  -25.7609  -31.2121   20.4188 C   0  0  0  0  0  0  0  0  0  0  0  0
  -24.6595  -28.9838   22.0208 C   0  0  0  0  0  0  0  0  0  0  0  0
  -26.3798  -23.0371   17.2765 C   0  0  0  0  0  0  0  0  0  0  0  0
  -26.4954  -34.6570   25.5669 C   0  0  0  0  0  0  0  0  0  0  0  0
  -29.8866  -12.9685   20.2245 C   0  0  0  0  0  0  0  0  0  0  0  0
  -27.1296  -33.2742   25.4560 C   0  0  0  0  0  0  0  0  0  0  0  0
  -28.5014  -12.3434   20.0438 C   0  0  0  0  0  0  0  0  0  0  0  0
  -26.5480  -21.6297   17.8433 C   0  0  0  0  0  0  0  0  0  0  0  0
  -29.9052  -13.9866   21.3632 C   0  0  0  0  0  0  0  0  0  0  0  0
  -27.4924  -14.4071   21.0974 C   0  0  0  0  0  0  0  0  0  0  0  0
  -27.7590  -33.0652   24.0733 C   0  0  1  0  0  0  0  0  0  0  0  0
  -28.1594  -23.0650   18.9570 C   0  0  2  0  0  0  0  0  0  0  0  0
  -25.1786  -31.4352   21.8111 C   0  0  1  0  0  0  0  0  0  0  0  0
  -27.4080  -13.4225   19.9196 C   0  0  2  0  0  0  0  0  0  0  0  0
  -30.5882  -23.8430   19.1090 C   0  0  0  0  0  0  0  0  0  0  0  0
  -18.1358  -28.2262   22.1351 C   0  0  0  0  0  0  0  0  0  0  0  0
  -23.4988  -29.6769   25.7414 C   0  0  0  0  0  0  0  0  0  0  0  0
  -21.3108  -28.4771   25.5378 C   0  0  0  0  0  0  0  0  0  0  0  0
  -21.3820  -30.9675   25.4129 C   0  0  0  0  0  0  0  0  0  0  0  0
  -20.1903  -28.8843   19.0011 C   0  0  0  0  0  0  0  0  0  0  0  0
  -22.2637  -29.6036   23.4753 C   0  0  1  0  0  0  0  0  0  0  0  0
  -19.2393  -28.8707   21.3106 C   0  0  2  0  0  0  0  0  0  0  0  0
  -22.1346  -29.6767   25.0230 C   0  0  0  0  0  0  0  0  0  0  0  0
  -25.7690  -11.6459   20.4077 N   0  0  0  0  0  0  0  0  0  0  0  0
  -29.3075  -20.5693   20.1631 N   0  0  0  0  0  0  0  0  0  0  0  0
  -29.3905  -19.2815   20.5384 N   0  0  0  0  0  0  0  0  0  0  0  0
  -26.0261  -12.8102   19.7878 N   0  0  0  0  0  0  0  0  0  0  0  0
  -27.7272  -21.6912   18.7095 N   0  0  3  0  0  0  0  0  0  0  0  0
  -24.2402  -30.3829   22.2065 N   0  0  0  0  0  0  0  0  0  0  0  0
  -28.8454  -14.9799   21.1762 N   0  0  0  0  0  0  0  0  0  0  0  0
  -25.0509  -14.4725   18.4106 N   0  0  0  0  0  0  0  0  0  0  0  0
  -21.6963  -11.5064   18.9979 N   0  0  0  0  0  0  0  0  0  0  0  0
  -28.3346  -17.1004   20.2791 N   0  0  0  0  0  0  0  0  0  0  0  0
  -26.7366  -32.7735   23.0915 N   0  0  0  0  0  0  0  0  0  0  0  0
  -20.9882  -29.6291   22.7674 N   0  0  0  0  0  0  0  0  0  0  0  0
  -19.1751  -28.3200   19.9273 N   0  3  0  0  0  0  0  0  0  0  0  0
  -22.2824  -13.4777   17.9835 O   0  0  0  0  0  0  0  0  0  0  0  0
  -29.5943  -23.1280   17.0547 O   0  0  0  0  0  0  0  0  0  0  0  0
  -26.5683  -30.4811   23.4644 O   0  0  0  0  0  0  0  0  0  0  0  0
  -22.7043  -31.9014   23.0848 O   0  0  0  0  0  0  0  0  0  0  0  0
  -21.2667  -27.6062   21.6686 O   0  0  0  0  0  0  0  0  0  0  0  0
  -30.1614  -16.8125   21.6796 O   0  0  0  0  0  0  0  0  0  0  0  0
  -21.9414   -6.8043   21.9754 O   0  0  0  0  0  0  0  0  0  0  0  0
  -27.4847  -25.8971   19.4855 O   0  0  0  0  0  0  0  0  0  1  0  0
  -16.8474   -7.3602   24.0115 F   0  0  0  0  0  0  0  0  0  0  0  0
  -21.3769   -6.1146   24.5923 F   0  0  0  0  0  0  0  0  0  0  0  0
  1  2  1  0  0  0  0
  1  5  2  0  0  0  0
  2  6  2  0  0  0  0
  3  8  2  0  0  0  0
  3 16  1  0  0  0  0
  4  9  1  0  0  0  0
  4 16  2  0  0  0  0
  5 18  1  0  0  0  0
  6 20  1  0  0  0  0
  7 10  2  0  0  0  0
  7 19  1  0  0  0  0
  8 22  1  0  0  0  0
  9 22  2  0  0  0  0
 10 23  1  0  0  0  0
 11 12  2  0  0  0  0
 11 24  1  0  0  0  0
 12 25  1  0  0  0  0
 13 21  1  0  0  0  0
 13 23  2  0  0  0  0
 14 25  2  0  0  0  0
 14 26  1  0  0  0  0
 15 28  1  0  0  0  0
 15 29  2  0  0  0  0
 16 27  1  0  0  0  0
 17 27  1  0  0  0  0
 17 30  2  0  0  0  0
 17 33  1  0  0  0  0
 18 20  2  0  0  0  0
 18 39  1  0  0  0  0
 19 21  2  0  0  0  0
 19 40  1  0  0  0  0
 20 50  1  0  0  0  0
 21 41  1  0  0  0  0
 22 82  1  0  0  0  0
 23 83  1  0  0  0  0
 24 26  2  0  0  0  0
 24 82  1  0  0  0  0
 25 84  1  0  0  0  0
 26 85  1  0  0  0  0
 27 63  2  0  0  0  0
 28 64  2  0  0  0  0
 28 67  1  0  0  0  0
 29 65  1  0  0  0  0
 29 72  1  0  0  0  0
 30 66  1  0  0  0  0
 30 70  1  0  0  0  0
 31 32  2  0  0  0  0
 31 42  1  0  0  0  0
 31 51  1  0  0  0  0
 32 83  1  0  0  0  0
 33 71  1  0  0  0  0
 33 76  2  0  0  0  0
 34 51  1  0  0  0  0
 34 54  1  0  0  0  0
 34 77  2  0  0  0  0
 35 52  1  0  0  0  0
 35 73  1  0  0  0  0
 35 78  2  0  0  0  0
 36 60  1  0  0  0  0
 36 68  1  0  0  0  0
 36 79  2  0  0  0  0
 37 61  1  0  0  0  0
 37 74  1  0  0  0  0
 37 80  2  0  0  0  0
 38 69  1  0  0  0  0
 38 72  1  0  0  0  0
 38 81  2  0  0  0  0
 39 43  1  0  0  0  0
 40 52  1  0  0  0  0
 41 68  1  0  0  0  0
 42 47  1  0  0  0  0
 43 45  1  0  0  0  0
 44 46  1  0  0  0  0
 44 48  1  0  0  0  0
 45 50  1  0  0  0  0
 46 53  1  0  0  0  0
 47 67  1  0  0  0  0
 48 69  1  0  0  0  0
 49 53  1  0  0  0  0
 49 69  1  0  0  0  0
 50 73  1  0  0  0  0
 51 67  1  0  0  0  0
 52 68  1  0  0  0  0
 53 66  1  0  0  0  0
 55 61  1  0  0  0  0
 56 62  1  0  0  0  0
 57 62  1  0  0  0  0
 58 62  1  0  0  0  0
 59 75  1  0  0  0  0
 60 62  1  0  0  0  0
 60 74  1  0  0  0  0
 61 75  1  0  0  0  0
 63 66  1  0  0  0  0
 64 65  1  0  0  0  0
M  CHG  1  75   1
M  ISO  4  32 101  38 100  72 100  83 101
M  END
> <Batch ID>
0109

> <Smiles>
CNC(C)C(=O)NC(C(=O)N1Cc2cc([101O:1][101CH:1]=C3CCN(c4cc([100NH:0][100C:0](=O)N5CCCC(n6nc(-c7ccc(Oc8ccc(F)cc8F)cc7)c(C(N)=O)c6N)C5)[nH]n4)C3C(C)=O)ccc2CC1C(=O)NC1CCCc2ccccc21)C(C)(C)C

> <Shape>
0.317

> <Color>
0.127

> <Negative vol penalty>
0.000

$$$$

  -OEChem-04052301233D

 87 95  0     1  0  0  0  0  0999 V2000
  -16.5341  -25.9378   25.2530 C   0  0  0  0  0  0  0  0  0  0  0  0
  -17.8214  -25.4403   25.0777 C   0  0  0  0  0  0  0  0  0  0  0  0
  -22.9877  -10.4848   20.6545 C   0  0  0  0  0  0  0  0  0  0  0  0
  -24.6297   -9.0097   21.6369 C   0  0  0  0  0  0  0  0  0  0  0  0
  -16.1913  -27.1823   24.7262 C   0  0  0  0  0  0  0  0  0  0  0  0
  -18.7664  -26.1866   24.3746 C   0  0  0  0  0  0  0  0  0  0  0  0
  -23.2753  -26.2774   26.6782 C   0  0  0  0  0  0  0  0  0  0  0  0
  -22.0086   -9.5053   20.8203 C   0  0  0  0  0  0  0  0  0  0  0  0
  -23.6505   -8.0302   21.8027 C   0  0  0  0  0  0  0  0  0  0  0  0
  -24.0806  -25.1470   26.5463 C   0  0  0  0  0  0  0  0  0  0  0  0
  -21.1229   -7.3753   23.9481 C   0  0  0  0  0  0  0  0  0  0  0  0
  -21.0763   -6.7084   25.1723 C   0  0  0  0  0  0  0  0  0  0  0  0
  -26.9162  -18.3808   18.9499 C   0  0  0  0  0  0  0  0  0  0  0  0
  -28.9225  -19.7250   19.0205 C   0  0  0  0  0  0  0  0  0  0  0  0
  -25.3515  -26.2606   24.8248 C   0  0  0  0  0  0  0  0  0  0  0  0
  -21.4600   -4.6076   24.0424 C   0  0  0  0  0  0  0  0  0  0  0  0
  -24.2983  -10.2370   21.0628 C   0  0  0  0  0  0  0  0  0  0  0  0
  -28.2242  -18.6217   18.5296 C   0  0  0  0  0  0  0  0  0  0  0  0
  -26.3063  -19.2432   19.8609 C   0  0  0  0  0  0  0  0  0  0  0  0
  -25.6685  -12.2561   21.8064 C   0  0  0  0  0  0  0  0  0  0  0  0
  -17.1354  -27.9486   24.0245 C   0  0  0  0  0  0  0  0  0  0  0  0
  -23.4956  -27.4059   25.8754 C   0  0  0  0  0  0  0  0  0  0  0  0
  -18.4355  -27.4420   23.8368 C   0  0  0  0  0  0  0  0  0  0  0  0
  -24.5493  -27.4050   24.9502 C   0  0  0  0  0  0  0  0  0  0  0  0
  -28.3126  -20.5874   19.9316 C   0  0  0  0  0  0  0  0  0  0  0  0
  -22.3400   -8.2780   21.3944 C   0  0  0  0  0  0  0  0  0  0  0  0
  -25.1171  -25.1374   25.6175 C   0  0  0  0  0  0  0  0  0  0  0  0
  -21.3380   -6.6584   22.7710 C   0  0  0  0  0  0  0  0  0  0  0  0
  -27.0045  -20.3465   20.3518 C   0  0  0  0  0  0  0  0  0  0  0  0
  -21.2449   -5.3246   25.2195 C   0  0  0  0  0  0  0  0  0  0  0  0
  -21.5065   -5.2745   22.8182 C   0  0  0  0  0  0  0  0  0  0  0  0
  -25.3103  -11.2482   20.8913 C   0  0  0  0  0  0  0  0  0  0  0  0
  -26.6714  -12.9514   21.1761 C   0  0  0  0  0  0  0  0  0  0  0  0
  -24.5781  -17.8668   20.9259 C   0  0  0  0  0  0  0  0  0  0  0  0
  -24.9395  -18.9676   20.2839 C   0  0  0  0  0  0  0  0  0  0  0  0
  -28.8728  -17.7046   17.5575 C   0  0  0  0  0  0  0  0  0  0  0  0
  -25.1419  -12.5386   23.1097 C   0  0  0  0  0  0  0  0  0  0  0  0
  -21.7941  -28.9761   23.6976 C   0  0  0  0  0  0  0  0  0  0  0  0
  -24.2897  -31.0455   23.8065 C   0  0  0  0  0  0  0  0  0  0  0  0
  -27.5879  -31.5725   24.5071 C   0  0  0  0  0  0  0  0  0  0  0  0
  -28.8467  -15.3840   16.6986 C   0  0  0  0  0  0  0  0  0  0  0  0
  -16.7046  -29.2672   23.4327 C   0  0  0  0  0  0  0  0  0  0  0  0
  -22.6349  -28.6272   26.0486 C   0  0  0  0  0  0  0  0  0  0  0  0
  -24.8402  -28.5984   24.0786 C   0  0  0  0  0  0  0  0  0  0  0  0
  -17.8721  -30.1614   23.0231 C   0  0  0  0  0  0  0  0  0  0  0  0
  -29.2808  -11.8860   16.9678 C   0  0  0  0  0  0  0  0  0  0  0  0
  -18.9099  -29.3605   22.2431 C   0  0  0  0  0  0  0  0  0  0  0  0
  -28.3222  -11.4888   18.0936 C   0  0  0  0  0  0  0  0  0  0  0  0
  -28.6943  -12.9869   16.0852 C   0  0  0  0  0  0  0  0  0  0  0  0
  -27.2628  -13.7764   17.9251 C   0  0  0  0  0  0  0  0  0  0  0  0
  -19.4956  -28.2328   23.1014 C   0  0  1  0  0  0  0  0  0  0  0  0
  -22.6256  -29.5308   24.8194 C   0  0  1  0  0  0  0  0  0  0  0  0
  -27.8363  -12.7204   18.8838 C   0  0  1  0  0  0  0  0  0  0  0  0
  -29.3508  -33.3579   24.4608 C   0  0  0  0  0  0  0  0  0  0  0  0
  -24.5008  -30.7552   20.7765 C   0  0  0  0  0  0  0  0  0  0  0  0
  -26.7901  -31.7600   20.9096 C   0  0  0  0  0  0  0  0  0  0  0  0
  -24.8034  -33.0883   21.6245 C   0  0  0  0  0  0  0  0  0  0  0  0
  -28.0105  -31.3936   27.4308 C   0  0  0  0  0  0  0  0  0  0  0  0
  -25.9775  -21.6830   24.9449 C   0  0  0  0  0  0  0  0  0  0  0  0
  -25.8602  -21.9581   23.4498 C   0  0  0  0  0  0  0  0  0  0  0  0
  -25.3050  -22.7716   25.7708 C   0  0  0  0  0  0  0  0  0  1  0  0
  -26.5690  -20.8932   22.6249 C   0  0  0  0  0  0  0  0  0  0  0  0
  -25.6026  -31.1766   23.0731 C   0  0  1  0  0  0  0  0  0  0  0  0
  -28.2880  -32.6630   25.2977 C   0  0  2  0  0  0  0  0  0  0  0  0
  -25.4178  -31.6717   21.6108 C   0  0  0  0  0  0  0  0  0  0  0  0
  -26.0272  -11.2955   19.7653 N   0  0  0  0  0  0  0  0  0  0  0  0
  -26.8459  -12.3416   19.9687 N   0  0  0  0  0  0  0  0  0  0  0  0
  -23.9668  -29.7662   24.2808 N   0  0  0  0  0  0  0  0  0  0  0  0
  -28.2675  -14.1203   16.9076 N   0  0  0  0  0  0  0  0  0  0  0  0
  -29.0327  -21.7002   20.4191 N   0  0  0  0  0  0  0  0  0  0  0  0
  -27.4122  -14.0189   21.5425 N   0  0  0  0  0  0  0  0  0  0  0  0
  -24.1137  -11.7254   23.6055 N   0  0  0  0  0  0  0  0  0  0  0  0
  -28.4031  -16.3909   17.5631 N   0  0  0  0  0  0  0  0  0  0  0  0
  -20.4708  -28.7601   24.0317 N   0  0  0  0  0  0  0  0  0  0  0  0
  -26.4445  -32.0399   23.8943 N   0  0  0  0  0  0  0  0  0  0  0  0
  -28.9435  -32.0873   26.5060 N   0  3  0  0  0  0  0  0  0  0  0  0
  -29.7310  -18.1471   16.7988 O   0  0  0  0  0  0  0  0  0  0  0  0
  -25.5592  -13.4942   23.8069 O   0  0  0  0  0  0  0  0  0  0  0  0
  -22.3142  -28.7614   22.6090 O   0  0  0  0  0  0  0  0  0  0  0  0
  -23.5802  -32.0430   23.9594 O   0  0  0  0  0  0  0  0  0  0  0  0
  -28.0148  -30.4222   24.4368 O   0  0  0  0  0  0  0  0  0  0  0  0
  -29.7120  -15.5899   15.8417 O   0  0  0  0  0  0  0  0  0  0  0  0
  -21.3847   -7.3220   21.5565 O   0  0  0  0  0  0  0  0  0  0  0  0
  -25.9042  -24.0350   25.4863 O   0  0  0  0  0  0  0  0  0  1  0  0
  -26.4103  -21.1984   21.2463 O   0  0  0  0  0  0  0  0  0  0  0  0
  -21.2017   -4.6844   26.3953 F   0  0  0  0  0  0  0  0  0  0  0  0
  -21.7146   -4.5806   21.6909 F   0  0  0  0  0  0  0  0  0  0  0  0
  1  2  1  0  0  0  0
  1  5  2  0  0  0  0
  2  6  2  0  0  0  0
  3  8  2  0  0  0  0
  3 17  1  0  0  0  0
  4  9  1  0  0  0  0
  4 17  2  0  0  0  0
  5 21  1  0  0  0  0
  6 23  1  0  0  0  0
  7 10  2  0  0  0  0
  7 22  1  0  0  0  0
  8 26  1  0  0  0  0
  9 26  2  0  0  0  0
 10 27  1  0  0  0  0
 11 12  2  0  0  0  0
 11 28  1  0  0  0  0
 12 30  1  0  0  0  0
 13 18  2  0  0  0  0
 13 19  1  0  0  0  0
 14 18  1  0  0  0  0
 14 25  2  0  0  0  0
 15 24  1  0  0  0  0
 15 27  2  0  0  0  0
 16 30  2  0  0  0  0
 16 31  1  0  0  0  0
 17 32  1  0  0  0  0
 18 36  1  0  0  0  0
 19 29  2  0  0  0  0
 19 35  1  0  0  0  0
 20 32  1  0  0  0  0
 20 33  2  0  0  0  0
 20 37  1  0  0  0  0
 21 23  2  0  0  0  0
 21 42  1  0  0  0  0
 22 24  2  0  0  0  0
 22 43  1  0  0  0  0
 23 51  1  0  0  0  0
 24 44  1  0  0  0  0
 25 29  1  0  0  0  0
 25 70  1  0  0  0  0
 26 83  1  0  0  0  0
 27 84  1  0  0  0  0
 28 31  2  0  0  0  0
 28 83  1  0  0  0  0
 29 85  1  0  0  0  0
 30 86  1  0  0  0  0
 31 87  1  0  0  0  0
 32 66  2  0  0  0  0
 33 67  1  0  0  0  0
 33 71  1  0  0  0  0
 34 35  2  0  0  0  0
 36 73  1  0  0  0  0
 36 77  2  0  0  0  0
 37 72  1  0  0  0  0
 37 78  2  0  0  0  0
 38 52  1  0  0  0  0
 38 74  1  0  0  0  0
 38 79  2  0  0  0  0
 39 63  1  0  0  0  0
 39 68  1  0  0  0  0
 39 80  2  0  0  0  0
 40 64  1  0  0  0  0
 40 75  1  0  0  0  0
 40 81  2  0  0  0  0
 41 69  1  0  0  0  0
 41 73  1  0  0  0  0
 41 82  2  0  0  0  0
 42 45  1  0  0  0  0
 43 52  1  0  0  0  0
 44 68  1  0  0  0  0
 45 47  1  0  0  0  0
 46 48  1  0  0  0  0
 46 49  1  0  0  0  0
 47 51  1  0  0  0  0
 48 53  1  0  0  0  0
 49 69  1  0  0  0  0
 50 53  1  0  0  0  0
 50 69  1  0  0  0  0
 51 74  1  0  0  0  0
 52 68  1  0  0  0  0
 53 67  1  0  0  0  0
 54 64  1  0  0  0  0
 55 65  1  0  0  0  0
 56 65  1  0  0  0  0
 57 65  1  0  0  0  0
 58 76  1  0  0  0  0
 59 60  1  0  0  0  0
 59 61  1  0  0  0  0
 60 62  1  0  0  0  0
 61 84  1  0  0  0  0
 62 85  1  0  0  0  0
 63 65  1  0  0  0  0
 63 75  1  0  0  0  0
 64 76  1  0  0  0  0
 66 67  1  0  0  0  0
M  CHG  1  76   1
M  ISO  4  41 100  61 101  73 100  84 101
M  END
> <Batch ID>
0109

> <Smiles>
C=Cc1cc(C(=O)[100NH:0][100C:0](=O)N2CCCC(n3nc(-c4ccc(Oc5ccc(F)cc5F)cc4)c(C(N)=O)c3N)C2)cc(N)c1OCCC[101CH2:1][101O:1]c1ccc2c(c1)CN(C(=O)C(NC(=O)C(C)NC)C(C)(C)C)C(C(=O)NC1CCCc3ccccc31)C2

> <Shape>
0.287

> <Color>
0.090

> <Negative vol penalty>
0.000

$$$$

  -OEChem-04052301233D

 84 92  0     1  0  0  0  0  0999 V2000
  -28.1277  -33.0077   14.0371 C   0  0  0  0  0  0  0  0  0  0  0  0
  -28.0554  -31.6247   14.1693 C   0  0  0  0  0  0  0  0  0  0  0  0
  -22.7588  -10.6749   21.3436 C   0  0  0  0  0  0  0  0  0  0  0  0
  -24.7560   -9.3155   21.3436 C   0  0  0  0  0  0  0  0  0  0  0  0
  -27.9401  -33.8241   15.1516 C   0  0  0  0  0  0  0  0  0  0  0  0
  -27.7964  -31.0573   15.4165 C   0  0  0  0  0  0  0  0  0  0  0  0
  -24.5810  -25.9699   16.5504 C   0  0  0  0  0  0  0  0  0  0  0  0
  -30.3362  -16.5801   23.3905 C   0  0  0  0  0  0  0  0  0  0  0  0
  -21.9748   -9.5232   21.2773 C   0  0  0  0  0  0  0  0  0  0  0  0
  -23.9720   -8.1637   21.2773 C   0  0  0  0  0  0  0  0  0  0  0  0
  -24.9656  -24.6531   16.7993 C   0  0  0  0  0  0  0  0  0  0  0  0
  -29.9895  -17.9092   23.1483 C   0  0  0  0  0  0  0  0  0  0  0  0
  -21.0041   -7.3036   18.9203 C   0  0  0  0  0  0  0  0  0  0  0  0
  -19.9420   -7.2947   18.0162 C   0  0  0  0  0  0  0  0  0  0  0  0
  -30.0933  -17.5027   20.7690 C   0  0  0  0  0  0  0  0  0  0  0  0
  -24.8096  -25.0624   19.1715 C   0  0  0  0  0  0  0  0  0  0  0  0
  -18.3940   -6.9458   19.8381 C   0  0  0  0  0  0  0  0  0  0  0  0
  -24.1494  -10.5711   21.3767 C   0  0  0  0  0  0  0  0  0  0  0  0
  -30.4401  -16.1735   21.0113 C   0  0  0  0  0  0  0  0  0  0  0  0
  -25.4081  -12.4186   22.6055 C   0  0  0  0  0  0  0  0  0  0  0  0
  -27.6691  -33.2668   16.4111 C   0  0  0  0  0  0  0  0  0  0  0  0
  -24.3179  -26.8474   17.6121 C   0  0  0  0  0  0  0  0  0  0  0  0
  -27.6063  -31.8670   16.5491 C   0  0  0  0  0  0  0  0  0  0  0  0
  -24.4194  -26.3890   18.9334 C   0  0  0  0  0  0  0  0  0  0  0  0
  -30.5616  -15.7122   22.3220 C   0  0  0  0  0  0  0  0  0  0  0  0
  -22.5814   -8.2676   21.2442 C   0  0  0  0  0  0  0  0  0  0  0  0
  -29.8680  -18.3705   21.8375 C   0  0  0  0  0  0  0  0  0  0  0  0
  -25.0828  -24.2000   18.1100 C   0  0  0  0  0  0  0  0  0  0  0  0
  -20.7612   -7.1335   20.2833 C   0  0  0  0  0  0  0  0  0  0  0  0
  -18.6370   -7.1158   18.4750 C   0  0  0  0  0  0  0  0  0  0  0  0
  -19.4562   -6.9547   20.7422 C   0  0  0  0  0  0  0  0  0  0  0  0
  -24.9599  -11.7605   21.4446 C   0  0  0  0  0  0  0  0  0  0  0  0
  -26.1352  -13.4853   22.1364 C   0  0  0  0  0  0  0  0  0  0  0  0
  -30.6705  -15.2923   19.8735 C   0  0  0  0  0  0  0  0  0  0  0  0
  -25.1871  -12.0947   23.9846 C   0  0  0  0  0  0  0  0  0  0  0  0
  -29.9638  -15.4957   18.5880 C   0  0  0  0  0  0  0  0  0  0  0  0
  -25.5833  -29.5799   18.6299 C   0  0  0  0  0  0  0  0  0  0  0  0
  -23.0938  -29.5069   20.7082 C   0  0  0  0  0  0  0  0  0  0  0  0
  -20.7703  -27.6502   22.3819 C   0  0  0  0  0  0  0  0  0  0  0  0
  -27.5204  -34.1882   17.5959 C   0  0  0  0  0  0  0  0  0  0  0  0
  -23.8781  -28.2571   17.3265 C   0  0  0  0  0  0  0  0  0  0  0  0
  -24.1284  -27.2855   20.1082 C   0  0  0  0  0  0  0  0  0  0  0  0
  -26.8787  -33.5209   18.8096 C   0  0  0  0  0  0  0  0  0  0  0  0
  -26.5527  -15.4099   17.4864 C   0  0  0  0  0  0  0  0  0  0  0  0
  -27.5158  -32.1595   19.0694 C   0  0  0  0  0  0  0  0  0  0  0  0
  -25.8805  -14.4752   18.4915 C   0  0  0  0  0  0  0  0  0  0  0  0
  -27.9904  -14.9857   17.2045 C   0  0  0  0  0  0  0  0  0  0  0  0
  -28.1667  -13.9333   19.4428 C   0  0  0  0  0  0  0  0  0  0  0  0
  -27.3027  -31.2147   17.8805 C   0  0  1  0  0  0  0  0  0  0  0  0
  -24.1336  -29.2101   18.4901 C   0  0  1  0  0  0  0  0  0  0  0  0
  -26.7219  -14.3461   19.7737 C   0  0  2  0  0  0  0  0  0  0  0  0
  -18.8971  -27.8661   24.0376 C   0  0  0  0  0  0  0  0  0  0  0  0
  -25.1257  -29.8442   22.9594 C   0  0  0  0  0  0  0  0  0  0  0  0
  -23.3573  -29.1083   24.5717 C   0  0  0  0  0  0  0  0  0  0  0  0
  -23.0340  -31.1877   23.2321 C   0  0  0  0  0  0  0  0  0  0  0  0
  -18.7903  -26.5884   20.4554 C   0  0  0  0  0  0  0  0  0  0  0  0
  -27.9126  -21.1637   20.6039 C   0  0  0  0  0  0  0  0  0  0  0  0
  -27.0981  -21.4743   19.3529 C   0  0  0  0  0  0  0  0  0  0  0  0
  -28.8006  -19.9422   20.4070 C   0  0  0  0  0  0  0  0  0  0  0  0
  -26.1786  -22.6690   19.5630 C   0  0  0  0  0  0  0  0  0  1  0  0
  -22.8700  -28.9386   22.0888 C   0  0  1  0  0  0  0  0  0  0  0  0
  -19.2748  -27.8352   22.5648 C   0  0  2  0  0  0  0  0  0  0  0  0
  -23.6041  -29.7531   23.1911 C   0  0  0  0  0  0  0  0  0  0  0  0
  -25.3679  -12.3591   20.3224 N   0  0  0  0  0  0  0  0  0  0  0  0
  -31.4990  -14.2858   19.9068 N   0  0  0  0  0  0  0  0  0  0  0  0
  -26.0801  -13.4046   20.7760 N   0  0  0  0  0  0  0  0  0  0  0  0
  -28.7505  -14.8375   18.4440 N   0  0  0  0  0  0  0  0  0  0  0  0
  -23.7080  -28.6571   19.7775 N   0  0  0  0  0  0  0  0  0  0  0  0
  -30.9141  -14.3705   22.5886 N   0  0  0  0  0  0  0  0  0  0  0  0
  -26.8098  -14.4751   22.7590 N   0  0  0  0  0  0  0  0  0  0  0  0
  -24.4168  -10.9644   24.2902 N   0  0  0  0  0  0  0  0  0  0  0  0
  -25.9555  -30.6861   17.8901 N   0  0  0  0  0  0  0  0  0  0  0  0
  -21.4243  -28.8587   22.2679 N   0  0  0  0  0  0  0  0  0  0  0  0
  -18.5313  -26.7206   21.9123 N   0  3  0  0  0  0  0  0  0  0  0  0
  -25.6450  -12.7963   24.9181 O   0  0  0  0  0  0  0  0  0  0  0  0
  -30.5292  -16.2266   17.7852 O   0  0  0  0  0  0  0  0  0  0  0  0
  -26.3098  -28.9120   19.3563 O   0  0  0  0  0  0  0  0  0  0  0  0
  -22.7303  -30.6598   20.4626 O   0  0  0  0  0  0  0  0  0  0  0  0
  -21.3055  -26.5443   22.3475 O   0  0  0  0  0  0  0  0  0  0  0  0
  -21.8166   -7.1435   21.1798 O   0  0  0  0  0  0  0  0  0  0  0  0
  -29.5266  -19.6764   21.5998 O   0  0  0  0  0  0  0  0  0  0  0  0
  -25.4587  -22.9154   18.3558 O   0  0  0  0  0  0  0  0  0  1  0  0
  -17.6170   -7.1088   17.6068 F   0  0  0  0  0  0  0  0  0  0  0  0
  -19.2165   -6.7920   22.0506 F   0  0  0  0  0  0  0  0  0  0  0  0
  1  2  1  0  0  0  0
  1  5  2  0  0  0  0
  2  6  2  0  0  0  0
  3  9  2  0  0  0  0
  3 18  1  0  0  0  0
  4 10  1  0  0  0  0
  4 18  2  0  0  0  0
  5 21  1  0  0  0  0
  6 23  1  0  0  0  0
  7 11  2  0  0  0  0
  7 22  1  0  0  0  0
  8 12  2  0  0  0  0
  8 25  1  0  0  0  0
  9 26  1  0  0  0  0
 10 26  2  0  0  0  0
 11 28  1  0  0  0  0
 12 27  1  0  0  0  0
 13 14  2  0  0  0  0
 13 29  1  0  0  0  0
 14 30  1  0  0  0  0
 15 19  1  0  0  0  0
 15 27  2  0  0  0  0
 16 24  1  0  0  0  0
 16 28  2  0  0  0  0
 17 30  2  0  0  0  0
 17 31  1  0  0  0  0
 18 32  1  0  0  0  0
 19 25  2  0  0  0  0
 19 34  1  0  0  0  0
 20 32  1  0  0  0  0
 20 33  2  0  0  0  0
 20 35  1  0  0  0  0
 21 23  2  0  0  0  0
 21 40  1  0  0  0  0
 22 24  2  0  0  0  0
 22 41  1  0  0  0  0
 23 49  1  0  0  0  0
 24 42  1  0  0  0  0
 25 69  1  0  0  0  0
 26 80  1  0  0  0  0
 27 81  1  0  0  0  0
 28 82  1  0  0  0  0
 29 31  2  0  0  0  0
 29 80  1  0  0  0  0
 30 83  1  0  0  0  0
 31 84  1  0  0  0  0
 32 64  2  0  0  0  0
 33 66  1  0  0  0  0
 33 70  1  0  0  0  0
 34 36  1  0  0  0  0
 34 65  2  0  0  0  0
 35 71  1  0  0  0  0
 35 75  2  0  0  0  0
 36 67  1  0  0  0  0
 36 76  2  0  0  0  0
 37 50  1  0  0  0  0
 37 72  1  0  0  0  0
 37 77  2  0  0  0  0
 38 61  1  0  0  0  0
 38 68  1  0  0  0  0
 38 78  2  0  0  0  0
 39 62  1  0  0  0  0
 39 73  1  0  0  0  0
 39 79  2  0  0  0  0
 40 43  1  0  0  0  0
 41 50  1  0  0  0  0
 42 68  1  0  0  0  0
 43 45  1  0  0  0  0
 44 46  1  0  0  0  0
 44 47  1  0  0  0  0
 45 49  1  0  0  0  0
 46 51  1  0  0  0  0
 47 67  1  0  0  0  0
 48 51  1  0  0  0  0
 48 67  1  0  0  0  0
 49 72  1  0  0  0  0
 50 68  1  0  0  0  0
 51 66  1  0  0  0  0
 52 62  1  0  0  0  0
 53 63  1  0  0  0  0
 54 63  1  0  0  0  0
 55 63  1  0  0  0  0
 56 74  1  0  0  0  0
 57 58  1  0  0  0  0
 57 59  1  0  0  0  0
 58 60  1  0  0  0  0
 59 81  1  0  0  0  0
 60 82  1  0  0  0  0
 61 63  1  0  0  0  0
 61 73  1  0  0  0  0
 62 74  1  0  0  0  0
 64 66  1  0  0  0  0
M  CHG  1  74   1
M  ISO  4  34 100  36 100  60 101  82 101
M  END
> <Batch ID>
0109

> <Smiles>
CNC(C)C(=O)NC(C(=O)N1Cc2cc([101O:1][101CH2:1]CCCOc3ccc(N)c([100C:0](=N)[100C:0](=O)N4CCCC(n5nc(-c6ccc(Oc7ccc(F)cc7F)cc6)c(C(N)=O)c5N)C4)c3)ccc2CC1C(=O)NC1CCCc2ccccc21)C(C)(C)C

> <Shape>
0.229

> <Color>
0.080

> <Negative vol penalty>
0.000

$$$$

  -OEChem-04052301233D

 89 98  0     1  0  0  0  0  0999 V2000
  -18.7866  -31.4203   26.1822 C   0  0  0  0  0  0  0  0  0  0  0  0
  -18.4360  -31.1816   24.8573 C   0  0  0  0  0  0  0  0  0  0  0  0
  -23.1252  -10.0800   22.0690 C   0  0  0  0  0  0  0  0  0  0  0  0
  -23.7946   -9.4856   19.8250 C   0  0  0  0  0  0  0  0  0  0  0  0
  -28.1350  -18.9252   15.8175 C   0  0  0  0  0  0  0  0  0  0  0  0
  -20.1052  -31.7361   26.5072 C   0  0  0  0  0  0  0  0  0  0  0  0
  -19.4036  -31.2596   23.8563 C   0  0  0  0  0  0  0  0  0  0  0  0
  -20.8305  -25.6040   19.6291 C   0  0  0  0  0  0  0  0  0  0  0  0
  -27.0206  -19.6731   15.4377 C   0  0  0  0  0  0  0  0  0  0  0  0
  -22.3889   -8.8991   22.1622 C   0  0  0  0  0  0  0  0  0  0  0  0
  -23.0583   -8.3045   19.9182 C   0  0  0  0  0  0  0  0  0  0  0  0
  -21.0129  -24.6342   18.6430 C   0  0  0  0  0  0  0  0  0  0  0  0
  -22.9982   -5.6220   22.7298 C   0  0  0  0  0  0  0  0  0  0  0  0
  -23.1168   -4.8749   23.9018 C   0  0  0  0  0  0  0  0  0  0  0  0
  -22.7452  -25.9798   17.6249 C   0  0  0  0  0  0  0  0  0  0  0  0
  -25.6976  -18.5584   17.1243 C   0  0  0  0  0  0  0  0  0  0  0  0
  -20.7460   -5.1194   24.2976 C   0  0  0  0  0  0  0  0  0  0  0  0
  -23.8280  -10.3733   20.9003 C   0  0  0  0  0  0  0  0  0  0  0  0
  -28.0307  -17.9938   16.8506 C   0  0  0  0  0  0  0  0  0  0  0  0
  -24.1012  -12.9096   20.9126 C   0  0  0  0  0  0  0  0  0  0  0  0
  -21.0914  -31.8085   25.5108 C   0  0  0  0  0  0  0  0  0  0  0  0
  -21.6164  -26.7597   19.6257 C   0  0  0  0  0  0  0  0  0  0  0  0
  -20.7363  -31.5780   24.1680 C   0  0  0  0  0  0  0  0  0  0  0  0
  -22.5756  -26.9489   18.6173 C   0  0  0  0  0  0  0  0  0  0  0  0
  -25.8019  -19.4898   16.0911 C   0  0  0  0  0  0  0  0  0  0  0  0
  -22.3554   -8.0113   21.0869 C   0  0  0  0  0  0  0  0  0  0  0  0
  -21.9677  -24.8218   17.6432 C   0  0  0  0  0  0  0  0  0  0  0  0
  -21.7535   -6.1178   22.3418 C   0  0  0  0  0  0  0  0  0  0  0  0
  -21.9907   -4.6236   24.6856 C   0  0  0  0  0  0  0  0  0  0  0  0
  -26.8121  -17.8104   17.5040 C   0  0  0  0  0  0  0  0  0  0  0  0
  -20.6274   -5.8665   23.1256 C   0  0  0  0  0  0  0  0  0  0  0  0
  -24.5884  -11.5934   20.8032 C   0  0  0  0  0  0  0  0  0  0  0  0
  -25.2115  -13.7014   20.7487 C   0  0  0  0  0  0  0  0  0  0  0  0
  -22.7184  -21.5836   16.2367 C   0  0  0  0  0  0  0  0  0  0  0  0
  -23.9547  -21.1234   16.5473 C   0  0  0  0  0  0  0  0  0  0  0  0
  -22.0795  -21.0944   14.9689 C   0  0  0  0  0  0  0  0  0  0  0  0
  -29.2201  -17.1990   17.2514 C   0  0  0  0  0  0  0  0  0  0  0  0
  -22.7646  -13.3750   21.1420 C   0  0  0  0  0  0  0  0  0  0  0  0
  -22.4497  -30.0171   21.2904 C   0  0  0  0  0  0  0  0  0  0  0  0
  -25.1067  -28.7585   20.4147 C   0  0  0  0  0  0  0  0  0  0  0  0
  -28.3592  -27.7757   20.1099 C   0  0  0  0  0  0  0  0  0  0  0  0
  -29.9282  -15.0050   18.1505 C   0  0  0  0  0  0  0  0  0  0  0  0
  -22.4937  -32.1998   25.9046 C   0  0  0  0  0  0  0  0  0  0  0  0
  -21.4121  -27.8590   20.6325 C   0  0  0  0  0  0  0  0  0  0  0  0
  -23.3743  -28.2236   18.6335 C   0  0  0  0  0  0  0  0  0  0  0  0
  -22.7799  -20.0158   14.1782 C   0  0  0  0  0  0  0  0  0  0  0  0
  -23.5354  -31.8946   24.8313 C   0  0  0  0  0  0  0  0  0  0  0  0
  -30.1306  -12.4999   20.6366 C   0  0  0  0  0  0  0  0  0  0  0  0
  -23.0461  -32.3624   23.4643 C   0  0  0  0  0  0  0  0  0  0  0  0
  -28.6664  -12.1521   20.9188 C   0  0  0  0  0  0  0  0  0  0  0  0
  -24.2903  -20.1242   14.2930 C   0  0  0  0  0  0  0  0  0  0  0  0
  -30.3712  -12.7819   19.1542 C   0  0  0  0  0  0  0  0  0  0  0  0
  -28.0183  -13.4314   18.8386 C   0  0  0  0  0  0  0  0  0  0  0  0
  -21.7626  -31.6288   23.0570 C   0  0  1  0  0  0  0  0  0  0  0  0
  -22.7212  -28.5646   21.0296 C   0  0  1  0  0  0  0  0  0  0  0  0
  -27.7103  -13.2077   20.3280 C   0  0  1  0  0  0  0  0  0  0  0  0
  -24.6641  -21.6384   17.7848 C   0  0  0  0  0  0  0  0  0  0  0  0
  -30.6861  -28.6967   19.9247 C   0  0  0  0  0  0  0  0  0  0  0  0
  -24.5736  -29.5112   17.5073 C   0  0  0  0  0  0  0  0  0  0  0  0
  -27.0481  -29.5057   17.1262 C   0  0  0  0  0  0  0  0  0  0  0  0
  -26.0412  -31.1121   18.7475 C   0  0  0  0  0  0  0  0  0  0  0  0
  -29.2154  -26.4281   22.6018 C   0  0  0  0  0  0  0  0  0  0  0  0
  -21.8770  -22.5177   17.0596 C   0  0  0  0  0  0  0  0  0  1  0  0
  -26.1695  -28.6600   19.3497 C   0  0  1  0  0  0  0  0  0  0  0  0
  -29.6099  -28.1823   20.8680 C   0  0  2  0  0  0  0  0  0  0  0  0
  -25.9449  -29.6741   18.1928 C   0  0  0  0  0  0  0  0  0  0  0  0
  -25.9055  -11.5474   20.5864 N   0  0  0  0  0  0  0  0  0  0  0  0
  -26.2554  -12.8447   20.5581 N   0  0  0  0  0  0  0  0  0  0  0  0
  -24.6682  -20.2506   15.7050 N   0  0  0  0  0  0  0  0  0  0  0  0
  -23.7838  -28.5424   20.0102 N   0  0  0  0  0  0  0  0  0  0  0  0
  -29.4330  -13.7981   18.6743 N   0  0  0  0  0  0  0  0  0  0  0  0
  -25.3868  -15.0400   20.7503 N   0  0  0  0  0  0  0  0  0  0  0  0
  -21.9426  -13.6192   20.0334 N   0  0  0  0  0  0  0  0  0  0  0  0
  -28.9517  -15.9275   17.7590 N   0  0  0  0  0  0  0  0  0  0  0  0
  -22.0699  -30.2940   22.5898 N   0  0  0  0  0  0  0  0  0  0  0  0
  -27.4489  -28.8087   20.0348 N   0  0  0  0  0  0  0  0  0  0  0  0
  -30.1607  -27.0196   21.6201 N   0  3  0  0  0  0  0  0  0  0  0  0
  -20.9827  -21.5220   14.6097 O   0  0  0  0  0  0  0  0  0  0  0  0
  -30.3404  -17.6726   17.0825 O   0  0  0  0  0  0  0  0  0  0  0  0
  -22.3179  -13.5842   22.2954 O   0  0  0  0  0  0  0  0  0  0  0  0
  -22.5767  -30.8283   20.3807 O   0  0  0  0  0  0  0  0  0  0  0  0
  -25.4371  -29.0254   21.5736 O   0  0  0  0  0  0  0  0  0  0  0  0
  -28.2066  -26.6550   19.6288 O   0  0  0  0  0  0  0  0  0  0  0  0
  -31.1351  -15.2555   18.0734 O   0  0  0  0  0  0  0  0  0  0  0  0
  -21.6372   -6.8587   21.1776 O   0  0  0  0  0  0  0  0  0  0  0  0
  -22.1436  -23.8689   16.6862 O   0  0  0  0  0  0  0  0  0  1  0  0
  -22.1045   -3.9049   25.8102 F   0  0  0  0  0  0  0  0  0  0  0  0
  -26.7003  -16.9162   18.4965 F   0  0  0  0  0  0  0  0  0  0  0  0
  -19.4288   -6.3393   22.7573 F   0  0  0  0  0  0  0  0  0  0  0  0
  1  2  1  0  0  0  0
  1  6  2  0  0  0  0
  2  7  2  0  0  0  0
  3 10  2  0  0  0  0
  3 18  1  0  0  0  0
  4 11  1  0  0  0  0
  4 18  2  0  0  0  0
  5  9  2  0  0  0  0
  5 19  1  0  0  0  0
  6 21  1  0  0  0  0
  7 23  1  0  0  0  0
  8 12  2  0  0  0  0
  8 22  1  0  0  0  0
  9 25  1  0  0  0  0
 10 26  1  0  0  0  0
 11 26  2  0  0  0  0
 12 27  1  0  0  0  0
 13 14  2  0  0  0  0
 13 28  1  0  0  0  0
 14 29  1  0  0  0  0
 15 24  1  0  0  0  0
 15 27  2  0  0  0  0
 16 25  2  0  0  0  0
 16 30  1  0  0  0  0
 17 29  2  0  0  0  0
 17 31  1  0  0  0  0
 18 32  1  0  0  0  0
 19 30  2  0  0  0  0
 19 37  1  0  0  0  0
 20 32  1  0  0  0  0
 20 33  2  0  0  0  0
 20 38  1  0  0  0  0
 21 23  2  0  0  0  0
 21 43  1  0  0  0  0
 22 24  2  0  0  0  0
 22 44  1  0  0  0  0
 23 54  1  0  0  0  0
 24 45  1  0  0  0  0
 25 69  1  0  0  0  0
 26 85  1  0  0  0  0
 27 86  1  0  0  0  0
 28 31  2  0  0  0  0
 28 85  1  0  0  0  0
 29 87  1  0  0  0  0
 30 88  1  0  0  0  0
 31 89  1  0  0  0  0
 32 67  2  0  0  0  0
 33 68  1  0  0  0  0
 33 72  1  0  0  0  0
 34 35  2  0  0  0  0
 34 36  1  0  0  0  0
 34 63  1  0  0  0  0
 35 57  1  0  0  0  0
 35 69  1  0  0  0  0
 36 46  1  0  0  0  0
 36 78  2  0  0  0  0
 37 74  1  0  0  0  0
 37 79  2  0  0  0  0
 38 73  1  0  0  0  0
 38 80  2  0  0  0  0
 39 55  1  0  0  0  0
 39 75  1  0  0  0  0
 39 81  2  0  0  0  0
 40 64  1  0  0  0  0
 40 70  1  0  0  0  0
 40 82  2  0  0  0  0
 41 65  1  0  0  0  0
 41 76  1  0  0  0  0
 41 83  2  0  0  0  0
 42 71  1  0  0  0  0
 42 74  1  0  0  0  0
 42 84  2  0  0  0  0
 43 47  1  0  0  0  0
 44 55  1  0  0  0  0
 45 70  1  0  0  0  0
 46 51  1  0  0  0  0
 47 49  1  0  0  0  0
 48 50  1  0  0  0  0
 48 52  1  0  0  0  0
 49 54  1  0  0  0  0
 50 56  1  0  0  0  0
 51 69  1  0  0  0  0
 52 71  1  0  0  0  0
 53 56  1  0  0  0  0
 53 71  1  0  0  0  0
 54 75  1  0  0  0  0
 55 70  1  0  0  0  0
 56 68  1  0  0  0  0
 58 65  1  0  0  0  0
 59 66  1  0  0  0  0
 60 66  1  0  0  0  0
 61 66  1  0  0  0  0
 62 77  1  0  0  0  0
 63 86  1  0  0  0  0
 64 66  1  0  0  0  0
 64 76  1  0  0  0  0
 65 77  1  0  0  0  0
 67 68  1  0  0  0  0
M  CHG  1  77   1
M  ISO  4  42 100  63 101  74 100  86 101
M  END
> <Batch ID>
0109

> <Smiles>
CNC(C)C(=O)NC(C(=O)N1Cc2cc([101O:1][101CH2:1]C3=C(C)N(c4ccc(C(=O)[100NH:0][100C:0](=O)N5CCCC(n6nc(-c7ccc(Oc8ccc(F)cc8F)cc7)c(C(N)=O)c6N)C5)c(F)c4)CCC3=O)ccc2CC1C(=O)NC1CCCc2ccccc21)C(C)(C)C

> <Shape>
0.246

> <Color>
0.176

> <Negative vol penalty>
0.000

$$$$

  -OEChem-04052301233D

 89 98  0     1  0  0  0  0  0999 V2000
  -30.2912  -33.8799   15.0695 C   0  0  0  0  0  0  0  0  0  0  0  0
  -30.0807  -32.5057   15.1209 C   0  0  0  0  0  0  0  0  0  0  0  0
  -23.3981   -9.7743   19.8168 C   0  0  0  0  0  0  0  0  0  0  0  0
  -23.8094   -9.8603   22.1960 C   0  0  0  0  0  0  0  0  0  0  0  0
  -30.3456  -34.6202   16.2497 C   0  0  0  0  0  0  0  0  0  0  0  0
  -29.9255  -31.8708   16.3527 C   0  0  0  0  0  0  0  0  0  0  0  0
  -26.3320  -27.0692   17.5926 C   0  0  0  0  0  0  0  0  0  0  0  0
  -22.7409   -8.5542   19.9745 C   0  0  0  0  0  0  0  0  0  0  0  0
  -23.1521   -8.6402   22.3537 C   0  0  0  0  0  0  0  0  0  0  0  0
  -26.5944  -25.7041   17.6998 C   0  0  0  0  0  0  0  0  0  0  0  0
  -19.7029   -7.4747   20.9936 C   0  0  0  0  0  0  0  0  0  0  0  0
  -18.4920   -7.2994   20.3239 C   0  0  0  0  0  0  0  0  0  0  0  0
  -28.6522  -17.9491   18.1758 C   0  0  0  0  0  0  0  0  0  0  0  0
  -26.7994  -25.9375   20.0920 C   0  0  0  0  0  0  0  0  0  0  0  0
  -27.1630  -15.8815   17.0400 C   0  0  0  0  0  0  0  0  0  0  0  0
  -19.4250   -5.4181   19.1292 C   0  0  0  0  0  0  0  0  0  0  0  0
  -23.9324  -10.4274   20.9275 C   0  0  0  0  0  0  0  0  0  0  0  0
  -29.2990  -16.8283   17.6552 C   0  0  0  0  0  0  0  0  0  0  0  0
  -24.0419  -12.9737   20.8174 C   0  0  0  0  0  0  0  0  0  0  0  0
  -30.1813  -33.9956   17.4961 C   0  0  0  0  0  0  0  0  0  0  0  0
  -26.3120  -27.8820   18.7351 C   0  0  0  0  0  0  0  0  0  0  0  0
  -29.9790  -32.6033   17.5507 C   0  0  0  0  0  0  0  0  0  0  0  0
  -26.5339  -27.3122   19.9969 C   0  0  0  0  0  0  0  0  0  0  0  0
  -27.2609  -18.0362   18.1286 C   0  0  0  0  0  0  0  0  0  0  0  0
  -28.5544  -15.7945   17.0873 C   0  0  0  0  0  0  0  0  0  0  0  0
  -22.6178   -7.9871   21.2429 C   0  0  0  0  0  0  0  0  0  0  0  0
  -26.8310  -25.1386   18.9493 C   0  0  0  0  0  0  0  0  0  0  0  0
  -20.7750   -6.6218   20.7310 C   0  0  0  0  0  0  0  0  0  0  0  0
  -18.3530   -6.2711   19.3918 C   0  0  0  0  0  0  0  0  0  0  0  0
  -26.5163  -17.0024   17.5607 C   0  0  0  0  0  0  0  0  0  0  0  0
  -20.6360   -5.5935   19.7988 C   0  0  0  0  0  0  0  0  0  0  0  0
  -24.6119  -11.6875   20.7652 C   0  0  0  0  0  0  0  0  0  0  0  0
  -25.0977  -13.8261   20.6049 C   0  0  0  0  0  0  0  0  0  0  0  0
  -26.8232  -20.4657   18.1952 C   0  0  0  0  0  0  0  0  0  0  0  0
  -26.2719  -21.5934   18.6659 C   0  0  0  0  0  0  0  0  0  0  0  0
  -25.3918  -21.4626   19.8610 C   0  0  0  0  0  0  0  0  0  0  0  0
  -31.4341  -16.7732   18.8609 C   0  0  0  0  0  0  0  0  0  0  0  0
  -30.7544  -16.7713   17.7247 C   0  0  0  0  0  0  0  0  0  0  0  0
  -22.6798  -13.3630   21.0383 C   0  0  0  0  0  0  0  0  0  0  0  0
  -28.0016  -30.3795   19.7410 C   0  0  0  0  0  0  0  0  0  0  0  0
  -25.8151  -30.3994   22.1371 C   0  0  0  0  0  0  0  0  0  0  0  0
  -23.5369  -28.6658   23.9949 C   0  0  0  0  0  0  0  0  0  0  0  0
  -30.0034  -13.7584   17.3015 C   0  0  0  0  0  0  0  0  0  0  0  0
  -30.2951  -34.8303   18.7471 C   0  0  0  0  0  0  0  0  0  0  0  0
  -26.0010  -29.3479   18.6054 C   0  0  0  0  0  0  0  0  0  0  0  0
  -26.5035  -28.1376   21.2563 C   0  0  0  0  0  0  0  0  0  0  0  0
  -25.3570  -20.1248   20.5695 C   0  0  0  0  0  0  0  0  0  0  0  0
  -29.7473  -34.1386   19.9928 C   0  0  0  0  0  0  0  0  0  0  0  0
  -30.0065  -13.5092   20.9936 C   0  0  0  0  0  0  0  0  0  0  0  0
  -30.2547  -32.7023   20.0726 C   0  0  0  0  0  0  0  0  0  0  0  0
  -28.5830  -13.0502   21.3038 C   0  0  0  0  0  0  0  0  0  0  0  0
  -25.5116  -18.9428   19.6162 C   0  0  0  0  0  0  0  0  0  0  0  0
  -30.4688  -13.0320   19.6202 C   0  0  0  0  0  0  0  0  0  0  0  0
  -28.1238  -12.9713   18.8210 C   0  0  0  0  0  0  0  0  0  0  0  0
  -29.7814  -31.8822   18.8664 C   0  0  1  0  0  0  0  0  0  0  0  0
  -26.5137  -30.1739   19.7812 C   0  0  1  0  0  0  0  0  0  0  0  0
  -27.6200  -13.4735   20.1824 C   0  0  1  0  0  0  0  0  0  0  0  0
  -21.9344  -28.9420   25.9062 C   0  0  0  0  0  0  0  0  0  0  0  0
  -28.1506  -30.3448   24.0999 C   0  0  0  0  0  0  0  0  0  0  0  0
  -26.5379  -29.6700   25.8922 C   0  0  0  0  0  0  0  0  0  0  0  0
  -26.2787  -31.8714   24.7480 C   0  0  0  0  0  0  0  0  0  0  0  0
  -29.2152  -14.4703   15.0872 C   0  0  0  0  0  0  0  0  0  0  0  0
  -21.2132  -27.9709   22.2988 C   0  0  0  0  0  0  0  0  0  0  0  0
  -26.4935  -22.9498   18.0827 C   0  0  0  0  0  0  0  0  0  1  0  0
  -25.7120  -29.7494   23.4958 C   0  0  1  0  0  0  0  0  0  0  0  0
  -22.1091  -28.9893   24.3962 C   0  0  2  0  0  0  0  0  0  0  0  0
  -26.6723  -30.3934   24.5352 C   0  0  0  0  0  0  0  0  0  0  0  0
  -25.9277  -11.7156   20.5372 N   0  0  0  0  0  0  0  0  0  0  0  0
  -26.1932  -13.0297   20.4443 N   0  0  0  0  0  0  0  0  0  0  0  0
  -26.6036  -19.1774   18.6594 N   0  0  0  0  0  0  0  0  0  0  0  0
  -26.2013  -29.5673   21.0768 N   0  0  0  0  0  0  0  0  0  0  0  0
  -29.5128  -13.3897   18.5710 N   0  0  0  0  0  0  0  0  0  0  0  0
  -25.1866  -15.1716   20.5416 N   0  0  0  0  0  0  0  0  0  0  0  0
  -21.7223  -12.3595   21.2393 N   0  0  0  0  0  0  0  0  0  0  0  0
  -28.3961  -31.4966   19.0297 N   0  0  0  0  0  0  0  0  0  0  0  0
  -24.3028  -29.8055   23.8692 N   0  0  0  0  0  0  0  0  0  0  0  0
  -29.1940  -14.6230   16.5402 N   0  0  0  0  0  0  0  0  0  0  0  0
  -21.1648  -28.0129   23.7831 N   0  3  0  0  0  0  0  0  0  0  0  0
  -24.7728  -22.4318   20.2960 O   0  0  0  0  0  0  0  0  0  0  0  0
  -22.3196  -14.5646   21.0405 O   0  0  0  0  0  0  0  0  0  0  0  0
  -28.7371  -29.5845   20.3143 O   0  0  0  0  0  0  0  0  0  0  0  0
  -25.5554  -31.5996   22.0196 O   0  0  0  0  0  0  0  0  0  0  0  0
  -23.9341  -27.5167   23.8148 O   0  0  0  0  0  0  0  0  0  0  0  0
  -31.0633  -13.3048   16.8526 O   0  0  0  0  0  0  0  0  0  0  0  0
  -21.9763   -6.7966   21.3972 O   0  0  0  0  0  0  0  0  0  0  0  0
  -27.0881  -23.8066   19.0567 O   0  0  0  0  0  0  0  0  0  1  0  0
  -17.1896   -6.1019   18.7499 F   0  0  0  0  0  0  0  0  0  0  0  0
  -25.1786  -17.0756   17.5098 F   0  0  0  0  0  0  0  0  0  0  0  0
  -21.6620   -4.7702   19.5432 F   0  0  0  0  0  0  0  0  0  0  0  0
  1  2  1  0  0  0  0
  1  5  2  0  0  0  0
  2  6  2  0  0  0  0
  3  8  2  0  0  0  0
  3 17  1  0  0  0  0
  4  9  1  0  0  0  0
  4 17  2  0  0  0  0
  5 20  1  0  0  0  0
  6 22  1  0  0  0  0
  7 10  2  0  0  0  0
  7 21  1  0  0  0  0
  8 26  1  0  0  0  0
  9 26  2  0  0  0  0
 10 27  1  0  0  0  0
 11 12  2  0  0  0  0
 11 28  1  0  0  0  0
 12 29  1  0  0  0  0
 13 18  1  0  0  0  0
 13 24  2  0  0  0  0
 14 23  1  0  0  0  0
 14 27  2  0  0  0  0
 15 25  1  0  0  0  0
 15 30  2  0  0  0  0
 16 29  2  0  0  0  0
 16 31  1  0  0  0  0
 17 32  1  0  0  0  0
 18 25  2  0  0  0  0
 18 38  1  0  0  0  0
 19 32  1  0  0  0  0
 19 33  2  0  0  0  0
 19 39  1  0  0  0  0
 20 22  2  0  0  0  0
 20 44  1  0  0  0  0
 21 23  2  0  0  0  0
 21 45  1  0  0  0  0
 22 55  1  0  0  0  0
 23 46  1  0  0  0  0
 24 30  1  0  0  0  0
 24 70  1  0  0  0  0
 25 77  1  0  0  0  0
 26 85  1  0  0  0  0
 27 86  1  0  0  0  0
 28 31  2  0  0  0  0
 28 85  1  0  0  0  0
 29 87  1  0  0  0  0
 30 88  1  0  0  0  0
 31 89  1  0  0  0  0
 32 68  2  0  0  0  0
 33 69  1  0  0  0  0
 33 73  1  0  0  0  0
 34 35  2  0  0  0  0
 34 70  1  0  0  0  0
 35 36  1  0  0  0  0
 35 64  1  0  0  0  0
 36 47  1  0  0  0  0
 36 79  2  0  0  0  0
 37 38  2  0  0  0  0
 39 74  1  0  0  0  0
 39 80  2  0  0  0  0
 40 56  1  0  0  0  0
 40 75  1  0  0  0  0
 40 81  2  0  0  0  0
 41 65  1  0  0  0  0
 41 71  1  0  0  0  0
 41 82  2  0  0  0  0
 42 66  1  0  0  0  0
 42 76  1  0  0  0  0
 42 83  2  0  0  0  0
 43 72  1  0  0  0  0
 43 77  1  0  0  0  0
 43 84  2  0  0  0  0
 44 48  1  0  0  0  0
 45 56  1  0  0  0  0
 46 71  1  0  0  0  0
 47 52  1  0  0  0  0
 48 50  1  0  0  0  0
 49 51  1  0  0  0  0
 49 53  1  0  0  0  0
 50 55  1  0  0  0  0
 51 57  1  0  0  0  0
 52 70  1  0  0  0  0
 53 72  1  0  0  0  0
 54 57  1  0  0  0  0
 54 72  1  0  0  0  0
 55 75  1  0  0  0  0
 56 71  1  0  0  0  0
 57 69  1  0  0  0  0
 58 66  1  0  0  0  0
 59 67  1  0  0  0  0
 60 67  1  0  0  0  0
 61 67  1  0  0  0  0
 62 77  1  0  0  0  0
 63 78  1  0  0  0  0
 64 86  1  0  0  0  0
 65 67  1  0  0  0  0
 65 76  1  0  0  0  0
 66 78  1  0  0  0  0
 68 69  1  0  0  0  0
M  CHG  1  78   1
M  ISO  4  43 100  64 101  77 100  86 101
M  END
> <Batch ID>
0109

> <Smiles>
C=Cc1cc(N2C=C([101CH2:1][101O:1]c3ccc4c(c3)CN(C(=O)C(NC(=O)C(C)NC)C(C)(C)C)C(C(=O)NC3CCCc5ccccc53)C4)C(=O)CC2)c(F)cc1[100N:0](C)[100C:0](=O)N1CCCC(n2nc(-c3ccc(Oc4ccc(F)cc4F)cc3)c(C(N)=O)c2N)C1

> <Shape>
0.240

> <Color>
0.188

> <Negative vol penalty>
0.000

$$$$

  -OEChem-04052301233D

 91100  0     1  0  0  0  0  0999 V2000
  -22.3552  -33.5237   19.4312 C   0  0  0  0  0  0  0  0  0  0  0  0
  -23.3260  -32.5285   19.4814 C   0  0  0  0  0  0  0  0  0  0  0  0
  -23.9997  -10.8934   23.6057 C   0  0  0  0  0  0  0  0  0  0  0  0
  -24.5637   -9.4933   21.7193 C   0  0  0  0  0  0  0  0  0  0  0  0
  -21.3626  -33.5777   20.4088 C   0  0  0  0  0  0  0  0  0  0  0  0
  -23.3052  -31.5871   20.5100 C   0  0  0  0  0  0  0  0  0  0  0  0
  -24.9226  -25.6920   20.1385 C   0  0  0  0  0  0  0  0  0  0  0  0
  -23.5515   -9.7721   24.3039 C   0  0  0  0  0  0  0  0  0  0  0  0
  -24.1156   -8.3720   22.4175 C   0  0  0  0  0  0  0  0  0  0  0  0
  -26.0952  -25.0180   20.4767 C   0  0  0  0  0  0  0  0  0  0  0  0
  -21.1537   -6.9287   23.1758 C   0  0  0  0  0  0  0  0  0  0  0  0
  -20.3464   -6.0195   22.4922 C   0  0  0  0  0  0  0  0  0  0  0  0
  -25.1358  -24.4321   22.6110 C   0  0  0  0  0  0  0  0  0  0  0  0
  -30.3273  -18.9618   23.0487 C   0  0  0  0  0  0  0  0  0  0  0  0
  -32.2582  -19.0351   21.5984 C   0  0  0  0  0  0  0  0  0  0  0  0
  -21.9768   -4.2795   22.8812 C   0  0  0  0  0  0  0  0  0  0  0  0
  -24.5057  -10.7540   22.3133 C   0  0  0  0  0  0  0  0  0  0  0  0
  -24.2182  -13.0503   21.2400 C   0  0  0  0  0  0  0  0  0  0  0  0
  -21.3240  -32.6307   21.4444 C   0  0  0  0  0  0  0  0  0  0  0  0
  -23.8500  -25.7505   21.0399 C   0  0  0  0  0  0  0  0  0  0  0  0
  -22.3119  -31.6292   21.5031 C   0  0  0  0  0  0  0  0  0  0  0  0
  -23.9497  -25.1053   22.2809 C   0  0  0  0  0  0  0  0  0  0  0  0
  -30.5154  -17.5917   23.2299 C   0  0  0  0  0  0  0  0  0  0  0  0
  -31.5749  -16.9432   22.5955 C   0  0  0  0  0  0  0  0  0  0  0  0
  -31.1987  -19.6835   22.2329 C   0  0  0  0  0  0  0  0  0  0  0  0
  -23.6095   -8.5114   23.7099 C   0  0  0  0  0  0  0  0  0  0  0  0
  -26.2031  -24.3904   21.7142 C   0  0  0  0  0  0  0  0  0  0  0  0
  -22.3726   -6.5134   23.7120 C   0  0  0  0  0  0  0  0  0  0  0  0
  -20.7579   -4.6949   22.3450 C   0  0  0  0  0  0  0  0  0  0  0  0
  -32.4463  -17.6649   21.7797 C   0  0  0  0  0  0  0  0  0  0  0  0
  -22.7841   -5.1888   23.5647 C   0  0  0  0  0  0  0  0  0  0  0  0
  -24.9682  -11.9120   21.5913 C   0  0  0  0  0  0  0  0  0  0  0  0
  -25.1076  -13.8542   20.5699 C   0  0  0  0  0  0  0  0  0  0  0  0
  -29.5903  -22.9942   21.6270 C   0  0  0  0  0  0  0  0  0  0  0  0
  -29.8548  -21.6708   21.5022 C   0  0  0  0  0  0  0  0  0  0  0  0
  -30.5461  -23.8344   22.4239 C   0  0  0  0  0  0  0  0  0  0  0  0
  -22.8406  -13.3540   21.4967 C   0  0  0  0  0  0  0  0  0  0  0  0
  -22.3188  -28.0874   22.5559 C   0  0  0  0  0  0  0  0  0  0  0  0
  -20.3668  -25.6722   23.4933 C   0  0  0  0  0  0  0  0  0  0  0  0
  -19.9598  -22.3329   24.0676 C   0  0  0  0  0  0  0  0  0  0  0  0
  -31.0753  -14.3250   20.6985 C   0  0  0  0  0  0  0  0  0  0  0  0
  -20.2593  -32.7579   22.5050 C   0  0  0  0  0  0  0  0  0  0  0  0
  -22.5819  -26.4589   20.6494 C   0  0  0  0  0  0  0  0  0  0  0  0
  -22.8193  -25.1214   23.2761 C   0  0  0  0  0  0  0  0  0  0  0  0
  -31.6728  -23.1469   23.1565 C   0  0  0  0  0  0  0  0  0  0  0  0
  -20.0880  -31.4983   23.3502 C   0  0  0  0  0  0  0  0  0  0  0  0
  -29.0429  -13.6363   17.8574 C   0  0  0  0  0  0  0  0  0  0  0  0
  -21.4462  -30.9656   23.7956 C   0  0  0  0  0  0  0  0  0  0  0  0
  -27.7005  -13.2190   18.4605 C   0  0  0  0  0  0  0  0  0  0  0  0
  -32.1568  -21.9127   22.4157 C   0  0  0  0  0  0  0  0  0  0  0  0
  -30.2176  -13.1416   18.6984 C   0  0  0  0  0  0  0  0  0  0  0  0
  -28.8182  -13.0998   20.7266 C   0  0  0  0  0  0  0  0  0  0  0  0
  -22.3084  -30.5753   22.5891 C   0  0  1  0  0  0  0  0  0  0  0  0
  -21.7453  -26.8917   21.8495 C   0  0  1  0  0  0  0  0  0  0  0  0
  -27.6020  -13.6237   19.9437 C   0  0  2  0  0  0  0  0  0  0  0  0
  -29.8472  -17.0713   25.5899 C   0  0  0  0  0  0  0  0  0  0  0  0
  -29.4551  -20.7720   19.2352 C   0  0  0  0  0  0  0  0  0  0  0  0
  -18.2647  -20.6636   24.8660 C   0  0  0  0  0  0  0  0  0  0  0  0
  -20.8271  -26.5836   26.3686 C   0  0  0  0  0  0  0  0  0  0  0  0
  -19.9260  -24.3782   27.1383 C   0  0  0  0  0  0  0  0  0  0  0  0
  -18.4691  -25.9358   25.8444 C   0  0  0  0  0  0  0  0  0  0  0  0
  -20.0033  -20.8816   21.4887 C   0  0  0  0  0  0  0  0  0  0  0  0
  -29.5693  -16.8399   24.1076 C   0  0  0  0  0  0  0  0  0  0  0  0
  -31.7929  -15.4767   22.7764 C   0  0  0  0  0  0  0  0  0  0  0  0
  -28.3965  -23.7248   21.0805 C   0  0  0  0  0  0  0  0  0  1  0  0
  -28.9512  -20.7961   20.6548 C   0  0  0  0  0  0  0  0  0  0  0  0
  -20.3370  -24.7126   24.6583 C   0  0  1  0  0  0  0  0  0  0  0  0
  -18.8632  -21.3665   23.6575 C   0  0  2  0  0  0  0  0  0  0  0  0
  -19.9120  -25.4037   25.9846 C   0  0  0  0  0  0  0  0  0  0  0  0
  -26.2365  -11.9825   21.1783 N   0  0  0  0  0  0  0  0  0  0  0  0
  -26.2902  -13.1748   20.5605 N   0  0  0  0  0  0  0  0  0  0  0  0
  -31.0080  -21.0773   22.0485 N   0  0  0  0  0  0  0  0  0  0  0  0
  -21.6024  -25.8324   22.8504 N   0  0  0  0  0  0  0  0  0  0  0  0
  -30.0641  -13.5602   20.0938 N   0  0  0  0  0  0  0  0  0  0  0  0
  -24.9857  -15.0688   19.9935 N   0  0  0  0  0  0  0  0  0  0  0  0
  -22.0696  -12.4175   22.1986 N   0  0  0  0  0  0  0  0  0  0  0  0
  -21.8827  -29.2993   22.0552 N   0  0  0  0  0  0  0  0  0  0  0  0
  -19.4721  -23.6088   24.2559 N   0  0  0  0  0  0  0  0  0  0  0  0
  -30.8477  -14.6850   22.0211 N   0  0  0  0  0  0  0  0  0  0  0  0
  -19.4044  -20.3315   22.7320 N   0  3  0  0  0  0  0  0  0  0  0  0
  -30.3838  -25.0502   22.5249 O   0  0  0  0  0  0  0  0  0  0  0  0
  -22.3050  -14.4168   21.1005 O   0  0  0  0  0  0  0  0  0  0  0  0
  -23.0980  -27.9228   23.4872 O   0  0  0  0  0  0  0  0  0  0  0  0
  -19.3302  -26.2527   23.1613 O   0  0  0  0  0  0  0  0  0  0  0  0
  -21.1312  -21.9893   24.2105 O   0  0  0  0  0  0  0  0  0  0  0  0
  -32.1022  -14.6665   20.1021 O   0  0  0  0  0  0  0  0  0  0  0  0
  -23.1726   -7.4170   24.3910 O   0  0  0  0  0  0  0  0  0  0  0  0
  -27.3468  -23.7323   22.0471 O   0  0  0  0  0  0  0  0  0  1  0  0
  -19.9819   -3.8216   21.6899 F   0  0  0  0  0  0  0  0  0  0  0  0
  -33.4675  -17.0511   21.1653 F   0  0  0  0  0  0  0  0  0  0  0  0
  -23.9535   -4.7835   24.0786 F   0  0  0  0  0  0  0  0  0  0  0  0
  1  2  1  0  0  0  0
  1  5  2  0  0  0  0
  2  6  2  0  0  0  0
  3  8  2  0  0  0  0
  3 17  1  0  0  0  0
  4  9  1  0  0  0  0
  4 17  2  0  0  0  0
  5 19  1  0  0  0  0
  6 21  1  0  0  0  0
  7 10  2  0  0  0  0
  7 20  1  0  0  0  0
  8 26  1  0  0  0  0
  9 26  2  0  0  0  0
 10 27  1  0  0  0  0
 11 12  2  0  0  0  0
 11 28  1  0  0  0  0
 12 29  1  0  0  0  0
 13 22  1  0  0  0  0
 13 27  2  0  0  0  0
 14 23  1  0  0  0  0
 14 25  2  0  0  0  0
 15 25  1  0  0  0  0
 15 30  2  0  0  0  0
 16 29  2  0  0  0  0
 16 31  1  0  0  0  0
 17 32  1  0  0  0  0
 18 32  1  0  0  0  0
 18 33  2  0  0  0  0
 18 37  1  0  0  0  0
 19 21  2  0  0  0  0
 19 42  1  0  0  0  0
 20 22  2  0  0  0  0
 20 43  1  0  0  0  0
 21 53  1  0  0  0  0
 22 44  1  0  0  0  0
 23 24  2  0  0  0  0
 23 63  1  0  0  0  0
 24 30  1  0  0  0  0
 24 64  1  0  0  0  0
 25 72  1  0  0  0  0
 26 87  1  0  0  0  0
 27 88  1  0  0  0  0
 28 31  2  0  0  0  0
 28 87  1  0  0  0  0
 29 89  1  0  0  0  0
 30 90  1  0  0  0  0
 31 91  1  0  0  0  0
 32 70  2  0  0  0  0
 33 71  1  0  0  0  0
 33 75  1  0  0  0  0
 34 35  2  0  0  0  0
 34 36  1  0  0  0  0
 34 65  1  0  0  0  0
 35 66  1  0  0  0  0
 35 72  1  0  0  0  0
 36 45  1  0  0  0  0
 36 81  2  0  0  0  0
 37 76  1  0  0  0  0
 37 82  2  0  0  0  0
 38 54  1  0  0  0  0
 38 77  1  0  0  0  0
 38 83  2  0  0  0  0
 39 67  1  0  0  0  0
 39 73  1  0  0  0  0
 39 84  2  0  0  0  0
 40 68  1  0  0  0  0
 40 78  1  0  0  0  0
 40 85  2  0  0  0  0
 41 74  1  0  0  0  0
 41 79  1  0  0  0  0
 41 86  2  0  0  0  0
 42 46  1  0  0  0  0
 43 54  1  0  0  0  0
 44 73  1  0  0  0  0
 45 50  1  0  0  0  0
 46 48  1  0  0  0  0
 47 49  1  0  0  0  0
 47 51  1  0  0  0  0
 48 53  1  0  0  0  0
 49 55  1  0  0  0  0
 50 72  1  0  0  0  0
 51 74  1  0  0  0  0
 52 55  1  0  0  0  0
 52 74  1  0  0  0  0
 53 77  1  0  0  0  0
 54 73  1  0  0  0  0
 55 71  1  0  0  0  0
 56 63  1  0  0  0  0
 57 66  1  0  0  0  0
 58 68  1  0  0  0  0
 59 69  1  0  0  0  0
 60 69  1  0  0  0  0
 61 69  1  0  0  0  0
 62 80  1  0  0  0  0
 64 79  1  0  0  0  0
 65 88  1  0  0  0  0
 67 69  1  0  0  0  0
 67 78  1  0  0  0  0
 68 80  1  0  0  0  0
 70 71  1  0  0  0  0
M  CHG  1  80   1
M  ISO  4  41 100  65 101  79 100  88 101
M  END
> <Batch ID>
0109

> <Smiles>
CCC1=C([101CH2:1][101O:1]c2ccc3c(c2)CN(C(=O)C(NC(=O)C(C)NC)C(C)(C)C)C(C(=O)NC2CCCc4ccccc42)C3)C(=O)CCN1c1cc(F)c(C[100NH:0][100C:0](=O)N2CCCC(n3nc(-c4ccc(Oc5ccc(F)cc5F)cc4)c(C(N)=O)c3N)C2)c(CC)c1

> <Shape>
0.230

> <Color>
0.152

> <Negative vol penalty>
0.000

$$$$

  -OEChem-04052301233D

 83 91  0     1  0  0  0  0  0999 V2000
  -31.5838  -25.5864   17.2844 C   0  0  0  0  0  0  0  0  0  0  0  0
  -30.2156  -25.3545   17.3833 C   0  0  0  0  0  0  0  0  0  0  0  0
  -25.8084  -14.2557   21.6664 C   0  0  0  0  0  0  0  0  0  0  0  0
  -24.9716  -15.2052   19.6084 C   0  0  0  0  0  0  0  0  0  0  0  0
  -32.2618  -26.2084   18.3319 C   0  0  0  0  0  0  0  0  0  0  0  0
  -29.5248  -25.7437   18.5304 C   0  0  0  0  0  0  0  0  0  0  0  0
  -23.7724  -27.8225   18.8361 C   0  0  0  0  0  0  0  0  0  0  0  0
  -22.7730  -21.6271   18.8155 C   0  0  0  0  0  0  0  0  0  0  0  0
  -24.7802  -13.3133   21.6497 C   0  0  0  0  0  0  0  0  0  0  0  0
  -23.9434  -14.2627   19.5916 C   0  0  0  0  0  0  0  0  0  0  0  0
  -22.5661  -27.2009   19.1557 C   0  0  0  0  0  0  0  0  0  0  0  0
  -21.9049  -22.1903   19.7508 C   0  0  0  0  0  0  0  0  0  0  0  0
  -22.5875  -10.4302   21.9580 C   0  0  0  0  0  0  0  0  0  0  0  0
  -22.9183   -9.1045   22.2383 C   0  0  0  0  0  0  0  0  0  0  0  0
  -23.7956  -23.0062   21.0144 C   0  0  0  0  0  0  0  0  0  0  0  0
  -22.7750  -27.9781   21.4298 C   0  0  0  0  0  0  0  0  0  0  0  0
  -24.4211   -9.0796   20.3467 C   0  0  0  0  0  0  0  0  0  0  0  0
  -25.9040  -15.2017   20.6458 C   0  0  0  0  0  0  0  0  0  0  0  0
  -24.6637  -22.4430   20.0791 C   0  0  0  0  0  0  0  0  0  0  0  0
  -28.2433  -16.0509   20.0853 C   0  0  0  0  0  0  0  0  0  0  0  0
  -31.5772  -26.6141   19.4883 C   0  0  0  0  0  0  0  0  0  0  0  0
  -24.4957  -28.5186   19.8153 C   0  0  0  0  0  0  0  0  0  0  0  0
  -30.1945  -26.3706   19.5949 C   0  0  0  0  0  0  0  0  0  0  0  0
  -23.9889  -28.6099   21.1195 C   0  0  0  0  0  0  0  0  0  0  0  0
  -24.1524  -21.7534   18.9797 C   0  0  0  0  0  0  0  0  0  0  0  0
  -23.8477  -13.3167   20.6123 C   0  0  0  0  0  0  0  0  0  0  0  0
  -22.4162  -22.8799   20.8502 C   0  0  0  0  0  0  0  0  0  0  0  0
  -22.0686  -27.2761   20.4534 C   0  0  0  0  0  0  0  0  0  0  0  0
  -23.1734  -11.0807   20.8720 C   0  0  0  0  0  0  0  0  0  0  0  0
  -23.8351   -8.4292   21.4327 C   0  0  0  0  0  0  0  0  0  0  0  0
  -24.0902  -10.4053   20.0664 C   0  0  0  0  0  0  0  0  0  0  0  0
  -26.9656  -16.1758   20.6628 C   0  0  0  0  0  0  0  0  0  0  0  0
  -28.8696  -17.2379   20.3773 C   0  0  0  0  0  0  0  0  0  0  0  0
  -26.0997  -22.5900   20.2745 C   0  0  0  0  0  0  0  0  0  0  0  0
  -28.8132  -14.9595   19.3506 C   0  0  0  0  0  0  0  0  0  0  0  0
  -26.6847  -22.6960   21.6309 C   0  0  0  0  0  0  0  0  0  0  0  0
  -27.3746  -28.2033   21.1253 C   0  0  0  0  0  0  0  0  0  0  0  0
  -26.5977  -31.0043   22.5650 C   0  0  0  0  0  0  0  0  0  0  0  0
  -24.1528  -33.1322   23.6334 C   0  0  0  0  0  0  0  0  0  0  0  0
  -32.3615  -27.2403   20.6141 C   0  0  0  0  0  0  0  0  0  0  0  0
  -25.7820  -29.2064   19.4480 C   0  0  0  0  0  0  0  0  0  0  0  0
  -24.7169  -29.3622   22.2023 C   0  0  0  0  0  0  0  0  0  0  0  0
  -31.4879  -27.9597   21.6386 C   0  0  0  0  0  0  0  0  0  0  0  0
  -28.9459  -20.7464   23.6166 C   0  0  0  0  0  0  0  0  0  0  0  0
  -30.2956  -27.0913   22.0272 C   0  0  0  0  0  0  0  0  0  0  0  0
  -28.7808  -19.3343   23.0557 C   0  0  0  0  0  0  0  0  0  0  0  0
  -27.6319  -21.5199   23.5772 C   0  0  0  0  0  0  0  0  0  0  0  0
  -26.8429  -20.1709   21.6521 C   0  0  0  0  0  0  0  0  0  0  0  0
  -29.4057  -26.8005   20.8127 C   0  0  1  0  0  0  0  0  0  0  0  0
  -26.6912  -29.4534   20.6479 C   0  0  1  0  0  0  0  0  0  0  0  0
  -28.1556  -19.3683   21.6498 C   0  0  2  0  0  0  0  0  0  0  0  0
  -25.0593  -21.1404   17.9629 C   0  0  0  0  0  0  0  0  0  0  0  0
  -23.8252  -35.3252   24.8085 C   0  0  0  0  0  0  0  0  0  0  0  0
  -27.2474  -29.6700   25.2309 C   0  0  0  0  0  0  0  0  0  0  0  0
  -26.0225  -31.5271   26.3795 C   0  0  0  0  0  0  0  0  0  0  0  0
  -28.0536  -32.0280   25.0207 C   0  0  0  0  0  0  0  0  0  0  0  0
  -22.7905  -34.3175   21.2886 C   0  0  0  0  0  0  0  0  0  0  0  0
  -19.7870  -25.0171   22.1358 C   0  0  0  0  0  0  0  0  0  0  0  0
  -20.2941  -23.8585   21.2915 C   0  0  0  0  0  0  0  0  0  0  0  0
  -20.7403  -26.2015   22.1077 C   0  0  0  0  0  0  0  0  0  1  0  0
  -25.9055  -31.3900   23.8499 C   0  0  1  0  0  0  0  0  0  0  0  0
  -23.9768  -34.6305   23.4642 C   0  0  2  0  0  0  0  0  0  0  0  0
  -26.7943  -31.1379   25.1005 C   0  0  0  0  0  0  0  0  0  0  0  0
  -26.7891  -17.3495   21.2754 N   0  0  0  0  0  0  0  0  0  0  0  0
  -26.9537  -22.6355   19.2895 N   0  0  0  0  0  0  0  0  0  0  0  0
  -27.9643  -17.9729   21.0846 N   0  0  0  0  0  0  0  0  0  0  0  0
  -27.0477  -21.5018   22.2376 N   0  0  0  0  0  0  0  0  0  0  0  0
  -25.9735  -30.0124   21.7953 N   0  0  0  0  0  0  0  0  0  0  0  0
  -30.1010  -17.7141   20.0955 N   0  0  0  0  0  0  0  0  0  0  0  0
  -28.0319  -13.8149   19.1411 N   0  0  0  0  0  0  0  0  0  0  0  0
  -28.5820  -27.9494   20.5030 N   0  0  0  0  0  0  0  0  0  0  0  0
  -25.4840  -32.7771   23.6862 N   0  0  0  0  0  0  0  0  0  0  0  0
  -22.7655  -34.9207   22.6460 N   0  3  0  0  0  0  0  0  0  0  0  0
  -29.9863  -14.9916   18.9076 O   0  0  0  0  0  0  0  0  0  0  0  0
  -26.7855  -23.8324   22.0744 O   0  0  0  0  0  0  0  0  0  0  0  0
  -26.8463  -27.5204   21.9949 O   0  0  0  0  0  0  0  0  0  0  0  0
  -27.6495  -31.5677   22.2520 O   0  0  0  0  0  0  0  0  0  0  0  0
  -23.2041  -32.3551   23.7145 O   0  0  0  0  0  0  0  0  0  0  0  0
  -22.8444  -12.3971   20.5956 O   0  0  0  0  0  0  0  0  0  0  0  0
  -21.5628  -23.4323   21.7696 O   0  0  0  0  0  0  0  0  0  0  0  0
  -20.8918  -26.6696   20.7682 O   0  0  0  0  0  0  0  0  0  1  0  0
  -24.1539   -7.1566   21.7029 F   0  0  0  0  0  0  0  0  0  0  0  0
  -24.6572  -11.0253   19.0224 F   0  0  0  0  0  0  0  0  0  0  0  0
  1  2  1  0  0  0  0
  1  5  2  0  0  0  0
  2  6  2  0  0  0  0
  3  9  2  0  0  0  0
  3 18  1  0  0  0  0
  4 10  1  0  0  0  0
  4 18  2  0  0  0  0
  5 21  1  0  0  0  0
  6 23  1  0  0  0  0
  7 11  2  0  0  0  0
  7 22  1  0  0  0  0
  8 12  2  0  0  0  0
  8 25  1  0  0  0  0
  9 26  1  0  0  0  0
 10 26  2  0  0  0  0
 11 28  1  0  0  0  0
 12 27  1  0  0  0  0
 13 14  2  0  0  0  0
 13 29  1  0  0  0  0
 14 30  1  0  0  0  0
 15 19  1  0  0  0  0
 15 27  2  0  0  0  0
 16 24  1  0  0  0  0
 16 28  2  0  0  0  0
 17 30  2  0  0  0  0
 17 31  1  0  0  0  0
 18 32  1  0  0  0  0
 19 25  2  0  0  0  0
 19 34  1  0  0  0  0
 20 32  1  0  0  0  0
 20 33  2  0  0  0  0
 20 35  1  0  0  0  0
 21 23  2  0  0  0  0
 21 40  1  0  0  0  0
 22 24  2  0  0  0  0
 22 41  1  0  0  0  0
 23 49  1  0  0  0  0
 24 42  1  0  0  0  0
 25 52  1  0  0  0  0
 26 79  1  0  0  0  0
 27 80  1  0  0  0  0
 28 81  1  0  0  0  0
 29 31  2  0  0  0  0
 29 79  1  0  0  0  0
 30 82  1  0  0  0  0
 31 83  1  0  0  0  0
 32 64  2  0  0  0  0
 33 66  1  0  0  0  0
 33 69  1  0  0  0  0
 34 36  1  0  0  0  0
 34 65  2  0  0  0  0
 35 70  1  0  0  0  0
 35 74  2  0  0  0  0
 36 67  1  0  0  0  0
 36 75  2  0  0  0  0
 37 50  1  0  0  0  0
 37 71  1  0  0  0  0
 37 76  2  0  0  0  0
 38 61  1  0  0  0  0
 38 68  1  0  0  0  0
 38 77  2  0  0  0  0
 39 62  1  0  0  0  0
 39 72  1  0  0  0  0
 39 78  2  0  0  0  0
 40 43  1  0  0  0  0
 41 50  1  0  0  0  0
 42 68  1  0  0  0  0
 43 45  1  0  0  0  0
 44 46  1  0  0  0  0
 44 47  1  0  0  0  0
 45 49  1  0  0  0  0
 46 51  1  0  0  0  0
 47 67  1  0  0  0  0
 48 51  1  0  0  0  0
 48 67  1  0  0  0  0
 49 71  1  0  0  0  0
 50 68  1  0  0  0  0
 51 66  1  0  0  0  0
 53 62  1  0  0  0  0
 54 63  1  0  0  0  0
 55 63  1  0  0  0  0
 56 63  1  0  0  0  0
 57 73  1  0  0  0  0
 58 59  1  0  0  0  0
 58 60  1  0  0  0  0
 59 80  1  0  0  0  0
 60 81  1  0  0  0  0
 61 63  1  0  0  0  0
 61 72  1  0  0  0  0
 62 73  1  0  0  0  0
 64 66  1  0  0  0  0
M  CHG  1  73   1
M  ISO  4  34 100  36 100  60 101  81 101
M  END
> <Batch ID>
0109

> <Smiles>
CNC(C)C(=O)NC(C(=O)N1Cc2cc([101O:1][101CH2:1]CCOc3ccc(C)c([100C:0](=N)[100C:0](=O)N4CCCC(n5nc(-c6ccc(Oc7ccc(F)cc7F)cc6)c(C(N)=O)c5N)C4)c3)ccc2CC1C(=O)NC1CCCc2ccccc21)C(C)(C)C

> <Shape>
0.282

> <Color>
0.076

> <Negative vol penalty>
0.000

$$$$

  -OEChem-04052301233D

 85 93  0     1  0  0  0  0  0999 V2000
  -18.1372  -27.6547   22.4464 C   0  0  0  0  0  0  0  0  0  0  0  0
  -18.7309  -27.0764   21.3290 C   0  0  0  0  0  0  0  0  0  0  0  0
  -27.6577  -26.1090   17.6704 C   0  0  0  0  0  0  0  0  0  0  0  0
  -27.5895  -25.8137   20.0673 C   0  0  0  0  0  0  0  0  0  0  0  0
  -18.8398  -27.7275   23.6485 C   0  0  0  0  0  0  0  0  0  0  0  0
  -20.0281  -26.5717   21.4128 C   0  0  0  0  0  0  0  0  0  0  0  0
  -21.4168  -19.6547   19.9572 C   0  0  0  0  0  0  0  0  0  0  0  0
  -26.5493  -26.9527   17.7428 C   0  0  0  0  0  0  0  0  0  0  0  0
  -26.4811  -26.6575   20.1397 C   0  0  0  0  0  0  0  0  0  0  0  0
  -21.7957  -18.3958   19.4907 C   0  0  0  0  0  0  0  0  0  0  0  0
  -23.8546  -29.0205   20.9977 C   0  0  0  0  0  0  0  0  0  0  0  0
  -23.8430  -29.9926   21.9979 C   0  0  0  0  0  0  0  0  0  0  0  0
  -28.6413  -14.5851   22.5392 C   0  0  0  0  0  0  0  0  0  0  0  0
  -27.4499  -15.6232   20.7117 C   0  0  0  0  0  0  0  0  0  0  0  0
  -24.0916  -18.8492   20.0998 C   0  0  0  0  0  0  0  0  0  0  0  0
  -26.2505  -14.3002   22.3390 C   0  0  0  0  0  0  0  0  0  0  0  0
  -25.8620  -30.9559   21.0851 C   0  0  0  0  0  0  0  0  0  0  0  0
  -28.1777  -25.5394   18.8327 C   0  0  0  0  0  0  0  0  0  0  0  0
  -28.6440  -15.3721   21.3875 C   0  0  0  0  0  0  0  0  0  0  0  0
  -30.6784  -25.0354   18.8426 C   0  0  0  0  0  0  0  0  0  0  0  0
  -20.1426  -27.2147   23.7497 C   0  0  0  0  0  0  0  0  0  0  0  0
  -22.3725  -20.5108   20.5115 C   0  0  0  0  0  0  0  0  0  0  0  0
  -20.7492  -26.6389   22.6170 C   0  0  0  0  0  0  0  0  0  0  0  0
  -23.7159  -20.1066   20.5801 C   0  0  0  0  0  0  0  0  0  0  0  0
  -27.4446  -14.0491   23.0149 C   0  0  0  0  0  0  0  0  0  0  0  0
  -25.9611  -27.2270   18.9774 C   0  0  0  0  0  0  0  0  0  0  0  0
  -23.1298  -17.9942   19.5617 C   0  0  0  0  0  0  0  0  0  0  0  0
  -24.8700  -29.0159   20.0413 C   0  0  0  0  0  0  0  0  0  0  0  0
  -26.2532  -15.0873   21.1874 C   0  0  0  0  0  0  0  0  0  0  0  0
  -24.8466  -30.9604   22.0416 C   0  0  0  0  0  0  0  0  0  0  0  0
  -25.8736  -29.9836   20.0849 C   0  0  0  0  0  0  0  0  0  0  0  0
  -29.3223  -24.6673   18.7585 C   0  0  0  0  0  0  0  0  0  0  0  0
  -31.3639  -23.8518   18.7172 C   0  0  0  0  0  0  0  0  0  0  0  0
  -29.8918  -15.9311   20.8915 C   0  0  0  0  0  0  0  0  0  0  0  0
  -31.2660  -26.3314   19.0186 C   0  0  0  0  0  0  0  0  0  0  0  0
  -23.0932  -23.8281   22.1090 C   0  0  0  0  0  0  0  0  0  0  0  0
  -29.7421  -18.2671   19.9238 C   0  0  0  0  0  0  0  0  0  0  0  0
  -24.7646  -21.7363   23.6061 C   0  0  0  0  0  0  0  0  0  0  0  0
  -26.1148  -19.0753   25.2593 C   0  0  0  0  0  0  0  0  0  0  0  0
  -20.8800  -27.3588   25.0574 C   0  0  0  0  0  0  0  0  0  0  0  0
  -22.0202  -21.8998   20.9700 C   0  0  0  0  0  0  0  0  0  0  0  0
  -24.7154  -21.0742   21.1526 C   0  0  0  0  0  0  0  0  0  0  0  0
  -22.1116  -26.4633   25.1642 C   0  0  0  0  0  0  0  0  0  0  0  0
  -31.0250  -19.5090   16.7553 C   0  0  0  0  0  0  0  0  0  0  0  0
  -22.9445  -26.5468   23.8890 C   0  0  0  0  0  0  0  0  0  0  0  0
  -30.8266  -21.0158   16.9148 C   0  0  0  0  0  0  0  0  0  0  0  0
  -29.9039  -18.7210   17.4278 C   0  0  0  0  0  0  0  0  0  0  0  0
  -29.5141  -20.5640   19.0329 C   0  0  0  0  0  0  0  0  0  0  0  0
  -22.1454  -26.0579   22.6750 C   0  0  1  0  0  0  0  0  0  0  0  0
  -22.8300  -22.3536   22.1978 C   0  0  1  0  0  0  0  0  0  0  0  0
  -30.6402  -21.3943   18.3945 C   0  0  2  0  0  0  0  0  0  0  0  0
  -27.2370  -14.0332   25.5135 C   0  0  0  0  0  0  0  0  0  0  0  0
  -27.5802  -18.5096   27.2163 C   0  0  0  0  0  0  0  0  0  0  0  0
  -27.2200  -22.5862   22.0084 C   0  0  0  0  0  0  0  0  0  0  0  0
  -28.6134  -21.1690   23.5310 C   0  0  0  0  0  0  0  0  0  0  0  0
  -27.3352  -23.1028   24.4526 C   0  0  0  0  0  0  0  0  0  0  0  0
  -23.9558  -17.5422   26.5810 C   0  0  0  0  0  0  0  0  0  0  0  0
  -27.4416  -13.2076   24.2459 C   0  0  0  0  0  0  0  0  0  0  0  0
  -29.9323  -16.8005   19.6290 C   0  0  0  0  0  0  0  0  0  0  0  0
  -23.2033  -14.3792   19.3549 C   0  0  0  0  0  0  0  0  0  0  0  0
  -22.5149  -15.7257   19.1961 C   0  0  0  0  0  0  0  0  0  1  0  0
  -24.0770  -14.3301   20.5985 C   0  0  0  0  0  0  0  0  0  0  0  0
  -26.0891  -21.0261   23.7269 C   0  0  1  0  0  0  0  0  0  0  0  0
  -26.1531  -18.7198   26.7346 C   0  0  2  0  0  0  0  0  0  0  0  0
  -27.2927  -21.9597   23.4152 C   0  0  0  0  0  0  0  0  0  0  0  0
  -29.1542  -23.3527   18.5923 N   0  0  0  0  0  0  0  0  0  0  0  0
  -31.0322  -15.7212   21.5092 N   0  0  0  0  0  0  0  0  0  0  0  0
  -30.4137  -22.8844   18.5709 N   0  0  0  0  0  0  0  0  0  0  0  0
  -24.1552  -21.7282   22.3455 N   0  0  0  0  0  0  0  0  0  0  0  0
  -29.7400  -19.1304   18.8279 N   0  0  0  0  0  0  0  0  0  0  0  0
  -32.6808  -23.5546   18.7188 N   0  0  0  0  0  0  0  0  0  0  0  0
  -30.4165  -27.4405   19.1303 N   0  0  0  0  0  0  0  0  0  0  0  0
  -22.0935  -24.6118   22.6531 N   0  0  0  0  0  0  0  0  0  0  0  0
  -26.1176  -20.4401   25.0626 N   0  0  0  0  0  0  0  0  0  0  0  0
  -25.3832  -17.4688   26.9861 N   0  3  0  0  0  0  0  0  0  0  0  0
  -32.5080  -26.5028   19.0585 O   0  0  0  0  0  0  0  0  0  0  0  0
  -24.1275  -24.2268   21.5867 O   0  0  0  0  0  0  0  0  0  0  0  0
  -29.6026  -18.6328   21.0938 O   0  0  0  0  0  0  0  0  0  0  0  0
  -24.2837  -22.2890   24.5993 O   0  0  0  0  0  0  0  0  0  0  0  0
  -26.0889  -18.2272   24.3702 O   0  0  0  0  0  0  0  0  0  0  0  0
  -24.8797  -28.0505   19.0485 O   0  0  0  0  0  0  0  0  0  0  0  0
  -23.4921  -16.7620   19.1086 O   0  0  0  0  0  0  0  0  0  1  0  0
  -25.0798  -15.3343   20.5234 O   0  0  0  0  0  0  0  0  0  0  0  0
  -24.8345  -31.8948   23.0012 F   0  0  0  0  0  0  0  0  0  0  0  0
  -26.8510  -29.9851   19.1681 F   0  0  0  0  0  0  0  0  0  0  0  0
  1  2  1  0  0  0  0
  1  5  2  0  0  0  0
  2  6  2  0  0  0  0
  3  8  2  0  0  0  0
  3 18  1  0  0  0  0
  4  9  1  0  0  0  0
  4 18  2  0  0  0  0
  5 21  1  0  0  0  0
  6 23  1  0  0  0  0
  7 10  2  0  0  0  0
  7 22  1  0  0  0  0
  8 26  1  0  0  0  0
  9 26  2  0  0  0  0
 10 27  1  0  0  0  0
 11 12  2  0  0  0  0
 11 28  1  0  0  0  0
 12 30  1  0  0  0  0
 13 19  1  0  0  0  0
 13 25  2  0  0  0  0
 14 19  2  0  0  0  0
 14 29  1  0  0  0  0
 15 24  1  0  0  0  0
 15 27  2  0  0  0  0
 16 25  1  0  0  0  0
 16 29  2  0  0  0  0
 17 30  2  0  0  0  0
 17 31  1  0  0  0  0
 18 32  1  0  0  0  0
 19 34  1  0  0  0  0
 20 32  1  0  0  0  0
 20 33  2  0  0  0  0
 20 35  1  0  0  0  0
 21 23  2  0  0  0  0
 21 40  1  0  0  0  0
 22 24  2  0  0  0  0
 22 41  1  0  0  0  0
 23 49  1  0  0  0  0
 24 42  1  0  0  0  0
 25 58  1  0  0  0  0
 26 81  1  0  0  0  0
 27 82  1  0  0  0  0
 28 31  2  0  0  0  0
 28 81  1  0  0  0  0
 29 83  1  0  0  0  0
 30 84  1  0  0  0  0
 31 85  1  0  0  0  0
 32 66  2  0  0  0  0
 33 68  1  0  0  0  0
 33 71  1  0  0  0  0
 34 59  1  0  0  0  0
 34 67  2  0  0  0  0
 35 72  1  0  0  0  0
 35 76  2  0  0  0  0
 36 50  1  0  0  0  0
 36 73  1  0  0  0  0
 36 77  2  0  0  0  0
 37 59  1  0  0  0  0
 37 70  1  0  0  0  0
 37 78  2  0  0  0  0
 38 63  1  0  0  0  0
 38 69  1  0  0  0  0
 38 79  2  0  0  0  0
 39 64  1  0  0  0  0
 39 74  1  0  0  0  0
 39 80  2  0  0  0  0
 40 43  1  0  0  0  0
 41 50  1  0  0  0  0
 42 69  1  0  0  0  0
 43 45  1  0  0  0  0
 44 46  1  0  0  0  0
 44 47  1  0  0  0  0
 45 49  1  0  0  0  0
 46 51  1  0  0  0  0
 47 70  1  0  0  0  0
 48 51  1  0  0  0  0
 48 70  1  0  0  0  0
 49 73  1  0  0  0  0
 50 69  1  0  0  0  0
 51 68  1  0  0  0  0
 52 58  1  0  0  0  0
 53 64  1  0  0  0  0
 54 65  1  0  0  0  0
 55 65  1  0  0  0  0
 56 65  1  0  0  0  0
 57 75  1  0  0  0  0
 60 61  1  0  0  0  0
 60 62  1  0  0  0  0
 61 82  1  0  0  0  0
 62 83  1  0  0  0  0
 63 65  1  0  0  0  0
 63 74  1  0  0  0  0
 64 75  1  0  0  0  0
 66 68  1  0  0  0  0
M  CHG  1  75   1
M  ISO  4  37 100  59 100  61 101  82 101
M  END
> <Batch ID>
0109

> <Smiles>
CCc1cc(OCC[101CH2:1][101O:1]c2ccc3c(c2)CN(C(=O)C(NC(=O)C(C)NC)C(C)(C)C)C(C(=O)NC2CCCc4ccccc42)C3)cc(C(=N)[100CH2:0][100C:0](=O)N2CCCC(n3nc(-c4ccc(Oc5ccc(F)cc5F)cc4)c(C(N)=O)c3N)C2)c1

> <Shape>
0.218

> <Color>
0.066

> <Negative vol penalty>
0.000

$$$$

  -OEChem-04052301233D

 83 91  0     1  0  0  0  0  0999 V2000
  -33.3130  -23.4371   23.1536 C   0  0  0  0  0  0  0  0  0  0  0  0
  -32.1915  -23.2986   22.3420 C   0  0  0  0  0  0  0  0  0  0  0  0
  -25.8966  -30.4404   23.3473 C   0  0  0  0  0  0  0  0  0  0  0  0
  -25.8778  -28.6013   24.9140 C   0  0  0  0  0  0  0  0  0  0  0  0
  -34.1687  -22.3539   23.3491 C   0  0  0  0  0  0  0  0  0  0  0  0
  -31.9257  -22.0769   21.7246 C   0  0  0  0  0  0  0  0  0  0  0  0
  -27.0553  -20.7373   22.0843 C   0  0  0  0  0  0  0  0  0  0  0  0
  -26.8464  -31.0972   24.1296 C   0  0  0  0  0  0  0  0  0  0  0  0
  -26.8277  -29.2581   25.6963 C   0  0  0  0  0  0  0  0  0  0  0  0
  -26.1577  -21.3615   21.2193 C   0  0  0  0  0  0  0  0  0  0  0  0
  -30.1810  -30.9292   24.6632 C   0  0  0  0  0  0  0  0  0  0  0  0
  -31.2698  -31.5079   24.0112 C   0  0  0  0  0  0  0  0  0  0  0  0
  -19.9855  -22.9593   20.5794 C   0  0  0  0  0  0  0  0  0  0  0  0
  -18.9689  -25.0368   19.8812 C   0  0  0  0  0  0  0  0  0  0  0  0
  -26.2018  -19.4230   19.7842 C   0  0  0  0  0  0  0  0  0  0  0  0
  -30.6349  -33.6737   24.8732 C   0  0  0  0  0  0  0  0  0  0  0  0
  -25.4122  -29.1924   23.7395 C   0  0  0  0  0  0  0  0  0  0  0  0
  -19.2990  -24.1329   20.8909 C   0  0  0  0  0  0  0  0  0  0  0  0
  -24.6729  -27.6128   21.8778 C   0  0  0  0  0  0  0  0  0  0  0  0
  -33.9080  -21.1155   22.7414 C   0  0  0  0  0  0  0  0  0  0  0  0
  -27.5422  -19.4534   21.7997 C   0  0  0  0  0  0  0  0  0  0  0  0
  -32.7795  -20.9764   21.9111 C   0  0  0  0  0  0  0  0  0  0  0  0
  -27.1036  -18.7836   20.6486 C   0  0  0  0  0  0  0  0  0  0  0  0
  -20.3421  -22.6898   19.2580 C   0  0  0  0  0  0  0  0  0  0  0  0
  -19.3255  -24.7673   18.5598 C   0  0  0  0  0  0  0  0  0  0  0  0
  -27.3120  -30.5060   25.3041 C   0  0  0  0  0  0  0  0  0  0  0  0
  -25.7330  -20.7056   20.0675 C   0  0  0  0  0  0  0  0  0  0  0  0
  -29.3191  -31.7227   25.4202 C   0  0  0  0  0  0  0  0  0  0  0  0
  -20.0121  -23.5937   18.2483 C   0  0  0  0  0  0  0  0  0  0  0  0
  -31.4968  -32.8802   24.1162 C   0  0  0  0  0  0  0  0  0  0  0  0
  -29.5460  -33.0950   25.5252 C   0  0  0  0  0  0  0  0  0  0  0  0
  -24.4306  -28.5137   22.9321 C   0  0  0  0  0  0  0  0  0  0  0  0
  -23.4220  -27.2518   21.4404 C   0  0  0  0  0  0  0  0  0  0  0  0
  -22.5452  -21.6534   18.6865 C   0  0  0  0  0  0  0  0  0  0  0  0
  -23.5208  -21.1227   19.4330 C   0  0  0  0  0  0  0  0  0  1  0  0
  -18.9261  -24.4133   22.2683 C   0  0  0  0  0  0  0  0  0  0  0  0
  -25.9174  -27.1442   21.3419 C   0  0  0  0  0  0  0  0  0  0  0  0
  -18.1969  -25.6496   22.6333 C   0  0  0  0  0  0  0  0  0  0  0  0
  -30.4157  -18.2191   21.2312 C   0  0  0  0  0  0  0  0  0  0  0  0
  -28.7916  -15.4117   21.2883 C   0  0  0  0  0  0  0  0  0  0  0  0
  -25.8195  -13.7759   20.9170 C   0  0  0  0  0  0  0  0  0  0  0  0
  -34.8875  -19.9868   22.9444 C   0  0  0  0  0  0  0  0  0  0  0  0
  -28.4894  -18.7830   22.7567 C   0  0  0  0  0  0  0  0  0  0  0  0
  -27.5807  -17.3962   20.3080 C   0  0  0  0  0  0  0  0  0  0  0  0
  -34.3310  -18.6198   22.5547 C   0  0  0  0  0  0  0  0  0  0  0  0
  -18.8713  -29.1686   22.4982 C   0  0  0  0  0  0  0  0  0  0  0  0
  -33.6337  -18.6938   21.2000 C   0  0  0  0  0  0  0  0  0  0  0  0
  -20.3971  -29.2380   22.5520 C   0  0  0  0  0  0  0  0  0  0  0  0
  -18.3355  -28.0082   23.3305 C   0  0  0  0  0  0  0  0  0  0  0  0
  -20.4457  -26.7457   23.0116 C   0  0  0  0  0  0  0  0  0  0  0  0
  -32.4439  -19.6602   21.2439 C   0  0  1  0  0  0  0  0  0  0  0  0
  -29.3175  -17.6805   22.1039 C   0  0  1  0  0  0  0  0  0  0  0  0
  -21.0254  -27.8887   22.1603 C   0  0  2  0  0  0  0  0  0  0  0  0
  -24.8134  -11.4780   20.9878 C   0  0  0  0  0  0  0  0  0  0  0  0
  -30.0010  -14.8005   18.5544 C   0  0  0  0  0  0  0  0  0  0  0  0
  -28.2696  -13.0154   18.2650 C   0  0  0  0  0  0  0  0  0  0  0  0
  -29.9276  -12.8530   20.1217 C   0  0  0  0  0  0  0  0  0  0  0  0
  -24.0112  -14.5100   23.1418 C   0  0  0  0  0  0  0  0  0  0  0  0
  -21.0857  -21.4163   18.9421 C   0  0  0  0  0  0  0  0  0  0  0  0
  -28.0763  -14.5693   20.2598 C   0  0  1  0  0  0  0  0  0  0  0  0
  -25.1265  -12.7375   21.7806 C   0  0  2  0  0  0  0  0  0  0  0  0
  -29.0609  -13.8364   19.3054 C   0  0  0  0  0  0  0  0  0  0  0  0
  -23.1282  -28.7129   23.1511 N   0  0  0  0  0  0  0  0  0  0  0  0
  -19.1993  -23.6117   23.2622 N   0  0  0  0  0  0  0  0  0  0  0  0
  -22.5408  -27.9322   22.2283 N   0  0  0  0  0  0  0  0  0  0  0  0
  -18.9783  -26.7496   22.9582 N   0  0  0  0  0  0  0  0  0  0  0  0
  -28.5110  -16.7853   21.2718 N   0  0  0  0  0  0  0  0  0  0  0  0
  -18.9849  -25.6926   17.5487 N   0  0  0  0  0  0  0  0  0  0  0  0
  -23.0008  -26.4220   20.4624 N   0  0  0  0  0  0  0  0  0  0  0  0
  -27.1091  -27.6161   21.9089 N   0  0  0  0  0  0  0  0  0  0  0  0
  -31.3106  -19.0374   21.8937 N   0  0  0  0  0  0  0  0  0  0  0  0
  -27.1922  -13.6792   21.0045 N   0  0  0  0  0  0  0  0  0  0  0  0
  -23.8491  -13.2823   22.3211 N   0  3  0  0  0  0  0  0  0  0  0  0
  -25.9712  -26.3436   20.3776 O   0  0  0  0  0  0  0  0  0  0  0  0
  -16.9758  -25.5681   22.6097 O   0  0  0  0  0  0  0  0  0  0  0  0
  -30.4495  -17.9135   20.0449 O   0  0  0  0  0  0  0  0  0  0  0  0
  -29.5651  -14.8698   22.0818 O   0  0  0  0  0  0  0  0  0  0  0  0
  -25.2047  -14.5888   20.2302 O   0  0  0  0  0  0  0  0  0  0  0  0
  -20.3609  -23.3266   16.9566 O   0  0  0  0  0  0  0  0  0  0  0  0
  -28.2390  -31.1465   26.0676 O   0  0  0  0  0  0  0  0  0  0  0  0
  -24.8574  -21.3129   19.2211 O   0  0  0  0  0  0  0  0  0  1  0  0
  -32.5433  -33.4355   23.4913 F   0  0  0  0  0  0  0  0  0  0  0  0
  -28.7221  -33.8623   26.2520 F   0  0  0  0  0  0  0  0  0  0  0  0
  1  2  1  0  0  0  0
  1  5  2  0  0  0  0
  2  6  2  0  0  0  0
  3  8  2  0  0  0  0
  3 17  1  0  0  0  0
  4  9  1  0  0  0  0
  4 17  2  0  0  0  0
  5 20  1  0  0  0  0
  6 22  1  0  0  0  0
  7 10  2  0  0  0  0
  7 21  1  0  0  0  0
  8 26  1  0  0  0  0
  9 26  2  0  0  0  0
 10 27  1  0  0  0  0
 11 12  2  0  0  0  0
 11 28  1  0  0  0  0
 12 30  1  0  0  0  0
 13 18  2  0  0  0  0
 13 24  1  0  0  0  0
 14 18  1  0  0  0  0
 14 25  2  0  0  0  0
 15 23  1  0  0  0  0
 15 27  2  0  0  0  0
 16 30  2  0  0  0  0
 16 31  1  0  0  0  0
 17 32  1  0  0  0  0
 18 36  1  0  0  0  0
 19 32  1  0  0  0  0
 19 33  2  0  0  0  0
 19 37  1  0  0  0  0
 20 22  2  0  0  0  0
 20 42  1  0  0  0  0
 21 23  2  0  0  0  0
 21 43  1  0  0  0  0
 22 51  1  0  0  0  0
 23 44  1  0  0  0  0
 24 29  2  0  0  0  0
 24 59  1  0  0  0  0
 25 29  1  0  0  0  0
 25 68  1  0  0  0  0
 26 80  1  0  0  0  0
 27 81  1  0  0  0  0
 28 31  2  0  0  0  0
 28 80  1  0  0  0  0
 29 79  1  0  0  0  0
 30 82  1  0  0  0  0
 31 83  1  0  0  0  0
 32 63  2  0  0  0  0
 33 65  1  0  0  0  0
 33 69  1  0  0  0  0
 34 35  2  0  0  0  0
 34 59  1  0  0  0  0
 35 81  1  0  0  0  0
 36 38  1  0  0  0  0
 36 64  2  0  0  0  0
 37 70  1  0  0  0  0
 37 74  2  0  0  0  0
 38 66  1  0  0  0  0
 38 75  2  0  0  0  0
 39 52  1  0  0  0  0
 39 71  1  0  0  0  0
 39 76  2  0  0  0  0
 40 60  1  0  0  0  0
 40 67  1  0  0  0  0
 40 77  2  0  0  0  0
 41 61  1  0  0  0  0
 41 72  1  0  0  0  0
 41 78  2  0  0  0  0
 42 45  1  0  0  0  0
 43 52  1  0  0  0  0
 44 67  1  0  0  0  0
 45 47  1  0  0  0  0
 46 48  1  0  0  0  0
 46 49  1  0  0  0  0
 47 51  1  0  0  0  0
 48 53  1  0  0  0  0
 49 66  1  0  0  0  0
 50 53  1  0  0  0  0
 50 66  1  0  0  0  0
 51 71  1  0  0  0  0
 52 67  1  0  0  0  0
 53 65  1  0  0  0  0
 54 61  1  0  0  0  0
 55 62  1  0  0  0  0
 56 62  1  0  0  0  0
 57 62  1  0  0  0  0
 58 73  1  0  0  0  0
 60 62  1  0  0  0  0
 60 72  1  0  0  0  0
 61 73  1  0  0  0  0
 63 65  1  0  0  0  0
M  CHG  1  73   1
M  ISO  4  35 101  36 100  38 100  81 101
M  END
> <Batch ID>
0109

> <Smiles>
CNC(C)C(=O)NC(C(=O)N1Cc2cc([101O:1][101CH:1]=CCc3cc([100C:0](=N)[100C:0](=O)N4CCCC(n5nc(-c6ccc(Oc7ccc(F)cc7F)cc6)c(C(N)=O)c5N)C4)cc(N)c3O)ccc2CC1C(=O)NC1CCCc2ccccc21)C(C)(C)C

> <Shape>
0.196

> <Color>
0.059

> <Negative vol penalty>
0.000

$$$$

  -OEChem-04052301233D

 84 92  0     1  0  0  0  0  0999 V2000
  -25.7669  -34.7195   22.1665 C   0  0  0  0  0  0  0  0  0  0  0  0
  -26.5807  -33.8098   21.4990 C   0  0  0  0  0  0  0  0  0  0  0  0
  -24.0318   -9.7046   19.9571 C   0  0  0  0  0  0  0  0  0  0  0  0
  -24.6779  -10.0189   22.2638 C   0  0  0  0  0  0  0  0  0  0  0  0
  -26.7113  -20.9771   19.7159 C   0  0  0  0  0  0  0  0  0  0  0  0
  -25.3798  -34.4716   23.4828 C   0  0  0  0  0  0  0  0  0  0  0  0
  -27.0089  -32.6522   22.1479 C   0  0  0  0  0  0  0  0  0  0  0  0
  -27.9009  -27.1390   19.6350 C   0  0  0  0  0  0  0  0  0  0  0  0
  -23.6843   -8.3826   20.2346 C   0  0  0  0  0  0  0  0  0  0  0  0
  -24.3303   -8.6969   22.5413 C   0  0  0  0  0  0  0  0  0  0  0  0
  -27.6123  -21.6118   18.8610 C   0  0  0  0  0  0  0  0  0  0  0  0
  -29.0492  -26.4861   19.1890 C   0  0  0  0  0  0  0  0  0  0  0  0
  -23.2743   -5.5106   23.9380 C   0  0  0  0  0  0  0  0  0  0  0  0
  -22.5344   -5.2628   25.0942 C   0  0  0  0  0  0  0  0  0  0  0  0
  -29.2170  -25.3461   21.3083 C   0  0  0  0  0  0  0  0  0  0  0  0
  -29.4440  -20.4614   19.9375 C   0  0  0  0  0  0  0  0  0  0  0  0
  -20.7637   -6.6821   24.2653 C   0  0  0  0  0  0  0  0  0  0  0  0
  -24.5287  -10.5228   20.9717 C   0  0  0  0  0  0  0  0  0  0  0  0
  -27.1766  -20.0846   20.6817 C   0  0  0  0  0  0  0  0  0  0  0  0
  -24.0562  -13.0211   20.7645 C   0  0  0  0  0  0  0  0  0  0  0  0
  -25.7955  -33.3057   24.1449 C   0  0  0  0  0  0  0  0  0  0  0  0
  -27.4074  -26.9081   20.9271 C   0  0  0  0  0  0  0  0  0  0  0  0
  -26.6281  -32.3892   23.4748 C   0  0  0  0  0  0  0  0  0  0  0  0
  -28.0608  -25.9953   21.7674 C   0  0  0  0  0  0  0  0  0  0  0  0
  -28.5429  -19.8268   20.7924 C   0  0  0  0  0  0  0  0  0  0  0  0
  -23.8335   -7.8787   21.5267 C   0  0  0  0  0  0  0  0  0  0  0  0
  -29.7091  -25.5917   20.0267 C   0  0  0  0  0  0  0  0  0  0  0  0
  -28.9787  -21.3540   18.9718 C   0  0  0  0  0  0  0  0  0  0  0  0
  -22.7589   -6.3443   22.9455 C   0  0  0  0  0  0  0  0  0  0  0  0
  -21.2791   -5.8485   25.2578 C   0  0  0  0  0  0  0  0  0  0  0  0
  -21.5036   -6.9300   23.1091 C   0  0  0  0  0  0  0  0  0  0  0  0
  -24.8884  -11.8884   20.6856 C   0  0  0  0  0  0  0  0  0  0  0  0
  -24.8653  -14.0680   20.3961 C   0  0  0  0  0  0  0  0  0  0  0  0
  -25.2474  -18.6383   21.1305 C   0  0  0  0  0  0  0  0  0  0  0  0
  -26.2102  -19.4397   21.5609 C   0  0  0  0  0  0  0  0  0  0  0  0
  -22.6752  -13.1183   21.1376 C   0  0  0  0  0  0  0  0  0  0  0  0
  -26.9432  -28.7078   23.5058 C   0  0  0  0  0  0  0  0  0  0  0  0
  -25.5588  -26.0109   24.6602 C   0  0  0  0  0  0  0  0  0  0  0  0
  -25.2920  -22.6108   24.5381 C   0  0  0  0  0  0  0  0  0  0  0  0
  -29.7346  -16.7820   20.6593 C   0  0  0  0  0  0  0  0  0  0  0  0
  -25.3902  -33.1042   25.5836 C   0  0  0  0  0  0  0  0  0  0  0  0
  -26.1523  -27.6001   21.3837 C   0  0  0  0  0  0  0  0  0  0  0  0
  -27.5600  -25.6972   23.1562 C   0  0  0  0  0  0  0  0  0  0  0  0
  -25.5797  -31.6713   26.0748 C   0  0  0  0  0  0  0  0  0  0  0  0
  -29.4869  -14.0918   18.3403 C   0  0  0  0  0  0  0  0  0  0  0  0
  -26.9500  -31.1427   25.6630 C   0  0  0  0  0  0  0  0  0  0  0  0
  -28.2038  -13.3690   18.7542 C   0  0  0  0  0  0  0  0  0  0  0  0
  -30.2486  -14.6272   19.5507 C   0  0  0  0  0  0  0  0  0  0  0  0
  -28.1707  -14.7557   20.8696 C   0  0  0  0  0  0  0  0  0  0  0  0
  -27.0928  -31.1100   24.1365 C   0  0  1  0  0  0  0  0  0  0  0  0
  -26.0312  -27.6773   22.9025 C   0  0  1  0  0  0  0  0  0  0  0  0
  -27.3395  -14.2466   19.6794 C   0  0  2  0  0  0  0  0  0  0  0  0
  -24.4018  -20.3246   25.0655 C   0  0  0  0  0  0  0  0  0  0  0  0
  -27.4105  -26.2435   27.0741 C   0  0  0  0  0  0  0  0  0  0  0  0
  -26.8728  -23.8620   27.6283 C   0  0  0  0  0  0  0  0  0  0  0  0
  -25.0625  -25.5782   27.6207 C   0  0  0  0  0  0  0  0  0  0  0  0
  -23.2442  -22.7902   22.4089 C   0  0  0  0  0  0  0  0  0  0  0  0
  -29.0766  -18.8768   21.8161 C   0  0  0  0  0  0  0  0  0  0  0  0
  -31.7660  -23.4443   17.9606 C   0  0  0  0  0  0  0  0  0  0  0  0
  -30.9304  -24.6930   18.1946 C   0  0  0  0  0  0  0  0  0  1  0  0
  -31.1675  -22.2234   18.6413 C   0  0  0  0  0  0  0  0  0  0  0  0
  -26.0444  -24.8026   25.4238 C   0  0  1  0  0  0  0  0  0  0  0  0
  -24.0811  -21.6964   24.4927 C   0  0  2  0  0  0  0  0  0  0  0  0
  -26.3584  -25.1284   26.9113 C   0  0  0  0  0  0  0  0  0  0  0  0
  -26.1309  -12.1875   20.2973 N   0  0  0  0  0  0  0  0  0  0  0  0
  -26.0854  -13.5200   20.1290 N   0  0  0  0  0  0  0  0  0  0  0  0
  -26.3327  -26.4036   23.5590 N   0  0  0  0  0  0  0  0  0  0  0  0
  -29.3729  -15.4525   20.3861 N   0  0  0  0  0  0  0  0  0  0  0  0
  -24.6451  -15.3946   20.2778 N   0  0  0  0  0  0  0  0  0  0  0  0
  -21.9935  -11.9447   21.4877 N   0  0  0  0  0  0  0  0  0  0  0  0
  -26.3889  -29.9709   23.5874 N   0  0  0  0  0  0  0  0  0  0  0  0
  -25.0314  -23.7690   25.2395 N   0  0  0  0  0  0  0  0  0  0  0  0
  -28.8458  -17.4962   21.4535 N   0  0  0  0  0  0  0  0  0  0  0  0
  -23.6161  -21.5221   23.0876 N   0  3  0  0  0  0  0  0  0  0  0  0
  -22.0594  -14.2111   21.1441 O   0  0  0  0  0  0  0  0  0  0  0  0
  -28.0661  -28.3808   23.8717 O   0  0  0  0  0  0  0  0  0  0  0  0
  -24.5268  -26.5810   25.0230 O   0  0  0  0  0  0  0  0  0  0  0  0
  -26.3632  -22.3245   24.0079 O   0  0  0  0  0  0  0  0  0  0  0  0
  -30.7701  -17.2963   20.2229 O   0  0  0  0  0  0  0  0  0  0  0  0
  -23.4943   -6.5887   21.7979 O   0  0  0  0  0  0  0  0  0  0  0  0
  -30.8305  -24.9537   19.5940 O   0  0  0  0  0  0  0  0  0  1  0  0
  -29.8640  -21.9772   18.1313 O   0  0  0  0  0  0  0  0  0  0  0  0
  -20.5681   -5.6092   26.3675 F   0  0  0  0  0  0  0  0  0  0  0  0
  -21.0027   -7.7308   22.1585 F   0  0  0  0  0  0  0  0  0  0  0  0
  1  2  1  0  0  0  0
  1  6  2  0  0  0  0
  2  7  2  0  0  0  0
  3  9  2  0  0  0  0
  3 18  1  0  0  0  0
  4 10  1  0  0  0  0
  4 18  2  0  0  0  0
  5 11  2  0  0  0  0
  5 19  1  0  0  0  0
  6 21  1  0  0  0  0
  7 23  1  0  0  0  0
  8 12  2  0  0  0  0
  8 22  1  0  0  0  0
  9 26  1  0  0  0  0
 10 26  2  0  0  0  0
 11 28  1  0  0  0  0
 12 27  1  0  0  0  0
 13 14  2  0  0  0  0
 13 29  1  0  0  0  0
 14 30  1  0  0  0  0
 15 24  1  0  0  0  0
 15 27  2  0  0  0  0
 16 25  1  0  0  0  0
 16 28  2  0  0  0  0
 17 30  2  0  0  0  0
 17 31  1  0  0  0  0
 18 32  1  0  0  0  0
 19 25  2  0  0  0  0
 19 35  1  0  0  0  0
 20 32  1  0  0  0  0
 20 33  2  0  0  0  0
 20 36  1  0  0  0  0
 21 23  2  0  0  0  0
 21 41  1  0  0  0  0
 22 24  2  0  0  0  0
 22 42  1  0  0  0  0
 23 50  1  0  0  0  0
 24 43  1  0  0  0  0
 25 58  1  0  0  0  0
 26 80  1  0  0  0  0
 27 81  1  0  0  0  0
 28 82  1  0  0  0  0
 29 31  2  0  0  0  0
 29 80  1  0  0  0  0
 30 83  1  0  0  0  0
 31 84  1  0  0  0  0
 32 65  2  0  0  0  0
 33 66  1  0  0  0  0
 33 69  1  0  0  0  0
 34 35  2  0  0  0  0
 36 70  1  0  0  0  0
 36 75  2  0  0  0  0
 37 51  1  0  0  0  0
 37 71  1  0  0  0  0
 37 76  2  0  0  0  0
 38 62  1  0  0  0  0
 38 67  1  0  0  0  0
 38 77  2  0  0  0  0
 39 63  1  0  0  0  0
 39 72  1  0  0  0  0
 39 78  2  0  0  0  0
 40 68  1  0  0  0  0
 40 73  1  0  0  0  0
 40 79  2  0  0  0  0
 41 44  1  0  0  0  0
 42 51  1  0  0  0  0
 43 67  1  0  0  0  0
 44 46  1  0  0  0  0
 45 47  1  0  0  0  0
 45 48  1  0  0  0  0
 46 50  1  0  0  0  0
 47 52  1  0  0  0  0
 48 68  1  0  0  0  0
 49 52  1  0  0  0  0
 49 68  1  0  0  0  0
 50 71  1  0  0  0  0
 51 67  1  0  0  0  0
 52 66  1  0  0  0  0
 53 63  1  0  0  0  0
 54 64  1  0  0  0  0
 55 64  1  0  0  0  0
 56 64  1  0  0  0  0
 57 74  1  0  0  0  0
 58 73  1  0  0  0  0
 59 60  1  0  0  0  0
 59 61  1  0  0  0  0
 60 81  1  0  0  0  0
 61 82  1  0  0  0  0
 62 64  1  0  0  0  0
 62 72  1  0  0  0  0
 63 74  1  0  0  0  0
 65 66  1  0  0  0  0
M  CHG  1  74   1
M  ISO  4  40 100  60 101  73 100  81 101
M  END
> <Batch ID>
0109

> <Smiles>
C=Cc1ccc(OCC[101CH2:1][101O:1]c2ccc3c(c2)CN(C(=O)C(NC(=O)C(C)NC)C(C)(C)C)C(C(=O)NC2CCCc4ccccc42)C3)cc1C[100NH:0][100C:0](=O)N1CCCC(n2nc(-c3ccc(Oc4ccc(F)cc4F)cc3)c(C(N)=O)c2N)C1

> <Shape>
0.299

> <Color>
0.119

> <Negative vol penalty>
0.000

$$$$

  -OEChem-04052301233D

 85 93  0     1  0  0  0  0  0999 V2000
  -27.8125  -37.6032   18.9661 C   0  0  0  0  0  0  0  0  0  0  0  0
  -28.1566  -36.2837   18.6908 C   0  0  0  0  0  0  0  0  0  0  0  0
  -23.6194   -9.5729   20.1623 C   0  0  0  0  0  0  0  0  0  0  0  0
  -22.9607  -11.8712   20.5106 C   0  0  0  0  0  0  0  0  0  0  0  0
  -27.3345  -37.9487   20.2295 C   0  0  0  0  0  0  0  0  0  0  0  0
  -28.0239  -35.3090   19.6792 C   0  0  0  0  0  0  0  0  0  0  0  0
  -26.4525  -29.4442   18.8788 C   0  0  0  0  0  0  0  0  0  0  0  0
  -22.3178   -9.1574   20.4427 C   0  0  0  0  0  0  0  0  0  0  0  0
  -21.6590  -11.4556   20.7909 C   0  0  0  0  0  0  0  0  0  0  0  0
  -27.2060  -28.2742   18.7954 C   0  0  0  0  0  0  0  0  0  0  0  0
  -20.3967   -8.6615   23.1791 C   0  0  0  0  0  0  0  0  0  0  0  0
  -20.2354   -7.5686   24.0306 C   0  0  0  0  0  0  0  0  0  0  0  0
  -29.8752  -17.5698   22.1718 C   0  0  0  0  0  0  0  0  0  0  0  0
  -26.8230  -27.8674   21.1421 C   0  0  0  0  0  0  0  0  0  0  0  0
  -28.4124  -18.5191   19.9942 C   0  0  0  0  0  0  0  0  0  0  0  0
  -19.0918   -6.3682   22.2731 C   0  0  0  0  0  0  0  0  0  0  0  0
  -23.9409  -10.9299   20.1964 C   0  0  0  0  0  0  0  0  0  0  0  0
  -29.8648  -16.8553   20.9739 C   0  0  0  0  0  0  0  0  0  0  0  0
  -25.8165  -11.7028   18.6496 C   0  0  0  0  0  0  0  0  0  0  0  0
  -27.1868  -36.9761   21.2308 C   0  0  0  0  0  0  0  0  0  0  0  0
  -25.8867  -29.8410   20.0990 C   0  0  0  0  0  0  0  0  0  0  0  0
  -27.5448  -35.6421   20.9576 C   0  0  0  0  0  0  0  0  0  0  0  0
  -26.0606  -29.0415   21.2377 C   0  0  0  0  0  0  0  0  0  0  0  0
  -29.1334  -17.3300   19.8851 C   0  0  0  0  0  0  0  0  0  0  0  0
  -29.1541  -18.7589   22.2810 C   0  0  0  0  0  0  0  0  0  0  0  0
  -21.3375  -10.0987   20.7570 C   0  0  0  0  0  0  0  0  0  0  0  0
  -27.3939  -27.4871   19.9277 C   0  0  0  0  0  0  0  0  0  0  0  0
  -19.9056   -8.6079   21.8747 C   0  0  0  0  0  0  0  0  0  0  0  0
  -28.4228  -19.2335   21.1922 C   0  0  0  0  0  0  0  0  0  0  0  0
  -19.5830   -6.4219   23.5776 C   0  0  0  0  0  0  0  0  0  0  0  0
  -19.2531   -7.4612   21.4217 C   0  0  0  0  0  0  0  0  0  0  0  0
  -25.2854  -11.3597   19.9075 C   0  0  0  0  0  0  0  0  0  0  0  0
  -27.1228  -12.0389   18.9085 C   0  0  0  0  0  0  0  0  0  0  0  0
  -30.6229  -15.6146   20.8881 C   0  0  0  0  0  0  0  0  0  0  0  0
  -25.1853  -11.7165   17.3623 C   0  0  0  0  0  0  0  0  0  0  0  0
  -30.8405  -14.7620   22.0793 C   0  0  0  0  0  0  0  0  0  0  0  0
  -26.2155  -32.3592   22.0105 C   0  0  0  0  0  0  0  0  0  0  0  0
  -23.7712  -30.9640   23.6233 C   0  0  0  0  0  0  0  0  0  0  0  0
  -22.0445  -28.1167   24.3704 C   0  0  0  0  0  0  0  0  0  0  0  0
  -26.7108  -37.4060   22.5958 C   0  0  0  0  0  0  0  0  0  0  0  0
  -25.0541  -31.0918   20.1663 C   0  0  0  0  0  0  0  0  0  0  0  0
  -25.4572  -29.4127   22.5669 C   0  0  0  0  0  0  0  0  0  0  0  0
  -26.2457  -36.2457   23.4721 C   0  0  0  0  0  0  0  0  0  0  0  0
  -29.9276  -11.4374   23.0645 C   0  0  0  0  0  0  0  0  0  0  0  0
  -27.2526  -35.1010   23.4208 C   0  0  0  0  0  0  0  0  0  0  0  0
  -28.6596  -11.1652   22.2559 C   0  0  0  0  0  0  0  0  0  0  0  0
  -30.0242  -12.9032   23.4748 C   0  0  0  0  0  0  0  0  0  0  0  0
  -28.6717  -13.5886   21.5127 C   0  0  0  0  0  0  0  0  0  0  0  0
  -27.3915  -34.5518   21.9958 C   0  0  1  0  0  0  0  0  0  0  0  0
  -24.9543  -31.6680   21.5754 C   0  0  1  0  0  0  0  0  0  0  0  0
  -28.5530  -12.1239   21.0567 C   0  0  2  0  0  0  0  0  0  0  0  0
  -29.1039  -16.5834   18.5914 C   0  0  0  0  0  0  0  0  0  0  0  0
  -20.1189  -27.2848   25.7478 C   0  0  0  0  0  0  0  0  0  0  0  0
  -25.4981  -31.1300   26.1334 C   0  0  0  0  0  0  0  0  0  0  0  0
  -23.9628  -29.4743   27.2148 C   0  0  0  0  0  0  0  0  0  0  0  0
  -23.0873  -31.6937   26.4866 C   0  0  0  0  0  0  0  0  0  0  0  0
  -20.5714  -27.2048   21.9709 C   0  0  0  0  0  0  0  0  0  0  0  0
  -28.1300  -23.9445   20.1109 C   0  0  0  0  0  0  0  0  0  0  0  0
  -27.7571  -22.7812   21.0232 C   0  0  0  0  0  0  0  0  0  0  0  0
  -27.7830  -25.2866   20.7415 C   0  0  0  0  0  0  0  0  0  1  0  0
  -28.0641  -21.4382   20.3759 C   0  0  0  0  0  0  0  0  0  0  0  0
  -23.6661  -29.9568   24.7429 C   0  0  1  0  0  0  0  0  0  0  0  0
  -20.5563  -27.8176   24.3923 C   0  0  2  0  0  0  0  0  0  0  0  0
  -24.0667  -30.5574   26.1200 C   0  0  0  0  0  0  0  0  0  0  0  0
  -26.1813  -11.4678   20.8922 N   0  0  0  0  0  0  0  0  0  0  0  0
  -31.1508  -15.1751   19.7791 N   0  0  0  0  0  0  0  0  0  0  0  0
  -27.2885  -11.8824   20.2532 N   0  0  0  0  0  0  0  0  0  0  0  0
  -29.8831  -13.7862   22.3187 N   0  0  0  0  0  0  0  0  0  0  0  0
  -24.6568  -30.6482   22.5832 N   0  0  0  0  0  0  0  0  0  0  0  0
  -29.1735  -19.4724   23.4994 N   0  0  0  0  0  0  0  0  0  0  0  0
  -28.1345  -12.4499   18.1148 N   0  0  0  0  0  0  0  0  0  0  0  0
  -23.8374  -11.3426   17.2751 N   0  0  0  0  0  0  0  0  0  0  0  0
  -26.2690  -33.6978   21.6717 N   0  0  0  0  0  0  0  0  0  0  0  0
  -22.3059  -29.4315   24.6931 N   0  0  0  0  0  0  0  0  0  0  0  0
  -20.2169  -26.8017   23.3561 N   0  3  0  0  0  0  0  0  0  0  0  0
  -25.8030  -12.0346   16.3179 O   0  0  0  0  0  0  0  0  0  0  0  0
  -31.8474  -15.0111   22.7294 O   0  0  0  0  0  0  0  0  0  0  0  0
  -27.0756  -31.7254   22.6106 O   0  0  0  0  0  0  0  0  0  0  0  0
  -23.0873  -31.9897   23.6664 O   0  0  0  0  0  0  0  0  0  0  0  0
  -22.8906  -27.2679   24.0982 O   0  0  0  0  0  0  0  0  0  0  0  0
  -20.0672   -9.6935   21.0303 O   0  0  0  0  0  0  0  0  0  0  0  0
  -28.1295  -26.3449   19.8493 O   0  0  0  0  0  0  0  0  0  1  0  0
  -27.7090  -20.4005   21.2793 O   0  0  0  0  0  0  0  0  0  0  0  0
  -19.4295   -5.3718   24.3949 F   0  0  0  0  0  0  0  0  0  0  0  0
  -18.7802   -7.4034   20.1692 F   0  0  0  0  0  0  0  0  0  0  0  0
  1  2  1  0  0  0  0
  1  5  2  0  0  0  0
  2  6  2  0  0  0  0
  3  8  2  0  0  0  0
  3 17  1  0  0  0  0
  4  9  1  0  0  0  0
  4 17  2  0  0  0  0
  5 20  1  0  0  0  0
  6 22  1  0  0  0  0
  7 10  2  0  0  0  0
  7 21  1  0  0  0  0
  8 26  1  0  0  0  0
  9 26  2  0  0  0  0
 10 27  1  0  0  0  0
 11 12  2  0  0  0  0
 11 28  1  0  0  0  0
 12 30  1  0  0  0  0
 13 18  2  0  0  0  0
 13 25  1  0  0  0  0
 14 23  1  0  0  0  0
 14 27  2  0  0  0  0
 15 24  2  0  0  0  0
 15 29  1  0  0  0  0
 16 30  2  0  0  0  0
 16 31  1  0  0  0  0
 17 32  1  0  0  0  0
 18 24  1  0  0  0  0
 18 34  1  0  0  0  0
 19 32  1  0  0  0  0
 19 33  2  0  0  0  0
 19 35  1  0  0  0  0
 20 22  2  0  0  0  0
 20 40  1  0  0  0  0
 21 23  2  0  0  0  0
 21 41  1  0  0  0  0
 22 49  1  0  0  0  0
 23 42  1  0  0  0  0
 24 52  1  0  0  0  0
 25 29  2  0  0  0  0
 25 70  1  0  0  0  0
 26 81  1  0  0  0  0
 27 82  1  0  0  0  0
 28 31  2  0  0  0  0
 28 81  1  0  0  0  0
 29 83  1  0  0  0  0
 30 84  1  0  0  0  0
 31 85  1  0  0  0  0
 32 65  2  0  0  0  0
 33 67  1  0  0  0  0
 33 71  1  0  0  0  0
 34 36  1  0  0  0  0
 34 66  2  0  0  0  0
 35 72  1  0  0  0  0
 35 76  2  0  0  0  0
 36 68  1  0  0  0  0
 36 77  2  0  0  0  0
 37 50  1  0  0  0  0
 37 73  1  0  0  0  0
 37 78  2  0  0  0  0
 38 62  1  0  0  0  0
 38 69  1  0  0  0  0
 38 79  2  0  0  0  0
 39 63  1  0  0  0  0
 39 74  1  0  0  0  0
 39 80  2  0  0  0  0
 40 43  1  0  0  0  0
 41 50  1  0  0  0  0
 42 69  1  0  0  0  0
 43 45  1  0  0  0  0
 44 46  1  0  0  0  0
 44 47  1  0  0  0  0
 45 49  1  0  0  0  0
 46 51  1  0  0  0  0
 47 68  1  0  0  0  0
 48 51  1  0  0  0  0
 48 68  1  0  0  0  0
 49 73  1  0  0  0  0
 50 69  1  0  0  0  0
 51 67  1  0  0  0  0
 53 63  1  0  0  0  0
 54 64  1  0  0  0  0
 55 64  1  0  0  0  0
 56 64  1  0  0  0  0
 57 75  1  0  0  0  0
 58 59  1  0  0  0  0
 58 60  1  0  0  0  0
 59 61  1  0  0  0  0
 60 82  1  0  0  0  0
 61 83  1  0  0  0  0
 62 64  1  0  0  0  0
 62 74  1  0  0  0  0
 63 75  1  0  0  0  0
 65 67  1  0  0  0  0
M  CHG  1  75   1
M  ISO  4  34 100  36 100  60 101  82 101
M  END
> <Batch ID>
0109

> <Smiles>
CNC(C)C(=O)NC(C(=O)N1Cc2cc([101O:1][101CH2:1]CCCOc3cc(C)c([100C:0](=N)[100C:0](=O)N4CCCC(n5nc(-c6ccc(Oc7ccc(F)cc7F)cc6)c(C(N)=O)c5N)C4)cc3N)ccc2CC1C(=O)NC1CCCc2ccccc21)C(C)(C)C

> <Shape>
0.278

> <Color>
0.079

> <Negative vol penalty>
0.000

$$$$

  -OEChem-04052301233D

 89 97  0     1  0  0  0  0  0999 V2000
  -21.7099   -7.6166   18.0961 C   0  0  0  0  0  0  0  0  0  0  0  0
  -21.3196   -8.9159   17.7882 C   0  0  0  0  0  0  0  0  0  0  0  0
  -22.2340  -28.8495   21.8776 C   0  0  0  0  0  0  0  0  0  0  0  0
  -23.1919  -30.7754   22.9778 C   0  0  0  0  0  0  0  0  0  0  0  0
  -22.3972   -7.3588   19.2814 C   0  0  0  0  0  0  0  0  0  0  0  0
  -21.6154   -9.9581   18.6661 C   0  0  0  0  0  0  0  0  0  0  0  0
  -23.0081  -15.7352   17.1858 C   0  0  0  0  0  0  0  0  0  0  0  0
  -21.1864  -28.8444   22.7984 C   0  0  0  0  0  0  0  0  0  0  0  0
  -22.1442  -30.7704   23.8986 C   0  0  0  0  0  0  0  0  0  0  0  0
  -22.2474  -16.9030   17.1470 C   0  0  0  0  0  0  0  0  0  0  0  0
  -18.3094  -30.5464   23.3076 C   0  0  0  0  0  0  0  0  0  0  0  0
  -17.0151  -30.3773   22.8160 C   0  0  0  0  0  0  0  0  0  0  0  0
  -26.7104  -21.8585   18.6229 C   0  0  0  0  0  0  0  0  0  0  0  0
  -23.0233  -17.4746   19.3585 C   0  0  0  0  0  0  0  0  0  0  0  0
  -16.7702  -28.3770   24.1487 C   0  0  0  0  0  0  0  0  0  0  0  0
  -23.2368  -29.8149   21.9673 C   0  0  0  0  0  0  0  0  0  0  0  0
  -27.0573  -23.1429   18.2039 C   0  0  0  0  0  0  0  0  0  0  0  0
  -26.2093  -23.8518   17.3530 C   0  0  0  0  0  0  0  0  0  0  0  0
  -24.3664  -30.5008   19.7852 C   0  0  0  0  0  0  0  0  0  0  0  0
  -22.7102   -8.3998   20.1697 C   0  0  0  0  0  0  0  0  0  0  0  0
  -23.7748  -15.4225   18.3175 C   0  0  0  0  0  0  0  0  0  0  0  0
  -22.3064   -9.7138   19.8650 C   0  0  0  0  0  0  0  0  0  0  0  0
  -23.7948  -16.3035   19.4081 C   0  0  0  0  0  0  0  0  0  0  0  0
  -25.5154  -21.2830   18.1910 C   0  0  0  0  0  0  0  0  0  0  0  0
  -21.1414  -29.8049   23.8089 C   0  0  0  0  0  0  0  0  0  0  0  0
  -22.2527  -17.7715   18.2346 C   0  0  0  0  0  0  0  0  0  0  0  0
  -18.8342  -29.6308   24.2198 C   0  0  0  0  0  0  0  0  0  0  0  0
  -25.0143  -23.2763   16.9211 C   0  0  0  0  0  0  0  0  0  0  0  0
  -24.6674  -21.9918   17.3401 C   0  0  0  0  0  0  0  0  0  0  0  0
  -16.2455  -29.2927   23.2366 C   0  0  0  0  0  0  0  0  0  0  0  0
  -18.0646  -28.5461   24.6403 C   0  0  0  0  0  0  0  0  0  0  0  0
  -24.3197  -29.8203   21.0167 C   0  0  0  0  0  0  0  0  0  0  0  0
  -25.5982  -30.1860   19.2656 C   0  0  0  0  0  0  0  0  0  0  0  0
  -26.5650  -25.1962   16.9098 C   0  0  0  0  0  0  0  0  0  0  0  0
  -28.3371  -23.7257   18.6828 C   0  0  0  0  0  0  0  0  0  0  0  0
  -23.3842  -31.3422   19.1664 C   0  0  0  0  0  0  0  0  0  0  0  0
  -23.7848  -13.0518   20.4350 C   0  0  0  0  0  0  0  0  0  0  0  0
  -26.4635  -14.5375   21.5027 C   0  0  0  0  0  0  0  0  0  0  0  0
  -28.2828  -17.4154   21.7361 C   0  0  0  0  0  0  0  0  0  0  0  0
  -29.2993  -25.5920   19.9922 C   0  0  0  0  0  0  0  0  0  0  0  0
  -23.4132   -8.0652   21.4613 C   0  0  0  0  0  0  0  0  0  0  0  0
  -24.6108  -14.1721   18.3329 C   0  0  0  0  0  0  0  0  0  0  0  0
  -24.6170  -16.0238   20.6386 C   0  0  0  0  0  0  0  0  0  0  0  0
  -24.0169   -9.2814   22.1590 C   0  0  0  0  0  0  0  0  0  0  0  0
  -30.0398  -28.9919   20.6164 C   0  0  0  0  0  0  0  0  0  0  0  0
  -23.0122  -10.4286   22.1967 C   0  0  0  0  0  0  0  0  0  0  0  0
  -28.6623  -29.6588   20.6627 C   0  0  0  0  0  0  0  0  0  0  0  0
  -30.0191  -27.6023   21.2517 C   0  0  0  0  0  0  0  0  0  0  0  0
  -27.6148  -27.3626   20.7827 C   0  0  0  0  0  0  0  0  0  0  0  0
  -22.6307  -10.8747   20.7801 C   0  0  1  0  0  0  0  0  0  0  0  0
  -24.9511  -13.6983   19.7426 C   0  0  1  0  0  0  0  0  0  0  0  0
  -27.5672  -28.7353   20.0923 C   0  0  1  0  0  0  0  0  0  0  0  0
  -25.6242  -26.3084   17.2622 C   0  0  0  0  0  0  0  0  0  0  0  0
  -30.4121  -18.3270   22.7016 C   0  0  0  0  0  0  0  0  0  0  0  0
  -25.1900  -14.5688   24.2753 C   0  0  0  0  0  0  0  0  0  0  0  0
  -26.8816  -16.2843   24.9565 C   0  0  0  0  0  0  0  0  0  0  0  0
  -27.6276  -14.0102   24.2532 C   0  0  0  0  0  0  0  0  0  0  0  0
  -29.3225  -18.1383   19.0611 C   0  0  0  0  0  0  0  0  0  0  0  0
  -24.3837  -23.7972   14.6880 C   0  0  0  0  0  0  0  0  0  0  0  0
  -21.1262  -21.0116   17.0754 C   0  0  0  0  0  0  0  0  0  0  0  0
  -21.2969  -19.5085   16.9212 C   0  0  0  0  0  0  0  0  0  1  0  0
  -22.3430  -21.6594   17.7174 C   0  0  0  0  0  0  0  0  0  0  0  0
  -26.7544  -15.6219   22.5119 C   0  0  1  0  0  0  0  0  0  0  0  0
  -29.7519  -17.7017   21.4827 C   0  0  2  0  0  0  0  0  0  0  0  0
  -26.5963  -15.1259   23.9769 C   0  0  0  0  0  0  0  0  0  0  0  0
  -25.4332  -29.1255   21.2645 N   0  0  0  0  0  0  0  0  0  0  0  0
  -26.1912  -29.3678   20.1815 N   0  0  0  0  0  0  0  0  0  0  0  0
  -25.4126  -14.7854   20.6083 N   0  0  0  0  0  0  0  0  0  0  0  0
  -28.9619  -26.7875   20.6504 N   0  0  0  0  0  0  0  0  0  0  0  0
  -25.1774  -19.9819   18.6235 N   0  0  0  0  0  0  0  0  0  0  0  0
  -26.2211  -30.5321   18.1190 N   0  0  0  0  0  0  0  0  0  0  0  0
  -22.1731  -31.5603   19.8373 N   0  0  0  0  0  0  0  0  0  0  0  0
  -28.2238  -24.9080   19.4146 N   0  0  0  0  0  0  0  0  0  0  0  0
  -23.6788  -11.6928   20.2084 N   0  0  0  0  0  0  0  0  0  0  0  0
  -28.0845  -16.1297   22.1933 N   0  0  0  0  0  0  0  0  0  0  0  0
  -29.9065  -18.6371   20.3328 N   0  3  0  0  0  0  0  0  0  0  0  0
  -27.5746  -25.4784   16.2668 O   0  0  0  0  0  0  0  0  0  0  0  0
  -29.3876  -23.1337   18.4508 O   0  0  0  0  0  0  0  0  0  0  0  0
  -23.5683  -31.8713   18.0441 O   0  0  0  0  0  0  0  0  0  0  0  0
  -23.0373  -13.7351   21.1250 O   0  0  0  0  0  0  0  0  0  0  0  0
  -27.1481  -13.5114   21.5032 O   0  0  0  0  0  0  0  0  0  0  0  0
  -27.3998  -18.2500   21.5508 O   0  0  0  0  0  0  0  0  0  0  0  0
  -30.4622  -25.1876   19.8940 O   0  0  0  0  0  0  0  0  0  0  0  0
  -20.1191  -29.8005   24.7075 O   0  0  0  0  0  0  0  0  0  0  0  0
  -24.1790  -23.9628   16.0887 O   0  0  0  0  0  0  0  0  0  0  0  0
  -21.5106  -18.9116   18.1996 O   0  0  0  0  0  0  0  0  0  1  0  0
  -23.4918  -21.4317   16.9124 O   0  0  0  0  0  0  0  0  0  0  0  0
  -15.0020  -29.1313   22.7656 F   0  0  0  0  0  0  0  0  0  0  0  0
  -18.5629  -27.6639   25.5173 F   0  0  0  0  0  0  0  0  0  0  0  0
  1  2  1  0  0  0  0
  1  5  2  0  0  0  0
  2  6  2  0  0  0  0
  3  8  2  0  0  0  0
  3 16  1  0  0  0  0
  4  9  1  0  0  0  0
  4 16  2  0  0  0  0
  5 20  1  0  0  0  0
  6 22  1  0  0  0  0
  7 10  2  0  0  0  0
  7 21  1  0  0  0  0
  8 25  1  0  0  0  0
  9 25  2  0  0  0  0
 10 26  1  0  0  0  0
 11 12  2  0  0  0  0
 11 27  1  0  0  0  0
 12 30  1  0  0  0  0
 13 17  1  0  0  0  0
 13 24  2  0  0  0  0
 14 23  1  0  0  0  0
 14 26  2  0  0  0  0
 15 30  2  0  0  0  0
 15 31  1  0  0  0  0
 16 32  1  0  0  0  0
 17 18  2  0  0  0  0
 17 35  1  0  0  0  0
 18 28  1  0  0  0  0
 18 34  1  0  0  0  0
 19 32  1  0  0  0  0
 19 33  2  0  0  0  0
 19 36  1  0  0  0  0
 20 22  2  0  0  0  0
 20 41  1  0  0  0  0
 21 23  2  0  0  0  0
 21 42  1  0  0  0  0
 22 50  1  0  0  0  0
 23 43  1  0  0  0  0
 24 29  1  0  0  0  0
 24 70  1  0  0  0  0
 25 84  1  0  0  0  0
 26 86  1  0  0  0  0
 27 31  2  0  0  0  0
 27 84  1  0  0  0  0
 28 29  2  0  0  0  0
 28 85  1  0  0  0  0
 29 87  1  0  0  0  0
 30 88  1  0  0  0  0
 31 89  1  0  0  0  0
 32 66  2  0  0  0  0
 33 67  1  0  0  0  0
 33 71  1  0  0  0  0
 34 53  1  0  0  0  0
 34 77  2  0  0  0  0
 35 73  1  0  0  0  0
 35 78  2  0  0  0  0
 36 72  1  0  0  0  0
 36 79  2  0  0  0  0
 37 51  1  0  0  0  0
 37 74  1  0  0  0  0
 37 80  2  0  0  0  0
 38 63  1  0  0  0  0
 38 68  1  0  0  0  0
 38 81  2  0  0  0  0
 39 64  1  0  0  0  0
 39 75  1  0  0  0  0
 39 82  2  0  0  0  0
 40 69  1  0  0  0  0
 40 73  1  0  0  0  0
 40 83  2  0  0  0  0
 41 44  1  0  0  0  0
 42 51  1  0  0  0  0
 43 68  1  0  0  0  0
 44 46  1  0  0  0  0
 45 47  1  0  0  0  0
 45 48  1  0  0  0  0
 46 50  1  0  0  0  0
 47 52  1  0  0  0  0
 48 69  1  0  0  0  0
 49 52  1  0  0  0  0
 49 69  1  0  0  0  0
 50 74  1  0  0  0  0
 51 68  1  0  0  0  0
 52 67  1  0  0  0  0
 54 64  1  0  0  0  0
 55 65  1  0  0  0  0
 56 65  1  0  0  0  0
 57 65  1  0  0  0  0
 58 76  1  0  0  0  0
 59 85  1  0  0  0  0
 60 61  1  0  0  0  0
 60 62  1  0  0  0  0
 61 86  1  0  0  0  0
 62 87  1  0  0  0  0
 63 65  1  0  0  0  0
 63 75  1  0  0  0  0
 64 76  1  0  0  0  0
 66 67  1  0  0  0  0
M  CHG  1  76   1
M  ISO  4  40 100  61 101  73 100  86 101
M  END
> <Batch ID>
0109

> <Smiles>
CNC(C)C(=O)NC(C(=O)N1Cc2cc([101O:1][101CH2:1]CCOc3c(N)cc(C(=O)[100NH:0][100C:0](=O)N4CCCC(n5nc(-c6ccc(Oc7ccc(F)cc7F)cc6)c(C(N)=O)c5N)C4)c(C(C)=O)c3OC)ccc2CC1C(=O)NC1CCCc2ccccc21)C(C)(C)C

> <Shape>
0.244

> <Color>
0.071

> <Negative vol penalty>
0.000

$$$$

  -OEChem-04052301233D

 86 95  0     1  0  0  0  0  0999 V2000
  -16.5484  -29.6410   23.4988 C   0  0  0  0  0  0  0  0  0  0  0  0
  -17.5893  -30.5095   23.8070 C   0  0  0  0  0  0  0  0  0  0  0  0
  -22.8733  -29.3072    8.5261 C   0  0  0  0  0  0  0  0  0  0  0  0
  -22.6388  -31.4919    9.5307 C   0  0  0  0  0  0  0  0  0  0  0  0
  -16.8302  -28.3672   23.0097 C   0  0  0  0  0  0  0  0  0  0  0  0
  -18.9120  -30.1089   23.6149 C   0  0  0  0  0  0  0  0  0  0  0  0
  -27.0794  -29.5534   22.0697 C   0  0  0  0  0  0  0  0  0  0  0  0
  -21.7565  -29.5544    7.7278 C   0  0  0  0  0  0  0  0  0  0  0  0
  -21.5220  -31.7391    8.7324 C   0  0  0  0  0  0  0  0  0  0  0  0
  -27.8963  -28.6177   21.4366 C   0  0  0  0  0  0  0  0  0  0  0  0
  -20.8976  -32.6482    5.5380 C   0  0  0  0  0  0  0  0  0  0  0  0
  -20.8123  -33.8922    4.9129 C   0  0  0  0  0  0  0  0  0  0  0  0
  -26.2078  -28.2981   19.7437 C   0  0  0  0  0  0  0  0  0  0  0  0
  -31.6369  -27.2535   13.9467 C   0  0  0  0  0  0  0  0  0  0  0  0
  -18.7408  -34.3341    6.0753 C   0  0  0  0  0  0  0  0  0  0  0  0
  -33.3919  -28.7752   13.8647 C   0  0  0  0  0  0  0  0  0  0  0  0
  -23.3144  -30.2760    9.4276 C   0  0  0  0  0  0  0  0  0  0  0  0
  -24.6279  -28.9858   11.1934 C   0  0  0  0  0  0  0  0  0  0  0  0
  -18.1575  -27.9471   22.8237 C   0  0  0  0  0  0  0  0  0  0  0  0
  -25.8139  -29.8610   21.5497 C   0  0  0  0  0  0  0  0  0  0  0  0
  -19.2164  -28.8359   23.0997 C   0  0  0  0  0  0  0  0  0  0  0  0
  -25.3778  -29.2399   20.3707 C   0  0  0  0  0  0  0  0  0  0  0  0
  -32.4689  -28.0684   13.1258 C   0  0  0  0  0  0  0  0  0  0  0  0
  -21.0808  -30.7703    7.8310 C   0  0  0  0  0  0  0  0  0  0  0  0
  -27.4594  -27.9877   20.2750 C   0  0  0  0  0  0  0  0  0  0  0  0
  -19.9046  -32.2470    6.4317 C   0  0  0  0  0  0  0  0  0  0  0  0
  -19.7339  -34.7352    5.1816 C   0  0  0  0  0  0  0  0  0  0  0  0
  -18.8262  -33.0900    6.7003 C   0  0  0  0  0  0  0  0  0  0  0  0
  -24.4677  -30.0210   10.2528 C   0  0  0  0  0  0  0  0  0  0  0  0
  -25.8878  -29.1789   11.7052 C   0  0  0  0  0  0  0  0  0  0  0  0
  -31.9560  -27.3684   15.2820 C   0  0  0  0  0  0  0  0  0  0  0  0
  -30.3618  -26.6720   18.5815 C   0  0  0  0  0  0  0  0  0  0  0  0
  -30.6730  -27.3266   17.4363 C   0  0  0  0  0  0  0  0  0  0  0  0
  -30.7813  -25.2361   18.7119 C   0  0  0  0  0  0  0  0  0  0  0  0
  -23.7191  -27.9430   11.5706 C   0  0  0  0  0  0  0  0  0  0  0  0
  -22.8285  -29.5932   22.6077 C   0  0  0  0  0  0  0  0  0  0  0  0
  -22.1302  -31.1989   19.8771 C   0  0  0  0  0  0  0  0  0  0  0  0
  -23.2044  -31.1297   16.4335 C   0  0  0  0  0  0  0  0  0  0  0  0
  -31.3089  -30.3000   10.9980 C   0  0  0  0  0  0  0  0  0  0  0  0
  -18.4053  -26.5605   22.2842 C   0  0  0  0  0  0  0  0  0  0  0  0
  -24.9558  -30.8923   22.2298 C   0  0  0  0  0  0  0  0  0  0  0  0
  -24.0361  -29.5499   19.7606 C   0  0  0  0  0  0  0  0  0  0  0  0
  -31.6442  -24.6359   17.6282 C   0  0  0  0  0  0  0  0  0  0  0  0
  -19.8282  -26.0710   22.5335 C   0  0  0  0  0  0  0  0  0  0  0  0
  -29.0818  -33.0698   11.2103 C   0  0  0  0  0  0  0  0  0  0  0  0
  -20.8270  -27.1322   22.0966 C   0  0  0  0  0  0  0  0  0  0  0  0
  -27.6973  -32.4390   11.0515 C   0  0  0  0  0  0  0  0  0  0  0  0
  -31.3337  -25.2319   16.2664 C   0  0  0  0  0  0  0  0  0  0  0  0
  -30.1232  -32.3724   10.3378 C   0  0  0  0  0  0  0  0  0  0  0  0
  -28.8208  -30.2803   10.3611 C   0  0  0  0  0  0  0  0  0  0  0  0
  -20.6636  -28.4111   22.9278 C   0  0  1  0  0  0  0  0  0  0  0  0
  -23.4737  -30.7496   21.8976 C   0  0  1  0  0  0  0  0  0  0  0  0
  -27.7483  -30.9140   11.2636 C   0  0  2  0  0  0  0  0  0  0  0  0
  -30.2144  -28.7580   17.2353 C   0  0  0  0  0  0  0  0  0  0  0  0
  -23.2258  -32.9388   14.6944 C   0  0  0  0  0  0  0  0  0  0  0  0
  -19.4124  -30.0641   19.0796 C   0  0  0  0  0  0  0  0  0  0  0  0
  -20.0211  -30.4750   16.6861 C   0  0  0  0  0  0  0  0  0  0  0  0
  -19.8483  -32.3911   18.2739 C   0  0  0  0  0  0  0  0  0  0  0  0
  -26.0957  -30.7619   15.9195 C   0  0  0  0  0  0  0  0  0  0  0  0
  -32.3535  -28.1456   11.6510 C   0  0  0  0  0  0  0  0  0  0  0  0
  -29.6651  -27.2478   19.7819 C   0  0  0  0  0  0  0  0  0  1  0  0
  -21.8067  -30.8026   18.4568 C   0  0  1  0  0  0  0  0  0  0  0  0
  -24.0454  -32.1747   15.7227 C   0  0  2  0  0  0  0  0  0  0  0  0
  -20.2887  -30.9170   18.1407 C   0  0  0  0  0  0  0  0  0  0  0  0
  -25.5400  -30.8130   10.1701 N   0  0  0  0  0  0  0  0  0  0  0  0
  -26.3861  -30.2754   11.0652 N   0  0  0  0  0  0  0  0  0  0  0  0
  -31.3257  -26.6960   16.3608 N   0  0  0  0  0  0  0  0  0  0  0  0
  -23.2309  -30.5607   20.4660 N   0  0  0  0  0  0  0  0  0  0  0  0
  -30.1216  -30.9291   10.5886 N   0  0  0  0  0  0  0  0  0  0  0  0
  -26.6068  -28.5160   12.6357 N   0  0  0  0  0  0  0  0  0  0  0  0
  -22.8274  -28.1828   12.6250 N   0  0  0  0  0  0  0  0  0  0  0  0
  -21.4778  -29.4572   22.3495 N   0  0  0  0  0  0  0  0  0  0  0  0
  -22.6586  -31.6208   17.6006 N   0  0  0  0  0  0  0  0  0  0  0  0
  -31.2187  -28.9314   11.2201 N   0  0  0  0  0  0  0  0  0  0  0  0
  -25.1922  -31.5288   15.0237 N   0  3  0  0  0  0  0  0  0  0  0  0
  -30.4762  -24.5777   19.7060 O   0  0  0  0  0  0  0  0  0  0  0  0
  -23.7096  -26.8256   11.0007 O   0  0  0  0  0  0  0  0  0  0  0  0
  -23.5062  -28.8765   23.3348 O   0  0  0  0  0  0  0  0  0  0  0  0
  -21.4362  -32.0488   20.4407 O   0  0  0  0  0  0  0  0  0  0  0  0
  -23.0444  -29.9927   15.9951 O   0  0  0  0  0  0  0  0  0  0  0  0
  -32.3693  -30.9136   11.1591 O   0  0  0  0  0  0  0  0  0  0  0  0
  -19.9912  -31.0120    7.0520 O   0  0  0  0  0  0  0  0  0  0  0  0
  -28.2545  -27.0735   19.6553 O   0  0  0  0  0  0  0  0  0  1  0  0
  -19.6528  -35.9304    4.5825 F   0  0  0  0  0  0  0  0  0  0  0  0
  -17.8697  -32.7106    7.5588 F   0  0  0  0  0  0  0  0  0  0  0  0
  -33.2535  -28.4553   15.5413 S   0  0  0  0  0  0  0  0  0  0  0  0
  1  2  1  0  0  0  0
  1  5  2  0  0  0  0
  2  6  2  0  0  0  0
  3  8  2  0  0  0  0
  3 17  1  0  0  0  0
  4  9  1  0  0  0  0
  4 17  2  0  0  0  0
  5 19  1  0  0  0  0
  6 21  1  0  0  0  0
  7 10  2  0  0  0  0
  7 20  1  0  0  0  0
  8 24  1  0  0  0  0
  9 24  2  0  0  0  0
 10 25  1  0  0  0  0
 11 12  2  0  0  0  0
 11 26  1  0  0  0  0
 12 27  1  0  0  0  0
 13 22  1  0  0  0  0
 13 25  2  0  0  0  0
 14 23  1  0  0  0  0
 14 31  2  0  0  0  0
 15 27  2  0  0  0  0
 15 28  1  0  0  0  0
 16 23  2  0  0  0  0
 16 86  1  0  0  0  0
 17 29  1  0  0  0  0
 18 29  1  0  0  0  0
 18 30  2  0  0  0  0
 18 35  1  0  0  0  0
 19 21  2  0  0  0  0
 19 40  1  0  0  0  0
 20 22  2  0  0  0  0
 20 41  1  0  0  0  0
 21 51  1  0  0  0  0
 22 42  1  0  0  0  0
 23 60  1  0  0  0  0
 24 82  1  0  0  0  0
 25 83  1  0  0  0  0
 26 28  2  0  0  0  0
 26 82  1  0  0  0  0
 27 84  1  0  0  0  0
 28 85  1  0  0  0  0
 29 65  2  0  0  0  0
 30 66  1  0  0  0  0
 30 70  1  0  0  0  0
 31 67  1  0  0  0  0
 31 86  1  0  0  0  0
 32 33  2  0  0  0  0
 32 34  1  0  0  0  0
 32 61  1  0  0  0  0
 33 54  1  0  0  0  0
 33 67  1  0  0  0  0
 34 43  1  0  0  0  0
 34 76  2  0  0  0  0
 35 71  1  0  0  0  0
 35 77  2  0  0  0  0
 36 52  1  0  0  0  0
 36 72  1  0  0  0  0
 36 78  2  0  0  0  0
 37 62  1  0  0  0  0
 37 68  1  0  0  0  0
 37 79  2  0  0  0  0
 38 63  1  0  0  0  0
 38 73  1  0  0  0  0
 38 80  2  0  0  0  0
 39 69  1  0  0  0  0
 39 74  1  0  0  0  0
 39 81  2  0  0  0  0
 40 44  1  0  0  0  0
 41 52  1  0  0  0  0
 42 68  1  0  0  0  0
 43 48  1  0  0  0  0
 44 46  1  0  0  0  0
 45 47  1  0  0  0  0
 45 49  1  0  0  0  0
 46 51  1  0  0  0  0
 47 53  1  0  0  0  0
 48 67  1  0  0  0  0
 49 69  1  0  0  0  0
 50 53  1  0  0  0  0
 50 69  1  0  0  0  0
 51 72  1  0  0  0  0
 52 68  1  0  0  0  0
 53 66  1  0  0  0  0
 55 63  1  0  0  0  0
 56 64  1  0  0  0  0
 57 64  1  0  0  0  0
 58 64  1  0  0  0  0
 59 75  1  0  0  0  0
 60 74  1  0  0  0  0
 61 83  1  0  0  0  0
 62 64  1  0  0  0  0
 62 73  1  0  0  0  0
 63 75  1  0  0  0  0
 65 66  1  0  0  0  0
M  CHG  1  75   1
M  ISO  4  39 100  61 101  74 100  83 101
M  END
> <Batch ID>
0109

> <Smiles>
CNC(C)C(=O)NC(C(=O)N1Cc2cc([101O:1][101CH2:1]C3=C(C)N(c4cc(C[100NH:0][100C:0](=O)N5CCCC(n6nc(-c7ccc(Oc8ccc(F)cc8F)cc7)c(C(N)=O)c6N)C5)cs4)CCC3=O)ccc2CC1C(=O)NC1CCCc2ccccc21)C(C)(C)C

> <Shape>
0.162

> <Color>
0.128

> <Negative vol penalty>
0.000

$$$$

  -OEChem-04052301233D

 88 97  0     1  0  0  0  0  0999 V2000
  -17.3340  -26.4077   22.8880 C   0  0  0  0  0  0  0  0  0  0  0  0
  -18.5881  -25.9801   22.4640 C   0  0  0  0  0  0  0  0  0  0  0  0
  -28.8227  -15.3049   19.1765 C   0  0  0  0  0  0  0  0  0  0  0  0
  -27.4324  -15.0752   21.1390 C   0  0  0  0  0  0  0  0  0  0  0  0
  -17.0042  -27.7612   22.8309 C   0  0  0  0  0  0  0  0  0  0  0  0
  -19.5128  -26.9057   21.9818 C   0  0  0  0  0  0  0  0  0  0  0  0
  -25.5967  -26.7273   22.6605 C   0  0  0  0  0  0  0  0  0  0  0  0
  -30.8569  -25.6960   21.4963 C   0  0  0  0  0  0  0  0  0  0  0  0
  -30.8624  -24.5247   22.2537 C   0  0  0  0  0  0  0  0  0  0  0  0
  -27.7835  -14.8186   18.3833 C   0  0  0  0  0  0  0  0  0  0  0  0
  -26.3932  -14.5889   20.3458 C   0  0  0  0  0  0  0  0  0  0  0  0
  -26.6222  -26.2990   21.8188 C   0  0  0  0  0  0  0  0  0  0  0  0
  -24.0389  -15.8537   18.2774 C   0  0  0  0  0  0  0  0  0  0  0  0
  -22.7597  -16.3607   18.5056 C   0  0  0  0  0  0  0  0  0  0  0  0
  -26.9539  -28.5704   21.0773 C   0  0  0  0  0  0  0  0  0  0  0  0
  -31.6440  -23.2860   20.3323 C   0  0  0  0  0  0  0  0  0  0  0  0
  -21.9698  -14.1361   19.0200 C   0  0  0  0  0  0  0  0  0  0  0  0
  -28.6472  -15.4332   20.5543 C   0  0  0  0  0  0  0  0  0  0  0  0
  -31.0042  -15.3782   21.5285 C   0  0  0  0  0  0  0  0  0  0  0  0
  -17.9288  -28.7051   22.3568 C   0  0  0  0  0  0  0  0  0  0  0  0
  -25.2341  -28.0810   22.7090 C   0  0  0  0  0  0  0  0  0  0  0  0
  -19.1946  -28.2729   21.9171 C   0  0  0  0  0  0  0  0  0  0  0  0
  -25.9251  -29.0137   21.9224 C   0  0  0  0  0  0  0  0  0  0  0  0
  -31.6385  -24.4573   19.5749 C   0  0  0  0  0  0  0  0  0  0  0  0
  -31.2448  -25.6623   20.1569 C   0  0  0  0  0  0  0  0  0  0  0  0
  -31.2560  -23.3197   21.6717 C   0  0  0  0  0  0  0  0  0  0  0  0
  -26.5687  -14.4606   18.9680 C   0  0  0  0  0  0  0  0  0  0  0  0
  -27.2991  -27.2202   21.0248 C   0  0  0  0  0  0  0  0  0  0  0  0
  -24.2836  -14.4879   18.4204 C   0  0  0  0  0  0  0  0  0  0  0  0
  -21.7251  -15.5019   18.8769 C   0  0  0  0  0  0  0  0  0  0  0  0
  -23.2491  -13.6291   18.7918 C   0  0  0  0  0  0  0  0  0  0  0  0
  -29.7205  -15.9351   21.3743 C   0  0  0  0  0  0  0  0  0  0  0  0
  -31.6414  -16.2221   22.4051 C   0  0  0  0  0  0  0  0  0  0  0  0
  -31.2970  -29.1747   17.7937 C   0  0  0  0  0  0  0  0  0  0  0  0
  -31.5701  -14.2033   20.9327 C   0  0  0  0  0  0  0  0  0  0  0  0
  -22.5916  -29.7204   22.0508 C   0  0  0  0  0  0  0  0  0  0  0  0
  -24.2923  -32.1987   23.2708 C   0  0  0  0  0  0  0  0  0  0  0  0
  -27.3470  -33.5524   23.9659 C   0  0  0  0  0  0  0  0  0  0  0  0
  -30.9071  -21.9899   23.7827 C   0  0  0  0  0  0  0  0  0  0  0  0
  -17.5099  -30.1513   22.2696 C   0  0  0  0  0  0  0  0  0  0  0  0
  -24.1436  -28.5308   23.6421 C   0  0  0  0  0  0  0  0  0  0  0  0
  -25.5880  -30.4813   21.9527 C   0  0  0  0  0  0  0  0  0  0  0  0
  -32.4825  -28.8404   18.6610 C   0  0  0  0  0  0  0  0  0  0  0  0
  -30.4369  -28.0075   17.3768 C   0  0  0  0  0  0  0  0  0  0  0  0
  -18.6809  -31.1152   22.0963 C   0  0  0  0  0  0  0  0  0  0  0  0
  -30.7521  -19.2286   26.0251 C   0  0  0  0  0  0  0  0  0  0  0  0
  -19.6360  -30.6070   21.0210 C   0  0  0  0  0  0  0  0  0  0  0  0
  -30.5929  -18.0194   25.1006 C   0  0  0  0  0  0  0  0  0  0  0  0
  -32.0685  -27.9745   19.8429 C   0  0  0  0  0  0  0  0  0  0  0  0
  -29.9924  -20.4463   25.5019 C   0  0  0  0  0  0  0  0  0  0  0  0
  -30.1364  -19.6088   23.1895 C   0  0  0  0  0  0  0  0  0  0  0  0
  -20.2337  -29.2497   21.4109 C   0  0  1  0  0  0  0  0  0  0  0  0
  -23.5135  -29.8575   23.2294 C   0  0  1  0  0  0  0  0  0  0  0  0
  -30.9370  -18.3765   23.6413 C   0  0  2  0  0  0  0  0  0  0  0  0
  -30.0490  -27.1388   18.5761 C   0  0  2  0  0  0  0  0  0  0  0  0
  -31.1341  -23.4923   17.3016 C   0  0  0  0  0  0  0  0  0  0  0  0
  -33.5203  -23.9421   17.9789 C   0  0  0  0  0  0  0  0  0  0  0  0
  -28.4179  -35.6073   24.9292 C   0  0  0  0  0  0  0  0  0  0  0  0
  -23.6880  -33.7183   20.6948 C   0  0  0  0  0  0  0  0  0  0  0  0
  -25.5188  -35.3184   21.2915 C   0  0  0  0  0  0  0  0  0  0  0  0
  -23.5287  -35.0922   22.7784 C   0  0  0  0  0  0  0  0  0  0  0  0
  -28.6348  -32.0053   26.1354 C   0  0  0  0  0  0  0  0  0  0  0  0
  -28.9511  -27.8024   19.4161 C   0  0  0  0  0  0  0  0  0  1  0  0
  -32.0574  -24.3927   18.1422 C   0  0  0  0  0  0  0  0  0  0  0  0
  -25.2368  -33.2299   22.7020 C   0  0  1  0  0  0  0  0  0  0  0  0
  -27.8962  -34.2087   25.2198 C   0  0  2  0  0  0  0  0  0  0  0  0
  -24.4984  -34.3118   21.8644 C   0  0  0  0  0  0  0  0  0  0  0  0
  -29.5505  -17.0466   22.0952 N   0  0  0  0  0  0  0  0  0  0  0  0
  -30.7358  -17.1950   22.7109 N   0  0  0  0  0  0  0  0  0  0  0  0
  -31.2324  -26.8475   19.4114 N   0  0  2  0  0  0  0  0  0  0  0  0
  -24.5099  -30.8709   22.8766 N   0  0  0  0  0  0  0  0  0  0  0  0
  -30.3725  -20.7274   24.1158 N   0  0  0  0  0  0  0  0  0  0  0  0
  -32.8825  -16.2193   22.9364 N   0  0  0  0  0  0  0  0  0  0  0  0
  -31.4269  -12.9799   21.6013 N   0  0  0  0  0  0  0  0  0  0  0  0
  -31.2621  -22.1301   22.4415 N   0  0  0  0  0  0  0  0  0  0  0  0
  -21.2855  -29.4230   22.3898 N   0  0  0  0  0  0  0  0  0  0  0  0
  -25.9905  -33.7608   23.8326 N   0  0  0  0  0  0  0  0  0  0  0  0
  -29.0130  -33.3978   25.7821 N   0  3  0  0  0  0  0  0  0  0  0  0
  -31.1017  -30.3113   17.3682 O   0  0  0  0  0  0  0  0  0  0  0  0
  -32.1987  -14.2401   19.8478 O   0  0  0  0  0  0  0  0  0  0  0  0
  -23.0324  -29.8747   20.9178 O   0  0  0  0  0  0  0  0  0  0  0  0
  -23.3990  -32.5571   24.0422 O   0  0  0  0  0  0  0  0  0  0  0  0
  -28.0516  -32.9214   23.1811 O   0  0  0  0  0  0  0  0  0  0  0  0
  -31.0655  -22.8718   24.6308 O   0  0  0  0  0  0  0  0  0  0  0  0
  -25.5544  -13.9862   18.1943 O   0  0  0  0  0  0  0  0  0  0  0  0
  -28.3001  -26.8048   20.2018 O   0  0  0  0  0  0  0  0  0  1  0  0
  -20.4971  -15.9892   19.0975 F   0  0  0  0  0  0  0  0  0  0  0  0
  -23.4783  -12.3163   18.9319 F   0  0  0  0  0  0  0  0  0  0  0  0
  1  2  1  0  0  0  0
  1  5  2  0  0  0  0
  2  6  2  0  0  0  0
  3 10  2  0  0  0  0
  3 18  1  0  0  0  0
  4 11  1  0  0  0  0
  4 18  2  0  0  0  0
  5 20  1  0  0  0  0
  6 22  1  0  0  0  0
  7 12  2  0  0  0  0
  7 21  1  0  0  0  0
  8  9  2  0  0  0  0
  8 25  1  0  0  0  0
  9 26  1  0  0  0  0
 10 27  1  0  0  0  0
 11 27  2  0  0  0  0
 12 28  1  0  0  0  0
 13 14  2  0  0  0  0
 13 29  1  0  0  0  0
 14 30  1  0  0  0  0
 15 23  1  0  0  0  0
 15 28  2  0  0  0  0
 16 24  1  0  0  0  0
 16 26  2  0  0  0  0
 17 30  2  0  0  0  0
 17 31  1  0  0  0  0
 18 32  1  0  0  0  0
 19 32  1  0  0  0  0
 19 33  2  0  0  0  0
 19 35  1  0  0  0  0
 20 22  2  0  0  0  0
 20 40  1  0  0  0  0
 21 23  2  0  0  0  0
 21 41  1  0  0  0  0
 22 52  1  0  0  0  0
 23 42  1  0  0  0  0
 24 25  2  0  0  0  0
 24 64  1  0  0  0  0
 25 70  1  0  0  0  0
 26 75  1  0  0  0  0
 27 85  1  0  0  0  0
 28 86  1  0  0  0  0
 29 31  2  0  0  0  0
 29 85  1  0  0  0  0
 30 87  1  0  0  0  0
 31 88  1  0  0  0  0
 32 68  2  0  0  0  0
 33 69  1  0  0  0  0
 33 73  1  0  0  0  0
 34 43  1  0  0  0  0
 34 44  1  0  0  0  0
 34 79  2  0  0  0  0
 35 74  1  0  0  0  0
 35 80  2  0  0  0  0
 36 53  1  0  0  0  0
 36 76  1  0  0  0  0
 36 81  2  0  0  0  0
 37 65  1  0  0  0  0
 37 71  1  0  0  0  0
 37 82  2  0  0  0  0
 38 66  1  0  0  0  0
 38 77  1  0  0  0  0
 38 83  2  0  0  0  0
 39 72  1  0  0  0  0
 39 75  1  0  0  0  0
 39 84  2  0  0  0  0
 40 45  1  0  0  0  0
 41 53  1  0  0  0  0
 42 71  1  0  0  0  0
 43 49  1  0  0  0  0
 44 55  1  0  0  0  0
 45 47  1  0  0  0  0
 46 48  1  0  0  0  0
 46 50  1  0  0  0  0
 47 52  1  0  0  0  0
 48 54  1  0  0  0  0
 49 70  1  0  0  0  0
 50 72  1  0  0  0  0
 51 54  1  0  0  0  0
 51 72  1  0  0  0  0
 52 76  1  0  0  0  0
 53 71  1  0  0  0  0
 54 69  1  0  0  0  0
 55 63  1  0  0  0  0
 55 70  1  0  0  0  0
 56 64  1  0  0  0  0
 57 64  1  0  0  0  0
 58 66  1  0  0  0  0
 59 67  1  0  0  0  0
 60 67  1  0  0  0  0
 61 67  1  0  0  0  0
 62 78  1  0  0  0  0
 63 86  1  0  0  0  0
 65 67  1  0  0  0  0
 65 77  1  0  0  0  0
 66 78  1  0  0  0  0
 68 69  1  0  0  0  0
M  CHG  1  78   1
M  ISO  4  39 100  63 101  75 100  86 101
M  END
> <Batch ID>
0109

> <Smiles>
CNC(C)C(=O)NC(C(=O)N1Cc2cc([101O:1][101CH2:1]C3CC(=O)CCN3c3ccc([100NH:0][100C:0](=O)N4CCCC(n5nc(-c6ccc(Oc7ccc(F)cc7F)cc6)c(C(N)=O)c5N)C4)cc3C(C)C)ccc2CC1C(=O)NC1CCCc2ccccc21)C(C)(C)C

> <Shape>
0.242

> <Color>
0.085

> <Negative vol penalty>
0.000

$$$$

  -OEChem-04052301233D

 87 95  0     1  0  0  0  0  0999 V2000
  -19.0898  -31.3356   20.0566 C   0  0  0  0  0  0  0  0  0  0  0  0
  -19.4559  -30.0411   19.7019 C   0  0  0  0  0  0  0  0  0  0  0  0
  -23.0973   -9.8753   19.9720 C   0  0  0  0  0  0  0  0  0  0  0  0
  -23.6170  -10.0275   22.3265 C   0  0  0  0  0  0  0  0  0  0  0  0
  -19.9999  -32.3814   19.9089 C   0  0  0  0  0  0  0  0  0  0  0  0
  -20.7321  -29.7920   19.1983 C   0  0  0  0  0  0  0  0  0  0  0  0
  -24.1293  -24.7760   20.0952 C   0  0  0  0  0  0  0  0  0  0  0  0
  -22.3223   -8.7416   20.2163 C   0  0  0  0  0  0  0  0  0  0  0  0
  -22.8420   -8.8938   22.5709 C   0  0  0  0  0  0  0  0  0  0  0  0
  -24.3508  -23.6414   19.3158 C   0  0  0  0  0  0  0  0  0  0  0  0
  -23.1617   -5.5426   22.2582 C   0  0  0  0  0  0  0  0  0  0  0  0
  -23.6916   -4.5643   23.0994 C   0  0  0  0  0  0  0  0  0  0  0  0
  -25.2645  -13.3911   16.2563 C   0  0  0  0  0  0  0  0  0  0  0  0
  -26.3728  -24.6356   18.4541 C   0  0  0  0  0  0  0  0  0  0  0  0
  -27.4590  -14.8544   17.1650 C   0  0  0  0  0  0  0  0  0  0  0  0
  -21.8250   -4.8491   24.6066 C   0  0  0  0  0  0  0  0  0  0  0  0
  -23.7448  -10.5182   21.0271 C   0  0  0  0  0  0  0  0  0  0  0  0
  -26.5575  -12.9906   15.9197 C   0  0  0  0  0  0  0  0  0  0  0  0
  -24.1176  -13.0300   20.7832 C   0  0  0  0  0  0  0  0  0  0  0  0
  -21.2911  -32.1434   19.4122 C   0  0  0  0  0  0  0  0  0  0  0  0
  -25.0236  -25.8552   20.0516 C   0  0  0  0  0  0  0  0  0  0  0  0
  -21.6599  -30.8358   19.0425 C   0  0  0  0  0  0  0  0  0  0  0  0
  -26.1617  -25.7816   19.2358 C   0  0  0  0  0  0  0  0  0  0  0  0
  -27.6547  -13.7222   16.3741 C   0  0  0  0  0  0  0  0  0  0  0  0
  -22.1946   -8.2509   21.5157 C   0  0  0  0  0  0  0  0  0  0  0  0
  -25.4711  -23.5723   18.4929 C   0  0  0  0  0  0  0  0  0  0  0  0
  -21.9635   -6.1743   22.5912 C   0  0  0  0  0  0  0  0  0  0  0  0
  -25.0687  -14.5234   17.0472 C   0  0  0  0  0  0  0  0  0  0  0  0
  -26.1659  -15.2550   17.5015 C   0  0  0  0  0  0  0  0  0  0  0  0
  -23.0233   -4.2175   24.2736 C   0  0  0  0  0  0  0  0  0  0  0  0
  -21.2951   -5.8275   23.7654 C   0  0  0  0  0  0  0  0  0  0  0  0
  -24.5459  -11.6890   20.7752 C   0  0  0  0  0  0  0  0  0  0  0  0
  -25.2475  -13.7531   20.4880 C   0  0  0  0  0  0  0  0  0  0  0  0
  -26.2500  -11.6957   13.8596 C   0  0  0  0  0  0  0  0  0  0  0  0
  -26.7228  -11.8018   15.0917 C   0  0  0  0  0  0  0  0  0  0  0  0
  -22.8150  -13.5735   21.0352 C   0  0  0  0  0  0  0  0  0  0  0  0
  -24.8104  -28.9124   19.2077 C   0  0  0  0  0  0  0  0  0  0  0  0
  -27.8486  -29.0325   20.3378 C   0  0  0  0  0  0  0  0  0  0  0  0
  -30.7402  -27.3686   21.0569 C   0  0  0  0  0  0  0  0  0  0  0  0
  -29.9723  -13.0041   17.0099 C   0  0  0  0  0  0  0  0  0  0  0  0
  -22.2244  -33.3135   19.2258 C   0  0  0  0  0  0  0  0  0  0  0  0
  -24.7846  -27.0608   20.9186 C   0  0  0  0  0  0  0  0  0  0  0  0
  -27.1629  -26.9048   19.1682 C   0  0  0  0  0  0  0  0  0  0  0  0
  -23.6830  -32.9050   19.0366 C   0  0  0  0  0  0  0  0  0  0  0  0
  -30.1075  -12.9286   20.7070 C   0  0  0  0  0  0  0  0  0  0  0  0
  -23.7921  -31.7672   18.0266 C   0  0  0  0  0  0  0  0  0  0  0  0
  -28.6581  -12.6403   21.0937 C   0  0  0  0  0  0  0  0  0  0  0  0
  -30.4574  -12.3408   19.3433 C   0  0  0  0  0  0  0  0  0  0  0  0
  -28.0870  -12.4955   18.6372 C   0  0  0  0  0  0  0  0  0  0  0  0
  -23.0433  -30.5216   18.5158 C   0  0  1  0  0  0  0  0  0  0  0  0
  -25.4890  -28.3137   20.4072 C   0  0  1  0  0  0  0  0  0  0  0  0
  -27.6980  -13.1120   19.9892 C   0  0  1  0  0  0  0  0  0  0  0  0
  -33.0616  -27.7416   21.9341 C   0  0  0  0  0  0  0  0  0  0  0  0
  -28.6646  -30.2415   17.6578 C   0  0  0  0  0  0  0  0  0  0  0  0
  -31.0453  -29.7105   18.2220 C   0  0  0  0  0  0  0  0  0  0  0  0
  -29.7500  -31.2932   19.6504 C   0  0  0  0  0  0  0  0  0  0  0  0
  -29.4572  -13.5387   14.6688 C   0  0  0  0  0  0  0  0  0  0  0  0
  -30.2864  -25.5619   23.3566 C   0  0  0  0  0  0  0  0  0  0  0  0
  -23.1495  -15.8073   16.4778 C   0  0  0  0  0  0  0  0  0  0  0  0
  -26.1059  -20.0881   17.7681 C   0  0  0  0  0  0  0  0  0  0  0  0
  -25.6128  -18.7352   18.2693 C   0  0  0  0  0  0  0  0  0  0  0  0
  -25.2046  -21.2230   18.2362 C   0  0  0  0  0  0  0  0  0  1  0  0
  -26.4885  -17.5962   17.7664 C   0  0  0  0  0  0  0  0  0  0  0  0
  -29.2199  -28.8228   19.7422 C   0  0  1  0  0  0  0  0  0  0  0  0
  -31.6280  -27.3777   22.2882 C   0  0  2  0  0  0  0  0  0  0  0  0
  -29.6502  -29.9965   18.8177 C   0  0  0  0  0  0  0  0  0  0  0  0
  -25.8463  -11.5647   20.4967 N   0  0  0  0  0  0  0  0  0  0  0  0
  -26.2449  -12.8369   20.3270 N   0  0  0  0  0  0  0  0  0  0  0  0
  -26.8818  -28.0649   20.0300 N   0  0  0  0  0  0  0  0  0  0  0  0
  -29.5004  -12.7500   18.3141 N   0  0  0  0  0  0  0  0  0  0  0  0
  -25.4751  -15.0768   20.3529 N   0  0  0  0  0  0  0  0  0  0  0  0
  -21.7664  -12.6893   21.3230 N   0  0  0  0  0  0  0  0  0  0  0  0
  -23.8211  -29.8257   19.5184 N   0  0  0  0  0  0  0  0  0  0  0  0
  -30.1206  -28.5854   20.8650 N   0  0  0  0  0  0  0  0  0  0  0  0
  -29.0037  -13.3333   16.0426 N   0  0  0  0  0  0  0  0  0  0  0  0
  -31.6300  -26.0352   22.9352 N   0  3  0  0  0  0  0  0  0  0  0  0
  -22.5841  -14.8056   20.9897 O   0  0  0  0  0  0  0  0  0  0  0  0
  -25.1596  -28.5720   18.0835 O   0  0  0  0  0  0  0  0  0  0  0  0
  -27.6449  -30.0147   21.0557 O   0  0  0  0  0  0  0  0  0  0  0  0
  -30.6122  -26.3821   20.3352 O   0  0  0  0  0  0  0  0  0  0  0  0
  -31.1680  -12.8911   16.7130 O   0  0  0  0  0  0  0  0  0  0  0  0
  -21.4382   -7.1448   21.7546 O   0  0  0  0  0  0  0  0  0  0  0  0
  -23.8012  -14.9045   17.3692 O   0  0  0  0  0  0  0  0  0  0  0  0
  -25.6894  -22.4663   17.7306 O   0  0  0  0  0  0  0  0  0  1  0  0
  -25.9864  -16.3697   18.2788 O   0  0  0  0  0  0  0  0  0  0  0  0
  -23.5315   -3.2769   25.0805 F   0  0  0  0  0  0  0  0  0  0  0  0
  -20.1430   -6.4300   24.0900 F   0  0  0  0  0  0  0  0  0  0  0  0
  1  2  1  0  0  0  0
  1  5  2  0  0  0  0
  2  6  2  0  0  0  0
  3  8  2  0  0  0  0
  3 17  1  0  0  0  0
  4  9  1  0  0  0  0
  4 17  2  0  0  0  0
  5 20  1  0  0  0  0
  6 22  1  0  0  0  0
  7 10  2  0  0  0  0
  7 21  1  0  0  0  0
  8 25  1  0  0  0  0
  9 25  2  0  0  0  0
 10 26  1  0  0  0  0
 11 12  2  0  0  0  0
 11 27  1  0  0  0  0
 12 30  1  0  0  0  0
 13 18  1  0  0  0  0
 13 28  2  0  0  0  0
 14 23  1  0  0  0  0
 14 26  2  0  0  0  0
 15 24  1  0  0  0  0
 15 29  2  0  0  0  0
 16 30  2  0  0  0  0
 16 31  1  0  0  0  0
 17 32  1  0  0  0  0
 18 24  2  0  0  0  0
 18 35  1  0  0  0  0
 19 32  1  0  0  0  0
 19 33  2  0  0  0  0
 19 36  1  0  0  0  0
 20 22  2  0  0  0  0
 20 41  1  0  0  0  0
 21 23  2  0  0  0  0
 21 42  1  0  0  0  0
 22 50  1  0  0  0  0
 23 43  1  0  0  0  0
 24 75  1  0  0  0  0
 25 82  1  0  0  0  0
 26 84  1  0  0  0  0
 27 31  2  0  0  0  0
 27 82  1  0  0  0  0
 28 29  1  0  0  0  0
 28 83  1  0  0  0  0
 29 85  1  0  0  0  0
 30 86  1  0  0  0  0
 31 87  1  0  0  0  0
 32 67  2  0  0  0  0
 33 68  1  0  0  0  0
 33 71  1  0  0  0  0
 34 35  2  0  0  0  0
 36 72  1  0  0  0  0
 36 77  2  0  0  0  0
 37 51  1  0  0  0  0
 37 73  1  0  0  0  0
 37 78  2  0  0  0  0
 38 64  1  0  0  0  0
 38 69  1  0  0  0  0
 38 79  2  0  0  0  0
 39 65  1  0  0  0  0
 39 74  1  0  0  0  0
 39 80  2  0  0  0  0
 40 70  1  0  0  0  0
 40 75  1  0  0  0  0
 40 81  2  0  0  0  0
 41 44  1  0  0  0  0
 42 51  1  0  0  0  0
 43 69  1  0  0  0  0
 44 46  1  0  0  0  0
 45 47  1  0  0  0  0
 45 48  1  0  0  0  0
 46 50  1  0  0  0  0
 47 52  1  0  0  0  0
 48 70  1  0  0  0  0
 49 52  1  0  0  0  0
 49 70  1  0  0  0  0
 50 73  1  0  0  0  0
 51 69  1  0  0  0  0
 52 68  1  0  0  0  0
 53 65  1  0  0  0  0
 54 66  1  0  0  0  0
 55 66  1  0  0  0  0
 56 66  1  0  0  0  0
 57 75  1  0  0  0  0
 58 76  1  0  0  0  0
 59 83  1  0  0  0  0
 60 61  1  0  0  0  0
 60 62  1  0  0  0  0
 61 63  1  0  0  0  0
 62 84  1  0  0  0  0
 63 85  1  0  0  0  0
 64 66  1  0  0  0  0
 64 74  1  0  0  0  0
 65 76  1  0  0  0  0
 67 68  1  0  0  0  0
M  CHG  1  76   1
M  ISO  4  40 100  62 101  75 100  84 101
M  END
> <Batch ID>
0109

> <Smiles>
C=Cc1cc(OC)c(OCCC[101CH2:1][101O:1]c2ccc3c(c2)CN(C(=O)C(NC(=O)C(C)NC)C(C)(C)C)C(C(=O)NC2CCCc4ccccc42)C3)cc1[100N:0](C)[100C:0](=O)N1CCCC(n2nc(-c3ccc(Oc4ccc(F)cc4F)cc3)c(C(N)=O)c2N)C1

> <Shape>
0.230

> <Color>
0.188

> <Negative vol penalty>
0.000

$$$$

  -OEChem-04052301233D

 84 93  0     1  0  0  0  0  0999 V2000
  -30.5240  -24.6703   19.0735 C   0  0  0  0  0  0  0  0  0  0  0  0
  -29.1343  -24.7305   19.0521 C   0  0  0  0  0  0  0  0  0  0  0  0
  -27.7122  -16.0480   21.7738 C   0  0  0  0  0  0  0  0  0  0  0  0
  -25.9472  -16.6976   20.2573 C   0  0  0  0  0  0  0  0  0  0  0  0
  -31.2323  -25.2998   20.0963 C   0  0  0  0  0  0  0  0  0  0  0  0
  -28.4519  -25.4196   20.0542 C   0  0  0  0  0  0  0  0  0  0  0  0
  -23.2617  -28.6130   19.4470 C   0  0  0  0  0  0  0  0  0  0  0  0
  -19.8593  -23.7010   21.7330 C   0  0  0  0  0  0  0  0  0  0  0  0
  -20.0988  -24.9759   23.7712 C   0  0  0  0  0  0  0  0  0  0  0  0
  -20.6136  -22.6685   22.2901 C   0  0  0  0  0  0  0  0  0  0  0  0
  -20.8531  -23.9433   24.3284 C   0  0  0  0  0  0  0  0  0  0  0  0
  -27.6835  -14.7543   21.2532 C   0  0  0  0  0  0  0  0  0  0  0  0
  -25.9186  -15.4039   19.7365 C   0  0  0  0  0  0  0  0  0  0  0  0
  -21.9298  -28.2978   19.7128 C   0  0  0  0  0  0  0  0  0  0  0  0
  -28.8354  -13.1470   18.5104 C   0  0  0  0  0  0  0  0  0  0  0  0
  -30.0561  -12.5387   18.2181 C   0  0  0  0  0  0  0  0  0  0  0  0
  -22.1160  -29.3582   21.8715 C   0  0  0  0  0  0  0  0  0  0  0  0
  -29.5470  -10.7668   19.7796 C   0  0  0  0  0  0  0  0  0  0  0  0
  -26.8440  -17.0197   21.2759 C   0  0  0  0  0  0  0  0  0  0  0  0
  -27.6558  -19.4364   21.3649 C   0  0  0  0  0  0  0  0  0  0  0  0
  -30.5587  -26.0050   21.1060 C   0  0  0  0  0  0  0  0  0  0  0  0
  -24.0351  -29.2948   20.3975 C   0  0  0  0  0  0  0  0  0  0  0  0
  -29.1518  -26.0580   21.0921 C   0  0  0  0  0  0  0  0  0  0  0  0
  -23.4567  -29.6832   21.6143 C   0  0  0  0  0  0  0  0  0  0  0  0
  -19.6020  -24.8548   22.4735 C   0  0  0  0  0  0  0  0  0  0  0  0
  -21.1104  -22.7896   23.5879 C   0  0  0  0  0  0  0  0  0  0  0  0
  -26.7867  -14.4323   20.2345 C   0  0  0  0  0  0  0  0  0  0  0  0
  -21.3577  -28.6678   20.9264 C   0  0  0  0  0  0  0  0  0  0  0  0
  -27.9705  -12.5653   19.4374 C   0  0  0  0  0  0  0  0  0  0  0  0
  -30.4119  -11.3486   18.8527 C   0  0  0  0  0  0  0  0  0  0  0  0
  -28.3263  -11.3752   20.0720 C   0  0  0  0  0  0  0  0  0  0  0  0
  -26.8728  -18.3561   21.8138 C   0  0  0  0  0  0  0  0  0  0  0  0
  -27.3196  -20.4743   22.1994 C   0  0  0  0  0  0  0  0  0  0  0  0
  -18.2646  -25.9316   20.6078 C   0  0  0  0  0  0  0  0  0  0  0  0
  -28.6024  -19.4965   20.2897 C   0  0  0  0  0  0  0  0  0  0  0  0
  -26.6690  -28.6232   22.0453 C   0  0  0  0  0  0  0  0  0  0  0  0
  -26.3881  -31.7095   23.0033 C   0  0  0  0  0  0  0  0  0  0  0  0
  -24.3697  -34.4157   23.5031 C   0  0  0  0  0  0  0  0  0  0  0  0
  -22.4433  -21.7012   25.4277 C   0  0  0  0  0  0  0  0  0  0  0  0
  -31.3651  -26.6296   22.2170 C   0  0  0  0  0  0  0  0  0  0  0  0
  -25.4626  -29.6509   20.0846 C   0  0  0  0  0  0  0  0  0  0  0  0
  -24.2383  -30.4344   22.6599 C   0  0  0  0  0  0  0  0  0  0  0  0
  -17.5220  -27.2375   20.4508 C   0  0  0  0  0  0  0  0  0  0  0  0
  -30.5841  -27.6556   23.0340 C   0  0  0  0  0  0  0  0  0  0  0  0
  -17.3188  -27.7023   21.8805 C   0  0  0  0  0  0  0  0  0  0  0  0
  -25.7713  -21.3541   26.6449 C   0  0  0  0  0  0  0  0  0  0  0  0
  -29.2084  -27.1093   23.4024 C   0  0  0  0  0  0  0  0  0  0  0  0
  -26.5041  -20.6497   25.5009 C   0  0  0  0  0  0  0  0  0  0  0  0
  -24.3366  -20.8509   26.7944 C   0  0  0  0  0  0  0  0  0  0  0  0
  -24.2654  -20.1896   24.4223 C   0  0  0  0  0  0  0  0  0  0  0  0
  -28.3769  -26.8166   22.1476 C   0  0  1  0  0  0  0  0  0  0  0  0
  -26.3049  -29.8950   21.3329 C   0  0  1  0  0  0  0  0  0  0  0  0
  -25.6937  -20.7093   24.1912 C   0  0  2  0  0  0  0  0  0  0  0  0
  -18.5375  -27.1555   22.6155 C   0  0  2  0  0  0  0  0  0  0  0  0
  -24.4194  -36.7841   24.3312 C   0  0  0  0  0  0  0  0  0  0  0  0
  -26.5272  -30.6986   25.8788 C   0  0  0  0  0  0  0  0  0  0  0  0
  -25.6340  -32.9145   26.6274 C   0  0  0  0  0  0  0  0  0  0  0  0
  -27.8267  -32.7907   25.4445 C   0  0  0  0  0  0  0  0  0  0  0  0
  -23.4794  -35.4720   20.8857 C   0  0  0  0  0  0  0  0  0  0  0  0
  -19.7050  -28.1429   22.5540 C   0  0  0  0  0  0  0  0  0  1  0  0
  -25.6927  -32.4165   24.1415 C   0  0  1  0  0  0  0  0  0  0  0  0
  -24.5278  -35.8752   23.1167 C   0  0  2  0  0  0  0  0  0  0  0  0
  -26.4057  -32.1892   25.5044 C   0  0  0  0  0  0  0  0  0  0  0  0
  -26.0976  -18.6777   22.8529 N   0  0  0  0  0  0  0  0  0  0  0  0
  -26.3920  -19.9719   23.0639 N   0  0  0  0  0  0  0  0  0  0  0  0
  -18.8279  -25.9152   21.9015 N   0  0  0  0  0  0  0  0  0  0  0  0
  -25.6321  -30.7539   22.3096 N   0  0  0  0  0  0  0  0  0  0  0  0
  -23.6290  -20.9413   25.5153 N   0  0  0  0  0  0  0  0  0  0  0  0
  -27.7299  -21.7584   22.2707 N   0  0  0  0  0  0  0  0  0  0  0  0
  -28.8279  -18.3388   19.5326 N   0  0  0  0  0  0  0  0  0  0  0  0
  -21.8767  -21.7408   24.1542 N   0  0  0  0  0  0  0  0  0  0  0  0
  -27.8414  -28.0439   21.5986 N   0  0  0  0  0  0  0  0  0  0  0  0
  -25.5876  -33.8176   23.7485 N   0  0  0  0  0  0  0  0  0  0  0  0
  -23.4741  -36.2693   22.1393 N   0  3  0  0  0  0  0  0  0  0  0  0
  -18.3343  -25.1104   19.7048 O   0  0  0  0  0  0  0  0  0  0  0  0
  -29.2417  -20.5412   20.0191 O   0  0  0  0  0  0  0  0  0  0  0  0
  -25.9410  -28.1995   22.9354 O   0  0  0  0  0  0  0  0  0  0  0  0
  -27.5565  -31.9997   22.7349 O   0  0  0  0  0  0  0  0  0  0  0  0
  -23.2751  -33.8626   23.5831 O   0  0  0  0  0  0  0  0  0  0  0  0
  -21.9807  -22.2969   26.4040 O   0  0  0  0  0  0  0  0  0  0  0  0
  -26.7586  -13.1700   19.7260 O   0  0  0  0  0  0  0  0  0  0  0  0
  -20.0581  -28.3608   21.1887 O   0  0  0  0  0  0  0  0  0  1  0  0
  -31.5835  -10.7637   18.5707 F   0  0  0  0  0  0  0  0  0  0  0  0
  -27.4991  -10.8110   20.9626 F   0  0  0  0  0  0  0  0  0  0  0  0
  1  2  1  0  0  0  0
  1  5  2  0  0  0  0
  2  6  2  0  0  0  0
  3 12  2  0  0  0  0
  3 19  1  0  0  0  0
  4 13  1  0  0  0  0
  4 19  2  0  0  0  0
  5 21  1  0  0  0  0
  6 23  1  0  0  0  0
  7 14  2  0  0  0  0
  7 22  1  0  0  0  0
  8 10  2  0  0  0  0
  8 25  1  0  0  0  0
  9 11  1  0  0  0  0
  9 25  2  0  0  0  0
 10 26  1  0  0  0  0
 11 26  2  0  0  0  0
 12 27  1  0  0  0  0
 13 27  2  0  0  0  0
 14 28  1  0  0  0  0
 15 16  2  0  0  0  0
 15 29  1  0  0  0  0
 16 30  1  0  0  0  0
 17 24  1  0  0  0  0
 17 28  2  0  0  0  0
 18 30  2  0  0  0  0
 18 31  1  0  0  0  0
 19 32  1  0  0  0  0
 20 32  1  0  0  0  0
 20 33  2  0  0  0  0
 20 35  1  0  0  0  0
 21 23  2  0  0  0  0
 21 40  1  0  0  0  0
 22 24  2  0  0  0  0
 22 41  1  0  0  0  0
 23 51  1  0  0  0  0
 24 42  1  0  0  0  0
 25 66  1  0  0  0  0
 26 71  1  0  0  0  0
 27 81  1  0  0  0  0
 28 82  1  0  0  0  0
 29 31  2  0  0  0  0
 29 81  1  0  0  0  0
 30 83  1  0  0  0  0
 31 84  1  0  0  0  0
 32 64  2  0  0  0  0
 33 65  1  0  0  0  0
 33 69  1  0  0  0  0
 34 43  1  0  0  0  0
 34 66  1  0  0  0  0
 34 75  2  0  0  0  0
 35 70  1  0  0  0  0
 35 76  2  0  0  0  0
 36 52  1  0  0  0  0
 36 72  1  0  0  0  0
 36 77  2  0  0  0  0
 37 61  1  0  0  0  0
 37 67  1  0  0  0  0
 37 78  2  0  0  0  0
 38 62  1  0  0  0  0
 38 73  1  0  0  0  0
 38 79  2  0  0  0  0
 39 68  1  0  0  0  0
 39 71  1  0  0  0  0
 39 80  2  0  0  0  0
 40 44  1  0  0  0  0
 41 52  1  0  0  0  0
 42 67  1  0  0  0  0
 43 45  1  0  0  0  0
 44 47  1  0  0  0  0
 45 54  1  0  0  0  0
 46 48  1  0  0  0  0
 46 49  1  0  0  0  0
 47 51  1  0  0  0  0
 48 53  1  0  0  0  0
 49 68  1  0  0  0  0
 50 53  1  0  0  0  0
 50 68  1  0  0  0  0
 51 72  1  0  0  0  0
 52 67  1  0  0  0  0
 53 65  1  0  0  0  0
 54 60  1  0  0  0  0
 54 66  1  0  0  0  0
 55 62  1  0  0  0  0
 56 63  1  0  0  0  0
 57 63  1  0  0  0  0
 58 63  1  0  0  0  0
 59 74  1  0  0  0  0
 60 82  1  0  0  0  0
 61 63  1  0  0  0  0
 61 73  1  0  0  0  0
 62 74  1  0  0  0  0
 64 65  1  0  0  0  0
M  CHG  1  74   1
M  ISO  4  39 100  60 101  71 100  82 101
M  END
> <Batch ID>
0109

> <Smiles>
CNC(C)C(=O)NC(C(=O)N1Cc2cc([101O:1][101CH2:1]C3CCC(=O)N3c3ccc([100NH:0][100C:0](=O)N4CCCC(n5nc(-c6ccc(Oc7ccc(F)cc7F)cc6)c(C(N)=O)c5N)C4)cc3)ccc2CC1C(=O)NC1CCCc2ccccc21)C(C)(C)C

> <Shape>
0.300

> <Color>
0.068

> <Negative vol penalty>
0.000

$$$$

  -OEChem-04052301233D

 88 97  0     1  0  0  0  0  0999 V2000
  -23.1661   -7.5044   24.2803 C   0  0  0  0  0  0  0  0  0  0  0  0
  -24.1846   -8.3895   24.6190 C   0  0  0  0  0  0  0  0  0  0  0  0
  -24.2830  -29.8345   24.1698 C   0  0  0  0  0  0  0  0  0  0  0  0
  -23.1319  -30.6249   22.1982 C   0  0  0  0  0  0  0  0  0  0  0  0
  -22.6624   -7.4875   22.9803 C   0  0  0  0  0  0  0  0  0  0  0  0
  -24.7008   -9.2576   23.6575 C   0  0  0  0  0  0  0  0  0  0  0  0
  -27.4816  -15.8248   22.9827 C   0  0  0  0  0  0  0  0  0  0  0  0
  -30.6980  -23.6711   20.6093 C   0  0  0  0  0  0  0  0  0  0  0  0
  -30.2899  -24.9998   20.4932 C   0  0  0  0  0  0  0  0  0  0  0  0
  -23.0609  -29.4803   24.7413 C   0  0  0  0  0  0  0  0  0  0  0  0
  -21.9098  -30.2707   22.7697 C   0  0  0  0  0  0  0  0  0  0  0  0
  -28.5988  -16.4726   22.4574 C   0  0  0  0  0  0  0  0  0  0  0  0
  -20.1054  -27.4521   23.2393 C   0  0  0  0  0  0  0  0  0  0  0  0
  -19.1869  -26.7776   22.4351 C   0  0  0  0  0  0  0  0  0  0  0  0
  -30.3002  -24.7926   18.0861 C   0  0  0  0  0  0  0  0  0  0  0  0
  -27.5965  -16.4096   20.2641 C   0  0  0  0  0  0  0  0  0  0  0  0
  -17.5943  -28.5662   22.7537 C   0  0  0  0  0  0  0  0  0  0  0  0
  -24.3185  -30.4069   22.8982 C   0  0  0  0  0  0  0  0  0  0  0  0
  -30.7084  -23.4639   18.2022 C   0  0  0  0  0  0  0  0  0  0  0  0
  -26.5211  -31.6910   22.8130 C   0  0  0  0  0  0  0  0  0  0  0  0
  -23.1660   -8.3625   22.0049 C   0  0  0  0  0  0  0  0  0  0  0  0
  -26.4164  -15.4541   22.1493 C   0  0  0  0  0  0  0  0  0  0  0  0
  -24.2042   -9.2514   22.3429 C   0  0  0  0  0  0  0  0  0  0  0  0
  -26.4658  -15.7594   20.7817 C   0  0  0  0  0  0  0  0  0  0  0  0
  -30.9074  -22.9032   19.4638 C   0  0  0  0  0  0  0  0  0  0  0  0
  -30.0909  -25.5606   19.2316 C   0  0  0  0  0  0  0  0  0  0  0  0
  -21.8743  -29.6983   24.0412 C   0  0  0  0  0  0  0  0  0  0  0  0
  -28.6577  -16.7625   21.0974 C   0  0  0  0  0  0  0  0  0  0  0  0
  -19.7684  -28.6837   23.8009 C   0  0  0  0  0  0  0  0  0  0  0  0
  -17.9314  -27.3346   22.1922 C   0  0  0  0  0  0  0  0  0  0  0  0
  -18.5128  -29.2408   23.5580 C   0  0  0  0  0  0  0  0  0  0  0  0
  -25.5806  -30.7736   22.3076 C   0  0  0  0  0  0  0  0  0  0  0  0
  -27.5388  -31.6826   21.8907 C   0  0  0  0  0  0  0  0  0  0  0  0
  -31.1155  -19.3633   20.6354 C   0  0  0  0  0  0  0  0  0  0  0  0
  -30.5882  -20.5637   20.2929 C   0  0  0  0  0  0  0  0  0  0  0  0
  -32.5059  -19.0502   20.1671 C   0  0  0  0  0  0  0  0  0  0  0  0
  -30.2270  -21.6042   16.6775 C   0  0  0  0  0  0  0  0  0  0  0  0
  -30.9173  -22.6918   16.9832 C   0  0  0  0  0  0  0  0  0  0  0  0
  -26.4787  -32.4801   24.0093 C   0  0  0  0  0  0  0  0  0  0  0  0
  -25.0692  -12.6961   21.3235 C   0  0  0  0  0  0  0  0  0  0  0  0
  -22.9369  -14.6321   19.8310 C   0  0  0  0  0  0  0  0  0  0  0  0
  -22.2740  -17.6669   18.4178 C   0  0  0  0  0  0  0  0  0  0  0  0
  -29.4335  -27.6206   17.9391 C   0  0  0  0  0  0  0  0  0  0  0  0
  -22.6224   -8.2747   20.6008 C   0  0  0  0  0  0  0  0  0  0  0  0
  -25.2067  -14.7798   22.7361 C   0  0  0  0  0  0  0  0  0  0  0  0
  -25.3398  -15.4009   19.8479 C   0  0  0  0  0  0  0  0  0  0  0  0
  -33.1184  -19.9518   19.1243 C   0  0  0  0  0  0  0  0  0  0  0  0
  -22.9658   -9.4862   19.7379 C   0  0  0  0  0  0  0  0  0  0  0  0
  -28.3644  -30.9424   17.2319 C   0  0  0  0  0  0  0  0  0  0  0  0
  -24.4406   -9.8464   19.8861 C   0  0  0  0  0  0  0  0  0  0  0  0
  -27.6201  -31.3617   18.5016 C   0  0  0  0  0  0  0  0  0  0  0  0
  -32.7658  -21.4045   19.3794 C   0  0  0  0  0  0  0  0  0  0  0  0
  -28.1361  -29.4685   16.9012 C   0  0  0  0  0  0  0  0  0  0  0  0
  -27.6799  -28.9539   19.2669 C   0  0  0  0  0  0  0  0  0  0  0  0
  -24.7731  -10.2257   21.3342 C   0  0  1  0  0  0  0  0  0  0  0  0
  -24.4056  -13.9886   21.7067 C   0  0  1  0  0  0  0  0  0  0  0  0
  -27.9318  -30.4141   19.6765 C   0  0  2  0  0  0  0  0  0  0  0  0
  -29.1271  -20.8525   20.5807 C   0  0  0  0  0  0  0  0  0  0  0  0
  -20.4552  -18.9401   17.2480 C   0  0  0  0  0  0  0  0  0  0  0  0
  -23.4651  -13.0401   17.2822 C   0  0  0  0  0  0  0  0  0  0  0  0
  -22.3968  -14.8958   15.9848 C   0  0  0  0  0  0  0  0  0  0  0  0
  -21.0645  -13.6252   17.6680 C   0  0  0  0  0  0  0  0  0  0  0  0
  -22.2063  -19.7388   20.5301 C   0  0  0  0  0  0  0  0  0  0  0  0
  -30.4481  -18.2887   21.4451 C   0  0  0  0  0  0  0  0  0  1  0  0
  -22.8330  -15.2502   18.4577 C   0  0  1  0  0  0  0  0  0  0  0  0
  -21.1064  -18.6225   18.5851 C   0  0  2  0  0  0  0  0  0  0  0  0
  -22.4621  -14.2080   17.3652 C   0  0  0  0  0  0  0  0  0  0  0  0
  -25.9663  -30.2226   21.1536 N   0  0  0  0  0  0  0  0  0  0  0  0
  -27.1605  -30.7955   20.9263 N   0  0  0  0  0  0  0  0  0  0  0  0
  -31.3233  -21.5516   19.6117 N   0  0  0  0  0  0  0  0  0  0  0  0
  -24.1813  -14.7370   20.4683 N   0  0  0  0  0  0  0  0  0  0  0  0
  -28.4559  -28.6309   18.0592 N   0  0  0  0  0  0  0  0  0  0  0  0
  -28.7114  -32.3477   21.8186 N   0  0  0  0  0  0  0  0  0  0  0  0
  -25.9048  -33.7573   23.9473 N   0  0  0  0  0  0  0  0  0  0  0  0
  -29.6762  -26.9104   19.1144 N   0  0  0  0  0  0  0  0  0  0  0  0
  -24.3235  -11.5712   21.6202 N   0  0  0  0  0  0  0  0  0  0  0  0
  -21.8859  -16.3534   18.5772 N   0  0  0  0  0  0  0  0  0  0  0  0
  -21.5666  -19.9001   19.1991 N   0  3  0  0  0  0  0  0  0  0  0  0
  -33.0961  -18.0439   20.5570 O   0  0  0  0  0  0  0  0  0  0  0  0
  -26.9510  -32.0714   25.0972 O   0  0  0  0  0  0  0  0  0  0  0  0
  -26.1752  -12.7179   20.7963 O   0  0  0  0  0  0  0  0  0  0  0  0
  -21.9481  -14.0828   20.3233 O   0  0  0  0  0  0  0  0  0  0  0  0
  -23.4154  -18.0473   18.1669 O   0  0  0  0  0  0  0  0  0  0  0  0
  -30.0322  -27.4196   16.8793 O   0  0  0  0  0  0  0  0  0  0  0  0
  -20.6816  -29.3526   24.5985 O   0  0  0  0  0  0  0  0  0  0  0  0
  -29.7473  -17.3942   20.5820 O   0  0  0  0  0  0  0  0  0  1  0  0
  -17.0500  -26.6874   21.4186 F   0  0  0  0  0  0  0  0  0  0  0  0
  -18.1838  -30.4242   24.0937 F   0  0  0  0  0  0  0  0  0  0  0  0
  1  2  1  0  0  0  0
  1  5  2  0  0  0  0
  2  6  2  0  0  0  0
  3 10  2  0  0  0  0
  3 18  1  0  0  0  0
  4 11  1  0  0  0  0
  4 18  2  0  0  0  0
  5 21  1  0  0  0  0
  6 23  1  0  0  0  0
  7 12  2  0  0  0  0
  7 22  1  0  0  0  0
  8  9  2  0  0  0  0
  8 25  1  0  0  0  0
  9 26  1  0  0  0  0
 10 27  1  0  0  0  0
 11 27  2  0  0  0  0
 12 28  1  0  0  0  0
 13 14  2  0  0  0  0
 13 29  1  0  0  0  0
 14 30  1  0  0  0  0
 15 19  1  0  0  0  0
 15 26  2  0  0  0  0
 16 24  1  0  0  0  0
 16 28  2  0  0  0  0
 17 30  2  0  0  0  0
 17 31  1  0  0  0  0
 18 32  1  0  0  0  0
 19 25  2  0  0  0  0
 19 38  1  0  0  0  0
 20 32  1  0  0  0  0
 20 33  2  0  0  0  0
 20 39  1  0  0  0  0
 21 23  2  0  0  0  0
 21 44  1  0  0  0  0
 22 24  2  0  0  0  0
 22 45  1  0  0  0  0
 23 55  1  0  0  0  0
 24 46  1  0  0  0  0
 25 70  1  0  0  0  0
 26 75  1  0  0  0  0
 27 85  1  0  0  0  0
 28 86  1  0  0  0  0
 29 31  2  0  0  0  0
 29 85  1  0  0  0  0
 30 87  1  0  0  0  0
 31 88  1  0  0  0  0
 32 68  2  0  0  0  0
 33 69  1  0  0  0  0
 33 73  1  0  0  0  0
 34 35  2  0  0  0  0
 34 36  1  0  0  0  0
 34 64  1  0  0  0  0
 35 58  1  0  0  0  0
 35 70  1  0  0  0  0
 36 47  1  0  0  0  0
 36 79  2  0  0  0  0
 37 38  2  0  0  0  0
 39 74  1  0  0  0  0
 39 80  2  0  0  0  0
 40 56  1  0  0  0  0
 40 76  1  0  0  0  0
 40 81  2  0  0  0  0
 41 65  1  0  0  0  0
 41 71  1  0  0  0  0
 41 82  2  0  0  0  0
 42 66  1  0  0  0  0
 42 77  1  0  0  0  0
 42 83  2  0  0  0  0
 43 72  1  0  0  0  0
 43 75  1  0  0  0  0
 43 84  2  0  0  0  0
 44 48  1  0  0  0  0
 45 56  1  0  0  0  0
 46 71  1  0  0  0  0
 47 52  1  0  0  0  0
 48 50  1  0  0  0  0
 49 51  1  0  0  0  0
 49 53  1  0  0  0  0
 50 55  1  0  0  0  0
 51 57  1  0  0  0  0
 52 70  1  0  0  0  0
 53 72  1  0  0  0  0
 54 57  1  0  0  0  0
 54 72  1  0  0  0  0
 55 76  1  0  0  0  0
 56 71  1  0  0  0  0
 57 69  1  0  0  0  0
 59 66  1  0  0  0  0
 60 67  1  0  0  0  0
 61 67  1  0  0  0  0
 62 67  1  0  0  0  0
 63 78  1  0  0  0  0
 64 86  1  0  0  0  0
 65 67  1  0  0  0  0
 65 77  1  0  0  0  0
 66 78  1  0  0  0  0
 68 69  1  0  0  0  0
M  CHG  1  78   1
M  ISO  4  43 100  64 101  75 100  86 101
M  END
> <Batch ID>
0109

> <Smiles>
C=Cc1cc([100NH:0][100C:0](=O)N2CCCC(n3nc(-c4ccc(Oc5ccc(F)cc5F)cc4)c(C(N)=O)c3N)C2)ccc1N1CCC(=O)C([101CH2:1][101O:1]c2ccc3c(c2)CN(C(=O)C(NC(=O)C(C)NC)C(C)(C)C)C(C(=O)NC2CCCc4ccccc42)C3)=C1C

> <Shape>
0.287

> <Color>
0.065

> <Negative vol penalty>
0.000

$$$$

  -OEChem-04052301233D

 86 94  0     1  0  0  0  0  0999 V2000
  -30.5983  -25.9554   16.9703 C   0  0  0  0  0  0  0  0  0  0  0  0
  -29.2192  -25.8406   17.1130 C   0  0  0  0  0  0  0  0  0  0  0  0
  -24.7094  -13.4529   19.5988 C   0  0  0  0  0  0  0  0  0  0  0  0
  -25.5716  -12.9418   21.7972 C   0  0  0  0  0  0  0  0  0  0  0  0
  -31.3664  -26.4633   18.0172 C   0  0  0  0  0  0  0  0  0  0  0  0
  -28.6075  -26.2325   18.3032 C   0  0  0  0  0  0  0  0  0  0  0  0
  -23.0800  -28.7931   18.9323 C   0  0  0  0  0  0  0  0  0  0  0  0
  -24.7692  -12.1009   19.2611 C   0  0  0  0  0  0  0  0  0  0  0  0
  -25.6313  -11.5898   21.4594 C   0  0  0  0  0  0  0  0  0  0  0  0
  -21.8348  -28.2653   19.2710 C   0  0  0  0  0  0  0  0  0  0  0  0
  -24.3548   -8.7385   17.9427 C   0  0  0  0  0  0  0  0  0  0  0  0
  -23.2568   -8.1855   17.2839 C   0  0  0  0  0  0  0  0  0  0  0  0
  -22.9133  -22.7054   18.7441 C   0  0  0  0  0  0  0  0  0  0  0  0
  -22.1937  -28.9089   21.5680 C   0  0  0  0  0  0  0  0  0  0  0  0
  -20.7582  -23.3137   19.6509 C   0  0  0  0  0  0  0  0  0  0  0  0
  -21.8441   -8.7567   19.1588 C   0  0  0  0  0  0  0  0  0  0  0  0
  -25.1106  -13.8734   20.8669 C   0  0  0  0  0  0  0  0  0  0  0  0
  -23.5410  -23.2875   19.8454 C   0  0  0  0  0  0  0  0  0  0  0  0
  -23.9664  -15.9536   21.8002 C   0  0  0  0  0  0  0  0  0  0  0  0
  -30.7627  -26.8707   19.2173 C   0  0  0  0  0  0  0  0  0  0  0  0
  -23.8974  -29.3739   19.9125 C   0  0  0  0  0  0  0  0  0  0  0  0
  -29.3684  -26.7451   19.3677 C   0  0  0  0  0  0  0  0  0  0  0  0
  -23.4477  -29.4456   21.2387 C   0  0  0  0  0  0  0  0  0  0  0  0
  -22.7773  -23.8827   20.8494 C   0  0  0  0  0  0  0  0  0  0  0  0
  -21.5219  -22.7185   18.6469 C   0  0  0  0  0  0  0  0  0  0  0  0
  -25.2302  -11.1693   20.1913 C   0  0  0  0  0  0  0  0  0  0  0  0
  -21.3927  -28.3205   20.5896 C   0  0  0  0  0  0  0  0  0  0  0  0
  -24.1975   -9.3006   19.2096 C   0  0  0  0  0  0  0  0  0  0  0  0
  -21.3858  -23.8958   20.7522 C   0  0  0  0  0  0  0  0  0  0  0  0
  -22.0014   -8.1946   17.8918 C   0  0  0  0  0  0  0  0  0  0  0  0
  -22.9422   -9.3097   19.8176 C   0  0  0  0  0  0  0  0  0  0  0  0
  -25.0496  -15.2699   21.2162 C   0  0  0  0  0  0  0  0  0  0  0  0
  -24.4068  -17.2481   21.9293 C   0  0  0  0  0  0  0  0  0  0  0  0
  -25.0243  -23.2585   19.9223 C   0  0  0  0  0  0  0  0  0  0  0  0
  -22.6773  -15.4624   22.1911 C   0  0  0  0  0  0  0  0  0  0  0  0
  -26.7811  -28.7422   21.0911 C   0  0  0  0  0  0  0  0  0  0  0  0
  -26.3111  -31.5271   22.6867 C   0  0  0  0  0  0  0  0  0  0  0  0
  -24.1072  -33.8074   23.9475 C   0  0  0  0  0  0  0  0  0  0  0  0
  -26.9791  -21.7415   19.9568 C   0  0  0  0  0  0  0  0  0  0  0  0
  -31.6397  -27.3694   20.3384 C   0  0  0  0  0  0  0  0  0  0  0  0
  -25.2265  -29.9627   19.5261 C   0  0  0  0  0  0  0  0  0  0  0  0
  -24.2785  -30.0769   22.3248 C   0  0  0  0  0  0  0  0  0  0  0  0
  -30.8714  -28.1121   21.4285 C   0  0  0  0  0  0  0  0  0  0  0  0
  -29.0333  -19.2292   21.3588 C   0  0  0  0  0  0  0  0  0  0  0  0
  -29.6204  -27.3342   21.8243 C   0  0  0  0  0  0  0  0  0  0  0  0
  -28.0908  -18.0312   21.5036 C   0  0  0  0  0  0  0  0  0  0  0  0
  -28.7564  -20.0176   20.0795 C   0  0  0  0  0  0  0  0  0  0  0  0
  -26.4233  -19.2350   20.0358 C   0  0  0  0  0  0  0  0  0  0  0  0
  -28.6653  -27.1828   20.6342 C   0  0  1  0  0  0  0  0  0  0  0  0
  -26.1964  -30.0695   20.6988 C   0  0  1  0  0  0  0  0  0  0  0  0
  -26.6154  -18.4496   21.3432 C   0  0  1  0  0  0  0  0  0  0  0  0
  -23.9266  -23.4751   23.0402 C   0  0  0  0  0  0  0  0  0  0  0  0
  -24.0203  -35.9605   25.2335 C   0  0  0  0  0  0  0  0  0  0  0  0
  -26.9327  -30.0117   25.2611 C   0  0  0  0  0  0  0  0  0  0  0  0
  -25.9215  -31.9112   26.5410 C   0  0  0  0  0  0  0  0  0  0  0  0
  -27.9398  -32.2969   25.1266 C   0  0  0  0  0  0  0  0  0  0  0  0
  -22.7744  -35.2215   21.7153 C   0  0  0  0  0  0  0  0  0  0  0  0
  -23.4415  -24.5119   22.0328 C   0  0  0  0  0  0  0  0  0  0  0  0
  -18.9956  -26.1756   22.2523 C   0  0  0  0  0  0  0  0  0  0  0  0
  -20.0328  -27.2876   22.2447 C   0  0  0  0  0  0  0  0  0  1  0  0
  -19.3775  -25.0350   21.3220 C   0  0  0  0  0  0  0  0  0  0  0  0
  -25.7027  -31.9089   24.0145 C   0  0  1  0  0  0  0  0  0  0  0  0
  -24.0608  -35.3218   23.8540 C   0  0  2  0  0  0  0  0  0  0  0  0
  -26.6091  -31.5185   25.2159 C   0  0  0  0  0  0  0  0  0  0  0  0
  -26.0991  -16.0644   20.9899 N   0  0  0  0  0  0  0  0  0  0  0  0
  -25.6775  -17.2607   21.4339 N   0  0  0  0  0  0  0  0  0  0  0  0
  -25.5732  -30.6329   21.8981 N   0  0  0  0  0  0  0  0  0  0  0  0
  -27.3408  -20.3840   20.0081 N   0  0  0  0  0  0  0  0  0  0  0  0
  -20.8866  -22.1289   17.5339 N   0  0  0  0  0  0  0  0  0  0  0  0
  -23.8273  -18.3655   22.4172 N   0  0  0  0  0  0  0  0  0  0  0  0
  -22.3895  -14.1058   21.9878 N   0  0  0  0  0  0  0  0  0  0  0  0
  -25.6019  -21.9886   19.9337 N   0  0  0  0  0  0  0  0  0  0  0  0
  -27.9378  -28.4136   20.4103 N   0  0  0  0  0  0  0  0  0  0  0  0
  -25.4021  -33.3340   23.9311 N   0  0  0  0  0  0  0  0  0  0  0  0
  -22.8522  -35.7574   23.0987 N   0  3  0  0  0  0  0  0  0  0  0  0
  -25.6436  -24.3188   19.9310 O   0  0  0  0  0  0  0  0  0  0  0  0
  -21.8007  -16.2079   22.6902 O   0  0  0  0  0  0  0  0  0  0  0  0
  -26.2248  -28.0668   21.9491 O   0  0  0  0  0  0  0  0  0  0  0  0
  -27.3975  -32.0101   22.3581 O   0  0  0  0  0  0  0  0  0  0  0  0
  -23.0959  -33.1139   24.0309 O   0  0  0  0  0  0  0  0  0  0  0  0
  -27.8091  -22.6559   19.9692 O   0  0  0  0  0  0  0  0  0  0  0  0
  -25.2884   -9.8499   19.8621 O   0  0  0  0  0  0  0  0  0  0  0  0
  -20.1780  -27.8056   20.9230 O   0  0  0  0  0  0  0  0  0  1  0  0
  -20.6189  -24.4756   21.7291 O   0  0  0  0  0  0  0  0  0  0  0  0
  -20.9468   -7.6649   17.2584 F   0  0  0  0  0  0  0  0  0  0  0  0
  -22.7846   -9.8492   21.0341 F   0  0  0  0  0  0  0  0  0  0  0  0
  1  2  1  0  0  0  0
  1  5  2  0  0  0  0
  2  6  2  0  0  0  0
  3  8  2  0  0  0  0
  3 17  1  0  0  0  0
  4  9  1  0  0  0  0
  4 17  2  0  0  0  0
  5 20  1  0  0  0  0
  6 22  1  0  0  0  0
  7 10  2  0  0  0  0
  7 21  1  0  0  0  0
  8 26  1  0  0  0  0
  9 26  2  0  0  0  0
 10 27  1  0  0  0  0
 11 12  2  0  0  0  0
 11 28  1  0  0  0  0
 12 30  1  0  0  0  0
 13 18  1  0  0  0  0
 13 25  2  0  0  0  0
 14 23  1  0  0  0  0
 14 27  2  0  0  0  0
 15 25  1  0  0  0  0
 15 29  2  0  0  0  0
 16 30  2  0  0  0  0
 16 31  1  0  0  0  0
 17 32  1  0  0  0  0
 18 24  2  0  0  0  0
 18 34  1  0  0  0  0
 19 32  1  0  0  0  0
 19 33  2  0  0  0  0
 19 35  1  0  0  0  0
 20 22  2  0  0  0  0
 20 40  1  0  0  0  0
 21 23  2  0  0  0  0
 21 41  1  0  0  0  0
 22 49  1  0  0  0  0
 23 42  1  0  0  0  0
 24 29  1  0  0  0  0
 24 58  1  0  0  0  0
 25 69  1  0  0  0  0
 26 82  1  0  0  0  0
 27 83  1  0  0  0  0
 28 31  2  0  0  0  0
 28 82  1  0  0  0  0
 29 84  1  0  0  0  0
 30 85  1  0  0  0  0
 31 86  1  0  0  0  0
 32 65  2  0  0  0  0
 33 66  1  0  0  0  0
 33 70  1  0  0  0  0
 34 72  1  0  0  0  0
 34 76  2  0  0  0  0
 35 71  1  0  0  0  0
 35 77  2  0  0  0  0
 36 50  1  0  0  0  0
 36 73  1  0  0  0  0
 36 78  2  0  0  0  0
 37 62  1  0  0  0  0
 37 67  1  0  0  0  0
 37 79  2  0  0  0  0
 38 63  1  0  0  0  0
 38 74  1  0  0  0  0
 38 80  2  0  0  0  0
 39 68  1  0  0  0  0
 39 72  1  0  0  0  0
 39 81  2  0  0  0  0
 40 43  1  0  0  0  0
 41 50  1  0  0  0  0
 42 67  1  0  0  0  0
 43 45  1  0  0  0  0
 44 46  1  0  0  0  0
 44 47  1  0  0  0  0
 45 49  1  0  0  0  0
 46 51  1  0  0  0  0
 47 68  1  0  0  0  0
 48 51  1  0  0  0  0
 48 68  1  0  0  0  0
 49 73  1  0  0  0  0
 50 67  1  0  0  0  0
 51 66  1  0  0  0  0
 52 58  1  0  0  0  0
 53 63  1  0  0  0  0
 54 64  1  0  0  0  0
 55 64  1  0  0  0  0
 56 64  1  0  0  0  0
 57 75  1  0  0  0  0
 59 60  1  0  0  0  0
 59 61  1  0  0  0  0
 60 83  1  0  0  0  0
 61 84  1  0  0  0  0
 62 64  1  0  0  0  0
 62 74  1  0  0  0  0
 63 75  1  0  0  0  0
 65 66  1  0  0  0  0
M  CHG  1  75   1
M  ISO  4  39 100  60 101  72 100  83 101
M  END
> <Batch ID>
0109

> <Smiles>
CCc1c(OCC[101CH2:1][101O:1]c2ccc3c(c2)CN(C(=O)C(NC(=O)C(C)NC)C(C)(C)C)C(C(=O)NC2CCCc4ccccc42)C3)cc(N)cc1C(=O)[100NH:0][100C:0](=O)N1CCCC(n2nc(-c3ccc(Oc4ccc(F)cc4F)cc3)c(C(N)=O)c2N)C1

> <Shape>
0.284

> <Color>
0.078

> <Negative vol penalty>
0.000

$$$$

  -OEChem-04052301233D

 86 94  0     1  0  0  0  0  0999 V2000
  -32.2575  -33.8043   19.5222 C   0  0  0  0  0  0  0  0  0  0  0  0
  -31.6485  -32.5645   19.3565 C   0  0  0  0  0  0  0  0  0  0  0  0
  -22.8250  -11.2288   18.9846 C   0  0  0  0  0  0  0  0  0  0  0  0
  -23.0981   -9.7946   20.9096 C   0  0  0  0  0  0  0  0  0  0  0  0
  -31.8909  -34.6226   20.5899 C   0  0  0  0  0  0  0  0  0  0  0  0
  -30.6733  -32.1418   20.2592 C   0  0  0  0  0  0  0  0  0  0  0  0
  -25.7250  -28.7551   19.0143 C   0  0  0  0  0  0  0  0  0  0  0  0
  -21.8149  -10.3943   18.5062 C   0  0  0  0  0  0  0  0  0  0  0  0
  -22.0879   -8.9601   20.4312 C   0  0  0  0  0  0  0  0  0  0  0  0
  -25.4614  -27.3931   19.1529 C   0  0  0  0  0  0  0  0  0  0  0  0
  -21.7581   -6.5286   18.1052 C   0  0  0  0  0  0  0  0  0  0  0  0
  -21.9823   -5.1525   18.1427 C   0  0  0  0  0  0  0  0  0  0  0  0
  -24.4099  -27.8194   21.2817 C   0  0  0  0  0  0  0  0  0  0  0  0
  -28.2665  -20.1310   19.5679 C   0  0  0  0  0  0  0  0  0  0  0  0
  -28.2751  -19.6851   21.9424 C   0  0  0  0  0  0  0  0  0  0  0  0
  -20.0549   -4.8774   19.5733 C   0  0  0  0  0  0  0  0  0  0  0  0
  -23.4666  -10.9289   20.1863 C   0  0  0  0  0  0  0  0  0  0  0  0
  -29.5919  -18.3144   20.4510 C   0  0  0  0  0  0  0  0  0  0  0  0
  -24.3634  -12.9027   21.5308 C   0  0  0  0  0  0  0  0  0  0  0  0
  -30.9039  -34.2138   21.5006 C   0  0  0  0  0  0  0  0  0  0  0  0
  -25.3420  -29.6596   20.0150 C   0  0  0  0  0  0  0  0  0  0  0  0
  -30.2942  -32.9548   21.3408 C   0  0  0  0  0  0  0  0  0  0  0  0
  -24.6675  -29.1927   21.1522 C   0  0  0  0  0  0  0  0  0  0  0  0
  -29.1472  -19.0686   19.3652 C   0  0  0  0  0  0  0  0  0  0  0  0
  -29.1559  -18.6226   21.7397 C   0  0  0  0  0  0  0  0  0  0  0  0
  -27.8304  -20.4393   20.8566 C   0  0  0  0  0  0  0  0  0  0  0  0
  -21.4463   -9.2600   19.2294 C   0  0  0  0  0  0  0  0  0  0  0  0
  -24.8063  -26.9247   20.2881 C   0  0  0  0  0  0  0  0  0  0  0  0
  -20.6823   -7.0793   18.8018 C   0  0  0  0  0  0  0  0  0  0  0  0
  -21.1307   -4.3268   18.8767 C   0  0  0  0  0  0  0  0  0  0  0  0
  -19.8307   -6.2536   19.5358 C   0  0  0  0  0  0  0  0  0  0  0  0
  -24.5105  -11.7902   20.6808 C   0  0  0  0  0  0  0  0  0  0  0  0
  -25.6416  -13.3751   21.7025 C   0  0  0  0  0  0  0  0  0  0  0  0
  -30.5289  -17.1821   20.2344 C   0  0  0  0  0  0  0  0  0  0  0  0
  -23.1773  -13.4593   22.1131 C   0  0  0  0  0  0  0  0  0  0  0  0
  -26.8886  -31.6553   21.9461 C   0  0  0  0  0  0  0  0  0  0  0  0
  -25.5136  -23.3773   20.5692 C   0  0  0  0  0  0  0  0  0  0  0  0
  -23.8864  -32.5722   22.7639 C   0  0  0  0  0  0  0  0  0  0  0  0
  -20.5706  -31.7891   22.9611 C   0  0  0  0  0  0  0  0  0  0  0  0
  -30.6316  -14.7609   19.7335 C   0  0  0  0  0  0  0  0  0  0  0  0
  -30.5747  -35.1124   22.6663 C   0  0  0  0  0  0  0  0  0  0  0  0
  -25.6099  -31.1291   19.8380 C   0  0  0  0  0  0  0  0  0  0  0  0
  -24.2174  -30.1252   22.2459 C   0  0  0  0  0  0  0  0  0  0  0  0
  -29.2656  -34.7510   23.3633 C   0  0  0  0  0  0  0  0  0  0  0  0
  -30.1058  -11.3386   20.4465 C   0  0  0  0  0  0  0  0  0  0  0  0
  -29.1882  -33.2472   23.6073 C   0  0  0  0  0  0  0  0  0  0  0  0
  -28.5914  -11.2406   20.6495 C   0  0  0  0  0  0  0  0  0  0  0  0
  -30.4666  -12.3201   19.3323 C   0  0  0  0  0  0  0  0  0  0  0  0
  -28.3642  -13.5561   19.6643 C   0  0  0  0  0  0  0  0  0  0  0  0
  -29.2145  -32.4716   22.2847 C   0  0  1  0  0  0  0  0  0  0  0  0
  -25.6327  -31.8954   21.1570 C   0  0  1  0  0  0  0  0  0  0  0  0
  -27.9526  -12.6332   20.8227 C   0  0  1  0  0  0  0  0  0  0  0  0
  -29.5960  -18.7623   17.9732 C   0  0  0  0  0  0  0  0  0  0  0  0
  -29.6142  -17.8323   22.9223 C   0  0  0  0  0  0  0  0  0  0  0  0
  -18.3661  -32.7269   23.7083 C   0  0  0  0  0  0  0  0  0  0  0  0
  -24.6567  -32.0599   25.6715 C   0  0  0  0  0  0  0  0  0  0  0  0
  -22.2205  -32.0834   26.2482 C   0  0  0  0  0  0  0  0  0  0  0  0
  -23.2960  -34.1252   25.3011 C   0  0  0  0  0  0  0  0  0  0  0  0
  -19.4398  -31.6148   20.2317 C   0  0  0  0  0  0  0  0  0  0  0  0
  -26.4435  -22.3277   19.9986 C   0  0  0  0  0  0  0  0  0  0  0  0
  -25.4625  -24.6892   19.8105 C   0  0  0  0  0  0  0  0  0  1  0  0
  -22.8797  -32.1340   23.8000 C   0  0  1  0  0  0  0  0  0  0  0  0
  -19.3282  -32.5547   22.5432 C   0  0  2  0  0  0  0  0  0  0  0  0
  -23.2733  -32.5825   25.2357 C   0  0  0  0  0  0  0  0  0  0  0  0
  -25.7819  -11.5691   20.3363 N   0  0  0  0  0  0  0  0  0  0  0  0
  -26.4453  -12.5492   20.9730 N   0  0  0  0  0  0  0  0  0  0  0  0
  -24.5080  -31.5522   22.0296 N   0  0  0  0  0  0  0  0  0  0  0  0
  -29.8309  -13.6163   19.5753 N   0  0  0  0  0  0  0  0  0  0  0  0
  -26.1452  -14.4123   22.4047 N   0  0  0  0  0  0  0  0  0  0  0  0
  -21.9464  -12.8503   21.8331 N   0  0  0  0  0  0  0  0  0  0  0  0
  -26.9543  -21.4961   21.0582 N   0  0  0  0  0  0  0  0  0  0  0  0
  -29.9321  -15.9422   20.0041 N   0  0  0  0  0  0  0  0  0  0  0  0
  -27.9189  -32.5245   21.6420 N   0  0  0  0  0  0  0  0  0  0  0  0
  -21.5861  -32.6368   23.3504 N   0  0  0  0  0  0  0  0  0  0  0  0
  -18.6180  -31.8325   21.4500 N   0  3  0  0  0  0  0  0  0  0  0  0
  -31.7376  -17.3985   20.2300 O   0  0  0  0  0  0  0  0  0  0  0  0
  -23.2062  -14.4766   22.8465 O   0  0  0  0  0  0  0  0  0  0  0  0
  -26.9200  -30.7496   22.7709 O   0  0  0  0  0  0  0  0  0  0  0  0
  -24.8395  -23.1896   21.5812 O   0  0  0  0  0  0  0  0  0  0  0  0
  -24.1078  -33.7755   22.6068 O   0  0  0  0  0  0  0  0  0  0  0  0
  -20.6327  -30.5617   22.9475 O   0  0  0  0  0  0  0  0  0  0  0  0
  -31.8649  -14.7276   19.6769 O   0  0  0  0  0  0  0  0  0  0  0  0
  -20.4605   -8.4456   18.7630 O   0  0  0  0  0  0  0  0  0  0  0  0
  -24.5484  -25.5956   20.4262 O   0  0  0  0  0  0  0  0  0  1  0  0
  -21.3452   -3.0051   18.9113 F   0  0  0  0  0  0  0  0  0  0  0  0
  -18.7948   -6.7766   20.2061 F   0  0  0  0  0  0  0  0  0  0  0  0
  1  2  1  0  0  0  0
  1  5  2  0  0  0  0
  2  6  2  0  0  0  0
  3  8  2  0  0  0  0
  3 17  1  0  0  0  0
  4  9  1  0  0  0  0
  4 17  2  0  0  0  0
  5 20  1  0  0  0  0
  6 22  1  0  0  0  0
  7 10  2  0  0  0  0
  7 21  1  0  0  0  0
  8 27  1  0  0  0  0
  9 27  2  0  0  0  0
 10 28  1  0  0  0  0
 11 12  2  0  0  0  0
 11 29  1  0  0  0  0
 12 30  1  0  0  0  0
 13 23  1  0  0  0  0
 13 28  2  0  0  0  0
 14 24  2  0  0  0  0
 14 26  1  0  0  0  0
 15 25  1  0  0  0  0
 15 26  2  0  0  0  0
 16 30  2  0  0  0  0
 16 31  1  0  0  0  0
 17 32  1  0  0  0  0
 18 24  1  0  0  0  0
 18 25  2  0  0  0  0
 18 34  1  0  0  0  0
 19 32  1  0  0  0  0
 19 33  2  0  0  0  0
 19 35  1  0  0  0  0
 20 22  2  0  0  0  0
 20 41  1  0  0  0  0
 21 23  2  0  0  0  0
 21 42  1  0  0  0  0
 22 50  1  0  0  0  0
 23 43  1  0  0  0  0
 24 53  1  0  0  0  0
 25 54  1  0  0  0  0
 26 71  1  0  0  0  0
 27 83  1  0  0  0  0
 28 84  1  0  0  0  0
 29 31  2  0  0  0  0
 29 83  1  0  0  0  0
 30 85  1  0  0  0  0
 31 86  1  0  0  0  0
 32 65  2  0  0  0  0
 33 66  1  0  0  0  0
 33 69  1  0  0  0  0
 34 72  1  0  0  0  0
 34 76  2  0  0  0  0
 35 70  1  0  0  0  0
 35 77  2  0  0  0  0
 36 51  1  0  0  0  0
 36 73  1  0  0  0  0
 36 78  2  0  0  0  0
 37 60  1  0  0  0  0
 37 61  1  0  0  0  0
 37 79  2  0  0  0  0
 38 62  1  0  0  0  0
 38 67  1  0  0  0  0
 38 80  2  0  0  0  0
 39 63  1  0  0  0  0
 39 74  1  0  0  0  0
 39 81  2  0  0  0  0
 40 68  1  0  0  0  0
 40 72  1  0  0  0  0
 40 82  2  0  0  0  0
 41 44  1  0  0  0  0
 42 51  1  0  0  0  0
 43 67  1  0  0  0  0
 44 46  1  0  0  0  0
 45 47  1  0  0  0  0
 45 48  1  0  0  0  0
 46 50  1  0  0  0  0
 47 52  1  0  0  0  0
 48 68  1  0  0  0  0
 49 52  1  0  0  0  0
 49 68  1  0  0  0  0
 50 73  1  0  0  0  0
 51 67  1  0  0  0  0
 52 66  1  0  0  0  0
 55 63  1  0  0  0  0
 56 64  1  0  0  0  0
 57 64  1  0  0  0  0
 58 64  1  0  0  0  0
 59 75  1  0  0  0  0
 60 71  1  0  0  0  0
 61 84  1  0  0  0  0
 62 64  1  0  0  0  0
 62 74  1  0  0  0  0
 63 75  1  0  0  0  0
 65 66  1  0  0  0  0
M  CHG  1  75   1
M  ISO  4  40 100  61 101  72 100  84 101
M  END
> <Batch ID>
0109

> <Smiles>
CNC(C)C(=O)NC(C(=O)N1Cc2cc([101O:1][101CH2:1]C(=O)CNc3cc(C)c(C(=O)[100NH:0][100C:0](=O)N4CCCC(n5nc(-c6ccc(Oc7ccc(F)cc7F)cc6)c(C(N)=O)c5N)C4)c(C)c3)ccc2CC1C(=O)NC1CCCc2ccccc21)C(C)(C)C

> <Shape>
0.242

> <Color>
0.108

> <Negative vol penalty>
0.000

$$$$

  -OEChem-04052301233D

 89 98  0     1  0  0  0  0  0999 V2000
  -30.6179  -35.8344   23.4674 C   0  0  0  0  0  0  0  0  0  0  0  0
  -30.8263  -34.4623   23.3716 C   0  0  0  0  0  0  0  0  0  0  0  0
  -22.4163  -11.1367   19.7024 C   0  0  0  0  0  0  0  0  0  0  0  0
  -23.6766   -9.8261   21.2934 C   0  0  0  0  0  0  0  0  0  0  0  0
  -28.1106  -18.6721   18.8935 C   0  0  0  0  0  0  0  0  0  0  0  0
  -29.4351  -36.3216   24.0221 C   0  0  0  0  0  0  0  0  0  0  0  0
  -29.8525  -33.5765   23.8313 C   0  0  0  0  0  0  0  0  0  0  0  0
  -26.8667  -28.7302   19.4166 C   0  0  0  0  0  0  0  0  0  0  0  0
  -27.1369  -19.6659   18.7935 C   0  0  0  0  0  0  0  0  0  0  0  0
  -21.4700  -10.1160   19.6113 C   0  0  0  0  0  0  0  0  0  0  0  0
  -22.7303   -8.8054   21.2022 C   0  0  0  0  0  0  0  0  0  0  0  0
  -26.4006  -27.6360   18.6875 C   0  0  0  0  0  0  0  0  0  0  0  0
  -19.6494   -8.1508   22.4269 C   0  0  0  0  0  0  0  0  0  0  0  0
  -19.2139   -7.5648   23.6154 C   0  0  0  0  0  0  0  0  0  0  0  0
  -24.9921  -26.9861   20.5426 C   0  0  0  0  0  0  0  0  0  0  0  0
  -27.8590  -20.1466   16.5386 C   0  0  0  0  0  0  0  0  0  0  0  0
  -20.0220   -5.4192   22.8537 C   0  0  0  0  0  0  0  0  0  0  0  0
  -23.5197  -10.9917   20.5435 C   0  0  0  0  0  0  0  0  0  0  0  0
  -28.9585  -18.4156   17.8160 C   0  0  0  0  0  0  0  0  0  0  0  0
  -24.2799  -13.3731   21.0522 C   0  0  0  0  0  0  0  0  0  0  0  0
  -28.4421  -35.4413   24.4800 C   0  0  0  0  0  0  0  0  0  0  0  0
  -26.3851  -28.9654   20.7074 C   0  0  0  0  0  0  0  0  0  0  0  0
  -28.6559  -34.0523   24.3938 C   0  0  0  0  0  0  0  0  0  0  0  0
  -25.4459  -28.0875   21.2731 C   0  0  0  0  0  0  0  0  0  0  0  0
  -28.8327  -19.1528   16.6386 C   0  0  0  0  0  0  0  0  0  0  0  0
  -27.0111  -20.4031   17.6161 C   0  0  0  0  0  0  0  0  0  0  0  0
  -21.6270   -8.9504   20.3612 C   0  0  0  0  0  0  0  0  0  0  0  0
  -25.4658  -26.7660   19.2492 C   0  0  0  0  0  0  0  0  0  0  0  0
  -20.2712   -7.3709   21.4517 C   0  0  0  0  0  0  0  0  0  0  0  0
  -19.4002   -6.1991   23.8288 C   0  0  0  0  0  0  0  0  0  0  0  0
  -20.4575   -6.0051   21.6651 C   0  0  0  0  0  0  0  0  0  0  0  0
  -24.4978  -12.0455   20.6377 C   0  0  0  0  0  0  0  0  0  0  0  0
  -25.5153  -13.9669   20.9658 C   0  0  0  0  0  0  0  0  0  0  0  0
  -24.8202  -23.3136   18.4174 C   0  0  0  0  0  0  0  0  0  0  0  0
  -25.9363  -22.5482   18.3458 C   0  0  0  0  0  0  0  0  0  0  0  0
  -23.6225  -22.8947   17.6142 C   0  0  0  0  0  0  0  0  0  0  0  0
  -29.9859  -17.3510   17.9499 C   0  0  0  0  0  0  0  0  0  0  0  0
  -23.0690  -14.0123   21.4774 C   0  0  0  0  0  0  0  0  0  0  0  0
  -26.4589  -31.1507   23.7562 C   0  0  0  0  0  0  0  0  0  0  0  0
  -23.5319  -30.3522   23.3029 C   0  0  0  0  0  0  0  0  0  0  0  0
  -20.1265  -30.2105   23.1592 C   0  0  0  0  0  0  0  0  0  0  0  0
  -30.2898  -14.9236   18.3224 C   0  0  0  0  0  0  0  0  0  0  0  0
  -27.2003  -36.0149   25.1153 C   0  0  0  0  0  0  0  0  0  0  0  0
  -26.9050  -30.0966   21.5525 C   0  0  0  0  0  0  0  0  0  0  0  0
  -24.9818  -28.3603   22.6778 C   0  0  0  0  0  0  0  0  0  0  0  0
  -23.6717  -21.5761   16.8808 C   0  0  0  0  0  0  0  0  0  0  0  0
  -26.0580  -35.0096   25.2361 C   0  0  0  0  0  0  0  0  0  0  0  0
  -30.0997  -11.9468   20.2197 C   0  0  0  0  0  0  0  0  0  0  0  0
  -26.5695  -33.6848   25.7930 C   0  0  0  0  0  0  0  0  0  0  0  0
  -28.6081  -11.8176   20.5404 C   0  0  0  0  0  0  0  0  0  0  0  0
  -25.0764  -21.2478   16.4061 C   0  0  0  0  0  0  0  0  0  0  0  0
  -30.3321  -12.4937   18.8120 C   0  0  0  0  0  0  0  0  0  0  0  0
  -28.1393  -13.6114   18.8239 C   0  0  0  0  0  0  0  0  0  0  0  0
  -27.6126  -33.0596   24.8588 C   0  0  1  0  0  0  0  0  0  0  0  0
  -25.8298  -30.7100   22.4672 C   0  0  1  0  0  0  0  0  0  0  0  0
  -27.8525  -13.1311   20.2558 C   0  0  1  0  0  0  0  0  0  0  0  0
  -29.7273  -18.8977   15.4695 C   0  0  0  0  0  0  0  0  0  0  0  0
  -27.1894  -22.9674   19.0900 C   0  0  0  0  0  0  0  0  0  0  0  0
  -18.0853  -30.3752   24.6095 C   0  0  0  0  0  0  0  0  0  0  0  0
  -24.0696  -27.5464   24.3718 C   0  0  0  0  0  0  0  0  0  0  0  0
  -21.6502  -27.3985   24.9988 C   0  0  0  0  0  0  0  0  0  0  0  0
  -23.1044  -29.1338   26.0460 C   0  0  0  0  0  0  0  0  0  0  0  0
  -19.1088  -32.5512   21.6610 C   0  0  0  0  0  0  0  0  0  0  0  0
  -24.6274  -24.5401   19.2637 C   0  0  0  0  0  0  0  0  0  1  0  0
  -22.4196  -29.3867   23.6255 C   0  0  1  0  0  0  0  0  0  0  0  0
  -19.0555  -31.1314   23.7153 C   0  0  2  0  0  0  0  0  0  0  0  0
  -22.8186  -28.3718   24.7337 C   0  0  0  0  0  0  0  0  0  0  0  0
  -25.7715  -11.8095   20.3120 N   0  0  0  0  0  0  0  0  0  0  0  0
  -26.3650  -12.9969   20.5218 N   0  0  0  0  0  0  0  0  0  0  0  0
  -26.0219  -21.4152   17.5154 N   0  0  0  0  0  0  0  0  0  0  0  0
  -24.7386  -29.8004   22.8557 N   0  0  0  0  0  0  0  0  0  0  0  0
  -29.5907  -13.7423   18.6261 N   0  0  0  0  0  0  0  0  0  0  0  0
  -25.9469  -15.2191   21.2271 N   0  0  0  0  0  0  0  0  0  0  0  0
  -22.7422  -13.9855   22.8401 N   0  0  0  0  0  0  0  0  0  0  0  0
  -29.4961  -16.0702   18.2066 N   0  0  0  0  0  0  0  0  0  0  0  0
  -26.9658  -32.4358   23.7244 N   0  0  0  0  0  0  0  0  0  0  0  0
  -21.2542  -30.2011   23.9526 N   0  0  0  0  0  0  0  0  0  0  0  0
  -18.2820  -31.7562   22.6052 N   0  3  0  0  0  0  0  0  0  0  0  0
  -22.6021  -23.5826   17.5979 O   0  0  0  0  0  0  0  0  0  0  0  0
  -31.1693  -17.6388   17.7930 O   0  0  0  0  0  0  0  0  0  0  0  0
  -22.2912  -14.5759   20.6706 O   0  0  0  0  0  0  0  0  0  0  0  0
  -26.4820  -30.3827   24.7108 O   0  0  0  0  0  0  0  0  0  0  0  0
  -23.3407  -31.5628   23.4479 O   0  0  0  0  0  0  0  0  0  0  0  0
  -19.9763  -29.5615   22.1264 O   0  0  0  0  0  0  0  0  0  0  0  0
  -31.5184  -14.9618   18.2025 O   0  0  0  0  0  0  0  0  0  0  0  0
  -20.7037   -7.9543   20.2726 O   0  0  0  0  0  0  0  0  0  0  0  0
  -25.0117  -25.7023   18.5301 O   0  0  0  0  0  0  0  0  0  1  0  0
  -18.9833   -5.6368   24.9709 F   0  0  0  0  0  0  0  0  0  0  0  0
  -21.0553   -5.2510   20.7325 F   0  0  0  0  0  0  0  0  0  0  0  0
  1  2  1  0  0  0  0
  1  6  2  0  0  0  0
  2  7  2  0  0  0  0
  3 10  2  0  0  0  0
  3 18  1  0  0  0  0
  4 11  1  0  0  0  0
  4 18  2  0  0  0  0
  5  9  2  0  0  0  0
  5 19  1  0  0  0  0
  6 21  1  0  0  0  0
  7 23  1  0  0  0  0
  8 12  2  0  0  0  0
  8 22  1  0  0  0  0
  9 26  1  0  0  0  0
 10 27  1  0  0  0  0
 11 27  2  0  0  0  0
 12 28  1  0  0  0  0
 13 14  2  0  0  0  0
 13 29  1  0  0  0  0
 14 30  1  0  0  0  0
 15 24  1  0  0  0  0
 15 28  2  0  0  0  0
 16 25  1  0  0  0  0
 16 26  2  0  0  0  0
 17 30  2  0  0  0  0
 17 31  1  0  0  0  0
 18 32  1  0  0  0  0
 19 25  2  0  0  0  0
 19 37  1  0  0  0  0
 20 32  1  0  0  0  0
 20 33  2  0  0  0  0
 20 38  1  0  0  0  0
 21 23  2  0  0  0  0
 21 43  1  0  0  0  0
 22 24  2  0  0  0  0
 22 44  1  0  0  0  0
 23 54  1  0  0  0  0
 24 45  1  0  0  0  0
 25 57  1  0  0  0  0
 26 70  1  0  0  0  0
 27 86  1  0  0  0  0
 28 87  1  0  0  0  0
 29 31  2  0  0  0  0
 29 86  1  0  0  0  0
 30 88  1  0  0  0  0
 31 89  1  0  0  0  0
 32 68  2  0  0  0  0
 33 69  1  0  0  0  0
 33 73  1  0  0  0  0
 34 35  2  0  0  0  0
 34 36  1  0  0  0  0
 34 64  1  0  0  0  0
 35 58  1  0  0  0  0
 35 70  1  0  0  0  0
 36 46  1  0  0  0  0
 36 79  2  0  0  0  0
 37 75  1  0  0  0  0
 37 80  2  0  0  0  0
 38 74  1  0  0  0  0
 38 81  2  0  0  0  0
 39 55  1  0  0  0  0
 39 76  1  0  0  0  0
 39 82  2  0  0  0  0
 40 65  1  0  0  0  0
 40 71  1  0  0  0  0
 40 83  2  0  0  0  0
 41 66  1  0  0  0  0
 41 77  1  0  0  0  0
 41 84  2  0  0  0  0
 42 72  1  0  0  0  0
 42 75  1  0  0  0  0
 42 85  2  0  0  0  0
 43 47  1  0  0  0  0
 44 55  1  0  0  0  0
 45 71  1  0  0  0  0
 46 51  1  0  0  0  0
 47 49  1  0  0  0  0
 48 50  1  0  0  0  0
 48 52  1  0  0  0  0
 49 54  1  0  0  0  0
 50 56  1  0  0  0  0
 51 70  1  0  0  0  0
 52 72  1  0  0  0  0
 53 56  1  0  0  0  0
 53 72  1  0  0  0  0
 54 76  1  0  0  0  0
 55 71  1  0  0  0  0
 56 69  1  0  0  0  0
 59 66  1  0  0  0  0
 60 67  1  0  0  0  0
 61 67  1  0  0  0  0
 62 67  1  0  0  0  0
 63 78  1  0  0  0  0
 64 87  1  0  0  0  0
 65 67  1  0  0  0  0
 65 77  1  0  0  0  0
 66 78  1  0  0  0  0
 68 69  1  0  0  0  0
M  CHG  1  78   1
M  ISO  4  42 100  64 101  75 100  87 101
M  END
> <Batch ID>
0109

> <Smiles>
CNC(C)C(=O)NC(C(=O)N1Cc2cc([101O:1][101CH2:1]C3=C(C)N(c4ccc(C(=O)[100NH:0][100C:0](=O)N5CCCC(n6nc(-c7ccc(Oc8ccc(F)cc8F)cc7)c(C(N)=O)c6N)C5)c(C)c4)CCC3=O)ccc2CC1C(=O)NC1CCCc2ccccc21)C(C)(C)C

> <Shape>
0.278

> <Color>
0.131

> <Negative vol penalty>
0.000

$$$$

  -OEChem-04052301233D

 86 94  0     1  0  0  0  0  0999 V2000
  -18.7830  -33.2393   20.0747 C   0  0  0  0  0  0  0  0  0  0  0  0
  -20.1396  -33.0316   19.8470 C   0  0  0  0  0  0  0  0  0  0  0  0
  -24.2291  -11.1937   19.5193 C   0  0  0  0  0  0  0  0  0  0  0  0
  -25.3521  -11.2468   21.6577 C   0  0  0  0  0  0  0  0  0  0  0  0
  -18.1725  -32.6818   21.1974 C   0  0  0  0  0  0  0  0  0  0  0  0
  -20.8868  -32.2672   20.7425 C   0  0  0  0  0  0  0  0  0  0  0  0
  -25.5595  -28.5438   19.3981 C   0  0  0  0  0  0  0  0  0  0  0  0
  -24.4429   -9.8176   19.4411 C   0  0  0  0  0  0  0  0  0  0  0  0
  -25.5659   -9.8707   21.5797 C   0  0  0  0  0  0  0  0  0  0  0  0
  -26.9419  -28.7137   19.4595 C   0  0  0  0  0  0  0  0  0  0  0  0
  -23.7852   -7.0426   22.0814 C   0  0  0  0  0  0  0  0  0  0  0  0
  -23.5275   -6.2825   23.2222 C   0  0  0  0  0  0  0  0  0  0  0  0
  -26.9683  -27.6647   21.6316 C   0  0  0  0  0  0  0  0  0  0  0  0
  -31.3938  -22.0766   19.6858 C   0  0  0  0  0  0  0  0  0  0  0  0
  -25.8302   -5.5521   23.2557 C   0  0  0  0  0  0  0  0  0  0  0  0
  -24.6838  -11.9084   20.6276 C   0  0  0  0  0  0  0  0  0  0  0  0
  -23.3553  -13.9878   21.2746 C   0  0  0  0  0  0  0  0  0  0  0  0
  -18.9104  -31.9022   22.1019 C   0  0  0  0  0  0  0  0  0  0  0  0
  -24.8685  -27.9418   20.4595 C   0  0  0  0  0  0  0  0  0  0  0  0
  -20.2858  -31.6999   21.8790 C   0  0  0  0  0  0  0  0  0  0  0  0
  -25.5775  -27.4859   21.5801 C   0  0  0  0  0  0  0  0  0  0  0  0
  -30.3191  -21.6138   20.4451 C   0  0  0  0  0  0  0  0  0  0  0  0
  -29.3032  -22.4917   20.8233 C   0  0  0  0  0  0  0  0  0  0  0  0
  -31.4528  -23.4172   19.3049 C   0  0  0  0  0  0  0  0  0  0  0  0
  -25.1112   -9.1560   20.4713 C   0  0  0  0  0  0  0  0  0  0  0  0
  -27.6462  -28.2768   20.5777 C   0  0  0  0  0  0  0  0  0  0  0  0
  -25.0654   -7.0574   21.5277 C   0  0  0  0  0  0  0  0  0  0  0  0
  -30.4369  -24.2950   19.6832 C   0  0  0  0  0  0  0  0  0  0  0  0
  -24.5500   -5.5373   23.8094 C   0  0  0  0  0  0  0  0  0  0  0  0
  -26.0879   -6.3122   22.1148 C   0  0  0  0  0  0  0  0  0  0  0  0
  -29.3621  -23.8322   20.4424 C   0  0  0  0  0  0  0  0  0  0  0  0
  -24.4638  -13.3301   20.7086 C   0  0  0  0  0  0  0  0  0  0  0  0
  -23.6235  -15.3237   21.1015 C   0  0  0  0  0  0  0  0  0  0  0  0
  -22.1875  -13.4403   21.9009 C   0  0  0  0  0  0  0  0  0  0  0  0
  -22.5964  -28.8788   22.4752 C   0  0  0  0  0  0  0  0  0  0  0  0
  -22.6877  -25.7737   23.4093 C   0  0  0  0  0  0  0  0  0  0  0  0
  -24.4590  -22.8649   23.6277 C   0  0  0  0  0  0  0  0  0  0  0  0
  -28.7066  -18.2757   20.5505 C   0  0  0  0  0  0  0  0  0  0  0  0
  -18.2170  -31.3596   23.3265 C   0  0  0  0  0  0  0  0  0  0  0  0
  -23.3807  -27.7417   20.3663 C   0  0  0  0  0  0  0  0  0  0  0  0
  -24.8853  -26.8152   22.7374 C   0  0  0  0  0  0  0  0  0  0  0  0
  -18.9978  -30.2508   24.0274 C   0  0  0  0  0  0  0  0  0  0  0  0
  -25.9569  -18.3292   18.1981 C   0  0  0  0  0  0  0  0  0  0  0  0
  -20.4632  -30.6452   24.1816 C   0  0  0  0  0  0  0  0  0  0  0  0
  -25.1552  -17.1033   18.6394 C   0  0  0  0  0  0  0  0  0  0  0  0
  -27.4577  -18.0799   18.3157 C   0  0  0  0  0  0  0  0  0  0  0  0
  -27.1078  -16.4326   20.1150 C   0  0  0  0  0  0  0  0  0  0  0  0
  -21.1245  -30.8561   22.8142 C   0  0  1  0  0  0  0  0  0  0  0  0
  -22.7130  -27.5802   21.7284 C   0  0  1  0  0  0  0  0  0  0  0  0
  -25.5827  -16.6291   20.0410 C   0  0  2  0  0  0  0  0  0  0  0  0
  -24.9062  -20.4406   24.0972 C   0  0  0  0  0  0  0  0  0  0  0  0
  -23.0873  -26.7744   26.2639 C   0  0  0  0  0  0  0  0  0  0  0  0
  -23.8417  -24.4711   26.8916 C   0  0  0  0  0  0  0  0  0  0  0  0
  -21.5227  -24.8354   26.0476 C   0  0  0  0  0  0  0  0  0  0  0  0
  -23.5798  -22.0586   20.9193 C   0  0  0  0  0  0  0  0  0  0  0  0
  -30.2775  -20.1744   20.8409 C   0  0  0  0  0  0  0  0  0  0  0  0
  -28.1434  -22.0146   21.6343 C   0  0  0  0  0  0  0  0  0  0  0  0
  -31.1222  -27.9141   19.6304 C   0  0  0  0  0  0  0  0  0  0  0  0
  -29.7096  -28.4297   19.4050 C   0  0  0  0  0  0  0  0  0  1  0  0
  -31.1290  -26.5084   20.2102 C   0  0  0  0  0  0  0  0  0  0  0  0
  -23.4660  -24.9891   24.4377 C   0  0  1  0  0  0  0  0  0  0  0  0
  -24.0910  -21.4331   23.2828 C   0  0  2  0  0  0  0  0  0  0  0  0
  -22.9925  -25.2819   25.8894 C   0  0  0  0  0  0  0  0  0  0  0  0
  -25.3687  -14.1782   20.2129 N   0  0  0  0  0  0  0  0  0  0  0  0
  -24.8293  -15.3826   20.4668 N   0  0  0  0  0  0  0  0  0  0  0  0
  -23.4288  -26.6481   22.6019 N   0  0  0  0  0  0  0  0  0  0  0  0
  -27.8007  -17.6494   19.6784 N   0  0  0  0  0  0  0  0  0  0  0  0
  -32.5462  -23.8731   18.5368 N   0  0  0  0  0  0  0  0  0  0  0  0
  -22.9433  -16.4420   21.4318 N   0  0  0  0  0  0  0  0  0  0  0  0
  -22.0714  -12.0467   21.9956 N   0  0  0  0  0  0  0  0  0  0  0  0
  -21.4387  -29.5825   22.2029 N   0  0  0  0  0  0  0  0  0  0  0  0
  -23.3619  -23.5875   24.0464 N   0  0  0  0  0  0  0  0  0  0  0  0
  -29.3256  -19.4181   20.0580 N   0  0  0  0  0  0  0  0  0  0  0  0
  -28.3675  -22.1205   23.1017 N   0  3  0  0  0  0  0  0  0  0  0  0
  -24.3371  -21.1690   21.8369 N   0  3  0  0  0  0  0  0  0  0  0  0
  -21.2665  -14.1649   22.3482 O   0  0  0  0  0  0  0  0  0  0  0  0
  -23.4898  -29.2166   23.2429 O   0  0  0  0  0  0  0  0  0  0  0  0
  -21.4681  -25.6113   23.3207 O   0  0  0  0  0  0  0  0  0  0  0  0
  -25.6058  -23.2978   23.5386 O   0  0  0  0  0  0  0  0  0  0  0  0
  -28.9427  -17.8511   21.6868 O   0  0  0  0  0  0  0  0  0  0  0  0
  -25.3198   -7.8132   20.3955 O   0  0  0  0  0  0  0  0  0  0  0  0
  -28.9955  -28.4420   20.6405 O   0  0  0  0  0  0  0  0  0  1  0  0
  -30.4765  -25.6154   19.3177 O   0  0  0  0  0  0  0  0  0  0  0  0
  -24.3028   -4.8086   24.9058 F   0  0  0  0  0  0  0  0  0  0  0  0
  -27.3201   -6.3234   21.5881 F   0  0  0  0  0  0  0  0  0  0  0  0
  -28.3860  -24.6785   20.8027 F   0  0  0  0  0  0  0  0  0  0  0  0
  1  2  1  0  0  0  0
  1  5  2  0  0  0  0
  2  6  2  0  0  0  0
  3  8  2  0  0  0  0
  3 16  1  0  0  0  0
  4  9  1  0  0  0  0
  4 16  2  0  0  0  0
  5 18  1  0  0  0  0
  6 20  1  0  0  0  0
  7 10  2  0  0  0  0
  7 19  1  0  0  0  0
  8 25  1  0  0  0  0
  9 25  2  0  0  0  0
 10 26  1  0  0  0  0
 11 12  2  0  0  0  0
 11 27  1  0  0  0  0
 12 29  1  0  0  0  0
 13 21  1  0  0  0  0
 13 26  2  0  0  0  0
 14 22  1  0  0  0  0
 14 24  2  0  0  0  0
 15 29  2  0  0  0  0
 15 30  1  0  0  0  0
 16 32  1  0  0  0  0
 17 32  1  0  0  0  0
 17 33  2  0  0  0  0
 17 34  1  0  0  0  0
 18 20  2  0  0  0  0
 18 39  1  0  0  0  0
 19 21  2  0  0  0  0
 19 40  1  0  0  0  0
 20 48  1  0  0  0  0
 21 41  1  0  0  0  0
 22 23  2  0  0  0  0
 22 56  1  0  0  0  0
 23 31  1  0  0  0  0
 23 57  1  0  0  0  0
 24 28  1  0  0  0  0
 24 68  1  0  0  0  0
 25 81  1  0  0  0  0
 26 82  1  0  0  0  0
 27 30  2  0  0  0  0
 27 81  1  0  0  0  0
 28 31  2  0  0  0  0
 28 83  1  0  0  0  0
 29 84  1  0  0  0  0
 30 85  1  0  0  0  0
 31 86  1  0  0  0  0
 32 64  2  0  0  0  0
 33 65  1  0  0  0  0
 33 69  1  0  0  0  0
 34 70  1  0  0  0  0
 34 76  2  0  0  0  0
 35 49  1  0  0  0  0
 35 71  1  0  0  0  0
 35 77  2  0  0  0  0
 36 61  1  0  0  0  0
 36 66  1  0  0  0  0
 36 78  2  0  0  0  0
 37 62  1  0  0  0  0
 37 72  1  0  0  0  0
 37 79  2  0  0  0  0
 38 67  1  0  0  0  0
 38 73  1  0  0  0  0
 38 80  2  0  0  0  0
 39 42  1  0  0  0  0
 40 49  1  0  0  0  0
 41 66  1  0  0  0  0
 42 44  1  0  0  0  0
 43 45  1  0  0  0  0
 43 46  1  0  0  0  0
 44 48  1  0  0  0  0
 45 50  1  0  0  0  0
 46 67  1  0  0  0  0
 47 50  1  0  0  0  0
 47 67  1  0  0  0  0
 48 71  1  0  0  0  0
 49 66  1  0  0  0  0
 50 65  1  0  0  0  0
 51 62  1  0  0  0  0
 52 63  1  0  0  0  0
 53 63  1  0  0  0  0
 54 63  1  0  0  0  0
 55 75  1  0  0  0  0
 56 73  1  0  0  0  0
 57 74  1  0  0  0  0
 58 59  1  0  0  0  0
 58 60  1  0  0  0  0
 59 82  1  0  0  0  0
 60 83  1  0  0  0  0
 61 63  1  0  0  0  0
 61 72  1  0  0  0  0
 62 75  1  0  0  0  0
 64 65  1  0  0  0  0
M  CHG  2  74   1  75   1
M  ISO  4  38 100  59 101  73 100  82 101
M  END
> <Batch ID>
0109

> <Smiles>
CNC(C)C(=O)NC(C(=O)N1Cc2cc([101O:1][101CH2:1]CCOc3c(N)cc(C[100NH:0][100C:0](=O)N4CCCC(n5nc(-c6ccc(Oc7ccc(F)cc7F)cc6)c(C(N)=O)c5N)C4)c(CN)c3F)ccc2CC1C(=O)NC1CCCc2ccccc21)C(C)(C)C

> <Shape>
0.221

> <Color>
0.081

> <Negative vol penalty>
0.000

$$$$

  -OEChem-04052301233D

 84 92  0     1  0  0  0  0  0999 V2000
  -20.0925   -9.7796   22.4173 C   0  0  0  0  0  0  0  0  0  0  0  0
  -19.4525  -10.7369   21.6366 C   0  0  0  0  0  0  0  0  0  0  0  0
  -28.4972  -28.5370   20.3442 C   0  0  0  0  0  0  0  0  0  0  0  0
  -27.0393  -26.6592   19.9136 C   0  0  0  0  0  0  0  0  0  0  0  0
  -21.1018  -10.1625   23.2997 C   0  0  0  0  0  0  0  0  0  0  0  0
  -19.8207  -12.0779   21.7388 C   0  0  0  0  0  0  0  0  0  0  0  0
  -20.3866  -18.0283   17.7903 C   0  0  0  0  0  0  0  0  0  0  0  0
  -29.6088  -27.7281   20.1087 C   0  0  0  0  0  0  0  0  0  0  0  0
  -28.1510  -25.8502   19.6780 C   0  0  0  0  0  0  0  0  0  0  0  0
  -19.9868  -19.3639   17.7918 C   0  0  0  0  0  0  0  0  0  0  0  0
  -30.3411  -25.2998   17.1639 C   0  0  0  0  0  0  0  0  0  0  0  0
  -30.3051  -24.4594   16.0513 C   0  0  0  0  0  0  0  0  0  0  0  0
  -19.7766  -28.7497   23.2945 C   0  0  0  0  0  0  0  0  0  0  0  0
  -18.4938  -27.6367   21.5762 C   0  0  0  0  0  0  0  0  0  0  0  0
  -20.0165  -26.3692   22.9589 C   0  0  0  0  0  0  0  0  0  0  0  0
  -21.7983  -19.8982   19.2925 C   0  0  0  0  0  0  0  0  0  0  0  0
  -30.5574  -22.5382   17.4943 C   0  0  0  0  0  0  0  0  0  0  0  0
  -27.2124  -28.0026   20.2467 C   0  0  0  0  0  0  0  0  0  0  0  0
  -18.8415  -28.8012   22.2608 C   0  0  0  0  0  0  0  0  0  0  0  0
  -20.3642  -27.5336   23.6435 C   0  0  0  0  0  0  0  0  0  0  0  0
  -25.3545  -29.6043   19.5465 C   0  0  0  0  0  0  0  0  0  0  0  0
  -21.4892  -11.5076   23.4057 C   0  0  0  0  0  0  0  0  0  0  0  0
  -21.4905  -17.6149   18.5499 C   0  0  0  0  0  0  0  0  0  0  0  0
  -20.8352  -12.4794   22.6244 C   0  0  0  0  0  0  0  0  0  0  0  0
  -22.2116  -18.5573   19.2970 C   0  0  0  0  0  0  0  0  0  0  0  0
  -29.4357  -26.3847   19.7756 C   0  0  0  0  0  0  0  0  0  0  0  0
  -20.6909  -20.2986   18.5452 C   0  0  0  0  0  0  0  0  0  0  0  0
  -30.4854  -24.7594   18.4418 C   0  0  0  0  0  0  0  0  0  0  0  0
  -19.0813  -26.4207   21.9252 C   0  0  0  0  0  0  0  0  0  0  0  0
  -30.4131  -23.0786   16.2164 C   0  0  0  0  0  0  0  0  0  0  0  0
  -30.5935  -23.3786   18.6069 C   0  0  0  0  0  0  0  0  0  0  0  0
  -26.0637  -28.8376   20.4904 C   0  0  0  0  0  0  0  0  0  0  0  0
  -24.3589  -30.2093   20.2740 C   0  0  0  0  0  0  0  0  0  0  0  0
  -18.8419  -31.2398   21.9993 C   0  0  0  0  0  0  0  0  0  0  0  0
  -18.2281  -30.0691   21.8970 C   0  0  0  0  0  0  0  0  0  0  0  0
  -21.3407  -27.4799   24.7202 C   0  0  0  0  0  0  0  0  0  0  0  0
  -25.5758  -29.7560   18.1381 C   0  0  0  0  0  0  0  0  0  0  0  0
  -21.7335  -28.6975   25.4661 C   0  0  0  0  0  0  0  0  0  0  0  0
  -21.9198  -15.6010   20.9714 C   0  0  0  0  0  0  0  0  0  0  0  0
  -25.0519  -16.2815   20.4724 C   0  0  0  0  0  0  0  0  0  0  0  0
  -27.3871  -18.4551   19.2604 C   0  0  0  0  0  0  0  0  0  0  0  0
  -22.5529  -11.8799   24.4080 C   0  0  0  0  0  0  0  0  0  0  0  0
  -21.9252  -16.1753   18.5166 C   0  0  0  0  0  0  0  0  0  0  0  0
  -23.4161  -18.1684   20.1134 C   0  0  0  0  0  0  0  0  0  0  0  0
  -23.1413  -13.2705   24.1836 C   0  0  0  0  0  0  0  0  0  0  0  0
  -23.3499  -31.7960   24.6641 C   0  0  0  0  0  0  0  0  0  0  0  0
  -22.0303  -14.2882   23.9457 C   0  0  0  0  0  0  0  0  0  0  0  0
  -24.1946  -31.4468   23.4392 C   0  0  0  0  0  0  0  0  0  0  0  0
  -23.2616  -30.6224   25.6343 C   0  0  0  0  0  0  0  0  0  0  0  0
  -23.5965  -29.0076   23.7826 C   0  0  0  0  0  0  0  0  0  0  0  0
  -21.2236  -13.9406   22.6887 C   0  0  1  0  0  0  0  0  0  0  0  0
  -22.7532  -15.7729   19.7330 C   0  0  1  0  0  0  0  0  0  0  0  0
  -23.6859  -30.1595   22.7664 C   0  0  2  0  0  0  0  0  0  0  0  0
  -29.8680  -18.7543   19.0302 C   0  0  0  0  0  0  0  0  0  0  0  0
  -25.2367  -17.0058   23.4307 C   0  0  0  0  0  0  0  0  0  0  0  0
  -27.3980  -18.1699   22.9391 C   0  0  0  0  0  0  0  0  0  0  0  0
  -27.1888  -15.7150   22.5488 C   0  0  0  0  0  0  0  0  0  0  0  0
  -27.2213  -18.5262   16.3064 C   0  0  0  0  0  0  0  0  0  0  0  0
  -19.5198  -23.4506   19.8886 C   0  0  0  0  0  0  0  0  0  0  0  0
  -20.5623  -22.3546   19.7336 C   0  0  0  0  0  0  0  0  0  1  0  0
  -19.7400  -24.2711   21.1498 C   0  0  0  0  0  0  0  0  0  0  0  0
  -26.0153  -17.3224   20.9895 C   0  0  1  0  0  0  0  0  0  0  0  0
  -28.5980  -18.2395   18.3707 C   0  0  2  0  0  0  0  0  0  0  0  0
  -26.4359  -17.0606   22.4633 C   0  0  0  0  0  0  0  0  0  0  0  0
  -25.5615  -28.9441   21.7234 N   0  0  0  0  0  0  0  0  0  0  0  0
  -21.9279  -26.3776   25.1005 N   0  0  0  0  0  0  0  0  0  0  0  0
  -24.5260  -29.7850   21.5594 N   0  0  0  0  0  0  0  0  0  0  0  0
  -22.8106  -29.4088   24.9562 N   0  0  0  0  0  0  0  0  0  0  0  0
  -23.7978  -16.7477   20.0533 N   0  0  0  0  0  0  0  0  0  0  0  0
  -23.3656  -31.0576   19.9332 N   0  0  0  0  0  0  0  0  0  0  0  0
  -26.6432  -29.0630   17.5510 N   0  0  0  0  0  0  0  0  0  0  0  0
  -21.9521  -14.3241   21.4985 N   0  0  0  0  0  0  0  0  0  0  0  0
  -27.1284  -17.3524   20.0468 N   0  0  0  0  0  0  0  0  0  0  0  0
  -28.4207  -18.9510   17.0732 N   0  3  0  0  0  0  0  0  0  0  0  0
  -24.8586  -30.4975   17.4244 O   0  0  0  0  0  0  0  0  0  0  0  0
  -21.0622  -28.9474   26.4588 O   0  0  0  0  0  0  0  0  0  0  0  0
  -21.2949  -16.5565   21.4165 O   0  0  0  0  0  0  0  0  0  0  0  0
  -25.4018  -15.0992   20.4349 O   0  0  0  0  0  0  0  0  0  0  0  0
  -26.7381  -19.4988   19.2607 O   0  0  0  0  0  0  0  0  0  0  0  0
  -30.5202  -25.5951   19.5455 O   0  0  0  0  0  0  0  0  0  0  0  0
  -20.3024  -21.6028   18.5489 O   0  0  0  0  0  0  0  0  0  1  0  0
  -18.7407  -25.2765   21.2518 O   0  0  0  0  0  0  0  0  0  0  0  0
  -30.3769  -22.2716   15.1480 F   0  0  0  0  0  0  0  0  0  0  0  0
  -30.7310  -22.8536   19.8322 F   0  0  0  0  0  0  0  0  0  0  0  0
  1  2  1  0  0  0  0
  1  5  2  0  0  0  0
  2  6  2  0  0  0  0
  3  8  2  0  0  0  0
  3 18  1  0  0  0  0
  4  9  1  0  0  0  0
  4 18  2  0  0  0  0
  5 22  1  0  0  0  0
  6 24  1  0  0  0  0
  7 10  2  0  0  0  0
  7 23  1  0  0  0  0
  8 26  1  0  0  0  0
  9 26  2  0  0  0  0
 10 27  1  0  0  0  0
 11 12  2  0  0  0  0
 11 28  1  0  0  0  0
 12 30  1  0  0  0  0
 13 19  2  0  0  0  0
 13 20  1  0  0  0  0
 14 19  1  0  0  0  0
 14 29  2  0  0  0  0
 15 20  2  0  0  0  0
 15 29  1  0  0  0  0
 16 25  1  0  0  0  0
 16 27  2  0  0  0  0
 17 30  2  0  0  0  0
 17 31  1  0  0  0  0
 18 32  1  0  0  0  0
 19 35  1  0  0  0  0
 20 36  1  0  0  0  0
 21 32  1  0  0  0  0
 21 33  2  0  0  0  0
 21 37  1  0  0  0  0
 22 24  2  0  0  0  0
 22 42  1  0  0  0  0
 23 25  2  0  0  0  0
 23 43  1  0  0  0  0
 24 51  1  0  0  0  0
 25 44  1  0  0  0  0
 26 80  1  0  0  0  0
 27 81  1  0  0  0  0
 28 31  2  0  0  0  0
 28 80  1  0  0  0  0
 29 82  1  0  0  0  0
 30 83  1  0  0  0  0
 31 84  1  0  0  0  0
 32 65  2  0  0  0  0
 33 67  1  0  0  0  0
 33 70  1  0  0  0  0
 34 35  2  0  0  0  0
 36 38  1  0  0  0  0
 36 66  2  0  0  0  0
 37 71  1  0  0  0  0
 37 75  2  0  0  0  0
 38 68  1  0  0  0  0
 38 76  2  0  0  0  0
 39 52  1  0  0  0  0
 39 72  1  0  0  0  0
 39 77  2  0  0  0  0
 40 62  1  0  0  0  0
 40 69  1  0  0  0  0
 40 78  2  0  0  0  0
 41 63  1  0  0  0  0
 41 73  1  0  0  0  0
 41 79  2  0  0  0  0
 42 45  1  0  0  0  0
 43 52  1  0  0  0  0
 44 69  1  0  0  0  0
 45 47  1  0  0  0  0
 46 48  1  0  0  0  0
 46 49  1  0  0  0  0
 47 51  1  0  0  0  0
 48 53  1  0  0  0  0
 49 68  1  0  0  0  0
 50 53  1  0  0  0  0
 50 68  1  0  0  0  0
 51 72  1  0  0  0  0
 52 69  1  0  0  0  0
 53 67  1  0  0  0  0
 54 63  1  0  0  0  0
 55 64  1  0  0  0  0
 56 64  1  0  0  0  0
 57 64  1  0  0  0  0
 58 74  1  0  0  0  0
 59 60  1  0  0  0  0
 59 61  1  0  0  0  0
 60 81  1  0  0  0  0
 61 82  1  0  0  0  0
 62 64  1  0  0  0  0
 62 73  1  0  0  0  0
 63 74  1  0  0  0  0
 65 67  1  0  0  0  0
M  CHG  1  74   1
M  ISO  4  36 100  38 100  60 101  81 101
M  END
> <Batch ID>
0109

> <Smiles>
C=Cc1cc(OCC[101CH2:1][101O:1]c2ccc3c(c2)CN(C(=O)C(NC(=O)C(C)NC)C(C)(C)C)C(C(=O)NC2CCCc4ccccc42)C3)cc([100C:0](=N)[100C:0](=O)N2CCCC(n3nc(-c4ccc(Oc5ccc(F)cc5F)cc4)c(C(N)=O)c3N)C2)c1

> <Shape>
0.214

> <Color>
0.065

> <Negative vol penalty>
0.000

$$$$

  -OEChem-04052301233D

 88 97  0     1  0  0  0  0  0999 V2000
  -32.6427  -16.6504   18.6150 C   0  0  0  0  0  0  0  0  0  0  0  0
  -32.8854  -16.5188   19.9785 C   0  0  0  0  0  0  0  0  0  0  0  0
  -29.2134  -27.3910   18.3008 C   0  0  0  0  0  0  0  0  0  0  0  0
  -29.0389  -26.1472   20.3646 C   0  0  0  0  0  0  0  0  0  0  0  0
  -21.6706  -26.9692   25.4970 C   0  0  0  0  0  0  0  0  0  0  0  0
  -31.4743  -17.2693   18.1727 C   0  0  0  0  0  0  0  0  0  0  0  0
  -31.9602  -17.0070   20.9006 C   0  0  0  0  0  0  0  0  0  0  0  0
  -25.9525  -17.2028   26.7592 C   0  0  0  0  0  0  0  0  0  0  0  0
  -21.5400  -25.6634   25.9696 C   0  0  0  0  0  0  0  0  0  0  0  0
  -30.4635  -26.8200   18.0623 C   0  0  0  0  0  0  0  0  0  0  0  0
  -30.2889  -25.5761   20.1261 C   0  0  0  0  0  0  0  0  0  0  0  0
  -24.8027  -17.9673   26.9520 C   0  0  0  0  0  0  0  0  0  0  0  0
  -31.5705  -23.0979   18.2191 C   0  0  0  0  0  0  0  0  0  0  0  0
  -31.7040  -21.7248   18.4252 C   0  0  0  0  0  0  0  0  0  0  0  0
  -24.2270  -17.6768   24.6275 C   0  0  0  0  0  0  0  0  0  0  0  0
  -21.0962  -24.8946   23.7225 C   0  0  0  0  0  0  0  0  0  0  0  0
  -33.4066  -22.1399   20.0882 C   0  0  0  0  0  0  0  0  0  0  0  0
  -28.5011  -27.0547   19.4520 C   0  0  0  0  0  0  0  0  0  0  0  0
  -21.5138  -27.2378   24.1373 C   0  0  0  0  0  0  0  0  0  0  0  0
  -26.0629  -27.5501   18.8886 C   0  0  0  0  0  0  0  0  0  0  0  0
  -30.5298  -17.7568   19.0897 C   0  0  0  0  0  0  0  0  0  0  0  0
  -26.2544  -16.6778   25.4944 C   0  0  0  0  0  0  0  0  0  0  0  0
  -30.7787  -17.6343   20.4700 C   0  0  0  0  0  0  0  0  0  0  0  0
  -25.3800  -16.9039   24.4218 C   0  0  0  0  0  0  0  0  0  0  0  0
  -21.2266  -26.2005   23.2500 C   0  0  0  0  0  0  0  0  0  0  0  0
  -21.2529  -24.6261   25.0823 C   0  0  0  0  0  0  0  0  0  0  0  0
  -31.0012  -25.9125   18.9749 C   0  0  0  0  0  0  0  0  0  0  0  0
  -23.9412  -18.2069   25.8854 C   0  0  0  0  0  0  0  0  0  0  0  0
  -32.3551  -23.9920   18.9476 C   0  0  0  0  0  0  0  0  0  0  0  0
  -32.6220  -21.2458   19.3597 C   0  0  0  0  0  0  0  0  0  0  0  0
  -33.2732  -23.5130   19.8822 C   0  0  0  0  0  0  0  0  0  0  0  0
  -27.2101  -27.6447   19.6991 C   0  0  0  0  0  0  0  0  0  0  0  0
  -25.1091  -28.2778   19.5573 C   0  0  0  0  0  0  0  0  0  0  0  0
  -21.6127  -20.9254   25.4309 C   0  0  0  0  0  0  0  0  0  0  0  0
  -21.9205  -22.2153   25.1524 C   0  0  0  0  0  0  0  0  0  0  0  0
  -20.4233  -20.6627   26.3066 C   0  0  0  0  0  0  0  0  0  0  0  0
  -21.6561  -28.6106   23.6709 C   0  0  0  0  0  0  0  0  0  0  0  0
  -25.8763  -26.8656   17.6426 C   0  0  0  0  0  0  0  0  0  0  0  0
  -22.5499  -29.5688   24.3609 C   0  0  0  0  0  0  0  0  0  0  0  0
  -28.6375  -17.0460   23.4233 C   0  0  0  0  0  0  0  0  0  0  0  0
  -27.0963  -14.6809   21.8254 C   0  0  0  0  0  0  0  0  0  0  0  0
  -23.6801  -13.8252   21.0412 C   0  0  0  0  0  0  0  0  0  0  0  0
  -29.3038  -18.4606   18.5641 C   0  0  0  0  0  0  0  0  0  0  0  0
  -27.4849  -15.8328   25.3090 C   0  0  0  0  0  0  0  0  0  0  0  0
  -25.6482  -16.3458   23.0488 C   0  0  0  0  0  0  0  0  0  0  0  0
  -19.8193  -21.8315   27.0445 C   0  0  0  0  0  0  0  0  0  0  0  0
  -28.1977  -18.6161   19.6046 C   0  0  0  0  0  0  0  0  0  0  0  0
  -25.5041  -31.4091   23.4993 C   0  0  0  0  0  0  0  0  0  0  0  0
  -28.7727  -19.1230   20.9233 C   0  0  0  0  0  0  0  0  0  0  0  0
  -26.1366  -30.5643   22.3939 C   0  0  0  0  0  0  0  0  0  0  0  0
  -19.8025  -23.0770   26.1795 C   0  0  0  0  0  0  0  0  0  0  0  0
  -24.8080  -30.5373   24.5393 C   0  0  0  0  0  0  0  0  0  0  0  0
  -24.4150  -28.7615   22.8538 C   0  0  0  0  0  0  0  0  0  0  0  0
  -29.7875  -18.1290   21.5010 C   0  0  1  0  0  0  0  0  0  0  0  0
  -27.9595  -15.7783   23.8602 C   0  0  1  0  0  0  0  0  0  0  0  0
  -25.1039  -29.6088   21.7699 C   0  0  2  0  0  0  0  0  0  0  0  0
  -21.0548  -26.4606   21.7889 C   0  0  0  0  0  0  0  0  0  0  0  0
  -23.2140  -22.5404   24.4298 C   0  0  0  0  0  0  0  0  0  0  0  0
  -22.6210  -11.5975   20.5796 C   0  0  0  0  0  0  0  0  0  0  0  0
  -27.6257  -15.3609   18.8984 C   0  0  0  0  0  0  0  0  0  0  0  0
  -25.4214  -14.3186   18.3300 C   0  0  0  0  0  0  0  0  0  0  0  0
  -27.2279  -12.9335   19.3501 C   0  0  0  0  0  0  0  0  0  0  0  0
  -21.6595  -14.2149   23.1682 C   0  0  0  0  0  0  0  0  0  0  0  0
  -22.3467  -19.7051   24.9534 C   0  0  0  0  0  0  0  0  0  1  0  0
  -26.0118  -14.6300   20.7765 C   0  0  1  0  0  0  0  0  0  0  0  0
  -22.8750  -12.6762   21.6210 C   0  0  2  0  0  0  0  0  0  0  0  0
  -26.5732  -14.3320   19.3575 C   0  0  0  0  0  0  0  0  0  0  0  0
  -27.0057  -28.3750   20.7986 N   0  0  0  0  0  0  0  0  0  0  0  0
  -21.0213  -29.0818   22.6334 N   0  0  0  0  0  0  0  0  0  0  0  0
  -25.7192  -28.7460   20.6836 N   0  0  0  0  0  0  0  0  0  0  0  0
  -21.1180  -23.2954   25.5647 N   0  0  0  0  0  0  0  0  0  0  0  0
  -23.8617  -29.6180   23.9104 N   0  0  0  0  0  0  0  0  0  0  0  0
  -26.8674  -15.5311   22.9165 N   0  0  0  0  0  0  0  0  0  0  0  0
  -23.8164  -28.5564   19.2857 N   0  0  0  0  0  0  0  0  0  0  0  0
  -25.4427  -25.5331   17.6707 N   0  0  0  0  0  0  0  0  0  0  0  0
  -29.1054  -17.0147   22.1235 N   0  0  0  0  0  0  0  0  0  0  0  0
  -25.0329  -13.6566   21.2483 N   0  0  0  0  0  0  0  0  0  0  0  0
  -21.5593  -13.1661   22.1209 N   0  3  0  0  0  0  0  0  0  0  0  0
  -20.0053  -19.5196   26.4844 O   0  0  0  0  0  0  0  0  0  0  0  0
  -26.1035  -27.4141   16.5376 O   0  0  0  0  0  0  0  0  0  0  0  0
  -22.0329  -30.2183   25.2605 O   0  0  0  0  0  0  0  0  0  0  0  0
  -28.7279  -17.9837   24.2070 O   0  0  0  0  0  0  0  0  0  0  0  0
  -28.1060  -13.9863   21.6854 O   0  0  0  0  0  0  0  0  0  0  0  0
  -23.1612  -14.7752   20.4592 O   0  0  0  0  0  0  0  0  0  0  0  0
  -32.2209  -25.3549   18.7425 O   0  0  0  0  0  0  0  0  0  0  0  0
  -22.8185  -18.9533   26.0707 O   0  0  0  0  0  0  0  0  0  1  0  0
  -32.7490  -19.9273   19.5586 F   0  0  0  0  0  0  0  0  0  0  0  0
  -34.0289  -24.3671   20.5858 F   0  0  0  0  0  0  0  0  0  0  0  0
  1  2  1  0  0  0  0
  1  6  2  0  0  0  0
  2  7  2  0  0  0  0
  3 10  2  0  0  0  0
  3 18  1  0  0  0  0
  4 11  1  0  0  0  0
  4 18  2  0  0  0  0
  5  9  2  0  0  0  0
  5 19  1  0  0  0  0
  6 21  1  0  0  0  0
  7 23  1  0  0  0  0
  8 12  2  0  0  0  0
  8 22  1  0  0  0  0
  9 26  1  0  0  0  0
 10 27  1  0  0  0  0
 11 27  2  0  0  0  0
 12 28  1  0  0  0  0
 13 14  2  0  0  0  0
 13 29  1  0  0  0  0
 14 30  1  0  0  0  0
 15 24  1  0  0  0  0
 15 28  2  0  0  0  0
 16 25  1  0  0  0  0
 16 26  2  0  0  0  0
 17 30  2  0  0  0  0
 17 31  1  0  0  0  0
 18 32  1  0  0  0  0
 19 25  2  0  0  0  0
 19 37  1  0  0  0  0
 20 32  1  0  0  0  0
 20 33  2  0  0  0  0
 20 38  1  0  0  0  0
 21 23  2  0  0  0  0
 21 43  1  0  0  0  0
 22 24  2  0  0  0  0
 22 44  1  0  0  0  0
 23 54  1  0  0  0  0
 24 45  1  0  0  0  0
 25 57  1  0  0  0  0
 26 71  1  0  0  0  0
 27 85  1  0  0  0  0
 28 86  1  0  0  0  0
 29 31  2  0  0  0  0
 29 85  1  0  0  0  0
 30 87  1  0  0  0  0
 31 88  1  0  0  0  0
 32 68  2  0  0  0  0
 33 70  1  0  0  0  0
 33 74  1  0  0  0  0
 34 35  2  0  0  0  0
 34 36  1  0  0  0  0
 34 64  1  0  0  0  0
 35 58  1  0  0  0  0
 35 71  1  0  0  0  0
 36 46  1  0  0  0  0
 36 79  2  0  0  0  0
 37 39  1  0  0  0  0
 37 69  2  0  0  0  0
 38 75  1  0  0  0  0
 38 80  2  0  0  0  0
 39 72  1  0  0  0  0
 39 81  2  0  0  0  0
 40 55  1  0  0  0  0
 40 76  1  0  0  0  0
 40 82  2  0  0  0  0
 41 65  1  0  0  0  0
 41 73  1  0  0  0  0
 41 83  2  0  0  0  0
 42 66  1  0  0  0  0
 42 77  1  0  0  0  0
 42 84  2  0  0  0  0
 43 47  1  0  0  0  0
 44 55  1  0  0  0  0
 45 73  1  0  0  0  0
 46 51  1  0  0  0  0
 47 49  1  0  0  0  0
 48 50  1  0  0  0  0
 48 52  1  0  0  0  0
 49 54  1  0  0  0  0
 50 56  1  0  0  0  0
 51 71  1  0  0  0  0
 52 72  1  0  0  0  0
 53 56  1  0  0  0  0
 53 72  1  0  0  0  0
 54 76  1  0  0  0  0
 55 73  1  0  0  0  0
 56 70  1  0  0  0  0
 59 66  1  0  0  0  0
 60 67  1  0  0  0  0
 61 67  1  0  0  0  0
 62 67  1  0  0  0  0
 63 78  1  0  0  0  0
 64 86  1  0  0  0  0
 65 67  1  0  0  0  0
 65 77  1  0  0  0  0
 66 78  1  0  0  0  0
 68 70  1  0  0  0  0
M  CHG  1  78   1
M  ISO  4  37 100  39 100  64 101  86 101
M  END
> <Batch ID>
0109

> <Smiles>
CNC(C)C(=O)NC(C(=O)N1Cc2cc([101O:1][101CH2:1]C3=C(C)N(c4ccc([100C:0](=N)[100C:0](=O)N5CCCC(n6nc(-c7ccc(Oc8ccc(F)cc8F)cc7)c(C(N)=O)c6N)C5)c(C)c4)CCC3=O)ccc2CC1C(=O)NC1CCCc2ccccc21)C(C)(C)C

> <Shape>
0.222

> <Color>
0.055

> <Negative vol penalty>
0.000

$$$$

  -OEChem-04052301233D

 88 97  0     1  0  0  0  0  0999 V2000
  -16.9898  -28.9392   24.5343 C   0  0  0  0  0  0  0  0  0  0  0  0
  -17.7355  -27.8833   24.0202 C   0  0  0  0  0  0  0  0  0  0  0  0
  -25.5611  -16.6293   23.0072 C   0  0  0  0  0  0  0  0  0  0  0  0
  -23.1633  -10.3139   21.6176 C   0  0  0  0  0  0  0  0  0  0  0  0
  -24.7393   -8.4882   21.4756 C   0  0  0  0  0  0  0  0  0  0  0  0
  -17.2068  -30.2357   24.0694 C   0  0  0  0  0  0  0  0  0  0  0  0
  -18.6979  -28.1231   23.0399 C   0  0  0  0  0  0  0  0  0  0  0  0
  -23.0403  -25.6787   23.9417 C   0  0  0  0  0  0  0  0  0  0  0  0
  -24.5436  -16.8683   22.0836 C   0  0  0  0  0  0  0  0  0  0  0  0
  -26.8882  -16.5661   22.5822 C   0  0  0  0  0  0  0  0  0  0  0  0
  -22.1068   -9.4115   21.4951 C   0  0  0  0  0  0  0  0  0  0  0  0
  -23.6828   -7.5857   21.3532 C   0  0  0  0  0  0  0  0  0  0  0  0
  -23.0803  -24.3186   23.6380 C   0  0  0  0  0  0  0  0  0  0  0  0
  -20.4489   -7.2331   23.4798 C   0  0  0  0  0  0  0  0  0  0  0  0
  -19.3644   -7.3835   24.3441 C   0  0  0  0  0  0  0  0  0  0  0  0
  -24.2209  -24.8195   21.5722 C   0  0  0  0  0  0  0  0  0  0  0  0
  -26.1802  -16.9805   20.3098 C   0  0  0  0  0  0  0  0  0  0  0  0
  -17.8988   -7.7010   22.4498 C   0  0  0  0  0  0  0  0  0  0  0  0
  -24.4796   -9.8523   21.6077 C   0  0  0  0  0  0  0  0  0  0  0  0
  -26.1840  -11.2200   22.9237 C   0  0  0  0  0  0  0  0  0  0  0  0
  -18.1789  -30.4928   23.0899 C   0  0  0  0  0  0  0  0  0  0  0  0
  -23.5815  -26.6219   23.0563 C   0  0  0  0  0  0  0  0  0  0  0  0
  -18.9270  -29.4240   22.5605 C   0  0  0  0  0  0  0  0  0  0  0  0
  -24.1888  -26.1908   21.8682 C   0  0  0  0  0  0  0  0  0  0  0  0
  -24.8531  -17.0438   20.7349 C   0  0  0  0  0  0  0  0  0  0  0  0
  -27.1977  -16.7416   21.2335 C   0  0  0  0  0  0  0  0  0  0  0  0
  -22.3665   -8.0474   21.3630 C   0  0  0  0  0  0  0  0  0  0  0  0
  -23.6681  -23.8890   22.4518 C   0  0  0  0  0  0  0  0  0  0  0  0
  -20.2583   -7.3168   22.1005 C   0  0  0  0  0  0  0  0  0  0  0  0
  -18.0894   -7.6174   23.8291 C   0  0  0  0  0  0  0  0  0  0  0  0
  -18.9833   -7.5507   21.5855 C   0  0  0  0  0  0  0  0  0  0  0  0
  -25.5714  -10.7840   21.7336 C   0  0  0  0  0  0  0  0  0  0  0  0
  -27.1593  -12.0931   22.5080 C   0  0  0  0  0  0  0  0  0  0  0  0
  -23.0571  -20.8490   20.6005 C   0  0  0  0  0  0  0  0  0  0  0  0
  -23.6593  -19.7595   20.0686 C   0  0  0  0  0  0  0  0  0  0  0  0
  -21.6418  -18.3711   20.3717 C   0  0  0  0  0  0  0  0  0  0  0  0
  -25.8971  -10.8672   24.2835 C   0  0  0  0  0  0  0  0  0  0  0  0
  -22.4121  -29.0614   21.3875 C   0  0  0  0  0  0  0  0  0  0  0  0
  -25.5362  -29.5654   20.6745 C   0  0  0  0  0  0  0  0  0  0  0  0
  -28.6825  -28.2790   20.3702 C   0  0  0  0  0  0  0  0  0  0  0  0
  -28.9050  -16.2288   19.4975 C   0  0  0  0  0  0  0  0  0  0  0  0
  -18.3447  -31.9041   22.5845 C   0  0  0  0  0  0  0  0  0  0  0  0
  -23.5543  -28.0833   23.4110 C   0  0  0  0  0  0  0  0  0  0  0  0
  -24.8022  -27.1615   20.8936 C   0  0  0  0  0  0  0  0  0  0  0  0
  -21.6575  -20.7592   21.1456 C   0  0  0  0  0  0  0  0  0  0  0  0
  -20.8661  -19.6625   20.4679 C   0  0  0  0  0  0  0  0  0  0  0  0
  -19.6436  -32.1266   21.8140 C   0  0  0  0  0  0  0  0  0  0  0  0
  -28.9834  -13.0542   17.8979 C   0  0  0  0  0  0  0  0  0  0  0  0
  -19.8666  -31.0021   20.8077 C   0  0  0  0  0  0  0  0  0  0  0  0
  -28.1374  -12.2124   18.8524 C   0  0  0  0  0  0  0  0  0  0  0  0
  -28.4195  -14.4650   17.7256 C   0  0  0  0  0  0  0  0  0  0  0  0
  -27.3554  -14.3433   19.9566 C   0  0  0  0  0  0  0  0  0  0  0  0
  -19.9972  -29.6474   21.5142 C   0  0  1  0  0  0  0  0  0  0  0  0
  -23.6777  -28.9959   22.1947 C   0  0  1  0  0  0  0  0  0  0  0  0
  -27.9309  -12.9383   20.1936 C   0  0  1  0  0  0  0  0  0  0  0  0
  -25.0571  -19.8060   19.4960 C   0  0  0  0  0  0  0  0  0  0  0  0
  -31.0220  -28.9257   19.7331 C   0  0  0  0  0  0  0  0  0  0  0  0
  -24.7388  -29.5394   17.7294 C   0  0  0  0  0  0  0  0  0  0  0  0
  -27.1550  -29.2324   17.1498 C   0  0  0  0  0  0  0  0  0  0  0  0
  -26.4122  -31.2941   18.3416 C   0  0  0  0  0  0  0  0  0  0  0  0
  -29.6024  -17.3105   21.6233 C   0  0  0  0  0  0  0  0  0  0  0  0
  -29.7263  -27.5951   23.0538 C   0  0  0  0  0  0  0  0  0  0  0  0
  -23.7575  -17.3010   19.7410 C   0  0  0  0  0  0  0  0  0  0  0  0
  -23.6849  -22.2068   20.7707 C   0  0  0  0  0  0  0  0  0  1  0  0
  -26.4742  -29.0958   19.5888 C   0  0  1  0  0  0  0  0  0  0  0  0
  -30.0264  -28.7748   20.8728 C   0  0  2  0  0  0  0  0  0  0  0  0
  -26.1818  -29.7721   18.2196 C   0  0  0  0  0  0  0  0  0  0  0  0
  -26.1121  -11.3349   20.6436 N   0  0  0  0  0  0  0  0  0  0  0  0
  -27.0747  -12.1260   21.1471 N   0  0  0  0  0  0  0  0  0  0  0  0
  -23.0031  -18.5147   20.0591 N   0  0  0  0  0  0  0  0  0  0  0  0
  -24.7450  -28.5803   21.2823 N   0  0  0  0  0  0  0  0  0  0  0  0
  -28.2013  -15.1020   19.0320 N   0  0  0  0  0  0  0  0  0  0  0  0
  -28.0725  -12.8283   23.1774 N   0  0  0  0  0  0  0  0  0  0  0  0
  -24.8623   -9.9556   24.5331 N   0  0  0  0  0  0  0  0  0  0  0  0
  -21.3139  -29.5068   22.0982 N   0  0  0  0  0  0  0  0  0  0  0  0
  -27.8252  -29.3222   20.0907 N   0  0  0  0  0  0  0  0  0  0  0  0
  -28.5717  -16.6767   20.7939 N   0  0  0  0  0  0  0  0  0  0  0  0
  -30.5918  -27.8200   21.8675 N   0  3  0  0  0  0  0  0  0  0  0  0
  -21.0492  -17.2954   20.4749 O   0  0  0  0  0  0  0  0  0  0  0  0
  -26.5286  -11.3588   25.2495 O   0  0  0  0  0  0  0  0  0  0  0  0
  -22.4308  -28.7336   20.2069 O   0  0  0  0  0  0  0  0  0  0  0  0
  -25.5116  -30.7610   20.9770 O   0  0  0  0  0  0  0  0  0  0  0  0
  -28.4208  -27.0857   20.2354 O   0  0  0  0  0  0  0  0  0  0  0  0
  -29.7817  -16.7766   18.8184 O   0  0  0  0  0  0  0  0  0  0  0  0
  -21.3358   -7.1665   21.2437 O   0  0  0  0  0  0  0  0  0  0  0  0
  -23.7078  -22.5620   22.1526 O   0  0  0  0  0  0  0  0  0  1  0  0
  -17.0479   -7.7603   24.6591 F   0  0  0  0  0  0  0  0  0  0  0  0
  -18.7938   -7.6309   20.2613 F   0  0  0  0  0  0  0  0  0  0  0  0
  1  2  1  0  0  0  0
  1  6  2  0  0  0  0
  2  7  2  0  0  0  0
  3  9  2  0  0  0  0
  3 10  1  0  0  0  0
  4 11  2  0  0  0  0
  4 19  1  0  0  0  0
  5 12  1  0  0  0  0
  5 19  2  0  0  0  0
  6 21  1  0  0  0  0
  7 23  1  0  0  0  0
  8 13  2  0  0  0  0
  8 22  1  0  0  0  0
  9 25  1  0  0  0  0
 10 26  2  0  0  0  0
 11 27  1  0  0  0  0
 12 27  2  0  0  0  0
 13 28  1  0  0  0  0
 14 15  2  0  0  0  0
 14 29  1  0  0  0  0
 15 30  1  0  0  0  0
 16 24  1  0  0  0  0
 16 28  2  0  0  0  0
 17 25  2  0  0  0  0
 17 26  1  0  0  0  0
 18 30  2  0  0  0  0
 18 31  1  0  0  0  0
 19 32  1  0  0  0  0
 20 32  1  0  0  0  0
 20 33  2  0  0  0  0
 20 37  1  0  0  0  0
 21 23  2  0  0  0  0
 21 42  1  0  0  0  0
 22 24  2  0  0  0  0
 22 43  1  0  0  0  0
 23 53  1  0  0  0  0
 24 44  1  0  0  0  0
 25 63  1  0  0  0  0
 26 77  1  0  0  0  0
 27 85  1  0  0  0  0
 28 86  1  0  0  0  0
 29 31  2  0  0  0  0
 29 85  1  0  0  0  0
 30 87  1  0  0  0  0
 31 88  1  0  0  0  0
 32 68  2  0  0  0  0
 33 69  1  0  0  0  0
 33 73  1  0  0  0  0
 34 35  2  0  0  0  0
 34 45  1  0  0  0  0
 34 64  1  0  0  0  0
 35 56  1  0  0  0  0
 35 70  1  0  0  0  0
 36 46  1  0  0  0  0
 36 70  1  0  0  0  0
 36 79  2  0  0  0  0
 37 74  1  0  0  0  0
 37 80  2  0  0  0  0
 38 54  1  0  0  0  0
 38 75  1  0  0  0  0
 38 81  2  0  0  0  0
 39 65  1  0  0  0  0
 39 71  1  0  0  0  0
 39 82  2  0  0  0  0
 40 66  1  0  0  0  0
 40 76  1  0  0  0  0
 40 83  2  0  0  0  0
 41 72  1  0  0  0  0
 41 77  1  0  0  0  0
 41 84  2  0  0  0  0
 42 47  1  0  0  0  0
 43 54  1  0  0  0  0
 44 71  1  0  0  0  0
 45 46  1  0  0  0  0
 47 49  1  0  0  0  0
 48 50  1  0  0  0  0
 48 51  1  0  0  0  0
 49 53  1  0  0  0  0
 50 55  1  0  0  0  0
 51 72  1  0  0  0  0
 52 55  1  0  0  0  0
 52 72  1  0  0  0  0
 53 75  1  0  0  0  0
 54 71  1  0  0  0  0
 55 69  1  0  0  0  0
 57 66  1  0  0  0  0
 58 67  1  0  0  0  0
 59 67  1  0  0  0  0
 60 67  1  0  0  0  0
 61 77  1  0  0  0  0
 62 78  1  0  0  0  0
 63 70  1  0  0  0  0
 64 86  1  0  0  0  0
 65 67  1  0  0  0  0
 65 76  1  0  0  0  0
 66 78  1  0  0  0  0
 68 69  1  0  0  0  0
M  CHG  1  78   1
M  ISO  4  41 100  64 101  77 100  86 101
M  END
> <Batch ID>
0109

> <Smiles>
CNC(C)C(=O)NC(C(=O)N1Cc2cc([101O:1][101CH2:1]C3=C(C)N(Cc4cccc([100N:0](C)[100C:0](=O)N5CCCC(n6nc(-c7ccc(Oc8ccc(F)cc8F)cc7)c(C(N)=O)c6N)C5)c4)C(=O)CC3)ccc2CC1C(=O)NC1CCCc2ccccc21)C(C)(C)C

> <Shape>
0.206

> <Color>
0.108

> <Negative vol penalty>
0.000

$$$$

  -OEChem-04052301233D

 90 99  0     1  0  0  0  0  0999 V2000
  -29.0527  -22.9455   28.4829 C   0  0  0  0  0  0  0  0  0  0  0  0
  -29.0809  -23.2653   27.1293 C   0  0  0  0  0  0  0  0  0  0  0  0
  -23.5502  -11.6255   20.1383 C   0  0  0  0  0  0  0  0  0  0  0  0
  -25.5138  -11.6029   21.5458 C   0  0  0  0  0  0  0  0  0  0  0  0
  -27.8321  -22.8475   29.1496 C   0  0  0  0  0  0  0  0  0  0  0  0
  -27.8884  -23.4863   26.4412 C   0  0  0  0  0  0  0  0  0  0  0  0
  -28.0971  -27.5702   23.4541 C   0  0  0  0  0  0  0  0  0  0  0  0
  -23.5179  -10.2313   20.1609 C   0  0  0  0  0  0  0  0  0  0  0  0
  -25.4814  -10.2086   21.5685 C   0  0  0  0  0  0  0  0  0  0  0  0
  -28.7655  -27.4360   22.2379 C   0  0  0  0  0  0  0  0  0  0  0  0
  -22.7061   -6.6879   20.1443 C   0  0  0  0  0  0  0  0  0  0  0  0
  -21.4727   -6.0711   20.3541 C   0  0  0  0  0  0  0  0  0  0  0  0
  -30.1476  -23.1219   19.8064 C   0  0  0  0  0  0  0  0  0  0  0  0
  -26.6489  -27.1762   21.1102 C   0  0  0  0  0  0  0  0  0  0  0  0
  -32.5008  -22.8112   19.3561 C   0  0  0  0  0  0  0  0  0  0  0  0
  -21.2827   -7.1789   22.4928 C   0  0  0  0  0  0  0  0  0  0  0  0
  -24.5482  -12.3114   20.8307 C   0  0  0  0  0  0  0  0  0  0  0  0
  -30.0921  -21.8563   20.3901 C   0  0  0  0  0  0  0  0  0  0  0  0
  -23.5809  -14.6332   21.2561 C   0  0  0  0  0  0  0  0  0  0  0  0
  -26.6245  -23.0770   28.4717 C   0  0  0  0  0  0  0  0  0  0  0  0
  -26.6978  -27.4974   23.5090 C   0  0  0  0  0  0  0  0  0  0  0  0
  -26.6504  -23.3901   27.0992 C   0  0  0  0  0  0  0  0  0  0  0  0
  -25.9650  -27.3124   22.3280 C   0  0  0  0  0  0  0  0  0  0  0  0
  -31.2410  -21.0681   20.4569 C   0  0  0  0  0  0  0  0  0  0  0  0
  -31.3519  -23.5993   19.2893 C   0  0  0  0  0  0  0  0  0  0  0  0
  -24.4834   -9.5228   20.8760 C   0  0  0  0  0  0  0  0  0  0  0  0
  -28.0415  -27.2361   21.0662 C   0  0  0  0  0  0  0  0  0  0  0  0
  -23.2278   -7.5501   21.1087 C   0  0  0  0  0  0  0  0  0  0  0  0
  -20.7610   -6.3166   21.5283 C   0  0  0  0  0  0  0  0  0  0  0  0
  -32.4454  -21.5456   19.9399 C   0  0  0  0  0  0  0  0  0  0  0  0
  -22.5161   -7.7956   22.2829 C   0  0  0  0  0  0  0  0  0  0  0  0
  -24.5825  -13.7516   20.8073 C   0  0  0  0  0  0  0  0  0  0  0  0
  -24.0932  -15.8850   21.0173 C   0  0  0  0  0  0  0  0  0  0  0  0
  -32.5522  -25.5077   18.1289 C   0  0  0  0  0  0  0  0  0  0  0  0
  -28.8195  -21.3858   20.9212 C   0  0  0  0  0  0  0  0  0  0  0  0
  -28.1149  -21.9680   21.9159 C   0  0  0  0  0  0  0  0  0  0  0  0
  -22.3019  -14.3462   21.8369 C   0  0  0  0  0  0  0  0  0  0  0  0
  -24.6059  -25.5662   24.9226 C   0  0  0  0  0  0  0  0  0  0  0  0
  -22.4507  -27.7069   23.7848 C   0  0  0  0  0  0  0  0  0  0  0  0
  -21.6929  -30.1117   21.4850 C   0  0  0  0  0  0  0  0  0  0  0  0
  -29.4807  -17.9997   20.6851 C   0  0  0  0  0  0  0  0  0  0  0  0
  -25.3274  -22.9132   29.2236 C   0  0  0  0  0  0  0  0  0  0  0  0
  -25.9905  -27.6708   24.8251 C   0  0  0  0  0  0  0  0  0  0  0  0
  -24.4603  -27.2471   22.3303 C   0  0  0  0  0  0  0  0  0  0  0  0
  -32.1350  -26.8603   17.6017 C   0  0  0  0  0  0  0  0  0  0  0  0
  -24.1274  -23.5303   28.5098 C   0  0  0  0  0  0  0  0  0  0  0  0
  -30.6273  -26.7432   17.4828 C   0  0  0  0  0  0  0  0  0  0  0  0
  -27.0718  -18.2309   18.1129 C   0  0  0  0  0  0  0  0  0  0  0  0
  -24.1247  -23.1398   27.0352 C   0  0  0  0  0  0  0  0  0  0  0  0
  -26.0559  -17.1784   18.5542 C   0  0  0  0  0  0  0  0  0  0  0  0
  -28.5125  -17.7740   18.3499 C   0  0  0  0  0  0  0  0  0  0  0  0
  -27.7651  -16.2866   20.1806 C   0  0  0  0  0  0  0  0  0  0  0  0
  -25.3793  -23.6613   26.3241 C   0  0  1  0  0  0  0  0  0  0  0  0
  -24.5899  -27.0661   24.8349 C   0  0  1  0  0  0  0  0  0  0  0  0
  -26.3088  -16.7454   20.0088 C   0  0  2  0  0  0  0  0  0  0  0  0
  -30.2494  -25.7812   18.6036 C   0  0  2  0  0  0  0  0  0  0  0  0
  -26.8156  -21.4439   22.4355 C   0  0  0  0  0  0  0  0  0  0  0  0
  -19.8413  -31.6539   20.7845 C   0  0  0  0  0  0  0  0  0  0  0  0
  -20.9849  -25.3595   22.5000 C   0  0  0  0  0  0  0  0  0  0  0  0
  -19.7489  -27.0031   21.0720 C   0  0  0  0  0  0  0  0  0  0  0  0
  -19.4946  -27.0699   23.5526 C   0  0  0  0  0  0  0  0  0  0  0  0
  -31.3423  -18.3653   19.0101 C   0  0  0  0  0  0  0  0  0  0  0  0
  -23.3433  -32.5143   21.9978 C   0  0  0  0  0  0  0  0  0  0  0  0
  -31.2153  -19.7075   21.0761 C   0  0  0  0  0  0  0  0  0  0  0  0
  -29.9990  -26.5336   19.9125 C   0  0  0  0  0  0  0  0  0  1  0  0
  -21.6598  -27.8516   22.5071 C   0  0  1  0  0  0  0  0  0  0  0  0
  -21.0908  -31.4970   21.6371 C   0  0  2  0  0  0  0  0  0  0  0  0
  -20.5005  -26.8202   22.4078 C   0  0  0  0  0  0  0  0  0  0  0  0
  -25.6502  -14.3893   20.3201 N   0  0  0  0  0  0  0  0  0  0  0  0
  -25.3224  -15.6850   20.4614 N   0  0  0  0  0  0  0  0  0  0  0  0
  -31.4095  -24.8986   18.6898 N   0  0  0  0  0  0  0  0  0  0  0  0
  -23.8149  -27.4158   23.6428 N   0  0  0  0  0  0  0  0  0  0  0  0
  -28.6981  -17.3250   19.7365 N   0  0  0  0  0  0  0  0  0  0  0  0
  -23.6075  -17.1264   21.2307 N   0  0  0  0  0  0  0  0  0  0  0  0
  -21.9330  -13.0054   22.0114 N   0  0  0  0  0  0  0  0  0  0  0  0
  -25.2497  -25.0749   26.0423 N   0  0  0  0  0  0  0  0  0  0  0  0
  -21.2275  -29.2438   22.4500 N   0  0  0  0  0  0  0  0  0  0  0  0
  -30.5866  -18.7203   20.2097 N   0  0  0  0  0  0  0  0  0  0  0  0
  -22.0748  -32.5376   21.2249 N   0  3  0  0  0  0  0  0  0  0  0  0
  -33.7069  -25.1116   18.0626 O   0  0  0  0  0  0  0  0  0  0  0  0
  -21.5028  -15.2519   22.1757 O   0  0  0  0  0  0  0  0  0  0  0  0
  -24.0724  -24.9036   24.0404 O   0  0  0  0  0  0  0  0  0  0  0  0
  -21.8807  -27.8541   24.8688 O   0  0  0  0  0  0  0  0  0  0  0  0
  -22.4930  -29.8271   20.5965 O   0  0  0  0  0  0  0  0  0  0  0  0
  -29.2119  -17.9548   21.8925 O   0  0  0  0  0  0  0  0  0  0  0  0
  -24.4520   -8.1622   20.8985 O   0  0  0  0  0  0  0  0  0  0  0  0
  -28.6915  -27.1042   19.8778 O   0  0  0  0  0  0  0  0  0  1  0  0
  -19.5759   -5.7255   21.7291 F   0  0  0  0  0  0  0  0  0  0  0  0
  -33.5555  -20.7965   19.9988 F   0  0  0  0  0  0  0  0  0  0  0  0
  -23.0116   -8.6239   23.2125 F   0  0  0  0  0  0  0  0  0  0  0  0
  1  2  1  0  0  0  0
  1  5  2  0  0  0  0
  2  6  2  0  0  0  0
  3  8  2  0  0  0  0
  3 17  1  0  0  0  0
  4  9  1  0  0  0  0
  4 17  2  0  0  0  0
  5 20  1  0  0  0  0
  6 22  1  0  0  0  0
  7 10  2  0  0  0  0
  7 21  1  0  0  0  0
  8 26  1  0  0  0  0
  9 26  2  0  0  0  0
 10 27  1  0  0  0  0
 11 12  2  0  0  0  0
 11 28  1  0  0  0  0
 12 29  1  0  0  0  0
 13 18  1  0  0  0  0
 13 25  2  0  0  0  0
 14 23  1  0  0  0  0
 14 27  2  0  0  0  0
 15 25  1  0  0  0  0
 15 30  2  0  0  0  0
 16 29  2  0  0  0  0
 16 31  1  0  0  0  0
 17 32  1  0  0  0  0
 18 24  2  0  0  0  0
 18 35  1  0  0  0  0
 19 32  1  0  0  0  0
 19 33  2  0  0  0  0
 19 37  1  0  0  0  0
 20 22  2  0  0  0  0
 20 42  1  0  0  0  0
 21 23  2  0  0  0  0
 21 43  1  0  0  0  0
 22 53  1  0  0  0  0
 23 44  1  0  0  0  0
 24 30  1  0  0  0  0
 24 64  1  0  0  0  0
 25 71  1  0  0  0  0
 26 86  1  0  0  0  0
 27 87  1  0  0  0  0
 28 31  2  0  0  0  0
 28 86  1  0  0  0  0
 29 88  1  0  0  0  0
 30 89  1  0  0  0  0
 31 90  1  0  0  0  0
 32 69  2  0  0  0  0
 33 70  1  0  0  0  0
 33 74  1  0  0  0  0
 34 45  1  0  0  0  0
 34 71  1  0  0  0  0
 34 80  2  0  0  0  0
 35 36  2  0  0  0  0
 36 57  1  0  0  0  0
 37 75  1  0  0  0  0
 37 81  2  0  0  0  0
 38 54  1  0  0  0  0
 38 76  1  0  0  0  0
 38 82  2  0  0  0  0
 39 66  1  0  0  0  0
 39 72  1  0  0  0  0
 39 83  2  0  0  0  0
 40 67  1  0  0  0  0
 40 77  1  0  0  0  0
 40 84  2  0  0  0  0
 41 73  1  0  0  0  0
 41 78  1  0  0  0  0
 41 85  2  0  0  0  0
 42 46  1  0  0  0  0
 43 54  1  0  0  0  0
 44 72  1  0  0  0  0
 45 47  1  0  0  0  0
 46 49  1  0  0  0  0
 47 56  1  0  0  0  0
 48 50  1  0  0  0  0
 48 51  1  0  0  0  0
 49 53  1  0  0  0  0
 50 55  1  0  0  0  0
 51 73  1  0  0  0  0
 52 55  1  0  0  0  0
 52 73  1  0  0  0  0
 53 76  1  0  0  0  0
 54 72  1  0  0  0  0
 55 70  1  0  0  0  0
 56 65  1  0  0  0  0
 56 71  1  0  0  0  0
 58 67  1  0  0  0  0
 59 68  1  0  0  0  0
 60 68  1  0  0  0  0
 61 68  1  0  0  0  0
 62 78  1  0  0  0  0
 63 79  1  0  0  0  0
 64 78  1  0  0  0  0
 65 87  1  0  0  0  0
 66 68  1  0  0  0  0
 66 77  1  0  0  0  0
 67 79  1  0  0  0  0
 69 70  1  0  0  0  0
M  CHG  1  79   1
M  ISO  4  41 100  65 101  78 100  87 101
M  END
> <Batch ID>
0109

> <Smiles>
CC=Cc1cc(N2C(=O)CCC2[101CH2:1][101O:1]c2ccc3c(c2)CN(C(=O)C(NC(=O)C(C)NC)C(C)(C)C)C(C(=O)NC2CCCc4ccccc42)C3)cc(F)c1C[100N:0](C)[100C:0](=O)N1CCCC(n2nc(-c3ccc(Oc4ccc(F)cc4F)cc3)c(C(N)=O)c2N)C1

> <Shape>
0.246

> <Color>
0.062

> <Negative vol penalty>
0.000

$$$$

  -OEChem-04052301233D

 90 99  0     1  0  0  0  0  0999 V2000
  -24.1894  -30.5331   29.0261 C   0  0  0  0  0  0  0  0  0  0  0  0
  -23.4734  -29.4443   28.5389 C   0  0  0  0  0  0  0  0  0  0  0  0
  -25.0847  -10.1205   23.2964 C   0  0  0  0  0  0  0  0  0  0  0  0
  -24.2742   -9.2943   21.1756 C   0  0  0  0  0  0  0  0  0  0  0  0
  -24.8774  -31.3649   28.1437 C   0  0  0  0  0  0  0  0  0  0  0  0
  -23.4443  -29.1873   27.1686 C   0  0  0  0  0  0  0  0  0  0  0  0
  -25.7832  -22.9088   24.5227 C   0  0  0  0  0  0  0  0  0  0  0  0
  -31.7087  -15.2789   22.1095 C   0  0  0  0  0  0  0  0  0  0  0  0
  -24.7452   -8.9089   23.8982 C   0  0  0  0  0  0  0  0  0  0  0  0
  -23.9347   -8.0826   21.7775 C   0  0  0  0  0  0  0  0  0  0  0  0
  -26.0160  -21.6540   23.9592 C   0  0  0  0  0  0  0  0  0  0  0  0
  -31.1722  -16.4834   21.6548 C   0  0  0  0  0  0  0  0  0  0  0  0
  -21.4385   -6.8746   23.7115 C   0  0  0  0  0  0  0  0  0  0  0  0
  -20.1922   -6.3268   23.4077 C   0  0  0  0  0  0  0  0  0  0  0  0
  -30.6050  -15.4371   19.5523 C   0  0  0  0  0  0  0  0  0  0  0  0
  -25.5679  -22.5480   21.7573 C   0  0  0  0  0  0  0  0  0  0  0  0
  -21.2740   -4.3546   22.5262 C   0  0  0  0  0  0  0  0  0  0  0  0
  -24.8491  -10.3133   21.9351 C   0  0  0  0  0  0  0  0  0  0  0  0
  -31.1415  -14.2325   20.0071 C   0  0  0  0  0  0  0  0  0  0  0  0
  -24.7092  -12.8433   21.6406 C   0  0  0  0  0  0  0  0  0  0  0  0
  -24.8645  -31.1123   26.7628 C   0  0  0  0  0  0  0  0  0  0  0  0
  -25.4566  -23.9927   23.7031 C   0  0  0  0  0  0  0  0  0  0  0  0
  -24.1317  -30.0173   26.2668 C   0  0  0  0  0  0  0  0  0  0  0  0
  -25.3459  -23.8100   22.3149 C   0  0  0  0  0  0  0  0  0  0  0  0
  -31.6934  -14.1534   21.2857 C   0  0  0  0  0  0  0  0  0  0  0  0
  -24.1702   -7.8899   23.1388 C   0  0  0  0  0  0  0  0  0  0  0  0
  -30.6203  -16.5626   20.3762 C   0  0  0  0  0  0  0  0  0  0  0  0
  -25.9083  -21.4741   22.5799 C   0  0  0  0  0  0  0  0  0  0  0  0
  -22.6025   -6.1624   23.4227 C   0  0  0  0  0  0  0  0  0  0  0  0
  -20.1100   -5.0668   22.8151 C   0  0  0  0  0  0  0  0  0  0  0  0
  -22.5203   -4.9024   22.8301 C   0  0  0  0  0  0  0  0  0  0  0  0
  -25.1990  -11.5649   21.3129 C   0  0  0  0  0  0  0  0  0  0  0  0
  -25.3456  -13.6895   20.7657 C   0  0  0  0  0  0  0  0  0  0  0  0
  -33.1096  -12.1679   24.3201 C   0  0  0  0  0  0  0  0  0  0  0  0
  -31.1117  -13.0751   19.1218 C   0  0  0  0  0  0  0  0  0  0  0  0
  -23.7634  -13.2313   22.6459 C   0  0  0  0  0  0  0  0  0  0  0  0
  -30.5269  -13.1607   17.7639 C   0  0  0  0  0  0  0  0  0  0  0  0
  -24.6300  -27.6454   23.4777 C   0  0  0  0  0  0  0  0  0  0  0  0
  -26.4773  -27.0024   21.1146 C   0  0  0  0  0  0  0  0  0  0  0  0
  -28.8578  -25.9769   18.8966 C   0  0  0  0  0  0  0  0  0  0  0  0
  -25.5846  -32.0668   25.8435 C   0  0  0  0  0  0  0  0  0  0  0  0
  -25.1372  -25.3482   24.2728 C   0  0  0  0  0  0  0  0  0  0  0  0
  -24.9582  -24.9968   21.4757 C   0  0  0  0  0  0  0  0  0  0  0  0
  -31.6306  -12.1464   23.9840 C   0  0  0  0  0  0  0  0  0  0  0  0
  -33.9910  -13.0448   23.4507 C   0  0  0  0  0  0  0  0  0  0  0  0
  -25.8110  -31.5079   24.4412 C   0  0  0  0  0  0  0  0  0  0  0  0
  -27.2768  -13.8187   16.3997 C   0  0  0  0  0  0  0  0  0  0  0  0
  -24.5327  -30.8683   23.9086 C   0  0  0  0  0  0  0  0  0  0  0  0
  -26.3303  -13.3946   17.5222 C   0  0  0  0  0  0  0  0  0  0  0  0
  -31.4343  -11.9696   22.4818 C   0  0  0  0  0  0  0  0  0  0  0  0
  -33.6814  -12.8219   21.9716 C   0  0  0  0  0  0  0  0  0  0  0  0
  -28.5195  -12.9355   16.3538 C   0  0  0  0  0  0  0  0  0  0  0  0
  -28.3201  -12.4507   18.7774 C   0  0  0  0  0  0  0  0  0  0  0  0
  -24.0964  -29.6912   24.7894 C   0  0  1  0  0  0  0  0  0  0  0  0
  -25.6009  -26.5063   23.3712 C   0  0  1  0  0  0  0  0  0  0  0  0
  -27.0661  -13.3373   18.8727 C   0  0  2  0  0  0  0  0  0  0  0  0
  -30.2676  -26.8098   16.9950 C   0  0  0  0  0  0  0  0  0  0  0  0
  -24.0485  -26.8966   19.2724 C   0  0  0  0  0  0  0  0  0  0  0  0
  -25.6187  -26.7856   17.3255 C   0  0  0  0  0  0  0  0  0  0  0  0
  -25.6227  -28.7856   18.8164 C   0  0  0  0  0  0  0  0  0  0  0  0
  -31.3688  -25.3946   20.3507 C   0  0  0  0  0  0  0  0  0  0  0  0
  -28.1131  -18.8735   19.1432 C   0  0  0  0  0  0  0  0  0  0  0  0
  -27.5352  -18.9793   20.5501 C   0  0  0  0  0  0  0  0  0  0  0  0
  -29.0219  -17.6600   18.9991 C   0  0  0  0  0  0  0  0  0  0  0  0
  -26.6610  -20.2154   20.7073 C   0  0  0  0  0  0  0  0  0  1  0  0
  -26.5840  -26.6062   19.6637 C   0  0  1  0  0  0  0  0  0  0  0  0
  -30.1906  -26.5837   18.4969 C   0  0  2  0  0  0  0  0  0  0  0  0
  -25.4699  -27.2492   18.7904 C   0  0  0  0  0  0  0  0  0  0  0  0
  -26.0787  -11.5917   20.3082 N   0  0  0  0  0  0  0  0  0  0  0  0
  -31.5896  -11.9088   19.4559 N   0  0  0  0  0  0  0  0  0  0  0  0
  -26.1465  -12.8973   19.9969 N   0  0  0  0  0  0  0  0  0  0  0  0
  -32.2355  -12.9617   21.7569 N   0  0  0  0  0  0  0  0  0  0  0  0
  -29.1730  -12.8742   17.6596 N   0  0  0  0  0  0  0  0  0  0  0  0
  -25.6806  -26.1937   21.9342 N   0  0  0  0  0  0  0  0  0  0  0  0
  -25.2926  -15.0265   20.5866 N   0  0  0  0  0  0  0  0  0  0  0  0
  -22.4042  -13.2673   22.3063 N   0  0  0  0  0  0  0  0  0  0  0  0
  -24.9039  -28.5235   24.5089 N   0  0  0  0  0  0  0  0  0  0  0  0
  -27.9403  -26.9449   19.2467 N   0  0  0  0  0  0  0  0  0  0  0  0
  -31.3097  -25.6835   18.8946 N   0  3  0  0  0  0  0  0  0  0  0  0
  -33.5525  -11.5937   25.3138 O   0  0  0  0  0  0  0  0  0  0  0  0
  -24.1150  -13.5530   23.8063 O   0  0  0  0  0  0  0  0  0  0  0  0
  -31.3052  -13.4766   16.8734 O   0  0  0  0  0  0  0  0  0  0  0  0
  -23.7011  -27.7239   22.6824 O   0  0  0  0  0  0  0  0  0  0  0  0
  -27.0784  -28.0044   21.5119 O   0  0  0  0  0  0  0  0  0  0  0  0
  -28.6500  -24.7656   18.8947 O   0  0  0  0  0  0  0  0  0  0  0  0
  -23.8391   -6.7073   23.7257 O   0  0  0  0  0  0  0  0  0  0  0  0
  -30.0927  -17.7461   19.9299 O   0  0  0  0  0  0  0  0  0  0  0  0
  -26.1413  -20.2475   22.0359 O   0  0  0  0  0  0  0  0  0  1  0  0
  -18.9131   -4.5402   22.5247 F   0  0  0  0  0  0  0  0  0  0  0  0
  -23.6351   -4.2129   22.5513 F   0  0  0  0  0  0  0  0  0  0  0  0
  1  2  1  0  0  0  0
  1  5  2  0  0  0  0
  2  6  2  0  0  0  0
  3  9  2  0  0  0  0
  3 18  1  0  0  0  0
  4 10  1  0  0  0  0
  4 18  2  0  0  0  0
  5 21  1  0  0  0  0
  6 23  1  0  0  0  0
  7 11  2  0  0  0  0
  7 22  1  0  0  0  0
  8 12  2  0  0  0  0
  8 25  1  0  0  0  0
  9 26  1  0  0  0  0
 10 26  2  0  0  0  0
 11 28  1  0  0  0  0
 12 27  1  0  0  0  0
 13 14  2  0  0  0  0
 13 29  1  0  0  0  0
 14 30  1  0  0  0  0
 15 19  1  0  0  0  0
 15 27  2  0  0  0  0
 16 24  1  0  0  0  0
 16 28  2  0  0  0  0
 17 30  2  0  0  0  0
 17 31  1  0  0  0  0
 18 32  1  0  0  0  0
 19 25  2  0  0  0  0
 19 35  1  0  0  0  0
 20 32  1  0  0  0  0
 20 33  2  0  0  0  0
 20 36  1  0  0  0  0
 21 23  2  0  0  0  0
 21 41  1  0  0  0  0
 22 24  2  0  0  0  0
 22 42  1  0  0  0  0
 23 54  1  0  0  0  0
 24 43  1  0  0  0  0
 25 72  1  0  0  0  0
 26 86  1  0  0  0  0
 27 87  1  0  0  0  0
 28 88  1  0  0  0  0
 29 31  2  0  0  0  0
 29 86  1  0  0  0  0
 30 89  1  0  0  0  0
 31 90  1  0  0  0  0
 32 69  2  0  0  0  0
 33 71  1  0  0  0  0
 33 75  1  0  0  0  0
 34 44  1  0  0  0  0
 34 45  1  0  0  0  0
 34 80  2  0  0  0  0
 35 37  1  0  0  0  0
 35 70  2  0  0  0  0
 36 76  1  0  0  0  0
 36 81  2  0  0  0  0
 37 73  1  0  0  0  0
 37 82  2  0  0  0  0
 38 55  1  0  0  0  0
 38 77  1  0  0  0  0
 38 83  2  0  0  0  0
 39 66  1  0  0  0  0
 39 74  1  0  0  0  0
 39 84  2  0  0  0  0
 40 67  1  0  0  0  0
 40 78  1  0  0  0  0
 40 85  2  0  0  0  0
 41 46  1  0  0  0  0
 42 55  1  0  0  0  0
 43 74  1  0  0  0  0
 44 50  1  0  0  0  0
 45 51  1  0  0  0  0
 46 48  1  0  0  0  0
 47 49  1  0  0  0  0
 47 52  1  0  0  0  0
 48 54  1  0  0  0  0
 49 56  1  0  0  0  0
 50 72  1  0  0  0  0
 51 72  1  0  0  0  0
 52 73  1  0  0  0  0
 53 56  1  0  0  0  0
 53 73  1  0  0  0  0
 54 77  1  0  0  0  0
 55 74  1  0  0  0  0
 56 71  1  0  0  0  0
 57 67  1  0  0  0  0
 58 68  1  0  0  0  0
 59 68  1  0  0  0  0
 60 68  1  0  0  0  0
 61 79  1  0  0  0  0
 62 63  1  0  0  0  0
 62 64  1  0  0  0  0
 63 65  1  0  0  0  0
 64 87  1  0  0  0  0
 65 88  1  0  0  0  0
 66 68  1  0  0  0  0
 66 78  1  0  0  0  0
 67 79  1  0  0  0  0
 69 71  1  0  0  0  0
M  CHG  1  79   1
M  ISO  4  35 100  37 100  65 101  88 101
M  END
> <Batch ID>
0109

> <Smiles>
CNC(C)C(=O)NC(C(=O)N1Cc2cc([101O:1][101CH2:1]CCCOc3ccc(N4CCC(=O)CC4)c([100C:0](=N)[100C:0](=O)N4CCCC(n5nc(-c6ccc(Oc7ccc(F)cc7F)cc6)c(C(N)=O)c5N)C4)c3)ccc2CC1C(=O)NC1CCCc2ccccc21)C(C)(C)C

> <Shape>
0.266

> <Color>
0.118

> <Negative vol penalty>
0.000

$$$$

  -OEChem-04052301233D

 90 99  0     1  0  0  0  0  0999 V2000
  -26.4365  -37.9453   18.9904 C   0  0  0  0  0  0  0  0  0  0  0  0
  -27.3047  -36.8583   19.0025 C   0  0  0  0  0  0  0  0  0  0  0  0
  -24.9669   -8.9967   22.0362 C   0  0  0  0  0  0  0  0  0  0  0  0
  -23.3316  -10.4566   21.0204 C   0  0  0  0  0  0  0  0  0  0  0  0
  -25.5233  -38.1182   20.0297 C   0  0  0  0  0  0  0  0  0  0  0  0
  -27.2609  -35.9441   20.0545 C   0  0  0  0  0  0  0  0  0  0  0  0
  -25.9655  -28.9614   18.8483 C   0  0  0  0  0  0  0  0  0  0  0  0
  -23.9493   -8.3348   22.7232 C   0  0  0  0  0  0  0  0  0  0  0  0
  -22.3140   -9.7947   21.7074 C   0  0  0  0  0  0  0  0  0  0  0  0
  -25.9327  -27.5772   18.6782 C   0  0  0  0  0  0  0  0  0  0  0  0
  -21.6088   -5.9883   22.0531 C   0  0  0  0  0  0  0  0  0  0  0  0
  -21.6401   -4.5940   22.0723 C   0  0  0  0  0  0  0  0  0  0  0  0
  -25.9991  -27.2702   21.0759 C   0  0  0  0  0  0  0  0  0  0  0  0
  -28.0613  -19.2597   18.7044 C   0  0  0  0  0  0  0  0  0  0  0  0
  -28.3458  -19.6399   21.0733 C   0  0  0  0  0  0  0  0  0  0  0  0
  -21.7769   -4.6302   24.4841 C   0  0  0  0  0  0  0  0  0  0  0  0
  -24.6580  -10.0577   21.1848 C   0  0  0  0  0  0  0  0  0  0  0  0
  -26.6138  -10.1852   19.5519 C   0  0  0  0  0  0  0  0  0  0  0  0
  -25.4618  -37.2004   21.0901 C   0  0  0  0  0  0  0  0  0  0  0  0
  -25.9997  -29.5063   20.1349 C   0  0  0  0  0  0  0  0  0  0  0  0
  -26.3470  -36.1057   21.1097 C   0  0  0  0  0  0  0  0  0  0  0  0
  -26.0195  -28.6562   21.2529 C   0  0  0  0  0  0  0  0  0  0  0  0
  -29.0525  -18.2791   18.7427 C   0  0  0  0  0  0  0  0  0  0  0  0
  -27.7080  -19.9402   19.8697 C   0  0  0  0  0  0  0  0  0  0  0  0
  -29.3370  -18.6593   21.1116 C   0  0  0  0  0  0  0  0  0  0  0  0
  -29.6904  -17.9788   19.9463 C   0  0  0  0  0  0  0  0  0  0  0  0
  -22.6228   -8.7338   22.5588 C   0  0  0  0  0  0  0  0  0  0  0  0
  -25.9497  -26.7337   19.7893 C   0  0  0  0  0  0  0  0  0  0  0  0
  -21.6616   -6.7037   23.2495 C   0  0  0  0  0  0  0  0  0  0  0  0
  -21.7242   -3.9149   23.2878 C   0  0  0  0  0  0  0  0  0  0  0  0
  -21.7456   -6.0246   24.4650 C   0  0  0  0  0  0  0  0  0  0  0  0
  -25.7088  -10.7422   20.4753 C   0  0  0  0  0  0  0  0  0  0  0  0
  -27.4035  -11.2406   19.1659 C   0  0  0  0  0  0  0  0  0  0  0  0
  -25.8458  -23.1246   20.4216 C   0  0  0  0  0  0  0  0  0  0  0  0
  -26.8844  -22.2886   20.1787 C   0  0  0  0  0  0  0  0  0  0  0  0
  -24.4553  -22.5606   20.3634 C   0  0  0  0  0  0  0  0  0  0  0  0
  -26.7301   -8.8347   19.0848 C   0  0  0  0  0  0  0  0  0  0  0  0
  -26.0740  -32.6025   22.2524 C   0  0  0  0  0  0  0  0  0  0  0  0
  -24.1841  -30.6216   23.6363 C   0  0  0  0  0  0  0  0  0  0  0  0
  -21.7064  -29.1243   25.4408 C   0  0  0  0  0  0  0  0  0  0  0  0
  -30.3986  -15.6110   20.2346 C   0  0  0  0  0  0  0  0  0  0  0  0
  -24.4901  -37.4550   22.2151 C   0  0  0  0  0  0  0  0  0  0  0  0
  -26.0980  -30.9901   20.3640 C   0  0  0  0  0  0  0  0  0  0  0  0
  -26.0915  -29.2862   22.6170 C   0  0  0  0  0  0  0  0  0  0  0  0
  -24.2884  -21.0719   20.1763 C   0  0  0  0  0  0  0  0  0  0  0  0
  -24.2527  -36.2359   23.1026 C   0  0  0  0  0  0  0  0  0  0  0  0
  -26.9032  -16.2027   19.9608 C   0  0  0  0  0  0  0  0  0  0  0  0
  -25.5785  -35.5776   23.4711 C   0  0  0  0  0  0  0  0  0  0  0  0
  -26.3500  -14.7788   20.0058 C   0  0  0  0  0  0  0  0  0  0  0  0
  -25.3996  -20.4833   19.3247 C   0  0  0  0  0  0  0  0  0  0  0  0
  -28.0749  -16.3924   20.9247 C   0  0  0  0  0  0  0  0  0  0  0  0
  -28.6112  -13.9800   20.7932 C   0  0  0  0  0  0  0  0  0  0  0  0
  -26.3131  -35.0789   22.2208 C   0  0  1  0  0  0  0  0  0  0  0  0
  -25.3386  -31.4587   21.6181 C   0  0  1  0  0  0  0  0  0  0  0  0
  -27.4693  -13.7445   19.7922 C   0  0  1  0  0  0  0  0  0  0  0  0
  -29.4090  -17.5676   17.4776 C   0  0  0  0  0  0  0  0  0  0  0  0
  -28.3016  -22.8281   20.1645 C   0  0  0  0  0  0  0  0  0  0  0  0
  -33.0025  -17.5922   20.6659 C   0  0  0  0  0  0  0  0  0  0  0  0
  -20.6992  -29.0726   27.7387 C   0  0  0  0  0  0  0  0  0  0  0  0
  -26.5475  -28.9698   24.6310 C   0  0  0  0  0  0  0  0  0  0  0  0
  -25.1051  -28.1711   26.5151 C   0  0  0  0  0  0  0  0  0  0  0  0
  -25.6377  -30.5983   26.2968 C   0  0  0  0  0  0  0  0  0  0  0  0
  -19.0745  -30.0287   24.4338 C   0  0  0  0  0  0  0  0  0  0  0  0
  -25.9331  -24.5778   20.7938 C   0  0  0  0  0  0  0  0  0  1  0  0
  -32.0616  -17.3104   19.5120 C   0  0  0  0  0  0  0  0  0  0  0  0
  -24.0276  -29.5311   24.6656 C   0  0  1  0  0  0  0  0  0  0  0  0
  -20.6376  -29.6977   26.3537 C   0  0  2  0  0  0  0  0  0  0  0  0
  -25.3214  -29.3138   25.5001 C   0  0  0  0  0  0  0  0  0  0  0  0
  -25.9046  -12.0498   20.6646 N   0  0  0  0  0  0  0  0  0  0  0  0
  -26.9417  -12.3233   19.8549 N   0  0  0  0  0  0  0  0  0  0  0  0
  -26.6997  -20.9377   19.8305 N   0  0  0  0  0  0  0  0  0  0  0  0
  -25.1933  -30.4497   22.6811 N   0  0  0  0  0  0  0  0  0  0  0  0
  -29.0981  -15.3592   20.7108 N   0  0  0  0  0  0  0  0  0  0  0  0
  -29.9692  -18.3725   22.3426 N   0  0  0  0  0  0  0  0  0  0  0  0
  -28.4409  -11.3388   18.3077 N   0  0  0  0  0  0  0  0  0  0  0  0
  -26.0015   -8.4554   17.9492 N   0  0  0  0  0  0  0  0  0  0  0  0
  -25.7272  -33.8421   21.7500 N   0  0  0  0  0  0  0  0  0  0  0  0
  -22.8564  -29.8848   25.4603 N   0  0  0  0  0  0  0  0  0  0  0  0
  -30.7161  -16.9629   19.9818 N   0  0  0  0  0  0  0  0  0  0  0  0
  -19.2827  -29.4482   25.7854 N   0  3  0  0  0  0  0  0  0  0  0  0
  -23.4734  -23.2860   20.5203 O   0  0  0  0  0  0  0  0  0  0  0  0
  -27.4458   -7.9849   19.6671 O   0  0  0  0  0  0  0  0  0  0  0  0
  -26.8949  -32.3782   23.1342 O   0  0  0  0  0  0  0  0  0  0  0  0
  -23.4369  -31.6031   23.6790 O   0  0  0  0  0  0  0  0  0  0  0  0
  -21.5393  -28.1018   24.7797 O   0  0  0  0  0  0  0  0  0  0  0  0
  -31.2214  -14.7017   20.0729 O   0  0  0  0  0  0  0  0  0  0  0  0
  -21.6296   -8.0879   23.2288 O   0  0  0  0  0  0  0  0  0  0  0  0
  -25.9130  -25.3834   19.6161 O   0  0  0  0  0  0  0  0  0  1  0  0
  -21.7527   -2.5759   23.3061 F   0  0  0  0  0  0  0  0  0  0  0  0
  -21.7955   -6.7063   25.6176 F   0  0  0  0  0  0  0  0  0  0  0  0
  1  2  1  0  0  0  0
  1  5  2  0  0  0  0
  2  6  2  0  0  0  0
  3  8  2  0  0  0  0
  3 17  1  0  0  0  0
  4  9  1  0  0  0  0
  4 17  2  0  0  0  0
  5 19  1  0  0  0  0
  6 21  1  0  0  0  0
  7 10  2  0  0  0  0
  7 20  1  0  0  0  0
  8 27  1  0  0  0  0
  9 27  2  0  0  0  0
 10 28  1  0  0  0  0
 11 12  2  0  0  0  0
 11 29  1  0  0  0  0
 12 30  1  0  0  0  0
 13 22  1  0  0  0  0
 13 28  2  0  0  0  0
 14 23  2  0  0  0  0
 14 24  1  0  0  0  0
 15 24  2  0  0  0  0
 15 25  1  0  0  0  0
 16 30  2  0  0  0  0
 16 31  1  0  0  0  0
 17 32  1  0  0  0  0
 18 32  1  0  0  0  0
 18 33  2  0  0  0  0
 18 37  1  0  0  0  0
 19 21  2  0  0  0  0
 19 42  1  0  0  0  0
 20 22  2  0  0  0  0
 20 43  1  0  0  0  0
 21 53  1  0  0  0  0
 22 44  1  0  0  0  0
 23 26  1  0  0  0  0
 23 56  1  0  0  0  0
 24 71  1  0  0  0  0
 25 26  2  0  0  0  0
 25 74  1  0  0  0  0
 26 79  1  0  0  0  0
 27 87  1  0  0  0  0
 28 88  1  0  0  0  0
 29 31  2  0  0  0  0
 29 87  1  0  0  0  0
 30 89  1  0  0  0  0
 31 90  1  0  0  0  0
 32 69  2  0  0  0  0
 33 70  1  0  0  0  0
 33 75  1  0  0  0  0
 34 35  2  0  0  0  0
 34 36  1  0  0  0  0
 34 64  1  0  0  0  0
 35 57  1  0  0  0  0
 35 71  1  0  0  0  0
 36 45  1  0  0  0  0
 36 81  2  0  0  0  0
 37 76  1  0  0  0  0
 37 82  2  0  0  0  0
 38 54  1  0  0  0  0
 38 77  1  0  0  0  0
 38 83  2  0  0  0  0
 39 66  1  0  0  0  0
 39 72  1  0  0  0  0
 39 84  2  0  0  0  0
 40 67  1  0  0  0  0
 40 78  1  0  0  0  0
 40 85  2  0  0  0  0
 41 73  1  0  0  0  0
 41 79  1  0  0  0  0
 41 86  2  0  0  0  0
 42 46  1  0  0  0  0
 43 54  1  0  0  0  0
 44 72  1  0  0  0  0
 45 50  1  0  0  0  0
 46 48  1  0  0  0  0
 47 49  1  0  0  0  0
 47 51  1  0  0  0  0
 48 53  1  0  0  0  0
 49 55  1  0  0  0  0
 50 71  1  0  0  0  0
 51 73  1  0  0  0  0
 52 55  1  0  0  0  0
 52 73  1  0  0  0  0
 53 77  1  0  0  0  0
 54 72  1  0  0  0  0
 55 70  1  0  0  0  0
 58 65  1  0  0  0  0
 59 67  1  0  0  0  0
 60 68  1  0  0  0  0
 61 68  1  0  0  0  0
 62 68  1  0  0  0  0
 63 80  1  0  0  0  0
 64 88  1  0  0  0  0
 65 79  1  0  0  0  0
 66 68  1  0  0  0  0
 66 78  1  0  0  0  0
 67 80  1  0  0  0  0
 69 70  1  0  0  0  0
M  CHG  1  80   1
M  ISO  4  41 100  64 101  79 100  88 101
M  END
> <Batch ID>
0109

> <Smiles>
CC[100N:0](c1c(C)cc(N2CCC(=O)C([101CH2:1][101O:1]c3ccc4c(c3)CN(C(=O)C(NC(=O)C(C)NC)C(C)(C)C)C(C(=O)NC3CCCc5ccccc53)C4)=C2C)cc1N)[100C:0](=O)N1CCCC(n2nc(-c3ccc(Oc4ccc(F)cc4F)cc3)c(C(N)=O)c2N)C1

> <Shape>
0.312

> <Color>
0.095

> <Negative vol penalty>
0.000

$$$$

  -OEChem-04052301233D

 89 97  0     1  0  0  0  0  0999 V2000
  -16.5495  -29.2203   23.3819 C   0  0  0  0  0  0  0  0  0  0  0  0
  -17.2047  -28.5963   22.3252 C   0  0  0  0  0  0  0  0  0  0  0  0
  -22.9044  -10.0304   19.9505 C   0  0  0  0  0  0  0  0  0  0  0  0
  -24.2370   -9.7213   21.9419 C   0  0  0  0  0  0  0  0  0  0  0  0
  -17.1692  -30.2660   24.0648 C   0  0  0  0  0  0  0  0  0  0  0  0
  -18.4797  -29.0184   21.9500 C   0  0  0  0  0  0  0  0  0  0  0  0
  -21.6432  -25.1505   21.1275 C   0  0  0  0  0  0  0  0  0  0  0  0
  -22.2401   -8.8314   20.2089 C   0  0  0  0  0  0  0  0  0  0  0  0
  -23.5727   -8.5223   22.2004 C   0  0  0  0  0  0  0  0  0  0  0  0
  -21.5187  -24.4729   19.9154 C   0  0  0  0  0  0  0  0  0  0  0  0
  -20.6063   -7.5488   23.4937 C   0  0  0  0  0  0  0  0  0  0  0  0
  -20.1811   -7.3140   24.8013 C   0  0  0  0  0  0  0  0  0  0  0  0
  -25.0957  -18.1719   15.6520 C   0  0  0  0  0  0  0  0  0  0  0  0
  -23.3939  -25.7108   19.0378 C   0  0  0  0  0  0  0  0  0  0  0  0
  -21.5524   -5.3268   24.8903 C   0  0  0  0  0  0  0  0  0  0  0  0
  -23.9029  -10.4753   20.8170 C   0  0  0  0  0  0  0  0  0  0  0  0
  -26.2837  -18.5799   16.2583 C   0  0  0  0  0  0  0  0  0  0  0  0
  -24.2267  -12.9996   20.9931 C   0  0  0  0  0  0  0  0  0  0  0  0
  -18.4563  -30.6948   23.7041 C   0  0  0  0  0  0  0  0  0  0  0  0
  -22.6387  -26.1228   21.3004 C   0  0  0  0  0  0  0  0  0  0  0  0
  -19.1166  -30.0718   22.6279 C   0  0  0  0  0  0  0  0  0  0  0  0
  -23.5305  -26.3975   20.2538 C   0  0  0  0  0  0  0  0  0  0  0  0
  -26.3050  -19.7301   17.0472 C   0  0  0  0  0  0  0  0  0  0  0  0
  -23.9288  -18.9141   15.8345 C   0  0  0  0  0  0  0  0  0  0  0  0
  -22.5743   -8.0774   21.3338 C   0  0  0  0  0  0  0  0  0  0  0  0
  -22.3924  -24.7550   18.8694 C   0  0  0  0  0  0  0  0  0  0  0  0
  -21.5044   -6.6725   22.8844 C   0  0  0  0  0  0  0  0  0  0  0  0
  -25.1381  -20.4723   17.2297 C   0  0  0  0  0  0  0  0  0  0  0  0
  -23.9500  -20.0643   16.6233 C   0  0  0  0  0  0  0  0  0  0  0  0
  -20.6542   -6.2030   25.4996 C   0  0  0  0  0  0  0  0  0  0  0  0
  -21.9775   -5.5616   23.5827 C   0  0  0  0  0  0  0  0  0  0  0  0
  -24.5898  -11.7135   20.5503 C   0  0  0  0  0  0  0  0  0  0  0  0
  -25.1935  -13.8266   20.4755 C   0  0  0  0  0  0  0  0  0  0  0  0
  -27.5105  -17.7694   16.0461 C   0  0  0  0  0  0  0  0  0  0  0  0
  -23.1150  -13.4099   21.8002 C   0  0  0  0  0  0  0  0  0  0  0  0
  -22.6456  -29.2417   21.9140 C   0  0  0  0  0  0  0  0  0  0  0  0
  -25.8528  -28.7991   22.1162 C   0  0  0  0  0  0  0  0  0  0  0  0
  -28.5810  -26.9398   21.2521 C   0  0  0  0  0  0  0  0  0  0  0  0
  -28.4644  -15.5037   16.3299 C   0  0  0  0  0  0  0  0  0  0  0  0
  -19.0663  -31.8606   24.4413 C   0  0  0  0  0  0  0  0  0  0  0  0
  -22.7766  -26.8258   22.6230 C   0  0  0  0  0  0  0  0  0  0  0  0
  -24.6292  -27.4180   20.3954 C   0  0  0  0  0  0  0  0  0  0  0  0
  -20.5707  -31.9994   24.2230 C   0  0  0  0  0  0  0  0  0  0  0  0
  -29.5991  -12.7429   18.2238 C   0  0  0  0  0  0  0  0  0  0  0  0
  -20.9098  -31.8654   22.7418 C   0  0  0  0  0  0  0  0  0  0  0  0
  -28.3704  -12.3369   19.0422 C   0  0  0  0  0  0  0  0  0  0  0  0
  -29.2185  -13.1923   16.8138 C   0  0  0  0  0  0  0  0  0  0  0  0
  -26.9619  -13.8259   17.5647 C   0  0  0  0  0  0  0  0  0  0  0  0
  -20.5103  -30.4848   22.2072 C   0  0  1  0  0  0  0  0  0  0  0  0
  -23.5020  -28.1636   22.5158 C   0  0  1  0  0  0  0  0  0  0  0  0
  -27.2856  -13.4323   19.0151 C   0  0  1  0  0  0  0  0  0  0  0  0
  -28.2184  -21.3485   16.9705 C   0  0  0  0  0  0  0  0  0  0  0  0
  -25.6294  -22.4919   20.1688 C   0  0  0  0  0  0  0  0  0  0  0  0
  -31.0726  -26.8477   21.5367 C   0  0  0  0  0  0  0  0  0  0  0  0
  -26.1658  -31.0528   20.0833 C   0  0  0  0  0  0  0  0  0  0  0  0
  -28.5185  -30.2869   19.7006 C   0  0  0  0  0  0  0  0  0  0  0  0
  -27.8239  -31.0984   21.9549 C   0  0  0  0  0  0  0  0  0  0  0  0
  -28.4457  -24.3115   22.6058 C   0  0  0  0  0  0  0  0  0  0  0  0
  -27.5754  -20.1743   17.7003 C   0  0  0  0  0  0  0  0  0  0  0  0
  -21.2304  -22.5116   16.1929 C   0  0  0  0  0  0  0  0  0  0  0  0
  -24.8777  -21.4344   19.3889 C   0  0  0  0  0  0  0  0  0  0  0  0
  -21.2296  -23.1270   17.5834 C   0  0  0  0  0  0  0  0  0  1  0  0
  -22.5542  -21.8364   15.8704 C   0  0  0  0  0  0  0  0  0  0  0  0
  -27.0027  -28.8505   21.1395 C   0  0  1  0  0  0  0  0  0  0  0  0
  -29.7281  -26.3894   22.0800 C   0  0  2  0  0  0  0  0  0  0  0  0
  -27.3559  -30.3042   20.7159 C   0  0  0  0  0  0  0  0  0  0  0  0
  -25.7004  -11.7181   19.8084 N   0  0  0  0  0  0  0  0  0  0  0  0
  -26.0435  -13.0172   19.7809 N   0  0  0  0  0  0  0  0  0  0  0  0
  -24.7192  -28.0832   21.7057 N   0  0  0  0  0  0  0  0  0  0  0  0
  -28.1944  -14.2366   16.8755 N   0  0  0  0  0  0  0  0  0  0  0  0
  -22.7334  -18.4888   15.2148 N   0  0  0  0  0  0  0  0  0  0  0  0
  -25.3908  -15.1599   20.5512 N   0  0  0  0  0  0  0  0  0  0  0  0
  -22.2173  -12.4313   22.2482 N   0  0  0  0  0  0  0  0  0  0  0  0
  -27.4389  -16.4444   16.4770 N   0  0  0  0  0  0  0  0  0  0  0  0
  -21.4779  -29.4871   22.6108 N   0  0  0  0  0  0  0  0  0  0  0  0
  -28.1034  -28.1267   21.7664 N   0  0  0  0  0  0  0  0  0  0  0  0
  -29.7024  -24.8993   22.0748 N   0  3  0  0  0  0  0  0  0  0  0  0
  -28.4756  -18.2810   15.4852 O   0  0  0  0  0  0  0  0  0  0  0  0
  -22.9143  -14.6110   22.1011 O   0  0  0  0  0  0  0  0  0  0  0  0
  -23.0176  -29.8098   20.8940 O   0  0  0  0  0  0  0  0  0  0  0  0
  -25.9592  -29.3669   23.2061 O   0  0  0  0  0  0  0  0  0  0  0  0
  -28.1539  -26.3754   20.2473 O   0  0  0  0  0  0  0  0  0  0  0  0
  -29.5399  -15.7852   15.7921 O   0  0  0  0  0  0  0  0  0  0  0  0
  -21.9261   -6.9075   21.5864 O   0  0  0  0  0  0  0  0  0  0  0  0
  -22.2727  -24.0955   17.6850 O   0  0  0  0  0  0  0  0  0  1  0  0
  -25.1535  -21.5979   18.0000 O   0  0  0  0  0  0  0  0  0  0  0  0
  -22.8067  -20.7976   16.8068 O   0  0  0  0  0  0  0  0  0  0  0  0
  -20.2470   -5.9785   26.7557 F   0  0  0  0  0  0  0  0  0  0  0  0
  -22.8413   -4.7169   23.0030 F   0  0  0  0  0  0  0  0  0  0  0  0
  1  2  1  0  0  0  0
  1  5  2  0  0  0  0
  2  6  2  0  0  0  0
  3  8  2  0  0  0  0
  3 16  1  0  0  0  0
  4  9  1  0  0  0  0
  4 16  2  0  0  0  0
  5 19  1  0  0  0  0
  6 21  1  0  0  0  0
  7 10  2  0  0  0  0
  7 20  1  0  0  0  0
  8 25  1  0  0  0  0
  9 25  2  0  0  0  0
 10 26  1  0  0  0  0
 11 12  2  0  0  0  0
 11 27  1  0  0  0  0
 12 30  1  0  0  0  0
 13 17  1  0  0  0  0
 13 24  2  0  0  0  0
 14 22  1  0  0  0  0
 14 26  2  0  0  0  0
 15 30  2  0  0  0  0
 15 31  1  0  0  0  0
 16 32  1  0  0  0  0
 17 23  2  0  0  0  0
 17 34  1  0  0  0  0
 18 32  1  0  0  0  0
 18 33  2  0  0  0  0
 18 35  1  0  0  0  0
 19 21  2  0  0  0  0
 19 40  1  0  0  0  0
 20 22  2  0  0  0  0
 20 41  1  0  0  0  0
 21 49  1  0  0  0  0
 22 42  1  0  0  0  0
 23 28  1  0  0  0  0
 23 59  1  0  0  0  0
 24 29  1  0  0  0  0
 24 71  1  0  0  0  0
 25 84  1  0  0  0  0
 26 85  1  0  0  0  0
 27 31  2  0  0  0  0
 27 84  1  0  0  0  0
 28 29  2  0  0  0  0
 28 86  1  0  0  0  0
 29 87  1  0  0  0  0
 30 88  1  0  0  0  0
 31 89  1  0  0  0  0
 32 67  2  0  0  0  0
 33 68  1  0  0  0  0
 33 72  1  0  0  0  0
 34 74  1  0  0  0  0
 34 78  2  0  0  0  0
 35 73  1  0  0  0  0
 35 79  2  0  0  0  0
 36 50  1  0  0  0  0
 36 75  1  0  0  0  0
 36 80  2  0  0  0  0
 37 64  1  0  0  0  0
 37 69  1  0  0  0  0
 37 81  2  0  0  0  0
 38 65  1  0  0  0  0
 38 76  1  0  0  0  0
 38 82  2  0  0  0  0
 39 70  1  0  0  0  0
 39 74  1  0  0  0  0
 39 83  2  0  0  0  0
 40 43  1  0  0  0  0
 41 50  1  0  0  0  0
 42 69  1  0  0  0  0
 43 45  1  0  0  0  0
 44 46  1  0  0  0  0
 44 47  1  0  0  0  0
 45 49  1  0  0  0  0
 46 51  1  0  0  0  0
 47 70  1  0  0  0  0
 48 51  1  0  0  0  0
 48 70  1  0  0  0  0
 49 75  1  0  0  0  0
 50 69  1  0  0  0  0
 51 68  1  0  0  0  0
 52 59  1  0  0  0  0
 53 61  1  0  0  0  0
 54 65  1  0  0  0  0
 55 66  1  0  0  0  0
 56 66  1  0  0  0  0
 57 66  1  0  0  0  0
 58 77  1  0  0  0  0
 60 62  1  0  0  0  0
 60 63  1  0  0  0  0
 61 86  1  0  0  0  0
 62 85  1  0  0  0  0
 63 87  1  0  0  0  0
 64 66  1  0  0  0  0
 64 76  1  0  0  0  0
 65 77  1  0  0  0  0
 67 68  1  0  0  0  0
M  CHG  1  77   1
M  ISO  4  39 100  62 101  74 100  85 101
M  END
> <Batch ID>
0109

> <Smiles>
CCOc1c(CC)c(C(=O)[100NH:0][100C:0](=O)N2CCCC(n3nc(-c4ccc(Oc5ccc(F)cc5F)cc4)c(C(N)=O)c3N)C2)cc(N)c1OCC[101CH2:1][101O:1]c1ccc2c(c1)CN(C(=O)C(NC(=O)C(C)NC)C(C)(C)C)C(C(=O)NC1CCCc3ccccc31)C2

> <Shape>
0.263

> <Color>
0.171

> <Negative vol penalty>
0.000

$$$$

  -OEChem-04052301233D

 89 98  0     1  0  0  0  0  0999 V2000
  -26.7938  -34.6886   23.9331 C   0  0  0  0  0  0  0  0  0  0  0  0
  -27.2055  -33.4122   23.5633 C   0  0  0  0  0  0  0  0  0  0  0  0
  -21.8497  -11.1918   20.8247 C   0  0  0  0  0  0  0  0  0  0  0  0
  -21.0512  -12.1766   18.7681 C   0  0  0  0  0  0  0  0  0  0  0  0
  -25.5138  -34.8846   24.4497 C   0  0  0  0  0  0  0  0  0  0  0  0
  -26.3376  -32.3308   23.7110 C   0  0  0  0  0  0  0  0  0  0  0  0
  -26.3036  -29.2991   19.6548 C   0  0  0  0  0  0  0  0  0  0  0  0
  -21.0568  -10.0676   20.5943 C   0  0  0  0  0  0  0  0  0  0  0  0
  -20.2583  -11.0524   18.5376 C   0  0  0  0  0  0  0  0  0  0  0  0
  -27.3712  -28.4137   19.5127 C   0  0  0  0  0  0  0  0  0  0  0  0
  -21.1820   -7.2801   18.6845 C   0  0  0  0  0  0  0  0  0  0  0  0
  -21.7607   -6.0267   18.8838 C   0  0  0  0  0  0  0  0  0  0  0  0
  -26.0038  -26.6330   20.3951 C   0  0  0  0  0  0  0  0  0  0  0  0
  -27.4953  -21.3527   16.6522 C   0  0  0  0  0  0  0  0  0  0  0  0
  -27.6654  -22.2000   18.9084 C   0  0  0  0  0  0  0  0  0  0  0  0
  -20.0982   -5.5262   20.5639 C   0  0  0  0  0  0  0  0  0  0  0  0
  -21.8469  -12.2463   19.9117 C   0  0  0  0  0  0  0  0  0  0  0  0
  -24.0661  -13.4482   20.2836 C   0  0  0  0  0  0  0  0  0  0  0  0
  -24.6263  -33.8066   24.5948 C   0  0  0  0  0  0  0  0  0  0  0  0
  -25.0795  -28.8599   20.1791 C   0  0  0  0  0  0  0  0  0  0  0  0
  -25.0449  -32.5123   24.2313 C   0  0  0  0  0  0  0  0  0  0  0  0
  -24.9215  -27.5143   20.5404 C   0  0  0  0  0  0  0  0  0  0  0  0
  -26.4229  -20.5472   17.0356 C   0  0  0  0  0  0  0  0  0  0  0  0
  -26.5930  -21.3945   19.2917 C   0  0  0  0  0  0  0  0  0  0  0  0
  -28.1165  -22.1790   17.5887 C   0  0  0  0  0  0  0  0  0  0  0  0
  -25.9718  -20.5682   18.3553 C   0  0  0  0  0  0  0  0  0  0  0  0
  -20.2611   -9.9979   19.4507 C   0  0  0  0  0  0  0  0  0  0  0  0
  -27.2223  -27.0811   19.8855 C   0  0  0  0  0  0  0  0  0  0  0  0
  -20.0614   -7.6566   19.4250 C   0  0  0  0  0  0  0  0  0  0  0  0
  -21.2189   -5.1498   19.8234 C   0  0  0  0  0  0  0  0  0  0  0  0
  -19.5195   -6.7796   20.3646 C   0  0  0  0  0  0  0  0  0  0  0  0
  -22.6653  -13.4081   20.1494 C   0  0  0  0  0  0  0  0  0  0  0  0
  -24.3529  -14.7746   20.4955 C   0  0  0  0  0  0  0  0  0  0  0  0
  -30.9359  -24.7521   18.8280 C   0  0  0  0  0  0  0  0  0  0  0  0
  -29.8093  -25.1749   18.2263 C   0  0  0  0  0  0  0  0  0  0  0  0
  -31.6980  -23.5304   18.4664 C   0  0  0  0  0  0  0  0  0  0  0  0
  -25.0225  -12.3818   20.2221 C   0  0  0  0  0  0  0  0  0  0  0  0
  -23.3470  -29.5875   22.7429 C   0  0  0  0  0  0  0  0  0  0  0  0
  -21.1884  -27.5941   21.3685 C   0  0  0  0  0  0  0  0  0  0  0  0
  -21.2546  -24.4232   19.6484 C   0  0  0  0  0  0  0  0  0  0  0  0
  -23.6616  -20.1629   19.2746 C   0  0  0  0  0  0  0  0  0  0  0  0
  -23.2693  -34.0601   25.2021 C   0  0  0  0  0  0  0  0  0  0  0  0
  -23.9293  -29.8214   20.3011 C   0  0  0  0  0  0  0  0  0  0  0  0
  -23.6215  -26.9880   21.0895 C   0  0  0  0  0  0  0  0  0  0  0  0
  -31.6807  -23.0736   17.0295 C   0  0  0  0  0  0  0  0  0  0  0  0
  -22.2787  -32.9207   24.9767 C   0  0  0  0  0  0  0  0  0  0  0  0
  -21.2993  -18.6866   21.4921 C   0  0  0  0  0  0  0  0  0  0  0  0
  -22.9321  -31.5768   25.2831 C   0  0  0  0  0  0  0  0  0  0  0  0
  -21.5594  -17.1850   21.3515 C   0  0  0  0  0  0  0  0  0  0  0  0
  -30.3963  -22.3464   16.6661 C   0  0  0  0  0  0  0  0  0  0  0  0
  -21.4629  -19.4176   20.1607 C   0  0  0  0  0  0  0  0  0  0  0  0
  -22.9993  -17.6783   19.3340 C   0  0  0  0  0  0  0  0  0  0  0  0
  -24.1236  -31.3180   24.3532 C   0  0  1  0  0  0  0  0  0  0  0  0
  -29.0104  -24.4518   17.1497 C   0  0  1  0  0  0  0  0  0  0  0  0
  -22.8891  -29.3817   21.3267 C   0  0  1  0  0  0  0  0  0  0  0  0
  -22.9100  -16.9091   20.6622 C   0  0  2  0  0  0  0  0  0  0  0  0
  -25.7784  -19.6723   16.0096 C   0  0  0  0  0  0  0  0  0  0  0  0
  -26.1327  -21.4379   20.7130 C   0  0  0  0  0  0  0  0  0  0  0  0
  -29.2422  -25.0054   15.7395 C   0  0  0  0  0  0  0  0  0  0  0  0
  -19.6931  -23.4644   17.9338 C   0  0  0  0  0  0  0  0  0  0  0  0
  -19.8181  -26.2952   23.7654 C   0  0  0  0  0  0  0  0  0  0  0  0
  -19.4611  -24.2507   22.3650 C   0  0  0  0  0  0  0  0  0  0  0  0
  -18.4139  -26.4147   21.6994 C   0  0  0  0  0  0  0  0  0  0  0  0
  -23.4591  -23.9656   17.7275 C   0  0  0  0  0  0  0  0  0  0  0  0
  -29.1862  -26.4711   18.6911 C   0  0  0  0  0  0  0  0  0  1  0  0
  -20.9097  -26.1118   21.4329 C   0  0  1  0  0  0  0  0  0  0  0  0
  -21.0106  -24.1867   18.1689 C   0  0  2  0  0  0  0  0  0  0  0  0
  -19.6769  -25.7785   22.3197 C   0  0  0  0  0  0  0  0  0  0  0  0
  -22.1014  -14.6132   20.2665 N   0  0  0  0  0  0  0  0  0  0  0  0
  -23.1532  -15.4230   20.4765 N   0  0  0  0  0  0  0  0  0  0  0  0
  -29.1937  -22.9885   17.2044 N   0  0  3  0  0  0  0  0  0  0  0  0
  -22.5284  -27.9685   21.1957 N   0  0  0  0  0  0  0  0  0  0  0  0
  -22.7670  -19.1121   19.5684 N   0  0  0  0  0  0  0  0  0  0  0  0
  -25.5118  -15.4378   20.6944 N   0  0  0  0  0  0  0  0  0  0  0  0
  -24.5571  -11.0791   19.9970 N   0  0  0  0  0  0  0  0  0  0  0  0
  -24.8832  -19.7489   18.7447 N   0  0  0  0  0  0  0  0  0  0  0  0
  -23.6635  -30.8978   23.0470 N   0  0  0  0  0  0  0  0  0  0  0  0
  -20.7921  -25.6582   20.0513 N   0  0  0  0  0  0  0  0  0  0  0  0
  -22.1083  -23.3630   17.5881 N   0  3  0  0  0  0  0  0  0  0  0  0
  -32.3633  -22.9515   19.3232 O   0  0  0  0  0  0  0  0  0  0  0  0
  -26.2518  -12.5760   20.3789 O   0  0  0  0  0  0  0  0  0  0  0  0
  -23.4073  -28.6288   23.5037 O   0  0  0  0  0  0  0  0  0  0  0  0
  -20.2507  -28.3903   21.4608 O   0  0  0  0  0  0  0  0  0  0  0  0
  -21.7975  -23.5938   20.3749 O   0  0  0  0  0  0  0  0  0  0  0  0
  -23.3763  -21.3412   19.5035 O   0  0  0  0  0  0  0  0  0  0  0  0
  -19.4875   -8.9009   19.2254 O   0  0  0  0  0  0  0  0  0  0  0  0
  -28.2628  -26.2149   19.7485 O   0  0  0  0  0  0  0  0  0  1  0  0
  -21.7738   -3.9456   20.0135 F   0  0  0  0  0  0  0  0  0  0  0  0
  -18.4423   -7.1352   21.0781 F   0  0  0  0  0  0  0  0  0  0  0  0
  1  2  1  0  0  0  0
  1  5  2  0  0  0  0
  2  6  2  0  0  0  0
  3  8  2  0  0  0  0
  3 17  1  0  0  0  0
  4  9  1  0  0  0  0
  4 17  2  0  0  0  0
  5 19  1  0  0  0  0
  6 21  1  0  0  0  0
  7 10  2  0  0  0  0
  7 20  1  0  0  0  0
  8 27  1  0  0  0  0
  9 27  2  0  0  0  0
 10 28  1  0  0  0  0
 11 12  2  0  0  0  0
 11 29  1  0  0  0  0
 12 30  1  0  0  0  0
 13 22  1  0  0  0  0
 13 28  2  0  0  0  0
 14 23  2  0  0  0  0
 14 25  1  0  0  0  0
 15 24  1  0  0  0  0
 15 25  2  0  0  0  0
 16 30  2  0  0  0  0
 16 31  1  0  0  0  0
 17 32  1  0  0  0  0
 18 32  1  0  0  0  0
 18 33  2  0  0  0  0
 18 37  1  0  0  0  0
 19 21  2  0  0  0  0
 19 42  1  0  0  0  0
 20 22  2  0  0  0  0
 20 43  1  0  0  0  0
 21 53  1  0  0  0  0
 22 44  1  0  0  0  0
 23 26  1  0  0  0  0
 23 57  1  0  0  0  0
 24 26  2  0  0  0  0
 24 58  1  0  0  0  0
 25 71  1  0  0  0  0
 26 76  1  0  0  0  0
 27 86  1  0  0  0  0
 28 87  1  0  0  0  0
 29 31  2  0  0  0  0
 29 86  1  0  0  0  0
 30 88  1  0  0  0  0
 31 89  1  0  0  0  0
 32 69  2  0  0  0  0
 33 70  1  0  0  0  0
 33 74  1  0  0  0  0
 34 35  2  0  0  0  0
 34 36  1  0  0  0  0
 35 54  1  0  0  0  0
 35 65  1  0  0  0  0
 36 45  1  0  0  0  0
 36 80  2  0  0  0  0
 37 75  1  0  0  0  0
 37 81  2  0  0  0  0
 38 55  1  0  0  0  0
 38 77  1  0  0  0  0
 38 82  2  0  0  0  0
 39 66  1  0  0  0  0
 39 72  1  0  0  0  0
 39 83  2  0  0  0  0
 40 67  1  0  0  0  0
 40 78  1  0  0  0  0
 40 84  2  0  0  0  0
 41 73  1  0  0  0  0
 41 76  1  0  0  0  0
 41 85  2  0  0  0  0
 42 46  1  0  0  0  0
 43 55  1  0  0  0  0
 44 72  1  0  0  0  0
 45 50  1  0  0  0  0
 46 48  1  0  0  0  0
 47 49  1  0  0  0  0
 47 51  1  0  0  0  0
 48 53  1  0  0  0  0
 49 56  1  0  0  0  0
 50 71  1  0  0  0  0
 51 73  1  0  0  0  0
 52 56  1  0  0  0  0
 52 73  1  0  0  0  0
 53 77  1  0  0  0  0
 54 59  1  0  0  0  0
 54 71  1  0  0  0  0
 55 72  1  0  0  0  0
 56 70  1  0  0  0  0
 60 67  1  0  0  0  0
 61 68  1  0  0  0  0
 62 68  1  0  0  0  0
 63 68  1  0  0  0  0
 64 79  1  0  0  0  0
 65 87  1  0  0  0  0
 66 68  1  0  0  0  0
 66 78  1  0  0  0  0
 67 79  1  0  0  0  0
 69 70  1  0  0  0  0
M  CHG  1  79   1
M  ISO  4  41 100  65 101  76 100  87 101
M  END
> <Batch ID>
0109

> <Smiles>
CNC(C)C(=O)NC(C(=O)N1Cc2cc([101O:1][101CH2:1]C3=C(C)N(c4cc(C)c([100NH:0][100C:0](=O)N5CCCC(n6nc(-c7ccc(Oc8ccc(F)cc8F)cc7)c(C(N)=O)c6N)C5)c(C)c4)CCC(=O)C3)ccc2CC1C(=O)NC1CCCc2ccccc21)C(C)(C)C

> <Shape>
0.226

> <Color>
0.108

> <Negative vol penalty>
0.000

$$$$

  -OEChem-04052301233D

 89 98  0     1  0  0  0  0  0999 V2000
  -27.5855  -38.1327   24.7569 C   0  0  0  0  0  0  0  0  0  0  0  0
  -28.2927  -36.9501   24.9486 C   0  0  0  0  0  0  0  0  0  0  0  0
  -23.7503  -11.8852   17.6080 C   0  0  0  0  0  0  0  0  0  0  0  0
  -25.7769  -10.6322   18.0080 C   0  0  0  0  0  0  0  0  0  0  0  0
  -26.1913  -38.1188   24.7646 C   0  0  0  0  0  0  0  0  0  0  0  0
  -27.6062  -35.7531   25.1492 C   0  0  0  0  0  0  0  0  0  0  0  0
  -28.5542  -30.1479   20.7249 C   0  0  0  0  0  0  0  0  0  0  0  0
  -27.8265  -21.9381   19.6650 C   0  0  0  0  0  0  0  0  0  0  0  0
  -27.7791  -20.7458   20.3874 C   0  0  0  0  0  0  0  0  0  0  0  0
  -23.5546  -11.1881   16.4158 C   0  0  0  0  0  0  0  0  0  0  0  0
  -25.5812   -9.9351   16.8158 C   0  0  0  0  0  0  0  0  0  0  0  0
  -28.8392  -28.9621   20.0477 C   0  0  0  0  0  0  0  0  0  0  0  0
  -23.6789   -7.3670   15.7174 C   0  0  0  0  0  0  0  0  0  0  0  0
  -23.8606   -5.9842   15.7397 C   0  0  0  0  0  0  0  0  0  0  0  0
  -28.3590  -20.7015   17.6589 C   0  0  0  0  0  0  0  0  0  0  0  0
  -27.1520  -27.8068   21.3385 C   0  0  0  0  0  0  0  0  0  0  0  0
  -25.6055   -6.1869   14.0810 C   0  0  0  0  0  0  0  0  0  0  0  0
  -24.8615  -11.6073   18.4041 C   0  0  0  0  0  0  0  0  0  0  0  0
  -28.3116  -19.5092   18.3813 C   0  0  0  0  0  0  0  0  0  0  0  0
  -24.2025  -12.3696   20.7477 C   0  0  0  0  0  0  0  0  0  0  0  0
  -25.4873  -36.9195   24.9558 C   0  0  0  0  0  0  0  0  0  0  0  0
  -27.5550  -30.1713   21.7019 C   0  0  0  0  0  0  0  0  0  0  0  0
  -26.2013  -35.7234   25.1608 C   0  0  0  0  0  0  0  0  0  0  0  0
  -26.8534  -28.9946   22.0114 C   0  0  0  0  0  0  0  0  0  0  0  0
  -28.1164  -21.9160   18.3007 C   0  0  0  0  0  0  0  0  0  0  0  0
  -28.0216  -19.5314   19.7456 C   0  0  0  0  0  0  0  0  0  0  0  0
  -24.4700  -10.2130   16.0197 C   0  0  0  0  0  0  0  0  0  0  0  0
  -28.1400  -27.7944   20.3539 C   0  0  0  0  0  0  0  0  0  0  0  0
  -24.4604   -8.1597   14.8769 C   0  0  0  0  0  0  0  0  0  0  0  0
  -24.8239   -5.3942   14.9215 C   0  0  0  0  0  0  0  0  0  0  0  0
  -25.4237   -7.5697   14.0587 C   0  0  0  0  0  0  0  0  0  0  0  0
  -25.0645  -12.3274   19.6355 C   0  0  0  0  0  0  0  0  0  0  0  0
  -24.8443  -13.1835   21.6489 C   0  0  0  0  0  0  0  0  0  0  0  0
  -27.7241  -25.6573   16.4630 C   0  0  0  0  0  0  0  0  0  0  0  0
  -28.4976  -25.5458   17.5511 C   0  0  0  0  0  0  0  0  0  0  0  0
  -27.3588  -24.4557   15.6857 C   0  0  0  0  0  0  0  0  0  0  0  0
  -29.7191  -17.9806   17.0785 C   0  0  0  0  0  0  0  0  0  0  0  0
  -28.5714  -18.2593   17.6766 C   0  0  0  0  0  0  0  0  0  0  0  0
  -22.9349  -11.7302   20.9482 C   0  0  0  0  0  0  0  0  0  0  0  0
  -25.6348  -32.1988   24.2075 C   0  0  0  0  0  0  0  0  0  0  0  0
  -23.6221  -30.3268   22.8456 C   0  0  0  0  0  0  0  0  0  0  0  0
  -20.8467  -28.8725   21.4968 C   0  0  0  0  0  0  0  0  0  0  0  0
  -29.0876  -17.4657   20.6354 C   0  0  0  0  0  0  0  0  0  0  0  0
  -23.9804  -36.9619   25.0033 C   0  0  0  0  0  0  0  0  0  0  0  0
  -27.2567  -31.4116   22.4998 C   0  0  0  0  0  0  0  0  0  0  0  0
  -25.8109  -29.0588   23.0940 C   0  0  0  0  0  0  0  0  0  0  0  0
  -27.8089  -23.0955   16.1575 C   0  0  0  0  0  0  0  0  0  0  0  0
  -23.3273  -35.5908   24.8488 C   0  0  0  0  0  0  0  0  0  0  0  0
  -29.2064  -14.6148   22.9739 C   0  0  0  0  0  0  0  0  0  0  0  0
  -24.0178  -34.5667   25.7439 C   0  0  0  0  0  0  0  0  0  0  0  0
  -28.1238  -13.6837   22.4309 C   0  0  0  0  0  0  0  0  0  0  0  0
  -29.8404  -15.4528   21.8676 C   0  0  0  0  0  0  0  0  0  0  0  0
  -27.7706  -15.2965   20.5179 C   0  0  0  0  0  0  0  0  0  0  0  0
  -25.4923  -34.4009   25.3569 C   0  0  1  0  0  0  0  0  0  0  0  0
  -29.0079  -24.2185   18.0726 C   0  0  2  0  0  0  0  0  0  0  0  0
  -25.7668  -31.5542   22.8590 C   0  0  1  0  0  0  0  0  0  0  0  0
  -27.0829  -14.4696   21.6149 C   0  0  1  0  0  0  0  0  0  0  0  0
  -30.4705  -23.9890   17.6764 C   0  0  0  0  0  0  0  0  0  0  0  0
  -18.4900  -28.2234   22.0641 C   0  0  0  0  0  0  0  0  0  0  0  0
  -24.6659  -27.9461   24.4414 C   0  0  0  0  0  0  0  0  0  0  0  0
  -22.4249  -26.8658   24.1607 C   0  0  0  0  0  0  0  0  0  0  0  0
  -22.6208  -29.0252   25.3942 C   0  0  0  0  0  0  0  0  0  0  0  0
  -26.8043  -18.0903   21.3881 C   0  0  0  0  0  0  0  0  0  0  0  0
  -19.7322  -30.6399   19.4009 C   0  0  0  0  0  0  0  0  0  0  0  0
  -28.8828  -26.7665   18.3416 C   0  0  0  0  0  0  0  0  0  1  0  0
  -22.9009  -29.0032   22.8816 C   0  0  1  0  0  0  0  0  0  0  0  0
  -19.3906  -29.3016   21.4819 C   0  0  2  0  0  0  0  0  0  0  0  0
  -23.1682  -28.2182   24.1967 C   0  0  0  0  0  0  0  0  0  0  0  0
  -26.1696  -13.0566   19.8117 N   0  0  0  0  0  0  0  0  0  0  0  0
  -26.0063  -13.5647   21.0451 N   0  0  0  0  0  0  0  0  0  0  0  0
  -28.1649  -23.1149   17.5754 N   0  0  2  0  0  0  0  0  0  0  0  0
  -25.0175  -30.2900   22.9550 N   0  0  0  0  0  0  0  0  0  0  0  0
  -28.8265  -16.1536   21.0786 N   0  0  0  0  0  0  0  0  0  0  0  0
  -24.5223  -13.6031   22.8909 N   0  0  0  0  0  0  0  0  0  0  0  0
  -22.4209  -10.9285   19.9200 N   0  0  0  0  0  0  0  0  0  0  0  0
  -25.6145  -33.5800   24.1714 N   0  0  0  0  0  0  0  0  0  0  0  0
  -21.4931  -29.2986   22.6377 N   0  0  0  0  0  0  0  0  0  0  0  0
  -27.9653  -18.3144   20.5205 N   0  0  0  0  0  0  0  0  0  0  0  0
  -18.9473  -29.5815   20.0869 N   0  3  0  0  0  0  0  0  0  0  0  0
  -26.7215  -24.5869   14.6406 O   0  0  0  0  0  0  0  0  0  0  0  0
  -22.2700  -11.8791   22.0014 O   0  0  0  0  0  0  0  0  0  0  0  0
  -25.5555  -31.4957   25.2081 O   0  0  0  0  0  0  0  0  0  0  0  0
  -22.9681  -31.3670   22.7294 O   0  0  0  0  0  0  0  0  0  0  0  0
  -21.3584  -28.2209   20.5889 O   0  0  0  0  0  0  0  0  0  0  0  0
  -30.2356  -17.8556   20.3912 O   0  0  0  0  0  0  0  0  0  0  0  0
  -24.2793   -9.5325   14.8565 O   0  0  0  0  0  0  0  0  0  0  0  0
  -28.4203  -26.6412   19.6858 O   0  0  0  0  0  0  0  0  0  1  0  0
  -24.9994   -4.0664   14.9441 F   0  0  0  0  0  0  0  0  0  0  0  0
  -26.1784   -8.3262   13.2500 F   0  0  0  0  0  0  0  0  0  0  0  0
  1  2  1  0  0  0  0
  1  5  2  0  0  0  0
  2  6  2  0  0  0  0
  3 10  2  0  0  0  0
  3 18  1  0  0  0  0
  4 11  1  0  0  0  0
  4 18  2  0  0  0  0
  5 21  1  0  0  0  0
  6 23  1  0  0  0  0
  7 12  2  0  0  0  0
  7 22  1  0  0  0  0
  8  9  2  0  0  0  0
  8 25  1  0  0  0  0
  9 26  1  0  0  0  0
 10 27  1  0  0  0  0
 11 27  2  0  0  0  0
 12 28  1  0  0  0  0
 13 14  2  0  0  0  0
 13 29  1  0  0  0  0
 14 30  1  0  0  0  0
 15 19  1  0  0  0  0
 15 25  2  0  0  0  0
 16 24  1  0  0  0  0
 16 28  2  0  0  0  0
 17 30  2  0  0  0  0
 17 31  1  0  0  0  0
 18 32  1  0  0  0  0
 19 26  2  0  0  0  0
 19 38  1  0  0  0  0
 20 32  1  0  0  0  0
 20 33  2  0  0  0  0
 20 39  1  0  0  0  0
 21 23  2  0  0  0  0
 21 44  1  0  0  0  0
 22 24  2  0  0  0  0
 22 45  1  0  0  0  0
 23 54  1  0  0  0  0
 24 46  1  0  0  0  0
 25 71  1  0  0  0  0
 26 78  1  0  0  0  0
 27 86  1  0  0  0  0
 28 87  1  0  0  0  0
 29 31  2  0  0  0  0
 29 86  1  0  0  0  0
 30 88  1  0  0  0  0
 31 89  1  0  0  0  0
 32 69  2  0  0  0  0
 33 70  1  0  0  0  0
 33 74  1  0  0  0  0
 34 35  2  0  0  0  0
 34 36  1  0  0  0  0
 35 55  1  0  0  0  0
 35 65  1  0  0  0  0
 36 47  1  0  0  0  0
 36 80  2  0  0  0  0
 37 38  2  0  0  0  0
 39 75  1  0  0  0  0
 39 81  2  0  0  0  0
 40 56  1  0  0  0  0
 40 76  1  0  0  0  0
 40 82  2  0  0  0  0
 41 66  1  0  0  0  0
 41 72  1  0  0  0  0
 41 83  2  0  0  0  0
 42 67  1  0  0  0  0
 42 77  1  0  0  0  0
 42 84  2  0  0  0  0
 43 73  1  0  0  0  0
 43 78  1  0  0  0  0
 43 85  2  0  0  0  0
 44 48  1  0  0  0  0
 45 56  1  0  0  0  0
 46 72  1  0  0  0  0
 47 71  1  0  0  0  0
 48 50  1  0  0  0  0
 49 51  1  0  0  0  0
 49 52  1  0  0  0  0
 50 54  1  0  0  0  0
 51 57  1  0  0  0  0
 52 73  1  0  0  0  0
 53 57  1  0  0  0  0
 53 73  1  0  0  0  0
 54 76  1  0  0  0  0
 55 58  1  0  0  0  0
 55 71  1  0  0  0  0
 56 72  1  0  0  0  0
 57 70  1  0  0  0  0
 59 67  1  0  0  0  0
 60 68  1  0  0  0  0
 61 68  1  0  0  0  0
 62 68  1  0  0  0  0
 63 78  1  0  0  0  0
 64 79  1  0  0  0  0
 65 87  1  0  0  0  0
 66 68  1  0  0  0  0
 66 77  1  0  0  0  0
 67 79  1  0  0  0  0
 69 70  1  0  0  0  0
M  CHG  1  79   1
M  ISO  4  43 100  65 101  78 100  87 101
M  END
> <Batch ID>
0109

> <Smiles>
C=Cc1cc(N2CC(=O)CC([101CH2:1][101O:1]c3ccc4c(c3)CN(C(=O)C(NC(=O)C(C)NC)C(C)(C)C)C(C(=O)NC3CCCc5ccccc53)C4)=C2C)ccc1[100N:0](C)[100C:0](=O)N1CCCC(n2nc(-c3ccc(Oc4ccc(F)cc4F)cc3)c(C(N)=O)c2N)C1

> <Shape>
0.279

> <Color>
0.091

> <Negative vol penalty>
0.000

$$$$

  -OEChem-04052301233D

 91100  0     1  0  0  0  0  0999 V2000
  -27.7854  -33.6733   25.4514 C   0  0  0  0  0  0  0  0  0  0  0  0
  -28.0197  -32.3339   25.1573 C   0  0  0  0  0  0  0  0  0  0  0  0
  -23.8222  -11.6316   24.0238 C   0  0  0  0  0  0  0  0  0  0  0  0
  -23.7408  -14.0445   23.9319 C   0  0  0  0  0  0  0  0  0  0  0  0
  -26.4823  -34.1693   25.4470 C   0  0  0  0  0  0  0  0  0  0  0  0
  -26.9508  -31.4894   24.8595 C   0  0  0  0  0  0  0  0  0  0  0  0
  -27.8696  -28.5315   20.8530 C   0  0  0  0  0  0  0  0  0  0  0  0
  -23.2141  -11.6589   25.2787 C   0  0  0  0  0  0  0  0  0  0  0  0
  -23.1326  -14.0718   25.1869 C   0  0  0  0  0  0  0  0  0  0  0  0
  -28.6833  -27.4179   21.0570 C   0  0  0  0  0  0  0  0  0  0  0  0
  -20.0462  -13.5701   26.4686 C   0  0  0  0  0  0  0  0  0  0  0  0
  -18.9483  -14.4139   26.6368 C   0  0  0  0  0  0  0  0  0  0  0  0
  -26.7240  -26.0158   21.1771 C   0  0  0  0  0  0  0  0  0  0  0  0
  -29.4233  -18.3066   19.7172 C   0  0  0  0  0  0  0  0  0  0  0  0
  -31.1187  -17.2020   18.3972 C   0  0  0  0  0  0  0  0  0  0  0  0
  -20.1303  -15.6053   28.3748 C   0  0  0  0  0  0  0  0  0  0  0  0
  -24.0857  -12.8245   23.3503 C   0  0  0  0  0  0  0  0  0  0  0  0
  -30.5115  -19.4899   17.9138 C   0  0  0  0  0  0  0  0  0  0  0  0
  -24.0764  -12.7279   20.8012 C   0  0  0  0  0  0  0  0  0  0  0  0
  -25.3979  -33.3326   25.1396 C   0  0  0  0  0  0  0  0  0  0  0  0
  -26.4741  -28.3970   20.8204 C   0  0  0  0  0  0  0  0  0  0  0  0
  -25.6319  -31.9742   24.8522 C   0  0  0  0  0  0  0  0  0  0  0  0
  -25.8949  -27.1288   20.9701 C   0  0  0  0  0  0  0  0  0  0  0  0
  -29.5836  -19.4637   18.9550 C   0  0  0  0  0  0  0  0  0  0  0  0
  -30.1909  -17.1757   19.4384 C   0  0  0  0  0  0  0  0  0  0  0  0
  -22.8692  -12.8789   25.8603 C   0  0  0  0  0  0  0  0  0  0  0  0
  -28.1104  -26.1603   21.2219 C   0  0  0  0  0  0  0  0  0  0  0  0
  -21.1861  -13.7439   27.2535 C   0  0  0  0  0  0  0  0  0  0  0  0
  -31.2790  -18.3591   17.6349 C   0  0  0  0  0  0  0  0  0  0  0  0
  -18.9903  -15.4315   27.5899 C   0  0  0  0  0  0  0  0  0  0  0  0
  -21.2281  -14.7615   28.2066 C   0  0  0  0  0  0  0  0  0  0  0  0
  -24.7144  -12.7970   22.0542 C   0  0  0  0  0  0  0  0  0  0  0  0
  -25.1054  -12.7289   19.8914 C   0  0  0  0  0  0  0  0  0  0  0  0
  -29.6576  -22.9961   19.5478 C   0  0  0  0  0  0  0  0  0  0  0  0
  -30.6835  -20.6980   17.1130 C   0  0  0  0  0  0  0  0  0  0  0  0
  -31.8219  -21.4143   17.0029 C   0  0  0  0  0  0  0  0  0  0  0  0
  -22.6786  -12.6684   20.4876 C   0  0  0  0  0  0  0  0  0  0  0  0
  -24.0703  -29.5268   22.5665 C   0  0  0  0  0  0  0  0  0  0  0  0
  -22.2569  -28.0939   20.2905 C   0  0  0  0  0  0  0  0  0  0  0  0
  -22.0005  -25.6970   17.8746 C   0  0  0  0  0  0  0  0  0  0  0  0
  -30.7101  -14.7929   20.0699 C   0  0  0  0  0  0  0  0  0  0  0  0
  -24.0027  -33.9031   25.1936 C   0  0  0  0  0  0  0  0  0  0  0  0
  -25.6115  -29.6040   20.5728 C   0  0  0  0  0  0  0  0  0  0  0  0
  -24.4030  -26.9279   20.9230 C   0  0  0  0  0  0  0  0  0  0  0  0
  -22.9602  -33.0293   24.5009 C   0  0  0  0  0  0  0  0  0  0  0  0
  -29.6946  -11.4413   19.4273 C   0  0  0  0  0  0  0  0  0  0  0  0
  -23.1261  -31.5705   24.9147 C   0  0  0  0  0  0  0  0  0  0  0  0
  -28.2423  -11.4040   19.9084 C   0  0  0  0  0  0  0  0  0  0  0  0
  -30.5488  -22.7558   21.7511 C   0  0  0  0  0  0  0  0  0  0  0  0
  -30.5650  -12.3248   20.3193 C   0  0  0  0  0  0  0  0  0  0  0  0
  -30.2296  -21.3832   21.1858 C   0  0  0  0  0  0  0  0  0  0  0  0
  -28.6060  -13.6499   21.0088 C   0  0  0  0  0  0  0  0  0  0  0  0
  -24.5009  -31.0325   24.5000 C   0  0  1  0  0  0  0  0  0  0  0  0
  -24.1804  -29.4280   21.0713 C   0  0  1  0  0  0  0  0  0  0  0  0
  -27.6767  -12.8244   20.1039 C   0  0  2  0  0  0  0  0  0  0  0  0
  -30.6302  -23.6676   20.5130 C   0  0  1  0  0  0  0  0  0  0  0  0
  -31.9496  -22.6528   16.1767 C   0  0  0  0  0  0  0  0  0  0  0  0
  -32.0333  -23.6513   19.8967 C   0  0  0  0  0  0  0  0  0  0  0  0
  -20.3827  -24.7424   16.2107 C   0  0  0  0  0  0  0  0  0  0  0  0
  -20.8028  -26.6377   22.5433 C   0  0  0  0  0  0  0  0  0  0  0  0
  -19.8989  -25.0449   20.8363 C   0  0  0  0  0  0  0  0  0  0  0  0
  -19.3191  -27.4678   20.7092 C   0  0  0  0  0  0  0  0  0  0  0  0
  -23.7449  -26.4129   15.5935 C   0  0  0  0  0  0  0  0  0  0  0  0
  -31.7346  -17.9464   15.3375 C   0  0  0  0  0  0  0  0  0  0  0  0
  -28.7389  -20.6600   19.2857 C   0  0  0  0  0  0  0  0  0  0  0  0
  -30.2017  -25.0969   20.8324 C   0  0  0  0  0  0  0  0  0  1  0  0
  -21.6583  -26.7200   20.1087 C   0  0  1  0  0  0  0  0  0  0  0  0
  -21.4906  -25.7572   16.4461 C   0  0  2  0  0  0  0  0  0  0  0  0
  -20.4478  -26.4713   21.0522 C   0  0  0  0  0  0  0  0  0  0  0  0
  -26.0456  -12.8386   21.9534 N   0  0  0  0  0  0  0  0  0  0  0  0
  -26.2525  -12.7955   20.6262 N   0  0  0  0  0  0  0  0  0  0  0  0
  -29.4938  -21.6807   19.9798 N   0  0  0  0  0  0  0  0  0  0  0  0
  -23.6016  -28.1397   20.6847 N   0  0  0  0  0  0  0  0  0  0  0  0
  -29.9693  -13.6557   20.4554 N   0  0  0  0  0  0  0  0  0  0  0  0
  -25.1318  -12.6791   18.5426 N   0  0  0  0  0  0  0  0  0  0  0  0
  -21.7562  -12.6767   21.5428 N   0  0  0  0  0  0  0  0  0  0  0  0
  -30.0287  -16.0010   20.2139 N   0  0  0  0  0  0  0  0  0  0  0  0
  -24.5183  -30.7265   23.0856 N   0  0  0  0  0  0  0  0  0  0  0  0
  -21.3449  -26.5958   18.6893 N   0  0  0  0  0  0  0  0  0  0  0  0
  -22.5974  -25.4753   15.4887 N   0  3  0  0  0  0  0  0  0  0  0  0
  -29.1692  -23.5244   18.5591 O   0  0  0  0  0  0  0  0  0  0  0  0
  -22.2605  -12.5930   19.3074 O   0  0  0  0  0  0  0  0  0  0  0  0
  -23.6114  -28.5849   23.2021 O   0  0  0  0  0  0  0  0  0  0  0  0
  -21.5591  -29.0898   20.0831 O   0  0  0  0  0  0  0  0  0  0  0  0
  -22.8888  -24.9269   18.2329 O   0  0  0  0  0  0  0  0  0  0  0  0
  -31.8542  -14.6995   19.6178 O   0  0  0  0  0  0  0  0  0  0  0  0
  -22.2756  -12.9059   27.0848 O   0  0  0  0  0  0  0  0  0  0  0  0
  -32.1940  -18.3554   16.6235 O   0  0  0  0  0  0  0  0  0  0  0  0
  -28.9023  -25.0718   21.4218 O   0  0  0  0  0  0  0  0  0  1  0  0
  -17.9365  -16.2426   27.7503 F   0  0  0  0  0  0  0  0  0  0  0  0
  -22.3209  -14.9340   28.9628 F   0  0  0  0  0  0  0  0  0  0  0  0
  1  2  1  0  0  0  0
  1  5  2  0  0  0  0
  2  6  2  0  0  0  0
  3  8  2  0  0  0  0
  3 17  1  0  0  0  0
  4  9  1  0  0  0  0
  4 17  2  0  0  0  0
  5 20  1  0  0  0  0
  6 22  1  0  0  0  0
  7 10  2  0  0  0  0
  7 21  1  0  0  0  0
  8 26  1  0  0  0  0
  9 26  2  0  0  0  0
 10 27  1  0  0  0  0
 11 12  2  0  0  0  0
 11 28  1  0  0  0  0
 12 30  1  0  0  0  0
 13 23  1  0  0  0  0
 13 27  2  0  0  0  0
 14 24  2  0  0  0  0
 14 25  1  0  0  0  0
 15 25  2  0  0  0  0
 15 29  1  0  0  0  0
 16 30  2  0  0  0  0
 16 31  1  0  0  0  0
 17 32  1  0  0  0  0
 18 24  1  0  0  0  0
 18 29  2  0  0  0  0
 18 35  1  0  0  0  0
 19 32  1  0  0  0  0
 19 33  2  0  0  0  0
 19 37  1  0  0  0  0
 20 22  2  0  0  0  0
 20 42  1  0  0  0  0
 21 23  2  0  0  0  0
 21 43  1  0  0  0  0
 22 53  1  0  0  0  0
 23 44  1  0  0  0  0
 24 65  1  0  0  0  0
 25 77  1  0  0  0  0
 26 87  1  0  0  0  0
 27 89  1  0  0  0  0
 28 31  2  0  0  0  0
 28 87  1  0  0  0  0
 29 88  1  0  0  0  0
 30 90  1  0  0  0  0
 31 91  1  0  0  0  0
 32 70  2  0  0  0  0
 33 71  1  0  0  0  0
 33 75  1  0  0  0  0
 34 56  1  0  0  0  0
 34 72  1  0  0  0  0
 34 81  2  0  0  0  0
 35 36  2  0  0  0  0
 36 57  1  0  0  0  0
 37 76  1  0  0  0  0
 37 82  2  0  0  0  0
 38 54  1  0  0  0  0
 38 78  1  0  0  0  0
 38 83  2  0  0  0  0
 39 67  1  0  0  0  0
 39 73  1  0  0  0  0
 39 84  2  0  0  0  0
 40 68  1  0  0  0  0
 40 79  1  0  0  0  0
 40 85  2  0  0  0  0
 41 74  1  0  0  0  0
 41 77  1  0  0  0  0
 41 86  2  0  0  0  0
 42 45  1  0  0  0  0
 43 54  1  0  0  0  0
 44 73  1  0  0  0  0
 45 47  1  0  0  0  0
 46 48  1  0  0  0  0
 46 50  1  0  0  0  0
 47 53  1  0  0  0  0
 48 55  1  0  0  0  0
 49 51  1  0  0  0  0
 49 56  1  0  0  0  0
 50 74  1  0  0  0  0
 51 72  1  0  0  0  0
 52 55  1  0  0  0  0
 52 74  1  0  0  0  0
 53 78  1  0  0  0  0
 54 73  1  0  0  0  0
 55 71  1  0  0  0  0
 56 58  1  0  0  0  0
 56 66  1  0  0  0  0
 59 68  1  0  0  0  0
 60 69  1  0  0  0  0
 61 69  1  0  0  0  0
 62 69  1  0  0  0  0
 63 80  1  0  0  0  0
 64 88  1  0  0  0  0
 65 72  1  0  0  0  0
 66 89  1  0  0  0  0
 67 69  1  0  0  0  0
 67 79  1  0  0  0  0
 68 80  1  0  0  0  0
 70 71  1  0  0  0  0
M  CHG  1  80   1
M  ISO  4  41 100  66 101  77 100  89 101
M  END
> <Batch ID>
0109

> <Smiles>
CC=Cc1c(CN2CCC(C)([101CH2:1][101O:1]c3ccc4c(c3)CN(C(=O)C(NC(=O)C(C)NC)C(C)(C)C)C(C(=O)NC3CCCc5ccccc53)C4)C2=O)cc([100NH:0][100C:0](=O)N2CCCC(n3nc(-c4ccc(Oc5ccc(F)cc5F)cc4)c(C(N)=O)c3N)C2)cc1OC

> <Shape>
0.272

> <Color>
0.093

> <Negative vol penalty>
0.000

$$$$

  -OEChem-04052301233D

 86 95  0     1  0  0  0  0  0999 V2000
  -31.1491  -22.1617   16.8684 C   0  0  0  0  0  0  0  0  0  0  0  0
  -30.4546  -23.2657   16.3870 C   0  0  0  0  0  0  0  0  0  0  0  0
  -24.3074  -15.3507   20.1305 C   0  0  0  0  0  0  0  0  0  0  0  0
  -24.6975  -14.4324   22.3309 C   0  0  0  0  0  0  0  0  0  0  0  0
  -30.8498  -21.6505   18.1295 C   0  0  0  0  0  0  0  0  0  0  0  0
  -29.4690  -23.8661   17.1712 C   0  0  0  0  0  0  0  0  0  0  0  0
  -23.7324  -29.0226   19.1011 C   0  0  0  0  0  0  0  0  0  0  0  0
  -21.8801  -25.0445   24.3428 C   0  0  0  0  0  0  0  0  0  0  0  0
  -22.9100  -24.1277   24.5533 C   0  0  0  0  0  0  0  0  0  0  0  0
  -23.4139  -14.3152   19.8568 C   0  0  0  0  0  0  0  0  0  0  0  0
  -23.8040  -13.3969   22.0572 C   0  0  0  0  0  0  0  0  0  0  0  0
  -22.6548  -29.2163   19.9642 C   0  0  0  0  0  0  0  0  0  0  0  0
  -23.8185  -10.4806   20.3466 C   0  0  0  0  0  0  0  0  0  0  0  0
  -24.2007   -9.1855   20.6959 C   0  0  0  0  0  0  0  0  0  0  0  0
  -24.1103  -28.8533   21.8533 C   0  0  0  0  0  0  0  0  0  0  0  0
  -21.8208  -24.4411   22.0041 C   0  0  0  0  0  0  0  0  0  0  0  0
  -22.2833   -9.0133   22.1557 C   0  0  0  0  0  0  0  0  0  0  0  0
  -24.9493  -15.4093   21.3675 C   0  0  0  0  0  0  0  0  0  0  0  0
  -27.0567  -16.7860   20.9537 C   0  0  0  0  0  0  0  0  0  0  0  0
  -29.8513  -22.2379   18.9238 C   0  0  0  0  0  0  0  0  0  0  0  0
  -25.0070  -28.7315   19.6081 C   0  0  0  0  0  0  0  0  0  0  0  0
  -29.1690  -23.3796   18.4564 C   0  0  0  0  0  0  0  0  0  0  0  0
  -25.2030  -28.6589   20.9946 C   0  0  0  0  0  0  0  0  0  0  0  0
  -22.8508  -23.5243   22.2146 C   0  0  0  0  0  0  0  0  0  0  0  0
  -21.3354  -25.2012   23.0682 C   0  0  0  0  0  0  0  0  0  0  0  0
  -23.3954  -23.3676   23.4892 C   0  0  0  0  0  0  0  0  0  0  0  0
  -23.1621  -13.3383   20.8201 C   0  0  0  0  0  0  0  0  0  0  0  0
  -22.8430  -29.1288   21.3404 C   0  0  0  0  0  0  0  0  0  0  0  0
  -22.6687  -11.0422   20.9019 C   0  0  0  0  0  0  0  0  0  0  0  0
  -23.4331   -8.4518   21.6005 C   0  0  0  0  0  0  0  0  0  0  0  0
  -21.9011  -10.3086   21.8064 C   0  0  0  0  0  0  0  0  0  0  0  0
  -25.8728  -16.4784   21.6507 C   0  0  0  0  0  0  0  0  0  0  0  0
  -27.5675  -17.8789   21.6103 C   0  0  0  0  0  0  0  0  0  0  0  0
  -18.2532  -26.7834   21.7104 C   0  0  0  0  0  0  0  0  0  0  0  0
  -27.6422  -16.1415   19.8146 C   0  0  0  0  0  0  0  0  0  0  0  0
  -27.0159  -26.2813   19.3549 C   0  0  0  0  0  0  0  0  0  0  0  0
  -29.0054  -28.2462   20.9991 C   0  0  0  0  0  0  0  0  0  0  0  0
  -28.7441  -30.5331   23.7775 C   0  0  0  0  0  0  0  0  0  0  0  0
  -25.0787  -22.1751   24.9350 C   0  0  0  0  0  0  0  0  0  0  0  0
  -29.5735  -21.6486   20.2842 C   0  0  0  0  0  0  0  0  0  0  0  0
  -26.1646  -28.5517   18.6647 C   0  0  0  0  0  0  0  0  0  0  0  0
  -26.5557  -28.3689   21.5901 C   0  0  0  0  0  0  0  0  0  0  0  0
  -18.2308  -28.1048   22.4407 C   0  0  0  0  0  0  0  0  0  0  0  0
  -19.0132  -25.6456   22.3535 C   0  0  0  0  0  0  0  0  0  0  0  0
  -28.2220  -22.0716   20.8507 C   0  0  0  0  0  0  0  0  0  0  0  0
  -27.6678  -19.9428   25.9305 C   0  0  0  0  0  0  0  0  0  0  0  0
  -28.0640  -23.5811   20.7458 C   0  0  0  0  0  0  0  0  0  0  0  0
  -27.6130  -18.8322   24.8791 C   0  0  0  0  0  0  0  0  0  0  0  0
  -26.2742  -20.4617   26.2805 C   0  0  0  0  0  0  0  0  0  0  0  0
  -20.2975  -27.3509   23.6594 C   0  0  0  0  0  0  0  0  0  0  0  0
  -25.4070  -19.7715   24.0803 C   0  0  0  0  0  0  0  0  0  0  0  0
  -28.0717  -24.0304   19.2791 C   0  0  1  0  0  0  0  0  0  0  0  0
  -27.3125  -27.7520   19.2730 C   0  0  1  0  0  0  0  0  0  0  0  0
  -19.6370  -28.4997   22.8868 C   0  0  1  0  0  0  0  0  0  0  0  0
  -26.7915  -19.2618   23.6478 C   0  0  2  0  0  0  0  0  0  0  0  0
  -23.3502  -22.7224   21.0567 C   0  0  0  0  0  0  0  0  0  0  0  0
  -30.1031  -32.5625   24.3535 C   0  0  0  0  0  0  0  0  0  0  0  0
  -30.6337  -26.3135   22.7089 C   0  0  0  0  0  0  0  0  0  0  0  0
  -30.8298  -28.1158   24.4356 C   0  0  0  0  0  0  0  0  0  0  0  0
  -31.7983  -28.4581   22.1624 C   0  0  0  0  0  0  0  0  0  0  0  0
  -26.3383  -32.2523   23.9002 C   0  0  0  0  0  0  0  0  0  0  0  0
  -20.4994  -28.9527   21.7044 C   0  0  0  0  0  0  0  0  0  1  0  0
  -29.2880  -28.5028   22.4597 C   0  0  1  0  0  0  0  0  0  0  0  0
  -28.8210  -32.0480   23.7179 C   0  0  2  0  0  0  0  0  0  0  0  0
  -30.6119  -27.8388   22.9328 C   0  0  0  0  0  0  0  0  0  0  0  0
  -25.6451  -17.3087   22.6718 N   0  0  0  0  0  0  0  0  0  0  0  0
  -26.6929  -18.1487   22.6214 N   0  0  0  0  0  0  0  0  0  0  0  0
  -20.3016  -26.1207   22.8574 N   0  0  1  0  0  0  0  0  0  0  0  0
  -27.6548  -28.1945   20.6263 N   0  0  0  0  0  0  0  0  0  0  0  0
  -25.5564  -20.8539   25.0656 N   0  0  0  0  0  0  0  0  0  0  0  0
  -28.6751  -18.6257   21.4156 N   0  0  0  0  0  0  0  0  0  0  0  0
  -26.9862  -15.0319   19.2643 N   0  0  0  0  0  0  0  0  0  0  0  0
  -24.4409  -22.4405   23.7237 N   0  0  0  0  0  0  0  0  0  0  0  0
  -28.1307  -25.4746   19.2281 N   0  0  0  0  0  0  0  0  0  0  0  0
  -29.2499  -29.9507   22.6346 N   0  0  0  0  0  0  0  0  0  0  0  0
  -27.6643  -32.6540   24.4362 N   0  3  0  0  0  0  0  0  0  0  0  0
  -17.5855  -26.6088   20.6907 O   0  0  0  0  0  0  0  0  0  0  0  0
  -28.7237  -16.5278   19.3102 O   0  0  0  0  0  0  0  0  0  0  0  0
  -25.8614  -25.9062   19.5223 O   0  0  0  0  0  0  0  0  0  0  0  0
  -29.9483  -28.1042   20.2166 O   0  0  0  0  0  0  0  0  0  0  0  0
  -28.2849  -29.9269   24.7430 O   0  0  0  0  0  0  0  0  0  0  0  0
  -25.2487  -23.0171   25.8205 O   0  0  0  0  0  0  0  0  0  0  0  0
  -22.2901  -12.3279   20.5534 O   0  0  0  0  0  0  0  0  0  0  0  0
  -21.7928  -29.3168   22.1851 O   0  0  0  0  0  0  0  0  0  1  0  0
  -23.7995   -7.2075   21.9347 F   0  0  0  0  0  0  0  0  0  0  0  0
  -20.7948  -10.8423   22.3422 F   0  0  0  0  0  0  0  0  0  0  0  0
  1  2  1  0  0  0  0
  1  5  2  0  0  0  0
  2  6  2  0  0  0  0
  3 10  2  0  0  0  0
  3 18  1  0  0  0  0
  4 11  1  0  0  0  0
  4 18  2  0  0  0  0
  5 20  1  0  0  0  0
  6 22  1  0  0  0  0
  7 12  2  0  0  0  0
  7 21  1  0  0  0  0
  8  9  2  0  0  0  0
  8 25  1  0  0  0  0
  9 26  1  0  0  0  0
 10 27  1  0  0  0  0
 11 27  2  0  0  0  0
 12 28  1  0  0  0  0
 13 14  2  0  0  0  0
 13 29  1  0  0  0  0
 14 30  1  0  0  0  0
 15 23  1  0  0  0  0
 15 28  2  0  0  0  0
 16 24  1  0  0  0  0
 16 25  2  0  0  0  0
 17 30  2  0  0  0  0
 17 31  1  0  0  0  0
 18 32  1  0  0  0  0
 19 32  1  0  0  0  0
 19 33  2  0  0  0  0
 19 35  1  0  0  0  0
 20 22  2  0  0  0  0
 20 40  1  0  0  0  0
 21 23  2  0  0  0  0
 21 41  1  0  0  0  0
 22 52  1  0  0  0  0
 23 42  1  0  0  0  0
 24 26  2  0  0  0  0
 24 56  1  0  0  0  0
 25 68  1  0  0  0  0
 26 73  1  0  0  0  0
 27 83  1  0  0  0  0
 28 84  1  0  0  0  0
 29 31  2  0  0  0  0
 29 83  1  0  0  0  0
 30 85  1  0  0  0  0
 31 86  1  0  0  0  0
 32 66  2  0  0  0  0
 33 67  1  0  0  0  0
 33 71  1  0  0  0  0
 34 43  1  0  0  0  0
 34 44  1  0  0  0  0
 34 77  2  0  0  0  0
 35 72  1  0  0  0  0
 35 78  2  0  0  0  0
 36 53  1  0  0  0  0
 36 74  1  0  0  0  0
 36 79  2  0  0  0  0
 37 63  1  0  0  0  0
 37 69  1  0  0  0  0
 37 80  2  0  0  0  0
 38 64  1  0  0  0  0
 38 75  1  0  0  0  0
 38 81  2  0  0  0  0
 39 70  1  0  0  0  0
 39 73  1  0  0  0  0
 39 82  2  0  0  0  0
 40 45  1  0  0  0  0
 41 53  1  0  0  0  0
 42 69  1  0  0  0  0
 43 54  1  0  0  0  0
 44 68  1  0  0  0  0
 45 47  1  0  0  0  0
 46 48  1  0  0  0  0
 46 49  1  0  0  0  0
 47 52  1  0  0  0  0
 48 55  1  0  0  0  0
 49 70  1  0  0  0  0
 50 54  1  0  0  0  0
 50 68  1  0  0  0  0
 51 55  1  0  0  0  0
 51 70  1  0  0  0  0
 52 74  1  0  0  0  0
 53 69  1  0  0  0  0
 54 62  1  0  0  0  0
 55 67  1  0  0  0  0
 57 64  1  0  0  0  0
 58 65  1  0  0  0  0
 59 65  1  0  0  0  0
 60 65  1  0  0  0  0
 61 76  1  0  0  0  0
 62 84  1  0  0  0  0
 63 65  1  0  0  0  0
 63 75  1  0  0  0  0
 64 76  1  0  0  0  0
 66 67  1  0  0  0  0
M  CHG  1  76   1
M  ISO  4  39 100  62 101  73 100  84 101
M  END
> <Batch ID>
0109

> <Smiles>
CNC(C)C(=O)NC(C(=O)N1Cc2cc([101O:1][101CH2:1]C3CC(=O)CN(c4ccc([100NH:0][100C:0](=O)N5CCCC(n6nc(-c7ccc(Oc8ccc(F)cc8F)cc7)c(C(N)=O)c6N)C5)c(C)c4)C3)ccc2CC1C(=O)NC1CCCc2ccccc21)C(C)(C)C

> <Shape>
0.266

> <Color>
0.048

> <Negative vol penalty>
0.000

$$$$

  -OEChem-04052301233D

 88 96  0     1  0  0  0  0  0999 V2000
  -36.7328  -27.6960   21.6848 C   0  0  0  0  0  0  0  0  0  0  0  0
  -35.6318  -26.9034   21.9928 C   0  0  0  0  0  0  0  0  0  0  0  0
  -23.4548   -9.6804   19.8764 C   0  0  0  0  0  0  0  0  0  0  0  0
  -23.7868   -9.8817   22.2610 C   0  0  0  0  0  0  0  0  0  0  0  0
  -36.7403  -29.0446   22.0387 C   0  0  0  0  0  0  0  0  0  0  0  0
  -34.5380  -27.4587   22.6559 C   0  0  0  0  0  0  0  0  0  0  0  0
  -30.1168  -26.0541   20.6249 C   0  0  0  0  0  0  0  0  0  0  0  0
  -22.8008   -8.4638   20.0701 C   0  0  0  0  0  0  0  0  0  0  0  0
  -23.1327   -8.6650   22.4548 C   0  0  0  0  0  0  0  0  0  0  0  0
  -29.6493  -24.7783   20.9373 C   0  0  0  0  0  0  0  0  0  0  0  0
  -19.9483   -7.5370   22.5417 C   0  0  0  0  0  0  0  0  0  0  0  0
  -19.0020   -7.4673   23.5641 C   0  0  0  0  0  0  0  0  0  0  0  0
  -30.4334  -15.4701   23.4133 C   0  0  0  0  0  0  0  0  0  0  0  0
  -28.1675  -25.7313   22.5851 C   0  0  0  0  0  0  0  0  0  0  0  0
  -28.9852  -16.4214   25.0970 C   0  0  0  0  0  0  0  0  0  0  0  0
  -20.2840   -5.7195   24.6313 C   0  0  0  0  0  0  0  0  0  0  0  0
  -23.9479  -10.3894   20.9719 C   0  0  0  0  0  0  0  0  0  0  0  0
  -29.9882  -14.1924   23.7522 C   0  0  0  0  0  0  0  0  0  0  0  0
  -29.0414  -14.0292   24.7635 C   0  0  0  0  0  0  0  0  0  0  0  0
  -24.0442  -12.9285   20.7451 C   0  0  0  0  0  0  0  0  0  0  0  0
  -35.6421  -29.6190   22.6979 C   0  0  0  0  0  0  0  0  0  0  0  0
  -29.6202  -27.1790   21.2990 C   0  0  0  0  0  0  0  0  0  0  0  0
  -34.5314  -28.8159   23.0202 C   0  0  0  0  0  0  0  0  0  0  0  0
  -28.6285  -27.0205   22.2776 C   0  0  0  0  0  0  0  0  0  0  0  0
  -22.6397   -7.9560   21.3593 C   0  0  0  0  0  0  0  0  0  0  0  0
  -28.6766  -24.6165   21.9195 C   0  0  0  0  0  0  0  0  0  0  0  0
  -21.0624   -6.6980   22.5641 C   0  0  0  0  0  0  0  0  0  0  0  0
  -29.9320  -16.5846   24.0858 C   0  0  0  0  0  0  0  0  0  0  0  0
  -28.5399  -15.1437   25.4359 C   0  0  0  0  0  0  0  0  0  0  0  0
  -19.1699   -6.5586   24.6089 C   0  0  0  0  0  0  0  0  0  0  0  0
  -21.2302   -5.7892   23.6089 C   0  0  0  0  0  0  0  0  0  0  0  0
  -24.6241  -11.6460   20.7724 C   0  0  0  0  0  0  0  0  0  0  0  0
  -25.1008  -13.7785   20.5271 C   0  0  0  0  0  0  0  0  0  0  0  0
  -28.5686  -12.6959   25.1251 C   0  0  0  0  0  0  0  0  0  0  0  0
  -27.4960  -12.0712   24.5964 C   0  0  0  0  0  0  0  0  0  0  0  0
  -30.5393  -13.0558   23.0227 C   0  0  0  0  0  0  0  0  0  0  0  0
  -22.6730  -13.3167   20.9027 C   0  0  0  0  0  0  0  0  0  0  0  0
  -30.9832  -13.1884   21.6161 C   0  0  0  0  0  0  0  0  0  0  0  0
  -30.8881  -29.4130   23.1712 C   0  0  0  0  0  0  0  0  0  0  0  0
  -27.9254  -30.7172   22.9622 C   0  0  0  0  0  0  0  0  0  0  0  0
  -24.5911  -30.2583   22.3975 C   0  0  0  0  0  0  0  0  0  0  0  0
  -35.7158  -31.0701   23.1023 C   0  0  0  0  0  0  0  0  0  0  0  0
  -30.1156  -28.5508   20.9316 C   0  0  0  0  0  0  0  0  0  0  0  0
  -28.0481  -28.1978   23.0163 C   0  0  0  0  0  0  0  0  0  0  0  0
  -34.3609  -31.6696   23.4697 C   0  0  0  0  0  0  0  0  0  0  0  0
  -29.4145  -13.9612   18.4858 C   0  0  0  0  0  0  0  0  0  0  0  0
  -33.5965  -30.7319   24.3988 C   0  0  0  0  0  0  0  0  0  0  0  0
  -27.9630  -13.5351   18.7036 C   0  0  0  0  0  0  0  0  0  0  0  0
  -30.3823  -13.0479   19.2312 C   0  0  0  0  0  0  0  0  0  0  0  0
  -28.6471  -12.5113   20.9193 C   0  0  0  0  0  0  0  0  0  0  0  0
  -33.3156  -29.3876   23.7167 C   0  0  1  0  0  0  0  0  0  0  0  0
  -29.9109  -29.5771   22.0417 C   0  0  1  0  0  0  0  0  0  0  0  0
  -27.6385  -13.4272   20.2041 C   0  0  2  0  0  0  0  0  0  0  0  0
  -27.0427  -10.7071   25.0045 C   0  0  0  0  0  0  0  0  0  0  0  0
  -22.4141  -31.5049   22.3334 C   0  0  0  0  0  0  0  0  0  0  0  0
  -27.8739  -30.7792   26.0124 C   0  0  0  0  0  0  0  0  0  0  0  0
  -25.3961  -31.1173   25.8943 C   0  0  0  0  0  0  0  0  0  0  0  0
  -26.9335  -32.8183   24.9115 C   0  0  0  0  0  0  0  0  0  0  0  0
  -24.1615  -29.5943   19.5455 C   0  0  0  0  0  0  0  0  0  0  0  0
  -28.1078  -14.8580   27.7570 C   0  0  0  0  0  0  0  0  0  0  0  0
  -28.7952  -21.1758   23.0479 C   0  0  0  0  0  0  0  0  0  0  0  0
  -29.7576  -20.0002   22.9192 C   0  0  0  0  0  0  0  0  0  0  0  0
  -29.1293  -22.2860   22.0604 C   0  0  0  0  0  0  0  0  0  1  0  0
  -29.4508  -18.9087   23.9347 C   0  0  0  0  0  0  0  0  0  0  0  0
  -26.6439  -30.5913   23.7502 C   0  0  1  0  0  0  0  0  0  0  0  0
  -23.6042  -31.0124   21.5247 C   0  0  2  0  0  0  0  0  0  0  0  0
  -26.7240  -31.3040   25.1297 C   0  0  0  0  0  0  0  0  0  0  0  0
  -25.9465  -11.6740   20.5864 N   0  0  0  0  0  0  0  0  0  0  0  0
  -30.6778  -11.8714   23.5486 N   0  0  0  0  0  0  0  0  0  0  0  0
  -26.2063  -12.9844   20.4401 N   0  0  0  0  0  0  0  0  0  0  0  0
  -30.0245  -12.9390   20.6440 N   0  0  0  0  0  0  0  0  0  0  0  0
  -28.5694  -29.5181   22.6257 N   0  0  0  0  0  0  0  0  0  0  0  0
  -25.1829  -15.1202   20.4032 N   0  0  0  0  0  0  0  0  0  0  0  0
  -21.7160  -12.3160   21.1197 N   0  0  0  0  0  0  0  0  0  0  0  0
  -32.2122  -29.5126   22.7886 N   0  0  0  0  0  0  0  0  0  0  0  0
  -25.5809  -31.0868   22.8825 N   0  0  0  0  0  0  0  0  0  0  0  0
  -23.0989  -30.1315   20.4340 N   0  3  0  0  0  0  0  0  0  0  0  0
  -22.3051  -14.5141   20.8364 O   0  0  0  0  0  0  0  0  0  0  0  0
  -32.1553  -13.5051   21.4606 O   0  0  0  0  0  0  0  0  0  0  0  0
  -30.4716  -29.2124   24.3061 O   0  0  0  0  0  0  0  0  0  0  0  0
  -28.3360  -31.8378   22.6504 O   0  0  0  0  0  0  0  0  0  0  0  0
  -24.4918  -29.0553   22.6291 O   0  0  0  0  0  0  0  0  0  0  0  0
  -22.0014   -6.7690   21.5487 O   0  0  0  0  0  0  0  0  0  0  0  0
  -27.6139  -15.0159   26.4292 O   0  0  0  0  0  0  0  0  0  0  0  0
  -28.2190  -23.3723   22.2268 O   0  0  0  0  0  0  0  0  0  1  0  0
  -30.3697  -17.8403   23.7530 O   0  0  0  0  0  0  0  0  0  0  0  0
  -18.2619   -6.4928   25.5915 F   0  0  0  0  0  0  0  0  0  0  0  0
  -22.2991   -4.9814   23.6364 F   0  0  0  0  0  0  0  0  0  0  0  0
  1  2  1  0  0  0  0
  1  5  2  0  0  0  0
  2  6  2  0  0  0  0
  3  8  2  0  0  0  0
  3 17  1  0  0  0  0
  4  9  1  0  0  0  0
  4 17  2  0  0  0  0
  5 21  1  0  0  0  0
  6 23  1  0  0  0  0
  7 10  2  0  0  0  0
  7 22  1  0  0  0  0
  8 25  1  0  0  0  0
  9 25  2  0  0  0  0
 10 26  1  0  0  0  0
 11 12  2  0  0  0  0
 11 27  1  0  0  0  0
 12 30  1  0  0  0  0
 13 18  1  0  0  0  0
 13 28  2  0  0  0  0
 14 24  1  0  0  0  0
 14 26  2  0  0  0  0
 15 28  1  0  0  0  0
 15 29  2  0  0  0  0
 16 30  2  0  0  0  0
 16 31  1  0  0  0  0
 17 32  1  0  0  0  0
 18 19  2  0  0  0  0
 18 36  1  0  0  0  0
 19 29  1  0  0  0  0
 19 34  1  0  0  0  0
 20 32  1  0  0  0  0
 20 33  2  0  0  0  0
 20 37  1  0  0  0  0
 21 23  2  0  0  0  0
 21 42  1  0  0  0  0
 22 24  2  0  0  0  0
 22 43  1  0  0  0  0
 23 51  1  0  0  0  0
 24 44  1  0  0  0  0
 25 83  1  0  0  0  0
 26 85  1  0  0  0  0
 27 31  2  0  0  0  0
 27 83  1  0  0  0  0
 28 86  1  0  0  0  0
 29 84  1  0  0  0  0
 30 87  1  0  0  0  0
 31 88  1  0  0  0  0
 32 68  2  0  0  0  0
 33 70  1  0  0  0  0
 33 73  1  0  0  0  0
 34 35  2  0  0  0  0
 35 54  1  0  0  0  0
 36 38  1  0  0  0  0
 36 69  2  0  0  0  0
 37 74  1  0  0  0  0
 37 78  2  0  0  0  0
 38 71  1  0  0  0  0
 38 79  2  0  0  0  0
 39 52  1  0  0  0  0
 39 75  1  0  0  0  0
 39 80  2  0  0  0  0
 40 65  1  0  0  0  0
 40 72  1  0  0  0  0
 40 81  2  0  0  0  0
 41 66  1  0  0  0  0
 41 76  1  0  0  0  0
 41 82  2  0  0  0  0
 42 45  1  0  0  0  0
 43 52  1  0  0  0  0
 44 72  1  0  0  0  0
 45 47  1  0  0  0  0
 46 48  1  0  0  0  0
 46 49  1  0  0  0  0
 47 51  1  0  0  0  0
 48 53  1  0  0  0  0
 49 71  1  0  0  0  0
 50 53  1  0  0  0  0
 50 71  1  0  0  0  0
 51 75  1  0  0  0  0
 52 72  1  0  0  0  0
 53 70  1  0  0  0  0
 55 66  1  0  0  0  0
 56 67  1  0  0  0  0
 57 67  1  0  0  0  0
 58 67  1  0  0  0  0
 59 77  1  0  0  0  0
 60 84  1  0  0  0  0
 61 62  1  0  0  0  0
 61 63  1  0  0  0  0
 62 64  1  0  0  0  0
 63 85  1  0  0  0  0
 64 86  1  0  0  0  0
 65 67  1  0  0  0  0
 65 76  1  0  0  0  0
 66 77  1  0  0  0  0
 68 70  1  0  0  0  0
M  CHG  1  77   1
M  ISO  4  36 100  38 100  63 101  85 101
M  END
> <Batch ID>
0109

> <Smiles>
CC=Cc1c(OC)cc(OCCC[101CH2:1][101O:1]c2ccc3c(c2)CN(C(=O)C(NC(=O)C(C)NC)C(C)(C)C)C(C(=O)NC2CCCc4ccccc42)C3)cc1[100C:0](=N)[100C:0](=O)N1CCCC(n2nc(-c3ccc(Oc4ccc(F)cc4F)cc3)c(C(N)=O)c2N)C1

> <Shape>
0.261

> <Color>
0.184

> <Negative vol penalty>
0.000

$$$$

  -OEChem-04052301233D

 87 96  0     1  0  0  0  0  0999 V2000
  -32.2496  -28.1344   20.3032 C   0  0  0  0  0  0  0  0  0  0  0  0
  -30.9071  -27.8217   20.4911 C   0  0  0  0  0  0  0  0  0  0  0  0
  -22.3429  -10.4298   20.6152 C   0  0  0  0  0  0  0  0  0  0  0  0
  -24.1373   -9.6258   22.0190 C   0  0  0  0  0  0  0  0  0  0  0  0
  -32.8765  -29.0479   21.1497 C   0  0  0  0  0  0  0  0  0  0  0  0
  -30.1909  -28.4215   21.5263 C   0  0  0  0  0  0  0  0  0  0  0  0
  -25.6209  -30.0282   20.0506 C   0  0  0  0  0  0  0  0  0  0  0  0
  -22.7017  -22.0372   23.2370 C   0  0  0  0  0  0  0  0  0  0  0  0
  -23.2728  -20.8129   23.5842 C   0  0  0  0  0  0  0  0  0  0  0  0
  -21.7797   -9.1538   20.6042 C   0  0  0  0  0  0  0  0  0  0  0  0
  -23.5740   -8.3497   22.0082 C   0  0  0  0  0  0  0  0  0  0  0  0
  -24.6186  -29.0675   19.9236 C   0  0  0  0  0  0  0  0  0  0  0  0
  -21.0403   -6.7340   23.5542 C   0  0  0  0  0  0  0  0  0  0  0  0
  -20.9607   -6.0520   24.7683 C   0  0  0  0  0  0  0  0  0  0  0  0
  -23.7401  -29.7079   22.0770 C   0  0  0  0  0  0  0  0  0  0  0  0
  -22.7869  -21.4153   20.9040 C   0  0  0  0  0  0  0  0  0  0  0  0
  -22.3343   -4.2820   23.8643 C   0  0  0  0  0  0  0  0  0  0  0  0
  -23.5218  -10.6658   21.3225 C   0  0  0  0  0  0  0  0  0  0  0  0
  -24.5507  -12.7252   20.2235 C   0  0  0  0  0  0  0  0  0  0  0  0
  -32.1651  -29.6665   22.1898 C   0  0  0  0  0  0  0  0  0  0  0  0
  -25.6969  -30.8299   21.1986 C   0  0  0  0  0  0  0  0  0  0  0  0
  -30.8092  -29.3431   22.3884 C   0  0  0  0  0  0  0  0  0  0  0  0
  -24.7428  -30.6798   22.2151 C   0  0  0  0  0  0  0  0  0  0  0  0
  -22.4587  -22.3384   21.8969 C   0  0  0  0  0  0  0  0  0  0  0  0
  -23.6011  -19.8899   22.5913 C   0  0  0  0  0  0  0  0  0  0  0  0
  -22.3952   -8.1138   21.3007 C   0  0  0  0  0  0  0  0  0  0  0  0
  -23.6797  -28.9052   20.9381 C   0  0  0  0  0  0  0  0  0  0  0  0
  -21.7669   -6.1899   22.4950 C   0  0  0  0  0  0  0  0  0  0  0  0
  -23.3581  -20.1911   21.2512 C   0  0  0  0  0  0  0  0  0  0  0  0
  -21.6076   -4.8260   24.9234 C   0  0  0  0  0  0  0  0  0  0  0  0
  -22.4139   -4.9639   22.6501 C   0  0  0  0  0  0  0  0  0  0  0  0
  -24.1044  -11.9836   21.3337 C   0  0  0  0  0  0  0  0  0  0  0  0
  -25.0146  -13.9013   20.7602 C   0  0  0  0  0  0  0  0  0  0  0  0
  -21.7130  -25.9901   21.7490 C   0  0  0  0  0  0  0  0  0  0  0  0
  -22.4339  -24.8450   21.8243 C   0  0  0  0  0  0  0  0  0  0  0  0
  -20.2556  -25.8870   21.4023 C   0  0  0  0  0  0  0  0  0  0  0  0
  -24.5462  -12.3818   18.8315 C   0  0  0  0  0  0  0  0  0  0  0  0
  -27.8490  -31.2554   23.4989 C   0  0  0  0  0  0  0  0  0  0  0  0
  -25.8187  -33.6090   24.4265 C   0  0  0  0  0  0  0  0  0  0  0  0
  -22.2489  -34.0448   24.7158 C   0  0  0  0  0  0  0  0  0  0  0  0
  -24.4809  -18.2085   24.2482 C   0  0  0  0  0  0  0  0  0  0  0  0
  -32.8979  -30.6119   23.1085 C   0  0  0  0  0  0  0  0  0  0  0  0
  -26.7682  -31.8800   21.3085 C   0  0  0  0  0  0  0  0  0  0  0  0
  -24.7685  -31.5293   23.4586 C   0  0  0  0  0  0  0  0  0  0  0  0
  -19.6361  -24.5146   21.2921 C   0  0  0  0  0  0  0  0  0  0  0  0
  -31.9704  -31.4856   23.9491 C   0  0  0  0  0  0  0  0  0  0  0  0
  -25.8753  -15.2122   25.5730 C   0  0  0  0  0  0  0  0  0  0  0  0
  -30.8596  -30.6434   24.5684 C   0  0  0  0  0  0  0  0  0  0  0  0
  -25.5756  -14.1661   24.4969 C   0  0  0  0  0  0  0  0  0  0  0  0
  -20.6297  -23.4880   20.7771 C   0  0  0  0  0  0  0  0  0  0  0  0
  -24.7365  -16.2203   25.7168 C   0  0  0  0  0  0  0  0  0  0  0  0
  -24.0239  -15.8267   23.3916 C   0  0  0  0  0  0  0  0  0  0  0  0
  -29.9922  -29.9915   23.4848 C   0  0  1  0  0  0  0  0  0  0  0  0
  -27.0578  -32.2897   22.7492 C   0  0  1  0  0  0  0  0  0  0  0  0
  -25.1704  -14.8278   23.1651 C   0  0  2  0  0  0  0  0  0  0  0  0
  -23.9221  -24.9060   22.1091 C   0  0  0  0  0  0  0  0  0  0  0  0
  -20.8447  -36.1218   24.6071 C   0  0  0  0  0  0  0  0  0  0  0  0
  -26.0908  -33.6033   27.4656 C   0  0  0  0  0  0  0  0  0  0  0  0
  -23.7122  -34.3710   27.6104 C   0  0  0  0  0  0  0  0  0  0  0  0
  -25.4163  -35.8018   26.4828 C   0  0  0  0  0  0  0  0  0  0  0  0
  -20.5647  -32.9326   22.5511 C   0  0  0  0  0  0  0  0  0  0  0  0
  -22.2100  -27.3816   22.0220 C   0  0  0  0  0  0  0  0  0  1  0  0
  -24.6223  -33.6889   25.3438 C   0  0  1  0  0  0  0  0  0  0  0  0
  -21.3658  -34.9160   23.8407 C   0  0  2  0  0  0  0  0  0  0  0  0
  -24.9671  -34.3422   26.7119 C   0  0  0  0  0  0  0  0  0  0  0  0
  -24.2701  -12.6339   22.4886 N   0  0  0  0  0  0  0  0  0  0  0  0
  -24.8257  -13.7965   22.1069 N   0  0  0  0  0  0  0  0  0  0  0  0
  -21.8770  -23.5834   21.5437 N   0  0  0  0  0  0  0  0  0  0  0  0
  -25.8391  -32.5379   23.5221 N   0  0  0  0  0  0  0  0  0  0  0  0
  -24.4101  -16.8094   24.4163 N   0  0  0  0  0  0  0  0  0  0  0  0
  -25.5618  -15.0044   20.2069 N   0  0  0  0  0  0  0  0  0  0  0  0
  -25.6653  -11.7250   18.3017 N   0  0  0  0  0  0  0  0  0  0  0  0
  -24.1803  -18.6504   22.9602 N   0  0  0  0  0  0  0  0  0  0  0  0
  -29.0708  -30.9575   22.9260 N   0  0  0  0  0  0  0  0  0  0  0  0
  -23.5801  -34.3835   24.5956 N   0  0  0  0  0  0  0  0  0  0  0  0
  -20.1983  -34.1351   23.3428 N   0  3  0  0  0  0  0  0  0  0  0  0
  -19.5668  -26.8977   21.2654 O   0  0  0  0  0  0  0  0  0  0  0  0
  -23.5853  -12.6640   18.0761 O   0  0  0  0  0  0  0  0  0  0  0  0
  -27.3861  -30.7651   24.5220 O   0  0  0  0  0  0  0  0  0  0  0  0
  -26.6991  -34.4695   24.5046 O   0  0  0  0  0  0  0  0  0  0  0  0
  -21.8020  -33.1554   25.4368 O   0  0  0  0  0  0  0  0  0  0  0  0
  -24.8123  -18.9571   25.1712 O   0  0  0  0  0  0  0  0  0  0  0  0
  -23.6708  -19.3031   20.2652 O   0  0  0  0  0  0  0  0  0  0  0  0
  -21.8457   -6.8685   21.2905 O   0  0  0  0  0  0  0  0  0  0  0  0
  -22.7007  -27.9678   20.8170 O   0  0  0  0  0  0  0  0  0  1  0  0
  -21.5323   -4.1720   26.0899 F   0  0  0  0  0  0  0  0  0  0  0  0
  -23.1144   -4.4368   21.6366 F   0  0  0  0  0  0  0  0  0  0  0  0
  1  2  1  0  0  0  0
  1  5  2  0  0  0  0
  2  6  2  0  0  0  0
  3 10  2  0  0  0  0
  3 18  1  0  0  0  0
  4 11  1  0  0  0  0
  4 18  2  0  0  0  0
  5 20  1  0  0  0  0
  6 22  1  0  0  0  0
  7 12  2  0  0  0  0
  7 21  1  0  0  0  0
  8  9  2  0  0  0  0
  8 24  1  0  0  0  0
  9 25  1  0  0  0  0
 10 26  1  0  0  0  0
 11 26  2  0  0  0  0
 12 27  1  0  0  0  0
 13 14  2  0  0  0  0
 13 28  1  0  0  0  0
 14 30  1  0  0  0  0
 15 23  1  0  0  0  0
 15 27  2  0  0  0  0
 16 24  2  0  0  0  0
 16 29  1  0  0  0  0
 17 30  2  0  0  0  0
 17 31  1  0  0  0  0
 18 32  1  0  0  0  0
 19 32  1  0  0  0  0
 19 33  2  0  0  0  0
 19 37  1  0  0  0  0
 20 22  2  0  0  0  0
 20 42  1  0  0  0  0
 21 23  2  0  0  0  0
 21 43  1  0  0  0  0
 22 53  1  0  0  0  0
 23 44  1  0  0  0  0
 24 68  1  0  0  0  0
 25 29  2  0  0  0  0
 25 73  1  0  0  0  0
 26 84  1  0  0  0  0
 27 85  1  0  0  0  0
 28 31  2  0  0  0  0
 28 84  1  0  0  0  0
 29 83  1  0  0  0  0
 30 86  1  0  0  0  0
 31 87  1  0  0  0  0
 32 66  2  0  0  0  0
 33 67  1  0  0  0  0
 33 71  1  0  0  0  0
 34 35  2  0  0  0  0
 34 36  1  0  0  0  0
 34 62  1  0  0  0  0
 35 56  1  0  0  0  0
 35 68  1  0  0  0  0
 36 45  1  0  0  0  0
 36 77  2  0  0  0  0
 37 72  1  0  0  0  0
 37 78  2  0  0  0  0
 38 54  1  0  0  0  0
 38 74  1  0  0  0  0
 38 79  2  0  0  0  0
 39 63  1  0  0  0  0
 39 69  1  0  0  0  0
 39 80  2  0  0  0  0
 40 64  1  0  0  0  0
 40 75  1  0  0  0  0
 40 81  2  0  0  0  0
 41 70  1  0  0  0  0
 41 73  1  0  0  0  0
 41 82  2  0  0  0  0
 42 46  1  0  0  0  0
 43 54  1  0  0  0  0
 44 69  1  0  0  0  0
 45 50  1  0  0  0  0
 46 48  1  0  0  0  0
 47 49  1  0  0  0  0
 47 51  1  0  0  0  0
 48 53  1  0  0  0  0
 49 55  1  0  0  0  0
 50 68  1  0  0  0  0
 51 70  1  0  0  0  0
 52 55  1  0  0  0  0
 52 70  1  0  0  0  0
 53 74  1  0  0  0  0
 54 69  1  0  0  0  0
 55 67  1  0  0  0  0
 57 64  1  0  0  0  0
 58 65  1  0  0  0  0
 59 65  1  0  0  0  0
 60 65  1  0  0  0  0
 61 76  1  0  0  0  0
 62 85  1  0  0  0  0
 63 65  1  0  0  0  0
 63 75  1  0  0  0  0
 64 76  1  0  0  0  0
 66 67  1  0  0  0  0
M  CHG  1  76   1
M  ISO  4  41 100  62 101  73 100  85 101
M  END
> <Batch ID>
0109

> <Smiles>
CNC(C)C(=O)NC(C(=O)N1Cc2cc([101O:1][101CH2:1]C3=C(C)N(c4ccc([100NH:0][100C:0](=O)N5CCCC(n6nc(-c7ccc(Oc8ccc(F)cc8F)cc7)c(C(N)=O)c6N)C5)c(O)c4)CCC3=O)ccc2CC1C(=O)NC1CCCc2ccccc21)C(C)(C)C

> <Shape>
0.227

> <Color>
0.112

> <Negative vol penalty>
0.000

$$$$

  -OEChem-04052301233D

 87 96  0     1  0  0  0  0  0999 V2000
  -32.2247  -13.8955   21.2179 C   0  0  0  0  0  0  0  0  0  0  0  0
  -31.4547  -15.0073   21.5445 C   0  0  0  0  0  0  0  0  0  0  0  0
  -18.2045  -25.9834   21.5926 C   0  0  0  0  0  0  0  0  0  0  0  0
  -26.6540  -24.5285   18.0516 C   0  0  0  0  0  0  0  0  0  0  0  0
  -28.3719  -26.0163   18.8717 C   0  0  0  0  0  0  0  0  0  0  0  0
  -31.6695  -12.8610   20.4660 C   0  0  0  0  0  0  0  0  0  0  0  0
  -30.1293  -15.0855   21.1184 C   0  0  0  0  0  0  0  0  0  0  0  0
  -25.4390  -17.6263   24.1270 C   0  0  0  0  0  0  0  0  0  0  0  0
  -18.7457  -27.2301   21.9065 C   0  0  0  0  0  0  0  0  0  0  0  0
  -18.7169  -24.8307   22.1879 C   0  0  0  0  0  0  0  0  0  0  0  0
  -27.5238  -23.4471   18.1914 C   0  0  0  0  0  0  0  0  0  0  0  0
  -29.2417  -24.9348   19.0116 C   0  0  0  0  0  0  0  0  0  0  0  0
  -24.8231  -18.8727   24.0235 C   0  0  0  0  0  0  0  0  0  0  0  0
  -28.6672  -21.4769   20.6902 C   0  0  0  0  0  0  0  0  0  0  0  0
  -28.1673  -20.3147   21.2774 C   0  0  0  0  0  0  0  0  0  0  0  0
  -23.1430  -17.9161   22.5809 C   0  0  0  0  0  0  0  0  0  0  0  0
  -20.3118  -26.1713   23.4109 C   0  0  0  0  0  0  0  0  0  0  0  0
  -28.6729  -19.0796   19.2634 C   0  0  0  0  0  0  0  0  0  0  0  0
  -27.0781  -25.8131   18.3917 C   0  0  0  0  0  0  0  0  0  0  0  0
  -25.5675  -27.3811   17.0622 C   0  0  0  0  0  0  0  0  0  0  0  0
  -30.3337  -12.9221   20.0387 C   0  0  0  0  0  0  0  0  0  0  0  0
  -24.9169  -16.5158   23.4483 C   0  0  0  0  0  0  0  0  0  0  0  0
  -29.5561  -14.0514   20.3590 C   0  0  0  0  0  0  0  0  0  0  0  0
  -23.7527  -16.6560   22.6795 C   0  0  0  0  0  0  0  0  0  0  0  0
  -19.7993  -27.3240   22.8157 C   0  0  0  0  0  0  0  0  0  0  0  0
  -19.7706  -24.9246   23.0970 C   0  0  0  0  0  0  0  0  0  0  0  0
  -28.8176  -23.6502   18.6714 C   0  0  0  0  0  0  0  0  0  0  0  0
  -23.6766  -19.0184   23.2481 C   0  0  0  0  0  0  0  0  0  0  0  0
  -29.1699  -21.4406   19.3895 C   0  0  0  0  0  0  0  0  0  0  0  0
  -28.1702  -19.1160   20.5640 C   0  0  0  0  0  0  0  0  0  0  0  0
  -29.1728  -20.2419   18.6761 C   0  0  0  0  0  0  0  0  0  0  0  0
  -26.1802  -26.9307   18.2470 C   0  0  0  0  0  0  0  0  0  0  0  0
  -24.8168  -28.4626   17.4536 C   0  0  0  0  0  0  0  0  0  0  0  0
  -21.0592  -21.4589   23.5883 C   0  0  0  0  0  0  0  0  0  0  0  0
  -20.8616  -22.6683   23.0095 C   0  0  0  0  0  0  0  0  0  0  0  0
  -20.6007  -21.2697   25.0056 C   0  0  0  0  0  0  0  0  0  0  0  0
  -25.6680  -26.8676   15.7273 C   0  0  0  0  0  0  0  0  0  0  0  0
  -25.9902  -14.5649   21.1799 C   0  0  0  0  0  0  0  0  0  0  0  0
  -23.2286  -12.9745   21.7849 C   0  0  0  0  0  0  0  0  0  0  0  0
  -19.7836  -13.8310   22.4300 C   0  0  0  0  0  0  0  0  0  0  0  0
  -22.3760  -30.0536   22.6845 C   0  0  0  0  0  0  0  0  0  0  0  0
  -29.7916  -11.8010   19.1879 C   0  0  0  0  0  0  0  0  0  0  0  0
  -25.5778  -15.1723   23.5917 C   0  0  0  0  0  0  0  0  0  0  0  0
  -23.1406  -15.4907   21.9474 C   0  0  0  0  0  0  0  0  0  0  0  0
  -19.8224  -22.3819   25.6662 C   0  0  0  0  0  0  0  0  0  0  0  0
  -28.2680  -11.7897   19.0939 C   0  0  0  0  0  0  0  0  0  0  0  0
  -24.6864  -31.9385   20.7388 C   0  0  0  0  0  0  0  0  0  0  0  0
  -27.7405  -13.1917   18.8065 C   0  0  0  0  0  0  0  0  0  0  0  0
  -25.2759  -30.9094   19.7726 C   0  0  0  0  0  0  0  0  0  0  0  0
  -20.2615  -23.7483   25.1697 C   0  0  0  0  0  0  0  0  0  0  0  0
  -24.4196  -31.3326   22.1149 C   0  0  0  0  0  0  0  0  0  0  0  0
  -24.1819  -29.0825   21.1379 C   0  0  0  0  0  0  0  0  0  0  0  0
  -28.1072  -14.1616   19.9363 C   0  0  1  0  0  0  0  0  0  0  0  0
  -25.2537  -14.2213   22.4436 C   0  0  1  0  0  0  0  0  0  0  0  0
  -24.4161  -29.6323   19.7205 C   0  0  2  0  0  0  0  0  0  0  0  0
  -21.3652  -22.9241   21.6021 C   0  0  0  0  0  0  0  0  0  0  0  0
  -18.0066  -12.5979   23.7024 C   0  0  0  0  0  0  0  0  0  0  0  0
  -22.4644  -11.8461   19.0550 C   0  0  0  0  0  0  0  0  0  0  0  0
  -20.0607  -12.0209   19.7331 C   0  0  0  0  0  0  0  0  0  0  0  0
  -21.6082  -10.5328   21.0034 C   0  0  0  0  0  0  0  0  0  0  0  0
  -19.2680  -16.1543   24.1893 C   0  0  0  0  0  0  0  0  0  0  0  0
  -20.3781  -28.6569   23.1505 C   0  0  0  0  0  0  0  0  0  0  0  0
  -21.6614  -20.2435   22.9416 C   0  0  0  0  0  0  0  0  0  1  0  0
  -21.8180  -13.0402   21.2510 C   0  0  1  0  0  0  0  0  0  0  0  0
  -19.0480  -13.7050   23.7519 C   0  0  2  0  0  0  0  0  0  0  0  0
  -21.5047  -11.8829   20.2610 C   0  0  0  0  0  0  0  0  0  0  0  0
  -25.8477  -27.6662   19.3112 N   0  0  0  0  0  0  0  0  0  0  0  0
  -25.0179  -28.5896   18.7966 N   0  0  0  0  0  0  0  0  0  0  0  0
  -20.2915  -23.7521   23.7028 N   0  0  0  0  0  0  0  0  0  0  0  0
  -23.8272  -14.1990   22.1138 N   0  0  0  0  0  0  0  0  0  0  0  0
  -23.5979  -30.1257   21.9954 N   0  0  0  0  0  0  0  0  0  0  0  0
  -24.0110  -29.3080   16.7765 N   0  0  0  0  0  0  0  0  0  0  0  0
  -26.6740  -27.3714   14.8916 N   0  0  0  0  0  0  0  0  0  0  0  0
  -27.2319  -13.9681   21.0724 N   0  0  0  0  0  0  0  0  0  0  0  0
  -20.9419  -13.0830   22.4167 N   0  0  0  0  0  0  0  0  0  0  0  0
  -21.6564  -28.8775   22.5117 N   0  0  0  0  0  0  0  0  0  0  0  0
  -18.3591  -14.9838   24.0853 N   0  3  0  0  0  0  0  0  0  0  0  0
  -20.8052  -20.2107   25.5986 O   0  0  0  0  0  0  0  0  0  0  0  0
  -24.8783  -26.0000   15.2833 O   0  0  0  0  0  0  0  0  0  0  0  0
  -25.4699  -15.3147   20.3621 O   0  0  0  0  0  0  0  0  0  0  0  0
  -23.7764  -11.8767   21.9125 O   0  0  0  0  0  0  0  0  0  0  0  0
  -19.3700  -14.5208   21.5007 O   0  0  0  0  0  0  0  0  0  0  0  0
  -21.9548  -30.9716   23.3964 O   0  0  0  0  0  0  0  0  0  0  0  0
  -29.6666  -22.5951   18.8082 O   0  0  0  0  0  0  0  0  0  0  0  0
  -23.0738  -20.2341   23.1448 O   0  0  0  0  0  0  0  0  0  1  0  0
  -27.6915  -17.9996   21.1287 F   0  0  0  0  0  0  0  0  0  0  0  0
  -29.6555  -20.2005   17.4267 F   0  0  0  0  0  0  0  0  0  0  0  0
  1  2  1  0  0  0  0
  1  6  2  0  0  0  0
  2  7  2  0  0  0  0
  3  9  1  0  0  0  0
  3 10  2  0  0  0  0
  4 11  2  0  0  0  0
  4 19  1  0  0  0  0
  5 12  1  0  0  0  0
  5 19  2  0  0  0  0
  6 21  1  0  0  0  0
  7 23  1  0  0  0  0
  8 13  2  0  0  0  0
  8 22  1  0  0  0  0
  9 25  2  0  0  0  0
 10 26  1  0  0  0  0
 11 27  1  0  0  0  0
 12 27  2  0  0  0  0
 13 28  1  0  0  0  0
 14 15  2  0  0  0  0
 14 29  1  0  0  0  0
 15 30  1  0  0  0  0
 16 24  1  0  0  0  0
 16 28  2  0  0  0  0
 17 25  1  0  0  0  0
 17 26  2  0  0  0  0
 18 30  2  0  0  0  0
 18 31  1  0  0  0  0
 19 32  1  0  0  0  0
 20 32  1  0  0  0  0
 20 33  2  0  0  0  0
 20 37  1  0  0  0  0
 21 23  2  0  0  0  0
 21 42  1  0  0  0  0
 22 24  2  0  0  0  0
 22 43  1  0  0  0  0
 23 53  1  0  0  0  0
 24 44  1  0  0  0  0
 25 62  1  0  0  0  0
 26 69  1  0  0  0  0
 27 84  1  0  0  0  0
 28 85  1  0  0  0  0
 29 31  2  0  0  0  0
 29 84  1  0  0  0  0
 30 86  1  0  0  0  0
 31 87  1  0  0  0  0
 32 67  2  0  0  0  0
 33 68  1  0  0  0  0
 33 72  1  0  0  0  0
 34 35  2  0  0  0  0
 34 36  1  0  0  0  0
 34 63  1  0  0  0  0
 35 56  1  0  0  0  0
 35 69  1  0  0  0  0
 36 45  1  0  0  0  0
 36 78  2  0  0  0  0
 37 73  1  0  0  0  0
 37 79  2  0  0  0  0
 38 54  1  0  0  0  0
 38 74  1  0  0  0  0
 38 80  2  0  0  0  0
 39 64  1  0  0  0  0
 39 70  1  0  0  0  0
 39 81  2  0  0  0  0
 40 65  1  0  0  0  0
 40 75  1  0  0  0  0
 40 82  2  0  0  0  0
 41 71  1  0  0  0  0
 41 76  1  0  0  0  0
 41 83  2  0  0  0  0
 42 46  1  0  0  0  0
 43 54  1  0  0  0  0
 44 70  1  0  0  0  0
 45 50  1  0  0  0  0
 46 48  1  0  0  0  0
 47 49  1  0  0  0  0
 47 51  1  0  0  0  0
 48 53  1  0  0  0  0
 49 55  1  0  0  0  0
 50 69  1  0  0  0  0
 51 71  1  0  0  0  0
 52 55  1  0  0  0  0
 52 71  1  0  0  0  0
 53 74  1  0  0  0  0
 54 70  1  0  0  0  0
 55 68  1  0  0  0  0
 57 65  1  0  0  0  0
 58 66  1  0  0  0  0
 59 66  1  0  0  0  0
 60 66  1  0  0  0  0
 61 77  1  0  0  0  0
 62 76  1  0  0  0  0
 63 85  1  0  0  0  0
 64 66  1  0  0  0  0
 64 75  1  0  0  0  0
 65 77  1  0  0  0  0
 67 68  1  0  0  0  0
M  CHG  1  77   1
M  ISO  4  41 100  63 101  76 100  85 101
M  END
> <Batch ID>
0109

> <Smiles>
CNC(C)C(=O)NC(C(=O)N1Cc2cc([101O:1][101CH2:1]C3=C(C)N(c4cccc(C[100NH:0][100C:0](=O)N5CCCC(n6nc(-c7ccc(Oc8ccc(F)cc8F)cc7)c(C(N)=O)c6N)C5)c4)CCC3=O)ccc2CC1C(=O)NC1CCCc2ccccc21)C(C)(C)C

> <Shape>
0.256

> <Color>
0.084

> <Negative vol penalty>
0.000

$$$$

  -OEChem-04052301233D

 88 97  0     1  0  0  0  0  0999 V2000
  -18.0698  -24.5091   23.7534 C   0  0  0  0  0  0  0  0  0  0  0  0
  -19.3901  -24.3461   23.3465 C   0  0  0  0  0  0  0  0  0  0  0  0
  -26.1835  -14.0320   21.6901 C   0  0  0  0  0  0  0  0  0  0  0  0
  -25.9633  -12.9688   19.5318 C   0  0  0  0  0  0  0  0  0  0  0  0
  -17.4536  -25.7541   23.6349 C   0  0  0  0  0  0  0  0  0  0  0  0
  -20.0947  -25.4279   22.8197 C   0  0  0  0  0  0  0  0  0  0  0  0
  -24.7789  -25.8004   24.7076 C   0  0  0  0  0  0  0  0  0  0  0  0
  -25.8012  -12.8446   22.3141 C   0  0  0  0  0  0  0  0  0  0  0  0
  -25.5810  -11.7813   20.1558 C   0  0  0  0  0  0  0  0  0  0  0  0
  -25.7426  -24.9327   24.1956 C   0  0  0  0  0  0  0  0  0  0  0  0
  -22.7930  -10.4974   21.5733 C   0  0  0  0  0  0  0  0  0  0  0  0
  -21.6985   -9.8117   21.0465 C   0  0  0  0  0  0  0  0  0  0  0  0
  -25.7627  -19.7161   20.1417 C   0  0  0  0  0  0  0  0  0  0  0  0
  -26.5718  -26.6997   22.7780 C   0  0  0  0  0  0  0  0  0  0  0  0
  -25.5491  -22.1108   19.9029 C   0  0  0  0  0  0  0  0  0  0  0  0
  -23.1013   -7.8880   20.6362 C   0  0  0  0  0  0  0  0  0  0  0  0
  -26.2645  -14.0942   20.2990 C   0  0  0  0  0  0  0  0  0  0  0  0
  -24.6022  -19.5375   19.3888 C   0  0  0  0  0  0  0  0  0  0  0  0
  -27.8731  -16.0143   19.8160 C   0  0  0  0  0  0  0  0  0  0  0  0
  -18.1541  -26.8541   23.1153 C   0  0  0  0  0  0  0  0  0  0  0  0
  -24.6973  -27.1234   24.2499 C   0  0  0  0  0  0  0  0  0  0  0  0
  -19.4869  -26.6886   22.6928 C   0  0  0  0  0  0  0  0  0  0  0  0
  -25.6078  -27.5829   23.2877 C   0  0  0  0  0  0  0  0  0  0  0  0
  -26.2361  -21.0028   20.3988 C   0  0  0  0  0  0  0  0  0  0  0  0
  -23.9151  -20.6455   18.8929 C   0  0  0  0  0  0  0  0  0  0  0  0
  -25.5000  -11.7192   21.5470 C   0  0  0  0  0  0  0  0  0  0  0  0
  -26.6374  -25.3815   23.2286 C   0  0  0  0  0  0  0  0  0  0  0  0
  -24.0416   -9.8785   21.6315 C   0  0  0  0  0  0  0  0  0  0  0  0
  -21.8527   -8.5070   20.5779 C   0  0  0  0  0  0  0  0  0  0  0  0
  -24.3885  -21.9322   19.1500 C   0  0  0  0  0  0  0  0  0  0  0  0
  -24.1958   -8.5737   21.1630 C   0  0  0  0  0  0  0  0  0  0  0  0
  -26.6589  -15.3207   19.6538 C   0  0  0  0  0  0  0  0  0  0  0  0
  -27.7569  -17.1072   18.9923 C   0  0  0  0  0  0  0  0  0  0  0  0
  -28.2219  -20.1645   21.7342 C   0  0  0  0  0  0  0  0  0  0  0  0
  -22.9427  -17.7349   19.4980 C   0  0  0  0  0  0  0  0  0  0  0  0
  -24.1382  -18.1773   19.1408 C   0  0  0  0  0  0  0  0  0  0  0  0
  -29.0049  -15.6988   20.6378 C   0  0  0  0  0  0  0  0  0  0  0  0
  -22.4861  -28.8460   22.7508 C   0  0  0  0  0  0  0  0  0  0  0  0
  -24.5824  -31.2675   23.2646 C   0  0  0  0  0  0  0  0  0  0  0  0
  -27.8034  -32.2385   23.8385 C   0  0  0  0  0  0  0  0  0  0  0  0
  -22.6694  -19.7870   16.8923 C   0  0  0  0  0  0  0  0  0  0  0  0
  -17.4310  -28.1689   22.9626 C   0  0  0  0  0  0  0  0  0  0  0  0
  -23.6692  -28.0545   24.8317 C   0  0  0  0  0  0  0  0  0  0  0  0
  -25.5751  -28.9998   22.7778 C   0  0  0  0  0  0  0  0  0  0  0  0
  -29.3808  -20.8257   22.4419 C   0  0  0  0  0  0  0  0  0  0  0  0
  -18.3652  -29.3558   22.7420 C   0  0  0  0  0  0  0  0  0  0  0  0
  -29.4243  -22.2125   21.8287 C   0  0  0  0  0  0  0  0  0  0  0  0
  -25.6116  -18.5977   14.9893 C   0  0  0  0  0  0  0  0  0  0  0  0
  -19.4162  -29.0194   21.6889 C   0  0  0  0  0  0  0  0  0  0  0  0
  -26.2682  -17.6159   15.9581 C   0  0  0  0  0  0  0  0  0  0  0  0
  -24.1038  -18.6839   15.2054 C   0  0  0  0  0  0  0  0  0  0  0  0
  -24.3793  -18.0371   17.5817 C   0  0  0  0  0  0  0  0  0  0  0  0
  -20.2922  -27.8442   22.1394 C   0  0  1  0  0  0  0  0  0  0  0  0
  -23.3471  -29.2341   23.9194 C   0  0  1  0  0  0  0  0  0  0  0  0
  -25.9040  -17.9624   17.4112 C   0  0  1  0  0  0  0  0  0  0  0  0
  -27.9665  -22.5052   21.4919 C   0  0  2  0  0  0  0  0  0  0  0  0
  -29.2127  -34.2870   24.1770 C   0  0  0  0  0  0  0  0  0  0  0  0
  -24.4494  -31.8505   20.2725 C   0  0  0  0  0  0  0  0  0  0  0  0
  -26.5300  -33.2213   20.5179 C   0  0  0  0  0  0  0  0  0  0  0  0
  -24.4532  -33.8814   21.7319 C   0  0  0  0  0  0  0  0  0  0  0  0
  -21.5559  -21.3101   18.4646 C   0  0  0  0  0  0  0  0  0  0  0  0
  -28.6223  -31.3692   26.5464 C   0  0  0  0  0  0  0  0  0  0  0  0
  -27.2469  -23.1493   22.6790 C   0  0  0  0  0  0  0  0  0  1  0  0
  -25.7481  -31.8519   22.5039 C   0  0  1  0  0  0  0  0  0  0  0  0
  -28.4015  -33.1940   24.8552 C   0  0  2  0  0  0  0  0  0  0  0  0
  -25.2948  -32.6740   21.2646 C   0  0  0  0  0  0  0  0  0  0  0  0
  -25.8320  -15.9226   18.7946 N   0  0  0  0  0  0  0  0  0  0  0  0
  -26.5279  -17.0059   18.4097 N   0  0  0  0  0  0  0  0  0  0  0  0
  -27.4276  -21.1863   21.1718 N   0  0  0  0  0  0  0  0  0  0  0  0
  -24.5475  -29.8701   23.3728 N   0  0  0  0  0  0  0  0  0  0  0  0
  -23.7706  -18.9546   16.6048 N   0  0  0  0  0  0  0  0  0  0  0  0
  -28.5872  -18.1354   18.7168 N   0  0  0  0  0  0  0  0  0  0  0  0
  -30.0249  -14.9061   20.0943 N   0  0  0  0  0  0  0  0  0  0  0  0
  -21.2735  -28.2869   23.1065 N   0  0  0  0  0  0  0  0  0  0  0  0
  -26.5277  -32.6136   23.4737 N   0  0  0  0  0  0  0  0  0  0  0  0
  -22.7127  -20.4901   18.1114 N   0  0  0  0  0  0  0  0  0  0  0  0
  -29.2956  -32.4587   25.7936 N   0  3  0  0  0  0  0  0  0  0  0  0
  -28.0679  -18.9517   21.7312 O   0  0  0  0  0  0  0  0  0  0  0  0
  -29.1008  -16.0942   21.8244 O   0  0  0  0  0  0  0  0  0  0  0  0
  -22.8913  -29.0407   21.6108 O   0  0  0  0  0  0  0  0  0  0  0  0
  -23.7378  -32.0236   23.7511 O   0  0  0  0  0  0  0  0  0  0  0  0
  -28.4088  -31.2594   23.4079 O   0  0  0  0  0  0  0  0  0  0  0  0
  -21.6884  -19.8570   16.1417 O   0  0  0  0  0  0  0  0  0  0  0  0
  -25.1271  -10.5603   22.1556 O   0  0  0  0  0  0  0  0  0  0  0  0
  -27.5786  -24.5364   22.7267 O   0  0  0  0  0  0  0  0  0  1  0  0
  -20.8012   -7.8481   20.0735 F   0  0  0  0  0  0  0  0  0  0  0  0
  -23.7378  -23.0056   18.6788 F   0  0  0  0  0  0  0  0  0  0  0  0
  -25.3927   -7.9734   21.2174 F   0  0  0  0  0  0  0  0  0  0  0  0
  1  2  1  0  0  0  0
  1  5  2  0  0  0  0
  2  6  2  0  0  0  0
  3  8  2  0  0  0  0
  3 17  1  0  0  0  0
  4  9  1  0  0  0  0
  4 17  2  0  0  0  0
  5 20  1  0  0  0  0
  6 22  1  0  0  0  0
  7 10  2  0  0  0  0
  7 21  1  0  0  0  0
  8 26  1  0  0  0  0
  9 26  2  0  0  0  0
 10 27  1  0  0  0  0
 11 12  2  0  0  0  0
 11 28  1  0  0  0  0
 12 29  1  0  0  0  0
 13 18  1  0  0  0  0
 13 24  2  0  0  0  0
 14 23  1  0  0  0  0
 14 27  2  0  0  0  0
 15 24  1  0  0  0  0
 15 30  2  0  0  0  0
 16 29  2  0  0  0  0
 16 31  1  0  0  0  0
 17 32  1  0  0  0  0
 18 25  2  0  0  0  0
 18 36  1  0  0  0  0
 19 32  1  0  0  0  0
 19 33  2  0  0  0  0
 19 37  1  0  0  0  0
 20 22  2  0  0  0  0
 20 42  1  0  0  0  0
 21 23  2  0  0  0  0
 21 43  1  0  0  0  0
 22 53  1  0  0  0  0
 23 44  1  0  0  0  0
 24 69  1  0  0  0  0
 25 30  1  0  0  0  0
 25 76  1  0  0  0  0
 26 84  1  0  0  0  0
 27 85  1  0  0  0  0
 28 31  2  0  0  0  0
 28 84  1  0  0  0  0
 29 86  1  0  0  0  0
 30 87  1  0  0  0  0
 31 88  1  0  0  0  0
 32 67  2  0  0  0  0
 33 68  1  0  0  0  0
 33 72  1  0  0  0  0
 34 45  1  0  0  0  0
 34 69  1  0  0  0  0
 34 78  2  0  0  0  0
 35 36  2  0  0  0  0
 37 73  1  0  0  0  0
 37 79  2  0  0  0  0
 38 54  1  0  0  0  0
 38 74  1  0  0  0  0
 38 80  2  0  0  0  0
 39 64  1  0  0  0  0
 39 70  1  0  0  0  0
 39 81  2  0  0  0  0
 40 65  1  0  0  0  0
 40 75  1  0  0  0  0
 40 82  2  0  0  0  0
 41 71  1  0  0  0  0
 41 76  1  0  0  0  0
 41 83  2  0  0  0  0
 42 46  1  0  0  0  0
 43 54  1  0  0  0  0
 44 70  1  0  0  0  0
 45 47  1  0  0  0  0
 46 49  1  0  0  0  0
 47 56  1  0  0  0  0
 48 50  1  0  0  0  0
 48 51  1  0  0  0  0
 49 53  1  0  0  0  0
 50 55  1  0  0  0  0
 51 71  1  0  0  0  0
 52 55  1  0  0  0  0
 52 71  1  0  0  0  0
 53 74  1  0  0  0  0
 54 70  1  0  0  0  0
 55 68  1  0  0  0  0
 56 63  1  0  0  0  0
 56 69  1  0  0  0  0
 57 65  1  0  0  0  0
 58 66  1  0  0  0  0
 59 66  1  0  0  0  0
 60 66  1  0  0  0  0
 61 76  1  0  0  0  0
 62 77  1  0  0  0  0
 63 85  1  0  0  0  0
 64 66  1  0  0  0  0
 64 75  1  0  0  0  0
 65 77  1  0  0  0  0
 67 68  1  0  0  0  0
M  CHG  1  77   1
M  ISO  4  41 100  63 101  76 100  85 101
M  END
> <Batch ID>
0109

> <Smiles>
C=Cc1cc(N2C(=O)CCC2[101CH2:1][101O:1]c2ccc3c(c2)CN(C(=O)C(NC(=O)C(C)NC)C(C)(C)C)C(C(=O)NC2CCCc4ccccc42)C3)cc(F)c1[100N:0](C)[100C:0](=O)N1CCCC(n2nc(-c3ccc(Oc4ccc(F)cc4F)cc3)c(C(N)=O)c2N)C1

> <Shape>
0.220

> <Color>
0.067

> <Negative vol penalty>
0.000

$$$$

  -OEChem-04052301233D

 82 90  0     1  0  0  0  0  0999 V2000
  -22.5334  -30.5442   13.9494 C   0  0  0  0  0  0  0  0  0  0  0  0
  -23.5743  -29.9613   14.6651 C   0  0  0  0  0  0  0  0  0  0  0  0
  -24.5272  -10.5449   22.8316 C   0  0  0  0  0  0  0  0  0  0  0  0
  -24.6074  -12.2132   24.5772 C   0  0  0  0  0  0  0  0  0  0  0  0
  -22.0051  -31.7671   14.3609 C   0  0  0  0  0  0  0  0  0  0  0  0
  -24.0882  -30.6015   15.7922 C   0  0  0  0  0  0  0  0  0  0  0  0
  -24.7853  -27.4308   19.6788 C   0  0  0  0  0  0  0  0  0  0  0  0
  -24.1064   -9.5932   23.7604 C   0  0  0  0  0  0  0  0  0  0  0  0
  -24.1865  -11.2615   25.5061 C   0  0  0  0  0  0  0  0  0  0  0  0
  -25.9132  -26.6123   19.6384 C   0  0  0  0  0  0  0  0  0  0  0  0
  -21.2334   -8.7413   25.3266 C   0  0  0  0  0  0  0  0  0  0  0  0
  -20.1753   -7.9071   24.9659 C   0  0  0  0  0  0  0  0  0  0  0  0
  -27.7951  -21.8311   20.5369 C   0  0  0  0  0  0  0  0  0  0  0  0
  -27.0515  -28.1168   21.1417 C   0  0  0  0  0  0  0  0  0  0  0  0
  -30.1592  -20.3503   20.5662 C   0  0  0  0  0  0  0  0  0  0  0  0
  -21.6023   -5.9773   25.2434 C   0  0  0  0  0  0  0  0  0  0  0  0
  -24.7777  -11.8549   23.2400 C   0  0  0  0  0  0  0  0  0  0  0  0
  -29.0227  -22.4798   20.6696 C   0  0  0  0  0  0  0  0  0  0  0  0
  -24.4007  -13.6881   21.5065 C   0  0  0  0  0  0  0  0  0  0  0  0
  -22.5063  -32.4179   15.4993 C   0  0  0  0  0  0  0  0  0  0  0  0
  -24.7859  -28.6061   20.4437 C   0  0  0  0  0  0  0  0  0  0  0  0
  -23.5670  -31.8349   16.2186 C   0  0  0  0  0  0  0  0  0  0  0  0
  -25.9214  -28.9472   21.1922 C   0  0  0  0  0  0  0  0  0  0  0  0
  -30.2048  -21.7395   20.6842 C   0  0  0  0  0  0  0  0  0  0  0  0
  -28.9315  -19.7016   20.4335 C   0  0  0  0  0  0  0  0  0  0  0  0
  -23.9360   -9.9515   25.0977 C   0  0  0  0  0  0  0  0  0  0  0  0
  -27.0476  -26.9567   20.3676 C   0  0  0  0  0  0  0  0  0  0  0  0
  -22.4760   -8.1936   25.6456 C   0  0  0  0  0  0  0  0  0  0  0  0
  -20.3598   -6.5251   24.9244 C   0  0  0  0  0  0  0  0  0  0  0  0
  -27.7495  -20.4419   20.4189 C   0  0  0  0  0  0  0  0  0  0  0  0
  -22.6604   -6.8116   25.6040 C   0  0  0  0  0  0  0  0  0  0  0  0
  -25.2130  -12.8384   22.2810 C   0  0  0  0  0  0  0  0  0  0  0  0
  -25.2880  -14.4261   20.7616 C   0  0  0  0  0  0  0  0  0  0  0  0
  -29.0362  -23.9657   20.7957 C   0  0  0  0  0  0  0  0  0  0  0  0
  -22.9720  -13.8004   21.4641 C   0  0  0  0  0  0  0  0  0  0  0  0
  -24.4761  -31.7030   19.7976 C   0  0  0  0  0  0  0  0  0  0  0  0
  -24.4879  -31.9799   23.0295 C   0  0  0  0  0  0  0  0  0  0  0  0
  -25.3840  -30.6615   26.0471 C   0  0  0  0  0  0  0  0  0  0  0  0
  -29.9679  -17.4088   20.3092 C   0  0  0  0  0  0  0  0  0  0  0  0
  -21.9349  -33.7613   15.8780 C   0  0  0  0  0  0  0  0  0  0  0  0
  -23.5518  -29.4644   20.4979 C   0  0  0  0  0  0  0  0  0  0  0  0
  -25.9659  -30.1878   22.0451 C   0  0  0  0  0  0  0  0  0  0  0  0
  -22.2842  -34.1928   17.3000 C   0  0  0  0  0  0  0  0  0  0  0  0
  -30.2715  -13.8692   20.0720 C   0  0  0  0  0  0  0  0  0  0  0  0
  -23.7680  -33.9711   17.5758 C   0  0  0  0  0  0  0  0  0  0  0  0
  -28.9157  -13.3554   20.5618 C   0  0  0  0  0  0  0  0  0  0  0  0
  -30.7244  -15.1041   20.8489 C   0  0  0  0  0  0  0  0  0  0  0  0
  -28.3919  -15.6857   21.3876 C   0  0  0  0  0  0  0  0  0  0  0  0
  -24.1347  -32.4866   17.4609 C   0  0  1  0  0  0  0  0  0  0  0  0
  -23.8438  -30.9058   20.9032 C   0  0  1  0  0  0  0  0  0  0  0  0
  -27.8636  -14.4813   20.5914 C   0  0  2  0  0  0  0  0  0  0  0  0
  -25.2906  -31.1352   28.5097 C   0  0  0  0  0  0  0  0  0  0  0  0
  -26.7455  -34.0093   22.7223 C   0  0  0  0  0  0  0  0  0  0  0  0
  -27.2387  -33.7254   25.1604 C   0  0  0  0  0  0  0  0  0  0  0  0
  -25.0245  -34.6144   24.4329 C   0  0  0  0  0  0  0  0  0  0  0  0
  -23.7784  -28.2312   26.5715 C   0  0  0  0  0  0  0  0  0  0  0  0
  -27.9358  -24.7640   20.1246 C   0  0  0  0  0  0  0  0  0  1  0  0
  -25.5532  -32.1670   24.0826 C   0  0  1  0  0  0  0  0  0  0  0  0
  -24.6008  -30.4636   27.3324 C   0  0  2  0  0  0  0  0  0  0  0  0
  -26.1407  -33.6066   24.0821 C   0  0  0  0  0  0  0  0  0  0  0  0
  -26.5160  -13.0187   22.0495 N   0  0  0  0  0  0  0  0  0  0  0  0
  -26.5293  -13.9902   21.1210 N   0  0  0  0  0  0  0  0  0  0  0  0
  -24.7366  -30.9978   22.0603 N   0  0  0  0  0  0  0  0  0  0  0  0
  -29.6791  -16.1297   20.8302 N   0  0  0  0  0  0  0  0  0  0  0  0
  -31.4582  -22.3775   20.8183 N   0  0  0  0  0  0  0  0  0  0  0  0
  -25.1195  -15.3987   19.8408 N   0  0  0  0  0  0  0  0  0  0  0  0
  -22.2113  -12.9665   22.2950 N   0  0  0  0  0  0  0  0  0  0  0  0
  -28.8875  -18.2904   20.3133 N   0  0  0  0  0  0  0  0  0  0  0  0
  -23.7155  -31.7692   18.6458 N   0  0  0  0  0  0  0  0  0  0  0  0
  -24.9493  -31.7686   25.3495 N   0  0  0  0  0  0  0  0  0  0  0  0
  -24.4614  -29.0111   27.6356 N   0  3  0  0  0  0  0  0  0  0  0  0
  -29.9310  -24.5121   21.4366 O   0  0  0  0  0  0  0  0  0  0  0  0
  -22.3867  -14.6047   20.6998 O   0  0  0  0  0  0  0  0  0  0  0  0
  -25.5722  -32.2209   19.9767 O   0  0  0  0  0  0  0  0  0  0  0  0
  -23.4692  -32.6744   23.0697 O   0  0  0  0  0  0  0  0  0  0  0  0
  -26.2930  -29.9113   25.6987 O   0  0  0  0  0  0  0  0  0  0  0  0
  -31.0835  -17.6919   19.8652 O   0  0  0  0  0  0  0  0  0  0  0  0
  -23.5252   -9.0232   26.0043 O   0  0  0  0  0  0  0  0  0  0  0  0
  -28.1501  -26.1599   20.3294 O   0  0  0  0  0  0  0  0  0  1  0  0
  -19.3432   -5.7240   24.5795 F   0  0  0  0  0  0  0  0  0  0  0  0
  -26.5639  -19.8289   20.2926 F   0  0  0  0  0  0  0  0  0  0  0  0
  -23.8515   -6.2795   25.9106 F   0  0  0  0  0  0  0  0  0  0  0  0
  1  2  1  0  0  0  0
  1  5  2  0  0  0  0
  2  6  2  0  0  0  0
  3  8  2  0  0  0  0
  3 17  1  0  0  0  0
  4  9  1  0  0  0  0
  4 17  2  0  0  0  0
  5 20  1  0  0  0  0
  6 22  1  0  0  0  0
  7 10  2  0  0  0  0
  7 21  1  0  0  0  0
  8 26  1  0  0  0  0
  9 26  2  0  0  0  0
 10 27  1  0  0  0  0
 11 12  2  0  0  0  0
 11 28  1  0  0  0  0
 12 29  1  0  0  0  0
 13 18  1  0  0  0  0
 13 30  2  0  0  0  0
 14 23  1  0  0  0  0
 14 27  2  0  0  0  0
 15 24  1  0  0  0  0
 15 25  2  0  0  0  0
 16 29  2  0  0  0  0
 16 31  1  0  0  0  0
 17 32  1  0  0  0  0
 18 24  2  0  0  0  0
 18 34  1  0  0  0  0
 19 32  1  0  0  0  0
 19 33  2  0  0  0  0
 19 35  1  0  0  0  0
 20 22  2  0  0  0  0
 20 40  1  0  0  0  0
 21 23  2  0  0  0  0
 21 41  1  0  0  0  0
 22 49  1  0  0  0  0
 23 42  1  0  0  0  0
 24 65  1  0  0  0  0
 25 30  1  0  0  0  0
 25 68  1  0  0  0  0
 26 78  1  0  0  0  0
 27 79  1  0  0  0  0
 28 31  2  0  0  0  0
 28 78  1  0  0  0  0
 29 80  1  0  0  0  0
 30 81  1  0  0  0  0
 31 82  1  0  0  0  0
 32 61  2  0  0  0  0
 33 62  1  0  0  0  0
 33 66  1  0  0  0  0
 34 57  1  0  0  0  0
 34 72  2  0  0  0  0
 35 67  1  0  0  0  0
 35 73  2  0  0  0  0
 36 50  1  0  0  0  0
 36 69  1  0  0  0  0
 36 74  2  0  0  0  0
 37 58  1  0  0  0  0
 37 63  1  0  0  0  0
 37 75  2  0  0  0  0
 38 59  1  0  0  0  0
 38 70  1  0  0  0  0
 38 76  2  0  0  0  0
 39 64  1  0  0  0  0
 39 68  1  0  0  0  0
 39 77  2  0  0  0  0
 40 43  1  0  0  0  0
 41 50  1  0  0  0  0
 42 63  1  0  0  0  0
 43 45  1  0  0  0  0
 44 46  1  0  0  0  0
 44 47  1  0  0  0  0
 45 49  1  0  0  0  0
 46 51  1  0  0  0  0
 47 64  1  0  0  0  0
 48 51  1  0  0  0  0
 48 64  1  0  0  0  0
 49 69  1  0  0  0  0
 50 63  1  0  0  0  0
 51 62  1  0  0  0  0
 52 59  1  0  0  0  0
 53 60  1  0  0  0  0
 54 60  1  0  0  0  0
 55 60  1  0  0  0  0
 56 71  1  0  0  0  0
 57 79  1  0  0  0  0
 58 60  1  0  0  0  0
 58 70  1  0  0  0  0
 59 71  1  0  0  0  0
 61 62  1  0  0  0  0
M  CHG  1  71   1
M  ISO  4  39 100  57 101  68 100  79 101
M  END
> <Batch ID>
0109

> <Smiles>
CNC(C)C(=O)NC(C(=O)N1Cc2cc([101O:1][101CH2:1]C(=O)c3cc(F)c([100NH:0][100C:0](=O)N4CCCC(n5nc(-c6ccc(Oc7ccc(F)cc7F)cc6)c(C(N)=O)c5N)C4)cc3N)ccc2CC1C(=O)NC1CCCc2ccccc21)C(C)(C)C

> <Shape>
0.282

> <Color>
0.131

> <Negative vol penalty>
0.000

$$$$

  -OEChem-04052301233D

 86 95  0     1  0  0  0  0  0999 V2000
  -32.5004  -14.2982   20.9187 C   0  0  0  0  0  0  0  0  0  0  0  0
  -31.7158  -15.4346   21.0870 C   0  0  0  0  0  0  0  0  0  0  0  0
  -27.8607  -25.7416   21.7138 C   0  0  0  0  0  0  0  0  0  0  0  0
  -29.5660  -27.4500   21.6095 C   0  0  0  0  0  0  0  0  0  0  0  0
  -31.9462  -13.1459   20.3628 C   0  0  0  0  0  0  0  0  0  0  0  0
  -30.3767  -15.4197   20.6984 C   0  0  0  0  0  0  0  0  0  0  0  0
  -25.7232  -18.3329   23.4121 C   0  0  0  0  0  0  0  0  0  0  0  0
  -28.6170  -24.9348   20.8637 C   0  0  0  0  0  0  0  0  0  0  0  0
  -30.3223  -26.6431   20.7595 C   0  0  0  0  0  0  0  0  0  0  0  0
  -25.0765  -19.5353   23.1293 C   0  0  0  0  0  0  0  0  0  0  0  0
  -31.3061  -22.8988   21.1014 C   0  0  0  0  0  0  0  0  0  0  0  0
  -31.4411  -21.5515   21.4365 C   0  0  0  0  0  0  0  0  0  0  0  0
  -23.3757  -18.3284   21.9170 C   0  0  0  0  0  0  0  0  0  0  0  0
  -30.4016  -20.9275   19.3467 C   0  0  0  0  0  0  0  0  0  0  0  0
  -28.3352  -26.9993   22.0866 C   0  0  0  0  0  0  0  0  0  0  0  0
  -27.6044  -27.8693   24.3706 C   0  0  0  0  0  0  0  0  0  0  0  0
  -30.5971  -13.1138   19.9761 C   0  0  0  0  0  0  0  0  0  0  0  0
  -25.2059  -17.1182   22.9394 C   0  0  0  0  0  0  0  0  0  0  0  0
  -29.8043  -14.2664   20.1355 C   0  0  0  0  0  0  0  0  0  0  0  0
  -24.0162  -17.1118   22.1973 C   0  0  0  0  0  0  0  0  0  0  0  0
  -29.8478  -25.3855   20.3866 C   0  0  0  0  0  0  0  0  0  0  0  0
  -23.9042  -19.5334   22.3792 C   0  0  0  0  0  0  0  0  0  0  0  0
  -30.7188  -23.2604   19.8889 C   0  0  0  0  0  0  0  0  0  0  0  0
  -30.9889  -20.5659   20.5592 C   0  0  0  0  0  0  0  0  0  0  0  0
  -30.2666  -22.2748   19.0116 C   0  0  0  0  0  0  0  0  0  0  0  0
  -27.5541  -27.8334   22.9642 C   0  0  0  0  0  0  0  0  0  0  0  0
  -19.8197  -27.7254   22.5651 C   0  0  0  0  0  0  0  0  0  0  0  0
  -18.6203  -27.0728   22.7067 C   0  0  0  0  0  0  0  0  0  0  0  0
  -26.6764  -28.8184   24.7233 C   0  0  0  0  0  0  0  0  0  0  0  0
  -20.2342  -25.6687   22.7118 C   0  0  0  0  0  0  0  0  0  0  0  0
  -22.2066  -22.6407   23.0065 C   0  0  0  0  0  0  0  0  0  0  0  0
  -22.1133  -23.9550   22.7249 C   0  0  0  0  0  0  0  0  0  0  0  0
  -28.4175  -27.1124   25.2772 C   0  0  0  0  0  0  0  0  0  0  0  0
  -20.0308  -29.1892   22.4258 C   0  0  0  0  0  0  0  0  0  0  0  0
  -26.2541  -14.8443   20.9813 C   0  0  0  0  0  0  0  0  0  0  0  0
  -23.5484  -13.3254   21.9271 C   0  0  0  0  0  0  0  0  0  0  0  0
  -20.3853  -13.5573   23.1871 C   0  0  0  0  0  0  0  0  0  0  0  0
  -21.7697  -30.9210   22.1086 C   0  0  0  0  0  0  0  0  0  0  0  0
  -30.0550  -11.8604   19.3361 C   0  0  0  0  0  0  0  0  0  0  0  0
  -25.9009  -15.8274   23.2758 C   0  0  0  0  0  0  0  0  0  0  0  0
  -23.4088  -15.8327   21.6839 C   0  0  0  0  0  0  0  0  0  0  0  0
  -20.8466  -22.0664   23.3030 C   0  0  0  0  0  0  0  0  0  0  0  0
  -28.5299  -11.8075   19.2960 C   0  0  0  0  0  0  0  0  0  0  0  0
  -24.5930  -32.8119   23.0835 C   0  0  0  0  0  0  0  0  0  0  0  0
  -27.9625  -13.1351   18.8037 C   0  0  0  0  0  0  0  0  0  0  0  0
  -25.6765  -31.7535   23.3081 C   0  0  0  0  0  0  0  0  0  0  0  0
  -19.8887  -23.2326   23.0085 C   0  0  0  0  0  0  0  0  0  0  0  0
  -23.6980  -32.4643   21.8948 C   0  0  0  0  0  0  0  0  0  0  0  0
  -24.1917  -30.0669   22.1527 C   0  0  0  0  0  0  0  0  0  0  0  0
  -28.3412  -14.2814   19.7491 C   0  0  1  0  0  0  0  0  0  0  0  0
  -25.5639  -14.6974   22.3078 C   0  0  1  0  0  0  0  0  0  0  0  0
  -25.0754  -30.3355   23.3815 C   0  0  1  0  0  0  0  0  0  0  0  0
  -17.2141  -27.4863   22.7721 C   0  0  0  0  0  0  0  0  0  0  0  0
  -23.2443  -24.8272   22.2891 C   0  0  0  0  0  0  0  0  0  0  0  0
  -18.4062  -12.1473   23.8136 C   0  0  0  0  0  0  0  0  0  0  0  0
  -22.8481  -13.0011   18.9751 C   0  0  0  0  0  0  0  0  0  0  0  0
  -20.4991  -12.4733   19.6621 C   0  0  0  0  0  0  0  0  0  0  0  0
  -22.3713  -10.9928   20.3871 C   0  0  0  0  0  0  0  0  0  0  0  0
  -20.5166  -14.4234   26.0141 C   0  0  0  0  0  0  0  0  0  0  0  0
  -23.4032  -21.7574   23.0565 C   0  0  0  0  0  0  0  0  0  1  0  0
  -22.1213  -13.2792   21.4369 C   0  0  1  0  0  0  0  0  0  0  0  0
  -19.6882  -12.8019   24.3043 C   0  0  2  0  0  0  0  0  0  0  0  0
  -21.9722  -12.4610   20.1232 C   0  0  0  0  0  0  0  0  0  0  0  0
  -26.6643  -28.6914   22.4581 N   0  0  0  0  0  0  0  0  0  0  0  0
  -20.8502  -26.8204   22.5694 N   0  0  0  0  0  0  0  0  0  0  0  0
  -26.1469  -29.2753   23.5524 N   0  0  0  0  0  0  0  0  0  0  0  0
  -20.7839  -24.3763   22.7834 N   0  0  0  0  0  0  0  0  0  0  0  0
  -24.1290  -14.5972   22.0337 N   0  0  0  0  0  0  0  0  0  0  0  0
  -23.1612  -31.1106   22.0452 N   0  0  0  0  0  0  0  0  0  0  0  0
  -26.2696  -29.2983   25.9178 N   0  0  0  0  0  0  0  0  0  0  0  0
  -29.3187  -26.1794   24.7466 N   0  0  0  0  0  0  0  0  0  0  0  0
  -21.3588  -29.5966   22.2958 N   0  0  0  0  0  0  0  0  0  0  0  0
  -27.5051  -14.2596   20.9302 N   0  0  0  0  0  0  0  0  0  0  0  0
  -21.3239  -12.7740   22.5492 N   0  0  0  0  0  0  0  0  0  0  0  0
  -19.3456  -13.7280   25.4205 N   0  3  0  0  0  0  0  0  0  0  0  0
  -28.3351  -27.2475   26.5216 O   0  0  0  0  0  0  0  0  0  0  0  0
  -19.0548  -29.9337   22.3933 O   0  0  0  0  0  0  0  0  0  0  0  0
  -25.6927  -15.4425   20.0710 O   0  0  0  0  0  0  0  0  0  0  0  0
  -24.1245  -12.2724   22.2119 O   0  0  0  0  0  0  0  0  0  0  0  0
  -20.1209  -14.7241   22.9059 O   0  0  0  0  0  0  0  0  0  0  0  0
  -20.9637  -31.8544   22.0427 O   0  0  0  0  0  0  0  0  0  0  0  0
  -18.8778  -25.7386   22.8027 O   0  0  0  0  0  0  0  0  0  0  0  0
  -30.5862  -24.5984   19.5573 O   0  0  0  0  0  0  0  0  0  0  0  0
  -23.2713  -20.7056   22.1011 O   0  0  0  0  0  0  0  0  0  1  0  0
  -31.1200  -19.2722   20.8805 F   0  0  0  0  0  0  0  0  0  0  0  0
  -29.7027  -22.6161   17.8448 F   0  0  0  0  0  0  0  0  0  0  0  0
  1  2  1  0  0  0  0
  1  5  2  0  0  0  0
  2  6  2  0  0  0  0
  3  8  2  0  0  0  0
  3 15  1  0  0  0  0
  4  9  1  0  0  0  0
  4 15  2  0  0  0  0
  5 17  1  0  0  0  0
  6 19  1  0  0  0  0
  7 10  2  0  0  0  0
  7 18  1  0  0  0  0
  8 21  1  0  0  0  0
  9 21  2  0  0  0  0
 10 22  1  0  0  0  0
 11 12  2  0  0  0  0
 11 23  1  0  0  0  0
 12 24  1  0  0  0  0
 13 20  1  0  0  0  0
 13 22  2  0  0  0  0
 14 24  2  0  0  0  0
 14 25  1  0  0  0  0
 15 26  1  0  0  0  0
 16 26  1  0  0  0  0
 16 29  2  0  0  0  0
 16 33  1  0  0  0  0
 17 19  2  0  0  0  0
 17 39  1  0  0  0  0
 18 20  2  0  0  0  0
 18 40  1  0  0  0  0
 19 50  1  0  0  0  0
 20 41  1  0  0  0  0
 21 83  1  0  0  0  0
 22 84  1  0  0  0  0
 23 25  2  0  0  0  0
 23 83  1  0  0  0  0
 24 85  1  0  0  0  0
 25 86  1  0  0  0  0
 26 64  2  0  0  0  0
 27 28  2  0  0  0  0
 27 34  1  0  0  0  0
 27 65  1  0  0  0  0
 28 53  1  0  0  0  0
 28 82  1  0  0  0  0
 29 66  1  0  0  0  0
 29 70  1  0  0  0  0
 30 65  2  0  0  0  0
 30 67  1  0  0  0  0
 30 82  1  0  0  0  0
 31 32  2  0  0  0  0
 31 42  1  0  0  0  0
 31 60  1  0  0  0  0
 32 54  1  0  0  0  0
 32 67  1  0  0  0  0
 33 71  1  0  0  0  0
 33 76  2  0  0  0  0
 34 72  1  0  0  0  0
 34 77  2  0  0  0  0
 35 51  1  0  0  0  0
 35 73  1  0  0  0  0
 35 78  2  0  0  0  0
 36 61  1  0  0  0  0
 36 68  1  0  0  0  0
 36 79  2  0  0  0  0
 37 62  1  0  0  0  0
 37 74  1  0  0  0  0
 37 80  2  0  0  0  0
 38 69  1  0  0  0  0
 38 72  1  0  0  0  0
 38 81  2  0  0  0  0
 39 43  1  0  0  0  0
 40 51  1  0  0  0  0
 41 68  1  0  0  0  0
 42 47  1  0  0  0  0
 43 45  1  0  0  0  0
 44 46  1  0  0  0  0
 44 48  1  0  0  0  0
 45 50  1  0  0  0  0
 46 52  1  0  0  0  0
 47 67  1  0  0  0  0
 48 69  1  0  0  0  0
 49 52  1  0  0  0  0
 49 69  1  0  0  0  0
 50 73  1  0  0  0  0
 51 68  1  0  0  0  0
 52 66  1  0  0  0  0
 55 62  1  0  0  0  0
 56 63  1  0  0  0  0
 57 63  1  0  0  0  0
 58 63  1  0  0  0  0
 59 75  1  0  0  0  0
 60 84  1  0  0  0  0
 61 63  1  0  0  0  0
 61 74  1  0  0  0  0
 62 75  1  0  0  0  0
 64 66  1  0  0  0  0
M  CHG  1  75   1
M  ISO  4  38 100  60 101  72 100  84 101
M  END
> <Batch ID>
0109

> <Smiles>
CNC(C)C(=O)NC(C(=O)N1Cc2cc([101O:1][101CH2:1]C3=C(C)N(c4nc(C(=O)[100NH:0][100C:0](=O)N5CCCC(n6nc(-c7ccc(Oc8ccc(F)cc8F)cc7)c(C(N)=O)c6N)C5)c(C)o4)CC3)ccc2CC1C(=O)NC1CCCc2ccccc21)C(C)(C)C

> <Shape>
0.249

> <Color>
0.073

> <Negative vol penalty>
0.000

$$$$

  -OEChem-04052301233D

 88 97  0     1  0  0  0  0  0999 V2000
  -27.9975  -24.4852   16.7819 C   0  0  0  0  0  0  0  0  0  0  0  0
  -26.8301  -24.6853   17.5118 C   0  0  0  0  0  0  0  0  0  0  0  0
  -26.3492  -18.3158   19.6615 C   0  0  0  0  0  0  0  0  0  0  0  0
  -27.3630  -17.3916   21.6503 C   0  0  0  0  0  0  0  0  0  0  0  0
  -29.2032  -25.0161   17.2383 C   0  0  0  0  0  0  0  0  0  0  0  0
  -26.8681  -25.4155   18.6991 C   0  0  0  0  0  0  0  0  0  0  0  0
  -23.0721  -28.7488   19.0520 C   0  0  0  0  0  0  0  0  0  0  0  0
  -19.9788  -23.0308   25.6465 C   0  0  0  0  0  0  0  0  0  0  0  0
  -26.2953  -17.0415   19.0968 C   0  0  0  0  0  0  0  0  0  0  0  0
  -27.3091  -16.1173   21.0856 C   0  0  0  0  0  0  0  0  0  0  0  0
  -21.8189  -28.2514   19.4064 C   0  0  0  0  0  0  0  0  0  0  0  0
  -18.5929  -23.1184   25.5155 C   0  0  0  0  0  0  0  0  0  0  0  0
  -29.0579  -14.3218   18.8164 C   0  0  0  0  0  0  0  0  0  0  0  0
  -30.1920  -13.5169   18.9238 C   0  0  0  0  0  0  0  0  0  0  0  0
  -20.2077  -23.0552   23.2415 C   0  0  0  0  0  0  0  0  0  0  0  0
  -22.1785  -28.9803   21.6776 C   0  0  0  0  0  0  0  0  0  0  0  0
  -28.9059  -11.8657   20.1305 C   0  0  0  0  0  0  0  0  0  0  0  0
  -26.8831  -18.4908   20.9383 C   0  0  0  0  0  0  0  0  0  0  0  0
  -18.8217  -23.1427   23.1104 C   0  0  0  0  0  0  0  0  0  0  0  0
  -27.6189  -20.9321   21.0176 C   0  0  0  0  0  0  0  0  0  0  0  0
  -29.2542  -25.7614   18.4268 C   0  0  0  0  0  0  0  0  0  0  0  0
  -23.8940  -29.3570   20.0118 C   0  0  0  0  0  0  0  0  0  0  0  0
  -28.0759  -25.9557   19.1725 C   0  0  0  0  0  0  0  0  0  0  0  0
  -23.4407  -29.4869   21.3323 C   0  0  0  0  0  0  0  0  0  0  0  0
  -20.7862  -22.9992   24.5094 C   0  0  0  0  0  0  0  0  0  0  0  0
  -26.7752  -15.9423   19.8088 C   0  0  0  0  0  0  0  0  0  0  0  0
  -21.3731  -28.3645   20.7200 C   0  0  0  0  0  0  0  0  0  0  0  0
  -18.0143  -23.1743   24.2475 C   0  0  0  0  0  0  0  0  0  0  0  0
  -27.8478  -13.8987   19.3662 C   0  0  0  0  0  0  0  0  0  0  0  0
  -30.1160  -12.2888   19.5808 C   0  0  0  0  0  0  0  0  0  0  0  0
  -27.7718  -12.6706   20.0232 C   0  0  0  0  0  0  0  0  0  0  0  0
  -26.9396  -19.8070   21.5219 C   0  0  0  0  0  0  0  0  0  0  0  0
  -27.3637  -21.9254   21.9313 C   0  0  0  0  0  0  0  0  0  0  0  0
  -18.3249  -25.7593   21.7220 C   0  0  0  0  0  0  0  0  0  0  0  0
  -18.2316  -23.2008   21.7635 C   0  0  0  0  0  0  0  0  0  0  0  0
  -28.4098  -21.0674   19.8294 C   0  0  0  0  0  0  0  0  0  0  0  0
  -26.7649  -28.7341   21.2256 C   0  0  0  0  0  0  0  0  0  0  0  0
  -26.3269  -31.5857   22.7083 C   0  0  0  0  0  0  0  0  0  0  0  0
  -24.1496  -33.9431   23.8695 C   0  0  0  0  0  0  0  0  0  0  0  0
  -22.9278  -22.8465   25.8273 C   0  0  0  0  0  0  0  0  0  0  0  0
  -30.5892  -26.2753   18.9046 C   0  0  0  0  0  0  0  0  0  0  0  0
  -25.2321  -29.9124   19.6075 C   0  0  0  0  0  0  0  0  0  0  0  0
  -24.2763  -30.1495   22.3959 C   0  0  0  0  0  0  0  0  0  0  0  0
  -30.4775  -27.3550   19.9780 C   0  0  0  0  0  0  0  0  0  0  0  0
  -26.3988  -22.5834   26.5757 C   0  0  0  0  0  0  0  0  0  0  0  0
  -29.4735  -26.9411   21.0491 C   0  0  0  0  0  0  0  0  0  0  0  0
  -26.9941  -21.9495   25.3163 C   0  0  0  0  0  0  0  0  0  0  0  0
  -17.2130  -26.0035   19.6254 C   0  0  0  0  0  0  0  0  0  0  0  0
  -25.0147  -22.0205   26.8939 C   0  0  0  0  0  0  0  0  0  0  0  0
  -17.6710  -24.5725   19.7916 C   0  0  0  0  0  0  0  0  0  0  0  0
  -24.6472  -21.4433   24.5272 C   0  0  0  0  0  0  0  0  0  0  0  0
  -28.0721  -26.7632   20.4524 C   0  0  1  0  0  0  0  0  0  0  0  0
  -18.0611  -26.7790   20.6291 C   0  0  2  0  0  0  0  0  0  0  0  0
  -26.1994  -30.0525   20.7789 C   0  0  1  0  0  0  0  0  0  0  0  0
  -26.0135  -22.0255   24.1297 C   0  0  2  0  0  0  0  0  0  0  0  0
  -24.0872  -36.1464   25.0693 C   0  0  0  0  0  0  0  0  0  0  0  0
  -26.9194  -30.1651   25.3428 C   0  0  0  0  0  0  0  0  0  0  0  0
  -25.9295  -32.1269   26.5428 C   0  0  0  0  0  0  0  0  0  0  0  0
  -27.9576  -32.4297   25.1222 C   0  0  0  0  0  0  0  0  0  0  0  0
  -22.8435  -35.2856   21.5781 C   0  0  0  0  0  0  0  0  0  0  0  0
  -15.9132  -23.2855   25.3559 C   0  0  0  0  0  0  0  0  0  0  0  0
  -19.3768  -27.2663   20.0382 C   0  0  0  0  0  0  0  0  0  1  0  0
  -25.7192  -32.0277   24.0176 C   0  0  1  0  0  0  0  0  0  0  0  0
  -24.1239  -35.4532   23.7161 C   0  0  2  0  0  0  0  0  0  0  0  0
  -26.6162  -31.6731   25.2370 C   0  0  0  0  0  0  0  0  0  0  0  0
  -26.3009  -20.0608   22.6672 N   0  0  0  0  0  0  0  0  0  0  0  0
  -26.5779  -21.3568   22.8902 N   0  0  0  0  0  0  0  0  0  0  0  0
  -18.0471  -24.4701   21.1876 N   0  0  0  0  0  0  0  0  0  0  0  0
  -25.5798  -30.6710   21.9527 N   0  0  0  0  0  0  0  0  0  0  0  0
  -24.1389  -22.1300   25.7251 N   0  0  0  0  0  0  0  0  0  0  0  0
  -27.7371  -23.2208   22.0000 N   0  0  0  0  0  0  0  0  0  0  0  0
  -28.5698  -19.9474   19.0021 N   0  0  0  0  0  0  0  0  0  0  0  0
  -22.1940  -22.9105   24.6432 N   0  0  0  0  0  0  0  0  0  0  0  0
  -27.4472  -28.0507   20.2372 N   0  0  0  0  0  0  0  0  0  0  0  0
  -25.4381  -33.4524   23.8768 N   0  0  0  0  0  0  0  0  0  0  0  0
  -22.9237  -35.8746   22.9396 N   0  3  0  0  0  0  0  0  0  0  0  0
  -18.7527  -26.0486   22.8308 O   0  0  0  0  0  0  0  0  0  0  0  0
  -17.9579  -22.1345   21.2156 O   0  0  0  0  0  0  0  0  0  0  0  0
  -28.9720  -22.1450   19.5192 O   0  0  0  0  0  0  0  0  0  0  0  0
  -26.5960  -28.3648   22.3818 O   0  0  0  0  0  0  0  0  0  0  0  0
  -27.4208  -32.0409   22.3651 O   0  0  0  0  0  0  0  0  0  0  0  0
  -23.1288  -33.2670   23.9763 O   0  0  0  0  0  0  0  0  0  0  0  0
  -22.5811  -23.3882   26.8801 O   0  0  0  0  0  0  0  0  0  0  0  0
  -26.7226  -14.6986   19.2582 O   0  0  0  0  0  0  0  0  0  0  0  0
  -16.6583  -23.2589   24.1404 O   0  0  0  0  0  0  0  0  0  0  0  0
  -20.1505  -27.8793   21.0688 O   0  0  0  0  0  0  0  0  0  1  0  0
  -31.2048  -11.5153   19.6824 F   0  0  0  0  0  0  0  0  0  0  0  0
  -26.6117  -12.2583   20.5523 F   0  0  0  0  0  0  0  0  0  0  0  0
  1  2  1  0  0  0  0
  1  5  2  0  0  0  0
  2  6  2  0  0  0  0
  3  9  2  0  0  0  0
  3 18  1  0  0  0  0
  4 10  1  0  0  0  0
  4 18  2  0  0  0  0
  5 21  1  0  0  0  0
  6 23  1  0  0  0  0
  7 11  2  0  0  0  0
  7 22  1  0  0  0  0
  8 12  2  0  0  0  0
  8 25  1  0  0  0  0
  9 26  1  0  0  0  0
 10 26  2  0  0  0  0
 11 27  1  0  0  0  0
 12 28  1  0  0  0  0
 13 14  2  0  0  0  0
 13 29  1  0  0  0  0
 14 30  1  0  0  0  0
 15 19  1  0  0  0  0
 15 25  2  0  0  0  0
 16 24  1  0  0  0  0
 16 27  2  0  0  0  0
 17 30  2  0  0  0  0
 17 31  1  0  0  0  0
 18 32  1  0  0  0  0
 19 28  2  0  0  0  0
 19 35  1  0  0  0  0
 20 32  1  0  0  0  0
 20 33  2  0  0  0  0
 20 36  1  0  0  0  0
 21 23  2  0  0  0  0
 21 41  1  0  0  0  0
 22 24  2  0  0  0  0
 22 42  1  0  0  0  0
 23 52  1  0  0  0  0
 24 43  1  0  0  0  0
 25 73  1  0  0  0  0
 26 84  1  0  0  0  0
 27 86  1  0  0  0  0
 28 85  1  0  0  0  0
 29 31  2  0  0  0  0
 29 84  1  0  0  0  0
 30 87  1  0  0  0  0
 31 88  1  0  0  0  0
 32 66  2  0  0  0  0
 33 67  1  0  0  0  0
 33 71  1  0  0  0  0
 34 53  1  0  0  0  0
 34 68  1  0  0  0  0
 34 77  2  0  0  0  0
 35 68  1  0  0  0  0
 35 78  2  0  0  0  0
 36 72  1  0  0  0  0
 36 79  2  0  0  0  0
 37 54  1  0  0  0  0
 37 74  1  0  0  0  0
 37 80  2  0  0  0  0
 38 63  1  0  0  0  0
 38 69  1  0  0  0  0
 38 81  2  0  0  0  0
 39 64  1  0  0  0  0
 39 75  1  0  0  0  0
 39 82  2  0  0  0  0
 40 70  1  0  0  0  0
 40 73  1  0  0  0  0
 40 83  2  0  0  0  0
 41 44  1  0  0  0  0
 42 54  1  0  0  0  0
 43 69  1  0  0  0  0
 44 46  1  0  0  0  0
 45 47  1  0  0  0  0
 45 49  1  0  0  0  0
 46 52  1  0  0  0  0
 47 55  1  0  0  0  0
 48 50  1  0  0  0  0
 48 53  1  0  0  0  0
 49 70  1  0  0  0  0
 50 68  1  0  0  0  0
 51 55  1  0  0  0  0
 51 70  1  0  0  0  0
 52 74  1  0  0  0  0
 53 62  1  0  0  0  0
 54 69  1  0  0  0  0
 55 67  1  0  0  0  0
 56 64  1  0  0  0  0
 57 65  1  0  0  0  0
 58 65  1  0  0  0  0
 59 65  1  0  0  0  0
 60 76  1  0  0  0  0
 61 85  1  0  0  0  0
 62 86  1  0  0  0  0
 63 65  1  0  0  0  0
 63 75  1  0  0  0  0
 64 76  1  0  0  0  0
 66 67  1  0  0  0  0
M  CHG  1  76   1
M  ISO  4  40 100  62 101  73 100  86 101
M  END
> <Batch ID>
0109

> <Smiles>
CNC(C)C(=O)NC(C(=O)N1Cc2cc([101O:1][101CH2:1]C3CCN(C(=O)c4cc([100NH:0][100C:0](=O)N5CCCC(n6nc(-c7ccc(Oc8ccc(F)cc8F)cc7)c(C(N)=O)c6N)C5)ccc4OC)C3=O)ccc2CC1C(=O)NC1CCCc2ccccc21)C(C)(C)C

> <Shape>
0.283

> <Color>
0.076

> <Negative vol penalty>
0.000

$$$$

  -OEChem-04052301233D

 88 97  0     1  0  0  0  0  0999 V2000
  -29.9826  -13.3624   19.3752 C   0  0  0  0  0  0  0  0  0  0  0  0
  -29.0071  -13.6885   18.4384 C   0  0  0  0  0  0  0  0  0  0  0  0
  -29.3937  -23.9379   18.3723 C   0  0  0  0  0  0  0  0  0  0  0  0
  -30.1258  -24.6513   20.5615 C   0  0  0  0  0  0  0  0  0  0  0  0
  -29.6125  -13.0221   20.6756 C   0  0  0  0  0  0  0  0  0  0  0  0
  -27.6608  -13.6732   18.8013 C   0  0  0  0  0  0  0  0  0  0  0  0
  -22.2912  -19.3282   18.3371 C   0  0  0  0  0  0  0  0  0  0  0  0
  -19.0685  -27.8632   24.0470 C   0  0  0  0  0  0  0  0  0  0  0  0
  -18.6252  -26.7128   23.3945 C   0  0  0  0  0  0  0  0  0  0  0  0
  -29.9386  -22.6746   18.6017 C   0  0  0  0  0  0  0  0  0  0  0  0
  -30.6706  -23.3879   20.7909 C   0  0  0  0  0  0  0  0  0  0  0  0
  -21.2938  -20.2969   18.4515 C   0  0  0  0  0  0  0  0  0  0  0  0
  -29.0985  -19.8689   20.2913 C   0  0  0  0  0  0  0  0  0  0  0  0
  -28.3271  -18.7583   19.9490 C   0  0  0  0  0  0  0  0  0  0  0  0
  -20.3024  -19.0746   20.2876 C   0  0  0  0  0  0  0  0  0  0  0  0
  -19.6583  -27.4756   21.3481 C   0  0  0  0  0  0  0  0  0  0  0  0
  -30.0462  -18.0382   18.4117 C   0  0  0  0  0  0  0  0  0  0  0  0
  -29.4873  -24.9263   19.3522 C   0  0  0  0  0  0  0  0  0  0  0  0
  -29.2684  -27.1318   18.0890 C   0  0  0  0  0  0  0  0  0  0  0  0
  -28.2616  -13.0120   21.0573 C   0  0  0  0  0  0  0  0  0  0  0  0
  -22.3068  -18.2357   19.2086 C   0  0  0  0  0  0  0  0  0  0  0  0
  -27.2722  -13.3311   20.1077 C   0  0  0  0  0  0  0  0  0  0  0  0
  -21.3061  -18.1076   20.1859 C   0  0  0  0  0  0  0  0  0  0  0  0
  -19.8066  -28.8198   23.3501 C   0  0  0  0  0  0  0  0  0  0  0  0
  -20.1016  -28.6260   22.0006 C   0  0  0  0  0  0  0  0  0  0  0  0
  -18.9201  -26.5190   22.0450 C   0  0  0  0  0  0  0  0  0  0  0  0
  -30.5770  -22.3996   19.8110 C   0  0  0  0  0  0  0  0  0  0  0  0
  -20.3018  -20.1702   19.4242 C   0  0  0  0  0  0  0  0  0  0  0  0
  -30.3437  -20.0642   19.6938 C   0  0  0  0  0  0  0  0  0  0  0  0
  -28.8009  -17.8429   19.0092 C   0  0  0  0  0  0  0  0  0  0  0  0
  -30.8175  -19.1488   18.7540 C   0  0  0  0  0  0  0  0  0  0  0  0
  -28.9251  -26.2317   19.1156 C   0  0  0  0  0  0  0  0  0  0  0  0
  -28.4554  -28.2186   18.2992 C   0  0  0  0  0  0  0  0  0  0  0  0
  -18.8586  -23.4382   19.9353 C   0  0  0  0  0  0  0  0  0  0  0  0
  -19.3162  -24.4019   20.7708 C   0  0  0  0  0  0  0  0  0  0  0  0
  -17.3749  -23.3199   19.7488 C   0  0  0  0  0  0  0  0  0  0  0  0
  -30.2355  -26.9973   17.0391 C   0  0  0  0  0  0  0  0  0  0  0  0
  -24.0173  -15.0718   20.2764 C   0  0  0  0  0  0  0  0  0  0  0  0
  -23.1402  -16.5180   22.8356 C   0  0  0  0  0  0  0  0  0  0  0  0
  -22.8406  -17.7416   26.0058 C   0  0  0  0  0  0  0  0  0  0  0  0
  -23.1769  -28.7394   20.8920 C   0  0  0  0  0  0  0  0  0  0  0  0
  -27.9072  -12.5916   22.4616 C   0  0  0  0  0  0  0  0  0  0  0  0
  -23.3264  -17.1365   19.0820 C   0  0  0  0  0  0  0  0  0  0  0  0
  -21.3429  -16.8977   21.0790 C   0  0  0  0  0  0  0  0  0  0  0  0
  -16.4821  -24.0775   20.6999 C   0  0  0  0  0  0  0  0  0  0  0  0
  -26.4833  -12.9632   22.8676 C   0  0  0  0  0  0  0  0  0  0  0  0
  -26.1697  -30.5663   21.7880 C   0  0  0  0  0  0  0  0  0  0  0  0
  -25.4985  -12.5874   21.7650 C   0  0  0  0  0  0  0  0  0  0  0  0
  -27.2520  -29.7347   21.0972 C   0  0  0  0  0  0  0  0  0  0  0  0
  -17.0510  -25.4481   21.0124 C   0  0  0  0  0  0  0  0  0  0  0  0
  -25.0670  -29.6772   22.3551 C   0  0  0  0  0  0  0  0  0  0  0  0
  -25.5116  -27.9390   20.6655 C   0  0  0  0  0  0  0  0  0  0  0  0
  -25.8030  -13.3500   20.4699 C   0  0  1  0  0  0  0  0  0  0  0  0
  -23.7396  -16.5375   20.4383 C   0  0  1  0  0  0  0  0  0  0  0  0
  -26.6441  -28.7817   20.0511 C   0  0  2  0  0  0  0  0  0  0  0  0
  -20.2693  -30.0438   24.0699 C   0  0  0  0  0  0  0  0  0  0  0  0
  -20.7877  -24.4433   21.1364 C   0  0  0  0  0  0  0  0  0  0  0  0
  -22.6799  -16.9981   28.3972 C   0  0  0  0  0  0  0  0  0  0  0  0
  -20.2398  -15.6913   22.3798 C   0  0  0  0  0  0  0  0  0  0  0  0
  -19.8721  -15.8804   24.8491 C   0  0  0  0  0  0  0  0  0  0  0  0
  -21.5082  -14.2221   23.9569 C   0  0  0  0  0  0  0  0  0  0  0  0
  -25.3198  -19.1810   26.7412 C   0  0  0  0  0  0  0  0  0  0  0  0
  -20.8890  -29.6371   21.2336 C   0  0  0  0  0  0  0  0  0  0  0  0
  -19.6884  -22.4534   19.1624 C   0  0  0  0  0  0  0  0  0  1  0  0
  -22.0799  -16.6841   23.8946 C   0  0  1  0  0  0  0  0  0  0  0  0
  -23.6107  -17.4407   27.2789 C   0  0  2  0  0  0  0  0  0  0  0  0
  -20.9347  -15.6417   23.7552 C   0  0  0  0  0  0  0  0  0  0  0  0
  -27.9688  -26.7057   19.9185 N   0  0  0  0  0  0  0  0  0  0  0  0
  -27.7041  -27.9155   19.3964 N   0  0  0  0  0  0  0  0  0  0  0  0
  -18.4689  -25.3459   21.3805 N   0  0  0  0  0  0  0  0  0  0  0  0
  -22.7257  -16.6279   21.5027 N   0  0  0  0  0  0  0  0  0  0  0  0
  -24.5180  -28.8082   21.3046 N   0  0  0  0  0  0  0  0  0  0  0  0
  -28.3170  -29.3946   17.6508 N   0  0  0  0  0  0  0  0  0  0  0  0
  -31.5451  -27.4364   17.2769 N   0  0  0  0  0  0  0  0  0  0  0  0
  -25.3209  -14.7116   20.5599 N   0  0  0  0  0  0  0  0  0  0  0  0
  -22.7737  -16.6415   25.1772 N   0  0  0  0  0  0  0  0  0  0  0  0
  -22.2988  -29.5901   21.5521 N   0  0  0  0  0  0  0  0  0  0  0  0
  -24.3509  -18.6511   27.7350 N   0  3  0  0  0  0  0  0  0  0  0  0
  -16.8990  -22.5644   18.9027 O   0  0  0  0  0  0  0  0  0  0  0  0
  -29.9430  -26.5176   15.9176 O   0  0  0  0  0  0  0  0  0  0  0  0
  -23.1156  -14.3216   19.9219 O   0  0  0  0  0  0  0  0  0  0  0  0
  -24.3042  -16.2913   23.1779 O   0  0  0  0  0  0  0  0  0  0  0  0
  -22.3445  -18.8415   25.7716 O   0  0  0  0  0  0  0  0  0  0  0  0
  -22.7912  -27.9794   19.9971 O   0  0  0  0  0  0  0  0  0  0  0  0
  -31.1087  -21.1668   20.0353 O   0  0  0  0  0  0  0  0  0  0  0  0
  -19.3337  -21.1219   19.5333 O   0  0  0  0  0  0  0  0  0  1  0  0
  -28.0608  -16.7757   18.6817 F   0  0  0  0  0  0  0  0  0  0  0  0
  -32.0135  -19.3305   18.1774 F   0  0  0  0  0  0  0  0  0  0  0  0
  1  2  1  0  0  0  0
  1  5  2  0  0  0  0
  2  6  2  0  0  0  0
  3 10  2  0  0  0  0
  3 18  1  0  0  0  0
  4 11  1  0  0  0  0
  4 18  2  0  0  0  0
  5 20  1  0  0  0  0
  6 22  1  0  0  0  0
  7 12  2  0  0  0  0
  7 21  1  0  0  0  0
  8  9  2  0  0  0  0
  8 24  1  0  0  0  0
  9 26  1  0  0  0  0
 10 27  1  0  0  0  0
 11 27  2  0  0  0  0
 12 28  1  0  0  0  0
 13 14  2  0  0  0  0
 13 29  1  0  0  0  0
 14 30  1  0  0  0  0
 15 23  1  0  0  0  0
 15 28  2  0  0  0  0
 16 25  1  0  0  0  0
 16 26  2  0  0  0  0
 17 30  2  0  0  0  0
 17 31  1  0  0  0  0
 18 32  1  0  0  0  0
 19 32  1  0  0  0  0
 19 33  2  0  0  0  0
 19 37  1  0  0  0  0
 20 22  2  0  0  0  0
 20 42  1  0  0  0  0
 21 23  2  0  0  0  0
 21 43  1  0  0  0  0
 22 53  1  0  0  0  0
 23 44  1  0  0  0  0
 24 25  2  0  0  0  0
 24 56  1  0  0  0  0
 25 63  1  0  0  0  0
 26 70  1  0  0  0  0
 27 85  1  0  0  0  0
 28 86  1  0  0  0  0
 29 31  2  0  0  0  0
 29 85  1  0  0  0  0
 30 87  1  0  0  0  0
 31 88  1  0  0  0  0
 32 68  2  0  0  0  0
 33 69  1  0  0  0  0
 33 73  1  0  0  0  0
 34 35  2  0  0  0  0
 34 36  1  0  0  0  0
 34 64  1  0  0  0  0
 35 57  1  0  0  0  0
 35 70  1  0  0  0  0
 36 45  1  0  0  0  0
 36 79  2  0  0  0  0
 37 74  1  0  0  0  0
 37 80  2  0  0  0  0
 38 54  1  0  0  0  0
 38 75  1  0  0  0  0
 38 81  2  0  0  0  0
 39 65  1  0  0  0  0
 39 71  1  0  0  0  0
 39 82  2  0  0  0  0
 40 66  1  0  0  0  0
 40 76  1  0  0  0  0
 40 83  2  0  0  0  0
 41 72  1  0  0  0  0
 41 77  1  0  0  0  0
 41 84  2  0  0  0  0
 42 46  1  0  0  0  0
 43 54  1  0  0  0  0
 44 71  1  0  0  0  0
 45 50  1  0  0  0  0
 46 48  1  0  0  0  0
 47 49  1  0  0  0  0
 47 51  1  0  0  0  0
 48 53  1  0  0  0  0
 49 55  1  0  0  0  0
 50 70  1  0  0  0  0
 51 72  1  0  0  0  0
 52 55  1  0  0  0  0
 52 72  1  0  0  0  0
 53 75  1  0  0  0  0
 54 71  1  0  0  0  0
 55 69  1  0  0  0  0
 58 66  1  0  0  0  0
 59 67  1  0  0  0  0
 60 67  1  0  0  0  0
 61 67  1  0  0  0  0
 62 78  1  0  0  0  0
 63 77  1  0  0  0  0
 64 86  1  0  0  0  0
 65 67  1  0  0  0  0
 65 76  1  0  0  0  0
 66 78  1  0  0  0  0
 68 69  1  0  0  0  0
M  CHG  1  78   1
M  ISO  4  41 100  64 101  77 100  86 101
M  END
> <Batch ID>
0109

> <Smiles>
CNC(C)C(=O)NC(C(=O)N1Cc2cc([101O:1][101CH2:1]C3=C(C)N(c4ccc(C)c(C[100NH:0][100C:0](=O)N5CCCC(n6nc(-c7ccc(Oc8ccc(F)cc8F)cc7)c(C(N)=O)c6N)C5)c4)CCC3=O)ccc2CC1C(=O)NC1CCCc2ccccc21)C(C)(C)C

> <Shape>
0.239

> <Color>
0.077

> <Negative vol penalty>
0.000

$$$$

  -OEChem-04052301233D

 89 98  0     1  0  0  0  0  0999 V2000
  -26.5856  -36.0911   26.2443 C   0  0  0  0  0  0  0  0  0  0  0  0
  -26.6291  -34.7038   26.3381 C   0  0  0  0  0  0  0  0  0  0  0  0
  -22.8413  -10.8528   22.4004 C   0  0  0  0  0  0  0  0  0  0  0  0
  -24.4718   -9.1890   21.7597 C   0  0  0  0  0  0  0  0  0  0  0  0
  -25.5746  -36.7075   25.5082 C   0  0  0  0  0  0  0  0  0  0  0  0
  -25.6609  -33.9320   25.6967 C   0  0  0  0  0  0  0  0  0  0  0  0
  -27.5067  -29.0073   20.7742 C   0  0  0  0  0  0  0  0  0  0  0  0
  -29.8856  -19.1244   20.8211 C   0  0  0  0  0  0  0  0  0  0  0  0
  -29.5950  -20.1795   19.9564 C   0  0  0  0  0  0  0  0  0  0  0  0
  -22.2977   -9.9633   23.3271 C   0  0  0  0  0  0  0  0  0  0  0  0
  -23.9282   -8.2995   22.6865 C   0  0  0  0  0  0  0  0  0  0  0  0
  -27.7945  -27.8998   19.9762 C   0  0  0  0  0  0  0  0  0  0  0  0
  -21.2509   -6.2452   22.8941 C   0  0  0  0  0  0  0  0  0  0  0  0
  -21.0389   -4.9296   22.4823 C   0  0  0  0  0  0  0  0  0  0  0  0
  -25.4307  -27.5013   19.6581 C   0  0  0  0  0  0  0  0  0  0  0  0
  -27.2414  -19.9278   20.4403 C   0  0  0  0  0  0  0  0  0  0  0  0
  -22.5293   -4.1469   24.2153 C   0  0  0  0  0  0  0  0  0  0  0  0
  -23.9283  -10.4657   21.6166 C   0  0  0  0  0  0  0  0  0  0  0  0
  -23.8336  -11.9764   19.5632 C   0  0  0  0  0  0  0  0  0  0  0  0
  -24.5991  -35.9426   24.8494 C   0  0  0  0  0  0  0  0  0  0  0  0
  -26.1783  -29.3756   21.0048 C   0  0  0  0  0  0  0  0  0  0  0  0
  -24.6351  -34.5388   24.9522 C   0  0  0  0  0  0  0  0  0  0  0  0
  -25.1364  -28.6170   20.4464 C   0  0  0  0  0  0  0  0  0  0  0  0
  -28.8541  -18.4709   21.4954 C   0  0  0  0  0  0  0  0  0  0  0  0
  -27.5320  -18.8726   21.3050 C   0  0  0  0  0  0  0  0  0  0  0  0
  -28.2729  -20.5813   19.7660 C   0  0  0  0  0  0  0  0  0  0  0  0
  -22.8412   -8.6867   23.4702 C   0  0  0  0  0  0  0  0  0  0  0  0
  -26.7590  -27.1486   19.4198 C   0  0  0  0  0  0  0  0  0  0  0  0
  -22.1023   -6.5118   23.9665 C   0  0  0  0  0  0  0  0  0  0  0  0
  -21.6780   -3.8804   23.1429 C   0  0  0  0  0  0  0  0  0  0  0  0
  -22.7414   -5.4626   24.6270 C   0  0  0  0  0  0  0  0  0  0  0  0
  -24.4899  -11.3839   20.6587 C   0  0  0  0  0  0  0  0  0  0  0  0
  -24.7935  -12.7602   18.9709 C   0  0  0  0  0  0  0  0  0  0  0  0
  -26.8033  -23.7024   18.3475 C   0  0  0  0  0  0  0  0  0  0  0  0
  -27.3352  -22.8510   19.2580 C   0  0  0  0  0  0  0  0  0  0  0  0
  -26.8650  -23.3164   16.8976 C   0  0  0  0  0  0  0  0  0  0  0  0
  -22.4776  -11.8314   19.1207 C   0  0  0  0  0  0  0  0  0  0  0  0
  -23.8052  -31.7731   22.6468 C   0  0  0  0  0  0  0  0  0  0  0  0
  -22.6744  -31.1679   19.8601 C   0  0  0  0  0  0  0  0  0  0  0  0
  -21.1085  -31.2756   16.8314 C   0  0  0  0  0  0  0  0  0  0  0  0
  -29.7740  -15.3654   21.0345 C   0  0  0  0  0  0  0  0  0  0  0  0
  -23.4984  -36.6555   24.1046 C   0  0  0  0  0  0  0  0  0  0  0  0
  -25.8206  -30.5245   21.9081 C   0  0  0  0  0  0  0  0  0  0  0  0
  -23.7221  -29.0298   20.7499 C   0  0  0  0  0  0  0  0  0  0  0  0
  -27.3868  -21.9462   16.5379 C   0  0  0  0  0  0  0  0  0  0  0  0
  -22.7279  -35.7521   23.1452 C   0  0  0  0  0  0  0  0  0  0  0  0
  -29.5276  -13.0489   18.3419 C   0  0  0  0  0  0  0  0  0  0  0  0
  -22.3611  -34.4381   23.8276 C   0  0  0  0  0  0  0  0  0  0  0  0
  -28.1494  -12.4130   18.5315 C   0  0  0  0  0  0  0  0  0  0  0  0
  -28.4543  -21.4769   17.5108 C   0  0  0  0  0  0  0  0  0  0  0  0
  -30.2052  -13.3367   19.6798 C   0  0  0  0  0  0  0  0  0  0  0  0
  -28.0222  -13.5005   20.8118 C   0  0  0  0  0  0  0  0  0  0  0  0
  -23.6172  -33.6665   24.2500 C   0  0  1  0  0  0  0  0  0  0  0  0
  -24.5643  -31.2854   21.4479 C   0  0  1  0  0  0  0  0  0  0  0  0
  -27.2761  -13.2431   19.4915 C   0  0  2  0  0  0  0  0  0  0  0  0
  -27.3518  -23.2286   20.7266 C   0  0  0  0  0  0  0  0  0  0  0  0
  -25.8865  -19.0033   23.1923 C   0  0  0  0  0  0  0  0  0  0  0  0
  -18.8675  -31.7045   15.7867 C   0  0  0  0  0  0  0  0  0  0  0  0
  -21.7247  -28.4182   20.7774 C   0  0  0  0  0  0  0  0  0  0  0  0
  -19.9771  -28.5028   18.9866 C   0  0  0  0  0  0  0  0  0  0  0  0
  -19.9668  -30.1966   20.8179 C   0  0  0  0  0  0  0  0  0  0  0  0
  -22.1449  -33.5669   15.2711 C   0  0  0  0  0  0  0  0  0  0  0  0
  -26.4111  -18.1870   22.0150 C   0  0  0  0  0  0  0  0  0  0  0  0
  -29.1899  -17.3432   22.4152 C   0  0  0  0  0  0  0  0  0  0  0  0
  -26.1038  -25.0005   18.6361 C   0  0  0  0  0  0  0  0  0  1  0  0
  -21.7484  -30.3171   19.0282 C   0  0  1  0  0  0  0  0  0  0  0  0
  -20.1961  -32.3148   16.2053 C   0  0  2  0  0  0  0  0  0  0  0  0
  -20.8818  -29.3614   19.8960 C   0  0  0  0  0  0  0  0  0  0  0  0
  -25.7679  -11.7590   20.7586 N   0  0  0  0  0  0  0  0  0  0  0  0
  -25.9225  -12.5956   19.7183 N   0  0  0  0  0  0  0  0  0  0  0  0
  -27.9779  -21.6553   18.8870 N   0  0  0  0  0  0  0  0  0  0  0  0
  -23.5975  -30.4936   20.6686 N   0  0  0  0  0  0  0  0  0  0  0  0
  -29.3253  -14.1286   20.5428 N   0  0  0  0  0  0  0  0  0  0  0  0
  -24.7735  -13.5672   17.8889 N   0  0  0  0  0  0  0  0  0  0  0  0
  -21.6252  -10.9866   19.8447 N   0  0  0  0  0  0  0  0  0  0  0  0
  -24.2151  -33.0098   23.1074 N   0  0  0  0  0  0  0  0  0  0  0  0
  -20.9765  -31.2403   18.2034 N   0  0  0  0  0  0  0  0  0  0  0  0
  -28.8754  -16.0545   21.8397 N   0  0  0  0  0  0  0  0  0  0  0  0
  -20.8398  -32.9109   15.0006 N   0  3  0  0  0  0  0  0  0  0  0  0
  -26.4482  -24.0769   16.0243 O   0  0  0  0  0  0  0  0  0  0  0  0
  -22.0394  -12.4204   18.1036 O   0  0  0  0  0  0  0  0  0  0  0  0
  -22.9119  -31.0799   23.1193 O   0  0  0  0  0  0  0  0  0  0  0  0
  -22.5802  -32.3971   19.8011 O   0  0  0  0  0  0  0  0  0  0  0  0
  -21.8602  -30.5636   16.1691 O   0  0  0  0  0  0  0  0  0  0  0  0
  -30.8907  -15.8243   20.7707 O   0  0  0  0  0  0  0  0  0  0  0  0
  -22.3112   -7.8185   24.3746 O   0  0  0  0  0  0  0  0  0  0  0  0
  -27.0472  -26.0712   18.6380 O   0  0  0  0  0  0  0  0  0  1  0  0
  -21.4731   -2.6169   22.7483 F   0  0  0  0  0  0  0  0  0  0  0  0
  -23.5595   -5.7124   25.6586 F   0  0  0  0  0  0  0  0  0  0  0  0
  1  2  1  0  0  0  0
  1  5  2  0  0  0  0
  2  6  2  0  0  0  0
  3 10  2  0  0  0  0
  3 18  1  0  0  0  0
  4 11  1  0  0  0  0
  4 18  2  0  0  0  0
  5 20  1  0  0  0  0
  6 22  1  0  0  0  0
  7 12  2  0  0  0  0
  7 21  1  0  0  0  0
  8  9  2  0  0  0  0
  8 24  1  0  0  0  0
  9 26  1  0  0  0  0
 10 27  1  0  0  0  0
 11 27  2  0  0  0  0
 12 28  1  0  0  0  0
 13 14  2  0  0  0  0
 13 29  1  0  0  0  0
 14 30  1  0  0  0  0
 15 23  1  0  0  0  0
 15 28  2  0  0  0  0
 16 25  1  0  0  0  0
 16 26  2  0  0  0  0
 17 30  2  0  0  0  0
 17 31  1  0  0  0  0
 18 32  1  0  0  0  0
 19 32  1  0  0  0  0
 19 33  2  0  0  0  0
 19 37  1  0  0  0  0
 20 22  2  0  0  0  0
 20 42  1  0  0  0  0
 21 23  2  0  0  0  0
 21 43  1  0  0  0  0
 22 53  1  0  0  0  0
 23 44  1  0  0  0  0
 24 25  2  0  0  0  0
 24 64  1  0  0  0  0
 25 63  1  0  0  0  0
 26 71  1  0  0  0  0
 27 86  1  0  0  0  0
 28 87  1  0  0  0  0
 29 31  2  0  0  0  0
 29 86  1  0  0  0  0
 30 88  1  0  0  0  0
 31 89  1  0  0  0  0
 32 69  2  0  0  0  0
 33 70  1  0  0  0  0
 33 74  1  0  0  0  0
 34 35  2  0  0  0  0
 34 36  1  0  0  0  0
 34 65  1  0  0  0  0
 35 56  1  0  0  0  0
 35 71  1  0  0  0  0
 36 45  1  0  0  0  0
 36 80  2  0  0  0  0
 37 75  1  0  0  0  0
 37 81  2  0  0  0  0
 38 54  1  0  0  0  0
 38 76  1  0  0  0  0
 38 82  2  0  0  0  0
 39 66  1  0  0  0  0
 39 72  1  0  0  0  0
 39 83  2  0  0  0  0
 40 67  1  0  0  0  0
 40 77  1  0  0  0  0
 40 84  2  0  0  0  0
 41 73  1  0  0  0  0
 41 78  1  0  0  0  0
 41 85  2  0  0  0  0
 42 46  1  0  0  0  0
 43 54  1  0  0  0  0
 44 72  1  0  0  0  0
 45 50  1  0  0  0  0
 46 48  1  0  0  0  0
 47 49  1  0  0  0  0
 47 51  1  0  0  0  0
 48 53  1  0  0  0  0
 49 55  1  0  0  0  0
 50 71  1  0  0  0  0
 51 73  1  0  0  0  0
 52 55  1  0  0  0  0
 52 73  1  0  0  0  0
 53 76  1  0  0  0  0
 54 72  1  0  0  0  0
 55 70  1  0  0  0  0
 57 63  1  0  0  0  0
 58 67  1  0  0  0  0
 59 68  1  0  0  0  0
 60 68  1  0  0  0  0
 61 68  1  0  0  0  0
 62 79  1  0  0  0  0
 64 78  1  0  0  0  0
 65 87  1  0  0  0  0
 66 68  1  0  0  0  0
 66 77  1  0  0  0  0
 67 79  1  0  0  0  0
 69 70  1  0  0  0  0
M  CHG  1  79   1
M  ISO  4  41 100  65 101  78 100  87 101
M  END
> <Batch ID>
0109

> <Smiles>
CCc1cc(N2CCC(=O)C([101CH2:1][101O:1]c3ccc4c(c3)CN(C(=O)C(NC(=O)C(C)NC)C(C)(C)C)C(C(=O)NC3CCCc5ccccc53)C4)=C2C)ccc1C[100NH:0][100C:0](=O)N1CCCC(n2nc(-c3ccc(Oc4ccc(F)cc4F)cc3)c(C(N)=O)c2N)C1

> <Shape>
0.305

> <Color>
0.100

> <Negative vol penalty>
0.000

$$$$

  -OEChem-04052301233D

 86 94  0     1  0  0  0  0  0999 V2000
  -27.6680  -24.5210    7.5191 C   0  0  0  0  0  0  0  0  0  0  0  0
  -26.8706  -23.7911    8.3948 C   0  0  0  0  0  0  0  0  0  0  0  0
  -23.1793   -9.8367   19.9333 C   0  0  0  0  0  0  0  0  0  0  0  0
  -23.5523  -10.0129   22.3139 C   0  0  0  0  0  0  0  0  0  0  0  0
  -28.9222  -24.9703    7.9301 C   0  0  0  0  0  0  0  0  0  0  0  0
  -27.3276  -23.5090    9.6817 C   0  0  0  0  0  0  0  0  0  0  0  0
  -23.9628  -23.1445   14.7857 C   0  0  0  0  0  0  0  0  0  0  0  0
  -22.4038   -8.6958   20.1392 C   0  0  0  0  0  0  0  0  0  0  0  0
  -22.7766   -8.8720   22.5198 C   0  0  0  0  0  0  0  0  0  0  0  0
  -23.4293  -22.0608   15.4821 C   0  0  0  0  0  0  0  0  0  0  0  0
  -23.1530   -5.5225   22.2549 C   0  0  0  0  0  0  0  0  0  0  0  0
  -23.6415   -4.5569   23.1350 C   0  0  0  0  0  0  0  0  0  0  0  0
  -27.8756  -19.1290   14.4040 C   0  0  0  0  0  0  0  0  0  0  0  0
  -27.0628  -16.9924   16.0031 C   0  0  0  0  0  0  0  0  0  0  0  0
  -25.3371  -22.0780   16.9583 C   0  0  0  0  0  0  0  0  0  0  0  0
  -21.6831   -4.8310   24.5230 C   0  0  0  0  0  0  0  0  0  0  0  0
  -23.7536  -10.4952   21.0206 C   0  0  0  0  0  0  0  0  0  0  0  0
  -28.8270  -18.2836   14.9747 C   0  0  0  0  0  0  0  0  0  0  0  0
  -28.4206  -17.2153   15.7742 C   0  0  0  0  0  0  0  0  0  0  0  0
  -24.1122  -13.0094   20.7793 C   0  0  0  0  0  0  0  0  0  0  0  0
  -29.3908  -24.7019    9.2259 C   0  0  0  0  0  0  0  0  0  0  0  0
  -25.1948  -23.6970   15.1643 C   0  0  0  0  0  0  0  0  0  0  0  0
  -28.5899  -23.9540   10.1099 C   0  0  0  0  0  0  0  0  0  0  0  0
  -25.8828  -23.1702   16.2667 C   0  0  0  0  0  0  0  0  0  0  0  0
  -22.2024   -8.2135   21.4325 C   0  0  0  0  0  0  0  0  0  0  0  0
  -24.1179  -21.5256   16.5668 C   0  0  0  0  0  0  0  0  0  0  0  0
  -21.9295   -6.1424   22.5089 C   0  0  0  0  0  0  0  0  0  0  0  0
  -26.5178  -18.9062   14.6330 C   0  0  0  0  0  0  0  0  0  0  0  0
  -26.1114  -17.8379   15.4324 C   0  0  0  0  0  0  0  0  0  0  0  0
  -22.9066   -4.2112   24.2690 C   0  0  0  0  0  0  0  0  0  0  0  0
  -21.1946   -5.7967   23.6429 C   0  0  0  0  0  0  0  0  0  0  0  0
  -24.5554  -11.6735   20.8085 C   0  0  0  0  0  0  0  0  0  0  0  0
  -25.2497  -13.7435   20.5476 C   0  0  0  0  0  0  0  0  0  0  0  0
  -30.8533  -19.6619   15.0722 C   0  0  0  0  0  0  0  0  0  0  0  0
  -30.2367  -18.5461   14.7137 C   0  0  0  0  0  0  0  0  0  0  0  0
  -29.3939  -16.3003   16.3967 C   0  0  0  0  0  0  0  0  0  0  0  0
  -22.7905  -13.5393   20.9467 C   0  0  0  0  0  0  0  0  0  0  0  0
  -28.0262  -24.0385   13.7607 C   0  0  0  0  0  0  0  0  0  0  0  0
  -28.7121  -25.7382   16.4370 C   0  0  0  0  0  0  0  0  0  0  0  0
  -28.0367  -26.3663   19.7227 C   0  0  0  0  0  0  0  0  0  0  0  0
  -29.9870  -14.4956   17.6938 C   0  0  0  0  0  0  0  0  0  0  0  0
  -30.7731  -25.1678    9.6089 C   0  0  0  0  0  0  0  0  0  0  0  0
  -25.7438  -24.8828   14.4194 C   0  0  0  0  0  0  0  0  0  0  0  0
  -27.1992  -23.7400   16.7260 C   0  0  0  0  0  0  0  0  0  0  0  0
  -31.0272  -25.1481   11.1140 C   0  0  0  0  0  0  0  0  0  0  0  0
  -30.1201  -12.4072   20.6307 C   0  0  0  0  0  0  0  0  0  0  0  0
  -30.5501  -23.8315   11.7187 C   0  0  0  0  0  0  0  0  0  0  0  0
  -28.6472  -12.1122   20.9138 C   0  0  0  0  0  0  0  0  0  0  0  0
  -30.3950  -12.4990   19.1328 C   0  0  0  0  0  0  0  0  0  0  0  0
  -28.0548  -13.1966   18.7019 C   0  0  0  0  0  0  0  0  0  0  0  0
  -29.0402  -23.6492   11.5221 C   0  0  1  0  0  0  0  0  0  0  0  0
  -27.2536  -25.0385   14.5735 C   0  0  1  0  0  0  0  0  0  0  0  0
  -27.7337  -13.1278   20.2047 C   0  0  1  0  0  0  0  0  0  0  0  0
  -28.7889  -27.7831   21.6526 C   0  0  0  0  0  0  0  0  0  0  0  0
  -31.1519  -23.9425   16.8011 C   0  0  0  0  0  0  0  0  0  0  0  0
  -31.3062  -24.7496   19.1661 C   0  0  0  0  0  0  0  0  0  0  0  0
  -31.5575  -26.3633   17.2805 C   0  0  0  0  0  0  0  0  0  0  0  0
  -25.3891  -27.6697   19.9482 C   0  0  0  0  0  0  0  0  0  0  0  0
  -25.1096  -19.3870   12.7778 C   0  0  0  0  0  0  0  0  0  0  0  0
  -22.9193  -18.1579   17.0912 C   0  0  0  0  0  0  0  0  0  0  0  0
  -22.7847  -19.5570   16.5109 C   0  0  0  0  0  0  0  0  0  1  0  0
  -24.3498  -17.6472   17.0187 C   0  0  0  0  0  0  0  0  0  0  0  0
  -29.2747  -25.4079   17.7984 C   0  0  1  0  0  0  0  0  0  0  0  0
  -27.8301  -27.6669   20.4779 C   0  0  2  0  0  0  0  0  0  0  0  0
  -30.7987  -25.1036   17.7519 C   0  0  0  0  0  0  0  0  0  0  0  0
  -25.8717  -11.5625   20.6110 N   0  0  0  0  0  0  0  0  0  0  0  0
  -29.0189  -15.3124   17.1415 N   0  0  0  0  0  0  0  0  0  0  0  0
  -26.2654  -12.8380   20.4554 N   0  0  0  0  0  0  0  0  0  0  0  0
  -27.6978  -24.8951   15.9614 N   0  0  0  0  0  0  0  0  0  0  0  0
  -29.4862  -13.4482   18.4885 N   0  0  0  0  0  0  0  0  0  0  0  0
  -25.4701  -15.0688   20.4157 N   0  0  0  0  0  0  0  0  0  0  0  0
  -21.7363  -12.6449   21.1772 N   0  0  0  0  0  0  0  0  0  0  0  0
  -28.3057  -24.4556   12.4733 N   0  0  0  0  0  0  0  0  0  0  0  0
  -28.9138  -26.5207   18.6701 N   0  0  0  0  0  0  0  0  0  0  0  0
  -26.4363  -27.7475   20.9991 N   0  3  0  0  0  0  0  0  0  0  0  0
  -22.5488  -14.7682   20.8770 O   0  0  0  0  0  0  0  0  0  0  0  0
  -28.3464  -22.9684   14.2647 O   0  0  0  0  0  0  0  0  0  0  0  0
  -29.1513  -26.7128   15.8214 O   0  0  0  0  0  0  0  0  0  0  0  0
  -27.4788  -25.3174   20.0376 O   0  0  0  0  0  0  0  0  0  0  0  0
  -31.1979  -14.6472   17.5154 O   0  0  0  0  0  0  0  0  0  0  0  0
  -21.4454   -7.1003   21.6338 O   0  0  0  0  0  0  0  0  0  0  0  0
  -25.5977  -19.7391   14.0707 O   0  0  0  0  0  0  0  0  0  0  0  0
  -23.5997  -20.4675   17.2478 O   0  0  0  0  0  0  0  0  0  1  0  0
  -24.7802  -17.6087   15.6648 O   0  0  0  0  0  0  0  0  0  0  0  0
  -23.3752   -3.2828   25.1132 F   0  0  0  0  0  0  0  0  0  0  0  0
  -20.0179   -6.3879   23.8915 F   0  0  0  0  0  0  0  0  0  0  0  0
  1  2  1  0  0  0  0
  1  5  2  0  0  0  0
  2  6  2  0  0  0  0
  3  8  2  0  0  0  0
  3 17  1  0  0  0  0
  4  9  1  0  0  0  0
  4 17  2  0  0  0  0
  5 21  1  0  0  0  0
  6 23  1  0  0  0  0
  7 10  2  0  0  0  0
  7 22  1  0  0  0  0
  8 25  1  0  0  0  0
  9 25  2  0  0  0  0
 10 26  1  0  0  0  0
 11 12  2  0  0  0  0
 11 27  1  0  0  0  0
 12 30  1  0  0  0  0
 13 18  1  0  0  0  0
 13 28  2  0  0  0  0
 14 19  1  0  0  0  0
 14 29  2  0  0  0  0
 15 24  1  0  0  0  0
 15 26  2  0  0  0  0
 16 30  2  0  0  0  0
 16 31  1  0  0  0  0
 17 32  1  0  0  0  0
 18 19  2  0  0  0  0
 18 35  1  0  0  0  0
 19 36  1  0  0  0  0
 20 32  1  0  0  0  0
 20 33  2  0  0  0  0
 20 37  1  0  0  0  0
 21 23  2  0  0  0  0
 21 42  1  0  0  0  0
 22 24  2  0  0  0  0
 22 43  1  0  0  0  0
 23 51  1  0  0  0  0
 24 44  1  0  0  0  0
 25 81  1  0  0  0  0
 26 83  1  0  0  0  0
 27 31  2  0  0  0  0
 27 81  1  0  0  0  0
 28 29  1  0  0  0  0
 28 82  1  0  0  0  0
 29 84  1  0  0  0  0
 30 85  1  0  0  0  0
 31 86  1  0  0  0  0
 32 66  2  0  0  0  0
 33 68  1  0  0  0  0
 33 71  1  0  0  0  0
 34 35  2  0  0  0  0
 36 67  2  0  0  0  0
 37 72  1  0  0  0  0
 37 76  2  0  0  0  0
 38 52  1  0  0  0  0
 38 73  1  0  0  0  0
 38 77  2  0  0  0  0
 39 63  1  0  0  0  0
 39 69  1  0  0  0  0
 39 78  2  0  0  0  0
 40 64  1  0  0  0  0
 40 74  1  0  0  0  0
 40 79  2  0  0  0  0
 41 67  1  0  0  0  0
 41 70  1  0  0  0  0
 41 80  2  0  0  0  0
 42 45  1  0  0  0  0
 43 52  1  0  0  0  0
 44 69  1  0  0  0  0
 45 47  1  0  0  0  0
 46 48  1  0  0  0  0
 46 49  1  0  0  0  0
 47 51  1  0  0  0  0
 48 53  1  0  0  0  0
 49 70  1  0  0  0  0
 50 53  1  0  0  0  0
 50 70  1  0  0  0  0
 51 73  1  0  0  0  0
 52 69  1  0  0  0  0
 53 68  1  0  0  0  0
 54 64  1  0  0  0  0
 55 65  1  0  0  0  0
 56 65  1  0  0  0  0
 57 65  1  0  0  0  0
 58 75  1  0  0  0  0
 59 82  1  0  0  0  0
 60 61  1  0  0  0  0
 60 62  1  0  0  0  0
 61 83  1  0  0  0  0
 62 84  1  0  0  0  0
 63 65  1  0  0  0  0
 63 74  1  0  0  0  0
 64 75  1  0  0  0  0
 66 68  1  0  0  0  0
M  CHG  1  75   1
M  ISO  4  41 100  61 101  67 100  83 101
M  END
> <Batch ID>
0109

> <Smiles>
C=Cc1cc(OC)c(OCC[101CH2:1][101O:1]c2ccc3c(c2)CN(C(=O)C(NC(=O)C(C)NC)C(C)(C)C)C(C(=O)NC2CCCc4ccccc42)C3)cc1C=[100N:0][100C:0](=O)N1CCCC(n2nc(-c3ccc(Oc4ccc(F)cc4F)cc3)c(C(N)=O)c2N)C1

> <Shape>
0.195

> <Color>
0.176

> <Negative vol penalty>
0.000

$$$$

  -OEChem-04052301233D

 88 97  0     1  0  0  0  0  0999 V2000
  -21.1722  -35.2052   23.4469 C   0  0  0  0  0  0  0  0  0  0  0  0
  -21.7354  -34.1665   22.7125 C   0  0  0  0  0  0  0  0  0  0  0  0
  -24.2411   -9.3120   21.0925 C   0  0  0  0  0  0  0  0  0  0  0  0
  -25.4750  -10.0094   23.0491 C   0  0  0  0  0  0  0  0  0  0  0  0
  -21.9941  -36.0931   24.1397 C   0  0  0  0  0  0  0  0  0  0  0  0
  -23.1210  -34.0159   22.6696 C   0  0  0  0  0  0  0  0  0  0  0  0
  -24.5722  -29.2046   23.2947 C   0  0  0  0  0  0  0  0  0  0  0  0
  -24.0587   -8.0498   21.6574 C   0  0  0  0  0  0  0  0  0  0  0  0
  -25.2926   -8.7472   23.6141 C   0  0  0  0  0  0  0  0  0  0  0  0
  -24.4531  -28.3556   22.1952 C   0  0  0  0  0  0  0  0  0  0  0  0
  -22.0565   -6.6263   23.9807 C   0  0  0  0  0  0  0  0  0  0  0  0
  -20.7832   -6.0616   23.9085 C   0  0  0  0  0  0  0  0  0  0  0  0
  -26.8080  -28.6195   21.7439 C   0  0  0  0  0  0  0  0  0  0  0  0
  -25.6177  -20.8905   20.5726 C   0  0  0  0  0  0  0  0  0  0  0  0
  -28.0408  -19.8861   19.6227 C   0  0  0  0  0  0  0  0  0  0  0  0
  -21.6820   -4.1932   22.6683 C   0  0  0  0  0  0  0  0  0  0  0  0
  -24.9493  -10.2918   21.7883 C   0  0  0  0  0  0  0  0  0  0  0  0
  -24.1380  -12.5074   20.8185 C   0  0  0  0  0  0  0  0  0  0  0  0
  -23.3901  -35.9475   24.1132 C   0  0  0  0  0  0  0  0  0  0  0  0
  -25.8100  -29.7770   23.6211 C   0  0  0  0  0  0  0  0  0  0  0  0
  -23.9624  -34.9035   23.3616 C   0  0  0  0  0  0  0  0  0  0  0  0
  -26.9408  -29.4734   22.8495 C   0  0  0  0  0  0  0  0  0  0  0  0
  -26.3508  -21.6127   19.6310 C   0  0  0  0  0  0  0  0  0  0  0  0
  -27.5623  -21.1105   19.1560 C   0  0  0  0  0  0  0  0  0  0  0  0
  -27.3077  -19.1640   20.5643 C   0  0  0  0  0  0  0  0  0  0  0  0
  -24.5844   -7.7674   22.9182 C   0  0  0  0  0  0  0  0  0  0  0  0
  -25.5705  -28.0653   21.4179 C   0  0  0  0  0  0  0  0  0  0  0  0
  -23.1427   -5.9744   23.3967 C   0  0  0  0  0  0  0  0  0  0  0  0
  -20.5959   -4.8450   23.2523 C   0  0  0  0  0  0  0  0  0  0  0  0
  -26.0961  -19.6662   21.0393 C   0  0  0  0  0  0  0  0  0  0  0  0
  -22.9554   -4.7579   22.7405 C   0  0  0  0  0  0  0  0  0  0  0  0
  -25.1385  -11.5957   21.2050 C   0  0  0  0  0  0  0  0  0  0  0  0
  -24.8291  -13.5871   20.3256 C   0  0  0  0  0  0  0  0  0  0  0  0
  -24.8714  -25.0412   19.5779 C   0  0  0  0  0  0  0  0  0  0  0  0
  -25.5832  -23.9665   19.9957 C   0  0  0  0  0  0  0  0  0  0  0  0
  -24.4441  -25.0823   18.1406 C   0  0  0  0  0  0  0  0  0  0  0  0
  -22.7113  -12.3889   20.8980 C   0  0  0  0  0  0  0  0  0  0  0  0
  -26.9292  -32.7463   23.8066 C   0  0  0  0  0  0  0  0  0  0  0  0
  -29.5656  -31.2638   24.9786 C   0  0  0  0  0  0  0  0  0  0  0  0
  -31.4691  -28.2925   24.2265 C   0  0  0  0  0  0  0  0  0  0  0  0
  -28.9799  -17.2827   20.6683 C   0  0  0  0  0  0  0  0  0  0  0  0
  -24.2396  -36.9602   24.8394 C   0  0  0  0  0  0  0  0  0  0  0  0
  -25.9274  -30.6695   24.8261 C   0  0  0  0  0  0  0  0  0  0  0  0
  -28.2965  -30.0460   23.1698 C   0  0  0  0  0  0  0  0  0  0  0  0
  -25.0609  -24.0838   17.1929 C   0  0  0  0  0  0  0  0  0  0  0  0
  -25.6825  -36.5076   25.0477 C   0  0  0  0  0  0  0  0  0  0  0  0
  -29.7364  -14.1253   19.2069 C   0  0  0  0  0  0  0  0  0  0  0  0
  -26.2517  -35.9276   23.7568 C   0  0  0  0  0  0  0  0  0  0  0  0
  -28.5253  -13.2607   19.5646 C   0  0  0  0  0  0  0  0  0  0  0  0
  -25.2125  -22.7253   17.8496 C   0  0  0  0  0  0  0  0  0  0  0  0
  -30.0986  -15.0889   20.3356 C   0  0  0  0  0  0  0  0  0  0  0  0
  -27.7816  -15.0633   21.1723 C   0  0  0  0  0  0  0  0  0  0  0  0
  -25.4601  -34.6923   23.3109 C   0  0  1  0  0  0  0  0  0  0  0  0
  -27.1312  -31.6045   24.7622 C   0  0  1  0  0  0  0  0  0  0  0  0
  -27.3389  -14.1219   20.0403 C   0  0  2  0  0  0  0  0  0  0  0  0
  -26.1955  -23.9636   21.3835 C   0  0  0  0  0  0  0  0  0  0  0  0
  -32.9022  -26.8558   25.7028 C   0  0  0  0  0  0  0  0  0  0  0  0
  -31.8525  -33.0154   23.9726 C   0  0  0  0  0  0  0  0  0  0  0  0
  -33.2983  -30.9723   23.9126 C   0  0  0  0  0  0  0  0  0  0  0  0
  -32.3474  -31.7620   26.0793 C   0  0  0  0  0  0  0  0  0  0  0  0
  -29.9533  -25.8511   23.5186 C   0  0  0  0  0  0  0  0  0  0  0  0
  -24.4573  -26.2211   20.4100 C   0  0  0  0  0  0  0  0  0  1  0  0
  -30.8220  -30.6827   24.3763 C   0  0  1  0  0  0  0  0  0  0  0  0
  -31.5364  -27.0223   25.0552 C   0  0  2  0  0  0  0  0  0  0  0  0
  -32.0556  -31.6090   24.5707 C   0  0  0  0  0  0  0  0  0  0  0  0
  -26.3715  -12.0560   20.9771 N   0  0  0  0  0  0  0  0  0  0  0  0
  -26.1502  -13.2687   20.4420 N   0  0  0  0  0  0  0  0  0  0  0  0
  -25.8440  -22.8580   19.1687 N   0  0  0  0  0  0  0  0  0  0  0  0
  -28.3587  -30.9183   24.3542 N   0  0  0  0  0  0  0  0  0  0  0  0
  -28.9273  -15.8741   20.7310 N   0  0  0  0  0  0  0  0  0  0  0  0
  -28.3207  -21.8259   18.2023 N   0  0  0  0  0  0  0  0  0  0  0  0
  -24.4297  -14.7683   19.8082 N   0  0  0  0  0  0  0  0  0  0  0  0
  -22.0677  -12.8342   22.0606 N   0  0  0  0  0  0  0  0  0  0  0  0
  -27.7962  -17.9208   21.0373 N   0  0  0  0  0  0  0  0  0  0  0  0
  -25.8361  -33.5390   24.1002 N   0  0  0  0  0  0  0  0  0  0  0  0
  -30.9758  -29.3531   24.9566 N   0  0  0  0  0  0  0  0  0  0  0  0
  -31.2737  -25.8309   24.1993 N   0  3  0  0  0  0  0  0  0  0  0  0
  -23.6803  -25.9543   17.7294 O   0  0  0  0  0  0  0  0  0  0  0  0
  -22.0292  -11.8876   19.9723 O   0  0  0  0  0  0  0  0  0  0  0  0
  -27.7083  -32.8978   22.8729 O   0  0  0  0  0  0  0  0  0  0  0  0
  -29.6513  -31.9914   25.9710 O   0  0  0  0  0  0  0  0  0  0  0  0
  -31.8225  -28.3400   23.0504 O   0  0  0  0  0  0  0  0  0  0  0  0
  -29.9910  -17.8780   20.2873 O   0  0  0  0  0  0  0  0  0  0  0  0
  -24.4064   -6.5359   23.4699 O   0  0  0  0  0  0  0  0  0  0  0  0
  -25.4568  -27.2374   20.3438 O   0  0  0  0  0  0  0  0  0  1  0  0
  -19.3732   -4.3022   23.1844 F   0  0  0  0  0  0  0  0  0  0  0  0
  -25.3833  -18.9808   21.9447 F   0  0  0  0  0  0  0  0  0  0  0  0
  -23.9952   -4.1264   22.1785 F   0  0  0  0  0  0  0  0  0  0  0  0
  1  2  1  0  0  0  0
  1  5  2  0  0  0  0
  2  6  2  0  0  0  0
  3  8  2  0  0  0  0
  3 17  1  0  0  0  0
  4  9  1  0  0  0  0
  4 17  2  0  0  0  0
  5 19  1  0  0  0  0
  6 21  1  0  0  0  0
  7 10  2  0  0  0  0
  7 20  1  0  0  0  0
  8 26  1  0  0  0  0
  9 26  2  0  0  0  0
 10 27  1  0  0  0  0
 11 12  2  0  0  0  0
 11 28  1  0  0  0  0
 12 29  1  0  0  0  0
 13 22  1  0  0  0  0
 13 27  2  0  0  0  0
 14 23  1  0  0  0  0
 14 30  2  0  0  0  0
 15 24  1  0  0  0  0
 15 25  2  0  0  0  0
 16 29  2  0  0  0  0
 16 31  1  0  0  0  0
 17 32  1  0  0  0  0
 18 32  1  0  0  0  0
 18 33  2  0  0  0  0
 18 37  1  0  0  0  0
 19 21  2  0  0  0  0
 19 42  1  0  0  0  0
 20 22  2  0  0  0  0
 20 43  1  0  0  0  0
 21 53  1  0  0  0  0
 22 44  1  0  0  0  0
 23 24  2  0  0  0  0
 23 68  1  0  0  0  0
 24 71  1  0  0  0  0
 25 30  1  0  0  0  0
 25 74  1  0  0  0  0
 26 84  1  0  0  0  0
 27 85  1  0  0  0  0
 28 31  2  0  0  0  0
 28 84  1  0  0  0  0
 29 86  1  0  0  0  0
 30 87  1  0  0  0  0
 31 88  1  0  0  0  0
 32 66  2  0  0  0  0
 33 67  1  0  0  0  0
 33 72  1  0  0  0  0
 34 35  2  0  0  0  0
 34 36  1  0  0  0  0
 34 62  1  0  0  0  0
 35 56  1  0  0  0  0
 35 68  1  0  0  0  0
 36 45  1  0  0  0  0
 36 78  2  0  0  0  0
 37 73  1  0  0  0  0
 37 79  2  0  0  0  0
 38 54  1  0  0  0  0
 38 75  1  0  0  0  0
 38 80  2  0  0  0  0
 39 63  1  0  0  0  0
 39 69  1  0  0  0  0
 39 81  2  0  0  0  0
 40 64  1  0  0  0  0
 40 76  1  0  0  0  0
 40 82  2  0  0  0  0
 41 70  1  0  0  0  0
 41 74  1  0  0  0  0
 41 83  2  0  0  0  0
 42 46  1  0  0  0  0
 43 54  1  0  0  0  0
 44 69  1  0  0  0  0
 45 50  1  0  0  0  0
 46 48  1  0  0  0  0
 47 49  1  0  0  0  0
 47 51  1  0  0  0  0
 48 53  1  0  0  0  0
 49 55  1  0  0  0  0
 50 68  1  0  0  0  0
 51 70  1  0  0  0  0
 52 55  1  0  0  0  0
 52 70  1  0  0  0  0
 53 75  1  0  0  0  0
 54 69  1  0  0  0  0
 55 67  1  0  0  0  0
 57 64  1  0  0  0  0
 58 65  1  0  0  0  0
 59 65  1  0  0  0  0
 60 65  1  0  0  0  0
 61 77  1  0  0  0  0
 62 85  1  0  0  0  0
 63 65  1  0  0  0  0
 63 76  1  0  0  0  0
 64 77  1  0  0  0  0
 66 67  1  0  0  0  0
M  CHG  1  77   1
M  ISO  4  41 100  62 101  74 100  85 101
M  END
> <Batch ID>
0109

> <Smiles>
CNC(C)C(=O)NC(C(=O)N1Cc2cc([101O:1][101CH2:1]C3=C(C)N(c4cc(F)c([100NH:0][100C:0](=O)N5CCCC(n6nc(-c7ccc(Oc8ccc(F)cc8F)cc7)c(C(N)=O)c6N)C5)cc4N)CCC3=O)ccc2CC1C(=O)NC1CCCc2ccccc21)C(C)(C)C

> <Shape>
0.255

> <Color>
0.107

> <Negative vol penalty>
0.000

$$$$
