
  -OEChem-04052301263D

 91 99  0     1  0  0  0  0  0999 V2000
  -33.4760  -21.5948   13.9400 C   0  0  0  0  0  0  0  0  0  0  0  0
  -32.0876  -21.5781   13.8534 C   0  0  0  0  0  0  0  0  0  0  0  0
  -23.3139   -9.8157   19.9414 C   0  0  0  0  0  0  0  0  0  0  0  0
  -23.6683  -10.0390   22.3208 C   0  0  0  0  0  0  0  0  0  0  0  0
  -34.0939  -21.8068   15.1718 C   0  0  0  0  0  0  0  0  0  0  0  0
  -31.3163  -21.7723   14.9987 C   0  0  0  0  0  0  0  0  0  0  0  0
  -27.4684  -24.9735   14.2299 C   0  0  0  0  0  0  0  0  0  0  0  0
  -22.5603   -8.6629   20.1618 C   0  0  0  0  0  0  0  0  0  0  0  0
  -22.9147   -8.8861   22.5413 C   0  0  0  0  0  0  0  0  0  0  0  0
  -26.3473  -24.4742   13.5683 C   0  0  0  0  0  0  0  0  0  0  0  0
  -20.2413   -5.8637   20.1238 C   0  0  0  0  0  0  0  0  0  0  0  0
  -19.0400   -5.7312   19.4274 C   0  0  0  0  0  0  0  0  0  0  0  0
  -27.0042  -18.5377   14.3536 C   0  0  0  0  0  0  0  0  0  0  0  0
  -25.2217  -24.2125   15.6858 C   0  0  0  0  0  0  0  0  0  0  0  0
  -26.1563  -18.6838   16.6112 C   0  0  0  0  0  0  0  0  0  0  0  0
  -18.2195   -7.7569   20.4573 C   0  0  0  0  0  0  0  0  0  0  0  0
  -23.8680  -10.5038   21.0210 C   0  0  0  0  0  0  0  0  0  0  0  0
  -28.1108  -17.8251   14.8153 C   0  0  0  0  0  0  0  0  0  0  0  0
  -28.2402  -17.5418   16.1749 C   0  0  0  0  0  0  0  0  0  0  0  0
  -24.1771  -13.0203   20.7397 C   0  0  0  0  0  0  0  0  0  0  0  0
  -33.3298  -22.0132   16.3311 C   0  0  0  0  0  0  0  0  0  0  0  0
  -27.4786  -25.0859   15.6277 C   0  0  0  0  0  0  0  0  0  0  0  0
  -31.9246  -21.9858   16.2473 C   0  0  0  0  0  0  0  0  0  0  0  0
  -26.3432  -24.7159   16.3626 C   0  0  0  0  0  0  0  0  0  0  0  0
  -26.0270  -18.9671   15.2515 C   0  0  0  0  0  0  0  0  0  0  0  0
  -22.3606   -8.1981   21.4617 C   0  0  0  0  0  0  0  0  0  0  0  0
  -25.2248  -24.0910   14.2965 C   0  0  0  0  0  0  0  0  0  0  0  0
  -20.4316   -6.9427   20.9871 C   0  0  0  0  0  0  0  0  0  0  0  0
  -27.2629  -17.9712   17.0729 C   0  0  0  0  0  0  0  0  0  0  0  0
  -18.0292   -6.6778   19.5941 C   0  0  0  0  0  0  0  0  0  0  0  0
  -19.4208   -7.8893   21.1537 C   0  0  0  0  0  0  0  0  0  0  0  0
  -24.6471  -11.6944   20.7939 C   0  0  0  0  0  0  0  0  0  0  0  0
  -25.3010  -13.7735   20.5025 C   0  0  0  0  0  0  0  0  0  0  0  0
  -29.1115  -17.3927   13.8469 C   0  0  0  0  0  0  0  0  0  0  0  0
  -29.4119  -16.7851   16.6862 C   0  0  0  0  0  0  0  0  0  0  0  0
  -22.8440  -13.5260   20.8903 C   0  0  0  0  0  0  0  0  0  0  0  0
  -29.1144  -16.2250   13.1661 C   0  0  0  0  0  0  0  0  0  0  0  0
  -29.2133  -23.8139   17.9678 C   0  0  0  0  0  0  0  0  0  0  0  0
  -27.5146  -25.8681   19.8163 C   0  0  0  0  0  0  0  0  0  0  0  0
  -24.6178  -20.0570   13.4714 C   0  0  0  0  0  0  0  0  0  0  0  0
  -24.6855  -27.7314   20.2299 C   0  0  0  0  0  0  0  0  0  0  0  0
  -30.0749  -14.7036   17.8487 C   0  0  0  0  0  0  0  0  0  0  0  0
  -34.0426  -22.1912   17.6482 C   0  0  0  0  0  0  0  0  0  0  0  0
  -28.6858  -25.6514   16.3242 C   0  0  0  0  0  0  0  0  0  0  0  0
  -26.2960  -24.8359   17.8632 C   0  0  0  0  0  0  0  0  0  0  0  0
  -33.1533  -22.7618   18.7499 C   0  0  0  0  0  0  0  0  0  0  0  0
  -30.2036  -12.5062   20.6149 C   0  0  0  0  0  0  0  0  0  0  0  0
  -31.8123  -22.0355   18.7832 C   0  0  0  0  0  0  0  0  0  0  0  0
  -28.7305  -12.2123   20.9114 C   0  0  0  0  0  0  0  0  0  0  0  0
  -30.4707  -12.6088   19.1139 C   0  0  0  0  0  0  0  0  0  0  0  0
  -28.1323  -13.2457   18.6847 C   0  0  0  0  0  0  0  0  0  0  0  0
  -31.0536  -22.2172   17.4630 C   0  0  1  0  0  0  0  0  0  0  0  0
  -28.7766  -25.2406   17.7907 C   0  0  1  0  0  0  0  0  0  0  0  0
  -27.7986  -13.2027   20.1847 C   0  0  1  0  0  0  0  0  0  0  0  0
  -30.2278  -15.9021   12.2059 C   0  0  0  0  0  0  0  0  0  0  0  0
  -28.0518  -15.1650   13.2659 C   0  0  0  0  0  0  0  0  0  0  0  0
  -23.5647  -29.2758   21.8596 C   0  0  0  0  0  0  0  0  0  0  0  0
  -26.7528  -23.4782   21.5535 C   0  0  0  0  0  0  0  0  0  0  0  0
  -24.9281  -24.8729   22.5501 C   0  0  0  0  0  0  0  0  0  0  0  0
  -27.3109  -25.5573   22.8263 C   0  0  0  0  0  0  0  0  0  0  0  0
  -24.6925  -29.9688   18.2926 C   0  0  0  0  0  0  0  0  0  0  0  0
  -28.0503  -18.6704   19.2053 C   0  0  0  0  0  0  0  0  0  0  0  0
  -23.3064  -20.8275   13.4068 C   0  0  0  0  0  0  0  0  0  0  0  0
  -23.2757  -21.8402   12.2673 C   0  0  0  0  0  0  0  0  0  0  0  0
  -24.3529  -22.9026   12.4300 C   0  0  0  0  0  0  0  0  0  1  0  0
  -26.2057  -25.7999   20.5654 C   0  0  1  0  0  0  0  0  0  0  0  0
  -24.4832  -29.1756   20.6518 C   0  0  2  0  0  0  0  0  0  0  0  0
  -26.3007  -24.9229   21.8457 C   0  0  0  0  0  0  0  0  0  0  0  0
  -25.9666  -11.6069   20.6061 N   0  0  0  0  0  0  0  0  0  0  0  0
  -26.3354  -12.8874   20.4315 N   0  0  0  0  0  0  0  0  0  0  0  0
  -27.5035  -25.3885   18.4989 N   0  0  0  0  0  0  0  0  0  0  0  0
  -29.5545  -13.5730   18.5023 N   0  0  0  0  0  0  0  0  0  0  0  0
  -25.4953  -15.1006   20.3497 N   0  0  0  0  0  0  0  0  0  0  0  0
  -21.8067  -12.6143   21.1296 N   0  0  0  0  0  0  0  0  0  0  0  0
  -24.9041  -19.6901   14.7833 N   0  0  0  0  0  0  0  0  0  0  0  0
  -29.1176  -15.5856   17.3351 N   0  0  0  0  0  0  0  0  0  0  0  0
  -30.4435  -23.5284   17.4070 N   0  0  0  0  0  0  0  0  0  0  0  0
  -25.8059  -27.1805   20.8152 N   0  0  0  0  0  0  0  0  0  0  0  0
  -23.8818  -29.9614   19.5374 N   0  3  0  0  0  0  0  0  0  0  0  0
  -30.5413  -17.2216   16.4817 O   0  0  0  0  0  0  0  0  0  0  0  0
  -22.5780  -14.7484   20.7987 O   0  0  0  0  0  0  0  0  0  0  0  0
  -28.4886  -23.0305   18.5701 O   0  0  0  0  0  0  0  0  0  0  0  0
  -28.5086  -26.3365   20.3770 O   0  0  0  0  0  0  0  0  0  0  0  0
  -25.2858  -19.8233   12.4696 O   0  0  0  0  0  0  0  0  0  0  0  0
  -23.9236  -27.1491   19.4613 O   0  0  0  0  0  0  0  0  0  0  0  0
  -31.2862  -14.9283   17.7630 O   0  0  0  0  0  0  0  0  0  0  0  0
  -21.6251   -7.0733   21.6772 O   0  0  0  0  0  0  0  0  0  0  0  0
  -27.3685  -17.7064   18.4059 O   0  0  0  0  0  0  0  0  0  0  0  0
  -24.1294  -23.6028   13.6532 O   0  0  0  0  0  0  0  0  0  1  0  0
  -16.8762   -6.5512   18.9241 F   0  0  0  0  0  0  0  0  0  0  0  0
  -19.5983   -8.9288   21.9807 F   0  0  0  0  0  0  0  0  0  0  0  0
  1  2  1  0  0  0  0
  1  5  2  0  0  0  0
  2  6  2  0  0  0  0
  3  8  2  0  0  0  0
  3 17  1  0  0  0  0
  4  9  1  0  0  0  0
  4 17  2  0  0  0  0
  5 21  1  0  0  0  0
  6 23  1  0  0  0  0
  7 10  2  0  0  0  0
  7 22  1  0  0  0  0
  8 26  1  0  0  0  0
  9 26  2  0  0  0  0
 10 27  1  0  0  0  0
 11 12  2  0  0  0  0
 11 28  1  0  0  0  0
 12 30  1  0  0  0  0
 13 18  2  0  0  0  0
 13 25  1  0  0  0  0
 14 24  1  0  0  0  0
 14 27  2  0  0  0  0
 15 25  2  0  0  0  0
 15 29  1  0  0  0  0
 16 30  2  0  0  0  0
 16 31  1  0  0  0  0
 17 32  1  0  0  0  0
 18 19  1  0  0  0  0
 18 34  1  0  0  0  0
 19 29  2  0  0  0  0
 19 35  1  0  0  0  0
 20 32  1  0  0  0  0
 20 33  2  0  0  0  0
 20 36  1  0  0  0  0
 21 23  2  0  0  0  0
 21 43  1  0  0  0  0
 22 24  2  0  0  0  0
 22 44  1  0  0  0  0
 23 52  1  0  0  0  0
 24 45  1  0  0  0  0
 25 75  1  0  0  0  0
 26 87  1  0  0  0  0
 27 89  1  0  0  0  0
 28 31  2  0  0  0  0
 28 87  1  0  0  0  0
 29 88  1  0  0  0  0
 30 90  1  0  0  0  0
 31 91  1  0  0  0  0
 32 69  2  0  0  0  0
 33 70  1  0  0  0  0
 33 73  1  0  0  0  0
 34 37  2  0  0  0  0
 35 76  1  0  0  0  0
 35 80  2  0  0  0  0
 36 74  1  0  0  0  0
 36 81  2  0  0  0  0
 37 55  1  0  0  0  0
 37 56  1  0  0  0  0
 38 53  1  0  0  0  0
 38 77  1  0  0  0  0
 38 82  2  0  0  0  0
 39 66  1  0  0  0  0
 39 71  1  0  0  0  0
 39 83  2  0  0  0  0
 40 63  1  0  0  0  0
 40 75  1  0  0  0  0
 40 84  2  0  0  0  0
 41 67  1  0  0  0  0
 41 78  1  0  0  0  0
 41 85  2  0  0  0  0
 42 72  1  0  0  0  0
 42 76  1  0  0  0  0
 42 86  2  0  0  0  0
 43 46  1  0  0  0  0
 44 53  1  0  0  0  0
 45 71  1  0  0  0  0
 46 48  1  0  0  0  0
 47 49  1  0  0  0  0
 47 50  1  0  0  0  0
 48 52  1  0  0  0  0
 49 54  1  0  0  0  0
 50 72  1  0  0  0  0
 51 54  1  0  0  0  0
 51 72  1  0  0  0  0
 52 77  1  0  0  0  0
 53 71  1  0  0  0  0
 54 70  1  0  0  0  0
 57 67  1  0  0  0  0
 58 68  1  0  0  0  0
 59 68  1  0  0  0  0
 60 68  1  0  0  0  0
 61 79  1  0  0  0  0
 62 88  1  0  0  0  0
 63 64  1  0  0  0  0
 64 65  1  0  0  0  0
 65 89  1  0  0  0  0
 66 68  1  0  0  0  0
 66 78  1  0  0  0  0
 67 79  1  0  0  0  0
 69 70  1  0  0  0  0
M  CHG  1  79   1
M  ISO  4  42 100  65 101  76 100  89 101
M  END
> <Batch ID>
0110

> <Smiles>
CNC(C)C(=O)NC(C(=O)N1Cc2cc([101O:1][101CH2:1]CCC(=O)Nc3cc(C=C(C)C)c(C(=O)[100NH:0][100C:0](=O)N4CCCC(n5nc(-c6ccc(Oc7ccc(F)cc7F)cc6)c(C(N)=O)c5N)C4)c(OC)c3)ccc2CC1C(=O)NC1CCCc2ccccc21)C(C)(C)C

> <Shape>
0.193

> <Color>
0.195

> <Negative vol penalty>
0.000

$$$$

  -OEChem-04052301263D

 87 95  0     1  0  0  0  0  0999 V2000
  -30.9814  -34.9721   23.2682 C   0  0  0  0  0  0  0  0  0  0  0  0
  -30.9113  -33.7780   22.5580 C   0  0  0  0  0  0  0  0  0  0  0  0
  -22.8614  -10.3158   19.9563 C   0  0  0  0  0  0  0  0  0  0  0  0
  -23.9426   -9.6805   22.0213 C   0  0  0  0  0  0  0  0  0  0  0  0
  -30.1080  -35.2024   24.3304 C   0  0  0  0  0  0  0  0  0  0  0  0
  -29.9685  -32.8129   22.9102 C   0  0  0  0  0  0  0  0  0  0  0  0
  -26.9916  -29.0228   19.1314 C   0  0  0  0  0  0  0  0  0  0  0  0
  -22.0470   -9.1861   20.0351 C   0  0  0  0  0  0  0  0  0  0  0  0
  -23.1282   -8.5508   22.1002 C   0  0  0  0  0  0  0  0  0  0  0  0
  -27.2062  -27.6914   18.7775 C   0  0  0  0  0  0  0  0  0  0  0  0
  -22.9919   -5.4754   20.7023 C   0  0  0  0  0  0  0  0  0  0  0  0
  -23.5963   -4.2626   21.0331 C   0  0  0  0  0  0  0  0  0  0  0  0
  -28.4756  -17.8693   22.7686 C   0  0  0  0  0  0  0  0  0  0  0  0
  -25.6043  -26.9971   20.4422 C   0  0  0  0  0  0  0  0  0  0  0  0
  -29.6134  -18.3085   20.6831 C   0  0  0  0  0  0  0  0  0  0  0  0
  -22.1875   -4.0939   22.9886 C   0  0  0  0  0  0  0  0  0  0  0  0
  -23.8092  -10.5630   20.9494 C   0  0  0  0  0  0  0  0  0  0  0  0
  -29.1061  -16.6279   22.8513 C   0  0  0  0  0  0  0  0  0  0  0  0
  -29.9904  -16.2268   21.8499 C   0  0  0  0  0  0  0  0  0  0  0  0
  -24.3879  -13.0064   21.3991 C   0  0  0  0  0  0  0  0  0  0  0  0
  -29.1476  -34.2437   24.6897 C   0  0  0  0  0  0  0  0  0  0  0  0
  -26.0883  -29.3512   20.1525 C   0  0  0  0  0  0  0  0  0  0  0  0
  -29.0823  -33.0300   23.9790 C   0  0  0  0  0  0  0  0  0  0  0  0
  -25.3782  -28.3335   20.8054 C   0  0  0  0  0  0  0  0  0  0  0  0
  -28.7291  -18.7096   21.6845 C   0  0  0  0  0  0  0  0  0  0  0  0
  -22.1804   -8.3036   21.1070 C   0  0  0  0  0  0  0  0  0  0  0  0
  -26.5146  -26.6782   19.4349 C   0  0  0  0  0  0  0  0  0  0  0  0
  -21.9853   -5.9975   21.5146 C   0  0  0  0  0  0  0  0  0  0  0  0
  -23.1941   -3.5719   22.1762 C   0  0  0  0  0  0  0  0  0  0  0  0
  -30.2440  -17.0671   20.7657 C   0  0  0  0  0  0  0  0  0  0  0  0
  -21.5831   -5.3068   22.6577 C   0  0  0  0  0  0  0  0  0  0  0  0
  -24.6511  -11.7295   20.8682 C   0  0  0  0  0  0  0  0  0  0  0  0
  -25.4870  -13.7547   21.0548 C   0  0  0  0  0  0  0  0  0  0  0  0
  -29.0225  -16.1426   25.2539 C   0  0  0  0  0  0  0  0  0  0  0  0
  -28.8177  -15.7757   23.9982 C   0  0  0  0  0  0  0  0  0  0  0  0
  -30.6678  -14.9362   21.9026 C   0  0  0  0  0  0  0  0  0  0  0  0
  -23.2515  -13.4744   22.1376 C   0  0  0  0  0  0  0  0  0  0  0  0
  -31.0481  -14.2173   20.6650 C   0  0  0  0  0  0  0  0  0  0  0  0
  -26.3234  -30.7842   22.9800 C   0  0  0  0  0  0  0  0  0  0  0  0
  -23.0897  -30.5321   22.9402 C   0  0  0  0  0  0  0  0  0  0  0  0
  -28.2260  -20.9246   20.5967 C   0  0  0  0  0  0  0  0  0  0  0  0
  -20.3235  -28.9235   21.7538 C   0  0  0  0  0  0  0  0  0  0  0  0
  -28.2565  -34.5177   25.8752 C   0  0  0  0  0  0  0  0  0  0  0  0
  -25.8483  -30.7938   20.5041 C   0  0  0  0  0  0  0  0  0  0  0  0
  -24.3825  -28.6345   21.8947 C   0  0  0  0  0  0  0  0  0  0  0  0
  -27.0380  -33.6010   25.9460 C   0  0  0  0  0  0  0  0  0  0  0  0
  -29.2979  -12.7661   17.8923 C   0  0  0  0  0  0  0  0  0  0  0  0
  -27.4467  -32.1504   25.7102 C   0  0  0  0  0  0  0  0  0  0  0  0
  -27.9241  -12.4366   18.4754 C   0  0  0  0  0  0  0  0  0  0  0  0
  -30.4015  -12.5917   18.9306 C   0  0  0  0  0  0  0  0  0  0  0  0
  -28.8049  -13.0517   20.7713 C   0  0  0  0  0  0  0  0  0  0  0  0
  -28.0568  -31.9690   24.3151 C   0  0  1  0  0  0  0  0  0  0  0  0
  -25.2868  -30.9807   21.9102 C   0  0  1  0  0  0  0  0  0  0  0  0
  -27.6615  -13.2430   19.7597 C   0  0  2  0  0  0  0  0  0  0  0  0
  -17.8203  -28.9181   21.9310 C   0  0  0  0  0  0  0  0  0  0  0  0
  -23.2877  -29.1663   25.6615 C   0  0  0  0  0  0  0  0  0  0  0  0
  -20.9407  -28.3535   25.3465 C   0  0  0  0  0  0  0  0  0  0  0  0
  -21.4076  -30.8017   25.4494 C   0  0  0  0  0  0  0  0  0  0  0  0
  -20.0023  -29.5196   18.8727 C   0  0  0  0  0  0  0  0  0  0  0  0
  -27.3580  -22.1393   20.8948 C   0  0  0  0  0  0  0  0  0  0  0  0
  -27.4707  -23.2188   19.8240 C   0  0  0  0  0  0  0  0  0  0  0  0
  -26.5590  -24.4010   20.1192 C   0  0  0  0  0  0  0  0  0  1  0  0
  -22.0925  -29.4946   23.3966 C   0  0  1  0  0  0  0  0  0  0  0  0
  -19.0248  -29.4502   21.1702 C   0  0  2  0  0  0  0  0  0  0  0  0
  -21.9523  -29.4479   24.9444 C   0  0  0  0  0  0  0  0  0  0  0  0
  -25.8253  -11.6665   20.2347 N   0  0  0  0  0  0  0  0  0  0  0  0
  -30.9802  -14.3407   23.0192 N   0  0  0  0  0  0  0  0  0  0  0  0
  -26.3096  -12.9133   20.3652 N   0  0  0  0  0  0  0  0  0  0  0  0
  -30.1034  -13.3407   20.1497 N   0  0  0  0  0  0  0  0  0  0  0  0
  -24.1874  -30.0600   22.2068 N   0  0  0  0  0  0  0  0  0  0  0  0
  -25.8204  -15.0437   21.2777 N   0  0  0  0  0  0  0  0  0  0  0  0
  -22.2111  -12.5740   22.4044 N   0  0  0  0  0  0  0  0  0  0  0  0
  -28.0896  -19.9692   21.5999 N   0  0  0  0  0  0  0  0  0  0  0  0
  -27.0168  -31.9333   23.3094 N   0  0  0  0  0  0  0  0  0  0  0  0
  -20.8486  -29.7864   22.6924 N   0  0  0  0  0  0  0  0  0  0  0  0
  -18.8960  -29.0434   19.7423 N   0  3  0  0  0  0  0  0  0  0  0  0
  -23.1539  -14.6604   22.5344 O   0  0  0  0  0  0  0  0  0  0  0  0
  -32.1617  -14.4744   20.2267 O   0  0  0  0  0  0  0  0  0  0  0  0
  -26.4815  -29.6728   23.4714 O   0  0  0  0  0  0  0  0  0  0  0  0
  -22.8978  -31.7185   23.2179 O   0  0  0  0  0  0  0  0  0  0  0  0
  -28.9282  -20.8565   19.5934 O   0  0  0  0  0  0  0  0  0  0  0  0
  -20.8203  -27.8520   21.4139 O   0  0  0  0  0  0  0  0  0  0  0  0
  -21.3857   -7.2013   21.1844 O   0  0  0  0  0  0  0  0  0  0  0  0
  -26.7227  -25.3778   19.0919 O   0  0  0  0  0  0  0  0  0  1  0  0
  -23.7735   -2.4065   22.4929 F   0  0  0  0  0  0  0  0  0  0  0  0
  -31.0917  -16.6935   19.7964 F   0  0  0  0  0  0  0  0  0  0  0  0
  -20.6158   -5.8028   23.4414 F   0  0  0  0  0  0  0  0  0  0  0  0
  1  2  1  0  0  0  0
  1  5  2  0  0  0  0
  2  6  2  0  0  0  0
  3  8  2  0  0  0  0
  3 17  1  0  0  0  0
  4  9  1  0  0  0  0
  4 17  2  0  0  0  0
  5 21  1  0  0  0  0
  6 23  1  0  0  0  0
  7 10  2  0  0  0  0
  7 22  1  0  0  0  0
  8 26  1  0  0  0  0
  9 26  2  0  0  0  0
 10 27  1  0  0  0  0
 11 12  2  0  0  0  0
 11 28  1  0  0  0  0
 12 29  1  0  0  0  0
 13 18  1  0  0  0  0
 13 25  2  0  0  0  0
 14 24  1  0  0  0  0
 14 27  2  0  0  0  0
 15 25  1  0  0  0  0
 15 30  2  0  0  0  0
 16 29  2  0  0  0  0
 16 31  1  0  0  0  0
 17 32  1  0  0  0  0
 18 19  2  0  0  0  0
 18 35  1  0  0  0  0
 19 30  1  0  0  0  0
 19 36  1  0  0  0  0
 20 32  1  0  0  0  0
 20 33  2  0  0  0  0
 20 37  1  0  0  0  0
 21 23  2  0  0  0  0
 21 43  1  0  0  0  0
 22 24  2  0  0  0  0
 22 44  1  0  0  0  0
 23 52  1  0  0  0  0
 24 45  1  0  0  0  0
 25 73  1  0  0  0  0
 26 83  1  0  0  0  0
 27 84  1  0  0  0  0
 28 31  2  0  0  0  0
 28 83  1  0  0  0  0
 29 85  1  0  0  0  0
 30 86  1  0  0  0  0
 31 87  1  0  0  0  0
 32 66  2  0  0  0  0
 33 68  1  0  0  0  0
 33 71  1  0  0  0  0
 34 35  2  0  0  0  0
 36 38  1  0  0  0  0
 36 67  2  0  0  0  0
 37 72  1  0  0  0  0
 37 77  2  0  0  0  0
 38 69  1  0  0  0  0
 38 78  2  0  0  0  0
 39 53  1  0  0  0  0
 39 74  1  0  0  0  0
 39 79  2  0  0  0  0
 40 63  1  0  0  0  0
 40 70  1  0  0  0  0
 40 80  2  0  0  0  0
 41 60  1  0  0  0  0
 41 73  1  0  0  0  0
 41 81  2  0  0  0  0
 42 64  1  0  0  0  0
 42 75  1  0  0  0  0
 42 82  2  0  0  0  0
 43 46  1  0  0  0  0
 44 53  1  0  0  0  0
 45 70  1  0  0  0  0
 46 48  1  0  0  0  0
 47 49  1  0  0  0  0
 47 50  1  0  0  0  0
 48 52  1  0  0  0  0
 49 54  1  0  0  0  0
 50 69  1  0  0  0  0
 51 54  1  0  0  0  0
 51 69  1  0  0  0  0
 52 74  1  0  0  0  0
 53 70  1  0  0  0  0
 54 68  1  0  0  0  0
 55 64  1  0  0  0  0
 56 65  1  0  0  0  0
 57 65  1  0  0  0  0
 58 65  1  0  0  0  0
 59 76  1  0  0  0  0
 60 61  1  0  0  0  0
 61 62  1  0  0  0  0
 62 84  1  0  0  0  0
 63 65  1  0  0  0  0
 63 75  1  0  0  0  0
 64 76  1  0  0  0  0
 66 68  1  0  0  0  0
M  CHG  1  76   1
M  ISO  4  36 100  38 100  62 101  84 101
M  END
> <Batch ID>
0110

> <Smiles>
C=Cc1cc(NC(=O)CC[101CH2:1][101O:1]c2ccc3c(c2)CN(C(=O)C(NC(=O)C(C)NC)C(C)(C)C)C(C(=O)NC2CCCc4ccccc42)C3)cc(F)c1[100C:0](=N)[100C:0](=O)N1CCCC(n2nc(-c3ccc(Oc4ccc(F)cc4F)cc3)c(C(N)=O)c2N)C1

> <Shape>
0.368

> <Color>
0.206

> <Negative vol penalty>
0.000

$$$$

  -OEChem-04052301263D

 84 92  0     1  0  0  0  0  0999 V2000
  -16.1703  -26.4488   22.5489 C   0  0  0  0  0  0  0  0  0  0  0  0
  -17.0911  -26.4763   21.5064 C   0  0  0  0  0  0  0  0  0  0  0  0
  -26.4789  -12.4970   21.7005 C   0  0  0  0  0  0  0  0  0  0  0  0
  -25.9301  -13.5293   19.5862 C   0  0  0  0  0  0  0  0  0  0  0  0
  -16.1722  -27.4626   23.5060 C   0  0  0  0  0  0  0  0  0  0  0  0
  -18.0136  -27.5184   21.4198 C   0  0  0  0  0  0  0  0  0  0  0  0
  -22.6924  -25.8889   20.3720 C   0  0  0  0  0  0  0  0  0  0  0  0
  -25.2389  -11.8584   21.7106 C   0  0  0  0  0  0  0  0  0  0  0  0
  -24.6901  -12.8906   19.5963 C   0  0  0  0  0  0  0  0  0  0  0  0
  -22.9659  -25.5464   19.0485 C   0  0  0  0  0  0  0  0  0  0  0  0
  -22.0325  -12.6562   22.4222 C   0  0  0  0  0  0  0  0  0  0  0  0
  -21.3077  -12.6686   23.6139 C   0  0  0  0  0  0  0  0  0  0  0  0
  -24.0361  -27.6837   18.7229 C   0  0  0  0  0  0  0  0  0  0  0  0
  -28.5227  -22.6424   19.6952 C   0  0  0  0  0  0  0  0  0  0  0  0
  -28.2247  -21.1344   17.8312 C   0  0  0  0  0  0  0  0  0  0  0  0
  -21.3466  -10.2534   23.6626 C   0  0  0  0  0  0  0  0  0  0  0  0
  -26.8245  -13.3325   20.6383 C   0  0  0  0  0  0  0  0  0  0  0  0
  -29.3071  -13.5079   20.0785 C   0  0  0  0  0  0  0  0  0  0  0  0
  -17.1015  -28.5125   23.4366 C   0  0  0  0  0  0  0  0  0  0  0  0
  -23.0798  -27.1377   20.8787 C   0  0  0  0  0  0  0  0  0  0  0  0
  -18.0270  -28.5479   22.3761 C   0  0  0  0  0  0  0  0  0  0  0  0
  -23.7687  -28.0385   20.0539 C   0  0  0  0  0  0  0  0  0  0  0  0
  -27.9539  -23.6755   18.9503 C   0  0  0  0  0  0  0  0  0  0  0  0
  -28.6582  -21.3719   19.1356 C   0  0  0  0  0  0  0  0  0  0  0  0
  -27.5204  -23.4380   17.6460 C   0  0  0  0  0  0  0  0  0  0  0  0
  -24.3445  -12.0551   20.6585 C   0  0  0  0  0  0  0  0  0  0  0  0
  -23.6353  -26.4450   18.2229 C   0  0  0  0  0  0  0  0  0  0  0  0
  -22.4143  -11.4425   21.8507 C   0  0  0  0  0  0  0  0  0  0  0  0
  -20.9648  -11.4671   24.2341 C   0  0  0  0  0  0  0  0  0  0  0  0
  -27.6559  -22.1675   17.0864 C   0  0  0  0  0  0  0  0  0  0  0  0
  -22.0714  -10.2410   22.4708 C   0  0  0  0  0  0  0  0  0  0  0  0
  -28.1050  -13.9930   20.6276 C   0  0  0  0  0  0  0  0  0  0  0  0
  -30.2228  -14.5016   20.3250 C   0  0  0  0  0  0  0  0  0  0  0  0
  -29.5724  -12.2699   19.4057 C   0  0  0  0  0  0  0  0  0  0  0  0
  -21.5403  -29.6507   22.0697 C   0  0  0  0  0  0  0  0  0  0  0  0
  -24.5447  -30.7130   22.6756 C   0  0  0  0  0  0  0  0  0  0  0  0
  -25.9809  -24.3540   15.8754 C   0  0  0  0  0  0  0  0  0  0  0  0
  -27.8672  -30.6034   21.9037 C   0  0  0  0  0  0  0  0  0  0  0  0
  -29.7194  -20.3912   21.1992 C   0  0  0  0  0  0  0  0  0  0  0  0
  -17.0341  -29.6110   24.4678 C   0  0  0  0  0  0  0  0  0  0  0  0
  -22.8010  -27.4814   22.3162 C   0  0  0  0  0  0  0  0  0  0  0  0
  -24.2239  -29.3839   20.5553 C   0  0  0  0  0  0  0  0  0  0  0  0
  -18.2881  -30.4802   24.5146 C   0  0  0  0  0  0  0  0  0  0  0  0
  -31.1818  -18.0258   23.4225 C   0  0  0  0  0  0  0  0  0  0  0  0
  -18.7126  -30.8811   23.1054 C   0  0  0  0  0  0  0  0  0  0  0  0
  -30.6730  -16.6786   22.9045 C   0  0  0  0  0  0  0  0  0  0  0  0
  -30.1224  -19.1190   23.2954 C   0  0  0  0  0  0  0  0  0  0  0  0
  -29.0354  -17.9231   21.4360 C   0  0  0  0  0  0  0  0  0  0  0  0
  -19.0596  -29.6483   22.2620 C   0  0  1  0  0  0  0  0  0  0  0  0
  -22.7866  -28.9840   22.5794 C   0  0  1  0  0  0  0  0  0  0  0  0
  -30.0898  -16.8051   21.4834 C   0  0  2  0  0  0  0  0  0  0  0  0
  -27.8224  -25.0268   19.5750 C   0  0  0  0  0  0  0  0  0  0  0  0
  -30.0732  -31.6125   22.5462 C   0  0  0  0  0  0  0  0  0  0  0  0
  -23.8069  -33.2700   21.1832 C   0  0  0  0  0  0  0  0  0  0  0  0
  -26.2486  -33.8016   21.0288 C   0  0  0  0  0  0  0  0  0  0  0  0
  -25.1509  -33.6263   23.2619 C   0  0  0  0  0  0  0  0  0  0  0  0
  -28.9715  -27.9737   22.6937 C   0  0  0  0  0  0  0  0  0  0  0  0
  -25.6322  -25.7231   15.3026 C   0  0  0  0  0  0  0  0  0  0  0  0
  -25.0729  -26.6814   16.3432 C   0  0  0  0  0  0  0  0  0  1  0  0
  -25.5645  -31.5265   21.9159 C   0  0  1  0  0  0  0  0  0  0  0  0
  -29.1005  -30.4667   22.7782 C   0  0  2  0  0  0  0  0  0  0  0  0
  -25.1826  -33.0316   21.8372 C   0  0  0  0  0  0  0  0  0  0  0  0
  -28.2415  -15.2008   21.1813 N   0  0  0  0  0  0  0  0  0  0  0  0
  -29.5401  -15.4830   20.9815 N   0  0  0  0  0  0  0  0  0  0  0  0
  -23.9222  -29.6761   21.9664 N   0  0  0  0  0  0  0  0  0  0  0  0
  -29.6187  -19.1835   21.9217 N   0  0  0  0  0  0  0  0  0  0  0  0
  -31.5372  -14.6228   20.0421 N   0  0  0  0  0  0  0  0  0  0  0  0
  -28.5181  -11.3620   19.2370 N   0  0  0  0  0  0  0  0  0  0  0  0
  -26.9406  -24.4749   16.8769 N   0  0  0  0  0  0  0  0  0  0  0  0
  -29.2372  -20.3233   19.8925 N   0  0  0  0  0  0  0  0  0  0  0  0
  -20.3722  -29.1496   22.6121 N   0  0  0  0  0  0  0  0  0  0  0  0
  -26.8504  -31.2690   22.5552 N   0  0  0  0  0  0  0  0  0  0  0  0
  -29.8041  -29.1861   22.4848 N   0  3  0  0  0  0  0  0  0  0  0  0
  -30.7143  -11.9704   18.9817 O   0  0  0  0  0  0  0  0  0  0  0  0
  -21.6316  -30.5539   21.2466 O   0  0  0  0  0  0  0  0  0  0  0  0
  -24.3142  -30.9830   23.8570 O   0  0  0  0  0  0  0  0  0  0  0  0
  -25.4554  -23.3232   15.4688 O   0  0  0  0  0  0  0  0  0  0  0  0
  -27.8126  -30.1669   20.7561 O   0  0  0  0  0  0  0  0  0  0  0  0
  -30.2230  -21.4031   21.6936 O   0  0  0  0  0  0  0  0  0  0  0  0
  -23.1345  -11.4319   20.6679 O   0  0  0  0  0  0  0  0  0  0  0  0
  -23.9029  -26.1135   16.9305 O   0  0  0  0  0  0  0  0  0  1  0  0
  -20.2701  -11.4792   25.3793 F   0  0  0  0  0  0  0  0  0  0  0  0
  -27.2431  -21.9272   15.8336 F   0  0  0  0  0  0  0  0  0  0  0  0
  -22.4364   -9.0719   21.9271 F   0  0  0  0  0  0  0  0  0  0  0  0
  1  2  1  0  0  0  0
  1  5  2  0  0  0  0
  2  6  2  0  0  0  0
  3  8  2  0  0  0  0
  3 17  1  0  0  0  0
  4  9  1  0  0  0  0
  4 17  2  0  0  0  0
  5 19  1  0  0  0  0
  6 21  1  0  0  0  0
  7 10  2  0  0  0  0
  7 20  1  0  0  0  0
  8 26  1  0  0  0  0
  9 26  2  0  0  0  0
 10 27  1  0  0  0  0
 11 12  2  0  0  0  0
 11 28  1  0  0  0  0
 12 29  1  0  0  0  0
 13 22  1  0  0  0  0
 13 27  2  0  0  0  0
 14 23  2  0  0  0  0
 14 24  1  0  0  0  0
 15 24  2  0  0  0  0
 15 30  1  0  0  0  0
 16 29  2  0  0  0  0
 16 31  1  0  0  0  0
 17 32  1  0  0  0  0
 18 32  1  0  0  0  0
 18 33  2  0  0  0  0
 18 34  1  0  0  0  0
 19 21  2  0  0  0  0
 19 40  1  0  0  0  0
 20 22  2  0  0  0  0
 20 41  1  0  0  0  0
 21 49  1  0  0  0  0
 22 42  1  0  0  0  0
 23 25  1  0  0  0  0
 23 52  1  0  0  0  0
 24 70  1  0  0  0  0
 25 30  2  0  0  0  0
 25 69  1  0  0  0  0
 26 80  1  0  0  0  0
 27 81  1  0  0  0  0
 28 31  2  0  0  0  0
 28 80  1  0  0  0  0
 29 82  1  0  0  0  0
 30 83  1  0  0  0  0
 31 84  1  0  0  0  0
 32 63  2  0  0  0  0
 33 64  1  0  0  0  0
 33 67  1  0  0  0  0
 34 68  1  0  0  0  0
 34 74  2  0  0  0  0
 35 50  1  0  0  0  0
 35 71  1  0  0  0  0
 35 75  2  0  0  0  0
 36 60  1  0  0  0  0
 36 65  1  0  0  0  0
 36 76  2  0  0  0  0
 37 58  1  0  0  0  0
 37 69  1  0  0  0  0
 37 77  2  0  0  0  0
 38 61  1  0  0  0  0
 38 72  1  0  0  0  0
 38 78  2  0  0  0  0
 39 66  1  0  0  0  0
 39 70  1  0  0  0  0
 39 79  2  0  0  0  0
 40 43  1  0  0  0  0
 41 50  1  0  0  0  0
 42 65  1  0  0  0  0
 43 45  1  0  0  0  0
 44 46  1  0  0  0  0
 44 47  1  0  0  0  0
 45 49  1  0  0  0  0
 46 51  1  0  0  0  0
 47 66  1  0  0  0  0
 48 51  1  0  0  0  0
 48 66  1  0  0  0  0
 49 71  1  0  0  0  0
 50 65  1  0  0  0  0
 51 64  1  0  0  0  0
 53 61  1  0  0  0  0
 54 62  1  0  0  0  0
 55 62  1  0  0  0  0
 56 62  1  0  0  0  0
 57 73  1  0  0  0  0
 58 59  1  0  0  0  0
 59 81  1  0  0  0  0
 60 62  1  0  0  0  0
 60 72  1  0  0  0  0
 61 73  1  0  0  0  0
 63 64  1  0  0  0  0
M  CHG  1  73   1
M  ISO  4  39 100  59 101  70 100  81 101
M  END
> <Batch ID>
0110

> <Smiles>
CNC(C)C(=O)NC(C(=O)N1Cc2cc([101O:1][101CH2:1]CC(=O)Nc3c(C)cc([100NH:0][100C:0](=O)N4CCCC(n5nc(-c6ccc(Oc7ccc(F)cc7F)cc6)c(C(N)=O)c5N)C4)cc3F)ccc2CC1C(=O)NC1CCCc2ccccc21)C(C)(C)C

> <Shape>
0.299

> <Color>
0.061

> <Negative vol penalty>
0.000

$$$$

  -OEChem-04052301262D

  0  0  0     0  0  0  0  0  0999 V2000
M  END
$$$$

  -OEChem-04052301263D

 89 98  0     1  0  0  0  0  0999 V2000
  -30.4936  -26.2282    9.3656 C   0  0  0  0  0  0  0  0  0  0  0  0
  -30.2570  -25.5486   10.5562 C   0  0  0  0  0  0  0  0  0  0  0  0
  -23.1047   -9.8458   19.9475 C   0  0  0  0  0  0  0  0  0  0  0  0
  -23.7206   -9.9577   22.2810 C   0  0  0  0  0  0  0  0  0  0  0  0
  -31.0002  -27.5268    9.3942 C   0  0  0  0  0  0  0  0  0  0  0  0
  -30.5280  -26.1670   11.7763 C   0  0  0  0  0  0  0  0  0  0  0  0
  -27.4185  -25.5036   17.0105 C   0  0  0  0  0  0  0  0  0  0  0  0
  -22.3595   -8.6939   20.1994 C   0  0  0  0  0  0  0  0  0  0  0  0
  -22.9755   -8.8057   22.5329 C   0  0  0  0  0  0  0  0  0  0  0  0
  -27.6433  -24.7212   18.1424 C   0  0  0  0  0  0  0  0  0  0  0  0
  -23.3372   -5.4679   22.1344 C   0  0  0  0  0  0  0  0  0  0  0  0
  -23.9183   -4.4815   22.9313 C   0  0  0  0  0  0  0  0  0  0  0  0
  -31.9636  -19.1045   21.7850 C   0  0  0  0  0  0  0  0  0  0  0  0
  -28.7042  -26.5991   19.2226 C   0  0  0  0  0  0  0  0  0  0  0  0
  -31.5928  -19.9802   19.5742 C   0  0  0  0  0  0  0  0  0  0  0  0
  -22.1124   -4.7020   24.5210 C   0  0  0  0  0  0  0  0  0  0  0  0
  -23.7853  -10.4777   20.9883 C   0  0  0  0  0  0  0  0  0  0  0  0
  -24.1059  -13.0002   20.7837 C   0  0  0  0  0  0  0  0  0  0  0  0
  -31.2684  -28.1650   10.6155 C   0  0  0  0  0  0  0  0  0  0  0  0
  -27.8454  -26.8388   16.9721 C   0  0  0  0  0  0  0  0  0  0  0  0
  -31.0399  -27.4749   11.8213 C   0  0  0  0  0  0  0  0  0  0  0  0
  -32.4370  -17.8848   21.2604 C   0  0  0  0  0  0  0  0  0  0  0  0
  -28.4814  -27.3972   18.0900 C   0  0  0  0  0  0  0  0  0  0  0  0
  -32.4997  -17.7332   19.8610 C   0  0  0  0  0  0  0  0  0  0  0  0
  -32.0706  -18.7880   19.0335 C   0  0  0  0  0  0  0  0  0  0  0  0
  -31.5423  -20.1401   20.9521 C   0  0  0  0  0  0  0  0  0  0  0  0
  -22.2949   -8.1739   21.4921 C   0  0  0  0  0  0  0  0  0  0  0  0
  -28.2888  -25.2680   19.2475 C   0  0  0  0  0  0  0  0  0  0  0  0
  -22.1437   -6.0714   22.5309 C   0  0  0  0  0  0  0  0  0  0  0  0
  -23.3059   -4.0986   24.1246 C   0  0  0  0  0  0  0  0  0  0  0  0
  -21.5314   -5.6885   23.7242 C   0  0  0  0  0  0  0  0  0  0  0  0
  -24.5556  -11.6673   20.7287 C   0  0  0  0  0  0  0  0  0  0  0  0
  -25.2101  -13.7489   20.4572 C   0  0  0  0  0  0  0  0  0  0  0  0
  -22.8062  -13.5154   21.1017 C   0  0  0  0  0  0  0  0  0  0  0  0
  -29.8888  -28.4899   15.1825 C   0  0  0  0  0  0  0  0  0  0  0  0
  -28.7128  -31.0091   16.8537 C   0  0  0  0  0  0  0  0  0  0  0  0
  -30.6020  -22.4741   20.8305 C   0  0  0  0  0  0  0  0  0  0  0  0
  -27.1828  -32.1481   19.6836 C   0  0  0  0  0  0  0  0  0  0  0  0
  -30.6760  -14.5869   21.4250 C   0  0  0  0  0  0  0  0  0  0  0  0
  -31.8598  -29.5522   10.5952 C   0  0  0  0  0  0  0  0  0  0  0  0
  -27.5716  -27.6773   15.7537 C   0  0  0  0  0  0  0  0  0  0  0  0
  -32.8686  -16.8376   22.2674 C   0  0  0  0  0  0  0  0  0  0  0  0
  -33.0304  -16.4842   19.2058 C   0  0  0  0  0  0  0  0  0  0  0  0
  -28.9411  -28.8313   18.1069 C   0  0  0  0  0  0  0  0  0  0  0  0
  -31.7674  -30.2735   11.9374 C   0  0  0  0  0  0  0  0  0  0  0  0
  -29.6957  -12.3777   18.5820 C   0  0  0  0  0  0  0  0  0  0  0  0
  -32.2077  -29.3517   13.0702 C   0  0  0  0  0  0  0  0  0  0  0  0
  -28.2428  -12.0657   18.9404 C   0  0  0  0  0  0  0  0  0  0  0  0
  -32.9767  -15.3732   21.8277 C   0  0  0  0  0  0  0  0  0  0  0  0
  -32.1735  -15.2430   19.4752 C   0  0  0  0  0  0  0  0  0  0  0  0
  -30.5267  -12.6367   19.8325 C   0  0  0  0  0  0  0  0  0  0  0  0
  -28.5364  -13.4093   21.0732 C   0  0  0  0  0  0  0  0  0  0  0  0
  -31.2978  -28.1210   13.1653 C   0  0  1  0  0  0  0  0  0  0  0  0
  -28.5074  -28.8758   15.6305 C   0  0  1  0  0  0  0  0  0  0  0  0
  -27.6480  -13.1614   19.8425 C   0  0  2  0  0  0  0  0  0  0  0  0
  -33.5149  -18.7485   15.4552 C   0  0  0  0  0  0  0  0  0  0  0  0
  -26.3879  -34.2614   20.7789 C   0  0  0  0  0  0  0  0  0  0  0  0
  -31.5931  -31.7202   17.5666 C   0  0  0  0  0  0  0  0  0  0  0  0
  -30.7052  -33.2032   19.3779 C   0  0  0  0  0  0  0  0  0  0  0  0
  -30.1465  -33.6781   16.9935 C   0  0  0  0  0  0  0  0  0  0  0  0
  -24.3773  -31.2068   19.7287 C   0  0  0  0  0  0  0  0  0  0  0  0
  -32.0858  -18.6907   17.5398 C   0  0  0  0  0  0  0  0  0  0  0  0
  -30.1723  -23.5544   21.8166 C   0  0  0  0  0  0  0  0  0  0  0  0
  -33.4968  -18.8798   16.9698 C   0  0  0  0  0  0  0  0  0  0  0  0
  -29.6611  -24.8153   21.1363 C   0  0  0  0  0  0  0  0  0  1  0  0
  -29.0773  -31.6983   18.1465 C   0  0  1  0  0  0  0  0  0  0  0  0
  -26.0099  -33.0907   19.8849 C   0  0  2  0  0  0  0  0  0  0  0  0
  -30.3737  -32.5473   18.0204 C   0  0  0  0  0  0  0  0  0  0  0  0
  -25.8450  -11.5716   20.3934 N   0  0  0  0  0  0  0  0  0  0  0  0
  -26.2149  -12.8538   20.2348 N   0  0  0  0  0  0  0  0  0  0  0  0
  -28.6560  -29.6087   16.8895 N   0  0  0  0  0  0  0  0  0  0  0  0
  -31.9221  -14.9753   20.8995 N   0  0  0  0  0  0  0  0  0  0  0  0
  -29.9207  -13.6729   20.6760 N   0  0  0  0  0  0  0  0  0  0  0  0
  -25.4099  -15.0790   20.3415 N   0  0  0  0  0  0  0  0  0  0  0  0
  -21.7855  -12.6072   21.4139 N   0  0  0  0  0  0  0  0  0  0  0  0
  -31.0658  -21.3308   21.5021 N   0  0  0  0  0  0  0  0  0  0  0  0
  -30.0486  -28.4646   13.8102 N   0  0  0  0  0  0  0  0  0  0  0  0
  -27.9003  -32.4609   18.5484 N   0  0  0  0  0  0  0  0  0  0  0  0
  -24.8675  -32.3691   20.5134 N   0  3  0  0  0  0  0  0  0  0  0  0
  -22.5532  -14.7440   21.0927 O   0  0  0  0  0  0  0  0  0  0  0  0
  -30.7465  -28.2353   16.0200 O   0  0  0  0  0  0  0  0  0  0  0  0
  -28.4798  -31.6887   15.8509 O   0  0  0  0  0  0  0  0  0  0  0  0
  -30.5322  -22.6334   19.6164 O   0  0  0  0  0  0  0  0  0  0  0  0
  -27.4392  -31.2289   20.4581 O   0  0  0  0  0  0  0  0  0  0  0  0
  -30.2473  -15.0541   22.4880 O   0  0  0  0  0  0  0  0  0  0  0  0
  -21.5677   -7.0500   21.7383 O   0  0  0  0  0  0  0  0  0  0  0  0
  -28.5116  -24.5009   20.3611 O   0  0  0  0  0  0  0  0  0  1  0  0
  -23.8632   -3.1502   24.8889 F   0  0  0  0  0  0  0  0  0  0  0  0
  -20.3841   -6.2638   24.1097 F   0  0  0  0  0  0  0  0  0  0  0  0
  1  2  1  0  0  0  0
  1  5  2  0  0  0  0
  2  6  2  0  0  0  0
  3  8  2  0  0  0  0
  3 17  1  0  0  0  0
  4  9  1  0  0  0  0
  4 17  2  0  0  0  0
  5 19  1  0  0  0  0
  6 21  1  0  0  0  0
  7 10  2  0  0  0  0
  7 20  1  0  0  0  0
  8 27  1  0  0  0  0
  9 27  2  0  0  0  0
 10 28  1  0  0  0  0
 11 12  2  0  0  0  0
 11 29  1  0  0  0  0
 12 30  1  0  0  0  0
 13 22  2  0  0  0  0
 13 26  1  0  0  0  0
 14 23  1  0  0  0  0
 14 28  2  0  0  0  0
 15 25  1  0  0  0  0
 15 26  2  0  0  0  0
 16 30  2  0  0  0  0
 16 31  1  0  0  0  0
 17 32  1  0  0  0  0
 18 32  1  0  0  0  0
 18 33  2  0  0  0  0
 18 34  1  0  0  0  0
 19 21  2  0  0  0  0
 19 40  1  0  0  0  0
 20 23  2  0  0  0  0
 20 41  1  0  0  0  0
 21 53  1  0  0  0  0
 22 24  1  0  0  0  0
 22 42  1  0  0  0  0
 23 44  1  0  0  0  0
 24 25  2  0  0  0  0
 24 43  1  0  0  0  0
 25 62  1  0  0  0  0
 26 76  1  0  0  0  0
 27 86  1  0  0  0  0
 28 87  1  0  0  0  0
 29 31  2  0  0  0  0
 29 86  1  0  0  0  0
 30 88  1  0  0  0  0
 31 89  1  0  0  0  0
 32 69  2  0  0  0  0
 33 70  1  0  0  0  0
 33 74  1  0  0  0  0
 34 75  1  0  0  0  0
 34 80  2  0  0  0  0
 35 54  1  0  0  0  0
 35 77  1  0  0  0  0
 35 81  2  0  0  0  0
 36 66  1  0  0  0  0
 36 71  1  0  0  0  0
 36 82  2  0  0  0  0
 37 63  1  0  0  0  0
 37 76  1  0  0  0  0
 37 83  2  0  0  0  0
 38 67  1  0  0  0  0
 38 78  1  0  0  0  0
 38 84  2  0  0  0  0
 39 72  1  0  0  0  0
 39 73  1  0  0  0  0
 39 85  2  0  0  0  0
 40 45  1  0  0  0  0
 41 54  1  0  0  0  0
 42 49  1  0  0  0  0
 43 50  1  0  0  0  0
 44 71  1  0  0  0  0
 45 47  1  0  0  0  0
 46 48  1  0  0  0  0
 46 51  1  0  0  0  0
 47 53  1  0  0  0  0
 48 55  1  0  0  0  0
 49 72  1  0  0  0  0
 50 72  1  0  0  0  0
 51 73  1  0  0  0  0
 52 55  1  0  0  0  0
 52 73  1  0  0  0  0
 53 77  1  0  0  0  0
 54 71  1  0  0  0  0
 55 70  1  0  0  0  0
 56 64  1  0  0  0  0
 57 67  1  0  0  0  0
 58 68  1  0  0  0  0
 59 68  1  0  0  0  0
 60 68  1  0  0  0  0
 61 79  1  0  0  0  0
 62 64  1  0  0  0  0
 63 65  1  0  0  0  0
 65 87  1  0  0  0  0
 66 68  1  0  0  0  0
 66 78  1  0  0  0  0
 67 79  1  0  0  0  0
 69 70  1  0  0  0  0
M  CHG  1  79   1
M  ISO  4  39 100  65 101  72 100  87 101
M  END
> <Batch ID>
0110

> <Smiles>
CCCc1cc(NC(=O)C[101CH2:1][101O:1]c2ccc3c(c2)CN(C(=O)C(NC(=O)C(C)NC)C(C)(C)C)C(C(=O)NC2CCCc4ccccc42)C3)cc2c1CC[100N:0]([100C:0](=O)N1CCCC(n3nc(-c4ccc(Oc5ccc(F)cc5F)cc4)c(C(N)=O)c3N)C1)CC2

> <Shape>
0.205

> <Color>
0.173

> <Negative vol penalty>
0.000

$$$$

  -OEChem-04052301263D

 87 95  0     1  0  0  0  0  0999 V2000
  -17.3222  -26.4025   25.6952 C   0  0  0  0  0  0  0  0  0  0  0  0
  -18.0067  -25.2698   25.2662 C   0  0  0  0  0  0  0  0  0  0  0  0
  -32.0749  -21.0890   19.4929 C   0  0  0  0  0  0  0  0  0  0  0  0
  -29.8442  -20.7892   18.6149 C   0  0  0  0  0  0  0  0  0  0  0  0
  -25.1504  -11.3313   21.2142 C   0  0  0  0  0  0  0  0  0  0  0  0
  -17.4790  -27.6096   25.0152 C   0  0  0  0  0  0  0  0  0  0  0  0
  -18.8475  -25.3433   24.1563 C   0  0  0  0  0  0  0  0  0  0  0  0
  -24.0820  -22.2834   23.2941 C   0  0  0  0  0  0  0  0  0  0  0  0
  -26.3367  -12.0292   21.4406 C   0  0  0  0  0  0  0  0  0  0  0  0
  -32.4427  -21.7631   18.3285 C   0  0  0  0  0  0  0  0  0  0  0  0
  -30.2119  -21.4633   17.4505 C   0  0  0  0  0  0  0  0  0  0  0  0
  -24.3838  -21.1229   22.5829 C   0  0  0  0  0  0  0  0  0  0  0  0
  -30.4611  -23.4210   14.3970 C   0  0  0  0  0  0  0  0  0  0  0  0
  -29.5819  -24.3820   13.8981 C   0  0  0  0  0  0  0  0  0  0  0  0
  -25.0690  -22.4634   20.6980 C   0  0  0  0  0  0  0  0  0  0  0  0
  -29.7731  -25.6272   15.9597 C   0  0  0  0  0  0  0  0  0  0  0  0
  -30.7757  -20.6020   19.6362 C   0  0  0  0  0  0  0  0  0  0  0  0
  -24.0796  -11.9626   20.5814 C   0  0  0  0  0  0  0  0  0  0  0  0
  -29.8578  -20.4662   22.0124 C   0  0  0  0  0  0  0  0  0  0  0  0
  -18.3297  -27.7002   23.9022 C   0  0  0  0  0  0  0  0  0  0  0  0
  -24.2613  -23.5445   22.7077 C   0  0  0  0  0  0  0  0  0  0  0  0
  -19.0148  -26.5524   23.4599 C   0  0  0  0  0  0  0  0  0  0  0  0
  -24.7710  -23.6385   21.4048 C   0  0  0  0  0  0  0  0  0  0  0  0
  -24.1950  -13.2920   20.1751 C   0  0  0  0  0  0  0  0  0  0  0  0
  -26.4521  -13.3586   21.0343 C   0  0  0  0  0  0  0  0  0  0  0  0
  -31.5111  -21.9503   17.3072 C   0  0  0  0  0  0  0  0  0  0  0  0
  -24.8747  -21.2127   21.2836 C   0  0  0  0  0  0  0  0  0  0  0  0
  -30.9962  -23.5629   15.6773 C   0  0  0  0  0  0  0  0  0  0  0  0
  -25.3812  -13.9900   20.4016 C   0  0  0  0  0  0  0  0  0  0  0  0
  -29.2380  -25.4852   14.6794 C   0  0  0  0  0  0  0  0  0  0  0  0
  -30.6523  -24.6660   16.4586 C   0  0  0  0  0  0  0  0  0  0  0  0
  -30.3954  -19.9051   20.8386 C   0  0  0  0  0  0  0  0  0  0  0  0
  -29.6710  -19.3945   22.8509 C   0  0  0  0  0  0  0  0  0  0  0  0
  -22.8542  -11.2078   20.3567 C   0  0  0  0  0  0  0  0  0  0  0  0
  -29.5543  -21.8338   22.3176 C   0  0  0  0  0  0  0  0  0  0  0  0
  -22.3409  -25.9650   21.9616 C   0  0  0  0  0  0  0  0  0  0  0  0
  -25.3155  -17.6773   20.3427 C   0  0  0  0  0  0  0  0  0  0  0  0
  -25.1324  -27.4416   21.2207 C   0  0  0  0  0  0  0  0  0  0  0  0
  -28.4096  -27.1549   20.3125 C   0  0  0  0  0  0  0  0  0  0  0  0
  -28.8133  -13.5597   21.8889 C   0  0  0  0  0  0  0  0  0  0  0  0
  -18.4305  -29.0153   23.1707 C   0  0  0  0  0  0  0  0  0  0  0  0
  -23.9562  -24.7875   23.4978 C   0  0  0  0  0  0  0  0  0  0  0  0
  -25.0008  -24.9689   20.7373 C   0  0  0  0  0  0  0  0  0  0  0  0
  -19.6301  -29.0988   22.2304 C   0  0  0  0  0  0  0  0  0  0  0  0
  -31.4199  -15.0406   23.8099 C   0  0  0  0  0  0  0  0  0  0  0  0
  -19.7384  -27.8309   21.3893 C   0  0  0  0  0  0  0  0  0  0  0  0
  -31.4000  -16.5084   23.3772 C   0  0  0  0  0  0  0  0  0  0  0  0
  -31.1182  -14.1014   22.6434 C   0  0  0  0  0  0  0  0  0  0  0  0
  -29.8641  -15.8705   21.4743 C   0  0  0  0  0  0  0  0  0  0  0  0
  -19.9551  -26.5981   22.2751 C   0  0  1  0  0  0  0  0  0  0  0  0
  -23.6920  -26.0052   22.6176 C   0  0  1  0  0  0  0  0  0  0  0  0
  -30.0985  -16.8579   22.6292 C   0  0  2  0  0  0  0  0  0  0  0  0
  -30.7524  -27.8843   19.7864 C   0  0  0  0  0  0  0  0  0  0  0  0
  -23.9422  -28.0406   18.4758 C   0  0  0  0  0  0  0  0  0  0  0  0
  -26.2547  -28.5470   17.6607 C   0  0  0  0  0  0  0  0  0  0  0  0
  -25.2464  -29.9231   19.4807 C   0  0  0  0  0  0  0  0  0  0  0  0
  -29.2362  -26.9420   23.1463 C   0  0  0  0  0  0  0  0  0  0  0  0
  -23.0513  -13.9757   19.4946 C   0  0  0  0  0  0  0  0  0  0  0  0
  -24.9517  -18.8360   21.2485 C   0  0  0  0  0  0  0  0  0  1  0  0
  -25.1107  -16.2940   20.9254 C   0  0  0  0  0  0  0  0  0  0  0  0
  -25.9843  -27.5570   19.9797 C   0  0  1  0  0  0  0  0  0  0  0  0
  -29.6650  -27.8199   20.8476 C   0  0  2  0  0  0  0  0  0  0  0  0
  -25.3509  -28.4917   18.9108 C   0  0  0  0  0  0  0  0  0  0  0  0
  -30.5409  -18.5799   20.9202 N   0  0  0  0  0  0  0  0  0  0  0  0
  -30.0920  -18.2993   22.1555 N   0  0  0  0  0  0  0  0  0  0  0  0
  -24.6814  -26.1552   21.5486 N   0  0  0  0  0  0  0  0  0  0  0  0
  -29.8691  -14.4908   21.9854 N   0  0  0  0  0  0  0  0  0  0  0  0
  -29.1893  -19.2915   24.1078 N   0  0  0  0  0  0  0  0  0  0  0  0
  -22.7399  -10.5034   19.1630 N   0  0  0  0  0  0  0  0  0  0  0  0
  -29.8079  -22.8081   21.3425 N   0  0  0  0  0  0  0  0  0  0  0  0
  -27.6640  -14.0531   21.2722 N   0  0  0  0  0  0  0  0  0  0  0  0
  -21.3313  -26.5294   22.7177 N   0  0  0  0  0  0  0  0  0  0  0  0
  -27.3074  -27.9750   20.4303 N   0  0  0  0  0  0  0  0  0  0  0  0
  -23.0788  -13.8315   18.0147 N   0  3  0  0  0  0  0  0  0  0  0  0
  -30.1940  -27.0627   22.0171 N   0  3  0  0  0  0  0  0  0  0  0  0
  -21.9349  -11.2050   21.1924 O   0  0  0  0  0  0  0  0  0  0  0  0
  -29.0879  -22.1836   23.4282 O   0  0  0  0  0  0  0  0  0  0  0  0
  -22.2232  -25.4606   20.8510 O   0  0  0  0  0  0  0  0  0  0  0  0
  -25.7506  -17.8493   19.2051 O   0  0  0  0  0  0  0  0  0  0  0  0
  -24.8825  -28.4545   21.8789 O   0  0  0  0  0  0  0  0  0  0  0  0
  -28.4077  -26.0228   19.8343 O   0  0  0  0  0  0  0  0  0  0  0  0
  -28.9112  -12.4179   22.3458 O   0  0  0  0  0  0  0  0  0  0  0  0
  -31.8695  -22.6082   16.1709 O   0  0  0  0  0  0  0  0  0  0  0  0
  -25.1695  -20.0815   20.5869 O   0  0  0  0  0  0  0  0  0  1  0  0
  -25.4943  -15.2997   19.9991 O   0  0  0  0  0  0  0  0  0  0  0  0
  -28.3949  -26.4088   14.1995 F   0  0  0  0  0  0  0  0  0  0  0  0
  -31.1641  -24.8084   17.6889 F   0  0  0  0  0  0  0  0  0  0  0  0
  1  2  1  0  0  0  0
  1  6  2  0  0  0  0
  2  7  2  0  0  0  0
  3 10  2  0  0  0  0
  3 17  1  0  0  0  0
  4 11  1  0  0  0  0
  4 17  2  0  0  0  0
  5  9  1  0  0  0  0
  5 18  2  0  0  0  0
  6 20  1  0  0  0  0
  7 22  1  0  0  0  0
  8 12  2  0  0  0  0
  8 21  1  0  0  0  0
  9 25  2  0  0  0  0
 10 26  1  0  0  0  0
 11 26  2  0  0  0  0
 12 27  1  0  0  0  0
 13 14  2  0  0  0  0
 13 28  1  0  0  0  0
 14 30  1  0  0  0  0
 15 23  1  0  0  0  0
 15 27  2  0  0  0  0
 16 30  2  0  0  0  0
 16 31  1  0  0  0  0
 17 32  1  0  0  0  0
 18 24  1  0  0  0  0
 18 34  1  0  0  0  0
 19 32  1  0  0  0  0
 19 33  2  0  0  0  0
 19 35  1  0  0  0  0
 20 22  2  0  0  0  0
 20 41  1  0  0  0  0
 21 23  2  0  0  0  0
 21 42  1  0  0  0  0
 22 50  1  0  0  0  0
 23 43  1  0  0  0  0
 24 29  2  0  0  0  0
 24 58  1  0  0  0  0
 25 29  1  0  0  0  0
 25 71  1  0  0  0  0
 26 83  1  0  0  0  0
 27 84  1  0  0  0  0
 28 31  2  0  0  0  0
 28 83  1  0  0  0  0
 29 85  1  0  0  0  0
 30 86  1  0  0  0  0
 31 87  1  0  0  0  0
 32 64  2  0  0  0  0
 33 65  1  0  0  0  0
 33 68  1  0  0  0  0
 34 69  1  0  0  0  0
 34 76  2  0  0  0  0
 35 70  1  0  0  0  0
 35 77  2  0  0  0  0
 36 51  1  0  0  0  0
 36 72  1  0  0  0  0
 36 78  2  0  0  0  0
 37 59  1  0  0  0  0
 37 60  1  0  0  0  0
 37 79  2  0  0  0  0
 38 61  1  0  0  0  0
 38 66  1  0  0  0  0
 38 80  2  0  0  0  0
 39 62  1  0  0  0  0
 39 73  1  0  0  0  0
 39 81  2  0  0  0  0
 40 67  1  0  0  0  0
 40 71  1  0  0  0  0
 40 82  2  0  0  0  0
 41 44  1  0  0  0  0
 42 51  1  0  0  0  0
 43 66  1  0  0  0  0
 44 46  1  0  0  0  0
 45 47  1  0  0  0  0
 45 48  1  0  0  0  0
 46 50  1  0  0  0  0
 47 52  1  0  0  0  0
 48 67  1  0  0  0  0
 49 52  1  0  0  0  0
 49 67  1  0  0  0  0
 50 72  1  0  0  0  0
 51 66  1  0  0  0  0
 52 65  1  0  0  0  0
 53 62  1  0  0  0  0
 54 63  1  0  0  0  0
 55 63  1  0  0  0  0
 56 63  1  0  0  0  0
 57 75  1  0  0  0  0
 58 74  1  0  0  0  0
 59 84  1  0  0  0  0
 60 85  1  0  0  0  0
 61 63  1  0  0  0  0
 61 73  1  0  0  0  0
 62 75  1  0  0  0  0
 64 65  1  0  0  0  0
M  CHG  2  74   1  75   1
M  ISO  4  40 100  59 101  71 100  84 101
M  END
> <Batch ID>
0110

> <Smiles>
CNC(C)C(=O)NC(C(=O)N1Cc2cc([101O:1][101CH2:1]C(=O)COc3c([100NH:0][100C:0](=O)N4CCCC(n5nc(-c6ccc(Oc7ccc(F)cc7F)cc6)c(C(N)=O)c5N)C4)ccc(C(N)=O)c3CN)ccc2CC1C(=O)NC1CCCc2ccccc21)C(C)(C)C

> <Shape>
0.221

> <Color>
0.062

> <Negative vol penalty>
0.000

$$$$

  -OEChem-04052301263D

 86 94  0     1  0  0  0  0  0999 V2000
  -17.1383  -26.5411   23.0910 C   0  0  0  0  0  0  0  0  0  0  0  0
  -18.3772  -25.9365   22.9036 C   0  0  0  0  0  0  0  0  0  0  0  0
  -23.4133  -10.2336   22.2115 C   0  0  0  0  0  0  0  0  0  0  0  0
  -23.4822  -12.4309   23.2136 C   0  0  0  0  0  0  0  0  0  0  0  0
  -16.9586  -27.8806   22.7485 C   0  0  0  0  0  0  0  0  0  0  0  0
  -19.4369  -26.6710   22.3727 C   0  0  0  0  0  0  0  0  0  0  0  0
  -25.3703  -26.1210   23.7862 C   0  0  0  0  0  0  0  0  0  0  0  0
  -22.6912   -9.7572   23.3056 C   0  0  0  0  0  0  0  0  0  0  0  0
  -22.7600  -11.9545   24.3077 C   0  0  0  0  0  0  0  0  0  0  0  0
  -26.4248  -25.4541   23.1642 C   0  0  0  0  0  0  0  0  0  0  0  0
  -23.3309   -8.7814   26.4778 C   0  0  0  0  0  0  0  0  0  0  0  0
  -23.7185   -7.5591   27.0267 C   0  0  0  0  0  0  0  0  0  0  0  0
  -27.0639  -27.5034   22.0637 C   0  0  0  0  0  0  0  0  0  0  0  0
  -29.8781  -19.8883   18.0540 C   0  0  0  0  0  0  0  0  0  0  0  0
  -29.5568  -19.2727   20.3680 C   0  0  0  0  0  0  0  0  0  0  0  0
  -21.5297   -6.6524   26.5533 C   0  0  0  0  0  0  0  0  0  0  0  0
  -23.8089  -11.5705   22.1655 C   0  0  0  0  0  0  0  0  0  0  0  0
  -29.5084  -17.5761   18.6487 C   0  0  0  0  0  0  0  0  0  0  0  0
  -24.0366  -12.6197   19.8514 C   0  0  0  0  0  0  0  0  0  0  0  0
  -18.0194  -28.6345   22.2221 C   0  0  0  0  0  0  0  0  0  0  0  0
  -25.1477  -27.4840   23.5428 C   0  0  0  0  0  0  0  0  0  0  0  0
  -19.2709  -28.0215   22.0216 C   0  0  0  0  0  0  0  0  0  0  0  0
  -26.0074  -28.1859   22.6859 C   0  0  0  0  0  0  0  0  0  0  0  0
  -29.7388  -18.5521   17.6791 C   0  0  0  0  0  0  0  0  0  0  0  0
  -29.7872  -20.2486   19.3985 C   0  0  0  0  0  0  0  0  0  0  0  0
  -22.3645  -10.6177   24.3537 C   0  0  0  0  0  0  0  0  0  0  0  0
  -27.2701  -26.1446   22.3005 C   0  0  0  0  0  0  0  0  0  0  0  0
  -22.0426   -8.9393   25.9667 C   0  0  0  0  0  0  0  0  0  0  0  0
  -22.8180   -6.4946   27.0644 C   0  0  0  0  0  0  0  0  0  0  0  0
  -29.4174  -17.9364   19.9932 C   0  0  0  0  0  0  0  0  0  0  0  0
  -21.1421   -7.8748   26.0044 C   0  0  0  0  0  0  0  0  0  0  0  0
  -24.5554  -12.0630   21.0358 C   0  0  0  0  0  0  0  0  0  0  0  0
  -25.1458  -12.9276   19.1021 C   0  0  0  0  0  0  0  0  0  0  0  0
  -28.8380  -22.2793   19.8077 C   0  0  0  0  0  0  0  0  0  0  0  0
  -29.3574  -16.1746   18.2808 C   0  0  0  0  0  0  0  0  0  0  0  0
  -22.6739  -12.8389   19.4632 C   0  0  0  0  0  0  0  0  0  0  0  0
  -28.9131  -23.7195   20.1987 C   0  0  0  0  0  0  0  0  0  0  0  0
  -30.2757  -15.1382   18.8059 C   0  0  0  0  0  0  0  0  0  0  0  0
  -22.7697  -29.1794   22.2882 C   0  0  0  0  0  0  0  0  0  0  0  0
  -24.5884  -31.6964   23.2258 C   0  0  0  0  0  0  0  0  0  0  0  0
  -27.6824  -32.8998   24.0170 C   0  0  0  0  0  0  0  0  0  0  0  0
  -17.7643  -30.0663   21.8227 C   0  0  0  0  0  0  0  0  0  0  0  0
  -24.0220  -28.1951   24.2423 C   0  0  0  0  0  0  0  0  0  0  0  0
  -25.8236  -29.6546   22.4069 C   0  0  0  0  0  0  0  0  0  0  0  0
  -19.0407  -30.8775   21.6153 C   0  0  0  0  0  0  0  0  0  0  0  0
  -30.0004  -11.6822   19.7206 C   0  0  0  0  0  0  0  0  0  0  0  0
  -20.0406  -30.0931   20.7718 C   0  0  0  0  0  0  0  0  0  0  0  0
  -28.5239  -11.5298   20.0844 C   0  0  0  0  0  0  0  0  0  0  0  0
  -30.5305  -13.0600   20.1039 C   0  0  0  0  0  0  0  0  0  0  0  0
  -28.2649  -14.0433   19.8826 C   0  0  0  0  0  0  0  0  0  0  0  0
  -20.4516  -28.7919   21.4714 C   0  0  1  0  0  0  0  0  0  0  0  0
  -23.5781  -29.4646   23.5222 C   0  0  1  0  0  0  0  0  0  0  0  0
  -27.6867  -12.6739   19.4853 C   0  0  2  0  0  0  0  0  0  0  0  0
  -28.5709  -18.5411   15.4604 C   0  0  0  0  0  0  0  0  0  0  0  0
  -28.8596  -35.0057   24.7074 C   0  0  0  0  0  0  0  0  0  0  0  0
  -24.4068  -32.7338   20.3621 C   0  0  0  0  0  0  0  0  0  0  0  0
  -26.3252  -34.2610   20.8676 C   0  0  0  0  0  0  0  0  0  0  0  0
  -24.1835  -34.4934   22.1253 C   0  0  0  0  0  0  0  0  0  0  0  0
  -28.5782  -31.6999   26.5698 C   0  0  0  0  0  0  0  0  0  0  0  0
  -29.8400  -18.1934   16.2323 C   0  0  0  0  0  0  0  0  0  0  0  0
  -28.1207  -24.1070   21.4169 C   0  0  0  0  0  0  0  0  0  1  0  0
  -25.6874  -32.5157   22.5934 C   0  0  1  0  0  0  0  0  0  0  0  0
  -28.1686  -33.7382   25.1855 C   0  0  2  0  0  0  0  0  0  0  0  0
  -25.1533  -33.4729   21.4906 C   0  0  0  0  0  0  0  0  0  0  0  0
  -25.8903  -12.0185   21.0430 N   0  0  0  0  0  0  0  0  0  0  0  0
  -28.4213  -15.7429   17.4816 N   0  0  0  0  0  0  0  0  0  0  0  0
  -29.9280  -21.5944   19.7768 N   0  0  0  0  0  0  0  0  0  0  0  0
  -26.2197  -12.5510   19.8538 N   0  0  0  0  0  0  0  0  0  0  0  0
  -29.6929  -14.1217   19.5495 N   0  0  0  0  0  0  0  0  0  0  0  0
  -24.7049  -30.3040   23.1099 N   0  0  0  0  0  0  0  0  0  0  0  0
  -25.2975  -13.4809   17.8801 N   0  0  0  0  0  0  0  0  0  0  0  0
  -21.6574  -12.4644   20.3525 N   0  0  0  0  0  0  0  0  0  0  0  0
  -21.4123  -29.0631   22.5192 N   0  0  0  0  0  0  0  0  0  0  0  0
  -26.3752  -33.1907   23.6886 N   0  0  0  0  0  0  0  0  0  0  0  0
  -29.1329  -32.9613   26.0146 N   0  3  0  0  0  0  0  0  0  0  0  0
  -22.3663  -13.3366   18.3537 O   0  0  0  0  0  0  0  0  0  0  0  0
  -29.6078  -24.4652   19.5265 O   0  0  0  0  0  0  0  0  0  0  0  0
  -31.4577  -15.2904   18.5264 O   0  0  0  0  0  0  0  0  0  0  0  0
  -23.3354  -29.0742   21.2062 O   0  0  0  0  0  0  0  0  0  0  0  0
  -23.6645  -32.2705   23.8076 O   0  0  0  0  0  0  0  0  0  0  0  0
  -28.3925  -32.0724   23.4498 O   0  0  0  0  0  0  0  0  0  0  0  0
  -21.6596  -10.1532   25.4214 O   0  0  0  0  0  0  0  0  0  0  0  0
  -28.2997  -25.4958   21.6915 O   0  0  0  0  0  0  0  0  0  1  0  0
  -23.1908   -5.3204   27.5901 F   0  0  0  0  0  0  0  0  0  0  0  0
  -29.1937  -17.0079   20.9342 F   0  0  0  0  0  0  0  0  0  0  0  0
  -19.9035   -8.0201   25.5139 F   0  0  0  0  0  0  0  0  0  0  0  0
  1  2  1  0  0  0  0
  1  5  2  0  0  0  0
  2  6  2  0  0  0  0
  3  8  2  0  0  0  0
  3 17  1  0  0  0  0
  4  9  1  0  0  0  0
  4 17  2  0  0  0  0
  5 20  1  0  0  0  0
  6 22  1  0  0  0  0
  7 10  2  0  0  0  0
  7 21  1  0  0  0  0
  8 26  1  0  0  0  0
  9 26  2  0  0  0  0
 10 27  1  0  0  0  0
 11 12  2  0  0  0  0
 11 28  1  0  0  0  0
 12 29  1  0  0  0  0
 13 23  1  0  0  0  0
 13 27  2  0  0  0  0
 14 24  1  0  0  0  0
 14 25  2  0  0  0  0
 15 25  1  0  0  0  0
 15 30  2  0  0  0  0
 16 29  2  0  0  0  0
 16 31  1  0  0  0  0
 17 32  1  0  0  0  0
 18 24  2  0  0  0  0
 18 30  1  0  0  0  0
 18 35  1  0  0  0  0
 19 32  1  0  0  0  0
 19 33  2  0  0  0  0
 19 36  1  0  0  0  0
 20 22  2  0  0  0  0
 20 42  1  0  0  0  0
 21 23  2  0  0  0  0
 21 43  1  0  0  0  0
 22 51  1  0  0  0  0
 23 44  1  0  0  0  0
 24 60  1  0  0  0  0
 25 67  1  0  0  0  0
 26 82  1  0  0  0  0
 27 83  1  0  0  0  0
 28 31  2  0  0  0  0
 28 82  1  0  0  0  0
 29 84  1  0  0  0  0
 30 85  1  0  0  0  0
 31 86  1  0  0  0  0
 32 65  2  0  0  0  0
 33 68  1  0  0  0  0
 33 71  1  0  0  0  0
 34 37  1  0  0  0  0
 34 67  2  0  0  0  0
 35 38  1  0  0  0  0
 35 66  2  0  0  0  0
 36 72  1  0  0  0  0
 36 76  2  0  0  0  0
 37 61  1  0  0  0  0
 37 77  2  0  0  0  0
 38 69  1  0  0  0  0
 38 78  2  0  0  0  0
 39 52  1  0  0  0  0
 39 73  1  0  0  0  0
 39 79  2  0  0  0  0
 40 62  1  0  0  0  0
 40 70  1  0  0  0  0
 40 80  2  0  0  0  0
 41 63  1  0  0  0  0
 41 74  1  0  0  0  0
 41 81  2  0  0  0  0
 42 45  1  0  0  0  0
 43 52  1  0  0  0  0
 44 70  1  0  0  0  0
 45 47  1  0  0  0  0
 46 48  1  0  0  0  0
 46 49  1  0  0  0  0
 47 51  1  0  0  0  0
 48 53  1  0  0  0  0
 49 69  1  0  0  0  0
 50 53  1  0  0  0  0
 50 69  1  0  0  0  0
 51 73  1  0  0  0  0
 52 70  1  0  0  0  0
 53 68  1  0  0  0  0
 54 60  1  0  0  0  0
 55 63  1  0  0  0  0
 56 64  1  0  0  0  0
 57 64  1  0  0  0  0
 58 64  1  0  0  0  0
 59 75  1  0  0  0  0
 61 83  1  0  0  0  0
 62 64  1  0  0  0  0
 62 74  1  0  0  0  0
 63 75  1  0  0  0  0
 65 68  1  0  0  0  0
M  CHG  1  75   1
M  ISO  4  35 100  38 100  61 101  83 101
M  END
> <Batch ID>
0110

> <Smiles>
C=Cc1cc(NCC(=O)[101CH2:1][101O:1]c2ccc3c(c2)CN(C(=O)C(NC(=O)C(C)NC)C(C)(C)C)C(C(=O)NC2CCCc4ccccc42)C3)cc(F)c1[100C:0](=N)[100C:0](=O)N1CCCC(n2nc(-c3ccc(Oc4ccc(F)cc4F)cc3)c(C(N)=O)c2N)C1

> <Shape>
0.268

> <Color>
0.101

> <Negative vol penalty>
0.000

$$$$

  -OEChem-04052301263D

 89 98  0     1  0  0  0  0  0999 V2000
  -29.3038  -33.7098   22.6364 C   0  0  0  0  0  0  0  0  0  0  0  0
  -29.2225  -32.3311   22.8039 C   0  0  0  0  0  0  0  0  0  0  0  0
  -23.2831   -9.7126   19.8846 C   0  0  0  0  0  0  0  0  0  0  0  0
  -23.7311   -9.9060   22.2508 C   0  0  0  0  0  0  0  0  0  0  0  0
  -28.1564  -34.4935   22.7507 C   0  0  0  0  0  0  0  0  0  0  0  0
  -27.9939  -31.7355   23.0869 C   0  0  0  0  0  0  0  0  0  0  0  0
  -27.1768  -27.5645   20.3336 C   0  0  0  0  0  0  0  0  0  0  0  0
  -22.5931   -8.5220   20.1124 C   0  0  0  0  0  0  0  0  0  0  0  0
  -23.0410   -8.7154   22.4787 C   0  0  0  0  0  0  0  0  0  0  0  0
  -27.8266  -26.3985   20.7361 C   0  0  0  0  0  0  0  0  0  0  0  0
  -23.6289   -5.3992   22.1819 C   0  0  0  0  0  0  0  0  0  0  0  0
  -24.2126   -4.4656   23.0381 C   0  0  0  0  0  0  0  0  0  0  0  0
  -25.7989  -25.6441   21.8031 C   0  0  0  0  0  0  0  0  0  0  0  0
  -30.2127  -19.5499   20.6114 C   0  0  0  0  0  0  0  0  0  0  0  0
  -22.2928   -4.6045   24.4983 C   0  0  0  0  0  0  0  0  0  0  0  0
  -23.8521  -10.4046   20.9537 C   0  0  0  0  0  0  0  0  0  0  0  0
  -24.0338  -12.9377   20.7132 C   0  0  0  0  0  0  0  0  0  0  0  0
  -26.9114  -33.9062   23.0257 C   0  0  0  0  0  0  0  0  0  0  0  0
  -25.8340  -27.7844   20.6728 C   0  0  0  0  0  0  0  0  0  0  0  0
  -26.8289  -32.5123   23.2063 C   0  0  0  0  0  0  0  0  0  0  0  0
  -25.1336  -26.8125   21.4015 C   0  0  0  0  0  0  0  0  0  0  0  0
  -29.3724  -19.7128   22.8707 C   0  0  0  0  0  0  0  0  0  0  0  0
  -29.8293  -20.3269   21.7046 C   0  0  0  0  0  0  0  0  0  0  0  0
  -29.2987  -18.3218   22.9436 C   0  0  0  0  0  0  0  0  0  0  0  0
  -29.6821  -17.5448   21.8504 C   0  0  0  0  0  0  0  0  0  0  0  0
  -22.4721   -8.0234   21.4095 C   0  0  0  0  0  0  0  0  0  0  0  0
  -27.1385  -25.4394   21.4734 C   0  0  0  0  0  0  0  0  0  0  0  0
  -22.3772   -5.9355   22.4838 C   0  0  0  0  0  0  0  0  0  0  0  0
  -30.1390  -18.1589   20.6843 C   0  0  0  0  0  0  0  0  0  0  0  0
  -23.5446   -4.0682   24.1964 C   0  0  0  0  0  0  0  0  0  0  0  0
  -21.7091   -5.5382   23.6420 C   0  0  0  0  0  0  0  0  0  0  0  0
  -24.5655  -11.6343   20.7189 C   0  0  0  0  0  0  0  0  0  0  0  0
  -25.1107  -13.7467   20.4441 C   0  0  0  0  0  0  0  0  0  0  0  0
  -27.5662  -17.8688   24.7350 C   0  0  0  0  0  0  0  0  0  0  0  0
  -28.8526  -22.3220   21.1651 C   0  0  0  0  0  0  0  0  0  0  0  0
  -22.6869  -13.3780   20.9318 C   0  0  0  0  0  0  0  0  0  0  0  0
  -24.2818  -29.9631   22.3896 C   0  0  0  0  0  0  0  0  0  0  0  0
  -21.6619  -28.4120   21.2706 C   0  0  0  0  0  0  0  0  0  0  0  0
  -20.3103  -25.5391   20.0190 C   0  0  0  0  0  0  0  0  0  0  0  0
  -30.4217  -15.2136   21.2466 C   0  0  0  0  0  0  0  0  0  0  0  0
  -25.7069  -34.7996   23.1867 C   0  0  0  0  0  0  0  0  0  0  0  0
  -25.1398  -29.0352   20.2081 C   0  0  0  0  0  0  0  0  0  0  0  0
  -23.6853  -26.9914   21.7739 C   0  0  0  0  0  0  0  0  0  0  0  0
  -27.5734  -17.0881   26.0297 C   0  0  0  0  0  0  0  0  0  0  0  0
  -24.3789  -34.0500   23.1176 C   0  0  0  0  0  0  0  0  0  0  0  0
  -28.7030  -16.0967   25.8349 C   0  0  0  0  0  0  0  0  0  0  0  0
  -29.7972  -12.5930   18.9186 C   0  0  0  0  0  0  0  0  0  0  0  0
  -24.4286  -32.7951   23.9835 C   0  0  0  0  0  0  0  0  0  0  0  0
  -28.3367  -12.2172   19.1790 C   0  0  0  0  0  0  0  0  0  0  0  0
  -29.6770  -16.8439   24.9482 C   0  0  0  0  0  0  0  0  0  0  0  0
  -30.5278  -12.9578   20.2097 C   0  0  0  0  0  0  0  0  0  0  0  0
  -28.4101  -13.6112   21.2857 C   0  0  0  0  0  0  0  0  0  0  0  0
  -25.5100  -31.8265   23.4897 C   0  0  1  0  0  0  0  0  0  0  0  0
  -23.9176  -29.3881   21.0501 C   0  0  1  0  0  0  0  0  0  0  0  0
  -27.6156  -13.2987   20.0071 C   0  0  2  0  0  0  0  0  0  0  0  0
  -28.9626  -20.5534   24.0401 C   0  0  0  0  0  0  0  0  0  0  0  0
  -18.1352  -24.5643   19.2341 C   0  0  0  0  0  0  0  0  0  0  0  0
  -20.7453  -28.1310   24.1673 C   0  0  0  0  0  0  0  0  0  0  0  0
  -19.1269  -26.3765   23.4119 C   0  0  0  0  0  0  0  0  0  0  0  0
  -18.9279  -28.7088   22.5494 C   0  0  0  0  0  0  0  0  0  0  0  0
  -21.3738  -25.0584   17.2993 C   0  0  0  0  0  0  0  0  0  0  0  0
  -29.5087  -17.1093   18.6455 C   0  0  0  0  0  0  0  0  0  0  0  0
  -28.8176  -23.8149   21.0290 C   0  0  0  0  0  0  0  0  0  1  0  0
  -20.8264  -27.2467   21.7429 C   0  0  1  0  0  0  0  0  0  0  0  0
  -19.4087  -25.2874   18.8239 C   0  0  2  0  0  0  0  0  0  0  0  0
  -19.9344  -27.6130   22.9627 C   0  0  0  0  0  0  0  0  0  0  0  0
  -25.8781  -11.6117   20.4727 N   0  0  0  0  0  0  0  0  0  0  0  0
  -29.9103  -21.7265   21.6103 N   0  0  0  0  0  0  0  0  0  0  0  0
  -26.1802  -12.9110   20.3098 N   0  0  0  0  0  0  0  0  0  0  0  0
  -28.8304  -17.6979   24.1377 N   0  0  0  0  0  0  0  0  0  0  0  0
  -23.0523  -28.2340   21.3018 N   0  0  0  0  0  0  0  0  0  0  0  0
  -29.7888  -13.9906   20.9391 N   0  0  0  0  0  0  0  0  0  0  0  0
  -25.2376  -15.0841   20.3115 N   0  0  0  0  0  0  0  0  0  0  0  0
  -21.7037  -12.4147   21.1959 N   0  0  0  0  0  0  0  0  0  0  0  0
  -29.6103  -16.1311   21.9133 N   0  0  0  0  0  0  0  0  0  0  0  0
  -25.0502  -31.1095   22.3197 N   0  0  0  0  0  0  0  0  0  0  0  0
  -20.0829  -26.7788   20.5781 N   0  0  0  0  0  0  0  0  0  0  0  0
  -20.1147  -24.4561   17.8083 N   0  3  0  0  0  0  0  0  0  0  0  0
  -26.6126  -18.5467   24.3812 O   0  0  0  0  0  0  0  0  0  0  0  0
  -22.3618  -14.5883   20.8777 O   0  0  0  0  0  0  0  0  0  0  0  0
  -23.8933  -29.4086   23.4110 O   0  0  0  0  0  0  0  0  0  0  0  0
  -21.1014  -29.4395   20.8813 O   0  0  0  0  0  0  0  0  0  0  0  0
  -21.1313  -24.7166   20.4189 O   0  0  0  0  0  0  0  0  0  0  0  0
  -31.5885  -15.4413   20.9169 O   0  0  0  0  0  0  0  0  0  0  0  0
  -21.7986   -6.8617   21.6323 O   0  0  0  0  0  0  0  0  0  0  0  0
  -30.5181  -17.4197   19.6034 O   0  0  0  0  0  0  0  0  0  0  0  0
  -27.7705  -24.3007   21.8680 O   0  0  0  0  0  0  0  0  0  1  0  0
  -24.1046   -3.1705   25.0178 F   0  0  0  0  0  0  0  0  0  0  0  0
  -20.5058   -6.0491   23.9368 F   0  0  0  0  0  0  0  0  0  0  0  0
  1  2  1  0  0  0  0
  1  5  2  0  0  0  0
  2  6  2  0  0  0  0
  3  8  2  0  0  0  0
  3 16  1  0  0  0  0
  4  9  1  0  0  0  0
  4 16  2  0  0  0  0
  5 18  1  0  0  0  0
  6 20  1  0  0  0  0
  7 10  2  0  0  0  0
  7 19  1  0  0  0  0
  8 26  1  0  0  0  0
  9 26  2  0  0  0  0
 10 27  1  0  0  0  0
 11 12  2  0  0  0  0
 11 28  1  0  0  0  0
 12 30  1  0  0  0  0
 13 21  1  0  0  0  0
 13 27  2  0  0  0  0
 14 23  1  0  0  0  0
 14 29  2  0  0  0  0
 15 30  2  0  0  0  0
 15 31  1  0  0  0  0
 16 32  1  0  0  0  0
 17 32  1  0  0  0  0
 17 33  2  0  0  0  0
 17 36  1  0  0  0  0
 18 20  2  0  0  0  0
 18 41  1  0  0  0  0
 19 21  2  0  0  0  0
 19 42  1  0  0  0  0
 20 53  1  0  0  0  0
 21 43  1  0  0  0  0
 22 23  2  0  0  0  0
 22 24  1  0  0  0  0
 22 56  1  0  0  0  0
 23 68  1  0  0  0  0
 24 25  2  0  0  0  0
 24 70  1  0  0  0  0
 25 29  1  0  0  0  0
 25 75  1  0  0  0  0
 26 85  1  0  0  0  0
 27 87  1  0  0  0  0
 28 31  2  0  0  0  0
 28 85  1  0  0  0  0
 29 86  1  0  0  0  0
 30 88  1  0  0  0  0
 31 89  1  0  0  0  0
 32 67  2  0  0  0  0
 33 69  1  0  0  0  0
 33 73  1  0  0  0  0
 34 44  1  0  0  0  0
 34 70  1  0  0  0  0
 34 79  2  0  0  0  0
 35 63  1  0  0  0  0
 35 68  2  0  0  0  0
 36 74  1  0  0  0  0
 36 80  2  0  0  0  0
 37 54  1  0  0  0  0
 37 76  1  0  0  0  0
 37 81  2  0  0  0  0
 38 64  1  0  0  0  0
 38 71  1  0  0  0  0
 38 82  2  0  0  0  0
 39 65  1  0  0  0  0
 39 77  1  0  0  0  0
 39 83  2  0  0  0  0
 40 72  1  0  0  0  0
 40 75  1  0  0  0  0
 40 84  2  0  0  0  0
 41 45  1  0  0  0  0
 42 54  1  0  0  0  0
 43 71  1  0  0  0  0
 44 46  1  0  0  0  0
 45 48  1  0  0  0  0
 46 50  1  0  0  0  0
 47 49  1  0  0  0  0
 47 51  1  0  0  0  0
 48 53  1  0  0  0  0
 49 55  1  0  0  0  0
 50 70  1  0  0  0  0
 51 72  1  0  0  0  0
 52 55  1  0  0  0  0
 52 72  1  0  0  0  0
 53 76  1  0  0  0  0
 54 71  1  0  0  0  0
 55 69  1  0  0  0  0
 57 65  1  0  0  0  0
 58 66  1  0  0  0  0
 59 66  1  0  0  0  0
 60 66  1  0  0  0  0
 61 78  1  0  0  0  0
 62 86  1  0  0  0  0
 63 87  1  0  0  0  0
 64 66  1  0  0  0  0
 64 77  1  0  0  0  0
 65 78  1  0  0  0  0
 67 69  1  0  0  0  0
M  CHG  1  78   1
M  ISO  4  40 100  63 101  75 100  87 101
M  END
> <Batch ID>
0110

> <Smiles>
CNC(C)C(=O)NC(C(=O)N1Cc2cc([101O:1][101CH:1]=CNc3cc(OC)c([100NH:0][100C:0](=O)N4CCCC(n5nc(-c6ccc(Oc7ccc(F)cc7F)cc6)c(C(N)=O)c5N)C4)c(N4CCCC4=O)c3C)ccc2CC1C(=O)NC1CCCc2ccccc21)C(C)(C)C

> <Shape>
0.356

> <Color>
0.200

> <Negative vol penalty>
0.000

$$$$

  -OEChem-04052301263D

 88 97  0     1  0  0  0  0  0999 V2000
  -26.0002  -33.6342   18.5515 C   0  0  0  0  0  0  0  0  0  0  0  0
  -26.5686  -32.5714   19.2464 C   0  0  0  0  0  0  0  0  0  0  0  0
  -22.6798  -10.1331   20.1459 C   0  0  0  0  0  0  0  0  0  0  0  0
  -24.3776   -9.2897   21.6437 C   0  0  0  0  0  0  0  0  0  0  0  0
  -24.7084  -34.0572   18.8620 C   0  0  0  0  0  0  0  0  0  0  0  0
  -25.8460  -31.9317   20.2529 C   0  0  0  0  0  0  0  0  0  0  0  0
  -26.1751  -26.8861   19.9740 C   0  0  0  0  0  0  0  0  0  0  0  0
  -21.9728   -8.9375   20.2741 C   0  0  0  0  0  0  0  0  0  0  0  0
  -23.6705   -8.0942   21.7719 C   0  0  0  0  0  0  0  0  0  0  0  0
  -27.3456  -26.2971   20.4500 C   0  0  0  0  0  0  0  0  0  0  0  0
  -20.9764   -6.9656   23.4715 C   0  0  0  0  0  0  0  0  0  0  0  0
  -20.8257   -6.4379   24.7538 C   0  0  0  0  0  0  0  0  0  0  0  0
  -26.2205  -25.7400   22.5099 C   0  0  0  0  0  0  0  0  0  0  0  0
  -30.1798  -18.9306   23.3952 C   0  0  0  0  0  0  0  0  0  0  0  0
  -30.6025  -19.2083   21.0327 C   0  0  0  0  0  0  0  0  0  0  0  0
  -21.9801   -4.4309   24.0636 C   0  0  0  0  0  0  0  0  0  0  0  0
  -23.8822  -10.3091   20.8306 C   0  0  0  0  0  0  0  0  0  0  0  0
  -24.1654  -12.8366   21.0292 C   0  0  0  0  0  0  0  0  0  0  0  0
  -23.9660  -33.4162   19.8662 C   0  0  0  0  0  0  0  0  0  0  0  0
  -25.0196  -26.9162   20.7680 C   0  0  0  0  0  0  0  0  0  0  0  0
  -24.5436  -32.3475   20.5780 C   0  0  0  0  0  0  0  0  0  0  0  0
  -25.0358  -26.3277   22.0406 C   0  0  0  0  0  0  0  0  0  0  0  0
  -30.0413  -17.5552   23.2088 C   0  0  0  0  0  0  0  0  0  0  0  0
  -30.4604  -19.7571   22.3071 C   0  0  0  0  0  0  0  0  0  0  0  0
  -30.4639  -17.8329   20.8463 C   0  0  0  0  0  0  0  0  0  0  0  0
  -30.1833  -17.0064   21.9343 C   0  0  0  0  0  0  0  0  0  0  0  0
  -22.4681   -7.9181   21.0872 C   0  0  0  0  0  0  0  0  0  0  0  0
  -27.3693  -25.7265   21.7193 C   0  0  0  0  0  0  0  0  0  0  0  0
  -21.6289   -6.2259   22.4851 C   0  0  0  0  0  0  0  0  0  0  0  0
  -21.3276   -5.1706   25.0499 C   0  0  0  0  0  0  0  0  0  0  0  0
  -22.1308   -4.9586   22.7812 C   0  0  0  0  0  0  0  0  0  0  0  0
  -24.6133  -11.5437   20.6981 C   0  0  0  0  0  0  0  0  0  0  0  0
  -25.2233  -13.6561   20.7197 C   0  0  0  0  0  0  0  0  0  0  0  0
  -30.1639  -23.4467   21.8460 C   0  0  0  0  0  0  0  0  0  0  0  0
  -29.8054  -22.1401   21.8814 C   0  0  0  0  0  0  0  0  0  0  0  0
  -31.4855  -23.8340   22.4445 C   0  0  0  0  0  0  0  0  0  0  0  0
  -22.9058  -13.2590   21.5683 C   0  0  0  0  0  0  0  0  0  0  0  0
  -23.2228  -29.2159   22.0277 C   0  0  0  0  0  0  0  0  0  0  0  0
  -21.3274  -26.7276   22.8869 C   0  0  0  0  0  0  0  0  0  0  0  0
  -21.7864  -23.3976   24.1975 C   0  0  0  0  0  0  0  0  0  0  0  0
  -30.6687  -14.8162   20.7881 C   0  0  0  0  0  0  0  0  0  0  0  0
  -22.5911  -33.9395   20.1985 C   0  0  0  0  0  0  0  0  0  0  0  0
  -23.7572  -27.5317   20.2294 C   0  0  0  0  0  0  0  0  0  0  0  0
  -23.8163  -26.3158   22.9244 C   0  0  0  0  0  0  0  0  0  0  0  0
  -32.4063  -22.7398   22.9280 C   0  0  0  0  0  0  0  0  0  0  0  0
  -21.7520  -32.9668   21.0232 C   0  0  0  0  0  0  0  0  0  0  0  0
  -29.4936  -12.7033   18.1744 C   0  0  0  0  0  0  0  0  0  0  0  0
  -22.5725  -32.3997   22.1773 C   0  0  0  0  0  0  0  0  0  0  0  0
  -28.0823  -12.3196   18.6252 C   0  0  0  0  0  0  0  0  0  0  0  0
  -31.6322  -21.5484   23.4643 C   0  0  0  0  0  0  0  0  0  0  0  0
  -30.4597  -12.7977   19.3539 C   0  0  0  0  0  0  0  0  0  0  0  0
  -28.6058  -13.2841   20.9017 C   0  0  0  0  0  0  0  0  0  0  0  0
  -23.7822  -31.6122   21.6595 C   0  0  1  0  0  0  0  0  0  0  0  0
  -22.7869  -27.9610   21.3255 C   0  0  1  0  0  0  0  0  0  0  0  0
  -27.5820  -13.2401   19.7556 C   0  0  2  0  0  0  0  0  0  0  0  0
  -29.7406  -16.6960   24.3941 C   0  0  0  0  0  0  0  0  0  0  0  0
  -28.4526  -21.7127   21.3459 C   0  0  0  0  0  0  0  0  0  0  0  0
  -20.3500  -21.3504   23.9903 C   0  0  0  0  0  0  0  0  0  0  0  0
  -20.1465  -27.6407   25.5481 C   0  0  0  0  0  0  0  0  0  0  0  0
  -20.0444  -25.2388   26.2473 C   0  0  0  0  0  0  0  0  0  0  0  0
  -18.7271  -26.0198   24.2782 C   0  0  0  0  0  0  0  0  0  0  0  0
  -24.0206  -21.8000   23.0952 C   0  0  0  0  0  0  0  0  0  0  0  0
  -29.3882  -24.5722   21.2219 C   0  0  0  0  0  0  0  0  0  1  0  0
  -21.2397  -25.8149   24.0862 C   0  0  1  0  0  0  0  0  0  0  0  0
  -21.5663  -22.0911   23.4566 C   0  0  2  0  0  0  0  0  0  0  0  0
  -20.0641  -26.1903   25.0319 C   0  0  0  0  0  0  0  0  0  0  0  0
  -25.8586  -11.5372   20.2152 N   0  0  0  0  0  0  0  0  0  0  0  0
  -26.2022  -12.8362   20.2405 N   0  0  0  0  0  0  0  0  0  0  0  0
  -30.6012  -21.1562   22.4969 N   0  0  0  0  0  0  0  0  0  0  0  0
  -22.6081  -26.9356   22.3554 N   0  0  0  0  0  0  0  0  0  0  0  0
  -29.9217  -13.6897   20.3833 N   0  0  0  0  0  0  0  0  0  0  0  0
  -30.6122  -17.2998   19.5459 N   0  0  0  0  0  0  0  0  0  0  0  0
  -25.4023  -14.9909   20.8134 N   0  0  0  0  0  0  0  0  0  0  0  0
  -22.7608  -13.3167   22.9611 N   0  0  0  0  0  0  0  0  0  0  0  0
  -30.0419  -15.6087   21.7491 N   0  0  0  0  0  0  0  0  0  0  0  0
  -23.3719  -30.3057   21.1913 N   0  0  0  0  0  0  0  0  0  0  0  0
  -21.1731  -24.4556   23.5605 N   0  0  0  0  0  0  0  0  0  0  0  0
  -22.7566  -21.2062   23.6020 N   0  3  0  0  0  0  0  0  0  0  0  0
  -31.8359  -25.0130   22.4900 O   0  0  0  0  0  0  0  0  0  0  0  0
  -21.9324  -13.5602   20.8367 O   0  0  0  0  0  0  0  0  0  0  0  0
  -23.4087  -29.1971   23.2388 O   0  0  0  0  0  0  0  0  0  0  0  0
  -20.2967  -27.2317   22.4339 O   0  0  0  0  0  0  0  0  0  0  0  0
  -22.4343  -23.4716   25.2393 O   0  0  0  0  0  0  0  0  0  0  0  0
  -31.7706  -15.0747   20.2972 O   0  0  0  0  0  0  0  0  0  0  0  0
  -21.7784   -6.7515   21.2127 O   0  0  0  0  0  0  0  0  0  0  0  0
  -28.5107  -25.1515   22.1866 O   0  0  0  0  0  0  0  0  0  1  0  0
  -21.1842   -4.6646   26.2818 F   0  0  0  0  0  0  0  0  0  0  0  0
  -22.7596   -4.2437   21.8381 F   0  0  0  0  0  0  0  0  0  0  0  0
  1  2  1  0  0  0  0
  1  5  2  0  0  0  0
  2  6  2  0  0  0  0
  3  8  2  0  0  0  0
  3 17  1  0  0  0  0
  4  9  1  0  0  0  0
  4 17  2  0  0  0  0
  5 19  1  0  0  0  0
  6 21  1  0  0  0  0
  7 10  2  0  0  0  0
  7 20  1  0  0  0  0
  8 27  1  0  0  0  0
  9 27  2  0  0  0  0
 10 28  1  0  0  0  0
 11 12  2  0  0  0  0
 11 29  1  0  0  0  0
 12 30  1  0  0  0  0
 13 22  1  0  0  0  0
 13 28  2  0  0  0  0
 14 23  2  0  0  0  0
 14 24  1  0  0  0  0
 15 24  2  0  0  0  0
 15 25  1  0  0  0  0
 16 30  2  0  0  0  0
 16 31  1  0  0  0  0
 17 32  1  0  0  0  0
 18 32  1  0  0  0  0
 18 33  2  0  0  0  0
 18 37  1  0  0  0  0
 19 21  2  0  0  0  0
 19 42  1  0  0  0  0
 20 22  2  0  0  0  0
 20 43  1  0  0  0  0
 21 53  1  0  0  0  0
 22 44  1  0  0  0  0
 23 26  1  0  0  0  0
 23 56  1  0  0  0  0
 24 69  1  0  0  0  0
 25 26  2  0  0  0  0
 25 72  1  0  0  0  0
 26 75  1  0  0  0  0
 27 85  1  0  0  0  0
 28 86  1  0  0  0  0
 29 31  2  0  0  0  0
 29 85  1  0  0  0  0
 30 87  1  0  0  0  0
 31 88  1  0  0  0  0
 32 67  2  0  0  0  0
 33 68  1  0  0  0  0
 33 73  1  0  0  0  0
 34 35  2  0  0  0  0
 34 36  1  0  0  0  0
 34 63  1  0  0  0  0
 35 57  1  0  0  0  0
 35 69  1  0  0  0  0
 36 45  1  0  0  0  0
 36 79  2  0  0  0  0
 37 74  1  0  0  0  0
 37 80  2  0  0  0  0
 38 54  1  0  0  0  0
 38 76  1  0  0  0  0
 38 81  2  0  0  0  0
 39 64  1  0  0  0  0
 39 70  1  0  0  0  0
 39 82  2  0  0  0  0
 40 65  1  0  0  0  0
 40 77  1  0  0  0  0
 40 83  2  0  0  0  0
 41 71  1  0  0  0  0
 41 75  1  0  0  0  0
 41 84  2  0  0  0  0
 42 46  1  0  0  0  0
 43 54  1  0  0  0  0
 44 70  1  0  0  0  0
 45 50  1  0  0  0  0
 46 48  1  0  0  0  0
 47 49  1  0  0  0  0
 47 51  1  0  0  0  0
 48 53  1  0  0  0  0
 49 55  1  0  0  0  0
 50 69  1  0  0  0  0
 51 71  1  0  0  0  0
 52 55  1  0  0  0  0
 52 71  1  0  0  0  0
 53 76  1  0  0  0  0
 54 70  1  0  0  0  0
 55 68  1  0  0  0  0
 58 65  1  0  0  0  0
 59 66  1  0  0  0  0
 60 66  1  0  0  0  0
 61 66  1  0  0  0  0
 62 78  1  0  0  0  0
 63 86  1  0  0  0  0
 64 66  1  0  0  0  0
 64 77  1  0  0  0  0
 65 78  1  0  0  0  0
 67 68  1  0  0  0  0
M  CHG  1  78   1
M  ISO  4  41 100  63 101  75 100  86 101
M  END
> <Batch ID>
0110

> <Smiles>
CNC(C)C(=O)NC(C(=O)N1Cc2cc([101O:1][101CH2:1]C3=C(C)N(c4cc(C)c([100NH:0][100C:0](=O)N5CCCC(n6nc(-c7ccc(Oc8ccc(F)cc8F)cc7)c(C(N)=O)c6N)C5)c(N)c4)CCC3=O)ccc2CC1C(=O)NC1CCCc2ccccc21)C(C)(C)C

> <Shape>
0.304

> <Color>
0.204

> <Negative vol penalty>
0.000

$$$$

  -OEChem-04052301263D

 86 94  0     1  0  0  0  0  0999 V2000
  -28.4893  -36.9886   24.5235 C   0  0  0  0  0  0  0  0  0  0  0  0
  -28.9405  -35.8964   23.7894 C   0  0  0  0  0  0  0  0  0  0  0  0
  -23.4971   -9.6889   20.6039 C   0  0  0  0  0  0  0  0  0  0  0  0
  -23.9080  -10.3734   22.8842 C   0  0  0  0  0  0  0  0  0  0  0  0
  -27.4857  -36.8199   25.4765 C   0  0  0  0  0  0  0  0  0  0  0  0
  -28.3890  -34.6346   24.0086 C   0  0  0  0  0  0  0  0  0  0  0  0
  -27.4389  -30.2561   19.8335 C   0  0  0  0  0  0  0  0  0  0  0  0
  -22.8540   -8.5401   21.0645 C   0  0  0  0  0  0  0  0  0  0  0  0
  -23.2649   -9.2245   23.3449 C   0  0  0  0  0  0  0  0  0  0  0  0
  -28.1659  -29.1186   19.4850 C   0  0  0  0  0  0  0  0  0  0  0  0
  -23.7339   -5.5143   22.2873 C   0  0  0  0  0  0  0  0  0  0  0  0
  -24.0485   -4.3043   21.6689 C   0  0  0  0  0  0  0  0  0  0  0  0
  -28.6492  -20.2590   21.1699 C   0  0  0  0  0  0  0  0  0  0  0  0
  -26.7673  -27.7888   20.9322 C   0  0  0  0  0  0  0  0  0  0  0  0
  -30.5006  -18.4850   20.0706 C   0  0  0  0  0  0  0  0  0  0  0  0
  -21.7374   -4.0359   21.0181 C   0  0  0  0  0  0  0  0  0  0  0  0
  -24.0241  -10.6056   21.5137 C   0  0  0  0  0  0  0  0  0  0  0  0
  -28.6178  -18.9101   21.5237 C   0  0  0  0  0  0  0  0  0  0  0  0
  -24.1041  -13.0440   20.7684 C   0  0  0  0  0  0  0  0  0  0  0  0
  -26.9148  -35.5572   25.7007 C   0  0  0  0  0  0  0  0  0  0  0  0
  -26.3757  -30.1701   20.7438 C   0  0  0  0  0  0  0  0  0  0  0  0
  -27.3777  -34.4486   24.9664 C   0  0  0  0  0  0  0  0  0  0  0  0
  -26.0267  -28.9262   21.2886 C   0  0  0  0  0  0  0  0  0  0  0  0
  -29.6063  -20.7209   20.2663 C   0  0  0  0  0  0  0  0  0  0  0  0
  -29.5434  -18.0232   20.9742 C   0  0  0  0  0  0  0  0  0  0  0  0
  -22.7379   -8.3079   22.4350 C   0  0  0  0  0  0  0  0  0  0  0  0
  -27.8320  -27.8852   20.0366 C   0  0  0  0  0  0  0  0  0  0  0  0
  -22.4209   -5.9852   22.2712 C   0  0  0  0  0  0  0  0  0  0  0  0
  -23.0503   -3.5651   21.0342 C   0  0  0  0  0  0  0  0  0  0  0  0
  -30.5320  -19.8339   19.7167 C   0  0  0  0  0  0  0  0  0  0  0  0
  -21.4227   -5.2460   21.6365 C   0  0  0  0  0  0  0  0  0  0  0  0
  -24.6890  -11.7922   21.0385 C   0  0  0  0  0  0  0  0  0  0  0  0
  -25.1499  -13.8276   20.3456 C   0  0  0  0  0  0  0  0  0  0  0  0
  -27.6140  -18.4547   22.4640 C   0  0  0  0  0  0  0  0  0  0  0  0
  -22.7377  -13.4611   20.8889 C   0  0  0  0  0  0  0  0  0  0  0  0
  -25.7649  -31.4164   23.6034 C   0  0  0  0  0  0  0  0  0  0  0  0
  -29.0386  -24.4064   19.8459 C   0  0  0  0  0  0  0  0  0  0  0  0
  -22.8764  -30.0056   23.1697 C   0  0  0  0  0  0  0  0  0  0  0  0
  -21.0414  -27.5742   21.6308 C   0  0  0  0  0  0  0  0  0  0  0  0
  -30.3858  -15.6520   20.8551 C   0  0  0  0  0  0  0  0  0  0  0  0
  -25.8655  -35.4152   26.7747 C   0  0  0  0  0  0  0  0  0  0  0  0
  -25.5844  -31.4019   21.0888 C   0  0  0  0  0  0  0  0  0  0  0  0
  -24.8811  -28.7769   22.2549 C   0  0  0  0  0  0  0  0  0  0  0  0
  -25.0713  -34.1148   26.6823 C   0  0  0  0  0  0  0  0  0  0  0  0
  -29.8982  -12.5923   19.1007 C   0  0  0  0  0  0  0  0  0  0  0  0
  -26.0092  -32.9303   26.4723 C   0  0  0  0  0  0  0  0  0  0  0  0
  -28.4514  -12.2144   19.4262 C   0  0  0  0  0  0  0  0  0  0  0  0
  -30.5974  -13.2404   20.2944 C   0  0  0  0  0  0  0  0  0  0  0  0
  -28.4417  -14.0056   21.2090 C   0  0  0  0  0  0  0  0  0  0  0  0
  -26.7869  -33.0686   25.1580 C   0  0  1  0  0  0  0  0  0  0  0  0
  -24.8483  -31.2857   22.4200 C   0  0  1  0  0  0  0  0  0  0  0  0
  -27.6762  -13.4085   20.0169 C   0  0  2  0  0  0  0  0  0  0  0  0
  -18.7134  -26.6459   21.5048 C   0  0  0  0  0  0  0  0  0  0  0  0
  -23.2757  -28.6441   25.8709 C   0  0  0  0  0  0  0  0  0  0  0  0
  -21.4421  -27.0522   25.2613 C   0  0  0  0  0  0  0  0  0  0  0  0
  -20.9584  -29.4911   25.4621 C   0  0  0  0  0  0  0  0  0  0  0  0
  -20.8294  -28.1853   18.7428 C   0  0  0  0  0  0  0  0  0  0  0  0
  -28.7209  -23.0476   20.4332 C   0  0  0  0  0  0  0  0  0  0  0  0
  -28.1437  -25.5425   20.3017 C   0  0  0  0  0  0  0  0  0  1  0  0
  -22.2904  -28.6504   23.4845 C   0  0  1  0  0  0  0  0  0  0  0  0
  -19.7096  -27.6254   20.9041 C   0  0  2  0  0  0  0  0  0  0  0  0
  -22.0145  -28.4622   25.0030 C   0  0  0  0  0  0  0  0  0  0  0  0
  -26.0043  -11.7769   20.8066 N   0  0  0  0  0  0  0  0  0  0  0  0
  -26.2545  -13.0286   20.3863 N   0  0  0  0  0  0  0  0  0  0  0  0
  -24.1417  -30.0115   22.5659 N   0  0  0  0  0  0  0  0  0  0  0  0
  -29.8077  -14.3662   20.7980 N   0  0  0  0  0  0  0  0  0  0  0  0
  -25.2232  -15.1152   19.9467 N   0  0  0  0  0  0  0  0  0  0  0  0
  -27.8694  -18.4547   23.7817 N   0  0  0  0  0  0  0  0  0  0  0  0
  -21.7918  -12.5294   21.3382 N   0  0  0  0  0  0  0  0  0  0  0  0
  -29.5293  -16.6492   21.3203 N   0  0  0  0  0  0  0  0  0  0  0  0
  -29.6362  -22.0630   19.9156 N   0  0  0  0  0  0  0  0  0  0  0  0
  -25.9461  -32.7170   24.0338 N   0  0  0  0  0  0  0  0  0  0  0  0
  -21.1086  -28.5106   22.6406 N   0  0  0  0  0  0  0  0  0  0  0  0
  -26.4181  -18.0301   22.0269 N   0  3  0  0  0  0  0  0  0  0  0  0
  -19.8918  -27.2868   19.4643 N   0  3  0  0  0  0  0  0  0  0  0  0
  -22.3636  -14.6207   20.5910 O   0  0  0  0  0  0  0  0  0  0  0  0
  -26.2692  -30.4116   24.0909 O   0  0  0  0  0  0  0  0  0  0  0  0
  -29.9593  -24.5885   19.0503 O   0  0  0  0  0  0  0  0  0  0  0  0
  -22.2319  -31.0213   23.4428 O   0  0  0  0  0  0  0  0  0  0  0  0
  -21.9317  -26.7802   21.3348 O   0  0  0  0  0  0  0  0  0  0  0  0
  -31.5462  -15.8585   20.4905 O   0  0  0  0  0  0  0  0  0  0  0  0
  -22.1103   -7.1870   22.8849 O   0  0  0  0  0  0  0  0  0  0  0  0
  -28.5404  -26.7735   19.6987 O   0  0  0  0  0  0  0  0  0  1  0  0
  -23.3529   -2.4039   20.4391 F   0  0  0  0  0  0  0  0  0  0  0  0
  -31.4562  -20.2669   18.8476 F   0  0  0  0  0  0  0  0  0  0  0  0
  -20.1598   -5.6937   21.6167 F   0  0  0  0  0  0  0  0  0  0  0  0
  1  2  1  0  0  0  0
  1  5  2  0  0  0  0
  2  6  2  0  0  0  0
  3  8  2  0  0  0  0
  3 17  1  0  0  0  0
  4  9  1  0  0  0  0
  4 17  2  0  0  0  0
  5 20  1  0  0  0  0
  6 22  1  0  0  0  0
  7 10  2  0  0  0  0
  7 21  1  0  0  0  0
  8 26  1  0  0  0  0
  9 26  2  0  0  0  0
 10 27  1  0  0  0  0
 11 12  2  0  0  0  0
 11 28  1  0  0  0  0
 12 29  1  0  0  0  0
 13 18  2  0  0  0  0
 13 24  1  0  0  0  0
 14 23  1  0  0  0  0
 14 27  2  0  0  0  0
 15 25  2  0  0  0  0
 15 30  1  0  0  0  0
 16 29  2  0  0  0  0
 16 31  1  0  0  0  0
 17 32  1  0  0  0  0
 18 25  1  0  0  0  0
 18 34  1  0  0  0  0
 19 32  1  0  0  0  0
 19 33  2  0  0  0  0
 19 35  1  0  0  0  0
 20 22  2  0  0  0  0
 20 41  1  0  0  0  0
 21 23  2  0  0  0  0
 21 42  1  0  0  0  0
 22 50  1  0  0  0  0
 23 43  1  0  0  0  0
 24 30  2  0  0  0  0
 24 71  1  0  0  0  0
 25 70  1  0  0  0  0
 26 82  1  0  0  0  0
 27 83  1  0  0  0  0
 28 31  2  0  0  0  0
 28 82  1  0  0  0  0
 29 84  1  0  0  0  0
 30 85  1  0  0  0  0
 31 86  1  0  0  0  0
 32 63  2  0  0  0  0
 33 64  1  0  0  0  0
 33 67  1  0  0  0  0
 34 68  1  0  0  0  0
 34 74  2  0  0  0  0
 35 69  1  0  0  0  0
 35 76  2  0  0  0  0
 36 51  1  0  0  0  0
 36 72  1  0  0  0  0
 36 77  2  0  0  0  0
 37 58  1  0  0  0  0
 37 59  1  0  0  0  0
 37 78  2  0  0  0  0
 38 60  1  0  0  0  0
 38 65  1  0  0  0  0
 38 79  2  0  0  0  0
 39 61  1  0  0  0  0
 39 73  1  0  0  0  0
 39 80  2  0  0  0  0
 40 66  1  0  0  0  0
 40 70  1  0  0  0  0
 40 81  2  0  0  0  0
 41 44  1  0  0  0  0
 42 51  1  0  0  0  0
 43 65  1  0  0  0  0
 44 46  1  0  0  0  0
 45 47  1  0  0  0  0
 45 48  1  0  0  0  0
 46 50  1  0  0  0  0
 47 52  1  0  0  0  0
 48 66  1  0  0  0  0
 49 52  1  0  0  0  0
 49 66  1  0  0  0  0
 50 72  1  0  0  0  0
 51 65  1  0  0  0  0
 52 64  1  0  0  0  0
 53 61  1  0  0  0  0
 54 62  1  0  0  0  0
 55 62  1  0  0  0  0
 56 62  1  0  0  0  0
 57 75  1  0  0  0  0
 58 71  1  0  0  0  0
 59 83  1  0  0  0  0
 60 62  1  0  0  0  0
 60 73  1  0  0  0  0
 61 75  1  0  0  0  0
 63 64  1  0  0  0  0
M  CHG  2  74   1  75   1
M  ISO  4  40 100  59 101  70 100  83 101
M  END
> <Batch ID>
0110

> <Smiles>
CNC(C)C(=O)NC(C(=O)N1Cc2cc([101O:1][101CH2:1]C(=O)CNc3cc(C(=N)N)c([100NH:0][100C:0](=O)N4CCCC(n5nc(-c6ccc(Oc7ccc(F)cc7F)cc6)c(C(N)=O)c5N)C4)cc3F)ccc2CC1C(=O)NC1CCCc2ccccc21)C(C)(C)C

> <Shape>
0.393

> <Color>
0.176

> <Negative vol penalty>
0.000

$$$$

  -OEChem-04052301263D

 82 90  0     1  0  0  0  0  0999 V2000
  -26.3924  -18.8751   24.2895 C   0  0  0  0  0  0  0  0  0  0  0  0
  -26.7376  -20.1904   24.0004 C   0  0  0  0  0  0  0  0  0  0  0  0
  -28.6662  -17.4658   18.7452 C   0  0  0  0  0  0  0  0  0  0  0  0
  -27.2983  -17.9308   20.6817 C   0  0  0  0  0  0  0  0  0  0  0  0
  -25.0850  -18.4401   24.0829 C   0  0  0  0  0  0  0  0  0  0  0  0
  -25.7729  -21.0744   23.5159 C   0  0  0  0  0  0  0  0  0  0  0  0
  -27.0908  -25.7927   23.0641 C   0  0  0  0  0  0  0  0  0  0  0  0
  -28.2774  -16.1271   18.7920 C   0  0  0  0  0  0  0  0  0  0  0  0
  -26.9095  -16.5920   20.7285 C   0  0  0  0  0  0  0  0  0  0  0  0
  -27.9668  -26.2393   22.0758 C   0  0  0  0  0  0  0  0  0  0  0  0
  -29.0691  -13.3647   20.5716 C   0  0  0  0  0  0  0  0  0  0  0  0
  -30.0612  -12.3967   20.4157 C   0  0  0  0  0  0  0  0  0  0  0  0
  -26.1007  -27.1271   20.8313 C   0  0  0  0  0  0  0  0  0  0  0  0
  -28.9214  -11.5430   18.4640 C   0  0  0  0  0  0  0  0  0  0  0  0
  -28.1766  -18.3677   19.6901 C   0  0  0  0  0  0  0  0  0  0  0  0
  -28.3794  -20.6578   18.5846 C   0  0  0  0  0  0  0  0  0  0  0  0
  -24.1073  -19.3165   23.5838 C   0  0  0  0  0  0  0  0  0  0  0  0
  -25.7098  -26.0008   22.9380 C   0  0  0  0  0  0  0  0  0  0  0  0
  -24.4423  -20.6609   23.3233 C   0  0  0  0  0  0  0  0  0  0  0  0
  -25.2095  -26.6845   21.8207 C   0  0  0  0  0  0  0  0  0  0  0  0
  -27.3991  -15.6902   19.7836 C   0  0  0  0  0  0  0  0  0  0  0  0
  -27.4716  -26.9040   20.9578 C   0  0  0  0  0  0  0  0  0  0  0  0
  -28.0031  -13.4218   19.6738 C   0  0  0  0  0  0  0  0  0  0  0  0
  -29.9874  -11.4859   19.3619 C   0  0  0  0  0  0  0  0  0  0  0  0
  -27.9293  -12.5110   18.6199 C   0  0  0  0  0  0  0  0  0  0  0  0
  -28.5783  -19.7506   19.6426 C   0  0  0  0  0  0  0  0  0  0  0  0
  -28.9382  -21.8312   19.0288 C   0  0  0  0  0  0  0  0  0  0  0  0
  -31.0033  -27.5623   18.3122 C   0  0  0  0  0  0  0  0  0  0  0  0
  -31.8006  -26.7126   17.3849 C   0  0  0  0  0  0  0  0  0  0  0  0
  -32.4407  -25.3178   19.4104 C   0  0  0  0  0  0  0  0  0  0  0  0
  -30.0182  -28.3549   17.8730 C   0  0  0  0  0  0  0  0  0  0  0  0
  -27.7462  -20.4577   17.3140 C   0  0  0  0  0  0  0  0  0  0  0  0
  -23.1667  -24.1064   22.7197 C   0  0  0  0  0  0  0  0  0  0  0  0
  -21.5471  -26.9112   22.8996 C   0  0  0  0  0  0  0  0  0  0  0  0
  -21.8757  -30.2340   21.5327 C   0  0  0  0  0  0  0  0  0  0  0  0
  -33.1781  -24.4725   21.4100 C   0  0  0  0  0  0  0  0  0  0  0  0
  -22.7058  -18.7951   23.3865 C   0  0  0  0  0  0  0  0  0  0  0  0
  -24.7805  -25.5365   24.0259 C   0  0  0  0  0  0  0  0  0  0  0  0
  -23.7373  -26.9509   21.6477 C   0  0  0  0  0  0  0  0  0  0  0  0
  -32.4688  -25.4628   17.9171 C   0  0  0  0  0  0  0  0  0  0  0  0
  -31.3723  -26.0447   20.1662 C   0  0  0  0  0  0  0  0  0  0  0  0
  -21.8703  -19.6719   22.4594 C   0  0  0  0  0  0  0  0  0  0  0  0
  -30.5767  -23.1845   23.6100 C   0  0  0  0  0  0  0  0  0  0  0  0
  -21.9734  -21.1279   22.8883 C   0  0  0  0  0  0  0  0  0  0  0  0
  -29.8324  -22.2201   22.6871 C   0  0  0  0  0  0  0  0  0  0  0  0
  -32.0728  -23.2070   23.3095 C   0  0  0  0  0  0  0  0  0  0  0  0
  -31.6495  -22.5528   20.9546 C   0  0  0  0  0  0  0  0  0  0  0  0
  -23.4170  -21.6321   22.7667 C   0  0  1  0  0  0  0  0  0  0  0  0
  -23.3448  -25.3489   23.5456 C   0  0  1  0  0  0  0  0  0  0  0  0
  -30.1331  -22.5271   21.2094 C   0  0  1  0  0  0  0  0  0  0  0  0
  -21.0902  -32.4471   22.4174 C   0  0  0  0  0  0  0  0  0  0  0  0
  -19.0926  -26.4089   21.1581 C   0  0  0  0  0  0  0  0  0  0  0  0
  -19.0763  -28.8493   20.5988 C   0  0  0  0  0  0  0  0  0  0  0  0
  -18.7622  -28.1106   22.9607 C   0  0  0  0  0  0  0  0  0  0  0  0
  -32.4769  -28.3171   20.0722 C   0  0  0  0  0  0  0  0  0  0  0  0
  -24.5990  -31.3849   21.3994 C   0  0  0  0  0  0  0  0  0  0  0  0
  -29.1840  -29.2310   18.7630 C   0  0  0  0  0  0  0  0  0  0  0  0
  -27.9402  -28.5067   19.2643 C   0  0  0  0  0  0  0  0  0  1  0  0
  -21.0483  -27.9238   21.8972 C   0  0  1  0  0  0  0  0  0  0  0  0
  -22.2666  -31.4922   22.2866 C   0  0  2  0  0  0  0  0  0  0  0  0
  -19.5179  -27.8073   21.6486 C   0  0  0  0  0  0  0  0  0  0  0  0
  -29.2139  -20.3005   20.6807 N   0  0  0  0  0  0  0  0  0  0  0  0
  -31.9215  -27.0023   16.1272 N   0  0  0  0  0  0  0  0  0  0  0  0
  -33.2691  -24.5516   20.0329 N   0  0  0  0  0  0  0  0  0  0  0  0
  -29.4194  -21.5658   20.2771 N   0  0  0  0  0  0  0  0  0  0  0  0
  -22.8685  -26.4719   22.7355 N   0  0  0  0  0  0  0  0  0  0  0  0
  -32.3202  -23.4638   21.8863 N   0  0  0  0  0  0  0  0  0  0  0  0
  -29.0601  -23.0538   18.4695 N   0  0  0  0  0  0  0  0  0  0  0  0
  -26.3689  -20.6954   17.2090 N   0  0  0  0  0  0  0  0  0  0  0  0
  -23.5129  -22.9405   23.3756 N   0  0  0  0  0  0  0  0  0  0  0  0
  -21.4762  -29.2293   22.3883 N   0  0  0  0  0  0  0  0  0  0  0  0
  -31.2782  -27.4785   19.7169 N   0  3  1  0  0  0  0  0  0  0  0  0
  -23.3696  -32.1998   21.5768 N   0  3  0  0  0  0  0  0  0  0  0  0
  -28.3797  -20.0634   16.3056 O   0  0  0  0  0  0  0  0  0  0  0  0
  -22.7449  -24.1985   21.5729 O   0  0  0  0  0  0  0  0  0  0  0  0
  -20.7946  -26.5295   23.7994 O   0  0  0  0  0  0  0  0  0  0  0  0
  -21.9168  -30.1520   20.3071 O   0  0  0  0  0  0  0  0  0  0  0  0
  -33.7866  -25.2174   22.1823 O   0  0  0  0  0  0  0  0  0  0  0  0
  -27.0193  -14.3839   19.8294 O   0  0  0  0  0  0  0  0  0  0  0  0
  -28.3245  -27.3404   19.9912 O   0  0  0  0  0  0  0  0  0  1  0  0
  -30.9410  -10.5574   19.2114 F   0  0  0  0  0  0  0  0  0  0  0  0
  -26.9083  -12.5617   17.7535 F   0  0  0  0  0  0  0  0  0  0  0  0
  1  2  1  0  0  0  0
  1  5  2  0  0  0  0
  2  6  2  0  0  0  0
  3  8  2  0  0  0  0
  3 15  1  0  0  0  0
  4  9  1  0  0  0  0
  4 15  2  0  0  0  0
  5 17  1  0  0  0  0
  6 19  1  0  0  0  0
  7 10  2  0  0  0  0
  7 18  1  0  0  0  0
  8 21  1  0  0  0  0
  9 21  2  0  0  0  0
 10 22  1  0  0  0  0
 11 12  2  0  0  0  0
 11 23  1  0  0  0  0
 12 24  1  0  0  0  0
 13 20  1  0  0  0  0
 13 22  2  0  0  0  0
 14 24  2  0  0  0  0
 14 25  1  0  0  0  0
 15 26  1  0  0  0  0
 16 26  1  0  0  0  0
 16 27  2  0  0  0  0
 16 32  1  0  0  0  0
 17 19  2  0  0  0  0
 17 37  1  0  0  0  0
 18 20  2  0  0  0  0
 18 38  1  0  0  0  0
 19 48  1  0  0  0  0
 20 39  1  0  0  0  0
 21 79  1  0  0  0  0
 22 80  1  0  0  0  0
 23 25  2  0  0  0  0
 23 79  1  0  0  0  0
 24 81  1  0  0  0  0
 25 82  1  0  0  0  0
 26 62  2  0  0  0  0
 27 65  1  0  0  0  0
 27 68  1  0  0  0  0
 28 29  1  0  0  0  0
 28 31  2  0  0  0  0
 28 72  1  0  0  0  0
 29 40  1  0  0  0  0
 29 63  2  0  0  0  0
 30 40  1  0  0  0  0
 30 41  1  0  0  0  0
 30 64  2  0  0  0  0
 31 57  1  0  0  0  0
 32 69  1  0  0  0  0
 32 74  2  0  0  0  0
 33 49  1  0  0  0  0
 33 70  1  0  0  0  0
 33 75  2  0  0  0  0
 34 59  1  0  0  0  0
 34 66  1  0  0  0  0
 34 76  2  0  0  0  0
 35 60  1  0  0  0  0
 35 71  1  0  0  0  0
 35 77  2  0  0  0  0
 36 64  1  0  0  0  0
 36 67  1  0  0  0  0
 36 78  2  0  0  0  0
 37 42  1  0  0  0  0
 38 49  1  0  0  0  0
 39 66  1  0  0  0  0
 41 72  1  0  0  0  0
 42 44  1  0  0  0  0
 43 45  1  0  0  0  0
 43 46  1  0  0  0  0
 44 48  1  0  0  0  0
 45 50  1  0  0  0  0
 46 67  1  0  0  0  0
 47 50  1  0  0  0  0
 47 67  1  0  0  0  0
 48 70  1  0  0  0  0
 49 66  1  0  0  0  0
 50 65  1  0  0  0  0
 51 60  1  0  0  0  0
 52 61  1  0  0  0  0
 53 61  1  0  0  0  0
 54 61  1  0  0  0  0
 55 72  1  0  0  0  0
 56 73  1  0  0  0  0
 57 58  1  0  0  0  0
 58 80  1  0  0  0  0
 59 61  1  0  0  0  0
 59 71  1  0  0  0  0
 60 73  1  0  0  0  0
 62 65  1  0  0  0  0
M  CHG  2  72   1  73   1
M  ISO  4  36 100  58 101  64 100  80 101
M  END
> <Batch ID>
0110

> <Smiles>
CNC(C)C(=O)NC(C(=O)N1Cc2cc([101O:1][101CH2:1]CC=C3C(N)=CC([100NH:0][100C:0](=O)N4CCCC(n5nc(-c6ccc(Oc7ccc(F)cc7F)cc6)c(C(N)=O)c5N)C4)=CN3C)ccc2CC1C(=O)NC1CCCc2ccccc21)C(C)(C)C

> <Shape>
0.213

> <Color>
0.073

> <Negative vol penalty>
0.000

$$$$

  -OEChem-04052301263D

 84 92  0     1  0  0  0  0  0999 V2000
  -28.9564  -36.6329   18.9640 C   0  0  0  0  0  0  0  0  0  0  0  0
  -29.0798  -35.2722   18.7017 C   0  0  0  0  0  0  0  0  0  0  0  0
  -23.2458   -9.5195   20.7233 C   0  0  0  0  0  0  0  0  0  0  0  0
  -23.1915  -11.1063   22.5444 C   0  0  0  0  0  0  0  0  0  0  0  0
  -31.0687  -19.5636   20.6431 C   0  0  0  0  0  0  0  0  0  0  0  0
  -28.5237  -37.0636   20.2175 C   0  0  0  0  0  0  0  0  0  0  0  0
  -28.7715  -34.3414   19.6932 C   0  0  0  0  0  0  0  0  0  0  0  0
  -26.2563  -28.8142   18.8998 C   0  0  0  0  0  0  0  0  0  0  0  0
  -30.8089  -18.2109   20.4233 C   0  0  0  0  0  0  0  0  0  0  0  0
  -22.4666   -8.6359   21.4699 C   0  0  0  0  0  0  0  0  0  0  0  0
  -22.4123  -10.2226   23.2911 C   0  0  0  0  0  0  0  0  0  0  0  0
  -26.8054  -27.5343   18.8352 C   0  0  0  0  0  0  0  0  0  0  0  0
  -22.9234   -6.4347   23.9939 C   0  0  0  0  0  0  0  0  0  0  0  0
  -23.3064   -5.0936   24.0157 C   0  0  0  0  0  0  0  0  0  0  0  0
  -28.8141  -20.1068   19.9659 C   0  0  0  0  0  0  0  0  0  0  0  0
  -26.3244  -27.2163   21.1776 C   0  0  0  0  0  0  0  0  0  0  0  0
  -21.1776   -4.4702   23.0582 C   0  0  0  0  0  0  0  0  0  0  0  0
  -23.6083  -10.7547   21.2605 C   0  0  0  0  0  0  0  0  0  0  0  0
  -30.0713  -20.5116   20.4145 C   0  0  0  0  0  0  0  0  0  0  0  0
  -23.9588  -12.6655   19.6072 C   0  0  0  0  0  0  0  0  0  0  0  0
  -28.2008  -36.1374   21.2217 C   0  0  0  0  0  0  0  0  0  0  0  0
  -25.7462  -29.3097   20.1084 C   0  0  0  0  0  0  0  0  0  0  0  0
  -28.3354  -34.7602   20.9617 C   0  0  0  0  0  0  0  0  0  0  0  0
  -25.7671  -28.5018   21.2543 C   0  0  0  0  0  0  0  0  0  0  0  0
  -29.5517  -17.8062   19.9747 C   0  0  0  0  0  0  0  0  0  0  0  0
  -22.0498   -8.9874   22.7538 C   0  0  0  0  0  0  0  0  0  0  0  0
  -26.8421  -26.7362   19.9748 C   0  0  0  0  0  0  0  0  0  0  0  0
  -21.6676   -6.7936   23.5043 C   0  0  0  0  0  0  0  0  0  0  0  0
  -28.5543  -18.7542   19.7460 C   0  0  0  0  0  0  0  0  0  0  0  0
  -22.4335   -4.1114   23.5478 C   0  0  0  0  0  0  0  0  0  0  0  0
  -20.7946   -5.8114   23.0364 C   0  0  0  0  0  0  0  0  0  0  0  0
  -24.4137  -11.6677   20.4899 C   0  0  0  0  0  0  0  0  0  0  0  0
  -25.1060  -13.2521   19.1314 C   0  0  0  0  0  0  0  0  0  0  0  0
  -29.1902  -22.7988   21.0623 C   0  0  0  0  0  0  0  0  0  0  0  0
  -29.1245  -24.0926   20.7203 C   0  0  0  0  0  0  0  0  0  0  0  0
  -30.3487  -21.9560   20.6496 C   0  0  0  0  0  0  0  0  0  0  0  0
  -22.6191  -13.0297   19.2493 C   0  0  0  0  0  0  0  0  0  0  0  0
  -26.4614  -31.7535   22.0110 C   0  0  0  0  0  0  0  0  0  0  0  0
  -23.7946  -30.7984   23.5916 C   0  0  0  0  0  0  0  0  0  0  0  0
  -21.6061  -28.2849   24.3263 C   0  0  0  0  0  0  0  0  0  0  0  0
  -30.1913  -15.3698   19.9426 C   0  0  0  0  0  0  0  0  0  0  0  0
  -27.7825  -36.6517   22.5764 C   0  0  0  0  0  0  0  0  0  0  0  0
  -25.1330  -30.6824   20.1553 C   0  0  0  0  0  0  0  0  0  0  0  0
  -25.2141  -28.9792   22.5714 C   0  0  0  0  0  0  0  0  0  0  0  0
  -27.1172  -35.5924   23.4513 C   0  0  0  0  0  0  0  0  0  0  0  0
  -29.9480  -11.8388   19.5552 C   0  0  0  0  0  0  0  0  0  0  0  0
  -27.9198  -34.2956   23.4228 C   0  0  0  0  0  0  0  0  0  0  0  0
  -28.4491  -11.5616   19.6912 C   0  0  0  0  0  0  0  0  0  0  0  0
  -30.4055  -12.9557   20.4916 C   0  0  0  0  0  0  0  0  0  0  0  0
  -28.1421  -13.9280   20.5236 C   0  0  0  0  0  0  0  0  0  0  0  0
  -27.9867  -33.7193   22.0033 C   0  0  1  0  0  0  0  0  0  0  0  0
  -25.1093  -31.2786   21.5593 C   0  0  1  0  0  0  0  0  0  0  0  0
  -27.6220  -12.8549   19.5533 C   0  0  2  0  0  0  0  0  0  0  0  0
  -19.5481  -27.7969   25.6768 C   0  0  0  0  0  0  0  0  0  0  0  0
  -25.4869  -30.6948   26.1284 C   0  0  0  0  0  0  0  0  0  0  0  0
  -23.6807  -29.3270   27.1939 C   0  0  0  0  0  0  0  0  0  0  0  0
  -23.1988  -31.6553   26.4393 C   0  0  0  0  0  0  0  0  0  0  0  0
  -20.0380  -27.6117   21.9082 C   0  0  0  0  0  0  0  0  0  0  0  0
  -26.3422  -18.0827   20.3044 C   0  0  0  0  0  0  0  0  0  0  0  0
  -27.9872  -24.9835   21.1029 C   0  0  0  0  0  0  0  0  0  1  0  0
  -23.5061  -29.8320   24.7149 C   0  0  1  0  0  0  0  0  0  0  0  0
  -20.0888  -28.2382   24.3256 C   0  0  2  0  0  0  0  0  0  0  0  0
  -23.9804  -30.3687   26.0949 C   0  0  0  0  0  0  0  0  0  0  0  0
  -25.7460  -11.6201   20.5717 N   0  0  0  0  0  0  0  0  0  0  0  0
  -31.5611  -22.3987   20.5428 N   0  0  0  0  0  0  0  0  0  0  0  0
  -26.1382  -12.5953   19.7343 N   0  0  0  0  0  0  0  0  0  0  0  0
  -24.6307  -30.3310   22.5678 N   0  0  0  0  0  0  0  0  0  0  0  0
  -29.5796  -14.1502   20.3019 N   0  0  0  0  0  0  0  0  0  0  0  0
  -25.3225  -14.2604   18.2603 N   0  0  0  0  0  0  0  0  0  0  0  0
  -21.5569  -12.3244   19.8313 N   0  0  0  0  0  0  0  0  0  0  0  0
  -29.3025  -16.4283   19.7579 N   0  0  0  0  0  0  0  0  0  0  0  0
  -26.7426  -33.0616   21.6657 N   0  0  0  0  0  0  0  0  0  0  0  0
  -22.0783  -29.5404   24.6459 N   0  0  0  0  0  0  0  0  0  0  0  0
  -19.6004  -27.2846   23.2897 N   0  3  0  0  0  0  0  0  0  0  0  0
  -22.3715  -13.9424   18.4251 O   0  0  0  0  0  0  0  0  0  0  0  0
  -27.1947  -30.9901   22.6285 O   0  0  0  0  0  0  0  0  0  0  0  0
  -23.2907  -31.9241   23.6179 O   0  0  0  0  0  0  0  0  0  0  0  0
  -22.3028  -27.3048   24.0725 O   0  0  0  0  0  0  0  0  0  0  0  0
  -31.4111  -15.4614   19.7820 O   0  0  0  0  0  0  0  0  0  0  0  0
  -21.2892   -8.1255   23.4826 O   0  0  0  0  0  0  0  0  0  0  0  0
  -27.3187  -18.3800   19.3087 O   0  0  0  0  0  0  0  0  0  0  0  0
  -27.3781  -25.4869   19.9146 O   0  0  0  0  0  0  0  0  0  1  0  0
  -22.8019   -2.8237   23.5673 F   0  0  0  0  0  0  0  0  0  0  0  0
  -19.5873   -6.1501   22.5638 F   0  0  0  0  0  0  0  0  0  0  0  0
  1  2  1  0  0  0  0
  1  6  2  0  0  0  0
  2  7  2  0  0  0  0
  3 10  2  0  0  0  0
  3 18  1  0  0  0  0
  4 11  1  0  0  0  0
  4 18  2  0  0  0  0
  5  9  2  0  0  0  0
  5 19  1  0  0  0  0
  6 21  1  0  0  0  0
  7 23  1  0  0  0  0
  8 12  2  0  0  0  0
  8 22  1  0  0  0  0
  9 25  1  0  0  0  0
 10 26  1  0  0  0  0
 11 26  2  0  0  0  0
 12 27  1  0  0  0  0
 13 14  2  0  0  0  0
 13 28  1  0  0  0  0
 14 30  1  0  0  0  0
 15 19  2  0  0  0  0
 15 29  1  0  0  0  0
 16 24  1  0  0  0  0
 16 27  2  0  0  0  0
 17 30  2  0  0  0  0
 17 31  1  0  0  0  0
 18 32  1  0  0  0  0
 19 36  1  0  0  0  0
 20 32  1  0  0  0  0
 20 33  2  0  0  0  0
 20 37  1  0  0  0  0
 21 23  2  0  0  0  0
 21 42  1  0  0  0  0
 22 24  2  0  0  0  0
 22 43  1  0  0  0  0
 23 51  1  0  0  0  0
 24 44  1  0  0  0  0
 25 29  2  0  0  0  0
 25 71  1  0  0  0  0
 26 80  1  0  0  0  0
 27 82  1  0  0  0  0
 28 31  2  0  0  0  0
 28 80  1  0  0  0  0
 29 81  1  0  0  0  0
 30 83  1  0  0  0  0
 31 84  1  0  0  0  0
 32 64  2  0  0  0  0
 33 66  1  0  0  0  0
 33 69  1  0  0  0  0
 34 35  2  0  0  0  0
 34 36  1  0  0  0  0
 35 60  1  0  0  0  0
 36 65  2  0  0  0  0
 37 70  1  0  0  0  0
 37 75  2  0  0  0  0
 38 52  1  0  0  0  0
 38 72  1  0  0  0  0
 38 76  2  0  0  0  0
 39 61  1  0  0  0  0
 39 67  1  0  0  0  0
 39 77  2  0  0  0  0
 40 62  1  0  0  0  0
 40 73  1  0  0  0  0
 40 78  2  0  0  0  0
 41 68  1  0  0  0  0
 41 71  1  0  0  0  0
 41 79  2  0  0  0  0
 42 45  1  0  0  0  0
 43 52  1  0  0  0  0
 44 67  1  0  0  0  0
 45 47  1  0  0  0  0
 46 48  1  0  0  0  0
 46 49  1  0  0  0  0
 47 51  1  0  0  0  0
 48 53  1  0  0  0  0
 49 68  1  0  0  0  0
 50 53  1  0  0  0  0
 50 68  1  0  0  0  0
 51 72  1  0  0  0  0
 52 67  1  0  0  0  0
 53 66  1  0  0  0  0
 54 62  1  0  0  0  0
 55 63  1  0  0  0  0
 56 63  1  0  0  0  0
 57 63  1  0  0  0  0
 58 74  1  0  0  0  0
 59 81  1  0  0  0  0
 60 82  1  0  0  0  0
 61 63  1  0  0  0  0
 61 73  1  0  0  0  0
 62 74  1  0  0  0  0
 64 66  1  0  0  0  0
M  CHG  1  74   1
M  ISO  4  41 100  60 101  71 100  82 101
M  END
> <Batch ID>
0110

> <Smiles>
CNC(C)C(=O)NC(C(=O)N1Cc2cc([101O:1][101CH2:1]C=CC(=N)c3ccc([100NH:0][100C:0](=O)N4CCCC(n5nc(-c6ccc(Oc7ccc(F)cc7F)cc6)c(C(N)=O)c5N)C4)c(OC)c3)ccc2CC1C(=O)NC1CCCc2ccccc21)C(C)(C)C

> <Shape>
0.311

> <Color>
0.125

> <Negative vol penalty>
0.000

$$$$

  -OEChem-04052301263D

 89 98  0     1  0  0  0  0  0999 V2000
  -16.6908  -30.0984   23.9442 C   0  0  0  0  0  0  0  0  0  0  0  0
  -17.8138  -30.8638   23.6511 C   0  0  0  0  0  0  0  0  0  0  0  0
  -25.8731  -10.0026   18.9987 C   0  0  0  0  0  0  0  0  0  0  0  0
  -27.5915  -11.6529   18.5982 C   0  0  0  0  0  0  0  0  0  0  0  0
  -16.7538  -28.7099   23.8475 C   0  0  0  0  0  0  0  0  0  0  0  0
  -18.9966  -30.2418   23.2499 C   0  0  0  0  0  0  0  0  0  0  0  0
  -26.5834  -29.6560   20.9432 C   0  0  0  0  0  0  0  0  0  0  0  0
  -26.5494   -9.0993   18.1788 C   0  0  0  0  0  0  0  0  0  0  0  0
  -28.2679  -10.7496   17.7783 C   0  0  0  0  0  0  0  0  0  0  0  0
  -27.6526  -28.7661   20.8509 C   0  0  0  0  0  0  0  0  0  0  0  0
  -30.2987   -8.0762   18.1642 C   0  0  0  0  0  0  0  0  0  0  0  0
  -31.6784   -7.9587   18.3320 C   0  0  0  0  0  0  0  0  0  0  0  0
  -27.7361  -22.0231   19.9571 C   0  0  0  0  0  0  0  0  0  0  0  0
  -26.2782  -27.2577   19.5645 C   0  0  0  0  0  0  0  0  0  0  0  0
  -28.8753  -20.6026   21.5451 C   0  0  0  0  0  0  0  0  0  0  0  0
  -32.0152   -8.6382   16.0381 C   0  0  0  0  0  0  0  0  0  0  0  0
  -26.3941  -11.2794   19.2084 C   0  0  0  0  0  0  0  0  0  0  0  0
  -26.8720  -20.9752   19.6396 C   0  0  0  0  0  0  0  0  0  0  0  0
  -25.3784  -12.0529   21.4170 C   0  0  0  0  0  0  0  0  0  0  0  0
  -17.9420  -28.0707   23.4568 C   0  0  0  0  0  0  0  0  0  0  0  0
  -25.3481  -29.3480   20.3552 C   0  0  0  0  0  0  0  0  0  0  0  0
  -19.0731  -28.8430   23.1231 C   0  0  0  0  0  0  0  0  0  0  0  0
  -25.1956  -28.1465   19.6486 C   0  0  0  0  0  0  0  0  0  0  0  0
  -28.0111  -19.5547   21.2276 C   0  0  0  0  0  0  0  0  0  0  0  0
  -28.7378  -21.8368   20.9098 C   0  0  0  0  0  0  0  0  0  0  0  0
  -27.0095  -19.7410   20.2748 C   0  0  0  0  0  0  0  0  0  0  0  0
  -27.7468   -9.4728   17.5686 C   0  0  0  0  0  0  0  0  0  0  0  0
  -27.4993  -27.5654   20.1639 C   0  0  0  0  0  0  0  0  0  0  0  0
  -29.7772   -8.4746   16.9334 C   0  0  0  0  0  0  0  0  0  0  0  0
  -32.5367   -8.2397   17.2689 C   0  0  0  0  0  0  0  0  0  0  0  0
  -30.6354   -8.7556   15.8703 C   0  0  0  0  0  0  0  0  0  0  0  0
  -25.6956  -12.2131   20.0548 C   0  0  0  0  0  0  0  0  0  0  0  0
  -24.7194  -13.2097   21.7545 C   0  0  0  0  0  0  0  0  0  0  0  0
  -31.3582  -25.0872   21.2213 C   0  0  0  0  0  0  0  0  0  0  0  0
  -30.0403  -25.3025   21.3286 C   0  0  0  0  0  0  0  0  0  0  0  0
  -31.9059  -23.7282   21.4078 C   0  0  0  0  0  0  0  0  0  0  0  0
  -24.9182  -22.1553   18.7422 C   0  0  0  0  0  0  0  0  0  0  0  0
  -25.8392  -21.2102   18.6371 C   0  0  0  0  0  0  0  0  0  0  0  0
  -25.6549  -10.9564   22.2985 C   0  0  0  0  0  0  0  0  0  0  0  0
  -22.3955  -28.8990   21.4434 C   0  0  0  0  0  0  0  0  0  0  0  0
  -21.6728  -28.7451   18.2849 C   0  0  0  0  0  0  0  0  0  0  0  0
  -23.1173  -27.2792   15.3214 C   0  0  0  0  0  0  0  0  0  0  0  0
  -24.8118  -18.7567   19.5347 C   0  0  0  0  0  0  0  0  0  0  0  0
  -17.9523  -26.5654   23.3612 C   0  0  0  0  0  0  0  0  0  0  0  0
  -24.2126  -30.3306   20.4410 C   0  0  0  0  0  0  0  0  0  0  0  0
  -23.8962  -27.7778   18.9823 C   0  0  0  0  0  0  0  0  0  0  0  0
  -30.9688  -22.5731   21.6581 C   0  0  0  0  0  0  0  0  0  0  0  0
  -19.3604  -25.9793   23.3608 C   0  0  0  0  0  0  0  0  0  0  0  0
  -21.9670  -16.6404   19.8600 C   0  0  0  0  0  0  0  0  0  0  0  0
  -20.2257  -26.7065   22.3424 C   0  0  0  0  0  0  0  0  0  0  0  0
  -22.5715  -15.2513   20.0769 C   0  0  0  0  0  0  0  0  0  0  0  0
  -22.7905  -17.4699   18.8763 C   0  0  0  0  0  0  0  0  0  0  0  0
  -24.8237  -16.1874   19.4150 C   0  0  0  0  0  0  0  0  0  0  0  0
  -20.3794  -28.1867   22.7142 C   0  0  1  0  0  0  0  0  0  0  0  0
  -29.0399  -24.1986   21.6018 C   0  0  2  0  0  0  0  0  0  0  0  0
  -22.8456  -29.6828   20.2431 C   0  0  1  0  0  0  0  0  0  0  0  0
  -24.0649  -15.3382   20.4479 C   0  0  2  0  0  0  0  0  0  0  0  0
  -28.1838  -18.2445   21.9260 C   0  0  0  0  0  0  0  0  0  0  0  0
  -28.6074  -24.1898   23.0721 C   0  0  0  0  0  0  0  0  0  0  0  0
  -22.9351  -27.9557   12.9117 C   0  0  0  0  0  0  0  0  0  0  0  0
  -19.3801  -26.7338   18.1942 C   0  0  0  0  0  0  0  0  0  0  0  0
  -20.1491  -26.0656   15.9072 C   0  0  0  0  0  0  0  0  0  0  0  0
  -19.3800  -28.4006   16.3298 C   0  0  0  0  0  0  0  0  0  0  0  0
  -26.0575  -27.4365   15.0229 C   0  0  0  0  0  0  0  0  0  0  0  0
  -29.4763  -26.6859   21.1507 C   0  0  0  0  0  0  0  0  0  1  0  0
  -21.6071  -27.6426   17.2558 C   0  0  1  0  0  0  0  0  0  0  0  0
  -23.7817  -28.0178   14.1736 C   0  0  2  0  0  0  0  0  0  0  0  0
  -20.1468  -27.2092   16.9440 C   0  0  0  0  0  0  0  0  0  0  0  0
  -25.2727  -13.3797   19.5607 N   0  0  0  0  0  0  0  0  0  0  0  0
  -24.6829  -13.9630   20.6181 N   0  0  0  0  0  0  0  0  0  0  0  0
  -29.6075  -22.8894   21.2286 N   0  0  2  0  0  0  0  0  0  0  0  0
  -22.8136  -28.7686   19.0997 N   0  0  0  0  0  0  0  0  0  0  0  0
  -24.1935  -17.5114   19.2942 N   0  0  0  0  0  0  0  0  0  0  0  0
  -24.1732  -13.6458   22.9094 N   0  0  0  0  0  0  0  0  0  0  0  0
  -26.8563  -10.9659   23.0202 N   0  0  0  0  0  0  0  0  0  0  0  0
  -26.1375  -18.6699   19.9585 N   0  0  0  0  0  0  0  0  0  0  0  0
  -21.0256  -28.8828   21.6234 N   0  0  0  0  0  0  0  0  0  0  0  0
  -22.3485  -28.1231   16.0948 N   0  0  0  0  0  0  0  0  0  0  0  0
  -25.1141  -27.4205   13.8755 N   0  3  0  0  0  0  0  0  0  0  0  0
  -33.1260  -23.5649   21.3929 O   0  0  0  0  0  0  0  0  0  0  0  0
  -24.8677   -9.9886   22.4295 O   0  0  0  0  0  0  0  0  0  0  0  0
  -23.2293  -28.3485   22.1529 O   0  0  0  0  0  0  0  0  0  0  0  0
  -20.7494  -29.5597   18.3583 O   0  0  0  0  0  0  0  0  0  0  0  0
  -23.2625  -26.0736   15.5107 O   0  0  0  0  0  0  0  0  0  0  0  0
  -24.2014  -19.8206   19.4025 O   0  0  0  0  0  0  0  0  0  0  0  0
  -28.4072   -8.5916   16.7687 O   0  0  0  0  0  0  0  0  0  0  0  0
  -28.5412  -26.6947   20.0728 O   0  0  0  0  0  0  0  0  0  1  0  0
  -33.8617   -8.1283   17.4306 F   0  0  0  0  0  0  0  0  0  0  0  0
  -30.1403   -9.1400   14.6859 F   0  0  0  0  0  0  0  0  0  0  0  0
  1  2  1  0  0  0  0
  1  5  2  0  0  0  0
  2  6  2  0  0  0  0
  3  8  2  0  0  0  0
  3 17  1  0  0  0  0
  4  9  1  0  0  0  0
  4 17  2  0  0  0  0
  5 20  1  0  0  0  0
  6 22  1  0  0  0  0
  7 10  2  0  0  0  0
  7 21  1  0  0  0  0
  8 27  1  0  0  0  0
  9 27  2  0  0  0  0
 10 28  1  0  0  0  0
 11 12  2  0  0  0  0
 11 29  1  0  0  0  0
 12 30  1  0  0  0  0
 13 18  1  0  0  0  0
 13 25  2  0  0  0  0
 14 23  1  0  0  0  0
 14 28  2  0  0  0  0
 15 24  2  0  0  0  0
 15 25  1  0  0  0  0
 16 30  2  0  0  0  0
 16 31  1  0  0  0  0
 17 32  1  0  0  0  0
 18 26  2  0  0  0  0
 18 38  1  0  0  0  0
 19 32  1  0  0  0  0
 19 33  2  0  0  0  0
 19 39  1  0  0  0  0
 20 22  2  0  0  0  0
 20 44  1  0  0  0  0
 21 23  2  0  0  0  0
 21 45  1  0  0  0  0
 22 54  1  0  0  0  0
 23 46  1  0  0  0  0
 24 26  1  0  0  0  0
 24 58  1  0  0  0  0
 25 71  1  0  0  0  0
 26 76  1  0  0  0  0
 27 86  1  0  0  0  0
 28 87  1  0  0  0  0
 29 31  2  0  0  0  0
 29 86  1  0  0  0  0
 30 88  1  0  0  0  0
 31 89  1  0  0  0  0
 32 69  2  0  0  0  0
 33 70  1  0  0  0  0
 33 74  1  0  0  0  0
 34 35  2  0  0  0  0
 34 36  1  0  0  0  0
 35 55  1  0  0  0  0
 35 65  1  0  0  0  0
 36 47  1  0  0  0  0
 36 80  2  0  0  0  0
 37 38  2  0  0  0  0
 39 75  1  0  0  0  0
 39 81  2  0  0  0  0
 40 56  1  0  0  0  0
 40 77  1  0  0  0  0
 40 82  2  0  0  0  0
 41 66  1  0  0  0  0
 41 72  1  0  0  0  0
 41 83  2  0  0  0  0
 42 67  1  0  0  0  0
 42 78  1  0  0  0  0
 42 84  2  0  0  0  0
 43 73  1  0  0  0  0
 43 76  1  0  0  0  0
 43 85  2  0  0  0  0
 44 48  1  0  0  0  0
 45 56  1  0  0  0  0
 46 72  1  0  0  0  0
 47 71  1  0  0  0  0
 48 50  1  0  0  0  0
 49 51  1  0  0  0  0
 49 52  1  0  0  0  0
 50 54  1  0  0  0  0
 51 57  1  0  0  0  0
 52 73  1  0  0  0  0
 53 57  1  0  0  0  0
 53 73  1  0  0  0  0
 54 77  1  0  0  0  0
 55 59  1  0  0  0  0
 55 71  1  0  0  0  0
 56 72  1  0  0  0  0
 57 70  1  0  0  0  0
 60 67  1  0  0  0  0
 61 68  1  0  0  0  0
 62 68  1  0  0  0  0
 63 68  1  0  0  0  0
 64 79  1  0  0  0  0
 65 87  1  0  0  0  0
 66 68  1  0  0  0  0
 66 78  1  0  0  0  0
 67 79  1  0  0  0  0
 69 70  1  0  0  0  0
M  CHG  1  79   1
M  ISO  4  43 100  65 101  76 100  87 101
M  END
> <Batch ID>
0110

> <Smiles>
C=Cc1cc(N2CC(=O)CC([101CH2:1][101O:1]c3ccc4c(c3)CN(C(=O)C(NC(=O)C(C)NC)C(C)(C)C)C(C(=O)NC3CCCc5ccccc53)C4)=C2C)cc(C)c1[100NH:0][100C:0](=O)N1CCCC(n2nc(-c3ccc(Oc4ccc(F)cc4F)cc3)c(C(N)=O)c2N)C1

> <Shape>
0.225

> <Color>
0.098

> <Negative vol penalty>
0.000

$$$$

  -OEChem-04052301263D

 89 98  0     1  0  0  0  0  0999 V2000
  -16.5877  -29.5781   23.5427 C   0  0  0  0  0  0  0  0  0  0  0  0
  -17.6094  -30.3750   24.0493 C   0  0  0  0  0  0  0  0  0  0  0  0
  -28.0242  -17.2777   19.2878 C   0  0  0  0  0  0  0  0  0  0  0  0
  -29.7206  -17.2616   21.0080 C   0  0  0  0  0  0  0  0  0  0  0  0
  -16.8926  -28.3706   22.9160 C   0  0  0  0  0  0  0  0  0  0  0  0
  -18.9366  -29.9641   23.9305 C   0  0  0  0  0  0  0  0  0  0  0  0
  -25.5419  -32.6013   23.0750 C   0  0  0  0  0  0  0  0  0  0  0  0
  -30.8297  -28.8122   24.3232 C   0  0  0  0  0  0  0  0  0  0  0  0
  -30.9227  -27.7840   23.3853 C   0  0  0  0  0  0  0  0  0  0  0  0
  -28.3137  -15.9461   18.9899 C   0  0  0  0  0  0  0  0  0  0  0  0
  -30.0100  -15.9300   20.7102 C   0  0  0  0  0  0  0  0  0  0  0  0
  -26.8111  -32.5340   23.6481 C   0  0  0  0  0  0  0  0  0  0  0  0
  -31.7398  -14.2219   18.3605 C   0  0  0  0  0  0  0  0  0  0  0  0
  -33.0824  -13.8578   18.2581 C   0  0  0  0  0  0  0  0  0  0  0  0
  -28.9126  -27.7305   25.3191 C   0  0  0  0  0  0  0  0  0  0  0  0
  -27.2241  -30.4666   22.4756 C   0  0  0  0  0  0  0  0  0  0  0  0
  -32.7893  -12.2713   20.0565 C   0  0  0  0  0  0  0  0  0  0  0  0
  -28.7277  -17.9355   20.2968 C   0  0  0  0  0  0  0  0  0  0  0  0
  -29.0055  -26.7022   24.3811 C   0  0  0  0  0  0  0  0  0  0  0  0
  -27.4891  -19.7892   21.5367 C   0  0  0  0  0  0  0  0  0  0  0  0
  -18.2249  -27.9493   22.7808 C   0  0  0  0  0  0  0  0  0  0  0  0
  -25.0994  -31.5945   22.2050 C   0  0  0  0  0  0  0  0  0  0  0  0
  -19.2595  -28.7491   23.3026 C   0  0  0  0  0  0  0  0  0  0  0  0
  -25.9498  -30.5248   21.8909 C   0  0  0  0  0  0  0  0  0  0  0  0
  -29.8247  -28.7854   25.2902 C   0  0  0  0  0  0  0  0  0  0  0  0
  -30.0106  -26.7290   23.4142 C   0  0  0  0  0  0  0  0  0  0  0  0
  -29.3065  -15.2723   19.7011 C   0  0  0  0  0  0  0  0  0  0  0  0
  -27.6513  -31.4650   23.3507 C   0  0  0  0  0  0  0  0  0  0  0  0
  -30.9219  -13.6108   19.3110 C   0  0  0  0  0  0  0  0  0  0  0  0
  -33.6071  -12.8825   19.1061 C   0  0  0  0  0  0  0  0  0  0  0  0
  -31.4467  -12.6355   20.1590 C   0  0  0  0  0  0  0  0  0  0  0  0
  -28.4296  -19.3111   20.6046 C   0  0  0  0  0  0  0  0  0  0  0  0
  -27.5877  -21.1566   21.4534 C   0  0  0  0  0  0  0  0  0  0  0  0
  -29.2370  -29.7256   27.5704 C   0  0  0  0  0  0  0  0  0  0  0  0
  -28.0348  -25.6157   24.4432 C   0  0  0  0  0  0  0  0  0  0  0  0
  -26.7013  -25.7619   24.3000 C   0  0  0  0  0  0  0  0  0  0  0  0
  -26.6055  -19.0622   22.4006 C   0  0  0  0  0  0  0  0  0  0  0  0
  -25.7923  -24.5827   24.3697 C   0  0  0  0  0  0  0  0  0  0  0  0
  -22.7204  -29.4867   22.2389 C   0  0  0  0  0  0  0  0  0  0  0  0
  -23.7697  -28.8398   19.2384 C   0  0  0  0  0  0  0  0  0  0  0  0
  -26.3377  -28.8989   16.9915 C   0  0  0  0  0  0  0  0  0  0  0  0
  -30.6279  -25.8115   21.1507 C   0  0  0  0  0  0  0  0  0  0  0  0
  -18.5022  -26.6136   22.1377 C   0  0  0  0  0  0  0  0  0  0  0  0
  -23.7376  -31.6956   21.5743 C   0  0  0  0  0  0  0  0  0  0  0  0
  -25.5301  -29.4288   20.9470 C   0  0  0  0  0  0  0  0  0  0  0  0
  -29.3472  -31.0853   28.2188 C   0  0  0  0  0  0  0  0  0  0  0  0
  -19.9588  -26.4295   21.7198 C   0  0  0  0  0  0  0  0  0  0  0  0
  -30.3559  -31.8108   27.3486 C   0  0  0  0  0  0  0  0  0  0  0  0
  -29.9938  -24.0876   18.1006 C   0  0  0  0  0  0  0  0  0  0  0  0
  -20.8953  -26.8626   22.8433 C   0  0  0  0  0  0  0  0  0  0  0  0
  -29.4529  -22.7306   18.5568 C   0  0  0  0  0  0  0  0  0  0  0  0
  -31.0916  -24.6021   19.0300 C   0  0  0  0  0  0  0  0  0  0  0  0
  -30.1898  -23.2886   20.9090 C   0  0  0  0  0  0  0  0  0  0  0  0
  -20.7132  -28.3495   23.1710 C   0  0  1  0  0  0  0  0  0  0  0  0
  -23.1955  -30.3494   21.1041 C   0  0  1  0  0  0  0  0  0  0  0  0
  -29.0366  -22.7598   20.0405 C   0  0  2  0  0  0  0  0  0  0  0  0
  -30.1345  -31.2138   25.9633 C   0  0  2  0  0  0  0  0  0  0  0  0
  -24.3206  -24.8534   24.1973 C   0  0  0  0  0  0  0  0  0  0  0  0
  -26.9036  -28.2674   14.6297 C   0  0  0  0  0  0  0  0  0  0  0  0
  -23.9473  -25.9086   20.0672 C   0  0  0  0  0  0  0  0  0  0  0  0
  -25.3781  -25.4984   18.0541 C   0  0  0  0  0  0  0  0  0  0  0  0
  -23.0294  -26.2900   17.7723 C   0  0  0  0  0  0  0  0  0  0  0  0
  -26.9392  -31.7036   16.2629 C   0  0  0  0  0  0  0  0  0  0  0  0
  -29.0546  -31.9834   25.1994 C   0  0  0  0  0  0  0  0  0  1  0  0
  -24.7817  -27.8923   18.6408 C   0  0  1  0  0  0  0  0  0  0  0  0
  -26.4043  -29.3703   15.5500 C   0  0  2  0  0  0  0  0  0  0  0  0
  -24.2916  -26.4168   18.6529 C   0  0  0  0  0  0  0  0  0  0  0  0
  -29.0778  -20.2949   19.9753 N   0  0  0  0  0  0  0  0  0  0  0  0
  -28.5437  -21.4048   20.5129 N   0  0  0  0  0  0  0  0  0  0  0  0
  -29.7303  -29.8409   26.2534 N   0  0  0  0  0  0  0  0  0  0  0  0
  -24.1869  -29.5692   20.3607 N   0  0  0  0  0  0  0  0  0  0  0  0
  -30.6241  -24.6058   20.4179 N   0  0  0  0  0  0  0  0  0  0  0  0
  -26.9489  -22.1588   22.0937 N   0  0  0  0  0  0  0  0  0  0  0  0
  -26.6332  -17.6615   22.3591 N   0  0  0  0  0  0  0  0  0  0  0  0
  -30.1308  -25.6989   22.4487 N   0  0  0  0  0  0  0  0  0  0  0  0
  -21.3765  -29.1702   22.1806 N   0  0  0  0  0  0  0  0  0  0  0  0
  -25.0892  -28.4089   17.3115 N   0  0  0  0  0  0  0  0  0  0  0  0
  -27.3242  -30.5364   15.4284 N   0  3  0  0  0  0  0  0  0  0  0  0
  -28.7614  -28.7629   28.1549 O   0  0  0  0  0  0  0  0  0  0  0  0
  -25.8031  -19.6377   23.1742 O   0  0  0  0  0  0  0  0  0  0  0  0
  -26.2122  -23.4398   24.5348 O   0  0  0  0  0  0  0  0  0  0  0  0
  -23.5146  -29.1330   23.1025 O   0  0  0  0  0  0  0  0  0  0  0  0
  -22.6525  -28.9345   18.7239 O   0  0  0  0  0  0  0  0  0  0  0  0
  -27.2983  -28.9560   17.7560 O   0  0  0  0  0  0  0  0  0  0  0  0
  -31.0163  -26.8718   20.6537 O   0  0  0  0  0  0  0  0  0  0  0  0
  -29.5891  -13.9728   19.4109 O   0  0  0  0  0  0  0  0  0  0  0  0
  -28.8904  -31.3965   23.9091 O   0  0  0  0  0  0  0  0  0  1  0  0
  -34.8960  -12.5318   19.0066 F   0  0  0  0  0  0  0  0  0  0  0  0
  -30.6656  -12.0440   21.0732 F   0  0  0  0  0  0  0  0  0  0  0  0
  1  2  1  0  0  0  0
  1  5  2  0  0  0  0
  2  6  2  0  0  0  0
  3 10  2  0  0  0  0
  3 18  1  0  0  0  0
  4 11  1  0  0  0  0
  4 18  2  0  0  0  0
  5 21  1  0  0  0  0
  6 23  1  0  0  0  0
  7 12  2  0  0  0  0
  7 22  1  0  0  0  0
  8  9  2  0  0  0  0
  8 25  1  0  0  0  0
  9 26  1  0  0  0  0
 10 27  1  0  0  0  0
 11 27  2  0  0  0  0
 12 28  1  0  0  0  0
 13 14  2  0  0  0  0
 13 29  1  0  0  0  0
 14 30  1  0  0  0  0
 15 19  1  0  0  0  0
 15 25  2  0  0  0  0
 16 24  1  0  0  0  0
 16 28  2  0  0  0  0
 17 30  2  0  0  0  0
 17 31  1  0  0  0  0
 18 32  1  0  0  0  0
 19 26  2  0  0  0  0
 19 35  1  0  0  0  0
 20 32  1  0  0  0  0
 20 33  2  0  0  0  0
 20 37  1  0  0  0  0
 21 23  2  0  0  0  0
 21 43  1  0  0  0  0
 22 24  2  0  0  0  0
 22 44  1  0  0  0  0
 23 54  1  0  0  0  0
 24 45  1  0  0  0  0
 25 70  1  0  0  0  0
 26 75  1  0  0  0  0
 27 86  1  0  0  0  0
 28 87  1  0  0  0  0
 29 31  2  0  0  0  0
 29 86  1  0  0  0  0
 30 88  1  0  0  0  0
 31 89  1  0  0  0  0
 32 68  2  0  0  0  0
 33 69  1  0  0  0  0
 33 73  1  0  0  0  0
 34 46  1  0  0  0  0
 34 70  1  0  0  0  0
 34 79  2  0  0  0  0
 35 36  2  0  0  0  0
 36 38  1  0  0  0  0
 37 74  1  0  0  0  0
 37 80  2  0  0  0  0
 38 58  1  0  0  0  0
 38 81  2  0  0  0  0
 39 55  1  0  0  0  0
 39 76  1  0  0  0  0
 39 82  2  0  0  0  0
 40 65  1  0  0  0  0
 40 71  1  0  0  0  0
 40 83  2  0  0  0  0
 41 66  1  0  0  0  0
 41 77  1  0  0  0  0
 41 84  2  0  0  0  0
 42 72  1  0  0  0  0
 42 75  1  0  0  0  0
 42 85  2  0  0  0  0
 43 47  1  0  0  0  0
 44 55  1  0  0  0  0
 45 71  1  0  0  0  0
 46 48  1  0  0  0  0
 47 50  1  0  0  0  0
 48 57  1  0  0  0  0
 49 51  1  0  0  0  0
 49 52  1  0  0  0  0
 50 54  1  0  0  0  0
 51 56  1  0  0  0  0
 52 72  1  0  0  0  0
 53 56  1  0  0  0  0
 53 72  1  0  0  0  0
 54 76  1  0  0  0  0
 55 71  1  0  0  0  0
 56 69  1  0  0  0  0
 57 64  1  0  0  0  0
 57 70  1  0  0  0  0
 59 66  1  0  0  0  0
 60 67  1  0  0  0  0
 61 67  1  0  0  0  0
 62 67  1  0  0  0  0
 63 78  1  0  0  0  0
 64 87  1  0  0  0  0
 65 67  1  0  0  0  0
 65 77  1  0  0  0  0
 66 78  1  0  0  0  0
 68 69  1  0  0  0  0
M  CHG  1  78   1
M  ISO  4  42 100  64 101  75 100  87 101
M  END
> <Batch ID>
0110

> <Smiles>
CNC(C)C(=O)NC(C(=O)N1Cc2cc([101O:1][101CH2:1]C3CCC(=O)N3c3ccc([100NH:0][100C:0](=O)N4CCCC(n5nc(-c6ccc(Oc7ccc(F)cc7F)cc6)c(C(N)=O)c5N)C4)c(C=CC(C)=O)c3)ccc2CC1C(=O)NC1CCCc2ccccc21)C(C)(C)C

> <Shape>
0.284

> <Color>
0.103

> <Negative vol penalty>
0.000

$$$$

  -OEChem-04052301263D

 89 98  0     1  0  0  0  0  0999 V2000
  -30.2946  -28.3667   26.1623 C   0  0  0  0  0  0  0  0  0  0  0  0
  -29.6787  -27.8152   25.0434 C   0  0  0  0  0  0  0  0  0  0  0  0
  -24.2081   -9.0364   21.2878 C   0  0  0  0  0  0  0  0  0  0  0  0
  -25.2072  -10.0316   23.2496 C   0  0  0  0  0  0  0  0  0  0  0  0
  -29.5374  -29.0717   27.0969 C   0  0  0  0  0  0  0  0  0  0  0  0
  -28.3049  -27.9675   24.8590 C   0  0  0  0  0  0  0  0  0  0  0  0
  -27.1119  -29.2364   20.1038 C   0  0  0  0  0  0  0  0  0  0  0  0
  -23.9356   -7.8774   22.0145 C   0  0  0  0  0  0  0  0  0  0  0  0
  -24.9347   -8.8727   23.9763 C   0  0  0  0  0  0  0  0  0  0  0  0
  -27.1194  -28.2177   19.1520 C   0  0  0  0  0  0  0  0  0  0  0  0
  -21.6404   -6.8309   24.2661 C   0  0  0  0  0  0  0  0  0  0  0  0
  -20.3753   -6.2604   24.1262 C   0  0  0  0  0  0  0  0  0  0  0  0
  -24.7185  -28.0530   19.3181 C   0  0  0  0  0  0  0  0  0  0  0  0
  -28.3630  -19.2414   18.6820 C   0  0  0  0  0  0  0  0  0  0  0  0
  -25.8667  -20.4054   19.1250 C   0  0  0  0  0  0  0  0  0  0  0  0
  -21.3846   -4.2226   23.3101 C   0  0  0  0  0  0  0  0  0  0  0  0
  -24.8439  -10.1135   21.9053 C   0  0  0  0  0  0  0  0  0  0  0  0
  -24.1966  -12.1500   20.5120 C   0  0  0  0  0  0  0  0  0  0  0  0
  -28.1552  -29.2409   26.9189 C   0  0  0  0  0  0  0  0  0  0  0  0
  -25.9066  -29.6643   20.6789 C   0  0  0  0  0  0  0  0  0  0  0  0
  -27.5283  -28.6742   25.7928 C   0  0  0  0  0  0  0  0  0  0  0  0
  -24.6981  -29.0791   20.2751 C   0  0  0  0  0  0  0  0  0  0  0  0
  -27.9848  -20.3752   17.9631 C   0  0  0  0  0  0  0  0  0  0  0  0
  -26.7366  -20.9573   18.1846 C   0  0  0  0  0  0  0  0  0  0  0  0
  -27.4930  -18.6894   19.6224 C   0  0  0  0  0  0  0  0  0  0  0  0
  -26.2449  -19.2714   19.8439 C   0  0  0  0  0  0  0  0  0  0  0  0
  -24.2989   -7.7955   23.3587 C   0  0  0  0  0  0  0  0  0  0  0  0
  -25.9229  -27.6238   18.7611 C   0  0  0  0  0  0  0  0  0  0  0  0
  -22.7777   -6.0973   23.9280 C   0  0  0  0  0  0  0  0  0  0  0  0
  -20.2474   -4.9563   23.6482 C   0  0  0  0  0  0  0  0  0  0  0  0
  -22.6497   -4.7932   23.4500 C   0  0  0  0  0  0  0  0  0  0  0  0
  -25.1261  -11.3108   21.1550 C   0  0  0  0  0  0  0  0  0  0  0  0
  -24.9619  -13.1406   19.9467 C   0  0  0  0  0  0  0  0  0  0  0  0
  -25.3823  -24.3401   17.3670 C   0  0  0  0  0  0  0  0  0  0  0  0
  -25.9994  -23.3448   18.0488 C   0  0  0  0  0  0  0  0  0  0  0  0
  -25.1506  -24.1434   15.8980 C   0  0  0  0  0  0  0  0  0  0  0  0
  -22.7690  -12.0437   20.4329 C   0  0  0  0  0  0  0  0  0  0  0  0
  -24.7184  -29.7067   23.6268 C   0  0  0  0  0  0  0  0  0  0  0  0
  -22.3052  -31.3488   22.2118 C   0  0  0  0  0  0  0  0  0  0  0  0
  -20.5707  -32.0671   19.3618 C   0  0  0  0  0  0  0  0  0  0  0  0
  -29.1060  -16.8492   20.2210 C   0  0  0  0  0  0  0  0  0  0  0  0
  -27.3706  -29.9705   27.9804 C   0  0  0  0  0  0  0  0  0  0  0  0
  -25.9128  -30.7827   21.6847 C   0  0  0  0  0  0  0  0  0  0  0  0
  -23.3752  -29.5161   20.8473 C   0  0  0  0  0  0  0  0  0  0  0  0
  -25.8569  -22.9955   15.2204 C   0  0  0  0  0  0  0  0  0  0  0  0
  -25.9824  -30.4072   27.5196 C   0  0  0  0  0  0  0  0  0  0  0  0
  -29.9776  -13.5036   19.3701 C   0  0  0  0  0  0  0  0  0  0  0  0
  -25.2739  -29.2631   26.8012 C   0  0  0  0  0  0  0  0  0  0  0  0
  -28.7167  -12.7039   19.7057 C   0  0  0  0  0  0  0  0  0  0  0  0
  -25.8788  -21.7649   16.1064 C   0  0  0  0  0  0  0  0  0  0  0  0
  -30.2172  -14.6317   20.3719 C   0  0  0  0  0  0  0  0  0  0  0  0
  -27.8156  -14.7341   20.9112 C   0  0  0  0  0  0  0  0  0  0  0  0
  -26.0445  -28.8392   25.5450 C   0  0  1  0  0  0  0  0  0  0  0  0
  -24.6791  -30.7860   22.5821 C   0  0  1  0  0  0  0  0  0  0  0  0
  -27.4969  -13.6273   19.8928 C   0  0  2  0  0  0  0  0  0  0  0  0
  -26.4220  -23.5694   19.4882 C   0  0  0  0  0  0  0  0  0  0  0  0
  -30.0606  -21.7390   17.6204 C   0  0  0  0  0  0  0  0  0  0  0  0
  -18.6260  -33.4152   18.5262 C   0  0  0  0  0  0  0  0  0  0  0  0
  -20.3788  -29.3182   23.4266 C   0  0  0  0  0  0  0  0  0  0  0  0
  -18.6303  -30.1235   21.8257 C   0  0  0  0  0  0  0  0  0  0  0  0
  -19.5880  -31.6891   23.5153 C   0  0  0  0  0  0  0  0  0  0  0  0
  -22.2926  -33.6334   17.5340 C   0  0  0  0  0  0  0  0  0  0  0  0
  -28.9362  -20.9457   16.9621 C   0  0  0  0  0  0  0  0  0  0  0  0
  -24.8976  -25.6458   17.9292 C   0  0  0  0  0  0  0  0  0  1  0  0
  -21.0031  -30.9736   21.5462 C   0  0  1  0  0  0  0  0  0  0  0  0
  -20.1289  -33.3877   18.7574 C   0  0  2  0  0  0  0  0  0  0  0  0
  -19.9250  -30.5163   22.5689 C   0  0  0  0  0  0  0  0  0  0  0  0
  -26.3858  -11.7315   21.0120 N   0  0  0  0  0  0  0  0  0  0  0  0
  -26.2531  -12.8458   20.2725 N   0  0  0  0  0  0  0  0  0  0  0  0
  -26.3337  -22.1116   17.4589 N   0  0  0  0  0  0  0  0  0  0  0  0
  -23.4340  -30.6090   21.8320 N   0  0  0  0  0  0  0  0  0  0  0  0
  -29.0208  -15.4676   20.4940 N   0  0  0  0  0  0  0  0  0  0  0  0
  -25.3487  -18.7298   20.7929 N   0  0  0  0  0  0  0  0  0  0  0  0
  -24.6496  -14.2262   19.2076 N   0  0  0  0  0  0  0  0  0  0  0  0
  -21.9968  -12.6639   21.4246 N   0  0  0  0  0  0  0  0  0  0  0  0
  -27.8979  -17.5357   20.3385 N   0  0  0  0  0  0  0  0  0  0  0  0
  -25.8120  -29.7780   24.4685 N   0  0  0  0  0  0  0  0  0  0  0  0
  -20.6112  -32.1238   20.7389 N   0  0  0  0  0  0  0  0  0  0  0  0
  -20.8095  -33.6129   17.4508 N   0  3  0  0  0  0  0  0  0  0  0  0
  -24.4748  -24.9403   15.2489 O   0  0  0  0  0  0  0  0  0  0  0  0
  -22.1956  -11.4035   19.5192 O   0  0  0  0  0  0  0  0  0  0  0  0
  -23.8221  -28.8720   23.6672 O   0  0  0  0  0  0  0  0  0  0  0  0
  -22.3214  -32.2691   23.0329 O   0  0  0  0  0  0  0  0  0  0  0  0
  -20.8484  -31.0825   18.6806 O   0  0  0  0  0  0  0  0  0  0  0  0
  -30.1665  -17.3792   19.8797 O   0  0  0  0  0  0  0  0  0  0  0  0
  -24.0330   -6.6649   24.0682 O   0  0  0  0  0  0  0  0  0  0  0  0
  -25.9275  -26.6288   17.8328 O   0  0  0  0  0  0  0  0  0  1  0  0
  -19.0325   -4.4080   23.5153 F   0  0  0  0  0  0  0  0  0  0  0  0
  -23.7386   -4.0831   23.1247 F   0  0  0  0  0  0  0  0  0  0  0  0
  1  2  1  0  0  0  0
  1  5  2  0  0  0  0
  2  6  2  0  0  0  0
  3  8  2  0  0  0  0
  3 17  1  0  0  0  0
  4  9  1  0  0  0  0
  4 17  2  0  0  0  0
  5 19  1  0  0  0  0
  6 21  1  0  0  0  0
  7 10  2  0  0  0  0
  7 20  1  0  0  0  0
  8 27  1  0  0  0  0
  9 27  2  0  0  0  0
 10 28  1  0  0  0  0
 11 12  2  0  0  0  0
 11 29  1  0  0  0  0
 12 30  1  0  0  0  0
 13 22  1  0  0  0  0
 13 28  2  0  0  0  0
 14 23  1  0  0  0  0
 14 25  2  0  0  0  0
 15 24  1  0  0  0  0
 15 26  2  0  0  0  0
 16 30  2  0  0  0  0
 16 31  1  0  0  0  0
 17 32  1  0  0  0  0
 18 32  1  0  0  0  0
 18 33  2  0  0  0  0
 18 37  1  0  0  0  0
 19 21  2  0  0  0  0
 19 42  1  0  0  0  0
 20 22  2  0  0  0  0
 20 43  1  0  0  0  0
 21 53  1  0  0  0  0
 22 44  1  0  0  0  0
 23 24  2  0  0  0  0
 23 63  1  0  0  0  0
 24 70  1  0  0  0  0
 25 26  1  0  0  0  0
 25 76  1  0  0  0  0
 26 73  1  0  0  0  0
 27 86  1  0  0  0  0
 28 87  1  0  0  0  0
 29 31  2  0  0  0  0
 29 86  1  0  0  0  0
 30 88  1  0  0  0  0
 31 89  1  0  0  0  0
 32 68  2  0  0  0  0
 33 69  1  0  0  0  0
 33 74  1  0  0  0  0
 34 35  2  0  0  0  0
 34 36  1  0  0  0  0
 34 64  1  0  0  0  0
 35 56  1  0  0  0  0
 35 70  1  0  0  0  0
 36 45  1  0  0  0  0
 36 80  2  0  0  0  0
 37 75  1  0  0  0  0
 37 81  2  0  0  0  0
 38 54  1  0  0  0  0
 38 77  1  0  0  0  0
 38 82  2  0  0  0  0
 39 65  1  0  0  0  0
 39 71  1  0  0  0  0
 39 83  2  0  0  0  0
 40 66  1  0  0  0  0
 40 78  1  0  0  0  0
 40 84  2  0  0  0  0
 41 72  1  0  0  0  0
 41 76  1  0  0  0  0
 41 85  2  0  0  0  0
 42 46  1  0  0  0  0
 43 54  1  0  0  0  0
 44 71  1  0  0  0  0
 45 50  1  0  0  0  0
 46 48  1  0  0  0  0
 47 49  1  0  0  0  0
 47 51  1  0  0  0  0
 48 53  1  0  0  0  0
 49 55  1  0  0  0  0
 50 70  1  0  0  0  0
 51 72  1  0  0  0  0
 52 55  1  0  0  0  0
 52 72  1  0  0  0  0
 53 77  1  0  0  0  0
 54 71  1  0  0  0  0
 55 69  1  0  0  0  0
 57 63  1  0  0  0  0
 58 66  1  0  0  0  0
 59 67  1  0  0  0  0
 60 67  1  0  0  0  0
 61 67  1  0  0  0  0
 62 79  1  0  0  0  0
 64 87  1  0  0  0  0
 65 67  1  0  0  0  0
 65 78  1  0  0  0  0
 66 79  1  0  0  0  0
 68 69  1  0  0  0  0
M  CHG  1  79   1
M  ISO  4  41 100  64 101  76 100  87 101
M  END
> <Batch ID>
0110

> <Smiles>
CCc1cc([100NH:0][100C:0](=O)N2CCCC(n3nc(-c4ccc(Oc5ccc(F)cc5F)cc4)c(C(N)=O)c3N)C2)c(N)cc1N1CCC(=O)C([101CH2:1][101O:1]c2ccc3c(c2)CN(C(=O)C(NC(=O)C(C)NC)C(C)(C)C)C(C(=O)NC2CCCc4ccccc42)C3)=C1C

> <Shape>
0.256

> <Color>
0.127

> <Negative vol penalty>
0.000

$$$$

  -OEChem-04052301263D

 90 98  0     1  0  0  0  0  0999 V2000
  -27.5156  -17.4844   15.9146 C   0  0  0  0  0  0  0  0  0  0  0  0
  -28.4066  -17.1965   16.6659 C   0  0  0  0  0  0  0  0  0  0  0  0
  -27.4299  -37.9087   21.3295 C   0  0  0  0  0  0  0  0  0  0  0  0
  -27.9521  -36.6680   20.9782 C   0  0  0  0  0  0  0  0  0  0  0  0
  -23.6059  -10.5950   22.0310 C   0  0  0  0  0  0  0  0  0  0  0  0
  -24.7110   -8.5828   21.2780 C   0  0  0  0  0  0  0  0  0  0  0  0
  -26.4509  -37.9971   22.3183 C   0  0  0  0  0  0  0  0  0  0  0  0
  -27.4963  -35.5150   21.6164 C   0  0  0  0  0  0  0  0  0  0  0  0
  -26.8258  -29.9555   19.1369 C   0  0  0  0  0  0  0  0  0  0  0  0
  -22.4231   -9.8780   22.2114 C   0  0  0  0  0  0  0  0  0  0  0  0
  -23.5282   -7.8657   21.4584 C   0  0  0  0  0  0  0  0  0  0  0  0
  -27.6303  -28.8169   19.1555 C   0  0  0  0  0  0  0  0  0  0  0  0
  -20.8976   -5.4302   22.0634 C   0  0  0  0  0  0  0  0  0  0  0  0
  -20.9804   -4.1898   22.6960 C   0  0  0  0  0  0  0  0  0  0  0  0
  -31.3656  -18.4006   15.3205 C   0  0  0  0  0  0  0  0  0  0  0  0
  -30.4849  -19.9528   16.9489 C   0  0  0  0  0  0  0  0  0  0  0  0
  -26.3471  -27.9477   21.0040 C   0  0  0  0  0  0  0  0  0  0  0  0
  -31.1786  -20.7468   14.7751 C   0  0  0  0  0  0  0  0  0  0  0  0
  -21.8959   -5.2538   24.6625 C   0  0  0  0  0  0  0  0  0  0  0  0
  -24.7498   -9.9475   21.5643 C   0  0  0  0  0  0  0  0  0  0  0  0
  -30.8408  -18.6534   16.5879 C   0  0  0  0  0  0  0  0  0  0  0  0
  -26.9936  -10.8947   22.3231 C   0  0  0  0  0  0  0  0  0  0  0  0
  -25.9760  -36.8436   22.9621 C   0  0  0  0  0  0  0  0  0  0  0  0
  -25.7811  -30.1039   20.0604 C   0  0  0  0  0  0  0  0  0  0  0  0
  -26.5110  -35.5882   22.6157 C   0  0  0  0  0  0  0  0  0  0  0  0
  -25.5292  -29.0879   20.9935 C   0  0  0  0  0  0  0  0  0  0  0  0
  -31.5345  -19.4473   14.4141 C   0  0  0  0  0  0  0  0  0  0  0  0
  -30.6538  -20.9996   16.0425 C   0  0  0  0  0  0  0  0  0  0  0  0
  -22.3843   -8.5133   21.9251 C   0  0  0  0  0  0  0  0  0  0  0  0
  -27.3928  -27.8142   20.0910 C   0  0  0  0  0  0  0  0  0  0  0  0
  -21.3140   -6.5824   22.7303 C   0  0  0  0  0  0  0  0  0  0  0  0
  -21.4795   -4.1016   23.9955 C   0  0  0  0  0  0  0  0  0  0  0  0
  -21.8131   -6.4942   24.0299 C   0  0  0  0  0  0  0  0  0  0  0  0
  -25.9717  -10.6877   21.3772 C   0  0  0  0  0  0  0  0  0  0  0  0
  -27.9265  -11.6541   21.6602 C   0  0  0  0  0  0  0  0  0  0  0  0
  -30.6623  -17.5464   17.5463 C   0  0  0  0  0  0  0  0  0  0  0  0
  -27.0909  -10.4410   23.6797 C   0  0  0  0  0  0  0  0  0  0  0  0
  -25.1100  -32.1777   22.3740 C   0  0  0  0  0  0  0  0  0  0  0  0
  -22.3278  -30.5165   22.5226 C   0  0  0  0  0  0  0  0  0  0  0  0
  -29.7587  -22.7466   17.6203 C   0  0  0  0  0  0  0  0  0  0  0  0
  -20.6596  -27.5997   21.9258 C   0  0  0  0  0  0  0  0  0  0  0  0
  -29.2821  -15.8464   18.4954 C   0  0  0  0  0  0  0  0  0  0  0  0
  -24.9508  -36.9939   24.0580 C   0  0  0  0  0  0  0  0  0  0  0  0
  -24.9055  -31.3259   20.0100 C   0  0  0  0  0  0  0  0  0  0  0  0
  -24.4074  -29.1897   21.9933 C   0  0  0  0  0  0  0  0  0  0  0  0
  -24.2527  -35.6863   24.4226 C   0  0  0  0  0  0  0  0  0  0  0  0
  -28.3557  -12.8378   16.7728 C   0  0  0  0  0  0  0  0  0  0  0  0
  -25.2722  -34.5627   24.5802 C   0  0  0  0  0  0  0  0  0  0  0  0
  -27.7108  -12.0318   17.8985 C   0  0  0  0  0  0  0  0  0  0  0  0
  -28.0288  -14.3286   16.8716 C   0  0  0  0  0  0  0  0  0  0  0  0
  -27.7032  -14.1164   19.3186 C   0  0  0  0  0  0  0  0  0  0  0  0
  -26.0245  -34.3121   23.2677 C   0  0  1  0  0  0  0  0  0  0  0  0
  -24.1934  -31.6056   21.3298 C   0  0  1  0  0  0  0  0  0  0  0  0
  -28.0682  -12.6251   19.2718 C   0  0  1  0  0  0  0  0  0  0  0  0
  -26.4307  -17.8352   14.9993 C   0  0  0  0  0  0  0  0  0  0  0  0
  -31.0108  -18.8531   12.0352 C   0  0  0  0  0  0  0  0  0  0  0  0
  -18.4043  -26.5310   22.1885 C   0  0  0  0  0  0  0  0  0  0  0  0
  -22.8527  -30.1474   25.5056 C   0  0  0  0  0  0  0  0  0  0  0  0
  -21.1340  -28.3270   25.5119 C   0  0  0  0  0  0  0  0  0  0  0  0
  -20.4758  -30.6593   24.9202 C   0  0  0  0  0  0  0  0  0  0  0  0
  -20.3743  -27.2126   19.0056 C   0  0  0  0  0  0  0  0  0  0  0  0
  -32.0958  -19.1773   13.0588 C   0  0  0  0  0  0  0  0  0  0  0  0
  -29.5153  -24.2492   17.5949 C   0  0  0  0  0  0  0  0  0  0  0  0
  -28.9296  -24.7715   18.9022 C   0  0  0  0  0  0  0  0  0  0  0  0
  -28.7397  -26.2810   18.8698 C   0  0  0  0  0  0  0  0  0  1  0  0
  -21.8455  -29.3046   23.2827 C   0  0  1  0  0  0  0  0  0  0  0  0
  -19.3202  -27.3218   21.2674 C   0  0  2  0  0  0  0  0  0  0  0  0
  -21.5994  -29.6082   24.7876 C   0  0  0  0  0  0  0  0  0  0  0  0
  -26.2308  -11.2689   20.2028 N   0  0  0  0  0  0  0  0  0  0  0  0
  -27.4260  -11.8486   20.4064 N   0  0  0  0  0  0  0  0  0  0  0  0
  -23.5831  -30.4066   21.9080 N   0  0  0  0  0  0  0  0  0  0  0  0
  -28.3302  -14.8474   18.2139 N   0  0  0  0  0  0  0  0  0  0  0  0
  -29.1178  -12.1680   22.0332 N   0  0  0  0  0  0  0  0  0  0  0  0
  -26.0436   -9.6707   24.2033 N   0  0  0  0  0  0  0  0  0  0  0  0
  -30.2925  -22.3181   16.4081 N   0  0  0  0  0  0  0  0  0  0  0  0
  -25.2002  -33.5563   22.3491 N   0  0  0  0  0  0  0  0  0  0  0  0
  -20.6684  -28.8182   22.5711 N   0  0  0  0  0  0  0  0  0  0  0  0
  -29.4266  -16.8665   17.5259 N   0  0  0  0  0  0  0  0  0  0  0  0
  -19.5120  -26.5416   20.0123 N   0  3  0  0  0  0  0  0  0  0  0  0
  -31.6163  -17.3073   18.2850 O   0  0  0  0  0  0  0  0  0  0  0  0
  -28.0697  -10.7244   24.4112 O   0  0  0  0  0  0  0  0  0  0  0  0
  -25.6911  -31.4242   23.1462 O   0  0  0  0  0  0  0  0  0  0  0  0
  -21.6137  -31.5210   22.4699 O   0  0  0  0  0  0  0  0  0  0  0  0
  -29.4991  -22.0614   18.6039 O   0  0  0  0  0  0  0  0  0  0  0  0
  -21.6023  -26.8127   21.8761 O   0  0  0  0  0  0  0  0  0  0  0  0
  -29.8927  -15.8834   19.5712 O   0  0  0  0  0  0  0  0  0  0  0  0
  -21.2304   -7.8133   22.1013 O   0  0  0  0  0  0  0  0  0  0  0  0
  -28.1769  -26.7021   20.1117 O   0  0  0  0  0  0  0  0  0  1  0  0
  -21.5575   -2.9106   24.6034 F   0  0  0  0  0  0  0  0  0  0  0  0
  -22.2136   -7.5978   24.6761 F   0  0  0  0  0  0  0  0  0  0  0  0
  1  2  3  0  0  0  0
  1 55  1  0  0  0  0
  2 78  1  0  0  0  0
  3  4  1  0  0  0  0
  3  7  2  0  0  0  0
  4  8  2  0  0  0  0
  5 10  2  0  0  0  0
  5 20  1  0  0  0  0
  6 11  1  0  0  0  0
  6 20  2  0  0  0  0
  7 23  1  0  0  0  0
  8 25  1  0  0  0  0
  9 12  2  0  0  0  0
  9 24  1  0  0  0  0
 10 29  1  0  0  0  0
 11 29  2  0  0  0  0
 12 30  1  0  0  0  0
 13 14  2  0  0  0  0
 13 31  1  0  0  0  0
 14 32  1  0  0  0  0
 15 21  1  0  0  0  0
 15 27  2  0  0  0  0
 16 21  2  0  0  0  0
 16 28  1  0  0  0  0
 17 26  1  0  0  0  0
 17 30  2  0  0  0  0
 18 27  1  0  0  0  0
 18 28  2  0  0  0  0
 19 32  2  0  0  0  0
 19 33  1  0  0  0  0
 20 34  1  0  0  0  0
 21 36  1  0  0  0  0
 22 34  1  0  0  0  0
 22 35  2  0  0  0  0
 22 37  1  0  0  0  0
 23 25  2  0  0  0  0
 23 43  1  0  0  0  0
 24 26  2  0  0  0  0
 24 44  1  0  0  0  0
 25 52  1  0  0  0  0
 26 45  1  0  0  0  0
 27 62  1  0  0  0  0
 28 75  1  0  0  0  0
 29 87  1  0  0  0  0
 30 88  1  0  0  0  0
 31 33  2  0  0  0  0
 31 87  1  0  0  0  0
 32 89  1  0  0  0  0
 33 90  1  0  0  0  0
 34 69  2  0  0  0  0
 35 70  1  0  0  0  0
 35 73  1  0  0  0  0
 36 78  1  0  0  0  0
 36 80  2  0  0  0  0
 37 74  1  0  0  0  0
 37 81  2  0  0  0  0
 38 53  1  0  0  0  0
 38 76  1  0  0  0  0
 38 82  2  0  0  0  0
 39 66  1  0  0  0  0
 39 71  1  0  0  0  0
 39 83  2  0  0  0  0
 40 63  1  0  0  0  0
 40 75  1  0  0  0  0
 40 84  2  0  0  0  0
 41 67  1  0  0  0  0
 41 77  1  0  0  0  0
 41 85  2  0  0  0  0
 42 72  1  0  0  0  0
 42 78  1  0  0  0  0
 42 86  2  0  0  0  0
 43 46  1  0  0  0  0
 44 53  1  0  0  0  0
 45 71  1  0  0  0  0
 46 48  1  0  0  0  0
 47 49  1  0  0  0  0
 47 50  1  0  0  0  0
 48 52  1  0  0  0  0
 49 54  1  0  0  0  0
 50 72  1  0  0  0  0
 51 54  1  0  0  0  0
 51 72  1  0  0  0  0
 52 76  1  0  0  0  0
 53 71  1  0  0  0  0
 54 70  1  0  0  0  0
 56 62  1  0  0  0  0
 57 67  1  0  0  0  0
 58 68  1  0  0  0  0
 59 68  1  0  0  0  0
 60 68  1  0  0  0  0
 61 79  1  0  0  0  0
 63 64  1  0  0  0  0
 64 65  1  0  0  0  0
 65 88  1  0  0  0  0
 66 68  1  0  0  0  0
 66 77  1  0  0  0  0
 67 79  1  0  0  0  0
 69 70  1  0  0  0  0
M  CHG  1  79   1
M  ISO  4  42 100  65 101  78 100  88 101
M  END
> <Batch ID>
0110

> <Smiles>
CC#C[100N:0](C(=O)c1cc(CC)cc(NC(=O)CC[101CH2:1][101O:1]c2ccc3c(c2)CN(C(=O)C(NC(=O)C(C)NC)C(C)(C)C)C(C(=O)NC2CCCc4ccccc42)C3)c1)[100C:0](=O)N1CCCC(n2nc(-c3ccc(Oc4ccc(F)cc4F)cc3)c(C(N)=O)c2N)C1

> <Shape>
0.311

> <Color>
0.107

> <Negative vol penalty>
0.000

$$$$

  -OEChem-04052301263D

 88 97  0     1  0  0  0  0  0999 V2000
  -30.4979  -23.0598   14.6900 C   0  0  0  0  0  0  0  0  0  0  0  0
  -30.4588  -24.4476   14.7636 C   0  0  0  0  0  0  0  0  0  0  0  0
  -26.3469  -14.4702   19.2407 C   0  0  0  0  0  0  0  0  0  0  0  0
  -24.5767  -14.7024   20.8685 C   0  0  0  0  0  0  0  0  0  0  0  0
  -29.5042  -22.3046   15.3093 C   0  0  0  0  0  0  0  0  0  0  0  0
  -29.4329  -25.0803   15.4664 C   0  0  0  0  0  0  0  0  0  0  0  0
  -24.6545  -30.1384   20.0472 C   0  0  0  0  0  0  0  0  0  0  0  0
  -26.4512  -13.1136   19.5476 C   0  0  0  0  0  0  0  0  0  0  0  0
  -24.6810  -13.3457   21.1754 C   0  0  0  0  0  0  0  0  0  0  0  0
  -23.6440  -29.9467   20.9885 C   0  0  0  0  0  0  0  0  0  0  0  0
  -23.6772  -10.4075   19.8414 C   0  0  0  0  0  0  0  0  0  0  0  0
  -22.4941   -9.6774   19.9551 C   0  0  0  0  0  0  0  0  0  0  0  0
  -24.8709  -28.0894   21.9183 C   0  0  0  0  0  0  0  0  0  0  0  0
  -22.1572  -25.6041   23.1285 C   0  0  0  0  0  0  0  0  0  0  0  0
  -23.0482   -9.1360   22.2435 C   0  0  0  0  0  0  0  0  0  0  0  0
  -25.4096  -15.2647   19.9011 C   0  0  0  0  0  0  0  0  0  0  0  0
  -22.2998  -24.5498   20.5496 C   0  0  0  0  0  0  0  0  0  0  0  0
  -24.4792  -17.2561   18.6066 C   0  0  0  0  0  0  0  0  0  0  0  0
  -28.4590  -22.9295   16.0093 C   0  0  0  0  0  0  0  0  0  0  0  0
  -25.7775  -29.2989   20.0276 C   0  0  0  0  0  0  0  0  0  0  0  0
  -28.4340  -24.3348   16.1184 C   0  0  0  0  0  0  0  0  0  0  0  0
  -25.8954  -28.2742   20.9775 C   0  0  0  0  0  0  0  0  0  0  0  0
  -21.2874  -25.4508   20.8798 C   0  0  0  0  0  0  0  0  0  0  0  0
  -21.2162  -25.9780   22.1692 C   0  0  0  0  0  0  0  0  0  0  0  0
  -23.1696  -24.7031   22.7983 C   0  0  0  0  0  0  0  0  0  0  0  0
  -23.2409  -24.1760   21.5089 C   0  0  0  0  0  0  0  0  0  0  0  0
  -25.6183  -12.5513   20.5149 C   0  0  0  0  0  0  0  0  0  0  0  0
  -23.7507  -28.9202   21.9223 C   0  0  0  0  0  0  0  0  0  0  0  0
  -24.5459  -10.5017   20.9287 C   0  0  0  0  0  0  0  0  0  0  0  0
  -22.1796   -9.0417   21.1561 C   0  0  0  0  0  0  0  0  0  0  0  0
  -24.2313   -9.8660   22.1298 C   0  0  0  0  0  0  0  0  0  0  0  0
  -25.3018  -16.6662   19.5849 C   0  0  0  0  0  0  0  0  0  0  0  0
  -24.7422  -18.6008   18.7021 C   0  0  0  0  0  0  0  0  0  0  0  0
  -18.8133  -26.6102   22.4688 C   0  0  0  0  0  0  0  0  0  0  0  0
  -21.7292  -22.9044   18.8226 C   0  0  0  0  0  0  0  0  0  0  0  0
  -22.3678  -23.9997   19.1970 C   0  0  0  0  0  0  0  0  0  0  0  0
  -23.5594  -16.6433   17.6932 C   0  0  0  0  0  0  0  0  0  0  0  0
  -27.0275  -27.2738   17.9204 C   0  0  0  0  0  0  0  0  0  0  0  0
  -29.4273  -27.1007   20.0960 C   0  0  0  0  0  0  0  0  0  0  0  0
  -29.7174  -26.9163   23.6876 C   0  0  0  0  0  0  0  0  0  0  0  0
  -25.5537  -23.2022   21.7306 C   0  0  0  0  0  0  0  0  0  0  0  0
  -27.4140  -22.0635   16.6674 C   0  0  0  0  0  0  0  0  0  0  0  0
  -26.8715  -29.5357   19.0228 C   0  0  0  0  0  0  0  0  0  0  0  0
  -27.0905  -27.3582   21.0116 C   0  0  0  0  0  0  0  0  0  0  0  0
  -18.0835  -27.7146   23.1890 C   0  0  0  0  0  0  0  0  0  0  0  0
  -26.1370  -22.8259   17.0056 C   0  0  0  0  0  0  0  0  0  0  0  0
  -19.0734  -28.8598   23.1912 C   0  0  0  0  0  0  0  0  0  0  0  0
  -28.3654  -21.0774   21.2240 C   0  0  0  0  0  0  0  0  0  0  0  0
  -26.4795  -24.1129   17.7412 C   0  0  0  0  0  0  0  0  0  0  0  0
  -27.7514  -19.7889   20.6720 C   0  0  0  0  0  0  0  0  0  0  0  0
  -27.4727  -21.7230   22.2823 C   0  0  0  0  0  0  0  0  0  0  0  0
  -25.4695  -20.6655   21.3138 C   0  0  0  0  0  0  0  0  0  0  0  0
  -27.3108  -25.0458   16.8515 C   0  0  1  0  0  0  0  0  0  0  0  0
  -27.7269  -28.2985   18.7681 C   0  0  1  0  0  0  0  0  0  0  0  0
  -26.3021  -20.0134   20.1978 C   0  0  2  0  0  0  0  0  0  0  0  0
  -20.4447  -28.1834   23.1795 C   0  0  2  0  0  0  0  0  0  0  0  0
  -20.2711  -25.8619   19.8576 C   0  0  0  0  0  0  0  0  0  0  0  0
  -31.5689  -27.6495   25.2147 C   0  0  0  0  0  0  0  0  0  0  0  0
  -30.3867  -24.2152   19.8440 C   0  0  0  0  0  0  0  0  0  0  0  0
  -31.0176  -24.2868   22.2658 C   0  0  0  0  0  0  0  0  0  0  0  0
  -32.1242  -25.8261   20.6444 C   0  0  0  0  0  0  0  0  0  0  0  0
  -27.8866  -28.6044   25.2868 C   0  0  0  0  0  0  0  0  0  0  0  0
  -21.4401  -29.0940   22.4578 C   0  0  0  0  0  0  0  0  0  1  0  0
  -29.7179  -26.2390   21.3010 C   0  0  1  0  0  0  0  0  0  0  0  0
  -30.2176  -28.0081   24.6162 C   0  0  2  0  0  0  0  0  0  0  0  0
  -30.7849  -25.1474   21.0056 C   0  0  0  0  0  0  0  0  0  0  0  0
  -26.0328  -17.5627   20.2527 N   0  0  0  0  0  0  0  0  0  0  0  0
  -25.6705  -18.7296   19.6930 N   0  0  0  0  0  0  0  0  0  0  0  0
  -20.1906  -26.9021   22.5293 N   0  0  0  0  0  0  0  0  0  0  0  0
  -28.1306  -27.6261   20.0047 N   0  0  0  0  0  0  0  0  0  0  0  0
  -26.1168  -21.9088   21.7609 N   0  0  0  0  0  0  0  0  0  0  0  0
  -24.1116  -24.3407   23.7879 N   0  0  0  0  0  0  0  0  0  0  0  0
  -24.2678  -19.6738   18.0342 N   0  0  0  0  0  0  0  0  0  0  0  0
  -23.4106  -15.2502   17.7289 N   0  0  0  0  0  0  0  0  0  0  0  0
  -24.2722  -23.2604   21.1836 N   0  0  0  0  0  0  0  0  0  0  0  0
  -27.7900  -26.1541   17.6475 N   0  0  0  0  0  0  0  0  0  0  0  0
  -30.0806  -27.1531   22.3787 N   0  0  0  0  0  0  0  0  0  0  0  0
  -29.2519  -28.2227   25.7308 N   0  3  0  0  0  0  0  0  0  0  0  0
  -18.2427  -25.6212   22.0299 O   0  0  0  0  0  0  0  0  0  0  0  0
  -22.9016  -17.3098   16.8585 O   0  0  0  0  0  0  0  0  0  0  0  0
  -25.8805  -27.4827   17.5432 O   0  0  0  0  0  0  0  0  0  0  0  0
  -30.3202  -27.3062   19.2701 O   0  0  0  0  0  0  0  0  0  0  0  0
  -29.0725  -25.9482   24.0843 O   0  0  0  0  0  0  0  0  0  0  0  0
  -26.1739  -24.1897   22.1332 O   0  0  0  0  0  0  0  0  0  0  0  0
  -25.7197  -11.2275   20.8145 O   0  0  0  0  0  0  0  0  0  0  0  0
  -22.7655  -28.7304   22.8417 O   0  0  0  0  0  0  0  0  0  1  0  0
  -21.0427   -8.3420   21.2657 F   0  0  0  0  0  0  0  0  0  0  0  0
  -25.0613   -9.9539   23.1782 F   0  0  0  0  0  0  0  0  0  0  0  0
  1  2  1  0  0  0  0
  1  5  2  0  0  0  0
  2  6  2  0  0  0  0
  3  8  2  0  0  0  0
  3 16  1  0  0  0  0
  4  9  1  0  0  0  0
  4 16  2  0  0  0  0
  5 19  1  0  0  0  0
  6 21  1  0  0  0  0
  7 10  2  0  0  0  0
  7 20  1  0  0  0  0
  8 27  1  0  0  0  0
  9 27  2  0  0  0  0
 10 28  1  0  0  0  0
 11 12  2  0  0  0  0
 11 29  1  0  0  0  0
 12 30  1  0  0  0  0
 13 22  1  0  0  0  0
 13 28  2  0  0  0  0
 14 24  1  0  0  0  0
 14 25  2  0  0  0  0
 15 30  2  0  0  0  0
 15 31  1  0  0  0  0
 16 32  1  0  0  0  0
 17 23  1  0  0  0  0
 17 26  2  0  0  0  0
 17 36  1  0  0  0  0
 18 32  1  0  0  0  0
 18 33  2  0  0  0  0
 18 37  1  0  0  0  0
 19 21  2  0  0  0  0
 19 42  1  0  0  0  0
 20 22  2  0  0  0  0
 20 43  1  0  0  0  0
 21 53  1  0  0  0  0
 22 44  1  0  0  0  0
 23 24  2  0  0  0  0
 23 57  1  0  0  0  0
 24 69  1  0  0  0  0
 25 26  1  0  0  0  0
 25 72  1  0  0  0  0
 26 75  1  0  0  0  0
 27 85  1  0  0  0  0
 28 86  1  0  0  0  0
 29 31  2  0  0  0  0
 29 85  1  0  0  0  0
 30 87  1  0  0  0  0
 31 88  1  0  0  0  0
 32 67  2  0  0  0  0
 33 68  1  0  0  0  0
 33 73  1  0  0  0  0
 34 45  1  0  0  0  0
 34 69  1  0  0  0  0
 34 79  2  0  0  0  0
 35 36  2  0  0  0  0
 37 74  1  0  0  0  0
 37 80  2  0  0  0  0
 38 54  1  0  0  0  0
 38 76  1  0  0  0  0
 38 81  2  0  0  0  0
 39 64  1  0  0  0  0
 39 70  1  0  0  0  0
 39 82  2  0  0  0  0
 40 65  1  0  0  0  0
 40 77  1  0  0  0  0
 40 83  2  0  0  0  0
 41 71  1  0  0  0  0
 41 75  1  0  0  0  0
 41 84  2  0  0  0  0
 42 46  1  0  0  0  0
 43 54  1  0  0  0  0
 44 70  1  0  0  0  0
 45 47  1  0  0  0  0
 46 49  1  0  0  0  0
 47 56  1  0  0  0  0
 48 50  1  0  0  0  0
 48 51  1  0  0  0  0
 49 53  1  0  0  0  0
 50 55  1  0  0  0  0
 51 71  1  0  0  0  0
 52 55  1  0  0  0  0
 52 71  1  0  0  0  0
 53 76  1  0  0  0  0
 54 70  1  0  0  0  0
 55 68  1  0  0  0  0
 56 63  1  0  0  0  0
 56 69  1  0  0  0  0
 58 65  1  0  0  0  0
 59 66  1  0  0  0  0
 60 66  1  0  0  0  0
 61 66  1  0  0  0  0
 62 78  1  0  0  0  0
 63 86  1  0  0  0  0
 64 66  1  0  0  0  0
 64 77  1  0  0  0  0
 65 78  1  0  0  0  0
 67 68  1  0  0  0  0
M  CHG  1  78   1
M  ISO  4  41 100  63 101  75 100  86 101
M  END
> <Batch ID>
0110

> <Smiles>
C=Cc1c(C)c(N2C(=O)CCC2[101CH2:1][101O:1]c2ccc3c(c2)CN(C(=O)C(NC(=O)C(C)NC)C(C)(C)C)C(C(=O)NC2CCCc4ccccc42)C3)cc(N)c1[100NH:0][100C:0](=O)N1CCCC(n2nc(-c3ccc(Oc4ccc(F)cc4F)cc3)c(C(N)=O)c2N)C1

> <Shape>
0.226

> <Color>
0.071

> <Negative vol penalty>
0.000

$$$$

  -OEChem-04052301263D

 85 93  0     1  0  0  0  0  0999 V2000
  -28.9255  -11.4719   19.7825 C   0  0  0  0  0  0  0  0  0  0  0  0
  -29.0175  -12.8218   19.4589 C   0  0  0  0  0  0  0  0  0  0  0  0
  -20.7017  -24.9544   21.9122 C   0  0  0  0  0  0  0  0  0  0  0  0
  -19.4622  -26.0029   20.1230 C   0  0  0  0  0  0  0  0  0  0  0  0
  -27.7005  -10.9313   20.1711 C   0  0  0  0  0  0  0  0  0  0  0  0
  -27.8841  -13.6317   19.5227 C   0  0  0  0  0  0  0  0  0  0  0  0
  -28.7965  -18.0762   21.7720 C   0  0  0  0  0  0  0  0  0  0  0  0
  -19.5144  -24.4410   22.4340 C   0  0  0  0  0  0  0  0  0  0  0  0
  -18.2748  -25.4895   20.6448 C   0  0  0  0  0  0  0  0  0  0  0  0
  -29.4426  -19.0523   21.0146 C   0  0  0  0  0  0  0  0  0  0  0  0
  -16.7680  -23.1531   24.4396 C   0  0  0  0  0  0  0  0  0  0  0  0
  -16.5667  -23.2518   25.8163 C   0  0  0  0  0  0  0  0  0  0  0  0
  -27.3212  -20.1208   20.5933 C   0  0  0  0  0  0  0  0  0  0  0  0
  -16.7155  -25.6585   25.6655 C   0  0  0  0  0  0  0  0  0  0  0  0
  -20.6756  -25.7354   20.7568 C   0  0  0  0  0  0  0  0  0  0  0  0
  -30.0693  -27.5661   20.0240 C   0  0  0  0  0  0  0  0  0  0  0  0
  -22.7493  -25.6571   19.2731 C   0  0  0  0  0  0  0  0  0  0  0  0
  -26.5537  -11.7371   20.2490 C   0  0  0  0  0  0  0  0  0  0  0  0
  -27.4043  -18.1089   21.9369 C   0  0  0  0  0  0  0  0  0  0  0  0
  -26.6424  -13.1011   19.9114 C   0  0  0  0  0  0  0  0  0  0  0  0
  -26.6602  -19.1454   21.3553 C   0  0  0  0  0  0  0  0  0  0  0  0
  -29.5710  -26.3369   20.5443 C   0  0  0  0  0  0  0  0  0  0  0  0
  -18.3009  -24.7085   21.8003 C   0  0  0  0  0  0  0  0  0  0  0  0
  -28.7046  -20.0732   20.4228 C   0  0  0  0  0  0  0  0  0  0  0  0
  -16.9432  -24.3072   23.6758 C   0  0  0  0  0  0  0  0  0  0  0  0
  -16.5404  -24.5045   26.4293 C   0  0  0  0  0  0  0  0  0  0  0  0
  -16.9169  -25.5598   24.2888 C   0  0  0  0  0  0  0  0  0  0  0  0
  -21.9017  -26.2664   20.2176 C   0  0  0  0  0  0  0  0  0  0  0  0
  -30.2575  -25.2496   20.0502 C   0  0  0  0  0  0  0  0  0  0  0  0
  -23.7691  -26.5596   19.0943 C   0  0  0  0  0  0  0  0  0  0  0  0
  -31.1180  -27.3715   19.1520 C   0  0  0  0  0  0  0  0  0  0  0  0
  -29.5470  -28.9159   20.3588 C   0  0  0  0  0  0  0  0  0  0  0  0
  -22.6257  -24.3888   18.6160 C   0  0  0  0  0  0  0  0  0  0  0  0
  -30.0636  -23.7966   20.3329 C   0  0  0  0  0  0  0  0  0  0  0  0
  -25.0079  -16.1685   21.1653 C   0  0  0  0  0  0  0  0  0  0  0  0
  -23.2501  -18.2990   22.8663 C   0  0  0  0  0  0  0  0  0  0  0  0
  -22.9233  -21.4722   24.0791 C   0  0  0  0  0  0  0  0  0  0  0  0
  -27.5135  -30.1368   21.0645 C   0  0  0  0  0  0  0  0  0  0  0  0
  -25.2416  -11.0975   20.6287 C   0  0  0  0  0  0  0  0  0  0  0  0
  -26.7256  -17.0636   22.7790 C   0  0  0  0  0  0  0  0  0  0  0  0
  -25.1658  -19.2371   21.5189 C   0  0  0  0  0  0  0  0  0  0  0  0
  -24.1674  -12.1043   21.0320 C   0  0  0  0  0  0  0  0  0  0  0  0
  -24.2271  -31.3644   20.6297 C   0  0  0  0  0  0  0  0  0  0  0  0
  -24.1110  -13.2544   20.0315 C   0  0  0  0  0  0  0  0  0  0  0  0
  -23.3967  -30.0991   20.3976 C   0  0  0  0  0  0  0  0  0  0  0  0
  -25.3273  -31.1390   21.6659 C   0  0  0  0  0  0  0  0  0  0  0  0
  -25.3695  -28.7269   21.1780 C   0  0  0  0  0  0  0  0  0  0  0  0
  -25.4406  -14.0173   19.9924 C   0  0  1  0  0  0  0  0  0  0  0  0
  -25.2436  -16.9043   22.4540 C   0  0  1  0  0  0  0  0  0  0  0  0
  -24.2931  -28.8825   20.0916 C   0  0  1  0  0  0  0  0  0  0  0  0
  -21.3613  -22.9247   25.4012 C   0  0  0  0  0  0  0  0  0  0  0  0
  -21.4224  -18.5423   20.4351 C   0  0  0  0  0  0  0  0  0  0  0  0
  -20.4900  -20.6406   21.4331 C   0  0  0  0  0  0  0  0  0  0  0  0
  -20.2310  -18.4689   22.6328 C   0  0  0  0  0  0  0  0  0  0  0  0
  -32.9252  -28.0530   17.5724 C   0  0  0  0  0  0  0  0  0  0  0  0
  -24.9482  -21.9295   26.1885 C   0  0  0  0  0  0  0  0  0  0  0  0
  -30.9743  -22.7899   19.6420 C   0  0  0  0  0  0  0  0  0  0  0  0
  -30.6742  -21.3514   20.0447 C   0  0  0  0  0  0  0  0  0  1  0  0
  -22.5045  -19.5709   22.5415 C   0  0  1  0  0  0  0  0  0  0  0  0
  -22.5602  -21.9908   25.4588 C   0  0  2  0  0  0  0  0  0  0  0  0
  -21.1899  -19.3031   21.7558 C   0  0  0  0  0  0  0  0  0  0  0  0
  -22.3447  -27.4634   20.6114 N   0  0  0  0  0  0  0  0  0  0  0  0
  -23.4818  -27.6134   19.9110 N   0  0  0  0  0  0  0  0  0  0  0  0
  -24.5474  -18.1880   22.3462 N   0  0  0  0  0  0  0  0  0  0  0  0
  -26.1367  -29.9758   21.2985 N   0  0  0  0  0  0  0  0  0  0  0  0
  -28.5426  -26.2437   21.4228 N   0  0  0  0  0  0  0  0  0  0  0  0
  -24.8747  -26.5465   18.3197 N   0  0  0  0  0  0  0  0  0  0  0  0
  -21.5163  -23.5864   18.9155 N   0  0  0  0  0  0  0  0  0  0  0  0
  -31.8191  -28.3243   18.4847 N   0  0  0  0  0  0  0  0  0  0  0  0
  -28.1901  -28.9746   20.6777 N   0  0  0  0  0  0  0  0  0  0  0  0
  -25.5515  -14.8985   21.1350 N   0  0  0  0  0  0  0  0  0  0  0  0
  -22.3117  -20.2662   23.8095 N   0  0  0  0  0  0  0  0  0  0  0  0
  -23.7076  -22.7350   26.0510 N   0  3  0  0  0  0  0  0  0  0  0  0
  -30.3207  -29.8694   20.3754 O   0  0  0  0  0  0  0  0  0  0  0  0
  -23.4826  -23.9719   17.8002 O   0  0  0  0  0  0  0  0  0  0  0  0
  -29.1784  -23.4510   21.1122 O   0  0  0  0  0  0  0  0  0  0  0  0
  -24.3780  -16.7122   20.2656 O   0  0  0  0  0  0  0  0  0  0  0  0
  -22.7042  -17.4389   23.5619 O   0  0  0  0  0  0  0  0  0  0  0  0
  -23.6715  -22.0784   23.3153 O   0  0  0  0  0  0  0  0  0  0  0  0
  -28.0843  -31.2283   21.1547 O   0  0  0  0  0  0  0  0  0  0  0  0
  -17.1421  -24.2076   22.3090 O   0  0  0  0  0  0  0  0  0  0  0  0
  -29.3326  -21.0269   19.6825 O   0  0  0  0  0  0  0  0  0  1  0  0
  -16.3455  -24.5992   27.7511 F   0  0  0  0  0  0  0  0  0  0  0  0
  -17.0834  -26.6721   23.5601 F   0  0  0  0  0  0  0  0  0  0  0  0
  -31.4974  -25.7124   18.9635 S   0  0  0  0  0  0  0  0  0  0  0  0
  1  2  1  0  0  0  0
  1  5  2  0  0  0  0
  2  6  2  0  0  0  0
  3  8  2  0  0  0  0
  3 15  1  0  0  0  0
  4  9  1  0  0  0  0
  4 15  2  0  0  0  0
  5 18  1  0  0  0  0
  6 20  1  0  0  0  0
  7 10  2  0  0  0  0
  7 19  1  0  0  0  0
  8 23  1  0  0  0  0
  9 23  2  0  0  0  0
 10 24  1  0  0  0  0
 11 12  2  0  0  0  0
 11 25  1  0  0  0  0
 12 26  1  0  0  0  0
 13 21  1  0  0  0  0
 13 24  2  0  0  0  0
 14 26  2  0  0  0  0
 14 27  1  0  0  0  0
 15 28  1  0  0  0  0
 16 22  1  0  0  0  0
 16 31  2  0  0  0  0
 16 32  1  0  0  0  0
 17 28  1  0  0  0  0
 17 30  2  0  0  0  0
 17 33  1  0  0  0  0
 18 20  2  0  0  0  0
 18 39  1  0  0  0  0
 19 21  2  0  0  0  0
 19 40  1  0  0  0  0
 20 48  1  0  0  0  0
 21 41  1  0  0  0  0
 22 29  2  0  0  0  0
 22 66  1  0  0  0  0
 23 81  1  0  0  0  0
 24 82  1  0  0  0  0
 25 27  2  0  0  0  0
 25 81  1  0  0  0  0
 26 83  1  0  0  0  0
 27 84  1  0  0  0  0
 28 62  2  0  0  0  0
 29 34  1  0  0  0  0
 29 85  1  0  0  0  0
 30 63  1  0  0  0  0
 30 67  1  0  0  0  0
 31 69  1  0  0  0  0
 31 85  1  0  0  0  0
 32 70  1  0  0  0  0
 32 74  2  0  0  0  0
 33 68  1  0  0  0  0
 33 75  2  0  0  0  0
 34 57  1  0  0  0  0
 34 76  2  0  0  0  0
 35 49  1  0  0  0  0
 35 71  1  0  0  0  0
 35 77  2  0  0  0  0
 36 59  1  0  0  0  0
 36 64  1  0  0  0  0
 36 78  2  0  0  0  0
 37 60  1  0  0  0  0
 37 72  1  0  0  0  0
 37 79  2  0  0  0  0
 38 65  1  0  0  0  0
 38 70  1  0  0  0  0
 38 80  2  0  0  0  0
 39 42  1  0  0  0  0
 40 49  1  0  0  0  0
 41 64  1  0  0  0  0
 42 44  1  0  0  0  0
 43 45  1  0  0  0  0
 43 46  1  0  0  0  0
 44 48  1  0  0  0  0
 45 50  1  0  0  0  0
 46 65  1  0  0  0  0
 47 50  1  0  0  0  0
 47 65  1  0  0  0  0
 48 71  1  0  0  0  0
 49 64  1  0  0  0  0
 50 63  1  0  0  0  0
 51 60  1  0  0  0  0
 52 61  1  0  0  0  0
 53 61  1  0  0  0  0
 54 61  1  0  0  0  0
 55 69  1  0  0  0  0
 56 73  1  0  0  0  0
 57 58  1  0  0  0  0
 58 82  1  0  0  0  0
 59 61  1  0  0  0  0
 59 72  1  0  0  0  0
 60 73  1  0  0  0  0
 62 63  1  0  0  0  0
M  CHG  1  73   1
M  ISO  4  38 100  58 101  70 100  82 101
M  END
> <Batch ID>
0110

> <Smiles>
CNc1sc(C(=O)C[101CH2:1][101O:1]c2ccc3c(c2)CN(C(=O)C(NC(=O)C(C)NC)C(C)(C)C)C(C(=O)NC2CCCc4ccccc42)C3)c(N)c1C(=O)[100NH:0][100C:0](=O)N1CCCC(n2nc(-c3ccc(Oc4ccc(F)cc4F)cc3)c(C(N)=O)c2N)C1

> <Shape>
0.216

> <Color>
0.060

> <Negative vol penalty>
0.000

$$$$

  -OEChem-04052301263D

 88 96  0     1  0  0  0  0  0999 V2000
  -25.0032   -5.2613   17.4142 C   0  0  0  0  0  0  0  0  0  0  0  0
  -25.1038   -6.6423   17.5384 C   0  0  0  0  0  0  0  0  0  0  0  0
  -23.0010   -9.8956   19.9812 C   0  0  0  0  0  0  0  0  0  0  0  0
  -23.7311   -9.9445   22.2838 C   0  0  0  0  0  0  0  0  0  0  0  0
  -25.1201   -4.6678   16.1591 C   0  0  0  0  0  0  0  0  0  0  0  0
  -25.3094   -7.4314   16.4061 C   0  0  0  0  0  0  0  0  0  0  0  0
  -23.6936  -14.1799   15.7649 C   0  0  0  0  0  0  0  0  0  0  0  0
  -22.2359   -8.7602   20.2479 C   0  0  0  0  0  0  0  0  0  0  0  0
  -22.9659   -8.8091   22.5505 C   0  0  0  0  0  0  0  0  0  0  0  0
  -23.4959  -15.5560   15.6494 C   0  0  0  0  0  0  0  0  0  0  0  0
  -23.2118   -5.4709   22.0742 C   0  0  0  0  0  0  0  0  0  0  0  0
  -23.8017   -4.4533   22.8239 C   0  0  0  0  0  0  0  0  0  0  0  0
  -28.7058  -17.1891   18.6297 C   0  0  0  0  0  0  0  0  0  0  0  0
  -24.3607  -15.5015   13.3917 C   0  0  0  0  0  0  0  0  0  0  0  0
  -26.5505  -18.8690   18.0681 C   0  0  0  0  0  0  0  0  0  0  0  0
  -22.0812   -4.6930   24.5031 C   0  0  0  0  0  0  0  0  0  0  0  0
  -23.7486  -10.4878   20.9992 C   0  0  0  0  0  0  0  0  0  0  0  0
  -28.0031  -17.0457   17.4334 C   0  0  0  0  0  0  0  0  0  0  0  0
  -28.3308  -18.1724   19.5453 C   0  0  0  0  0  0  0  0  0  0  0  0
  -24.1316  -13.0038   20.8252 C   0  0  0  0  0  0  0  0  0  0  0  0
  -25.3396   -5.4497   15.0130 C   0  0  0  0  0  0  0  0  0  0  0  0
  -24.2119  -13.4560   14.6875 C   0  0  0  0  0  0  0  0  0  0  0  0
  -25.4061   -6.8532   15.1275 C   0  0  0  0  0  0  0  0  0  0  0  0
  -24.5492  -14.1209   13.4972 C   0  0  0  0  0  0  0  0  0  0  0  0
  -26.9255  -17.8857   17.1525 C   0  0  0  0  0  0  0  0  0  0  0  0
  -22.2183   -8.2170   21.5325 C   0  0  0  0  0  0  0  0  0  0  0  0
  -23.8289  -16.2152   14.4657 C   0  0  0  0  0  0  0  0  0  0  0  0
  -22.0566   -6.0997   22.5390 C   0  0  0  0  0  0  0  0  0  0  0  0
  -23.2365   -4.0643   24.0383 C   0  0  0  0  0  0  0  0  0  0  0  0
  -27.2532  -19.0123   19.2645 C   0  0  0  0  0  0  0  0  0  0  0  0
  -21.4913   -5.7107   23.7534 C   0  0  0  0  0  0  0  0  0  0  0  0
  -24.5396  -11.6603   20.7242 C   0  0  0  0  0  0  0  0  0  0  0  0
  -25.2400  -13.7277   20.4593 C   0  0  0  0  0  0  0  0  0  0  0  0
  -29.6386  -15.9341   15.9826 C   0  0  0  0  0  0  0  0  0  0  0  0
  -28.4225  -16.0060   16.5011 C   0  0  0  0  0  0  0  0  0  0  0  0
  -29.0667  -18.3204   20.7913 C   0  0  0  0  0  0  0  0  0  0  0  0
  -22.8641  -13.5488   21.2151 C   0  0  0  0  0  0  0  0  0  0  0  0
  -25.2539  -10.1143   13.3372 C   0  0  0  0  0  0  0  0  0  0  0  0
  -23.8080  -11.5822   11.0645 C   0  0  0  0  0  0  0  0  0  0  0  0
  -21.7930  -13.3623    8.9650 C   0  0  0  0  0  0  0  0  0  0  0  0
  -30.7362  -14.6663   20.6972 C   0  0  0  0  0  0  0  0  0  0  0  0
  -25.4507   -4.7560   13.6782 C   0  0  0  0  0  0  0  0  0  0  0  0
  -24.4990  -11.9825   14.7887 C   0  0  0  0  0  0  0  0  0  0  0  0
  -25.1363  -13.3070   12.3765 C   0  0  0  0  0  0  0  0  0  0  0  0
  -26.1061   -5.6246   12.6095 C   0  0  0  0  0  0  0  0  0  0  0  0
  -29.5924  -12.2444   18.3513 C   0  0  0  0  0  0  0  0  0  0  0  0
  -25.4512   -6.9975   12.5819 C   0  0  0  0  0  0  0  0  0  0  0  0
  -28.1450  -11.9831   18.7717 C   0  0  0  0  0  0  0  0  0  0  0  0
  -30.4972  -12.4791   19.5589 C   0  0  0  0  0  0  0  0  0  0  0  0
  -28.5893  -13.2716   20.9027 C   0  0  0  0  0  0  0  0  0  0  0  0
  -25.6600   -7.7290   13.9139 C   0  0  1  0  0  0  0  0  0  0  0  0
  -24.2577  -11.2286   13.4686 C   0  0  1  0  0  0  0  0  0  0  0  0
  -27.6279  -13.0846   19.7165 C   0  0  2  0  0  0  0  0  0  0  0  0
  -20.7753  -13.2813    6.6726 C   0  0  0  0  0  0  0  0  0  0  0  0
  -24.3261  -19.5542   13.2636 C   0  0  0  0  0  0  0  0  0  0  0  0
  -26.5078  -12.3077    9.8444 C   0  0  0  0  0  0  0  0  0  0  0  0
  -25.2910  -13.1265    7.8154 C   0  0  0  0  0  0  0  0  0  0  0  0
  -25.1357  -10.7263    8.4767 C   0  0  0  0  0  0  0  0  0  0  0  0
  -19.0429  -13.4192   10.0573 C   0  0  0  0  0  0  0  0  0  0  0  0
  -30.5653  -17.9706   20.8922 C   0  0  0  0  0  0  0  0  0  0  0  0
  -30.8198  -16.8439   21.8847 C   0  0  0  0  0  0  0  0  0  0  0  0
  -25.3896  -18.8213   15.4230 C   0  0  0  0  0  0  0  0  0  0  0  0
  -23.9312  -12.4716    9.8533 C   0  0  1  0  0  0  0  0  0  0  0  0
  -20.5818  -12.9553    8.1454 C   0  0  2  0  0  0  0  0  0  0  0  0
  -24.7769  -18.3659   14.1006 C   0  0  1  0  0  0  0  0  0  1  0  0
  -25.2105  -12.1686    9.0232 C   0  0  0  0  0  0  0  0  0  0  0  0
  -25.8081  -11.5352   20.3252 N   0  0  0  0  0  0  0  0  0  0  0  0
  -28.4853  -18.7606   21.8857 N   0  0  0  0  0  0  0  0  0  0  0  0
  -26.2068  -12.8095   20.1722 N   0  0  0  0  0  0  0  0  0  0  0  0
  -24.4093  -12.0347   12.2453 N   0  0  0  0  0  0  0  0  0  0  0  0
  -29.9514  -13.5364   20.4134 N   0  0  0  0  0  0  0  0  0  0  0  0
  -25.4723  -15.0537   20.3583 N   0  0  0  0  0  0  0  0  0  0  0  0
  -21.8337  -12.6635   21.5598 N   0  0  0  0  0  0  0  0  0  0  0  0
  -26.2127  -17.7673   15.9711 N   0  0  0  0  0  0  0  0  0  0  0  0
  -24.8533   -8.9294   13.9248 N   0  0  0  0  0  0  0  0  0  0  0  0
  -22.6859  -12.3214    9.1082 N   0  0  0  0  0  0  0  0  0  0  0  0
  -30.1408  -15.6236   21.5094 N   0  0  0  0  0  0  0  0  0  0  0  0
  -19.3658  -13.6684    8.6288 N   0  3  0  0  0  0  0  0  0  0  0  0
  -22.6465  -14.7839   21.2407 O   0  0  0  0  0  0  0  0  0  0  0  0
  -26.3082  -10.3131   12.7452 O   0  0  0  0  0  0  0  0  0  0  0  0
  -23.2007  -10.5121   10.9678 O   0  0  0  0  0  0  0  0  0  0  0  0
  -21.9346  -14.4917    9.4285 O   0  0  0  0  0  0  0  0  0  0  0  0
  -31.8806  -14.8135   20.2548 O   0  0  0  0  0  0  0  0  0  0  0  0
  -21.4717   -7.1092   21.7932 O   0  0  0  0  0  0  0  0  0  0  0  0
  -23.6291  -17.5580   14.3581 O   0  0  0  0  0  0  0  0  0  1  0  0
  -23.8022   -3.0860   24.7574 F   0  0  0  0  0  0  0  0  0  0  0  0
  -26.8836  -19.9601   20.1376 F   0  0  0  0  0  0  0  0  0  0  0  0
  -20.3810   -6.3101   24.2045 F   0  0  0  0  0  0  0  0  0  0  0  0
  1  2  1  0  0  0  0
  1  5  2  0  0  0  0
  2  6  2  0  0  0  0
  3  8  2  0  0  0  0
  3 17  1  0  0  0  0
  4  9  1  0  0  0  0
  4 17  2  0  0  0  0
  5 21  1  0  0  0  0
  6 23  1  0  0  0  0
  7 10  2  0  0  0  0
  7 22  1  0  0  0  0
  8 26  1  0  0  0  0
  9 26  2  0  0  0  0
 10 27  1  0  0  0  0
 11 12  2  0  0  0  0
 11 28  1  0  0  0  0
 12 29  1  0  0  0  0
 13 18  1  0  0  0  0
 13 19  2  0  0  0  0
 14 24  1  0  0  0  0
 14 27  2  0  0  0  0
 15 25  1  0  0  0  0
 15 30  2  0  0  0  0
 16 29  2  0  0  0  0
 16 31  1  0  0  0  0
 17 32  1  0  0  0  0
 18 25  2  0  0  0  0
 18 35  1  0  0  0  0
 19 30  1  0  0  0  0
 19 36  1  0  0  0  0
 20 32  1  0  0  0  0
 20 33  2  0  0  0  0
 20 37  1  0  0  0  0
 21 23  2  0  0  0  0
 21 42  1  0  0  0  0
 22 24  2  0  0  0  0
 22 43  1  0  0  0  0
 23 51  1  0  0  0  0
 24 44  1  0  0  0  0
 25 74  1  0  0  0  0
 26 84  1  0  0  0  0
 27 85  1  0  0  0  0
 28 31  2  0  0  0  0
 28 84  1  0  0  0  0
 29 86  1  0  0  0  0
 30 87  1  0  0  0  0
 31 88  1  0  0  0  0
 32 67  2  0  0  0  0
 33 69  1  0  0  0  0
 33 72  1  0  0  0  0
 34 35  2  0  0  0  0
 36 60  1  0  0  0  0
 36 68  2  0  0  0  0
 37 73  1  0  0  0  0
 37 79  2  0  0  0  0
 38 52  1  0  0  0  0
 38 75  1  0  0  0  0
 38 80  2  0  0  0  0
 39 63  1  0  0  0  0
 39 70  1  0  0  0  0
 39 81  2  0  0  0  0
 40 64  1  0  0  0  0
 40 76  1  0  0  0  0
 40 82  2  0  0  0  0
 41 71  1  0  0  0  0
 41 77  1  0  0  0  0
 41 83  2  0  0  0  0
 42 45  1  0  0  0  0
 43 52  1  0  0  0  0
 44 70  1  0  0  0  0
 45 47  1  0  0  0  0
 46 48  1  0  0  0  0
 46 49  1  0  0  0  0
 47 51  1  0  0  0  0
 48 53  1  0  0  0  0
 49 71  1  0  0  0  0
 50 53  1  0  0  0  0
 50 71  1  0  0  0  0
 51 75  1  0  0  0  0
 52 70  1  0  0  0  0
 53 69  1  0  0  0  0
 54 64  1  0  0  0  0
 55 65  1  0  0  0  0
 56 66  1  0  0  0  0
 57 66  1  0  0  0  0
 58 66  1  0  0  0  0
 59 78  1  0  0  0  0
 60 61  1  0  0  0  0
 61 77  1  0  0  0  0
 62 65  1  0  0  0  0
 62 74  1  0  0  0  0
 63 66  1  0  0  0  0
 63 76  1  0  0  0  0
 64 78  1  0  0  0  0
 65 85  1  0  0  0  0
 67 69  1  0  0  0  0
M  CHG  1  78   1
M  ISO  4  41 100  65 101  77 100  85 101
M  END
> <Batch ID>
0110

> <Smiles>
C=Cc1cc(C(=N)CC[100NH:0][100C:0](=O)N2CCCC(n3nc(-c4ccc(Oc5ccc(F)cc5F)cc4)c(C(N)=O)c3N)C2)c(F)cc1NC[101CH:1](C)[101O:1]c1ccc2c(c1)CN(C(=O)C(NC(=O)C(C)NC)C(C)(C)C)C(C(=O)NC1CCCc3ccccc31)C2

> <Shape>
0.198

> <Color>
0.189

> <Negative vol penalty>
0.000

$$$$

  -OEChem-04052301263D

 88 97  0     1  0  0  0  0  0999 V2000
  -18.3320  -28.3626   26.3110 C   0  0  0  0  0  0  0  0  0  0  0  0
  -19.6962  -28.0964   26.3691 C   0  0  0  0  0  0  0  0  0  0  0  0
  -22.5633  -10.9779   21.5263 C   0  0  0  0  0  0  0  0  0  0  0  0
  -22.7537  -12.7425   23.1654 C   0  0  0  0  0  0  0  0  0  0  0  0
  -17.6748  -28.3638   25.0814 C   0  0  0  0  0  0  0  0  0  0  0  0
  -20.4039  -27.8301   25.1975 C   0  0  0  0  0  0  0  0  0  0  0  0
  -26.8738  -28.7296   22.2566 C   0  0  0  0  0  0  0  0  0  0  0  0
  -30.6991  -20.7353   20.1607 C   0  0  0  0  0  0  0  0  0  0  0  0
  -30.4814  -19.3950   20.4797 C   0  0  0  0  0  0  0  0  0  0  0  0
  -21.5334  -10.3997   22.2682 C   0  0  0  0  0  0  0  0  0  0  0  0
  -21.7236  -12.1644   23.9074 C   0  0  0  0  0  0  0  0  0  0  0  0
  -27.8821  -28.0001   21.6283 C   0  0  0  0  0  0  0  0  0  0  0  0
  -21.2306   -8.4770   25.0315 C   0  0  0  0  0  0  0  0  0  0  0  0
  -21.2695   -7.0964   25.2267 C   0  0  0  0  0  0  0  0  0  0  0  0
  -26.6577  -28.1072   19.5525 C   0  0  0  0  0  0  0  0  0  0  0  0
  -28.8643  -20.6598   18.5907 C   0  0  0  0  0  0  0  0  0  0  0  0
  -19.1372   -6.8788   24.1116 C   0  0  0  0  0  0  0  0  0  0  0  0
  -23.1735  -12.1492   21.9749 C   0  0  0  0  0  0  0  0  0  0  0  0
  -24.1714  -13.2169   19.8840 C   0  0  0  0  0  0  0  0  0  0  0  0
  -18.3767  -28.1069   23.8931 C   0  0  0  0  0  0  0  0  0  0  0  0
  -25.7428  -29.1447   21.5391 C   0  0  0  0  0  0  0  0  0  0  0  0
  -19.7553  -27.8266   23.9509 C   0  0  0  0  0  0  0  0  0  0  0  0
  -25.6377  -28.8440   20.1735 C   0  0  0  0  0  0  0  0  0  0  0  0
  -29.8906  -21.3678   19.2163 C   0  0  0  0  0  0  0  0  0  0  0  0
  -29.4552  -18.6870   19.8541 C   0  0  0  0  0  0  0  0  0  0  0  0
  -21.1135  -10.9930   23.4588 C   0  0  0  0  0  0  0  0  0  0  0  0
  -27.7728  -27.6863   20.2767 C   0  0  0  0  0  0  0  0  0  0  0  0
  -20.1450   -9.0585   24.3765 C   0  0  0  0  0  0  0  0  0  0  0  0
  -28.6466  -19.3195   18.9096 C   0  0  0  0  0  0  0  0  0  0  0  0
  -20.2228   -6.2973   24.7667 C   0  0  0  0  0  0  0  0  0  0  0  0
  -19.0984   -8.2594   23.9166 C   0  0  0  0  0  0  0  0  0  0  0  0
  -24.2379  -12.7466   21.2092 C   0  0  0  0  0  0  0  0  0  0  0  0
  -25.4353  -13.6869   19.6227 C   0  0  0  0  0  0  0  0  0  0  0  0
  -29.3066  -24.9729   18.4579 C   0  0  0  0  0  0  0  0  0  0  0  0
  -29.1703  -23.7645   19.0563 C   0  0  0  0  0  0  0  0  0  0  0  0
  -30.4834  -25.1835   17.5493 C   0  0  0  0  0  0  0  0  0  0  0  0
  -23.0661  -13.2280   18.9709 C   0  0  0  0  0  0  0  0  0  0  0  0
  -22.6225  -28.5737   21.7433 C   0  0  0  0  0  0  0  0  0  0  0  0
  -22.4540  -30.8217   19.4107 C   0  0  0  0  0  0  0  0  0  0  0  0
  -24.0076  -32.4703   16.8582 C   0  0  0  0  0  0  0  0  0  0  0  0
  -29.9665  -16.5622   21.1071 C   0  0  0  0  0  0  0  0  0  0  0  0
  -17.6140  -28.0724   22.5924 C   0  0  0  0  0  0  0  0  0  0  0  0
  -24.6765  -29.9539   22.2251 C   0  0  0  0  0  0  0  0  0  0  0  0
  -24.4533  -29.2838   19.3536 C   0  0  0  0  0  0  0  0  0  0  0  0
  -31.3744  -24.0051   17.2385 C   0  0  0  0  0  0  0  0  0  0  0  0
  -18.5098  -28.1502   21.3588 C   0  0  0  0  0  0  0  0  0  0  0  0
  -29.7395  -13.1946   22.2405 C   0  0  0  0  0  0  0  0  0  0  0  0
  -19.6884  -27.1913   21.4937 C   0  0  0  0  0  0  0  0  0  0  0  0
  -28.2825  -12.8165   21.9642 C   0  0  0  0  0  0  0  0  0  0  0  0
  -31.4617  -23.0412   18.4088 C   0  0  0  0  0  0  0  0  0  0  0  0
  -29.8727  -14.6486   22.6896 C   0  0  0  0  0  0  0  0  0  0  0  0
  -27.7902  -15.2556   21.5218 C   0  0  0  0  0  0  0  0  0  0  0  0
  -20.5624  -27.5576   22.6994 C   0  0  1  0  0  0  0  0  0  0  0  0
  -23.3257  -29.8826   21.5198 C   0  0  1  0  0  0  0  0  0  0  0  0
  -27.6125  -13.8189   21.0040 C   0  0  2  0  0  0  0  0  0  0  0  0
  -28.0327  -23.5276   20.0306 C   0  0  0  0  0  0  0  0  0  0  0  0
  -23.6024  -34.2266   15.1122 C   0  0  0  0  0  0  0  0  0  0  0  0
  -20.8605  -28.8099   17.7604 C   0  0  0  0  0  0  0  0  0  0  0  0
  -21.3059  -30.2199   15.7400 C   0  0  0  0  0  0  0  0  0  0  0  0
  -20.0065  -31.1580   17.6516 C   0  0  0  0  0  0  0  0  0  0  0  0
  -26.1205  -34.2226   17.9645 C   0  0  0  0  0  0  0  0  0  0  0  0
  -26.3570  -18.6765   18.9123 C   0  0  0  0  0  0  0  0  0  0  0  0
  -28.3666  -26.1398   18.5704 C   0  0  0  0  0  0  0  0  0  1  0  0
  -22.4970  -30.8020   17.9019 C   0  0  1  0  0  0  0  0  0  0  0  0
  -24.1000  -33.9477   16.5219 C   0  0  2  0  0  0  0  0  0  0  0  0
  -21.1890  -30.2373   17.2791 C   0  0  0  0  0  0  0  0  0  0  0  0
  -25.4483  -12.9034   21.7519 N   0  0  0  0  0  0  0  0  0  0  0  0
  -26.1541  -13.4774   20.7627 N   0  0  0  0  0  0  0  0  0  0  0  0
  -30.1116  -22.7313   18.8924 N   0  0  0  0  0  0  0  0  0  0  0  0
  -23.4341  -30.0672   20.0712 N   0  0  0  0  0  0  0  0  0  0  0  0
  -29.2186  -15.5406   21.7297 N   0  0  0  0  0  0  0  0  0  0  0  0
  -25.9908  -14.2547   18.5311 N   0  0  0  0  0  0  0  0  0  0  0  0
  -22.2221  -14.3469   18.9572 N   0  0  0  0  0  0  0  0  0  0  0  0
  -29.2465  -17.3262   20.1892 N   0  0  0  0  0  0  0  0  0  0  0  0
  -21.4053  -28.6916   22.3867 N   0  0  0  0  0  0  0  0  0  0  0  0
  -22.8185  -32.1625   17.4848 N   0  0  0  0  0  0  0  0  0  0  0  0
  -25.5117  -34.4146   16.6230 N   0  3  0  0  0  0  0  0  0  0  0  0
  -30.6869  -26.2780   17.0243 O   0  0  0  0  0  0  0  0  0  0  0  0
  -22.8241  -12.2670   18.2019 O   0  0  0  0  0  0  0  0  0  0  0  0
  -23.1449  -27.5339   21.3590 O   0  0  0  0  0  0  0  0  0  0  0  0
  -21.5874  -31.4879   19.9824 O   0  0  0  0  0  0  0  0  0  0  0  0
  -24.8993  -31.6686   16.5884 O   0  0  0  0  0  0  0  0  0  0  0  0
  -31.1648  -16.7285   21.3487 O   0  0  0  0  0  0  0  0  0  0  0  0
  -20.1083  -10.4292   24.1829 O   0  0  0  0  0  0  0  0  0  0  0  0
  -27.6380  -18.6462   18.2869 O   0  0  0  0  0  0  0  0  0  0  0  0
  -28.7553  -26.9738   19.6611 O   0  0  0  0  0  0  0  0  0  1  0  0
  -20.2610   -4.9714   24.9528 F   0  0  0  0  0  0  0  0  0  0  0  0
  -18.0534   -8.8123   23.2855 F   0  0  0  0  0  0  0  0  0  0  0  0
  1  2  1  0  0  0  0
  1  5  2  0  0  0  0
  2  6  2  0  0  0  0
  3 10  2  0  0  0  0
  3 18  1  0  0  0  0
  4 11  1  0  0  0  0
  4 18  2  0  0  0  0
  5 20  1  0  0  0  0
  6 22  1  0  0  0  0
  7 12  2  0  0  0  0
  7 21  1  0  0  0  0
  8  9  2  0  0  0  0
  8 24  1  0  0  0  0
  9 25  1  0  0  0  0
 10 26  1  0  0  0  0
 11 26  2  0  0  0  0
 12 27  1  0  0  0  0
 13 14  2  0  0  0  0
 13 28  1  0  0  0  0
 14 30  1  0  0  0  0
 15 23  1  0  0  0  0
 15 27  2  0  0  0  0
 16 24  2  0  0  0  0
 16 29  1  0  0  0  0
 17 30  2  0  0  0  0
 17 31  1  0  0  0  0
 18 32  1  0  0  0  0
 19 32  1  0  0  0  0
 19 33  2  0  0  0  0
 19 37  1  0  0  0  0
 20 22  2  0  0  0  0
 20 42  1  0  0  0  0
 21 23  2  0  0  0  0
 21 43  1  0  0  0  0
 22 53  1  0  0  0  0
 23 44  1  0  0  0  0
 24 69  1  0  0  0  0
 25 29  2  0  0  0  0
 25 74  1  0  0  0  0
 26 84  1  0  0  0  0
 27 86  1  0  0  0  0
 28 31  2  0  0  0  0
 28 84  1  0  0  0  0
 29 85  1  0  0  0  0
 30 87  1  0  0  0  0
 31 88  1  0  0  0  0
 32 67  2  0  0  0  0
 33 68  1  0  0  0  0
 33 72  1  0  0  0  0
 34 35  2  0  0  0  0
 34 36  1  0  0  0  0
 34 63  1  0  0  0  0
 35 56  1  0  0  0  0
 35 69  1  0  0  0  0
 36 45  1  0  0  0  0
 36 78  2  0  0  0  0
 37 73  1  0  0  0  0
 37 79  2  0  0  0  0
 38 54  1  0  0  0  0
 38 75  1  0  0  0  0
 38 80  2  0  0  0  0
 39 64  1  0  0  0  0
 39 70  1  0  0  0  0
 39 81  2  0  0  0  0
 40 65  1  0  0  0  0
 40 76  1  0  0  0  0
 40 82  2  0  0  0  0
 41 71  1  0  0  0  0
 41 74  1  0  0  0  0
 41 83  2  0  0  0  0
 42 46  1  0  0  0  0
 43 54  1  0  0  0  0
 44 70  1  0  0  0  0
 45 50  1  0  0  0  0
 46 48  1  0  0  0  0
 47 49  1  0  0  0  0
 47 51  1  0  0  0  0
 48 53  1  0  0  0  0
 49 55  1  0  0  0  0
 50 69  1  0  0  0  0
 51 71  1  0  0  0  0
 52 55  1  0  0  0  0
 52 71  1  0  0  0  0
 53 75  1  0  0  0  0
 54 70  1  0  0  0  0
 55 68  1  0  0  0  0
 57 65  1  0  0  0  0
 58 66  1  0  0  0  0
 59 66  1  0  0  0  0
 60 66  1  0  0  0  0
 61 77  1  0  0  0  0
 62 85  1  0  0  0  0
 63 86  1  0  0  0  0
 64 66  1  0  0  0  0
 64 76  1  0  0  0  0
 65 77  1  0  0  0  0
 67 68  1  0  0  0  0
M  CHG  1  77   1
M  ISO  4  41 100  63 101  74 100  86 101
M  END
> <Batch ID>
0110

> <Smiles>
CNC(C)C(=O)NC(C(=O)N1Cc2cc([101O:1][101CH2:1]C3=C(C)N(c4ccc([100NH:0][100C:0](=O)N5CCCC(n6nc(-c7ccc(Oc8ccc(F)cc8F)cc7)c(C(N)=O)c6N)C5)c(OC)c4)CCC3=O)ccc2CC1C(=O)NC1CCCc2ccccc21)C(C)(C)C

> <Shape>
0.281

> <Color>
0.077

> <Negative vol penalty>
0.000

$$$$

  -OEChem-04052301263D

 89 97  0     1  0  0  0  0  0999 V2000
  -17.3789  -32.6423   22.2042 C   0  0  0  0  0  0  0  0  0  0  0  0
  -18.7160  -33.0264   22.2087 C   0  0  0  0  0  0  0  0  0  0  0  0
  -20.3839  -17.0426   18.8205 C   0  0  0  0  0  0  0  0  0  0  0  0
  -21.9088  -18.2960   17.4275 C   0  0  0  0  0  0  0  0  0  0  0  0
  -17.0188  -31.3700   22.6465 C   0  0  0  0  0  0  0  0  0  0  0  0
  -19.6938  -32.1387   22.6566 C   0  0  0  0  0  0  0  0  0  0  0  0
  -26.0873  -29.4938   19.0297 C   0  0  0  0  0  0  0  0  0  0  0  0
  -19.3074  -17.5245   18.0758 C   0  0  0  0  0  0  0  0  0  0  0  0
  -20.8323  -18.7779   16.6827 C   0  0  0  0  0  0  0  0  0  0  0  0
  -27.1624  -28.8344   18.4336 C   0  0  0  0  0  0  0  0  0  0  0  0
  -18.8044  -17.6536   14.2242 C   0  0  0  0  0  0  0  0  0  0  0  0
  -18.9246  -17.6462   12.8346 C   0  0  0  0  0  0  0  0  0  0  0  0
  -29.7558  -22.8015   20.4645 C   0  0  0  0  0  0  0  0  0  0  0  0
  -28.6210  -23.9247   22.2776 C   0  0  0  0  0  0  0  0  0  0  0  0
  -26.8383  -26.9477   19.9112 C   0  0  0  0  0  0  0  0  0  0  0  0
  -18.6360  -20.0446   12.7968 C   0  0  0  0  0  0  0  0  0  0  0  0
  -21.6846  -17.4284   18.4964 C   0  0  0  0  0  0  0  0  0  0  0  0
  -29.5336  -23.9507   21.2231 C   0  0  0  0  0  0  0  0  0  0  0  0
  -23.5407  -15.7604   19.0258 C   0  0  0  0  0  0  0  0  0  0  0  0
  -17.9936  -30.4629   23.0909 C   0  0  0  0  0  0  0  0  0  0  0  0
  -25.3731  -28.8755   20.0598 C   0  0  0  0  0  0  0  0  0  0  0  0
  -19.3462  -30.8536   23.1065 C   0  0  0  0  0  0  0  0  0  0  0  0
  -25.7527  -27.5982   20.5037 C   0  0  0  0  0  0  0  0  0  0  0  0
  -28.1526  -21.6002   21.8149 C   0  0  0  0  0  0  0  0  0  0  0  0
  -19.5316  -18.3921   17.0069 C   0  0  0  0  0  0  0  0  0  0  0  0
  -27.5371  -27.5646   18.8734 C   0  0  0  0  0  0  0  0  0  0  0  0
  -18.5999  -18.8566   14.9002 C   0  0  0  0  0  0  0  0  0  0  0  0
  -29.0653  -21.6262   20.7604 C   0  0  0  0  0  0  0  0  0  0  0  0
  -18.8405  -18.8416   12.1209 C   0  0  0  0  0  0  0  0  0  0  0  0
  -27.9304  -22.7494   22.5735 C   0  0  0  0  0  0  0  0  0  0  0  0
  -18.5157  -20.0520   14.1864 C   0  0  0  0  0  0  0  0  0  0  0  0
  -22.7969  -16.9313   19.2656 C   0  0  0  0  0  0  0  0  0  0  0  0
  -24.4779  -15.7373   20.0296 C   0  0  0  0  0  0  0  0  0  0  0  0
  -30.2782  -25.2179   20.9045 C   0  0  0  0  0  0  0  0  0  0  0  0
  -23.3972  -14.7811   17.9885 C   0  0  0  0  0  0  0  0  0  0  0  0
  -22.5362  -29.0884   22.5057 C   0  0  0  0  0  0  0  0  0  0  0  0
  -22.5636  -26.2193   21.4205 C   0  0  0  0  0  0  0  0  0  0  0  0
  -22.6731  -23.2929   19.6708 C   0  0  0  0  0  0  0  0  0  0  0  0
  -26.9808  -20.0081   23.3764 C   0  0  0  0  0  0  0  0  0  0  0  0
  -17.5511  -29.1154   23.6040 C   0  0  0  0  0  0  0  0  0  0  0  0
  -24.2469  -29.5739   20.7724 C   0  0  0  0  0  0  0  0  0  0  0  0
  -24.9771  -26.9861   21.6381 C   0  0  0  0  0  0  0  0  0  0  0  0
  -18.6871  -28.1012   23.7106 C   0  0  0  0  0  0  0  0  0  0  0  0
  -25.1651  -17.1770   24.5451 C   0  0  0  0  0  0  0  0  0  0  0  0
  -19.9033  -28.7306   24.3825 C   0  0  0  0  0  0  0  0  0  0  0  0
  -24.4242  -16.6825   23.3006 C   0  0  0  0  0  0  0  0  0  0  0  0
  -25.2480  -18.7019   24.5873 C   0  0  0  0  0  0  0  0  0  0  0  0
  -25.0594  -18.8328   22.1345 C   0  0  0  0  0  0  0  0  0  0  0  0
  -20.4384  -29.9101   23.5616 C   0  0  1  0  0  0  0  0  0  0  0  0
  -23.1226  -28.6169   21.2075 C   0  0  1  0  0  0  0  0  0  0  0  0
  -25.0072  -17.3010   22.0148 C   0  0  2  0  0  0  0  0  0  0  0  0
  -29.4960  -27.2426   22.1867 C   0  0  0  0  0  0  0  0  0  0  0  0
  -33.3179  -25.2632   18.5185 C   0  0  0  0  0  0  0  0  0  0  0  0
  -21.5337  -21.0647   19.4858 C   0  0  0  0  0  0  0  0  0  0  0  0
  -23.9695  -25.2934   23.9642 C   0  0  0  0  0  0  0  0  0  0  0  0
  -23.5995  -22.9305   23.2238 C   0  0  0  0  0  0  0  0  0  0  0  0
  -21.6460  -24.4141   23.6769 C   0  0  0  0  0  0  0  0  0  0  0  0
  -21.8868  -23.7978   16.8626 C   0  0  0  0  0  0  0  0  0  0  0  0
  -30.3358  -19.6409   20.4442 C   0  0  0  0  0  0  0  0  0  0  0  0
  -30.5856  -26.1929   22.0389 C   0  0  0  0  0  0  0  0  0  0  0  0
  -32.8309  -26.3919   19.4179 C   0  0  0  0  0  0  0  0  0  0  0  0
  -30.9446  -26.9805   17.8472 C   0  0  0  0  0  0  0  0  0  0  0  0
  -29.6263  -27.7411   17.7502 C   0  0  0  0  0  0  0  0  0  1  0  0
  -23.0424  -24.8015   21.6052 C   0  0  1  0  0  0  0  0  0  0  0  0
  -21.5865  -22.4952   18.9725 C   0  0  2  0  0  0  0  0  0  0  0  0
  -31.3224  -26.6346   19.2910 C   0  0  1  0  0  0  0  0  0  0  0  0
  -23.0783  -24.3783   23.1009 C   0  0  0  0  0  0  0  0  0  0  0  0
  -23.2247  -17.6034   20.3377 N   0  0  0  0  0  0  0  0  0  0  0  0
  -30.6145  -25.4083   19.6815 N   0  0  0  0  0  0  0  0  0  0  0  0
  -24.2473  -16.8523   20.7806 N   0  0  0  0  0  0  0  0  0  0  0  0
  -23.5377  -27.2247   21.4489 N   0  0  0  0  0  0  0  0  0  0  0  0
  -25.8135  -19.2164   23.3382 N   0  0  0  0  0  0  0  0  0  0  0  0
  -25.4685  -14.8723   20.3344 N   0  0  0  0  0  0  0  0  0  0  0  0
  -22.3824  -14.9582   17.0382 N   0  0  0  0  0  0  0  0  0  0  0  0
  -27.4442  -20.4128   22.1250 N   0  0  0  0  0  0  0  0  0  0  0  0
  -21.2001  -29.4324   22.4276 N   0  0  0  0  0  0  0  0  0  0  0  0
  -22.1848  -23.9688   20.7689 N   0  0  0  0  0  0  0  0  0  0  0  0
  -21.8338  -22.4586   17.5034 N   0  3  0  0  0  0  0  0  0  0  0  0
  -24.1364  -13.7701   17.9162 O   0  0  0  0  0  0  0  0  0  0  0  0
  -23.2425  -29.1356   23.5060 O   0  0  0  0  0  0  0  0  0  0  0  0
  -21.3585  -26.4329   21.2609 O   0  0  0  0  0  0  0  0  0  0  0  0
  -23.8392  -23.3113   19.2832 O   0  0  0  0  0  0  0  0  0  0  0  0
  -27.5443  -20.2825   24.4391 O   0  0  0  0  0  0  0  0  0  0  0  0
  -18.4815  -18.8624   16.2799 O   0  0  0  0  0  0  0  0  0  0  0  0
  -29.2971  -20.5142   20.0067 O   0  0  0  0  0  0  0  0  0  0  0  0
  -28.5848  -26.9246   18.2840 O   0  0  0  0  0  0  0  0  0  1  0  0
  -18.9575  -18.8345   10.7866 F   0  0  0  0  0  0  0  0  0  0  0  0
  -27.0554  -22.7365   23.5893 F   0  0  0  0  0  0  0  0  0  0  0  0
  -18.3205  -21.2109   14.8304 F   0  0  0  0  0  0  0  0  0  0  0  0
  1  2  1  0  0  0  0
  1  5  2  0  0  0  0
  2  6  2  0  0  0  0
  3  8  2  0  0  0  0
  3 17  1  0  0  0  0
  4  9  1  0  0  0  0
  4 17  2  0  0  0  0
  5 20  1  0  0  0  0
  6 22  1  0  0  0  0
  7 10  2  0  0  0  0
  7 21  1  0  0  0  0
  8 25  1  0  0  0  0
  9 25  2  0  0  0  0
 10 26  1  0  0  0  0
 11 12  2  0  0  0  0
 11 27  1  0  0  0  0
 12 29  1  0  0  0  0
 13 18  2  0  0  0  0
 13 28  1  0  0  0  0
 14 18  1  0  0  0  0
 14 30  2  0  0  0  0
 15 23  1  0  0  0  0
 15 26  2  0  0  0  0
 16 29  2  0  0  0  0
 16 31  1  0  0  0  0
 17 32  1  0  0  0  0
 18 34  1  0  0  0  0
 19 32  1  0  0  0  0
 19 33  2  0  0  0  0
 19 35  1  0  0  0  0
 20 22  2  0  0  0  0
 20 40  1  0  0  0  0
 21 23  2  0  0  0  0
 21 41  1  0  0  0  0
 22 49  1  0  0  0  0
 23 42  1  0  0  0  0
 24 28  2  0  0  0  0
 24 30  1  0  0  0  0
 24 75  1  0  0  0  0
 25 84  1  0  0  0  0
 26 86  1  0  0  0  0
 27 31  2  0  0  0  0
 27 84  1  0  0  0  0
 28 85  1  0  0  0  0
 29 87  1  0  0  0  0
 30 88  1  0  0  0  0
 31 89  1  0  0  0  0
 32 68  2  0  0  0  0
 33 70  1  0  0  0  0
 33 73  1  0  0  0  0
 34 60  1  0  0  0  0
 34 69  2  0  0  0  0
 35 74  1  0  0  0  0
 35 79  2  0  0  0  0
 36 50  1  0  0  0  0
 36 76  1  0  0  0  0
 36 80  2  0  0  0  0
 37 64  1  0  0  0  0
 37 71  1  0  0  0  0
 37 81  2  0  0  0  0
 38 65  1  0  0  0  0
 38 77  1  0  0  0  0
 38 82  2  0  0  0  0
 39 72  1  0  0  0  0
 39 75  1  0  0  0  0
 39 83  2  0  0  0  0
 40 43  1  0  0  0  0
 41 50  1  0  0  0  0
 42 71  1  0  0  0  0
 43 45  1  0  0  0  0
 44 46  1  0  0  0  0
 44 47  1  0  0  0  0
 45 49  1  0  0  0  0
 46 51  1  0  0  0  0
 47 72  1  0  0  0  0
 48 51  1  0  0  0  0
 48 72  1  0  0  0  0
 49 76  1  0  0  0  0
 50 71  1  0  0  0  0
 51 70  1  0  0  0  0
 52 60  1  0  0  0  0
 53 61  1  0  0  0  0
 54 65  1  0  0  0  0
 55 67  1  0  0  0  0
 56 67  1  0  0  0  0
 57 67  1  0  0  0  0
 58 78  1  0  0  0  0
 59 85  1  0  0  0  0
 61 66  1  0  0  0  0
 62 63  1  0  0  0  0
 62 66  1  0  0  0  0
 63 86  1  0  0  0  0
 64 67  1  0  0  0  0
 64 77  1  0  0  0  0
 65 78  1  0  0  0  0
 66 69  1  0  0  0  0
 68 70  1  0  0  0  0
M  CHG  1  78   1
M  ISO  4  39 100  63 101  75 100  86 101
M  END
> <Batch ID>
0110

> <Smiles>
CCC(=NC(CC)C[101CH2:1][101O:1]c1ccc2c(c1)CN(C(=O)C(NC(=O)C(C)NC)C(C)(C)C)C(C(=O)NC1CCCc3ccccc31)C2)c1cc(F)c([100NH:0][100C:0](=O)N2CCCC(n3nc(-c4ccc(Oc5ccc(F)cc5F)cc4)c(C(N)=O)c3N)C2)c(OC)c1

> <Shape>
0.152

> <Color>
0.124

> <Negative vol penalty>
0.000

$$$$

  -OEChem-04052301263D

 85 93  0     1  0  0  0  0  0999 V2000
  -32.3126  -26.9731   23.1127 C   0  0  0  0  0  0  0  0  0  0  0  0
  -30.9568  -26.6808   23.0043 C   0  0  0  0  0  0  0  0  0  0  0  0
  -26.6248  -27.9847   15.6736 C   0  0  0  0  0  0  0  0  0  0  0  0
  -28.5868  -27.1324   16.7967 C   0  0  0  0  0  0  0  0  0  0  0  0
  -33.2113  -26.4637   22.1764 C   0  0  0  0  0  0  0  0  0  0  0  0
  -30.4988  -25.8797   21.9589 C   0  0  0  0  0  0  0  0  0  0  0  0
  -27.1797  -22.3805   23.5030 C   0  0  0  0  0  0  0  0  0  0  0  0
  -27.3123  -27.9682   14.4601 C   0  0  0  0  0  0  0  0  0  0  0  0
  -29.2742  -27.1158   15.5831 C   0  0  0  0  0  0  0  0  0  0  0  0
  -25.8729  -22.8038   23.7416 C   0  0  0  0  0  0  0  0  0  0  0  0
  -31.6601  -27.1885   12.8422 C   0  0  0  0  0  0  0  0  0  0  0  0
  -32.9623  -27.6880   12.8279 C   0  0  0  0  0  0  0  0  0  0  0  0
  -20.4828  -27.6413   22.9206 C   0  0  0  0  0  0  0  0  0  0  0  0
  -25.2089  -21.9491   21.5857 C   0  0  0  0  0  0  0  0  0  0  0  0
  -32.1451  -29.8398   13.5619 C   0  0  0  0  0  0  0  0  0  0  0  0
  -18.2997  -27.0224   22.2082 C   0  0  0  0  0  0  0  0  0  0  0  0
  -27.2621  -27.5669   16.8420 C   0  0  0  0  0  0  0  0  0  0  0  0
  -20.0454  -28.9576   23.0161 C   0  0  0  0  0  0  0  0  0  0  0  0
  -25.7831  -26.5448   18.6518 C   0  0  0  0  0  0  0  0  0  0  0  0
  -32.7654  -25.6480   21.1245 C   0  0  0  0  0  0  0  0  0  0  0  0
  -27.5138  -21.7470   22.2974 C   0  0  0  0  0  0  0  0  0  0  0  0
  -31.3922  -25.3600   21.0069 C   0  0  0  0  0  0  0  0  0  0  0  0
  -26.5201  -21.5164   21.3354 C   0  0  0  0  0  0  0  0  0  0  0  0
  -19.5995  -26.6492   22.5097 C   0  0  0  0  0  0  0  0  0  0  0  0
  -28.6370  -27.5337   14.4148 C   0  0  0  0  0  0  0  0  0  0  0  0
  -24.8879  -22.5907   22.7817 C   0  0  0  0  0  0  0  0  0  0  0  0
  -30.6003  -28.0147   13.2163 C   0  0  0  0  0  0  0  0  0  0  0  0
  -33.2049  -29.0136   13.1878 C   0  0  0  0  0  0  0  0  0  0  0  0
  -30.8428  -29.3403   13.5762 C   0  0  0  0  0  0  0  0  0  0  0  0
  -26.5527  -27.5843   18.0960 C   0  0  0  0  0  0  0  0  0  0  0  0
  -18.7257  -29.2276   22.6918 C   0  0  0  0  0  0  0  0  0  0  0  0
  -25.3248  -27.0554   19.8417 C   0  0  0  0  0  0  0  0  0  0  0  0
  -20.9964  -30.0106   23.4563 C   0  0  0  0  0  0  0  0  0  0  0  0
  -25.5073  -25.2348   18.1385 C   0  0  0  0  0  0  0  0  0  0  0  0
  -29.4745  -22.4079   19.8844 C   0  0  0  0  0  0  0  0  0  0  0  0
  -28.5961  -19.4535   18.8731 C   0  0  0  0  0  0  0  0  0  0  0  0
  -21.2768  -24.7770   22.6696 C   0  0  0  0  0  0  0  0  0  0  0  0
  -26.2859  -16.9421   18.9231 C   0  0  0  0  0  0  0  0  0  0  0  0
  -23.1178  -31.1397   22.8658 C   0  0  0  0  0  0  0  0  0  0  0  0
  -33.7682  -25.1593   20.1095 C   0  0  0  0  0  0  0  0  0  0  0  0
  -28.9223  -21.2724   22.0666 C   0  0  0  0  0  0  0  0  0  0  0  0
  -26.8228  -20.8227   20.0332 C   0  0  0  0  0  0  0  0  0  0  0  0
  -33.2514  -24.0109   19.2468 C   0  0  0  0  0  0  0  0  0  0  0  0
  -26.6098  -31.2744   22.3322 C   0  0  0  0  0  0  0  0  0  0  0  0
  -31.8463  -24.3160   18.7376 C   0  0  0  0  0  0  0  0  0  0  0  0
  -26.8475  -30.2352   21.2332 C   0  0  0  0  0  0  0  0  0  0  0  0
  -25.3038  -32.0383   22.1179 C   0  0  0  0  0  0  0  0  0  0  0  0
  -24.3533  -30.1645   20.8360 C   0  0  0  0  0  0  0  0  0  0  0  0
  -30.8601  -24.4744   19.9011 C   0  0  1  0  0  0  0  0  0  0  0  0
  -29.2595  -21.0982   20.5890 C   0  0  1  0  0  0  0  0  0  0  0  0
  -25.6208  -29.3202   21.0450 C   0  0  1  0  0  0  0  0  0  0  0  0
  -25.8281  -14.6674   17.9675 C   0  0  0  0  0  0  0  0  0  0  0  0
  -27.8357  -20.7289   16.2076 C   0  0  0  0  0  0  0  0  0  0  0  0
  -26.5378  -18.6576   15.6662 C   0  0  0  0  0  0  0  0  0  0  0  0
  -29.0044  -18.5264   16.0144 C   0  0  0  0  0  0  0  0  0  0  0  0
  -26.2514  -15.6943   21.6065 C   0  0  0  0  0  0  0  0  0  0  0  0
  -21.2929  -23.2723   22.4256 C   0  0  0  0  0  0  0  0  0  0  0  0
  -22.6530  -22.7529   21.9849 C   0  0  0  0  0  0  0  0  0  1  0  0
  -27.4903  -18.9062   18.0032 C   0  0  1  0  0  0  0  0  0  0  0  0
  -26.4300  -15.4449   19.1277 C   0  0  2  0  0  0  0  0  0  0  0  0
  -27.7114  -19.2196   16.4965 C   0  0  0  0  0  0  0  0  0  0  0  0
  -17.8383  -28.2905   22.2889 N   0  0  0  0  0  0  0  0  0  0  0  0
  -26.5837  -28.6731   18.8691 N   0  0  0  0  0  0  0  0  0  0  0  0
  -25.8278  -28.3205   19.9229 N   0  0  0  0  0  0  0  0  0  0  0  0
  -28.2160  -20.3829   19.8516 N   0  0  0  0  0  0  0  0  0  0  0  0
  -24.1906  -31.1011   21.9581 N   0  0  0  0  0  0  0  0  0  0  0  0
  -18.2723  -30.5674   22.7864 N   0  0  0  0  0  0  0  0  0  0  0  0
  -24.5446  -26.5411   20.8159 N   0  0  0  0  0  0  0  0  0  0  0  0
  -26.0572  -24.8725   16.9013 N   0  0  0  0  0  0  0  0  0  0  0  0
  -20.0145  -25.3004   22.4030 N   0  0  0  0  0  0  0  0  0  0  0  0
  -22.1253  -30.1763   22.6535 N   0  0  0  0  0  0  0  0  0  0  0  0
  -30.4854  -23.1787   20.4259 N   0  0  0  0  0  0  0  0  0  0  0  0
  -27.3962  -17.4830   18.3100 N   0  0  0  0  0  0  0  0  0  0  0  0
  -25.7428  -15.0249   20.3817 N   0  3  0  0  0  0  0  0  0  0  0  0
  -20.7269  -30.6833   24.4476 O   0  0  0  0  0  0  0  0  0  0  0  0
  -24.7808  -24.4158   18.7509 O   0  0  0  0  0  0  0  0  0  0  0  0
  -28.7759  -22.6968   18.9199 O   0  0  0  0  0  0  0  0  0  0  0  0
  -29.7534  -19.0652   18.6957 O   0  0  0  0  0  0  0  0  0  0  0  0
  -22.2710  -25.3876   23.0479 O   0  0  0  0  0  0  0  0  0  0  0  0
  -25.2867  -17.5686   19.2690 O   0  0  0  0  0  0  0  0  0  0  0  0
  -23.0661  -31.9377   23.8070 O   0  0  0  0  0  0  0  0  0  0  0  0
  -29.3080  -27.5171   13.2308 O   0  0  0  0  0  0  0  0  0  0  0  0
  -23.6117  -23.0035   23.0117 O   0  0  0  0  0  0  0  0  0  1  0  0
  -34.4557  -29.4926   13.1755 F   0  0  0  0  0  0  0  0  0  0  0  0
  -29.8289  -30.1385   13.9376 F   0  0  0  0  0  0  0  0  0  0  0  0
  1  2  1  0  0  0  0
  1  5  2  0  0  0  0
  2  6  2  0  0  0  0
  3  8  2  0  0  0  0
  3 17  1  0  0  0  0
  4  9  1  0  0  0  0
  4 17  2  0  0  0  0
  5 20  1  0  0  0  0
  6 22  1  0  0  0  0
  7 10  2  0  0  0  0
  7 21  1  0  0  0  0
  8 25  1  0  0  0  0
  9 25  2  0  0  0  0
 10 26  1  0  0  0  0
 11 12  2  0  0  0  0
 11 27  1  0  0  0  0
 12 28  1  0  0  0  0
 13 18  1  0  0  0  0
 13 24  2  0  0  0  0
 14 23  1  0  0  0  0
 14 26  2  0  0  0  0
 15 28  2  0  0  0  0
 15 29  1  0  0  0  0
 16 24  1  0  0  0  0
 16 62  2  0  0  0  0
 17 30  1  0  0  0  0
 18 31  2  0  0  0  0
 18 33  1  0  0  0  0
 19 30  1  0  0  0  0
 19 32  2  0  0  0  0
 19 34  1  0  0  0  0
 20 22  2  0  0  0  0
 20 40  1  0  0  0  0
 21 23  2  0  0  0  0
 21 41  1  0  0  0  0
 22 49  1  0  0  0  0
 23 42  1  0  0  0  0
 24 70  1  0  0  0  0
 25 82  1  0  0  0  0
 26 83  1  0  0  0  0
 27 29  2  0  0  0  0
 27 82  1  0  0  0  0
 28 84  1  0  0  0  0
 29 85  1  0  0  0  0
 30 63  2  0  0  0  0
 31 62  1  0  0  0  0
 31 67  1  0  0  0  0
 32 64  1  0  0  0  0
 32 68  1  0  0  0  0
 33 71  1  0  0  0  0
 33 75  2  0  0  0  0
 34 69  1  0  0  0  0
 34 76  2  0  0  0  0
 35 50  1  0  0  0  0
 35 72  1  0  0  0  0
 35 77  2  0  0  0  0
 36 59  1  0  0  0  0
 36 65  1  0  0  0  0
 36 78  2  0  0  0  0
 37 57  1  0  0  0  0
 37 70  1  0  0  0  0
 37 79  2  0  0  0  0
 38 60  1  0  0  0  0
 38 73  1  0  0  0  0
 38 80  2  0  0  0  0
 39 66  1  0  0  0  0
 39 71  1  0  0  0  0
 39 81  2  0  0  0  0
 40 43  1  0  0  0  0
 41 50  1  0  0  0  0
 42 65  1  0  0  0  0
 43 45  1  0  0  0  0
 44 46  1  0  0  0  0
 44 47  1  0  0  0  0
 45 49  1  0  0  0  0
 46 51  1  0  0  0  0
 47 66  1  0  0  0  0
 48 51  1  0  0  0  0
 48 66  1  0  0  0  0
 49 72  1  0  0  0  0
 50 65  1  0  0  0  0
 51 64  1  0  0  0  0
 52 60  1  0  0  0  0
 53 61  1  0  0  0  0
 54 61  1  0  0  0  0
 55 61  1  0  0  0  0
 56 74  1  0  0  0  0
 57 58  1  0  0  0  0
 58 83  1  0  0  0  0
 59 61  1  0  0  0  0
 59 73  1  0  0  0  0
 60 74  1  0  0  0  0
 63 64  1  0  0  0  0
M  CHG  1  74   1
M  ISO  4  39 100  58 101  71 100  83 101
M  END
> <Batch ID>
0110

> <Smiles>
CNC(C)C(=O)NC(C(=O)N1Cc2cc([101O:1][101CH2:1]CC(=O)Nc3cnc(N)c(C(=O)[100NH:0][100C:0](=O)N4CCCC(n5nc(-c6ccc(Oc7ccc(F)cc7F)cc6)c(C(N)=O)c5N)C4)c3)ccc2CC1C(=O)NC1CCCc2ccccc21)C(C)(C)C

> <Shape>
0.200

> <Color>
0.076

> <Negative vol penalty>
0.000

$$$$

  -OEChem-04052301263D

 85 93  0     1  0  0  0  0  0999 V2000
  -16.7226  -29.8723   24.5169 C   0  0  0  0  0  0  0  0  0  0  0  0
  -17.3382  -28.6348   24.3582 C   0  0  0  0  0  0  0  0  0  0  0  0
  -22.6100  -12.8185   18.8233 C   0  0  0  0  0  0  0  0  0  0  0  0
  -22.6185  -10.6448   19.8779 C   0  0  0  0  0  0  0  0  0  0  0  0
  -17.1012  -30.9462   23.7124 C   0  0  0  0  0  0  0  0  0  0  0  0
  -18.3322  -28.4704   23.3941 C   0  0  0  0  0  0  0  0  0  0  0  0
  -23.2845  -24.8889   23.7858 C   0  0  0  0  0  0  0  0  0  0  0  0
  -21.4303  -12.4900   18.1555 C   0  0  0  0  0  0  0  0  0  0  0  0
  -21.4388  -10.3163   19.2101 C   0  0  0  0  0  0  0  0  0  0  0  0
  -23.5610  -23.6137   23.2948 C   0  0  0  0  0  0  0  0  0  0  0  0
  -18.1358  -10.9547   19.5317 C   0  0  0  0  0  0  0  0  0  0  0  0
  -17.1254  -10.3381   20.2696 C   0  0  0  0  0  0  0  0  0  0  0  0
  -24.6459  -24.5943   21.3762 C   0  0  0  0  0  0  0  0  0  0  0  0
  -29.3893  -19.0703   23.7396 C   0  0  0  0  0  0  0  0  0  0  0  0
  -17.2230   -8.4216   18.8017 C   0  0  0  0  0  0  0  0  0  0  0  0
  -23.2041  -11.8960   19.6845 C   0  0  0  0  0  0  0  0  0  0  0  0
  -24.5439  -12.8470   21.6360 C   0  0  0  0  0  0  0  0  0  0  0  0
  -18.1070  -30.7974   22.7445 C   0  0  0  0  0  0  0  0  0  0  0  0
  -23.6776  -26.0283   23.0691 C   0  0  0  0  0  0  0  0  0  0  0  0
  -18.7236  -29.5430   22.5750 C   0  0  0  0  0  0  0  0  0  0  0  0
  -24.3754  -25.8828   21.8616 C   0  0  0  0  0  0  0  0  0  0  0  0
  -30.6236  -18.6506   24.2264 C   0  0  0  0  0  0  0  0  0  0  0  0
  -31.3346  -17.6617   23.5536 C   0  0  0  0  0  0  0  0  0  0  0  0
  -20.8447  -11.2388   18.3489 C   0  0  0  0  0  0  0  0  0  0  0  0
  -24.2393  -23.4662   22.0884 C   0  0  0  0  0  0  0  0  0  0  0  0
  -18.6898  -10.3048   18.4288 C   0  0  0  0  0  0  0  0  0  0  0  0
  -16.6690   -9.0716   19.9046 C   0  0  0  0  0  0  0  0  0  0  0  0
  -18.2334   -9.0383   18.0638 C   0  0  0  0  0  0  0  0  0  0  0  0
  -24.4231  -12.2346   20.3742 C   0  0  0  0  0  0  0  0  0  0  0  0
  -30.7893  -17.1129   22.4016 C   0  0  0  0  0  0  0  0  0  0  0  0
  -25.8983  -12.9500   21.8393 C   0  0  0  0  0  0  0  0  0  0  0  0
  -28.8932  -18.4860   22.5829 C   0  0  0  0  0  0  0  0  0  0  0  0
  -25.6009  -20.1463   21.9763 C   0  0  0  0  0  0  0  0  0  0  0  0
  -26.7792  -19.7969   22.5072 C   0  0  0  0  0  0  0  0  0  0  0  0
  -23.5230  -13.2836   22.5431 C   0  0  0  0  0  0  0  0  0  0  0  0
  -31.4523  -16.0532   21.5990 C   0  0  0  0  0  0  0  0  0  0  0  0
  -22.1492  -28.4614   21.7098 C   0  0  0  0  0  0  0  0  0  0  0  0
  -25.1578  -29.5716   21.2218 C   0  0  0  0  0  0  0  0  0  0  0  0
  -28.4825  -28.8789   20.8856 C   0  0  0  0  0  0  0  0  0  0  0  0
  -31.0141  -14.1483   20.0814 C   0  0  0  0  0  0  0  0  0  0  0  0
  -18.4492  -31.9748   21.8663 C   0  0  0  0  0  0  0  0  0  0  0  0
  -23.3953  -27.3969   23.6255 C   0  0  0  0  0  0  0  0  0  0  0  0
  -24.8370  -27.0741   21.0639 C   0  0  0  0  0  0  0  0  0  0  0  0
  -19.7730  -31.8157   21.1229 C   0  0  0  0  0  0  0  0  0  0  0  0
  -29.7789  -10.9334   19.2842 C   0  0  0  0  0  0  0  0  0  0  0  0
  -19.8663  -30.4313   20.4891 C   0  0  0  0  0  0  0  0  0  0  0  0
  -28.2854  -11.0301   19.6073 C   0  0  0  0  0  0  0  0  0  0  0  0
  -30.3130  -12.2297   18.6767 C   0  0  0  0  0  0  0  0  0  0  0  0
  -28.5384  -13.5388   19.7699 C   0  0  0  0  0  0  0  0  0  0  0  0
  -19.8232  -29.3316   21.5570 C   0  0  1  0  0  0  0  0  0  0  0  0
  -23.3893  -28.4865   22.5578 C   0  0  1  0  0  0  0  0  0  0  0  0
  -27.9685  -12.2827   20.4487 C   0  0  1  0  0  0  0  0  0  0  0  0
  -30.6922  -29.9881   20.4563 C   0  0  0  0  0  0  0  0  0  0  0  0
  -24.4419  -29.8493   18.2688 C   0  0  0  0  0  0  0  0  0  0  0  0
  -26.8875  -30.0325   17.7649 C   0  0  0  0  0  0  0  0  0  0  0  0
  -25.7799  -31.7456   19.2007 C   0  0  0  0  0  0  0  0  0  0  0  0
  -29.5673  -27.9879   23.4911 C   0  0  0  0  0  0  0  0  0  0  0  0
  -24.7000  -21.1821   22.5644 C   0  0  0  0  0  0  0  0  0  1  0  0
  -26.1857  -29.4278   20.1256 C   0  0  1  0  0  0  0  0  0  0  0  0
  -29.7115  -29.5093   21.5154 C   0  0  2  0  0  0  0  0  0  0  0  0
  -25.8135  -30.2412   18.8538 C   0  0  0  0  0  0  0  0  0  0  0  0
  -25.6064  -11.9675   19.8152 N   0  0  0  0  0  0  0  0  0  0  0  0
  -26.4836  -12.4143   20.7301 N   0  0  0  0  0  0  0  0  0  0  0  0
  -29.5987  -17.5356   21.9548 N   0  3  0  0  0  0  0  0  0  0  0  0
  -24.5316  -28.3912   21.6466 N   0  0  0  0  0  0  0  0  0  0  0  0
  -29.9803  -13.3660   19.5377 N   0  0  0  0  0  0  0  0  0  0  0  0
  -31.1342  -19.2410   25.4038 N   0  0  0  0  0  0  0  0  0  0  0  0
  -32.5878  -17.2219   24.0302 N   0  0  0  0  0  0  0  0  0  0  0  0
  -26.6338  -13.4458   22.8570 N   0  0  0  0  0  0  0  0  0  0  0  0
  -22.1822  -13.1019   22.1778 N   0  0  0  0  0  0  0  0  0  0  0  0
  -27.6537  -18.8679   22.0442 N   0  0  0  0  0  0  0  0  0  0  0  0
  -30.5949  -15.1834   20.9246 N   0  0  0  0  0  0  0  0  0  0  0  0
  -21.1070  -29.2153   22.2148 N   0  0  0  0  0  0  0  0  0  0  0  0
  -27.4674  -29.7967   20.7169 N   0  0  0  0  0  0  0  0  0  0  0  0
  -30.4083  -28.5243   22.3902 N   0  3  0  0  0  0  0  0  0  0  0  0
  -23.7919  -13.8339   23.6379 O   0  0  0  0  0  0  0  0  0  0  0  0
  -32.6786  -16.0252   21.5420 O   0  0  0  0  0  0  0  0  0  0  0  0
  -22.1391  -27.8077   20.6734 O   0  0  0  0  0  0  0  0  0  0  0  0
  -24.9243  -30.6890   21.6892 O   0  0  0  0  0  0  0  0  0  0  0  0
  -28.4298  -27.6920   20.5711 O   0  0  0  0  0  0  0  0  0  0  0  0
  -32.2088  -13.9216   19.8657 O   0  0  0  0  0  0  0  0  0  0  0  0
  -19.6934  -10.9180   17.6977 O   0  0  0  0  0  0  0  0  0  0  0  0
  -24.5099  -22.2226   21.6066 O   0  0  0  0  0  0  0  0  0  1  0  0
  -15.6998   -8.4789   20.6142 F   0  0  0  0  0  0  0  0  0  0  0  0
  -18.7626   -8.4084   17.0059 F   0  0  0  0  0  0  0  0  0  0  0  0
  1  2  1  0  0  0  0
  1  5  2  0  0  0  0
  2  6  2  0  0  0  0
  3  8  2  0  0  0  0
  3 16  1  0  0  0  0
  4  9  1  0  0  0  0
  4 16  2  0  0  0  0
  5 18  1  0  0  0  0
  6 20  1  0  0  0  0
  7 10  2  0  0  0  0
  7 19  1  0  0  0  0
  8 24  1  0  0  0  0
  9 24  2  0  0  0  0
 10 25  1  0  0  0  0
 11 12  2  0  0  0  0
 11 26  1  0  0  0  0
 12 27  1  0  0  0  0
 13 21  1  0  0  0  0
 13 25  2  0  0  0  0
 14 22  2  0  0  0  0
 14 32  1  0  0  0  0
 15 27  2  0  0  0  0
 15 28  1  0  0  0  0
 16 29  1  0  0  0  0
 17 29  1  0  0  0  0
 17 31  2  0  0  0  0
 17 35  1  0  0  0  0
 18 20  2  0  0  0  0
 18 41  1  0  0  0  0
 19 21  2  0  0  0  0
 19 42  1  0  0  0  0
 20 50  1  0  0  0  0
 21 43  1  0  0  0  0
 22 23  1  0  0  0  0
 22 67  1  0  0  0  0
 23 30  2  0  0  0  0
 23 68  1  0  0  0  0
 24 82  1  0  0  0  0
 25 83  1  0  0  0  0
 26 28  2  0  0  0  0
 26 82  1  0  0  0  0
 27 84  1  0  0  0  0
 28 85  1  0  0  0  0
 29 62  2  0  0  0  0
 30 36  1  0  0  0  0
 30 64  1  0  0  0  0
 31 63  1  0  0  0  0
 31 69  1  0  0  0  0
 32 64  2  0  0  0  0
 32 71  1  0  0  0  0
 33 34  2  0  0  0  0
 33 58  1  0  0  0  0
 34 71  1  0  0  0  0
 35 70  1  0  0  0  0
 35 76  2  0  0  0  0
 36 72  1  0  0  0  0
 36 77  2  0  0  0  0
 37 51  1  0  0  0  0
 37 73  1  0  0  0  0
 37 78  2  0  0  0  0
 38 59  1  0  0  0  0
 38 65  1  0  0  0  0
 38 79  2  0  0  0  0
 39 60  1  0  0  0  0
 39 74  1  0  0  0  0
 39 80  2  0  0  0  0
 40 66  1  0  0  0  0
 40 72  1  0  0  0  0
 40 81  2  0  0  0  0
 41 44  1  0  0  0  0
 42 51  1  0  0  0  0
 43 65  1  0  0  0  0
 44 46  1  0  0  0  0
 45 47  1  0  0  0  0
 45 48  1  0  0  0  0
 46 50  1  0  0  0  0
 47 52  1  0  0  0  0
 48 66  1  0  0  0  0
 49 52  1  0  0  0  0
 49 66  1  0  0  0  0
 50 73  1  0  0  0  0
 51 65  1  0  0  0  0
 52 63  1  0  0  0  0
 53 60  1  0  0  0  0
 54 61  1  0  0  0  0
 55 61  1  0  0  0  0
 56 61  1  0  0  0  0
 57 75  1  0  0  0  0
 58 83  1  0  0  0  0
 59 61  1  0  0  0  0
 59 74  1  0  0  0  0
 60 75  1  0  0  0  0
 62 63  1  0  0  0  0
M  CHG  2  64   1  75   1
M  ISO  4  40 100  58 101  72 100  83 101
M  END
> <Batch ID>
0110

> <Smiles>
CNC(C)C(=O)NC(C(=O)N1Cc2cc([101O:1][101CH2:1]C=CNc3cc(N)c(N)c(C(=O)[100NH:0][100C:0](=O)N4CCCC(n5nc(-c6ccc(Oc7ccc(F)cc7F)cc6)c(C(N)=O)c5N)C4)n3)ccc2CC1C(=O)NC1CCCc2ccccc21)C(C)(C)C

> <Shape>
0.211

> <Color>
0.099

> <Negative vol penalty>
0.000

$$$$

  -OEChem-04052301263D

 86 94  0     1  0  0  0  0  0999 V2000
  -31.7233  -34.4096   22.6483 C   0  0  0  0  0  0  0  0  0  0  0  0
  -31.6857  -33.0238   22.5315 C   0  0  0  0  0  0  0  0  0  0  0  0
  -24.1791  -14.3215   23.7782 C   0  0  0  0  0  0  0  0  0  0  0  0
  -23.3420  -15.5815   21.8944 C   0  0  0  0  0  0  0  0  0  0  0  0
  -30.6960  -35.0803   23.3107 C   0  0  0  0  0  0  0  0  0  0  0  0
  -30.6212  -32.3078   23.0781 C   0  0  0  0  0  0  0  0  0  0  0  0
  -28.0716  -27.2131   20.8310 C   0  0  0  0  0  0  0  0  0  0  0  0
  -23.5447  -15.2052   24.6512 C   0  0  0  0  0  0  0  0  0  0  0  0
  -22.7075  -16.4652   22.7674 C   0  0  0  0  0  0  0  0  0  0  0  0
  -28.2387  -25.8645   21.1427 C   0  0  0  0  0  0  0  0  0  0  0  0
  -20.4170  -15.7355   25.8213 C   0  0  0  0  0  0  0  0  0  0  0  0
  -19.7065  -15.1915   26.8912 C   0  0  0  0  0  0  0  0  0  0  0  0
  -26.3158  -25.9682   22.5956 C   0  0  0  0  0  0  0  0  0  0  0  0
  -29.3842  -18.1866   19.5596 C   0  0  0  0  0  0  0  0  0  0  0  0
  -27.5058  -16.8494   17.9892 C   0  0  0  0  0  0  0  0  0  0  0  0
  -21.1330  -16.3756   28.4405 C   0  0  0  0  0  0  0  0  0  0  0  0
  -24.0778  -14.5097   22.3998 C   0  0  0  0  0  0  0  0  0  0  0  0
  -24.2000  -12.4176   20.9451 C   0  0  0  0  0  0  0  0  0  0  0  0
  -29.6136  -34.3731   23.8572 C   0  0  0  0  0  0  0  0  0  0  0  0
  -27.0301  -27.9534   21.4087 C   0  0  0  0  0  0  0  0  0  0  0  0
  -29.5791  -32.9697   23.7495 C   0  0  0  0  0  0  0  0  0  0  0  0
  -26.1361  -27.3254   22.2877 C   0  0  0  0  0  0  0  0  0  0  0  0
  -29.8021  -17.2248   18.6398 C   0  0  0  0  0  0  0  0  0  0  0  0
  -28.8629  -16.5563   17.8546 C   0  0  0  0  0  0  0  0  0  0  0  0
  -27.0880  -17.8112   18.9090 C   0  0  0  0  0  0  0  0  0  0  0  0
  -22.8088  -16.2770   24.1459 C   0  0  0  0  0  0  0  0  0  0  0  0
  -27.3625  -25.2426   22.0273 C   0  0  0  0  0  0  0  0  0  0  0  0
  -21.4855  -16.5995   26.0608 C   0  0  0  0  0  0  0  0  0  0  0  0
  -28.0271  -18.4797   19.6942 C   0  0  0  0  0  0  0  0  0  0  0  0
  -20.0645  -15.5115   28.2008 C   0  0  0  0  0  0  0  0  0  0  0  0
  -21.8435  -16.9195   27.3704 C   0  0  0  0  0  0  0  0  0  0  0  0
  -24.7335  -13.5975   21.4975 C   0  0  0  0  0  0  0  0  0  0  0  0
  -25.2108  -11.9181   20.1607 C   0  0  0  0  0  0  0  0  0  0  0  0
  -29.3865  -14.7621   14.6414 C   0  0  0  0  0  0  0  0  0  0  0  0
  -29.0110  -15.6787   15.5409 C   0  0  0  0  0  0  0  0  0  0  0  0
  -22.9064  -11.8261   21.1249 C   0  0  0  0  0  0  0  0  0  0  0  0
  -26.8717  -30.4932   23.3135 C   0  0  0  0  0  0  0  0  0  0  0  0
  -23.6871  -30.2253   22.7579 C   0  0  0  0  0  0  0  0  0  0  0  0
  -21.0568  -28.2369   21.8779 C   0  0  0  0  0  0  0  0  0  0  0  0
  -29.8309  -14.3375   17.3724 C   0  0  0  0  0  0  0  0  0  0  0  0
  -28.5504  -35.1376   24.6054 C   0  0  0  0  0  0  0  0  0  0  0  0
  -26.8473  -29.4005   21.0416 C   0  0  0  0  0  0  0  0  0  0  0  0
  -24.9897  -28.0706   22.9191 C   0  0  0  0  0  0  0  0  0  0  0  0
  -27.2694  -34.3382   24.8299 C   0  0  0  0  0  0  0  0  0  0  0  0
  -29.9705  -11.8177   19.7848 C   0  0  0  0  0  0  0  0  0  0  0  0
  -27.5965  -32.9366   25.3350 C   0  0  0  0  0  0  0  0  0  0  0  0
  -28.5975  -11.8710   20.4540 C   0  0  0  0  0  0  0  0  0  0  0  0
  -30.4894  -13.2200   19.4883 C   0  0  0  0  0  0  0  0  0  0  0  0
  -28.1848  -14.1030   19.3070 C   0  0  0  0  0  0  0  0  0  0  0  0
  -28.4288  -32.1600   24.3075 C   0  0  1  0  0  0  0  0  0  0  0  0
  -26.0612  -30.1872   22.0858 C   0  0  1  0  0  0  0  0  0  0  0  0
  -27.6096  -12.7075   19.6219 C   0  0  2  0  0  0  0  0  0  0  0  0
  -31.2620  -16.9315   18.5160 C   0  0  0  0  0  0  0  0  0  0  0  0
  -29.1101  -14.8779   13.1789 C   0  0  0  0  0  0  0  0  0  0  0  0
  -18.5698  -28.2918   21.5478 C   0  0  0  0  0  0  0  0  0  0  0  0
  -23.2877  -30.2091   25.7829 C   0  0  0  0  0  0  0  0  0  0  0  0
  -20.9770  -29.3233   25.4030 C   0  0  0  0  0  0  0  0  0  0  0  0
  -21.6121  -31.5669   24.5166 C   0  0  0  0  0  0  0  0  0  0  0  0
  -21.3024  -27.4914   19.0243 C   0  0  0  0  0  0  0  0  0  0  0  0
  -27.5827  -21.6696   21.4825 C   0  0  0  0  0  0  0  0  0  0  0  0
  -28.0991  -23.0916   21.3296 C   0  0  0  0  0  0  0  0  0  1  0  0
  -28.1513  -20.7406   20.4214 C   0  0  0  0  0  0  0  0  0  0  0  0
  -22.5450  -29.4902   23.4169 C   0  0  1  0  0  0  0  0  0  0  0  0
  -19.9291  -28.4404   20.8823 C   0  0  2  0  0  0  0  0  0  0  0  0
  -22.1281  -30.1336   24.7696 C   0  0  0  0  0  0  0  0  0  0  0  0
  -25.9860  -13.8334   21.0980 N   0  0  0  0  0  0  0  0  0  0  0  0
  -26.2480  -12.7949   20.2863 N   0  0  0  0  0  0  0  0  0  0  0  0
  -24.8566  -29.4853   22.5335 N   0  0  0  0  0  0  0  0  0  0  0  0
  -29.5210  -13.9838   18.7008 N   0  0  0  0  0  0  0  0  0  0  0  0
  -25.7112  -18.0973   19.0361 N   0  0  0  0  0  0  0  0  0  0  0  0
  -25.3048  -10.8189   19.3828 N   0  0  0  0  0  0  0  0  0  0  0  0
  -21.9880  -12.4704   21.9650 N   0  0  0  0  0  0  0  0  0  0  0  0
  -27.5849  -31.6743   23.2368 N   0  0  0  0  0  0  0  0  0  0  0  0
  -21.4737  -29.4303   22.4285 N   0  0  0  0  0  0  0  0  0  0  0  0
  -29.2771  -15.5537   16.8948 N   0  0  0  0  0  0  0  0  0  0  0  0
  -20.0245  -27.4418   19.7802 N   0  3  0  0  0  0  0  0  0  0  0  0
  -22.5805  -10.7492   20.5704 O   0  0  0  0  0  0  0  0  0  0  0  0
  -26.8505  -29.7160   24.2607 O   0  0  0  0  0  0  0  0  0  0  0  0
  -23.5442  -31.4105   22.4470 O   0  0  0  0  0  0  0  0  0  0  0  0
  -21.5190  -27.1295   22.1435 O   0  0  0  0  0  0  0  0  0  0  0  0
  -30.5652  -13.6346   16.6659 O   0  0  0  0  0  0  0  0  0  0  0  0
  -22.1894  -17.1393   24.9975 O   0  0  0  0  0  0  0  0  0  0  0  0
  -27.5237  -23.9265   22.3337 O   0  0  0  0  0  0  0  0  0  1  0  0
  -27.6369  -19.4283   20.6034 O   0  0  0  0  0  0  0  0  0  0  0  0
  -19.3811  -14.9903   29.2282 F   0  0  0  0  0  0  0  0  0  0  0  0
  -22.8684  -17.7499   27.6068 F   0  0  0  0  0  0  0  0  0  0  0  0
  1  2  1  0  0  0  0
  1  5  2  0  0  0  0
  2  6  2  0  0  0  0
  3  8  2  0  0  0  0
  3 17  1  0  0  0  0
  4  9  1  0  0  0  0
  4 17  2  0  0  0  0
  5 19  1  0  0  0  0
  6 21  1  0  0  0  0
  7 10  2  0  0  0  0
  7 20  1  0  0  0  0
  8 26  1  0  0  0  0
  9 26  2  0  0  0  0
 10 27  1  0  0  0  0
 11 12  2  0  0  0  0
 11 28  1  0  0  0  0
 12 30  1  0  0  0  0
 13 22  1  0  0  0  0
 13 27  2  0  0  0  0
 14 23  1  0  0  0  0
 14 29  2  0  0  0  0
 15 24  1  0  0  0  0
 15 25  2  0  0  0  0
 16 30  2  0  0  0  0
 16 31  1  0  0  0  0
 17 32  1  0  0  0  0
 18 32  1  0  0  0  0
 18 33  2  0  0  0  0
 18 36  1  0  0  0  0
 19 21  2  0  0  0  0
 19 41  1  0  0  0  0
 20 22  2  0  0  0  0
 20 42  1  0  0  0  0
 21 50  1  0  0  0  0
 22 43  1  0  0  0  0
 23 24  2  0  0  0  0
 23 53  1  0  0  0  0
 24 75  1  0  0  0  0
 25 29  1  0  0  0  0
 25 70  1  0  0  0  0
 26 82  1  0  0  0  0
 27 83  1  0  0  0  0
 28 31  2  0  0  0  0
 28 82  1  0  0  0  0
 29 84  1  0  0  0  0
 30 85  1  0  0  0  0
 31 86  1  0  0  0  0
 32 66  2  0  0  0  0
 33 67  1  0  0  0  0
 33 71  1  0  0  0  0
 34 35  2  0  0  0  0
 34 54  1  0  0  0  0
 35 75  1  0  0  0  0
 36 72  1  0  0  0  0
 36 77  2  0  0  0  0
 37 51  1  0  0  0  0
 37 73  1  0  0  0  0
 37 78  2  0  0  0  0
 38 63  1  0  0  0  0
 38 68  1  0  0  0  0
 38 79  2  0  0  0  0
 39 64  1  0  0  0  0
 39 74  1  0  0  0  0
 39 80  2  0  0  0  0
 40 69  1  0  0  0  0
 40 75  1  0  0  0  0
 40 81  2  0  0  0  0
 41 44  1  0  0  0  0
 42 51  1  0  0  0  0
 43 68  1  0  0  0  0
 44 46  1  0  0  0  0
 45 47  1  0  0  0  0
 45 48  1  0  0  0  0
 46 50  1  0  0  0  0
 47 52  1  0  0  0  0
 48 69  1  0  0  0  0
 49 52  1  0  0  0  0
 49 69  1  0  0  0  0
 50 73  1  0  0  0  0
 51 68  1  0  0  0  0
 52 67  1  0  0  0  0
 55 64  1  0  0  0  0
 56 65  1  0  0  0  0
 57 65  1  0  0  0  0
 58 65  1  0  0  0  0
 59 76  1  0  0  0  0
 60 61  1  0  0  0  0
 60 62  1  0  0  0  0
 61 83  1  0  0  0  0
 62 84  1  0  0  0  0
 63 65  1  0  0  0  0
 63 74  1  0  0  0  0
 64 76  1  0  0  0  0
 66 67  1  0  0  0  0
M  CHG  1  76   1
M  ISO  4  40 100  61 101  75 100  83 101
M  END
> <Batch ID>
0110

> <Smiles>
CC=C[100N:0](c1cc(N)c(OCC[101CH2:1][101O:1]c2ccc3c(c2)CN(C(=O)C(NC(=O)C(C)NC)C(C)(C)C)C(C(=O)NC2CCCc4ccccc42)C3)cc1C)[100C:0](=O)N1CCCC(n2nc(-c3ccc(Oc4ccc(F)cc4F)cc3)c(C(N)=O)c2N)C1

> <Shape>
0.234

> <Color>
0.077

> <Negative vol penalty>
0.000

$$$$

  -OEChem-04052301263D

 87 95  0     1  0  0  0  0  0999 V2000
  -29.7888  -33.2596   25.2880 C   0  0  0  0  0  0  0  0  0  0  0  0
  -29.6609  -32.1282   24.4886 C   0  0  0  0  0  0  0  0  0  0  0  0
  -23.8724   -9.6554   21.3922 C   0  0  0  0  0  0  0  0  0  0  0  0
  -24.3788  -10.7153   23.5034 C   0  0  0  0  0  0  0  0  0  0  0  0
  -28.7386  -33.6466   26.1194 C   0  0  0  0  0  0  0  0  0  0  0  0
  -28.4831  -31.3825   24.5210 C   0  0  0  0  0  0  0  0  0  0  0  0
  -26.8684  -30.0992   19.8960 C   0  0  0  0  0  0  0  0  0  0  0  0
  -23.3650   -8.5472   22.0703 C   0  0  0  0  0  0  0  0  0  0  0  0
  -23.8713   -9.6071   24.1815 C   0  0  0  0  0  0  0  0  0  0  0  0
  -27.5157  -29.0361   19.2678 C   0  0  0  0  0  0  0  0  0  0  0  0
  -20.5176   -7.7059   23.6882 C   0  0  0  0  0  0  0  0  0  0  0  0
  -19.3051   -7.1756   23.2476 C   0  0  0  0  0  0  0  0  0  0  0  0
  -25.7089  -27.5691   19.9023 C   0  0  0  0  0  0  0  0  0  0  0  0
  -29.2803  -18.7371   19.2665 C   0  0  0  0  0  0  0  0  0  0  0  0
  -30.1966  -19.4816   21.3743 C   0  0  0  0  0  0  0  0  0  0  0  0
  -20.3894   -5.0619   22.8074 C   0  0  0  0  0  0  0  0  0  0  0  0
  -24.3794  -10.7395   22.1088 C   0  0  0  0  0  0  0  0  0  0  0  0
  -24.1957  -13.0312   21.0033 C   0  0  0  0  0  0  0  0  0  0  0  0
  -27.5437  -32.9108   26.1549 C   0  0  0  0  0  0  0  0  0  0  0  0
  -25.6396  -29.9026   20.5425 C   0  0  0  0  0  0  0  0  0  0  0  0
  -27.4164  -31.7593   25.3547 C   0  0  0  0  0  0  0  0  0  0  0  0
  -25.0468  -28.6319   20.5357 C   0  0  0  0  0  0  0  0  0  0  0  0
  -29.7633  -18.4488   20.5429 C   0  0  0  0  0  0  0  0  0  0  0  0
  -29.2307  -20.0581   18.8214 C   0  0  0  0  0  0  0  0  0  0  0  0
  -23.3643   -8.5230   23.4649 C   0  0  0  0  0  0  0  0  0  0  0  0
  -26.9373  -27.7702   19.2734 C   0  0  0  0  0  0  0  0  0  0  0  0
  -21.6661   -6.9142   23.6884 C   0  0  0  0  0  0  0  0  0  0  0  0
  -30.1469  -20.8027   20.9292 C   0  0  0  0  0  0  0  0  0  0  0  0
  -29.6640  -21.0909   19.6528 C   0  0  0  0  0  0  0  0  0  0  0  0
  -19.2409   -5.8537   22.8072 C   0  0  0  0  0  0  0  0  0  0  0  0
  -21.6019   -5.5922   23.2480 C   0  0  0  0  0  0  0  0  0  0  0  0
  -24.9043  -11.8844   21.4089 C   0  0  0  0  0  0  0  0  0  0  0  0
  -25.1378  -13.8159   20.3844 C   0  0  0  0  0  0  0  0  0  0  0  0
  -28.9635  -17.4679   23.2020 C   0  0  0  0  0  0  0  0  0  0  0  0
  -29.6866  -16.7461   22.3429 C   0  0  0  0  0  0  0  0  0  0  0  0
  -22.8098  -13.3580   21.1711 C   0  0  0  0  0  0  0  0  0  0  0  0
  -24.6073  -30.1944   23.5346 C   0  0  0  0  0  0  0  0  0  0  0  0
  -28.5525  -24.5407   18.9691 C   0  0  0  0  0  0  0  0  0  0  0  0
  -21.7249  -29.5578   22.1897 C   0  0  0  0  0  0  0  0  0  0  0  0
  -19.9746  -28.1637   19.6129 C   0  0  0  0  0  0  0  0  0  0  0  0
  -30.1709  -16.0587   20.0804 C   0  0  0  0  0  0  0  0  0  0  0  0
  -26.4540  -33.3411   27.1047 C   0  0  0  0  0  0  0  0  0  0  0  0
  -24.9413  -31.0654   21.1925 C   0  0  0  0  0  0  0  0  0  0  0  0
  -23.7193  -28.3726   21.1982 C   0  0  0  0  0  0  0  0  0  0  0  0
  -25.0975  -32.7099   26.8016 C   0  0  0  0  0  0  0  0  0  0  0  0
  -29.8606  -12.7775   18.9290 C   0  0  0  0  0  0  0  0  0  0  0  0
  -25.2484  -31.2119   26.5572 C   0  0  0  0  0  0  0  0  0  0  0  0
  -28.4894  -12.3355   19.4392 C   0  0  0  0  0  0  0  0  0  0  0  0
  -30.5892  -13.6148   19.9739 C   0  0  0  0  0  0  0  0  0  0  0  0
  -28.4465  -14.3875   20.9410 C   0  0  0  0  0  0  0  0  0  0  0  0
  -26.1451  -30.9385   25.3436 C   0  0  1  0  0  0  0  0  0  0  0  0
  -23.9416  -30.6395   22.2632 C   0  0  1  0  0  0  0  0  0  0  0  0
  -27.6626  -13.5422   19.9170 C   0  0  2  0  0  0  0  0  0  0  0  0
  -17.6300  -27.7676   18.8108 C   0  0  0  0  0  0  0  0  0  0  0  0
  -21.4078  -27.3133   24.2323 C   0  0  0  0  0  0  0  0  0  0  0  0
  -19.5662  -26.3794   22.8165 C   0  0  0  0  0  0  0  0  0  0  0  0
  -19.3349  -28.6507   23.8217 C   0  0  0  0  0  0  0  0  0  0  0  0
  -20.4257  -29.7447   17.1520 C   0  0  0  0  0  0  0  0  0  0  0  0
  -31.0536  -21.4210   23.0391 C   0  0  0  0  0  0  0  0  0  0  0  0
  -27.3475  -25.4287   19.2028 C   0  0  0  0  0  0  0  0  0  1  0  0
  -28.4361  -23.1206   19.4835 C   0  0  0  0  0  0  0  0  0  0  0  0
  -20.9357  -28.3049   21.8956 C   0  0  1  0  0  0  0  0  0  0  0  0
  -18.8332  -28.6966   18.7658 C   0  0  2  0  0  0  0  0  0  0  0  0
  -20.3371  -27.6662   23.1806 C   0  0  0  0  0  0  0  0  0  0  0  0
  -26.1968  -11.9322   21.0755 N   0  0  0  0  0  0  0  0  0  0  0  0
  -26.3078  -13.1185   20.4538 N   0  0  0  0  0  0  0  0  0  0  0  0
  -23.0787  -29.5403   21.8256 N   0  0  0  0  0  0  0  0  0  0  0  0
  -29.7696  -14.7477   20.4054 N   0  0  0  0  0  0  0  0  0  0  0  0
  -28.7398  -20.3350   17.5264 N   0  0  0  0  0  0  0  0  0  0  0  0
  -25.0713  -15.0276   19.7929 N   0  0  0  0  0  0  0  0  0  0  0  0
  -21.9818  -12.4391   21.8302 N   0  0  0  0  0  0  0  0  0  0  0  0
  -25.4124  -31.1561   24.1146 N   0  0  0  0  0  0  0  0  0  0  0  0
  -19.9420  -28.6743   20.8933 N   0  0  0  0  0  0  0  0  0  0  0  0
  -29.8175  -17.0768   21.0039 N   0  0  0  0  0  0  0  0  0  0  0  0
  -19.2642  -28.8390   17.3463 N   0  3  0  0  0  0  0  0  0  0  0  0
  -22.3168  -14.4257   20.7347 O   0  0  0  0  0  0  0  0  0  0  0  0
  -24.4042  -29.0628   23.9588 O   0  0  0  0  0  0  0  0  0  0  0  0
  -29.5628  -24.9478   18.3976 O   0  0  0  0  0  0  0  0  0  0  0  0
  -21.1592  -30.5191   22.7164 O   0  0  0  0  0  0  0  0  0  0  0  0
  -20.8093  -27.3707   19.1829 O   0  0  0  0  0  0  0  0  0  0  0  0
  -30.8163  -16.3065   19.0537 O   0  0  0  0  0  0  0  0  0  0  0  0
  -22.8690   -7.4418   24.1269 O   0  0  0  0  0  0  0  0  0  0  0  0
  -30.5750  -21.8018   21.7507 O   0  0  0  0  0  0  0  0  0  0  0  0
  -27.5673  -26.7306   18.6615 O   0  0  0  0  0  0  0  0  0  1  0  0
  -29.6190  -22.3955   19.2213 O   0  0  0  0  0  0  0  0  0  0  0  0
  -18.0761   -5.3442   22.3855 F   0  0  0  0  0  0  0  0  0  0  0  0
  -22.7016   -4.8264   23.2470 F   0  0  0  0  0  0  0  0  0  0  0  0
  1  2  1  0  0  0  0
  1  5  2  0  0  0  0
  2  6  2  0  0  0  0
  3  8  2  0  0  0  0
  3 17  1  0  0  0  0
  4  9  1  0  0  0  0
  4 17  2  0  0  0  0
  5 19  1  0  0  0  0
  6 21  1  0  0  0  0
  7 10  2  0  0  0  0
  7 20  1  0  0  0  0
  8 25  1  0  0  0  0
  9 25  2  0  0  0  0
 10 26  1  0  0  0  0
 11 12  2  0  0  0  0
 11 27  1  0  0  0  0
 12 30  1  0  0  0  0
 13 22  1  0  0  0  0
 13 26  2  0  0  0  0
 14 23  1  0  0  0  0
 14 24  2  0  0  0  0
 15 23  2  0  0  0  0
 15 28  1  0  0  0  0
 16 30  2  0  0  0  0
 16 31  1  0  0  0  0
 17 32  1  0  0  0  0
 18 32  1  0  0  0  0
 18 33  2  0  0  0  0
 18 36  1  0  0  0  0
 19 21  2  0  0  0  0
 19 42  1  0  0  0  0
 20 22  2  0  0  0  0
 20 43  1  0  0  0  0
 21 51  1  0  0  0  0
 22 44  1  0  0  0  0
 23 74  1  0  0  0  0
 24 29  1  0  0  0  0
 24 69  1  0  0  0  0
 25 82  1  0  0  0  0
 26 84  1  0  0  0  0
 27 31  2  0  0  0  0
 27 82  1  0  0  0  0
 28 29  2  0  0  0  0
 28 83  1  0  0  0  0
 29 85  1  0  0  0  0
 30 86  1  0  0  0  0
 31 87  1  0  0  0  0
 32 65  2  0  0  0  0
 33 66  1  0  0  0  0
 33 70  1  0  0  0  0
 34 35  2  0  0  0  0
 35 74  1  0  0  0  0
 36 71  1  0  0  0  0
 36 76  2  0  0  0  0
 37 52  1  0  0  0  0
 37 72  1  0  0  0  0
 37 77  2  0  0  0  0
 38 60  1  0  0  0  0
 38 61  1  0  0  0  0
 38 78  2  0  0  0  0
 39 62  1  0  0  0  0
 39 67  1  0  0  0  0
 39 79  2  0  0  0  0
 40 63  1  0  0  0  0
 40 73  1  0  0  0  0
 40 80  2  0  0  0  0
 41 68  1  0  0  0  0
 41 74  1  0  0  0  0
 41 81  2  0  0  0  0
 42 45  1  0  0  0  0
 43 52  1  0  0  0  0
 44 67  1  0  0  0  0
 45 47  1  0  0  0  0
 46 48  1  0  0  0  0
 46 49  1  0  0  0  0
 47 51  1  0  0  0  0
 48 53  1  0  0  0  0
 49 68  1  0  0  0  0
 50 53  1  0  0  0  0
 50 68  1  0  0  0  0
 51 72  1  0  0  0  0
 52 67  1  0  0  0  0
 53 66  1  0  0  0  0
 54 63  1  0  0  0  0
 55 64  1  0  0  0  0
 56 64  1  0  0  0  0
 57 64  1  0  0  0  0
 58 75  1  0  0  0  0
 59 83  1  0  0  0  0
 60 84  1  0  0  0  0
 61 85  1  0  0  0  0
 62 64  1  0  0  0  0
 62 73  1  0  0  0  0
 63 75  1  0  0  0  0
 65 66  1  0  0  0  0
M  CHG  1  75   1
M  ISO  4  41 100  60 101  74 100  84 101
M  END
> <Batch ID>
0110

> <Smiles>
C=C[100N:0](c1cc(N)c(OCC(=O)[101CH2:1][101O:1]c2ccc3c(c2)CN(C(=O)C(NC(=O)C(C)NC)C(C)(C)C)C(C(=O)NC2CCCc4ccccc42)C3)c(OC)c1)[100C:0](=O)N1CCCC(n2nc(-c3ccc(Oc4ccc(F)cc4F)cc3)c(C(N)=O)c2N)C1

> <Shape>
0.391

> <Color>
0.146

> <Negative vol penalty>
0.000

$$$$

  -OEChem-04052301263D

 87 96  0     1  0  0  0  0  0999 V2000
  -23.2323  -35.1000   20.3779 C   0  0  0  0  0  0  0  0  0  0  0  0
  -24.0648  -34.0083   20.1532 C   0  0  0  0  0  0  0  0  0  0  0  0
  -22.8339  -10.6478   21.7909 C   0  0  0  0  0  0  0  0  0  0  0  0
  -24.3010   -9.3561   20.3710 C   0  0  0  0  0  0  0  0  0  0  0  0
  -23.4271  -35.9044   21.5000 C   0  0  0  0  0  0  0  0  0  0  0  0
  -25.0933  -33.7209   21.0499 C   0  0  0  0  0  0  0  0  0  0  0  0
  -25.3665  -28.7916   22.1778 C   0  0  0  0  0  0  0  0  0  0  0  0
  -22.1704   -9.4801   22.1676 C   0  0  0  0  0  0  0  0  0  0  0  0
  -23.6375   -8.1884   20.7477 C   0  0  0  0  0  0  0  0  0  0  0  0
  -25.9638  -27.9550   21.2359 C   0  0  0  0  0  0  0  0  0  0  0  0
  -19.8307   -7.4156   20.8685 C   0  0  0  0  0  0  0  0  0  0  0  0
  -18.4362   -7.4414   20.8895 C   0  0  0  0  0  0  0  0  0  0  0  0
  -28.0080  -27.9828   22.5163 C   0  0  0  0  0  0  0  0  0  0  0  0
  -18.4619   -6.9069   23.2455 C   0  0  0  0  0  0  0  0  0  0  0  0
  -29.7141  -19.0938   20.5996 C   0  0  0  0  0  0  0  0  0  0  0  0
  -23.8992  -10.5858   20.8925 C   0  0  0  0  0  0  0  0  0  0  0  0
  -24.0298  -12.9153   19.8610 C   0  0  0  0  0  0  0  0  0  0  0  0
  -24.4524  -35.6211   22.4160 C   0  0  0  0  0  0  0  0  0  0  0  0
  -26.0902  -29.2396   23.2923 C   0  0  0  0  0  0  0  0  0  0  0  0
  -25.3028  -34.5230   22.1845 C   0  0  0  0  0  0  0  0  0  0  0  0
  -27.4169  -28.8229   23.4723 C   0  0  0  0  0  0  0  0  0  0  0  0
  -28.5728  -18.5765   21.1776 C   0  0  0  0  0  0  0  0  0  0  0  0
  -22.5722   -8.2504   21.6461 C   0  0  0  0  0  0  0  0  0  0  0  0
  -27.2856  -27.5529   21.4035 C   0  0  0  0  0  0  0  0  0  0  0  0
  -20.5408   -7.1353   22.0359 C   0  0  0  0  0  0  0  0  0  0  0  0
  -17.7518   -7.1871   22.0780 C   0  0  0  0  0  0  0  0  0  0  0  0
  -19.8563   -6.8810   23.2244 C   0  0  0  0  0  0  0  0  0  0  0  0
  -24.5846  -11.7917   20.5026 C   0  0  0  0  0  0  0  0  0  0  0  0
  -27.4816  -19.4208   21.2040 C   0  0  0  0  0  0  0  0  0  0  0  0
  -25.0852  -13.7816   19.7123 C   0  0  0  0  0  0  0  0  0  0  0  0
  -28.6642  -21.0636   20.1697 C   0  0  0  0  0  0  0  0  0  0  0  0
  -27.8010  -24.6064   19.3846 C   0  0  0  0  0  0  0  0  0  0  0  0
  -27.9550  -23.4681   20.1038 C   0  0  0  0  0  0  0  0  0  0  0  0
  -28.4248  -24.6709   18.0202 C   0  0  0  0  0  0  0  0  0  0  0  0
  -22.6811  -13.1545   19.4374 C   0  0  0  0  0  0  0  0  0  0  0  0
  -27.0026  -32.0840   24.3788 C   0  0  0  0  0  0  0  0  0  0  0  0
  -28.0175  -30.3514   26.9264 C   0  0  0  0  0  0  0  0  0  0  0  0
  -29.6949  -27.2037   27.4704 C   0  0  0  0  0  0  0  0  0  0  0  0
  -29.6046  -16.3425   21.7171 C   0  0  0  0  0  0  0  0  0  0  0  0
  -24.6539  -36.5470   23.5893 C   0  0  0  0  0  0  0  0  0  0  0  0
  -25.4232  -30.1201   24.3132 C   0  0  0  0  0  0  0  0  0  0  0  0
  -28.2307  -29.2595   24.6620 C   0  0  0  0  0  0  0  0  0  0  0  0
  -29.0695  -23.4249   17.4626 C   0  0  0  0  0  0  0  0  0  0  0  0
  -25.5308  -35.9543   24.6894 C   0  0  0  0  0  0  0  0  0  0  0  0
  -30.0511  -13.0702   20.3867 C   0  0  0  0  0  0  0  0  0  0  0  0
  -26.7804  -35.3166   24.0905 C   0  0  0  0  0  0  0  0  0  0  0  0
  -28.6231  -12.5383   20.2455 C   0  0  0  0  0  0  0  0  0  0  0  0
  -29.6865  -22.5721   18.5572 C   0  0  0  0  0  0  0  0  0  0  0  0
  -30.2134  -13.9347   21.6358 C   0  0  0  0  0  0  0  0  0  0  0  0
  -27.8150  -14.4975   21.6223 C   0  0  0  0  0  0  0  0  0  0  0  0
  -26.4138  -34.1644   23.1474 C   0  0  1  0  0  0  0  0  0  0  0  0
  -26.4146  -30.9310   25.1420 C   0  0  1  0  0  0  0  0  0  0  0  0
  -27.5862  -13.6744   20.3441 C   0  0  2  0  0  0  0  0  0  0  0  0
  -27.3963  -23.3816   21.5109 C   0  0  0  0  0  0  0  0  0  0  0  0
  -29.6287  -25.6370   29.4295 C   0  0  0  0  0  0  0  0  0  0  0  0
  -30.5007  -31.8646   27.8507 C   0  0  0  0  0  0  0  0  0  0  0  0
  -31.4432  -29.6881   28.6526 C   0  0  0  0  0  0  0  0  0  0  0  0
  -29.3353  -30.5752   29.6489 C   0  0  0  0  0  0  0  0  0  0  0  0
  -28.8880  -24.9222   25.7667 C   0  0  0  0  0  0  0  0  0  0  0  0
  -27.0211  -25.8248   19.7912 C   0  0  0  0  0  0  0  0  0  1  0  0
  -29.3000  -29.6468   27.2975 C   0  0  1  0  0  0  0  0  0  0  0  0
  -29.0854  -25.9359   28.0410 C   0  0  2  0  0  0  0  0  0  0  0  0
  -30.1369  -30.4469   28.3353 C   0  0  0  0  0  0  0  0  0  0  0  0
  -29.7953  -20.3379   20.0838 N   0  0  0  0  0  0  0  0  0  0  0  0
  -25.8909  -11.9289   20.7446 N   0  0  0  0  0  0  0  0  0  0  0  0
  -27.4922  -20.6752   20.7075 N   0  0  0  0  0  0  0  0  0  0  0  0
  -26.1659  -13.1488   20.2525 N   0  0  0  0  0  0  0  0  0  0  0  0
  -28.7124  -22.3777   19.6370 N   0  0  0  0  0  0  0  0  0  0  0  0
  -27.5360  -30.1252   25.6292 N   0  0  0  0  0  0  0  0  0  0  0  0
  -29.2003  -14.9920   21.6591 N   0  0  0  0  0  0  0  0  0  0  0  0
  -26.2780  -18.9488   21.7846 N   0  0  0  0  0  0  0  0  0  0  0  0
  -25.1849  -15.0153   19.1733 N   0  0  0  0  0  0  0  0  0  0  0  0
  -22.3083  -12.7660   18.1434 N   0  0  0  0  0  0  0  0  0  0  0  0
  -28.5545  -17.2599   21.7012 N   0  0  0  0  0  0  0  0  0  0  0  0
  -26.0650  -32.9821   23.9057 N   0  0  0  0  0  0  0  0  0  0  0  0
  -28.9180  -28.3104   27.7407 N   0  0  0  0  0  0  0  0  0  0  0  0
  -29.3867  -24.7736   27.1582 N   0  3  0  0  0  0  0  0  0  0  0  0
  -28.3641  -25.6995   17.3470 O   0  0  0  0  0  0  0  0  0  0  0  0
  -21.8361  -13.7115   20.1785 O   0  0  0  0  0  0  0  0  0  0  0  0
  -28.2171  -32.1545   24.2315 O   0  0  0  0  0  0  0  0  0  0  0  0
  -27.4596  -31.0702   27.7593 O   0  0  0  0  0  0  0  0  0  0  0  0
  -30.7561  -27.2121   26.8504 O   0  0  0  0  0  0  0  0  0  0  0  0
  -30.7956  -16.6626   21.7491 O   0  0  0  0  0  0  0  0  0  0  0  0
  -21.9251   -7.1108   22.0136 O   0  0  0  0  0  0  0  0  0  0  0  0
  -27.8712  -26.7369   20.4853 O   0  0  0  0  0  0  0  0  0  1  0  0
  -16.4128   -7.2135   22.0984 F   0  0  0  0  0  0  0  0  0  0  0  0
  -20.5331   -6.6123   24.3495 F   0  0  0  0  0  0  0  0  0  0  0  0
  1  2  1  0  0  0  0
  1  5  2  0  0  0  0
  2  6  2  0  0  0  0
  3  8  2  0  0  0  0
  3 16  1  0  0  0  0
  4  9  1  0  0  0  0
  4 16  2  0  0  0  0
  5 18  1  0  0  0  0
  6 20  1  0  0  0  0
  7 10  2  0  0  0  0
  7 19  1  0  0  0  0
  8 23  1  0  0  0  0
  9 23  2  0  0  0  0
 10 24  1  0  0  0  0
 11 12  2  0  0  0  0
 11 25  1  0  0  0  0
 12 26  1  0  0  0  0
 13 21  1  0  0  0  0
 13 24  2  0  0  0  0
 14 26  2  0  0  0  0
 14 27  1  0  0  0  0
 15 22  1  0  0  0  0
 15 64  2  0  0  0  0
 16 28  1  0  0  0  0
 17 28  1  0  0  0  0
 17 30  2  0  0  0  0
 17 35  1  0  0  0  0
 18 20  2  0  0  0  0
 18 40  1  0  0  0  0
 19 21  2  0  0  0  0
 19 41  1  0  0  0  0
 20 51  1  0  0  0  0
 21 42  1  0  0  0  0
 22 29  2  0  0  0  0
 22 74  1  0  0  0  0
 23 84  1  0  0  0  0
 24 85  1  0  0  0  0
 25 27  2  0  0  0  0
 25 84  1  0  0  0  0
 26 86  1  0  0  0  0
 27 87  1  0  0  0  0
 28 65  2  0  0  0  0
 29 66  1  0  0  0  0
 29 71  1  0  0  0  0
 30 67  1  0  0  0  0
 30 72  1  0  0  0  0
 31 64  1  0  0  0  0
 31 66  2  0  0  0  0
 31 68  1  0  0  0  0
 32 33  2  0  0  0  0
 32 34  1  0  0  0  0
 32 60  1  0  0  0  0
 33 54  1  0  0  0  0
 33 68  1  0  0  0  0
 34 43  1  0  0  0  0
 34 78  2  0  0  0  0
 35 73  1  0  0  0  0
 35 79  2  0  0  0  0
 36 52  1  0  0  0  0
 36 75  1  0  0  0  0
 36 80  2  0  0  0  0
 37 61  1  0  0  0  0
 37 69  1  0  0  0  0
 37 81  2  0  0  0  0
 38 62  1  0  0  0  0
 38 76  1  0  0  0  0
 38 82  2  0  0  0  0
 39 70  1  0  0  0  0
 39 74  1  0  0  0  0
 39 83  2  0  0  0  0
 40 44  1  0  0  0  0
 41 52  1  0  0  0  0
 42 69  1  0  0  0  0
 43 48  1  0  0  0  0
 44 46  1  0  0  0  0
 45 47  1  0  0  0  0
 45 49  1  0  0  0  0
 46 51  1  0  0  0  0
 47 53  1  0  0  0  0
 48 68  1  0  0  0  0
 49 70  1  0  0  0  0
 50 53  1  0  0  0  0
 50 70  1  0  0  0  0
 51 75  1  0  0  0  0
 52 69  1  0  0  0  0
 53 67  1  0  0  0  0
 55 62  1  0  0  0  0
 56 63  1  0  0  0  0
 57 63  1  0  0  0  0
 58 63  1  0  0  0  0
 59 77  1  0  0  0  0
 60 85  1  0  0  0  0
 61 63  1  0  0  0  0
 61 76  1  0  0  0  0
 62 77  1  0  0  0  0
 65 67  1  0  0  0  0
M  CHG  1  77   1
M  ISO  4  39 100  60 101  74 100  85 101
M  END
> <Batch ID>
0110

> <Smiles>
CNC(C)C(=O)NC(C(=O)N1Cc2cc([101O:1][101CH2:1]C3=C(C)N(c4ncc([100NH:0][100C:0](=O)N5CCCC(n6nc(-c7ccc(Oc8ccc(F)cc8F)cc7)c(C(N)=O)c6N)C5)c(N)n4)CCC3=O)ccc2CC1C(=O)NC1CCCc2ccccc21)C(C)(C)C

> <Shape>
0.285

> <Color>
0.107

> <Negative vol penalty>
0.000

$$$$

  -OEChem-04052301263D

 90 99  0     1  0  0  0  0  0999 V2000
  -32.2668  -31.9133   20.1346 C   0  0  0  0  0  0  0  0  0  0  0  0
  -31.5228  -30.7393   20.0748 C   0  0  0  0  0  0  0  0  0  0  0  0
  -22.6876  -11.1615   21.8776 C   0  0  0  0  0  0  0  0  0  0  0  0
  -23.5992   -9.3784   20.5261 C   0  0  0  0  0  0  0  0  0  0  0  0
  -30.5537  -19.5819   18.1387 C   0  0  0  0  0  0  0  0  0  0  0  0
  -31.9842  -32.8674   21.1112 C   0  0  0  0  0  0  0  0  0  0  0  0
  -30.4962  -30.5184   20.9923 C   0  0  0  0  0  0  0  0  0  0  0  0
  -26.2900  -28.7336   18.8089 C   0  0  0  0  0  0  0  0  0  0  0  0
  -31.0270  -18.3634   17.6522 C   0  0  0  0  0  0  0  0  0  0  0  0
  -21.8187  -10.2559   22.4863 C   0  0  0  0  0  0  0  0  0  0  0  0
  -22.7304   -8.4728   21.1348 C   0  0  0  0  0  0  0  0  0  0  0  0
  -26.2717  -27.3805   18.4735 C   0  0  0  0  0  0  0  0  0  0  0  0
  -22.5480   -6.7736   24.0503 C   0  0  0  0  0  0  0  0  0  0  0  0
  -23.0742   -5.5485   24.4602 C   0  0  0  0  0  0  0  0  0  0  0  0
  -24.9939  -26.9103   20.4648 C   0  0  0  0  0  0  0  0  0  0  0  0
  -21.5310   -4.3973   23.0006 C   0  0  0  0  0  0  0  0  0  0  0  0
  -23.5778  -10.7228   20.8974 C   0  0  0  0  0  0  0  0  0  0  0  0
  -29.8193  -19.6217   19.3240 C   0  0  0  0  0  0  0  0  0  0  0  0
  -24.1269  -12.8021   19.5253 C   0  0  0  0  0  0  0  0  0  0  0  0
  -30.9474  -32.6624   22.0351 C   0  0  0  0  0  0  0  0  0  0  0  0
  -25.6687  -29.1844   19.9825 C   0  0  0  0  0  0  0  0  0  0  0  0
  -30.2003  -31.4701   21.9830 C   0  0  0  0  0  0  0  0  0  0  0  0
  -25.0036  -28.2700   20.8116 C   0  0  0  0  0  0  0  0  0  0  0  0
  -29.5581  -18.4430   20.0226 C   0  0  0  0  0  0  0  0  0  0  0  0
  -30.7659  -17.1847   18.3508 C   0  0  0  0  0  0  0  0  0  0  0  0
  -30.0314  -17.2245   19.5360 C   0  0  0  0  0  0  0  0  0  0  0  0
  -21.8401   -8.9115   22.1150 C   0  0  0  0  0  0  0  0  0  0  0  0
  -25.6261  -26.4682   19.3029 C   0  0  0  0  0  0  0  0  0  0  0  0
  -21.5133   -6.8105   23.1155 C   0  0  0  0  0  0  0  0  0  0  0  0
  -22.5657   -4.3604   23.9354 C   0  0  0  0  0  0  0  0  0  0  0  0
  -21.0049   -5.6224   22.5907 C   0  0  0  0  0  0  0  0  0  0  0  0
  -24.4752  -11.6579   20.2678 C   0  0  0  0  0  0  0  0  0  0  0  0
  -25.3303  -13.3451   19.1467 C   0  0  0  0  0  0  0  0  0  0  0  0
  -26.2129  -22.9214   19.6479 C   0  0  0  0  0  0  0  0  0  0  0  0
  -27.5217  -22.6084   19.8106 C   0  0  0  0  0  0  0  0  0  0  0  0
  -25.2727  -21.9004   19.0824 C   0  0  0  0  0  0  0  0  0  0  0  0
  -29.3347  -20.9260   19.8131 C   0  0  0  0  0  0  0  0  0  0  0  0
  -22.8314  -13.3271   19.2064 C   0  0  0  0  0  0  0  0  0  0  0  0
  -26.6628  -30.6255   22.6355 C   0  0  0  0  0  0  0  0  0  0  0  0
  -23.4878  -30.7614   23.2862 C   0  0  0  0  0  0  0  0  0  0  0  0
  -20.6386  -28.5710   22.9685 C   0  0  0  0  0  0  0  0  0  0  0  0
  -30.5578  -14.8807   20.2949 C   0  0  0  0  0  0  0  0  0  0  0  0
  -30.7099  -33.7013   23.1022 C   0  0  0  0  0  0  0  0  0  0  0  0
  -25.6745  -30.6510   20.3164 C   0  0  0  0  0  0  0  0  0  0  0  0
  -24.3040  -28.7058   22.0722 C   0  0  0  0  0  0  0  0  0  0  0  0
  -25.7954  -20.5102   18.8750 C   0  0  0  0  0  0  0  0  0  0  0  0
  -29.3608  -33.5584   23.8020 C   0  0  0  0  0  0  0  0  0  0  0  0
  -30.0236  -11.4697   19.4248 C   0  0  0  0  0  0  0  0  0  0  0  0
  -29.1104  -32.1037   24.1867 C   0  0  0  0  0  0  0  0  0  0  0  0
  -28.5038  -11.3087   19.5055 C   0  0  0  0  0  0  0  0  0  0  0  0
  -27.2484  -20.5653   18.4619 C   0  0  0  0  0  0  0  0  0  0  0  0
  -30.5533  -12.4051   20.5103 C   0  0  0  0  0  0  0  0  0  0  0  0
  -28.3807  -13.5581   20.6509 C   0  0  0  0  0  0  0  0  0  0  0  0
  -29.0626  -31.2051   22.9451 C   0  0  1  0  0  0  0  0  0  0  0  0
  -25.4509  -30.9269   21.8001 C   0  0  1  0  0  0  0  0  0  0  0  0
  -27.7932  -12.6760   19.5372 C   0  0  2  0  0  0  0  0  0  0  0  0
  -28.7699  -18.4899   21.2951 C   0  0  0  0  0  0  0  0  0  0  0  0
  -28.4893  -23.6265   20.3756 C   0  0  0  0  0  0  0  0  0  0  0  0
  -18.1996  -29.0956   22.6973 C   0  0  0  0  0  0  0  0  0  0  0  0
  -23.3892  -30.4925   26.3240 C   0  0  0  0  0  0  0  0  0  0  0  0
  -21.1597  -29.3791   26.0833 C   0  0  0  0  0  0  0  0  0  0  0  0
  -21.4635  -31.7356   25.3236 C   0  0  0  0  0  0  0  0  0  0  0  0
  -20.4438  -26.9443   20.5038 C   0  0  0  0  0  0  0  0  0  0  0  0
  -25.5570  -24.2136   20.0566 C   0  0  0  0  0  0  0  0  0  1  0  0
  -22.5000  -29.8583   23.9845 C   0  0  1  0  0  0  0  0  0  0  0  0
  -19.4887  -28.7121   21.9875 C   0  0  2  0  0  0  0  0  0  0  0  0
  -22.1510  -30.3559   25.4156 C   0  0  0  0  0  0  0  0  0  0  0  0
  -25.7964  -11.4833   20.3567 N   0  0  0  0  0  0  0  0  0  0  0  0
  -26.2889  -12.5250   19.6650 N   0  0  0  0  0  0  0  0  0  0  0  0
  -28.0616  -21.3720   19.3890 N   0  0  0  0  0  0  0  0  0  0  0  0
  -24.3430  -30.1494   22.3588 N   0  0  0  0  0  0  0  0  0  0  0  0
  -29.8365  -13.6818   20.4772 N   0  0  0  0  0  0  0  0  0  0  0  0
  -31.2551  -15.9621   17.8372 N   0  0  0  0  0  0  0  0  0  0  0  0
  -25.6514  -14.4394   18.4243 N   0  0  0  0  0  0  0  0  0  0  0  0
  -21.7002  -12.6450   19.6748 N   0  0  0  0  0  0  0  0  0  0  0  0
  -29.7667  -16.0280   20.2475 N   0  0  0  0  0  0  0  0  0  0  0  0
  -27.7884  -31.3400   22.2723 N   0  0  0  0  0  0  0  0  0  0  0  0
  -21.3499  -29.7455   23.0940 N   0  0  0  0  0  0  0  0  0  0  0  0
  -19.2635  -27.4281   21.2652 N   0  3  0  0  0  0  0  0  0  0  0  0
  -24.0965  -22.1736   18.8487 O   0  0  0  0  0  0  0  0  0  0  0  0
  -30.1056  -21.5202   20.5663 O   0  0  0  0  0  0  0  0  0  0  0  0
  -22.6811  -14.3612   18.5124 O   0  0  0  0  0  0  0  0  0  0  0  0
  -26.5823  -29.8065   23.5435 O   0  0  0  0  0  0  0  0  0  0  0  0
  -23.4955  -31.9667   23.5485 O   0  0  0  0  0  0  0  0  0  0  0  0
  -20.8792  -27.5246   23.5667 O   0  0  0  0  0  0  0  0  0  0  0  0
  -31.7843  -14.8862   20.1614 O   0  0  0  0  0  0  0  0  0  0  0  0
  -20.9926   -8.0275   22.7089 O   0  0  0  0  0  0  0  0  0  0  0  0
  -25.6073  -25.1468   18.9782 O   0  0  0  0  0  0  0  0  0  1  0  0
  -23.0721   -3.1842   24.3280 F   0  0  0  0  0  0  0  0  0  0  0  0
  -20.0117   -5.6515   21.6914 F   0  0  0  0  0  0  0  0  0  0  0  0
  1  2  1  0  0  0  0
  1  6  2  0  0  0  0
  2  7  2  0  0  0  0
  3 10  2  0  0  0  0
  3 17  1  0  0  0  0
  4 11  1  0  0  0  0
  4 17  2  0  0  0  0
  5  9  2  0  0  0  0
  5 18  1  0  0  0  0
  6 20  1  0  0  0  0
  7 22  1  0  0  0  0
  8 12  2  0  0  0  0
  8 21  1  0  0  0  0
  9 25  1  0  0  0  0
 10 27  1  0  0  0  0
 11 27  2  0  0  0  0
 12 28  1  0  0  0  0
 13 14  2  0  0  0  0
 13 29  1  0  0  0  0
 14 30  1  0  0  0  0
 15 23  1  0  0  0  0
 15 28  2  0  0  0  0
 16 30  2  0  0  0  0
 16 31  1  0  0  0  0
 17 32  1  0  0  0  0
 18 24  2  0  0  0  0
 18 37  1  0  0  0  0
 19 32  1  0  0  0  0
 19 33  2  0  0  0  0
 19 38  1  0  0  0  0
 20 22  2  0  0  0  0
 20 43  1  0  0  0  0
 21 23  2  0  0  0  0
 21 44  1  0  0  0  0
 22 54  1  0  0  0  0
 23 45  1  0  0  0  0
 24 26  1  0  0  0  0
 24 57  1  0  0  0  0
 25 26  2  0  0  0  0
 25 73  1  0  0  0  0
 26 76  1  0  0  0  0
 27 87  1  0  0  0  0
 28 88  1  0  0  0  0
 29 31  2  0  0  0  0
 29 87  1  0  0  0  0
 30 89  1  0  0  0  0
 31 90  1  0  0  0  0
 32 68  2  0  0  0  0
 33 69  1  0  0  0  0
 33 74  1  0  0  0  0
 34 35  2  0  0  0  0
 34 36  1  0  0  0  0
 34 64  1  0  0  0  0
 35 58  1  0  0  0  0
 35 70  1  0  0  0  0
 36 46  1  0  0  0  0
 36 80  2  0  0  0  0
 37 70  1  0  0  0  0
 37 81  2  0  0  0  0
 38 75  1  0  0  0  0
 38 82  2  0  0  0  0
 39 55  1  0  0  0  0
 39 77  1  0  0  0  0
 39 83  2  0  0  0  0
 40 65  1  0  0  0  0
 40 71  1  0  0  0  0
 40 84  2  0  0  0  0
 41 66  1  0  0  0  0
 41 78  1  0  0  0  0
 41 85  2  0  0  0  0
 42 72  1  0  0  0  0
 42 76  1  0  0  0  0
 42 86  2  0  0  0  0
 43 47  1  0  0  0  0
 44 55  1  0  0  0  0
 45 71  1  0  0  0  0
 46 51  1  0  0  0  0
 47 49  1  0  0  0  0
 48 50  1  0  0  0  0
 48 52  1  0  0  0  0
 49 54  1  0  0  0  0
 50 56  1  0  0  0  0
 51 70  1  0  0  0  0
 52 72  1  0  0  0  0
 53 56  1  0  0  0  0
 53 72  1  0  0  0  0
 54 77  1  0  0  0  0
 55 71  1  0  0  0  0
 56 69  1  0  0  0  0
 59 66  1  0  0  0  0
 60 67  1  0  0  0  0
 61 67  1  0  0  0  0
 62 67  1  0  0  0  0
 63 79  1  0  0  0  0
 64 88  1  0  0  0  0
 65 67  1  0  0  0  0
 65 78  1  0  0  0  0
 66 79  1  0  0  0  0
 68 69  1  0  0  0  0
M  CHG  1  79   1
M  ISO  4  42 100  64 101  76 100  88 101
M  END
> <Batch ID>
0110

> <Smiles>
CNC(C)C(=O)NC(C(=O)N1Cc2cc([101O:1][101CH2:1]C3=C(C)N(C(=O)c4ccc(N)c([100NH:0][100C:0](=O)N5CCCC(n6nc(-c7ccc(Oc8ccc(F)cc8F)cc7)c(C(N)=O)c6N)C5)c4C)CCC3=O)ccc2CC1C(=O)NC1CCCc2ccccc21)C(C)(C)C

> <Shape>
0.311

> <Color>
0.138

> <Negative vol penalty>
0.000

$$$$

  -OEChem-04052301263D

 88 96  0     1  0  0  0  0  0999 V2000
  -20.9945  -30.8091   21.9916 C   0  0  0  0  0  0  0  0  0  0  0  0
  -21.6291  -29.7976   21.2777 C   0  0  0  0  0  0  0  0  0  0  0  0
  -22.9590   -9.8547   20.0127 C   0  0  0  0  0  0  0  0  0  0  0  0
  -23.7265   -9.9263   22.3024 C   0  0  0  0  0  0  0  0  0  0  0  0
  -21.6776  -31.4790   23.0059 C   0  0  0  0  0  0  0  0  0  0  0  0
  -22.9476  -29.4562   21.5769 C   0  0  0  0  0  0  0  0  0  0  0  0
  -23.6543  -24.4467   21.8006 C   0  0  0  0  0  0  0  0  0  0  0  0
  -22.1967   -8.7234   20.3035 C   0  0  0  0  0  0  0  0  0  0  0  0
  -22.9641   -8.7950   22.5933 C   0  0  0  0  0  0  0  0  0  0  0  0
  -23.7599  -23.7639   20.5897 C   0  0  0  0  0  0  0  0  0  0  0  0
  -23.1973   -5.4516   22.1479 C   0  0  0  0  0  0  0  0  0  0  0  0
  -23.7978   -4.4409   22.8985 C   0  0  0  0  0  0  0  0  0  0  0  0
  -29.2357  -17.2339   20.0697 C   0  0  0  0  0  0  0  0  0  0  0  0
  -26.1611  -23.7404   20.8192 C   0  0  0  0  0  0  0  0  0  0  0  0
  -30.4648  -19.2692   21.5291 C   0  0  0  0  0  0  0  0  0  0  0  0
  -22.1052   -4.7009   24.6028 C   0  0  0  0  0  0  0  0  0  0  0  0
  -23.7240  -10.4561   21.0121 C   0  0  0  0  0  0  0  0  0  0  0  0
  -29.9942  -16.9227   21.1981 C   0  0  0  0  0  0  0  0  0  0  0  0
  -24.1078  -12.9696   20.8057 C   0  0  0  0  0  0  0  0  0  0  0  0
  -23.0019  -31.1390   23.3241 C   0  0  0  0  0  0  0  0  0  0  0  0
  -24.8039  -24.7917   22.5258 C   0  0  0  0  0  0  0  0  0  0  0  0
  -23.6494  -30.1231   22.5954 C   0  0  0  0  0  0  0  0  0  0  0  0
  -26.0673  -24.4253   22.0403 C   0  0  0  0  0  0  0  0  0  0  0  0
  -30.6087  -17.9403   21.9279 C   0  0  0  0  0  0  0  0  0  0  0  0
  -22.1992   -8.1936   21.5938 C   0  0  0  0  0  0  0  0  0  0  0  0
  -25.0135  -23.4131   20.0974 C   0  0  0  0  0  0  0  0  0  0  0  0
  -22.0507   -6.0871   22.6248 C   0  0  0  0  0  0  0  0  0  0  0  0
  -29.0918  -18.5629   19.6709 C   0  0  0  0  0  0  0  0  0  0  0  0
  -29.7063  -19.5805   20.4006 C   0  0  0  0  0  0  0  0  0  0  0  0
  -23.2517   -4.0655   24.1259 C   0  0  0  0  0  0  0  0  0  0  0  0
  -21.5047   -5.7116   23.8522 C   0  0  0  0  0  0  0  0  0  0  0  0
  -24.5121  -11.6244   20.7121 C   0  0  0  0  0  0  0  0  0  0  0  0
  -25.2112  -13.6878   20.4143 C   0  0  0  0  0  0  0  0  0  0  0  0
  -30.1295  -15.5265   21.5914 C   0  0  0  0  0  0  0  0  0  0  0  0
  -22.8476  -13.5207   21.2104 C   0  0  0  0  0  0  0  0  0  0  0  0
  -30.7353  -14.5265   20.6825 C   0  0  0  0  0  0  0  0  0  0  0  0
  -26.1303  -27.5250   23.4603 C   0  0  0  0  0  0  0  0  0  0  0  0
  -28.1628  -25.5483   25.0363 C   0  0  0  0  0  0  0  0  0  0  0  0
  -30.1913  -22.5774   25.3130 C   0  0  0  0  0  0  0  0  0  0  0  0
  -23.7149  -31.9235   24.3969 C   0  0  0  0  0  0  0  0  0  0  0  0
  -24.6716  -25.5048   23.8435 C   0  0  0  0  0  0  0  0  0  0  0  0
  -27.3311  -24.7545   22.7905 C   0  0  0  0  0  0  0  0  0  0  0  0
  -24.9862  -31.2467   24.9031 C   0  0  0  0  0  0  0  0  0  0  0  0
  -29.5192  -12.2017   18.2385 C   0  0  0  0  0  0  0  0  0  0  0  0
  -25.8303  -30.7527   23.7326 C   0  0  0  0  0  0  0  0  0  0  0  0
  -28.0872  -11.9257   18.6956 C   0  0  0  0  0  0  0  0  0  0  0  0
  -30.4504  -12.4273   19.4252 C   0  0  0  0  0  0  0  0  0  0  0  0
  -28.5614  -13.2386   20.8115 C   0  0  0  0  0  0  0  0  0  0  0  0
  -25.0707  -29.7072   22.9071 C   0  0  1  0  0  0  0  0  0  0  0  0
  -25.9360  -26.2583   24.2447 C   0  0  1  0  0  0  0  0  0  0  0  0
  -27.5858  -13.0330   19.6396 C   0  0  2  0  0  0  0  0  0  0  0  0
  -31.6648  -21.1541   26.7622 C   0  0  0  0  0  0  0  0  0  0  0  0
  -30.4576  -27.0194   23.6654 C   0  0  0  0  0  0  0  0  0  0  0  0
  -31.9609  -25.1198   24.2977 C   0  0  0  0  0  0  0  0  0  0  0  0
  -30.8564  -26.4787   26.0743 C   0  0  0  0  0  0  0  0  0  0  0  0
  -27.9718  -20.7270   25.9525 C   0  0  0  0  0  0  0  0  0  0  0  0
  -30.2332  -21.8612   20.8203 C   0  0  0  0  0  0  0  0  0  0  0  0
  -31.4268  -17.6346   23.1400 C   0  0  0  0  0  0  0  0  0  0  0  0
  -25.6613  -19.9155   18.3960 C   0  0  0  0  0  0  0  0  0  0  0  0
  -24.5867  -20.7505   17.6995 C   0  0  0  0  0  0  0  0  0  0  0  0
  -26.1779  -18.7591   17.5416 C   0  0  0  0  0  0  0  0  0  0  0  0
  -24.0409  -21.8842   18.5572 C   0  0  0  0  0  0  0  0  0  1  0  0
  -27.2684  -17.9766   18.2612 C   0  0  0  0  0  0  0  0  0  0  0  0
  -29.4697  -24.8709   24.7016 C   0  0  1  0  0  0  0  0  0  0  0  0
  -30.2427  -21.6183   26.4886 C   0  0  2  0  0  0  0  0  0  0  0  0
  -30.6627  -25.8675   24.6694 C   0  0  0  0  0  0  0  0  0  0  0  0
  -25.7738  -11.4931   20.2938 N   0  0  0  0  0  0  0  0  0  0  0  0
  -29.7367  -15.0691   22.7481 N   0  0  0  0  0  0  0  0  0  0  0  0
  -26.1718  -12.7651   20.1211 N   0  0  0  0  0  0  0  0  0  0  0  0
  -29.9272  -13.4583   20.3192 N   0  0  0  0  0  0  0  0  0  0  0  0
  -27.1499  -25.4580   24.0710 N   0  0  0  0  0  0  0  0  0  0  0  0
  -25.4437  -15.0123   20.2957 N   0  0  0  0  0  0  0  0  0  0  0  0
  -21.8216  -12.6407   21.5810 N   0  0  0  0  0  0  0  0  0  0  0  0
  -25.0878  -28.4245   23.5770 N   0  0  0  0  0  0  0  0  0  0  0  0
  -29.6245  -23.7846   25.6631 N   0  0  0  0  0  0  0  0  0  0  0  0
  -30.6335  -17.6280   24.3989 N   0  3  0  0  0  0  0  0  0  0  0  0
  -29.4010  -20.4190   26.2159 N   0  3  0  0  0  0  0  0  0  0  0  0
  -22.6322  -14.7564   21.2267 O   0  0  0  0  0  0  0  0  0  0  0  0
  -31.8912  -14.7504   20.3473 O   0  0  0  0  0  0  0  0  0  0  0  0
  -27.1511  -27.6758   22.7994 O   0  0  0  0  0  0  0  0  0  0  0  0
  -28.0426  -26.1298   26.1175 O   0  0  0  0  0  0  0  0  0  0  0  0
  -30.6152  -22.2862   24.1967 O   0  0  0  0  0  0  0  0  0  0  0  0
  -21.4552   -7.0898   21.8781 O   0  0  0  0  0  0  0  0  0  0  0  0
  -29.5736  -20.8818   20.0204 O   0  0  0  0  0  0  0  0  0  0  0  0
  -25.1194  -22.7472   18.9153 O   0  0  0  0  0  0  0  0  0  1  0  0
  -28.3438  -18.8557   18.5601 O   0  0  0  0  0  0  0  0  0  0  0  0
  -23.8276   -3.0938   24.8458 F   0  0  0  0  0  0  0  0  0  0  0  0
  -20.4026   -6.3176   24.3150 F   0  0  0  0  0  0  0  0  0  0  0  0
  1  2  1  0  0  0  0
  1  5  2  0  0  0  0
  2  6  2  0  0  0  0
  3  8  2  0  0  0  0
  3 17  1  0  0  0  0
  4  9  1  0  0  0  0
  4 17  2  0  0  0  0
  5 20  1  0  0  0  0
  6 22  1  0  0  0  0
  7 10  2  0  0  0  0
  7 21  1  0  0  0  0
  8 25  1  0  0  0  0
  9 25  2  0  0  0  0
 10 26  1  0  0  0  0
 11 12  2  0  0  0  0
 11 27  1  0  0  0  0
 12 30  1  0  0  0  0
 13 18  2  0  0  0  0
 13 28  1  0  0  0  0
 14 23  1  0  0  0  0
 14 26  2  0  0  0  0
 15 24  2  0  0  0  0
 15 29  1  0  0  0  0
 16 30  2  0  0  0  0
 16 31  1  0  0  0  0
 17 32  1  0  0  0  0
 18 24  1  0  0  0  0
 18 34  1  0  0  0  0
 19 32  1  0  0  0  0
 19 33  2  0  0  0  0
 19 35  1  0  0  0  0
 20 22  2  0  0  0  0
 20 40  1  0  0  0  0
 21 23  2  0  0  0  0
 21 41  1  0  0  0  0
 22 49  1  0  0  0  0
 23 42  1  0  0  0  0
 24 58  1  0  0  0  0
 25 83  1  0  0  0  0
 26 85  1  0  0  0  0
 27 31  2  0  0  0  0
 27 83  1  0  0  0  0
 28 29  2  0  0  0  0
 28 86  1  0  0  0  0
 29 84  1  0  0  0  0
 30 87  1  0  0  0  0
 31 88  1  0  0  0  0
 32 67  2  0  0  0  0
 33 69  1  0  0  0  0
 33 72  1  0  0  0  0
 34 36  1  0  0  0  0
 34 68  2  0  0  0  0
 35 73  1  0  0  0  0
 35 78  2  0  0  0  0
 36 70  1  0  0  0  0
 36 79  2  0  0  0  0
 37 50  1  0  0  0  0
 37 74  1  0  0  0  0
 37 80  2  0  0  0  0
 38 64  1  0  0  0  0
 38 71  1  0  0  0  0
 38 81  2  0  0  0  0
 39 65  1  0  0  0  0
 39 75  1  0  0  0  0
 39 82  2  0  0  0  0
 40 43  1  0  0  0  0
 41 50  1  0  0  0  0
 42 71  1  0  0  0  0
 43 45  1  0  0  0  0
 44 46  1  0  0  0  0
 44 47  1  0  0  0  0
 45 49  1  0  0  0  0
 46 51  1  0  0  0  0
 47 70  1  0  0  0  0
 48 51  1  0  0  0  0
 48 70  1  0  0  0  0
 49 74  1  0  0  0  0
 50 71  1  0  0  0  0
 51 69  1  0  0  0  0
 52 65  1  0  0  0  0
 53 66  1  0  0  0  0
 54 66  1  0  0  0  0
 55 66  1  0  0  0  0
 56 77  1  0  0  0  0
 57 84  1  0  0  0  0
 58 76  1  0  0  0  0
 59 60  1  0  0  0  0
 59 61  1  0  0  0  0
 60 62  1  0  0  0  0
 61 63  1  0  0  0  0
 62 85  1  0  0  0  0
 63 86  1  0  0  0  0
 64 66  1  0  0  0  0
 64 75  1  0  0  0  0
 65 77  1  0  0  0  0
 67 69  1  0  0  0  0
M  CHG  2  76   1  77   1
M  ISO  4  34 100  36 100  62 101  85 101
M  END
> <Batch ID>
0110

> <Smiles>
CNC(C)C(=O)NC(C(=O)N1Cc2cc([101O:1][101CH2:1]CCCCOc3cc([100C:0](=N)[100C:0](=O)N4CCCC(n5nc(-c6ccc(Oc7ccc(F)cc7F)cc6)c(C(N)=O)c5N)C4)c(CN)cc3OC)ccc2CC1C(=O)NC1CCCc2ccccc21)C(C)(C)C

> <Shape>
0.275

> <Color>
0.200

> <Negative vol penalty>
0.000

$$$$

  -OEChem-04052301263D

 85 93  0     1  0  0  0  0  0999 V2000
  -31.4334  -18.1708   29.2193 C   0  0  0  0  0  0  0  0  0  0  0  0
  -35.5953  -28.6946   25.5292 C   0  0  0  0  0  0  0  0  0  0  0  0
  -34.9315  -27.5569   25.9768 C   0  0  0  0  0  0  0  0  0  0  0  0
  -23.1621   -9.8146   19.9503 C   0  0  0  0  0  0  0  0  0  0  0  0
  -23.5748  -10.0027   22.3234 C   0  0  0  0  0  0  0  0  0  0  0  0
  -35.2043  -29.3053   24.3384 C   0  0  0  0  0  0  0  0  0  0  0  0
  -33.8754  -27.0298   25.2343 C   0  0  0  0  0  0  0  0  0  0  0  0
  -34.1390  -21.9925   24.7864 C   0  0  0  0  0  0  0  0  0  0  0  0
  -22.3913   -8.6739   20.1748 C   0  0  0  0  0  0  0  0  0  0  0  0
  -22.8040   -8.8621   22.5479 C   0  0  0  0  0  0  0  0  0  0  0  0
  -33.7361  -21.2337   25.8845 C   0  0  0  0  0  0  0  0  0  0  0  0
  -23.1793   -5.5117   22.2930 C   0  0  0  0  0  0  0  0  0  0  0  0
  -23.6836   -4.5509   23.1694 C   0  0  0  0  0  0  0  0  0  0  0  0
  -31.6033  -20.8457   24.8263 C   0  0  0  0  0  0  0  0  0  0  0  0
  -31.0773  -14.1976   26.1888 C   0  0  0  0  0  0  0  0  0  0  0  0
  -32.1722  -14.3969   23.6306 C   0  0  0  0  0  0  0  0  0  0  0  0
  -21.7484   -4.8299   24.5887 C   0  0  0  0  0  0  0  0  0  0  0  0
  -23.7540  -10.4789   21.0246 C   0  0  0  0  0  0  0  0  0  0  0  0
  -24.1058  -12.9922   20.7651 C   0  0  0  0  0  0  0  0  0  0  0  0
  -34.1492  -28.7799   23.5760 C   0  0  0  0  0  0  0  0  0  0  0  0
  -33.2716  -22.1930   23.7030 C   0  0  0  0  0  0  0  0  0  0  0  0
  -33.4690  -27.6349   24.0328 C   0  0  0  0  0  0  0  0  0  0  0  0
  -31.9985  -21.6054   23.7145 C   0  0  0  0  0  0  0  0  0  0  0  0
  -30.5660  -13.4212   25.1490 C   0  0  0  0  0  0  0  0  0  0  0  0
  -32.1361  -15.0738   25.9496 C   0  0  0  0  0  0  0  0  0  0  0  0
  -31.1134  -13.5208   23.8699 C   0  0  0  0  0  0  0  0  0  0  0  0
  -32.6835  -15.1733   24.6705 C   0  0  0  0  0  0  0  0  0  0  0  0
  -22.2122   -8.1977   21.4735 C   0  0  0  0  0  0  0  0  0  0  0  0
  -32.4671  -20.6626   25.9058 C   0  0  0  0  0  0  0  0  0  0  0  0
  -21.9596   -6.1317   22.5644 C   0  0  0  0  0  0  0  0  0  0  0  0
  -22.9681   -4.2099   24.3172 C   0  0  0  0  0  0  0  0  0  0  0  0
  -21.2442   -5.7907   23.7123 C   0  0  0  0  0  0  0  0  0  0  0  0
  -24.5508  -11.6569   20.7933 C   0  0  0  0  0  0  0  0  0  0  0  0
  -25.2384  -13.7263   20.5107 C   0  0  0  0  0  0  0  0  0  0  0  0
  -32.0793  -17.0016   27.1792 C   0  0  0  0  0  0  0  0  0  0  0  0
  -22.7865  -13.5216   20.9521 C   0  0  0  0  0  0  0  0  0  0  0  0
  -31.9138  -24.7323   22.3568 C   0  0  0  0  0  0  0  0  0  0  0  0
  -30.9149  -22.5533   20.1712 C   0  0  0  0  0  0  0  0  0  0  0  0
  -30.1908  -19.2977   19.4478 C   0  0  0  0  0  0  0  0  0  0  0  0
  -31.0504  -12.7317   21.4783 C   0  0  0  0  0  0  0  0  0  0  0  0
  -33.7317  -29.5021   22.3195 C   0  0  0  0  0  0  0  0  0  0  0  0
  -33.7311  -22.9919   22.5143 C   0  0  0  0  0  0  0  0  0  0  0  0
  -31.0370  -21.7737   22.5675 C   0  0  0  0  0  0  0  0  0  0  0  0
  -32.8471  -28.6637   21.4004 C   0  0  0  0  0  0  0  0  0  0  0  0
  -29.4986  -13.4097   18.3463 C   0  0  0  0  0  0  0  0  0  0  0  0
  -31.7449  -27.9771   22.2009 C   0  0  0  0  0  0  0  0  0  0  0  0
  -28.0125  -13.1646   18.6175 C   0  0  0  0  0  0  0  0  0  0  0  0
  -30.3839  -12.4222   19.1045 C   0  0  0  0  0  0  0  0  0  0  0  0
  -28.6456  -12.0997   20.8202 C   0  0  0  0  0  0  0  0  0  0  0  0
  -32.3349  -27.0189   23.2426 C   0  0  1  0  0  0  0  0  0  0  0  0
  -32.5770  -23.5586   21.6931 C   0  0  1  0  0  0  0  0  0  0  0  0
  -27.7168  -13.1113   20.1292 C   0  0  2  0  0  0  0  0  0  0  0  0
  -29.4309  -12.4921   25.4337 C   0  0  0  0  0  0  0  0  0  0  0  0
  -29.3598  -17.8305   17.5893 C   0  0  0  0  0  0  0  0  0  0  0  0
  -28.0755  -23.5645   20.6458 C   0  0  0  0  0  0  0  0  0  0  0  0
  -27.2251  -21.4911   19.5295 C   0  0  0  0  0  0  0  0  0  0  0  0
  -28.6329  -23.1058   18.2514 C   0  0  0  0  0  0  0  0  0  0  0  0
  -32.6941  -17.7192   19.4185 C   0  0  0  0  0  0  0  0  0  0  0  0
  -33.0869  -19.2205   27.6925 C   0  0  0  0  0  0  0  0  0  1  0  0
  -32.5412  -17.9214   28.2842 C   0  0  1  0  0  0  0  0  0  0  0  0
  -29.7060  -21.6607   20.0268 C   0  0  1  0  0  0  0  0  0  0  0  0
  -30.5838  -18.4144   18.2774 C   0  0  2  0  0  0  0  0  0  0  0  0
  -28.4270  -22.4538   19.6360 C   0  0  0  0  0  0  0  0  0  0  0  0
  -30.5604  -18.3668   29.9583 N   0  0  0  0  0  0  0  0  0  0  0  0
  -25.8637  -11.5462   20.5743 N   0  0  0  0  0  0  0  0  0  0  0  0
  -32.6366  -15.8461   27.0112 N   0  0  0  0  0  0  0  0  0  0  0  0
  -26.2534  -12.8213   20.4059 N   0  0  0  0  0  0  0  0  0  0  0  0
  -31.5303  -22.5688   21.4309 N   0  0  0  0  0  0  0  0  0  0  0  0
  -30.0500  -12.4292   20.5305 N   0  0  0  0  0  0  0  0  0  0  0  0
  -33.7554  -16.0554   24.4092 N   0  0  0  0  0  0  0  0  0  0  0  0
  -25.4552  -15.0512   20.3687 N   0  0  0  0  0  0  0  0  0  0  0  0
  -21.7373  -12.6274   21.2047 N   0  0  0  0  0  0  0  0  0  0  0  0
  -30.6081  -12.7402   22.8007 N   0  0  0  0  0  0  0  0  0  0  0  0
  -32.7659  -25.7898   22.6119 N   0  0  0  0  0  0  0  0  0  0  0  0
  -30.0782  -20.6202   19.0744 N   0  0  0  0  0  0  0  0  0  0  0  0
  -31.4427  -17.2891   18.7432 N   0  3  0  0  0  0  0  0  0  0  0  0
  -22.5424  -14.7500   20.8805 O   0  0  0  0  0  0  0  0  0  0  0  0
  -30.7173  -24.6826   22.6167 O   0  0  0  0  0  0  0  0  0  0  0  0
  -31.3033  -23.2071   19.1999 O   0  0  0  0  0  0  0  0  0  0  0  0
  -29.9990  -18.8578   20.5793 O   0  0  0  0  0  0  0  0  0  0  0  0
  -32.2077  -12.9927   21.1396 O   0  0  0  0  0  0  0  0  0  0  0  0
  -21.4599   -7.0848   21.6930 O   0  0  0  0  0  0  0  0  0  0  0  0
  -32.0711  -19.9220   26.9766 O   0  0  0  0  0  0  0  0  0  1  0  0
  -23.4518   -3.2861   25.1579 F   0  0  0  0  0  0  0  0  0  0  0  0
  -20.0713   -6.3821   23.9778 F   0  0  0  0  0  0  0  0  0  0  0  0
  1 60  1  0  0  0  0
  1 64  3  0  0  0  0
  2  3  1  0  0  0  0
  2  6  2  0  0  0  0
  3  7  2  0  0  0  0
  4  9  2  0  0  0  0
  4 18  1  0  0  0  0
  5 10  1  0  0  0  0
  5 18  2  0  0  0  0
  6 20  1  0  0  0  0
  7 22  1  0  0  0  0
  8 11  2  0  0  0  0
  8 21  1  0  0  0  0
  9 28  1  0  0  0  0
 10 28  2  0  0  0  0
 11 29  1  0  0  0  0
 12 13  2  0  0  0  0
 12 30  1  0  0  0  0
 13 31  1  0  0  0  0
 14 23  1  0  0  0  0
 14 29  2  0  0  0  0
 15 24  2  0  0  0  0
 15 25  1  0  0  0  0
 16 26  2  0  0  0  0
 16 27  1  0  0  0  0
 17 31  2  0  0  0  0
 17 32  1  0  0  0  0
 18 33  1  0  0  0  0
 19 33  1  0  0  0  0
 19 34  2  0  0  0  0
 19 36  1  0  0  0  0
 20 22  2  0  0  0  0
 20 41  1  0  0  0  0
 21 23  2  0  0  0  0
 21 42  1  0  0  0  0
 22 50  1  0  0  0  0
 23 43  1  0  0  0  0
 24 26  1  0  0  0  0
 24 53  1  0  0  0  0
 25 27  2  0  0  0  0
 25 66  1  0  0  0  0
 26 73  1  0  0  0  0
 27 70  1  0  0  0  0
 28 82  1  0  0  0  0
 29 83  1  0  0  0  0
 30 32  2  0  0  0  0
 30 82  1  0  0  0  0
 31 84  1  0  0  0  0
 32 85  1  0  0  0  0
 33 65  2  0  0  0  0
 34 67  1  0  0  0  0
 34 71  1  0  0  0  0
 35 60  1  0  0  0  0
 35 66  2  0  0  0  0
 36 72  1  0  0  0  0
 36 77  2  0  0  0  0
 37 51  1  0  0  0  0
 37 74  1  0  0  0  0
 37 78  2  0  0  0  0
 38 61  1  0  0  0  0
 38 68  1  0  0  0  0
 38 79  2  0  0  0  0
 39 62  1  0  0  0  0
 39 75  1  0  0  0  0
 39 80  2  0  0  0  0
 40 69  1  0  0  0  0
 40 73  1  0  0  0  0
 40 81  2  0  0  0  0
 41 44  1  0  0  0  0
 42 51  1  0  0  0  0
 43 68  1  0  0  0  0
 44 46  1  0  0  0  0
 45 47  1  0  0  0  0
 45 48  1  0  0  0  0
 46 50  1  0  0  0  0
 47 52  1  0  0  0  0
 48 69  1  0  0  0  0
 49 52  1  0  0  0  0
 49 69  1  0  0  0  0
 50 74  1  0  0  0  0
 51 68  1  0  0  0  0
 52 67  1  0  0  0  0
 54 62  1  0  0  0  0
 55 63  1  0  0  0  0
 56 63  1  0  0  0  0
 57 63  1  0  0  0  0
 58 76  1  0  0  0  0
 59 60  1  0  0  0  0
 59 83  1  0  0  0  0
 61 63  1  0  0  0  0
 61 75  1  0  0  0  0
 62 76  1  0  0  0  0
 65 67  1  0  0  0  0
M  CHG  1  76   1
M  ISO  4  40 100  59 101  73 100  83 101
M  END
> <Batch ID>
0110

> <Smiles>
CNC(C)C(=O)NC(C(=O)N1Cc2cc([101O:1][101CH2:1]C(C#N)=CNc3cc(C)c([100NH:0][100C:0](=O)N4CCCC(n5nc(-c6ccc(Oc7ccc(F)cc7F)cc6)c(C(N)=O)c5N)C4)cc3N)ccc2CC1C(=O)NC1CCCc2ccccc21)C(C)(C)C

> <Shape>
0.198

> <Color>
0.179

> <Negative vol penalty>
0.000

$$$$

  -OEChem-04052301263D

 86 94  0     1  0  0  0  0  0999 V2000
  -35.9834  -29.8706   29.7735 C   0  0  0  0  0  0  0  0  0  0  0  0
  -36.0454  -28.4896   29.9302 C   0  0  0  0  0  0  0  0  0  0  0  0
  -22.9891   -9.9003   19.9941 C   0  0  0  0  0  0  0  0  0  0  0  0
  -23.7678   -9.9382   22.2809 C   0  0  0  0  0  0  0  0  0  0  0  0
  -34.8526  -30.4565   29.2059 C   0  0  0  0  0  0  0  0  0  0  0  0
  -34.9762  -27.6938   29.5204 C   0  0  0  0  0  0  0  0  0  0  0  0
  -35.2816  -22.0641   27.1291 C   0  0  0  0  0  0  0  0  0  0  0  0
  -22.2309   -8.7628   20.2711 C   0  0  0  0  0  0  0  0  0  0  0  0
  -23.0095   -8.8006   22.5579 C   0  0  0  0  0  0  0  0  0  0  0  0
  -35.1144  -20.7975   27.6874 C   0  0  0  0  0  0  0  0  0  0  0  0
  -23.2484   -5.4651   22.0593 C   0  0  0  0  0  0  0  0  0  0  0  0
  -23.8551   -4.4443   22.7911 C   0  0  0  0  0  0  0  0  0  0  0  0
  -32.8153  -20.7859   26.9573 C   0  0  0  0  0  0  0  0  0  0  0  0
  -31.7383  -17.3408   24.5305 C   0  0  0  0  0  0  0  0  0  0  0  0
  -31.4111  -15.0195   25.1146 C   0  0  0  0  0  0  0  0  0  0  0  0
  -22.1704   -4.6735   24.5076 C   0  0  0  0  0  0  0  0  0  0  0  0
  -23.7576  -10.4880   20.9990 C   0  0  0  0  0  0  0  0  0  0  0  0
  -30.7380  -15.8239   22.9382 C   0  0  0  0  0  0  0  0  0  0  0  0
  -24.1344  -13.0053   20.8300 C   0  0  0  0  0  0  0  0  0  0  0  0
  -33.7730  -29.6666   28.7802 C   0  0  0  0  0  0  0  0  0  0  0  0
  -34.2120  -22.7067   26.4892 C   0  0  0  0  0  0  0  0  0  0  0  0
  -33.8294  -28.2698   28.9479 C   0  0  0  0  0  0  0  0  0  0  0  0
  -32.9722  -22.0595   26.3895 C   0  0  0  0  0  0  0  0  0  0  0  0
  -31.8536  -16.2989   25.4506 C   0  0  0  0  0  0  0  0  0  0  0  0
  -31.1804  -17.1033   23.2742 C   0  0  0  0  0  0  0  0  0  0  0  0
  -22.2411   -8.2129   21.5530 C   0  0  0  0  0  0  0  0  0  0  0  0
  -33.8803  -20.1594   27.6040 C   0  0  0  0  0  0  0  0  0  0  0  0
  -22.1028   -6.0903   22.5517 C   0  0  0  0  0  0  0  0  0  0  0  0
  -30.8533  -14.7819   23.8583 C   0  0  0  0  0  0  0  0  0  0  0  0
  -23.3161   -4.0485   24.0152 C   0  0  0  0  0  0  0  0  0  0  0  0
  -21.5637   -5.6944   23.7758 C   0  0  0  0  0  0  0  0  0  0  0  0
  -24.5414  -11.6628   20.7134 C   0  0  0  0  0  0  0  0  0  0  0  0
  -25.2341  -13.7323   20.4444 C   0  0  0  0  0  0  0  0  0  0  0  0
  -33.6948  -16.3809   26.8027 C   0  0  0  0  0  0  0  0  0  0  0  0
  -30.1538  -15.5644   21.6258 C   0  0  0  0  0  0  0  0  0  0  0  0
  -22.8749  -13.5470   21.2494 C   0  0  0  0  0  0  0  0  0  0  0  0
  -30.7575  -14.5802   20.6984 C   0  0  0  0  0  0  0  0  0  0  0  0
  -32.5905  -25.3955   26.9842 C   0  0  0  0  0  0  0  0  0  0  0  0
  -31.1891  -24.6101   24.1661 C   0  0  0  0  0  0  0  0  0  0  0  0
  -30.3602  -22.1765   21.9216 C   0  0  0  0  0  0  0  0  0  0  0  0
  -32.5523  -30.3492   28.2157 C   0  0  0  0  0  0  0  0  0  0  0  0
  -34.4161  -24.0616   25.8688 C   0  0  0  0  0  0  0  0  0  0  0  0
  -31.7979  -22.6979   25.6953 C   0  0  0  0  0  0  0  0  0  0  0  0
  -31.6187  -29.4038   27.4641 C   0  0  0  0  0  0  0  0  0  0  0  0
  -29.5348  -12.2909   18.2244 C   0  0  0  0  0  0  0  0  0  0  0  0
  -31.3866  -28.1300   28.2706 C   0  0  0  0  0  0  0  0  0  0  0  0
  -28.1057  -12.0042   18.6843 C   0  0  0  0  0  0  0  0  0  0  0  0
  -30.4713  -12.5002   19.4099 C   0  0  0  0  0  0  0  0  0  0  0  0
  -28.5873  -13.2851   20.8180 C   0  0  0  0  0  0  0  0  0  0  0  0
  -32.7002  -27.3708   28.4930 C   0  0  1  0  0  0  0  0  0  0  0  0
  -33.1157  -24.8393   25.6909 C   0  0  1  0  0  0  0  0  0  0  0  0
  -27.6064  -13.0955   19.6478 C   0  0  2  0  0  0  0  0  0  0  0  0
  -31.0578  -11.2336   23.2583 C   0  0  0  0  0  0  0  0  0  0  0  0
  -29.1834  -21.8346   19.7317 C   0  0  0  0  0  0  0  0  0  0  0  0
  -28.4956  -24.8776   25.5745 C   0  0  0  0  0  0  0  0  0  0  0  0
  -27.4543  -23.6305   23.6695 C   0  0  0  0  0  0  0  0  0  0  0  0
  -28.5627  -25.8279   23.2622 C   0  0  0  0  0  0  0  0  0  0  0  0
  -32.8188  -21.1574   20.6271 C   0  0  0  0  0  0  0  0  0  0  0  0
  -34.4104  -16.6233   28.1046 C   0  0  0  0  0  0  0  0  0  0  0  0
  -31.1123  -12.4389   24.1726 C   0  0  0  0  0  0  0  0  0  0  0  0
  -34.8590  -18.0724   28.1894 C   0  0  0  0  0  0  0  0  0  1  0  0
  -29.9831  -23.7969   23.7619 C   0  0  1  0  0  0  0  0  0  0  0  0
  -30.5163  -22.1017   20.4135 C   0  0  2  0  0  0  0  0  0  0  0  0
  -28.6453  -24.5217   24.0819 C   0  0  0  0  0  0  0  0  0  0  0  0
  -25.8013  -11.5411   20.2869 N   0  0  0  0  0  0  0  0  0  0  0  0
  -29.0834  -16.1671   21.1920 N   0  0  0  0  0  0  0  0  0  0  0  0
  -32.4144  -16.5388   26.7163 N   0  0  0  0  0  0  0  0  0  0  0  0
  -26.1954  -12.8165   20.1321 N   0  0  0  0  0  0  0  0  0  0  0  0
  -29.9501  -13.5158   20.3225 N   0  0  0  0  0  0  0  0  0  0  0  0
  -32.0456  -24.0259   25.1100 N   0  0  0  0  0  0  0  0  0  0  0  0
  -31.0740  -18.1735   22.3577 N   0  0  0  0  0  0  0  0  0  0  0  0
  -25.4629  -15.0590   20.3453 N   0  0  0  0  0  0  0  0  0  0  0  0
  -21.8529  -12.6588   21.6113 N   0  0  0  0  0  0  0  0  0  0  0  0
  -33.0769  -26.6509   27.2955 N   0  0  0  0  0  0  0  0  0  0  0  0
  -30.1641  -23.4720   22.3512 N   0  0  0  0  0  0  0  0  0  0  0  0
  -31.4605  -21.0095   20.0440 N   0  3  0  0  0  0  0  0  0  0  0  0
  -22.6567  -14.7817   21.2860 O   0  0  0  0  0  0  0  0  0  0  0  0
  -31.9111  -14.8121   20.3611 O   0  0  0  0  0  0  0  0  0  0  0  0
  -31.8013  -24.7352   27.6495 O   0  0  0  0  0  0  0  0  0  0  0  0
  -31.3685  -25.7195   23.6576 O   0  0  0  0  0  0  0  0  0  0  0  0
  -30.4039  -21.1845   22.6458 O   0  0  0  0  0  0  0  0  0  0  0  0
  -21.5012   -7.1030   21.8237 O   0  0  0  0  0  0  0  0  0  0  0  0
  -33.7142  -18.9234   28.1487 O   0  0  0  0  0  0  0  0  0  1  0  0
  -30.4268  -13.5241   23.5517 O   0  0  0  0  0  0  0  0  0  0  0  0
  -23.8979   -3.0671   24.7170 F   0  0  0  0  0  0  0  0  0  0  0  0
  -20.4626   -6.2904   24.2534 F   0  0  0  0  0  0  0  0  0  0  0  0
  1  2  1  0  0  0  0
  1  5  2  0  0  0  0
  2  6  2  0  0  0  0
  3  8  2  0  0  0  0
  3 17  1  0  0  0  0
  4  9  1  0  0  0  0
  4 17  2  0  0  0  0
  5 20  1  0  0  0  0
  6 22  1  0  0  0  0
  7 10  2  0  0  0  0
  7 21  1  0  0  0  0
  8 26  1  0  0  0  0
  9 26  2  0  0  0  0
 10 27  1  0  0  0  0
 11 12  2  0  0  0  0
 11 28  1  0  0  0  0
 12 30  1  0  0  0  0
 13 23  1  0  0  0  0
 13 27  2  0  0  0  0
 14 24  1  0  0  0  0
 14 25  2  0  0  0  0
 15 24  2  0  0  0  0
 15 29  1  0  0  0  0
 16 30  2  0  0  0  0
 16 31  1  0  0  0  0
 17 32  1  0  0  0  0
 18 25  1  0  0  0  0
 18 29  2  0  0  0  0
 18 35  1  0  0  0  0
 19 32  1  0  0  0  0
 19 33  2  0  0  0  0
 19 36  1  0  0  0  0
 20 22  2  0  0  0  0
 20 41  1  0  0  0  0
 21 23  2  0  0  0  0
 21 42  1  0  0  0  0
 22 50  1  0  0  0  0
 23 43  1  0  0  0  0
 24 67  1  0  0  0  0
 25 71  1  0  0  0  0
 26 82  1  0  0  0  0
 27 83  1  0  0  0  0
 28 31  2  0  0  0  0
 28 82  1  0  0  0  0
 29 84  1  0  0  0  0
 30 85  1  0  0  0  0
 31 86  1  0  0  0  0
 32 65  2  0  0  0  0
 33 68  1  0  0  0  0
 33 72  1  0  0  0  0
 34 59  1  0  0  0  0
 34 67  2  0  0  0  0
 35 37  1  0  0  0  0
 35 66  2  0  0  0  0
 36 73  1  0  0  0  0
 36 77  2  0  0  0  0
 37 69  1  0  0  0  0
 37 78  2  0  0  0  0
 38 51  1  0  0  0  0
 38 74  1  0  0  0  0
 38 79  2  0  0  0  0
 39 62  1  0  0  0  0
 39 70  1  0  0  0  0
 39 80  2  0  0  0  0
 40 63  1  0  0  0  0
 40 75  1  0  0  0  0
 40 81  2  0  0  0  0
 41 44  1  0  0  0  0
 42 51  1  0  0  0  0
 43 70  1  0  0  0  0
 44 46  1  0  0  0  0
 45 47  1  0  0  0  0
 45 48  1  0  0  0  0
 46 50  1  0  0  0  0
 47 52  1  0  0  0  0
 48 69  1  0  0  0  0
 49 52  1  0  0  0  0
 49 69  1  0  0  0  0
 50 74  1  0  0  0  0
 51 70  1  0  0  0  0
 52 68  1  0  0  0  0
 53 60  1  0  0  0  0
 54 63  1  0  0  0  0
 55 64  1  0  0  0  0
 56 64  1  0  0  0  0
 57 64  1  0  0  0  0
 58 76  1  0  0  0  0
 59 61  1  0  0  0  0
 60 84  1  0  0  0  0
 61 83  1  0  0  0  0
 62 64  1  0  0  0  0
 62 75  1  0  0  0  0
 63 76  1  0  0  0  0
 65 68  1  0  0  0  0
M  CHG  1  76   1
M  ISO  4  35 100  37 100  61 101  83 101
M  END
> <Batch ID>
0110

> <Smiles>
CCOc1cc(NC=C[101CH2:1][101O:1]c2ccc3c(c2)CN(C(=O)C(NC(=O)C(C)NC)C(C)(C)C)C(C(=O)NC2CCCc4ccccc42)C3)cc(N)c1[100C:0](=N)[100C:0](=O)N1CCCC(n2nc(-c3ccc(Oc4ccc(F)cc4F)cc3)c(C(N)=O)c2N)C1

> <Shape>
0.191

> <Color>
0.183

> <Negative vol penalty>
0.000

$$$$

  -OEChem-04052301263D

 88 97  0     1  0  0  0  0  0999 V2000
  -24.1069  -36.2369   18.0398 C   0  0  0  0  0  0  0  0  0  0  0  0
  -25.0841  -35.3261   17.6512 C   0  0  0  0  0  0  0  0  0  0  0  0
  -26.3591  -12.9580   19.1246 C   0  0  0  0  0  0  0  0  0  0  0  0
  -26.3717  -12.5522   21.5063 C   0  0  0  0  0  0  0  0  0  0  0  0
  -23.6497  -36.2474   19.3569 C   0  0  0  0  0  0  0  0  0  0  0  0
  -25.6054  -34.4260   18.5799 C   0  0  0  0  0  0  0  0  0  0  0  0
  -25.1549  -27.3166   17.5101 C   0  0  0  0  0  0  0  0  0  0  0  0
  -25.1070  -12.3512   19.0278 C   0  0  0  0  0  0  0  0  0  0  0  0
  -25.1195  -11.9454   21.4095 C   0  0  0  0  0  0  0  0  0  0  0  0
  -25.2953  -25.9484   17.2765 C   0  0  0  0  0  0  0  0  0  0  0  0
  -23.8680   -8.9538   20.4527 C   0  0  0  0  0  0  0  0  0  0  0  0
  -23.6760   -7.7517   21.1336 C   0  0  0  0  0  0  0  0  0  0  0  0
  -29.4942  -23.5952   18.7062 C   0  0  0  0  0  0  0  0  0  0  0  0
  -30.0438  -22.3931   20.7284 C   0  0  0  0  0  0  0  0  0  0  0  0
  -26.3316  -25.6740   19.4442 C   0  0  0  0  0  0  0  0  0  0  0  0
  -28.9934  -21.2384   18.8844 C   0  0  0  0  0  0  0  0  0  0  0  0
  -21.8955   -8.7626   22.4162 C   0  0  0  0  0  0  0  0  0  0  0  0
  -26.9915  -13.0585   20.3639 C   0  0  0  0  0  0  0  0  0  0  0  0
  -30.0275  -23.5794   19.9949 C   0  0  0  0  0  0  0  0  0  0  0  0
  -29.4737  -13.2886   19.8221 C   0  0  0  0  0  0  0  0  0  0  0  0
  -24.1587  -35.3406   20.2998 C   0  0  0  0  0  0  0  0  0  0  0  0
  -25.5888  -27.8667   18.7193 C   0  0  0  0  0  0  0  0  0  0  0  0
  -25.1555  -34.4253   19.9112 C   0  0  0  0  0  0  0  0  0  0  0  0
  -26.1822  -27.0417   19.6888 C   0  0  0  0  0  0  0  0  0  0  0  0
  -28.9771  -22.4247   18.1509 C   0  0  0  0  0  0  0  0  0  0  0  0
  -29.5268  -21.2225   20.1732 C   0  0  0  0  0  0  0  0  0  0  0  0
  -24.4871  -11.8449   20.1702 C   0  0  0  0  0  0  0  0  0  0  0  0
  -25.8825  -25.1292   18.2411 C   0  0  0  0  0  0  0  0  0  0  0  0
  -23.0738  -10.0604   20.7536 C   0  0  0  0  0  0  0  0  0  0  0  0
  -22.6898   -7.6561   22.1153 C   0  0  0  0  0  0  0  0  0  0  0  0
  -22.0875   -9.9647   21.7353 C   0  0  0  0  0  0  0  0  0  0  0  0
  -28.2853  -13.6847   20.4644 C   0  0  0  0  0  0  0  0  0  0  0  0
  -30.4111  -14.2007   20.2415 C   0  0  0  0  0  0  0  0  0  0  0  0
  -29.0182  -20.7030   14.3373 C   0  0  0  0  0  0  0  0  0  0  0  0
  -30.5679  -24.7997   20.5731 C   0  0  0  0  0  0  0  0  0  0  0  0
  -29.7092  -12.1942   18.9264 C   0  0  0  0  0  0  0  0  0  0  0  0
  -25.9448  -30.9383   20.8442 C   0  0  0  0  0  0  0  0  0  0  0  0
  -25.1012  -28.6556   22.7119 C   0  0  0  0  0  0  0  0  0  0  0  0
  -23.7632  -25.9796   24.3507 C   0  0  0  0  0  0  0  0  0  0  0  0
  -30.0344  -19.8299   22.2102 C   0  0  0  0  0  0  0  0  0  0  0  0
  -23.6675  -35.4214   21.7235 C   0  0  0  0  0  0  0  0  0  0  0  0
  -25.5136  -29.3451   18.9888 C   0  0  0  0  0  0  0  0  0  0  0  0
  -26.6658  -27.6829   20.9608 C   0  0  0  0  0  0  0  0  0  0  0  0
  -27.7661  -20.2218   15.0385 C   0  0  0  0  0  0  0  0  0  0  0  0
  -29.9631  -21.6098   15.0967 C   0  0  0  0  0  0  0  0  0  0  0  0
  -24.0018  -34.1852   22.5543 C   0  0  0  0  0  0  0  0  0  0  0  0
  -26.7922  -21.3698   15.2753 C   0  0  0  0  0  0  0  0  0  0  0  0
  -31.4617  -17.0617   23.9355 C   0  0  0  0  0  0  0  0  0  0  0  0
  -25.4583  -33.7814   22.3483 C   0  0  0  0  0  0  0  0  0  0  0  0
  -30.9221  -15.8457   23.1790 C   0  0  0  0  0  0  0  0  0  0  0  0
  -29.2725  -22.8253   15.7074 C   0  0  0  0  0  0  0  0  0  0  0  0
  -30.4242  -18.1793   24.0264 C   0  0  0  0  0  0  0  0  0  0  0  0
  -29.3013  -17.3747   21.9865 C   0  0  0  0  0  0  0  0  0  0  0  0
  -25.7277  -33.4166   20.8834 C   0  0  1  0  0  0  0  0  0  0  0  0
  -25.2282  -29.6758   20.4647 C   0  0  1  0  0  0  0  0  0  0  0  0
  -30.3327  -16.2479   21.8128 C   0  0  2  0  0  0  0  0  0  0  0  0
  -27.0211  -22.1114   16.6095 C   0  0  2  0  0  0  0  0  0  0  0  0
  -22.9746  -25.2522   26.6193 C   0  0  0  0  0  0  0  0  0  0  0  0
  -27.9981  -28.3556   23.6186 C   0  0  0  0  0  0  0  0  0  0  0  0
  -27.2019  -26.7974   25.4092 C   0  0  0  0  0  0  0  0  0  0  0  0
  -26.4296  -29.1693   25.3883 C   0  0  0  0  0  0  0  0  0  0  0  0
  -21.0122  -25.5023   23.3693 C   0  0  0  0  0  0  0  0  0  0  0  0
  -26.1708  -23.3842   16.6507 C   0  0  0  0  0  0  0  0  0  1  0  0
  -25.5416  -27.5614   23.6511 C   0  0  1  0  0  0  0  0  0  0  0  0
  -22.5730  -25.8629   25.2857 C   0  0  2  0  0  0  0  0  0  0  0  0
  -26.7871  -27.9656   24.4894 C   0  0  0  0  0  0  0  0  0  0  0  0
  -28.4500  -14.7643   21.2335 N   0  0  0  0  0  0  0  0  0  0  0  0
  -30.5876  -25.9401   19.9494 N   0  0  0  0  0  0  0  0  0  0  0  0
  -29.7529  -15.0543   21.0772 N   0  0  0  0  0  0  0  0  0  0  0  0
  -28.4406  -22.4403   16.8560 N   0  0  3  0  0  0  0  0  0  0  0  0
  -25.6778  -28.6640   21.4359 N   0  0  0  0  0  0  0  0  0  0  0  0
  -29.9134  -18.5101   22.6942 N   0  0  0  0  0  0  0  0  0  0  0  0
  -31.7259  -14.3479   19.9733 N   0  0  0  0  0  0  0  0  0  0  0  0
  -28.6355  -11.3543   18.6009 N   0  0  0  0  0  0  0  0  0  0  0  0
  -29.5428  -20.0177   20.9188 N   0  0  0  0  0  0  0  0  0  0  0  0
  -25.2256  -32.0909   20.5920 N   0  0  0  0  0  0  0  0  0  0  0  0
  -24.3713  -27.2132   24.4495 N   0  0  0  0  0  0  0  0  0  0  0  0
  -21.5170  -25.0065   24.6756 N   0  3  0  0  0  0  0  0  0  0  0  0
  -29.2936  -20.3159   13.2001 O   0  0  0  0  0  0  0  0  0  0  0  0
  -30.8421  -11.9579   18.4424 O   0  0  0  0  0  0  0  0  0  0  0  0
  -27.0672  -30.8727   21.3316 O   0  0  0  0  0  0  0  0  0  0  0  0
  -24.2729  -29.4850   23.0983 O   0  0  0  0  0  0  0  0  0  0  0  0
  -24.1202  -25.0663   23.6098 O   0  0  0  0  0  0  0  0  0  0  0  0
  -30.5617  -20.7212   22.8806 O   0  0  0  0  0  0  0  0  0  0  0  0
  -23.2651  -11.2529   20.0761 O   0  0  0  0  0  0  0  0  0  0  0  0
  -26.0124  -23.7936   18.0085 O   0  0  0  0  0  0  0  0  0  1  0  0
  -22.5045   -6.5012   22.7680 F   0  0  0  0  0  0  0  0  0  0  0  0
  -21.3206  -11.0240   22.0278 F   0  0  0  0  0  0  0  0  0  0  0  0
  1  2  1  0  0  0  0
  1  5  2  0  0  0  0
  2  6  2  0  0  0  0
  3  8  2  0  0  0  0
  3 18  1  0  0  0  0
  4  9  1  0  0  0  0
  4 18  2  0  0  0  0
  5 21  1  0  0  0  0
  6 23  1  0  0  0  0
  7 10  2  0  0  0  0
  7 22  1  0  0  0  0
  8 27  1  0  0  0  0
  9 27  2  0  0  0  0
 10 28  1  0  0  0  0
 11 12  2  0  0  0  0
 11 29  1  0  0  0  0
 12 30  1  0  0  0  0
 13 19  2  0  0  0  0
 13 25  1  0  0  0  0
 14 19  1  0  0  0  0
 14 26  2  0  0  0  0
 15 24  1  0  0  0  0
 15 28  2  0  0  0  0
 16 25  2  0  0  0  0
 16 26  1  0  0  0  0
 17 30  2  0  0  0  0
 17 31  1  0  0  0  0
 18 32  1  0  0  0  0
 19 35  1  0  0  0  0
 20 32  1  0  0  0  0
 20 33  2  0  0  0  0
 20 36  1  0  0  0  0
 21 23  2  0  0  0  0
 21 41  1  0  0  0  0
 22 24  2  0  0  0  0
 22 42  1  0  0  0  0
 23 54  1  0  0  0  0
 24 43  1  0  0  0  0
 25 70  1  0  0  0  0
 26 75  1  0  0  0  0
 27 85  1  0  0  0  0
 28 86  1  0  0  0  0
 29 31  2  0  0  0  0
 29 85  1  0  0  0  0
 30 87  1  0  0  0  0
 31 88  1  0  0  0  0
 32 67  2  0  0  0  0
 33 69  1  0  0  0  0
 33 73  1  0  0  0  0
 34 44  1  0  0  0  0
 34 45  1  0  0  0  0
 34 79  2  0  0  0  0
 35 68  2  0  0  0  0
 36 74  1  0  0  0  0
 36 80  2  0  0  0  0
 37 55  1  0  0  0  0
 37 76  1  0  0  0  0
 37 81  2  0  0  0  0
 38 64  1  0  0  0  0
 38 71  1  0  0  0  0
 38 82  2  0  0  0  0
 39 65  1  0  0  0  0
 39 77  1  0  0  0  0
 39 83  2  0  0  0  0
 40 72  1  0  0  0  0
 40 75  1  0  0  0  0
 40 84  2  0  0  0  0
 41 46  1  0  0  0  0
 42 55  1  0  0  0  0
 43 71  1  0  0  0  0
 44 47  1  0  0  0  0
 45 51  1  0  0  0  0
 46 49  1  0  0  0  0
 47 57  1  0  0  0  0
 48 50  1  0  0  0  0
 48 52  1  0  0  0  0
 49 54  1  0  0  0  0
 50 56  1  0  0  0  0
 51 70  1  0  0  0  0
 52 72  1  0  0  0  0
 53 56  1  0  0  0  0
 53 72  1  0  0  0  0
 54 76  1  0  0  0  0
 55 71  1  0  0  0  0
 56 69  1  0  0  0  0
 57 63  1  0  0  0  0
 57 70  1  0  0  0  0
 58 65  1  0  0  0  0
 59 66  1  0  0  0  0
 60 66  1  0  0  0  0
 61 66  1  0  0  0  0
 62 78  1  0  0  0  0
 63 86  1  0  0  0  0
 64 66  1  0  0  0  0
 64 77  1  0  0  0  0
 65 78  1  0  0  0  0
 67 69  1  0  0  0  0
M  CHG  1  78   1
M  ISO  4  40 100  63 101  75 100  86 101
M  END
> <Batch ID>
0110

> <Smiles>
CNC(C)C(=O)NC(C(=O)N1Cc2cc([101O:1][101CH2:1]C3CCC(=O)CCN3c3cc(C=N)cc([100NH:0][100C:0](=O)N4CCCC(n5nc(-c6ccc(Oc7ccc(F)cc7F)cc6)c(C(N)=O)c5N)C4)c3)ccc2CC1C(=O)NC1CCCc2ccccc21)C(C)(C)C

> <Shape>
0.257

> <Color>
0.076

> <Negative vol penalty>
0.000

$$$$

  -OEChem-04052301263D

 87 95  0     1  0  0  0  0  0999 V2000
  -23.1982   -8.1772   22.0765 C   0  0  0  0  0  0  0  0  0  0  0  0
  -24.2494   -9.0541   22.3247 C   0  0  0  0  0  0  0  0  0  0  0  0
  -22.3594  -28.3129   20.8234 C   0  0  0  0  0  0  0  0  0  0  0  0
  -23.3036  -26.9033   22.5436 C   0  0  0  0  0  0  0  0  0  0  0  0
  -22.2390   -8.4949   21.1158 C   0  0  0  0  0  0  0  0  0  0  0  0
  -24.3424  -10.2488   21.6116 C   0  0  0  0  0  0  0  0  0  0  0  0
  -26.4294  -15.6204   23.6843 C   0  0  0  0  0  0  0  0  0  0  0  0
  -21.0905  -28.1358   21.3748 C   0  0  0  0  0  0  0  0  0  0  0  0
  -22.0346  -26.7263   23.0950 C   0  0  0  0  0  0  0  0  0  0  0  0
  -27.6649  -16.2554   23.5660 C   0  0  0  0  0  0  0  0  0  0  0  0
  -17.6538  -28.3473   22.5408 C   0  0  0  0  0  0  0  0  0  0  0  0
  -16.8445  -29.4747   22.6808 C   0  0  0  0  0  0  0  0  0  0  0  0
  -31.2854  -23.7791   20.9923 C   0  0  0  0  0  0  0  0  0  0  0  0
  -26.8320  -17.5121   21.6829 C   0  0  0  0  0  0  0  0  0  0  0  0
  -34.0122  -24.2820   21.3001 C   0  0  0  0  0  0  0  0  0  0  0  0
  -18.5021  -30.4862   24.1182 C   0  0  0  0  0  0  0  0  0  0  0  0
  -23.4660  -27.6966   21.4078 C   0  0  0  0  0  0  0  0  0  0  0  0
  -31.8977  -24.7853   20.2452 C   0  0  0  0  0  0  0  0  0  0  0  0
  -25.7081  -28.8864   21.1534 C   0  0  0  0  0  0  0  0  0  0  0  0
  -22.3150   -9.6985   20.3974 C   0  0  0  0  0  0  0  0  0  0  0  0
  -25.3876  -15.9191   22.7944 C   0  0  0  0  0  0  0  0  0  0  0  0
  -23.3840  -10.5822   20.6395 C   0  0  0  0  0  0  0  0  0  0  0  0
  -25.5834  -16.8814   21.7936 C   0  0  0  0  0  0  0  0  0  0  0  0
  -33.2610  -25.0368   20.3990 C   0  0  0  0  0  0  0  0  0  0  0  0
  -20.9280  -27.3425   22.5105 C   0  0  0  0  0  0  0  0  0  0  0  0
  -27.8673  -17.1993   22.5634 C   0  0  0  0  0  0  0  0  0  0  0  0
  -18.8873  -28.2893   23.1896 C   0  0  0  0  0  0  0  0  0  0  0  0
  -32.0365  -23.0243   21.8933 C   0  0  0  0  0  0  0  0  0  0  0  0
  -33.3999  -23.2757   22.0472 C   0  0  0  0  0  0  0  0  0  0  0  0
  -17.2686  -30.5441   23.4695 C   0  0  0  0  0  0  0  0  0  0  0  0
  -19.3114  -29.3588   23.9783 C   0  0  0  0  0  0  0  0  0  0  0  0
  -24.7770  -27.8787   20.8384 C   0  0  0  0  0  0  0  0  0  0  0  0
  -26.7869  -28.6217   20.3455 C   0  0  0  0  0  0  0  0  0  0  0  0
  -31.0895  -25.5596   19.3126 C   0  0  0  0  0  0  0  0  0  0  0  0
  -25.6070  -29.9652   22.0923 C   0  0  0  0  0  0  0  0  0  0  0  0
  -30.3738  -24.9091   18.1911 C   0  0  0  0  0  0  0  0  0  0  0  0
  -23.7212  -14.2618   20.6543 C   0  0  0  0  0  0  0  0  0  0  0  0
  -30.2161  -19.9533   22.4982 C   0  0  0  0  0  0  0  0  0  0  0  0
  -22.0100  -17.0088   20.4360 C   0  0  0  0  0  0  0  0  0  0  0  0
  -21.9016  -20.3950   20.8466 C   0  0  0  0  0  0  0  0  0  0  0  0
  -21.2808   -9.9766   19.3354 C   0  0  0  0  0  0  0  0  0  0  0  0
  -24.0523  -15.2448   22.9521 C   0  0  0  0  0  0  0  0  0  0  0  0
  -24.4907  -17.2526   20.8257 C   0  0  0  0  0  0  0  0  0  0  0  0
  -21.2440  -11.4357   18.8883 C   0  0  0  0  0  0  0  0  0  0  0  0
  -27.2934  -25.4601   16.4406 C   0  0  0  0  0  0  0  0  0  0  0  0
  -22.6563  -11.9501   18.6283 C   0  0  0  0  0  0  0  0  0  0  0  0
  -26.4278  -26.1868   17.4693 C   0  0  0  0  0  0  0  0  0  0  0  0
  -28.2129  -24.4406   17.1050 C   0  0  0  0  0  0  0  0  0  0  0  0
  -28.2162  -25.7487   19.2115 C   0  0  0  0  0  0  0  0  0  0  0  0
  -23.5056  -11.8992   19.9041 C   0  0  1  0  0  0  0  0  0  0  0  0
  -23.2248  -15.2510   21.6704 C   0  0  1  0  0  0  0  0  0  0  0  0
  -27.2938  -26.8064   18.5806 C   0  0  2  0  0  0  0  0  0  0  0  0
  -34.2004  -27.3610   20.4435 C   0  0  0  0  0  0  0  0  0  0  0  0
  -20.3795  -22.3678   20.5485 C   0  0  0  0  0  0  0  0  0  0  0  0
  -22.4924  -16.9229   17.4244 C   0  0  0  0  0  0  0  0  0  0  0  0
  -21.8046  -19.3278   17.3160 C   0  0  0  0  0  0  0  0  0  0  0  0
  -20.1796  -17.6013   18.0915 C   0  0  0  0  0  0  0  0  0  0  0  0
  -21.9759  -21.0358   23.7350 C   0  0  0  0  0  0  0  0  0  0  0  0
  -34.7558  -21.3586   22.4244 C   0  0  0  0  0  0  0  0  0  0  0  0
  -33.9416  -26.1086   19.6117 C   0  0  0  0  0  0  0  0  0  0  0  0
  -29.0709  -19.1472   21.9206 C   0  0  0  0  0  0  0  0  0  1  0  0
  -30.3132  -21.3912   22.0313 C   0  0  0  0  0  0  0  0  0  0  0  0
  -22.1003  -18.2609   19.5975 C   0  0  1  0  0  0  0  0  0  0  0  0
  -20.8754  -21.2972   21.5080 C   0  0  2  0  0  0  0  0  0  0  0  0
  -21.6656  -18.0201   18.1242 C   0  0  0  0  0  0  0  0  0  0  0  0
  -25.2250  -27.0367   19.9033 N   0  0  0  0  0  0  0  0  0  0  0  0
  -30.9410  -26.8526   19.3992 N   0  0  0  0  0  0  0  0  0  0  0  0
  -26.4494  -27.5149   19.6236 N   0  0  0  0  0  0  0  0  0  0  0  0
  -28.9935  -25.0531   18.1781 N   0  0  0  0  0  0  0  0  0  0  0  0
  -23.2050  -16.5611   21.0167 N   0  0  0  0  0  0  0  0  0  0  0  0
  -27.9818  -29.2302   20.1893 N   0  0  0  0  0  0  0  0  0  0  0  0
  -24.4289  -30.0911   22.8410 N   0  0  0  0  0  0  0  0  0  0  0  0
  -23.1690  -13.0013   20.7796 N   0  0  0  0  0  0  0  0  0  0  0  0
  -21.3165  -19.2757   20.2934 N   0  0  0  0  0  0  0  0  0  0  0  0
  -21.4682  -21.9706   22.6980 N   0  3  0  0  0  0  0  0  0  0  0  0
  -26.5274  -30.8027   22.2505 O   0  0  0  0  0  0  0  0  0  0  0  0
  -31.0806  -24.3100   17.3911 O   0  0  0  0  0  0  0  0  0  0  0  0
  -24.5432  -14.6162   19.8174 O   0  0  0  0  0  0  0  0  0  0  0  0
  -31.0177  -19.4699   23.2963 O   0  0  0  0  0  0  0  0  0  0  0  0
  -20.9179  -16.4526   20.5767 O   0  0  0  0  0  0  0  0  0  0  0  0
  -23.1017  -20.6589   20.8198 O   0  0  0  0  0  0  0  0  0  0  0  0
  -19.6900  -27.1697   23.0490 O   0  0  0  0  0  0  0  0  0  0  0  0
  -34.1435  -22.5457   22.9246 O   0  0  0  0  0  0  0  0  0  0  0  0
  -29.0725  -17.8201   22.4453 O   0  0  0  0  0  0  0  0  0  1  0  0
  -31.4213  -22.0353   22.6238 O   0  0  0  0  0  0  0  0  0  0  0  0
  -16.4920  -31.6273   23.6026 F   0  0  0  0  0  0  0  0  0  0  0  0
  -20.4959  -29.3093   24.6030 F   0  0  0  0  0  0  0  0  0  0  0  0
  1  2  1  0  0  0  0
  1  5  2  0  0  0  0
  2  6  2  0  0  0  0
  3  8  2  0  0  0  0
  3 17  1  0  0  0  0
  4  9  1  0  0  0  0
  4 17  2  0  0  0  0
  5 20  1  0  0  0  0
  6 22  1  0  0  0  0
  7 10  2  0  0  0  0
  7 21  1  0  0  0  0
  8 25  1  0  0  0  0
  9 25  2  0  0  0  0
 10 26  1  0  0  0  0
 11 12  2  0  0  0  0
 11 27  1  0  0  0  0
 12 30  1  0  0  0  0
 13 18  1  0  0  0  0
 13 28  2  0  0  0  0
 14 23  1  0  0  0  0
 14 26  2  0  0  0  0
 15 24  1  0  0  0  0
 15 29  2  0  0  0  0
 16 30  2  0  0  0  0
 16 31  1  0  0  0  0
 17 32  1  0  0  0  0
 18 24  2  0  0  0  0
 18 34  1  0  0  0  0
 19 32  1  0  0  0  0
 19 33  2  0  0  0  0
 19 35  1  0  0  0  0
 20 22  2  0  0  0  0
 20 41  1  0  0  0  0
 21 23  2  0  0  0  0
 21 42  1  0  0  0  0
 22 50  1  0  0  0  0
 23 43  1  0  0  0  0
 24 60  1  0  0  0  0
 25 82  1  0  0  0  0
 26 84  1  0  0  0  0
 27 31  2  0  0  0  0
 27 82  1  0  0  0  0
 28 29  1  0  0  0  0
 28 85  1  0  0  0  0
 29 83  1  0  0  0  0
 30 86  1  0  0  0  0
 31 87  1  0  0  0  0
 32 66  2  0  0  0  0
 33 68  1  0  0  0  0
 33 71  1  0  0  0  0
 34 36  1  0  0  0  0
 34 67  2  0  0  0  0
 35 72  1  0  0  0  0
 35 76  2  0  0  0  0
 36 69  1  0  0  0  0
 36 77  2  0  0  0  0
 37 51  1  0  0  0  0
 37 73  1  0  0  0  0
 37 78  2  0  0  0  0
 38 61  1  0  0  0  0
 38 62  1  0  0  0  0
 38 79  2  0  0  0  0
 39 63  1  0  0  0  0
 39 70  1  0  0  0  0
 39 80  2  0  0  0  0
 40 64  1  0  0  0  0
 40 74  1  0  0  0  0
 40 81  2  0  0  0  0
 41 44  1  0  0  0  0
 42 51  1  0  0  0  0
 43 70  1  0  0  0  0
 44 46  1  0  0  0  0
 45 47  1  0  0  0  0
 45 48  1  0  0  0  0
 46 50  1  0  0  0  0
 47 52  1  0  0  0  0
 48 69  1  0  0  0  0
 49 52  1  0  0  0  0
 49 69  1  0  0  0  0
 50 73  1  0  0  0  0
 51 70  1  0  0  0  0
 52 68  1  0  0  0  0
 53 60  1  0  0  0  0
 54 64  1  0  0  0  0
 55 65  1  0  0  0  0
 56 65  1  0  0  0  0
 57 65  1  0  0  0  0
 58 75  1  0  0  0  0
 59 83  1  0  0  0  0
 61 84  1  0  0  0  0
 62 85  1  0  0  0  0
 63 65  1  0  0  0  0
 63 74  1  0  0  0  0
 64 75  1  0  0  0  0
 66 68  1  0  0  0  0
M  CHG  1  75   1
M  ISO  4  34 100  36 100  61 101  84 101
M  END
> <Batch ID>
0110

> <Smiles>
CCc1cc(OC)c(OCC(=O)[101CH2:1][101O:1]c2ccc3c(c2)CN(C(=O)C(NC(=O)C(C)NC)C(C)(C)C)C(C(=O)NC2CCCc4ccccc42)C3)cc1[100C:0](=N)[100C:0](=O)N1CCCC(n2nc(-c3ccc(Oc4ccc(F)cc4F)cc3)c(C(N)=O)c2N)C1

> <Shape>
0.227

> <Color>
0.056

> <Negative vol penalty>
0.000

$$$$

  -OEChem-04052301263D

 87 95  0     1  0  0  0  0  0999 V2000
  -25.0076  -32.7074   23.9487 C   0  0  0  0  0  0  0  0  0  0  0  0
  -24.7742  -31.5168   24.6295 C   0  0  0  0  0  0  0  0  0  0  0  0
  -31.1172  -18.5488   25.5605 C   0  0  0  0  0  0  0  0  0  0  0  0
  -32.8555  -19.8734   24.5306 C   0  0  0  0  0  0  0  0  0  0  0  0
  -25.4063  -11.4314   21.5096 C   0  0  0  0  0  0  0  0  0  0  0  0
  -25.0707  -32.7118   22.5558 C   0  0  0  0  0  0  0  0  0  0  0  0
  -24.6028  -30.3300   23.9177 C   0  0  0  0  0  0  0  0  0  0  0  0
  -25.8603  -23.2948   24.4081 C   0  0  0  0  0  0  0  0  0  0  0  0
  -31.4585  -19.0709   26.8081 C   0  0  0  0  0  0  0  0  0  0  0  0
  -33.1968  -20.3956   25.7782 C   0  0  0  0  0  0  0  0  0  0  0  0
  -24.8536  -12.6841   21.2439 C   0  0  0  0  0  0  0  0  0  0  0  0
  -25.1997  -22.0722   24.2958 C   0  0  0  0  0  0  0  0  0  0  0  0
  -30.9331  -21.9258   28.5420 C   0  0  0  0  0  0  0  0  0  0  0  0
  -29.8959  -22.3448   29.3752 C   0  0  0  0  0  0  0  0  0  0  0  0
  -25.4081  -22.1867   21.8953 C   0  0  0  0  0  0  0  0  0  0  0  0
  -30.5959  -20.7491   31.0489 C   0  0  0  0  0  0  0  0  0  0  0  0
  -31.8157  -18.9500   24.4217 C   0  0  0  0  0  0  0  0  0  0  0  0
  -26.6847  -11.1206   21.0462 C   0  0  0  0  0  0  0  0  0  0  0  0
  -27.4104  -12.0626   20.3169 C   0  0  0  0  0  0  0  0  0  0  0  0
  -30.5269  -18.9313   22.2203 C   0  0  0  0  0  0  0  0  0  0  0  0
  -24.9096  -31.5228   21.8271 C   0  0  0  0  0  0  0  0  0  0  0  0
  -26.2909  -23.9790   23.2622 C   0  0  0  0  0  0  0  0  0  0  0  0
  -24.6626  -30.3187   22.5138 C   0  0  0  0  0  0  0  0  0  0  0  0
  -26.0763  -23.4166   21.9958 C   0  0  0  0  0  0  0  0  0  0  0  0
  -32.4983  -19.9943   26.9169 C   0  0  0  0  0  0  0  0  0  0  0  0
  -24.9709  -21.5193   23.0392 C   0  0  0  0  0  0  0  0  0  0  0  0
  -31.8017  -20.9184   28.9622 C   0  0  0  0  0  0  0  0  0  0  0  0
  -25.5792  -13.6261   20.5147 C   0  0  0  0  0  0  0  0  0  0  0  0
  -29.7273  -21.7564   30.6286 C   0  0  0  0  0  0  0  0  0  0  0  0
  -31.6331  -20.3301   30.2156 C   0  0  0  0  0  0  0  0  0  0  0  0
  -26.8576  -13.3154   20.0512 C   0  0  0  0  0  0  0  0  0  0  0  0
  -31.4640  -18.4106   23.1328 C   0  0  0  0  0  0  0  0  0  0  0  0
  -30.5618  -18.0612   21.1582 C   0  0  0  0  0  0  0  0  0  0  0  0
  -26.6838   -8.6711   20.9231 C   0  0  0  0  0  0  0  0  0  0  0  0
  -27.2303   -9.8018   21.3428 C   0  0  0  0  0  0  0  0  0  0  0  0
  -28.7742  -11.7672   19.8075 C   0  0  0  0  0  0  0  0  0  0  0  0
  -29.6990  -20.0973   22.3235 C   0  0  0  0  0  0  0  0  0  0  0  0
  -25.6259  -26.7964   21.9495 C   0  0  0  0  0  0  0  0  0  0  0  0
  -28.0144  -25.9741   19.9146 C   0  0  0  0  0  0  0  0  0  0  0  0
  -29.8646  -23.4975   18.4687 C   0  0  0  0  0  0  0  0  0  0  0  0
  -31.1413  -12.4744   19.9512 C   0  0  0  0  0  0  0  0  0  0  0  0
  -24.9390  -31.5852   20.3205 C   0  0  0  0  0  0  0  0  0  0  0  0
  -27.0257  -25.2839   23.4016 C   0  0  0  0  0  0  0  0  0  0  0  0
  -26.5366  -24.1013   20.7357 C   0  0  0  0  0  0  0  0  0  0  0  0
  -25.1198  -30.2219   19.6578 C   0  0  0  0  0  0  0  0  0  0  0  0
  -33.8224  -14.7308   19.4848 C   0  0  0  0  0  0  0  0  0  0  0  0
  -24.1856  -29.1939   20.2882 C   0  0  0  0  0  0  0  0  0  0  0  0
  -33.3961  -15.9675   20.2805 C   0  0  0  0  0  0  0  0  0  0  0  0
  -33.4140  -13.4362   20.1863 C   0  0  0  0  0  0  0  0  0  0  0  0
  -31.5748  -14.5828   21.3527 C   0  0  0  0  0  0  0  0  0  0  0  0
  -24.4962  -29.0067   21.7782 C   0  0  1  0  0  0  0  0  0  0  0  0
  -26.9646  -26.1417   22.1415 C   0  0  1  0  0  0  0  0  0  0  0  0
  -31.9010  -15.9125   20.6536 C   0  0  1  0  0  0  0  0  0  0  0  0
  -31.6797  -22.4513   17.0873 C   0  0  0  0  0  0  0  0  0  0  0  0
  -26.0720  -26.4998   17.6209 C   0  0  0  0  0  0  0  0  0  0  0  0
  -27.6206  -25.2371   16.1124 C   0  0  0  0  0  0  0  0  0  0  0  0
  -28.3988  -27.3281   17.2281 C   0  0  0  0  0  0  0  0  0  0  0  0
  -31.7598  -23.5071   20.7418 C   0  0  0  0  0  0  0  0  0  0  0  0
  -24.4697  -18.0387   22.1676 C   0  0  0  0  0  0  0  0  0  0  0  0
  -24.8432  -17.1222   21.0078 C   0  0  0  0  0  0  0  0  0  0  0  0
  -24.6675  -19.5059   21.8104 C   0  0  0  0  0  0  0  0  0  1  0  0
  -24.6866  -15.6542   21.3784 C   0  0  0  0  0  0  0  0  0  0  0  0
  -28.0932  -25.2291   18.6039 C   0  0  1  0  0  0  0  0  0  0  0  0
  -31.3625  -23.3378   18.2817 C   0  0  2  0  0  0  0  0  0  0  0  0
  -27.5356  -26.0613   17.4148 C   0  0  0  0  0  0  0  0  0  0  0  0
  -32.0512  -17.2960   22.6892 N   0  0  0  0  0  0  0  0  0  0  0  0
  -31.4816  -17.1091   21.4864 N   0  0  0  0  0  0  0  0  0  0  0  0
  -27.2450  -25.3781   20.9239 N   0  0  0  0  0  0  0  0  0  0  0  0
  -31.9835  -13.4591   20.4965 N   0  0  0  0  0  0  0  0  0  0  0  0
  -29.8951  -18.0251   19.9849 N   0  0  0  0  0  0  0  0  0  0  0  0
  -29.7885  -20.8798   23.4828 N   0  0  0  0  0  0  0  0  0  0  0  0
  -29.7858  -12.6081   20.2722 N   0  0  0  0  0  0  0  0  0  0  0  0
  -25.6699  -28.1776   21.9495 N   0  0  0  0  0  0  0  0  0  0  0  0
  -29.4858  -24.8232   18.4482 N   0  0  0  0  0  0  0  0  0  0  0  0
  -31.9739  -22.7270   19.4958 N   0  3  0  0  0  0  0  0  0  0  0  0
  -28.9387  -10.8061   19.0611 O   0  0  0  0  0  0  0  0  0  0  0  0
  -28.8914  -20.4262   21.4218 O   0  0  0  0  0  0  0  0  0  0  0  0
  -24.6272  -26.1002   21.8101 O   0  0  0  0  0  0  0  0  0  0  0  0
  -28.6192  -27.0417   20.0406 O   0  0  0  0  0  0  0  0  0  0  0  0
  -29.1058  -22.5417   18.6145 O   0  0  0  0  0  0  0  0  0  0  0  0
  -31.5541  -11.5760   19.2111 O   0  0  0  0  0  0  0  0  0  0  0  0
  -32.8315  -20.5042   28.1342 O   0  0  0  0  0  0  0  0  0  0  0  0
  -24.3258  -20.3264   22.9268 O   0  0  0  0  0  0  0  0  0  1  0  0
  -25.0344  -14.8568   20.2549 O   0  0  0  0  0  0  0  0  0  0  0  0
  -28.7321  -22.1599   31.4293 F   0  0  0  0  0  0  0  0  0  0  0  0
  -32.4651  -19.3627   30.6252 F   0  0  0  0  0  0  0  0  0  0  0  0
  -27.5499  -14.2262   19.3508 F   0  0  0  0  0  0  0  0  0  0  0  0
  1  2  1  0  0  0  0
  1  6  2  0  0  0  0
  2  7  2  0  0  0  0
  3  9  2  0  0  0  0
  3 17  1  0  0  0  0
  4 10  1  0  0  0  0
  4 17  2  0  0  0  0
  5 11  2  0  0  0  0
  5 18  1  0  0  0  0
  6 21  1  0  0  0  0
  7 23  1  0  0  0  0
  8 12  2  0  0  0  0
  8 22  1  0  0  0  0
  9 25  1  0  0  0  0
 10 25  2  0  0  0  0
 11 28  1  0  0  0  0
 12 26  1  0  0  0  0
 13 14  2  0  0  0  0
 13 27  1  0  0  0  0
 14 29  1  0  0  0  0
 15 24  1  0  0  0  0
 15 26  2  0  0  0  0
 16 29  2  0  0  0  0
 16 30  1  0  0  0  0
 17 32  1  0  0  0  0
 18 19  2  0  0  0  0
 18 35  1  0  0  0  0
 19 31  1  0  0  0  0
 19 36  1  0  0  0  0
 20 32  1  0  0  0  0
 20 33  2  0  0  0  0
 20 37  1  0  0  0  0
 21 23  2  0  0  0  0
 21 42  1  0  0  0  0
 22 24  2  0  0  0  0
 22 43  1  0  0  0  0
 23 51  1  0  0  0  0
 24 44  1  0  0  0  0
 25 82  1  0  0  0  0
 26 83  1  0  0  0  0
 27 30  2  0  0  0  0
 27 82  1  0  0  0  0
 28 31  2  0  0  0  0
 28 84  1  0  0  0  0
 29 85  1  0  0  0  0
 30 86  1  0  0  0  0
 31 87  1  0  0  0  0
 32 66  2  0  0  0  0
 33 67  1  0  0  0  0
 33 70  1  0  0  0  0
 34 35  2  0  0  0  0
 36 72  1  0  0  0  0
 36 76  2  0  0  0  0
 37 71  1  0  0  0  0
 37 77  2  0  0  0  0
 38 52  1  0  0  0  0
 38 73  1  0  0  0  0
 38 78  2  0  0  0  0
 39 63  1  0  0  0  0
 39 68  1  0  0  0  0
 39 79  2  0  0  0  0
 40 64  1  0  0  0  0
 40 74  1  0  0  0  0
 40 80  2  0  0  0  0
 41 69  1  0  0  0  0
 41 72  1  0  0  0  0
 41 81  2  0  0  0  0
 42 45  1  0  0  0  0
 43 52  1  0  0  0  0
 44 68  1  0  0  0  0
 45 47  1  0  0  0  0
 46 48  1  0  0  0  0
 46 49  1  0  0  0  0
 47 51  1  0  0  0  0
 48 53  1  0  0  0  0
 49 69  1  0  0  0  0
 50 53  1  0  0  0  0
 50 69  1  0  0  0  0
 51 73  1  0  0  0  0
 52 68  1  0  0  0  0
 53 67  1  0  0  0  0
 54 64  1  0  0  0  0
 55 65  1  0  0  0  0
 56 65  1  0  0  0  0
 57 65  1  0  0  0  0
 58 75  1  0  0  0  0
 59 60  1  0  0  0  0
 59 61  1  0  0  0  0
 60 62  1  0  0  0  0
 61 83  1  0  0  0  0
 62 84  1  0  0  0  0
 63 65  1  0  0  0  0
 63 74  1  0  0  0  0
 64 75  1  0  0  0  0
 66 67  1  0  0  0  0
M  CHG  1  75   1
M  ISO  4  41 100  61 101  72 100  83 101
M  END
> <Batch ID>
0110

> <Smiles>
C=Cc1ccc(OCCC[101CH2:1][101O:1]c2ccc3c(c2)CN(C(=O)C(NC(=O)C(C)NC)C(C)(C)C)C(C(=O)NC2CCCc4ccccc42)C3)c(F)c1C(=O)[100NH:0][100C:0](=O)N1CCCC(n2nc(-c3ccc(Oc4ccc(F)cc4F)cc3)c(C(N)=O)c2N)C1

> <Shape>
0.204

> <Color>
0.088

> <Negative vol penalty>
0.000

$$$$

  -OEChem-04052301263D

 87 95  0     1  0  0  0  0  0999 V2000
  -14.1079  -27.3583   19.6130 C   0  0  0  0  0  0  0  0  0  0  0  0
  -15.2788  -26.9134   19.0076 C   0  0  0  0  0  0  0  0  0  0  0  0
  -23.2780   -9.8052   19.9088 C   0  0  0  0  0  0  0  0  0  0  0  0
  -23.7159   -9.9383   22.2810 C   0  0  0  0  0  0  0  0  0  0  0  0
  -14.1270  -27.7739   20.9438 C   0  0  0  0  0  0  0  0  0  0  0  0
  -16.4698  -26.8849   19.7323 C   0  0  0  0  0  0  0  0  0  0  0  0
  -19.0571  -22.5856   19.0492 C   0  0  0  0  0  0  0  0  0  0  0  0
  -22.5412   -8.6381   20.1102 C   0  0  0  0  0  0  0  0  0  0  0  0
  -22.9790   -8.7712   22.4825 C   0  0  0  0  0  0  0  0  0  0  0  0
  -19.7828  -22.4604   17.8654 C   0  0  0  0  0  0  0  0  0  0  0  0
  -19.7237   -7.8855   22.6791 C   0  0  0  0  0  0  0  0  0  0  0  0
  -18.8149   -7.8691   23.7371 C   0  0  0  0  0  0  0  0  0  0  0  0
  -21.8007  -23.0531   19.0470 C   0  0  0  0  0  0  0  0  0  0  0  0
  -26.7308  -18.7581   14.5123 C   0  0  0  0  0  0  0  0  0  0  0  0
  -25.9284  -18.8298   16.7900 C   0  0  0  0  0  0  0  0  0  0  0  0
  -20.0002   -6.0108   24.7265 C   0  0  0  0  0  0  0  0  0  0  0  0
  -23.8654  -10.4553   20.9942 C   0  0  0  0  0  0  0  0  0  0  0  0
  -28.0096  -17.7152   16.2769 C   0  0  0  0  0  0  0  0  0  0  0  0
  -24.1459  -12.9835   20.8015 C   0  0  0  0  0  0  0  0  0  0  0  0
  -15.3168  -27.7413   21.6880 C   0  0  0  0  0  0  0  0  0  0  0  0
  -19.6969  -22.9567   20.2406 C   0  0  0  0  0  0  0  0  0  0  0  0
  -16.5051  -27.3017   21.0738 C   0  0  0  0  0  0  0  0  0  0  0  0
  -21.0812  -23.1797   20.2451 C   0  0  0  0  0  0  0  0  0  0  0  0
  -27.8508  -18.0390   14.9295 C   0  0  0  0  0  0  0  0  0  0  0  0
  -25.7696  -19.1535   15.4426 C   0  0  0  0  0  0  0  0  0  0  0  0
  -27.0484  -18.1106   17.2072 C   0  0  0  0  0  0  0  0  0  0  0  0
  -22.3917   -8.1211   21.3970 C   0  0  0  0  0  0  0  0  0  0  0  0
  -21.1544  -22.6970   17.8636 C   0  0  0  0  0  0  0  0  0  0  0  0
  -20.7707   -6.9644   22.6447 C   0  0  0  0  0  0  0  0  0  0  0  0
  -18.9531   -6.9318   24.7608 C   0  0  0  0  0  0  0  0  0  0  0  0
  -20.9089   -6.0271   23.6684 C   0  0  0  0  0  0  0  0  0  0  0  0
  -24.6271  -11.6606   20.7867 C   0  0  0  0  0  0  0  0  0  0  0  0
  -25.2550  -13.7551   20.5544 C   0  0  0  0  0  0  0  0  0  0  0  0
  -29.2044  -16.9493   16.7160 C   0  0  0  0  0  0  0  0  0  0  0  0
  -22.8154  -13.4713   21.0192 C   0  0  0  0  0  0  0  0  0  0  0  0
  -19.4545  -25.4102   22.2469 C   0  0  0  0  0  0  0  0  0  0  0  0
  -21.5539  -23.6744   24.0081 C   0  0  0  0  0  0  0  0  0  0  0  0
  -23.5853  -20.3539   15.8061 C   0  0  0  0  0  0  0  0  0  0  0  0
  -23.9818  -21.2773   24.0877 C   0  0  0  0  0  0  0  0  0  0  0  0
  -29.9238  -14.8298   17.7713 C   0  0  0  0  0  0  0  0  0  0  0  0
  -15.2980  -28.2451   23.1095 C   0  0  0  0  0  0  0  0  0  0  0  0
  -18.9043  -23.0613   21.5146 C   0  0  0  0  0  0  0  0  0  0  0  0
  -21.8190  -23.5608   21.5017 C   0  0  0  0  0  0  0  0  0  0  0  0
  -16.5239  -27.8304   23.9190 C   0  0  0  0  0  0  0  0  0  0  0  0
  -30.1676  -12.5271   20.4425 C   0  0  0  0  0  0  0  0  0  0  0  0
  -17.7993  -28.0717   23.1178 C   0  0  0  0  0  0  0  0  0  0  0  0
  -28.7082  -12.2090   20.7794 C   0  0  0  0  0  0  0  0  0  0  0  0
  -30.3800  -12.6906   18.9381 C   0  0  0  0  0  0  0  0  0  0  0  0
  -28.0232  -13.3235   18.6178 C   0  0  0  0  0  0  0  0  0  0  0  0
  -17.8116  -27.2327   21.8343 C   0  0  1  0  0  0  0  0  0  0  0  0
  -19.5722  -23.9459   22.5628 C   0  0  1  0  0  0  0  0  0  0  0  0
  -27.7437  -13.2189   20.1258 C   0  0  1  0  0  0  0  0  0  0  0  0
  -28.8631  -17.6294   13.9094 C   0  0  0  0  0  0  0  0  0  0  0  0
  -25.5378  -20.1012   25.6666 C   0  0  0  0  0  0  0  0  0  0  0  0
  -23.3412  -26.1462   24.0841 C   0  0  0  0  0  0  0  0  0  0  0  0
  -25.2291  -24.6729   24.8144 C   0  0  0  0  0  0  0  0  0  0  0  0
  -23.1978  -24.8956   26.2451 C   0  0  0  0  0  0  0  0  0  0  0  0
  -26.6663  -18.6200   19.6197 C   0  0  0  0  0  0  0  0  0  0  0  0
  -22.7764  -18.6402   23.4949 C   0  0  0  0  0  0  0  0  0  0  0  0
  -22.5641  -21.0922   14.9482 C   0  0  0  0  0  0  0  0  0  0  0  0
  -21.3898  -21.6331   15.7497 C   0  0  0  0  0  0  0  0  0  1  0  0
  -23.0583  -23.5799   24.0907 C   0  0  1  0  0  0  0  0  0  0  0  0
  -24.1771  -20.0709   24.9882 C   0  0  2  0  0  0  0  0  0  0  0  0
  -23.6927  -24.8183   24.7844 C   0  0  0  0  0  0  0  0  0  0  0  0
  -25.9397  -11.5920   20.5488 N   0  0  0  0  0  0  0  0  0  0  0  0
  -26.2926  -12.8815   20.4118 N   0  0  0  0  0  0  0  0  0  0  0  0
  -20.9989  -23.6565   22.7206 N   0  0  0  0  0  0  0  0  0  0  0  0
  -29.4354  -13.6700   18.3979 N   0  0  0  0  0  0  0  0  0  0  0  0
  -25.4341  -15.0889   20.4472 N   0  0  0  0  0  0  0  0  0  0  0  0
  -21.7940  -12.5420   21.2591 N   0  0  0  0  0  0  0  0  0  0  0  0
  -24.6334  -19.8834   15.0194 N   0  0  0  0  0  0  0  0  0  0  0  0
  -27.1885  -17.7943   18.5772 N   0  0  0  0  0  0  0  0  0  0  0  0
  -28.9423  -15.7229   17.3272 N   0  0  0  0  0  0  0  0  0  0  0  0
  -18.1523  -25.8581   22.1323 N   0  0  0  0  0  0  0  0  0  0  0  0
  -23.3521  -22.3110   24.7481 N   0  0  0  0  0  0  0  0  0  0  0  0
  -24.0742  -18.8121   24.1971 N   0  3  0  0  0  0  0  0  0  0  0  0
  -30.3225  -17.4033   16.4888 O   0  0  0  0  0  0  0  0  0  0  0  0
  -22.5373  -14.6940   20.9853 O   0  0  0  0  0  0  0  0  0  0  0  0
  -20.4699  -26.0840   22.1180 O   0  0  0  0  0  0  0  0  0  0  0  0
  -20.8949  -23.7537   25.0479 O   0  0  0  0  0  0  0  0  0  0  0  0
  -23.4478  -20.2239   17.0179 O   0  0  0  0  0  0  0  0  0  0  0  0
  -24.3542  -21.3018   22.9167 O   0  0  0  0  0  0  0  0  0  0  0  0
  -31.1296  -15.0682   17.6515 O   0  0  0  0  0  0  0  0  0  0  0  0
  -21.6726   -6.9824   21.5940 O   0  0  0  0  0  0  0  0  0  0  0  0
  -21.8650  -22.5762   16.7093 O   0  0  0  0  0  0  0  0  0  1  0  0
  -18.0812   -6.9173   25.7776 F   0  0  0  0  0  0  0  0  0  0  0  0
  -21.9135   -5.1406   23.6415 F   0  0  0  0  0  0  0  0  0  0  0  0
  1  2  1  0  0  0  0
  1  5  2  0  0  0  0
  2  6  2  0  0  0  0
  3  8  2  0  0  0  0
  3 17  1  0  0  0  0
  4  9  1  0  0  0  0
  4 17  2  0  0  0  0
  5 20  1  0  0  0  0
  6 22  1  0  0  0  0
  7 10  2  0  0  0  0
  7 21  1  0  0  0  0
  8 27  1  0  0  0  0
  9 27  2  0  0  0  0
 10 28  1  0  0  0  0
 11 12  2  0  0  0  0
 11 29  1  0  0  0  0
 12 30  1  0  0  0  0
 13 23  1  0  0  0  0
 13 28  2  0  0  0  0
 14 24  2  0  0  0  0
 14 25  1  0  0  0  0
 15 25  2  0  0  0  0
 15 26  1  0  0  0  0
 16 30  2  0  0  0  0
 16 31  1  0  0  0  0
 17 32  1  0  0  0  0
 18 24  1  0  0  0  0
 18 26  2  0  0  0  0
 18 34  1  0  0  0  0
 19 32  1  0  0  0  0
 19 33  2  0  0  0  0
 19 35  1  0  0  0  0
 20 22  2  0  0  0  0
 20 41  1  0  0  0  0
 21 23  2  0  0  0  0
 21 42  1  0  0  0  0
 22 50  1  0  0  0  0
 23 43  1  0  0  0  0
 24 53  1  0  0  0  0
 25 71  1  0  0  0  0
 26 72  1  0  0  0  0
 27 84  1  0  0  0  0
 28 85  1  0  0  0  0
 29 31  2  0  0  0  0
 29 84  1  0  0  0  0
 30 86  1  0  0  0  0
 31 87  1  0  0  0  0
 32 65  2  0  0  0  0
 33 66  1  0  0  0  0
 33 69  1  0  0  0  0
 34 73  1  0  0  0  0
 34 77  2  0  0  0  0
 35 70  1  0  0  0  0
 35 78  2  0  0  0  0
 36 51  1  0  0  0  0
 36 74  1  0  0  0  0
 36 79  2  0  0  0  0
 37 62  1  0  0  0  0
 37 67  1  0  0  0  0
 37 80  2  0  0  0  0
 38 60  1  0  0  0  0
 38 71  1  0  0  0  0
 38 81  2  0  0  0  0
 39 63  1  0  0  0  0
 39 75  1  0  0  0  0
 39 82  2  0  0  0  0
 40 68  1  0  0  0  0
 40 73  1  0  0  0  0
 40 83  2  0  0  0  0
 41 44  1  0  0  0  0
 42 51  1  0  0  0  0
 43 67  1  0  0  0  0
 44 46  1  0  0  0  0
 45 47  1  0  0  0  0
 45 48  1  0  0  0  0
 46 50  1  0  0  0  0
 47 52  1  0  0  0  0
 48 68  1  0  0  0  0
 49 52  1  0  0  0  0
 49 68  1  0  0  0  0
 50 74  1  0  0  0  0
 51 67  1  0  0  0  0
 52 66  1  0  0  0  0
 54 63  1  0  0  0  0
 55 64  1  0  0  0  0
 56 64  1  0  0  0  0
 57 64  1  0  0  0  0
 58 72  1  0  0  0  0
 59 76  1  0  0  0  0
 60 61  1  0  0  0  0
 61 85  1  0  0  0  0
 62 64  1  0  0  0  0
 62 75  1  0  0  0  0
 63 76  1  0  0  0  0
 65 66  1  0  0  0  0
M  CHG  1  76   1
M  ISO  4  40 100  61 101  73 100  85 101
M  END
> <Batch ID>
0110

> <Smiles>
CNc1cc(NC(=O)C[101CH2:1][101O:1]c2ccc3c(c2)CN(C(=O)C(NC(=O)C(C)NC)C(C)(C)C)C(C(=O)NC2CCCc4ccccc42)C3)cc(C)c1C(=O)[100NH:0][100C:0](=O)N1CCCC(n2nc(-c3ccc(Oc4ccc(F)cc4F)cc3)c(C(N)=O)c2N)C1

> <Shape>
0.176

> <Color>
0.166

> <Negative vol penalty>
0.000

$$$$

  -OEChem-04052301263D

 91 99  0     1  0  0  0  0  0999 V2000
  -18.9716  -24.8593   20.5284 C   0  0  0  0  0  0  0  0  0  0  0  0
  -20.1180  -25.3236   19.8915 C   0  0  0  0  0  0  0  0  0  0  0  0
  -26.5720  -14.9441   22.0481 C   0  0  0  0  0  0  0  0  0  0  0  0
  -27.8661  -14.7318   20.0190 C   0  0  0  0  0  0  0  0  0  0  0  0
  -18.1969  -25.7325   21.2907 C   0  0  0  0  0  0  0  0  0  0  0  0
  -20.4896  -26.6619   20.0156 C   0  0  0  0  0  0  0  0  0  0  0  0
  -25.4389  -27.2271   20.9269 C   0  0  0  0  0  0  0  0  0  0  0  0
  -26.1148  -13.6355   21.8935 C   0  0  0  0  0  0  0  0  0  0  0  0
  -27.4089  -13.4230   19.8644 C   0  0  0  0  0  0  0  0  0  0  0  0
  -26.3051  -27.0946   19.8425 C   0  0  0  0  0  0  0  0  0  0  0  0
  -23.7935  -12.0097   20.0515 C   0  0  0  0  0  0  0  0  0  0  0  0
  -22.4333  -11.7718   20.2483 C   0  0  0  0  0  0  0  0  0  0  0  0
  -26.4405  -29.4965   19.6649 C   0  0  0  0  0  0  0  0  0  0  0  0
  -26.9403  -22.5764   14.7854 C   0  0  0  0  0  0  0  0  0  0  0  0
  -28.7202  -20.9435   14.8375 C   0  0  0  0  0  0  0  0  0  0  0  0
  -22.9608  -10.2341   22.0356 C   0  0  0  0  0  0  0  0  0  0  0  0
  -27.4476  -15.4923   21.1108 C   0  0  0  0  0  0  0  0  0  0  0  0
  -29.0718  -17.2669   21.9599 C   0  0  0  0  0  0  0  0  0  0  0  0
  -18.5645  -27.0800   21.4322 C   0  0  0  0  0  0  0  0  0  0  0  0
  -25.0577  -28.4974   21.3822 C   0  0  0  0  0  0  0  0  0  0  0  0
  -19.7183  -27.5543   20.7794 C   0  0  0  0  0  0  0  0  0  0  0  0
  -25.5713  -29.6425   20.7568 C   0  0  0  0  0  0  0  0  0  0  0  0
  -27.0636  -22.6666   13.3990 C   0  0  0  0  0  0  0  0  0  0  0  0
  -27.7686  -21.7148   15.5047 C   0  0  0  0  0  0  0  0  0  0  0  0
  -28.8435  -21.0337   13.4510 C   0  0  0  0  0  0  0  0  0  0  0  0
  -28.0151  -21.8953   12.7318 C   0  0  0  0  0  0  0  0  0  0  0  0
  -26.5332  -12.8749   20.8017 C   0  0  0  0  0  0  0  0  0  0  0  0
  -26.8038  -28.2294   19.2095 C   0  0  0  0  0  0  0  0  0  0  0  0
  -24.7374  -11.3599   20.8467 C   0  0  0  0  0  0  0  0  0  0  0  0
  -22.0169  -10.8840   21.2403 C   0  0  0  0  0  0  0  0  0  0  0  0
  -24.3211  -10.4721   21.8388 C   0  0  0  0  0  0  0  0  0  0  0  0
  -27.9198  -16.8443   21.2697 C   0  0  0  0  0  0  0  0  0  0  0  0
  -29.0752  -18.6330   21.8181 C   0  0  0  0  0  0  0  0  0  0  0  0
  -30.0511  -16.4936   22.6659 C   0  0  0  0  0  0  0  0  0  0  0  0
  -22.2998  -30.0594   21.6239 C   0  0  0  0  0  0  0  0  0  0  0  0
  -26.0198  -25.8170   11.4254 C   0  0  0  0  0  0  0  0  0  0  0  0
  -24.1316  -32.2697   23.1344 C   0  0  0  0  0  0  0  0  0  0  0  0
  -27.4506  -26.7885   14.0818 C   0  0  0  0  0  0  0  0  0  0  0  0
  -27.2271  -33.6191   23.6277 C   0  0  0  0  0  0  0  0  0  0  0  0
  -26.7513  -22.3185   17.7289 C   0  0  0  0  0  0  0  0  0  0  0  0
  -17.6696  -27.9969   22.2278 C   0  0  0  0  0  0  0  0  0  0  0  0
  -24.1435  -28.6235   22.5700 C   0  0  0  0  0  0  0  0  0  0  0  0
  -25.2089  -31.0291   21.2199 C   0  0  0  0  0  0  0  0  0  0  0  0
  -18.3372  -29.3138   22.6156 C   0  0  0  0  0  0  0  0  0  0  0  0
  -26.1062  -22.3443   21.2303 C   0  0  0  0  0  0  0  0  0  0  0  0
  -19.0564  -29.9214   21.4154 C   0  0  0  0  0  0  0  0  0  0  0  0
  -26.6085  -20.9777   21.7016 C   0  0  0  0  0  0  0  0  0  0  0  0
  -25.4573  -22.2648   19.8496 C   0  0  0  0  0  0  0  0  0  0  0  0
  -26.7851  -20.2688   19.2823 C   0  0  0  0  0  0  0  0  0  0  0  0
  -20.1679  -28.9933   20.9104 C   0  0  1  0  0  0  0  0  0  0  0  0
  -23.4164  -29.9636   22.6248 C   0  0  1  0  0  0  0  0  0  0  0  0
  -27.5047  -20.3100   20.6402 C   0  0  2  0  0  0  0  0  0  0  0  0
  -25.8846  -26.6385    9.0385 C   0  0  0  0  0  0  0  0  0  0  0  0
  -28.4037  -35.4400   24.8917 C   0  0  0  0  0  0  0  0  0  0  0  0
  -23.0328  -34.3356   21.1762 C   0  0  0  0  0  0  0  0  0  0  0  0
  -24.9012  -35.8616   21.8459 C   0  0  0  0  0  0  0  0  0  0  0  0
  -23.2198  -35.1339   23.5388 C   0  0  0  0  0  0  0  0  0  0  0  0
  -28.9248  -31.6757   25.0768 C   0  0  0  0  0  0  0  0  0  0  0  0
  -26.1537  -23.6073   12.6486 C   0  0  0  0  0  0  0  0  0  0  0  0
  -26.6484  -25.7933   10.0415 C   0  0  0  0  0  0  0  0  0  0  0  0
  -27.0542  -27.4241   15.4023 C   0  0  0  0  0  0  0  0  0  0  0  0
  -28.0019  -28.5433   15.8184 C   0  0  0  0  0  0  0  0  0  0  0  0
  -27.6159  -29.1354   17.1661 C   0  0  0  0  0  0  0  0  0  1  0  0
  -26.7386  -25.0139   12.5031 C   0  0  2  0  0  0  0  0  0  0  0  0
  -24.9314  -33.4736   22.6987 C   0  0  1  0  0  0  0  0  0  0  0  0
  -27.9781  -33.9800   24.8967 C   0  0  2  0  0  0  0  0  0  0  0  0
  -24.0268  -34.6752   22.3047 C   0  0  0  0  0  0  0  0  0  0  0  0
  -27.2407  -17.8598   20.7297 N   0  0  0  0  0  0  0  0  0  0  0  0
  -27.9680  -18.9340   21.0806 N   0  0  0  0  0  0  0  0  0  0  0  0
  -24.3069  -31.1002   22.3812 N   0  0  0  0  0  0  0  0  0  0  0  0
  -26.3657  -21.6250   18.8956 N   0  0  0  0  0  0  0  0  0  0  0  0
  -29.8144  -20.2428   12.7964 N   0  0  0  0  0  0  0  0  0  0  0  0
  -28.1374  -21.9894   11.3253 N   0  0  0  0  0  0  0  0  0  0  0  0
  -29.9171  -19.5942   22.2536 N   0  0  0  0  0  0  0  0  0  0  0  0
  -29.8959  -15.1015   22.7135 N   0  0  0  0  0  0  0  0  0  0  0  0
  -27.6433  -21.6233   16.9131 N   0  0  0  0  0  0  0  0  0  0  0  0
  -21.3308  -29.0848   21.7670 N   0  0  0  0  0  0  0  0  0  0  0  0
  -26.5771  -25.7732   13.7203 N   0  0  0  0  0  0  0  0  0  0  0  0
  -25.8642  -33.7584   23.7837 N   0  0  0  0  0  0  0  0  0  0  0  0
  -29.1981  -33.1353   25.0346 N   0  3  0  0  0  0  0  0  0  0  0  0
  -31.0259  -17.0229   23.2517 O   0  0  0  0  0  0  0  0  0  0  0  0
  -22.3156  -30.9524   20.7848 O   0  0  0  0  0  0  0  0  0  0  0  0
  -24.9938  -26.4528   11.6692 O   0  0  0  0  0  0  0  0  0  0  0  0
  -23.3843  -32.3615   24.1115 O   0  0  0  0  0  0  0  0  0  0  0  0
  -28.4278  -27.1439   13.4283 O   0  0  0  0  0  0  0  0  0  0  0  0
  -27.7932  -33.2541   22.5997 O   0  0  0  0  0  0  0  0  0  0  0  0
  -26.3430  -23.4570   17.4859 O   0  0  0  0  0  0  0  0  0  0  0  0
  -26.0875  -11.5978   20.6506 O   0  0  0  0  0  0  0  0  0  0  0  0
  -27.6490  -28.1028   18.1505 O   0  0  0  0  0  0  0  0  0  1  0  0
  -20.7106  -10.6567   21.4302 F   0  0  0  0  0  0  0  0  0  0  0  0
  -25.2232   -9.8457   22.6067 F   0  0  0  0  0  0  0  0  0  0  0  0
  1  2  1  0  0  0  0
  1  5  2  0  0  0  0
  2  6  2  0  0  0  0
  3  8  2  0  0  0  0
  3 17  1  0  0  0  0
  4  9  1  0  0  0  0
  4 17  2  0  0  0  0
  5 19  1  0  0  0  0
  6 21  1  0  0  0  0
  7 10  2  0  0  0  0
  7 20  1  0  0  0  0
  8 27  1  0  0  0  0
  9 27  2  0  0  0  0
 10 28  1  0  0  0  0
 11 12  2  0  0  0  0
 11 29  1  0  0  0  0
 12 30  1  0  0  0  0
 13 22  1  0  0  0  0
 13 28  2  0  0  0  0
 14 23  1  0  0  0  0
 14 24  2  0  0  0  0
 15 24  1  0  0  0  0
 15 25  2  0  0  0  0
 16 30  2  0  0  0  0
 16 31  1  0  0  0  0
 17 32  1  0  0  0  0
 18 32  1  0  0  0  0
 18 33  2  0  0  0  0
 18 34  1  0  0  0  0
 19 21  2  0  0  0  0
 19 41  1  0  0  0  0
 20 22  2  0  0  0  0
 20 42  1  0  0  0  0
 21 50  1  0  0  0  0
 22 43  1  0  0  0  0
 23 26  2  0  0  0  0
 23 59  1  0  0  0  0
 24 76  1  0  0  0  0
 25 26  1  0  0  0  0
 25 72  1  0  0  0  0
 26 73  1  0  0  0  0
 27 88  1  0  0  0  0
 28 89  1  0  0  0  0
 29 31  2  0  0  0  0
 29 88  1  0  0  0  0
 30 90  1  0  0  0  0
 31 91  1  0  0  0  0
 32 68  2  0  0  0  0
 33 69  1  0  0  0  0
 33 74  1  0  0  0  0
 34 75  1  0  0  0  0
 34 81  2  0  0  0  0
 35 51  1  0  0  0  0
 35 77  1  0  0  0  0
 35 82  2  0  0  0  0
 36 60  1  0  0  0  0
 36 64  1  0  0  0  0
 36 83  2  0  0  0  0
 37 65  1  0  0  0  0
 37 70  1  0  0  0  0
 37 84  2  0  0  0  0
 38 61  1  0  0  0  0
 38 78  1  0  0  0  0
 38 85  2  0  0  0  0
 39 66  1  0  0  0  0
 39 79  1  0  0  0  0
 39 86  2  0  0  0  0
 40 71  1  0  0  0  0
 40 76  1  0  0  0  0
 40 87  2  0  0  0  0
 41 44  1  0  0  0  0
 42 51  1  0  0  0  0
 43 70  1  0  0  0  0
 44 46  1  0  0  0  0
 45 47  1  0  0  0  0
 45 48  1  0  0  0  0
 46 50  1  0  0  0  0
 47 52  1  0  0  0  0
 48 71  1  0  0  0  0
 49 52  1  0  0  0  0
 49 71  1  0  0  0  0
 50 77  1  0  0  0  0
 51 70  1  0  0  0  0
 52 69  1  0  0  0  0
 53 60  1  0  0  0  0
 54 66  1  0  0  0  0
 55 67  1  0  0  0  0
 56 67  1  0  0  0  0
 57 67  1  0  0  0  0
 58 80  1  0  0  0  0
 59 64  1  0  0  0  0
 61 62  1  0  0  0  0
 62 63  1  0  0  0  0
 63 89  1  0  0  0  0
 64 78  1  0  0  0  0
 65 67  1  0  0  0  0
 65 79  1  0  0  0  0
 66 80  1  0  0  0  0
 68 69  1  0  0  0  0
M  CHG  1  80   1
M  ISO  4  40 100  63 101  76 100  89 101
M  END
> <Batch ID>
0110

> <Smiles>
CCC(=O)C(Cc1cc([100NH:0][100C:0](=O)N2CCCC(n3nc(-c4ccc(Oc5ccc(F)cc5F)cc4)c(C(N)=O)c3N)C2)cc(N)c1N)NC(=O)CC[101CH2:1][101O:1]c1ccc2c(c1)CN(C(=O)C(NC(=O)C(C)NC)C(C)(C)C)C(C(=O)NC1CCCc3ccccc31)C2

> <Shape>
0.239

> <Color>
0.084

> <Negative vol penalty>
0.000

$$$$

  -OEChem-04052301263D

 85 93  0     1  0  0  0  0  0999 V2000
  -19.7867  -27.9243   26.5545 C   0  0  0  0  0  0  0  0  0  0  0  0
  -21.1128  -27.6978   26.2005 C   0  0  0  0  0  0  0  0  0  0  0  0
  -24.0304   -9.7862   21.7744 C   0  0  0  0  0  0  0  0  0  0  0  0
  -24.5468  -11.0944   23.7389 C   0  0  0  0  0  0  0  0  0  0  0  0
  -18.7984  -27.9492   25.5714 C   0  0  0  0  0  0  0  0  0  0  0  0
  -21.4514  -27.4949   24.8631 C   0  0  0  0  0  0  0  0  0  0  0  0
  -26.5993  -29.2669   22.0588 C   0  0  0  0  0  0  0  0  0  0  0  0
  -30.8805  -20.4662   20.6917 C   0  0  0  0  0  0  0  0  0  0  0  0
  -30.6311  -19.1353   20.3570 C   0  0  0  0  0  0  0  0  0  0  0  0
  -23.5989   -8.7373   22.5863 C   0  0  0  0  0  0  0  0  0  0  0  0
  -24.1153  -10.0454   24.5508 C   0  0  0  0  0  0  0  0  0  0  0  0
  -27.7764  -28.5897   21.7432 C   0  0  0  0  0  0  0  0  0  0  0  0
  -20.8465   -7.9495   24.3854 C   0  0  0  0  0  0  0  0  0  0  0  0
  -19.6491   -7.3189   24.0479 C   0  0  0  0  0  0  0  0  0  0  0  0
  -26.9298  -28.1644   19.5247 C   0  0  0  0  0  0  0  0  0  0  0  0
  -28.5060  -20.8572   20.9061 C   0  0  0  0  0  0  0  0  0  0  0  0
  -20.8229   -5.2216   23.8019 C   0  0  0  0  0  0  0  0  0  0  0  0
  -24.5044  -10.9648   22.3507 C   0  0  0  0  0  0  0  0  0  0  0  0
  -24.1744  -13.1099   21.0101 C   0  0  0  0  0  0  0  0  0  0  0  0
  -19.1263  -27.7560   24.2202 C   0  0  0  0  0  0  0  0  0  0  0  0
  -25.5724  -29.3888   21.1117 C   0  0  0  0  0  0  0  0  0  0  0  0
  -20.4663  -27.5158   23.8611 C   0  0  0  0  0  0  0  0  0  0  0  0
  -25.7417  -28.8459   19.8300 C   0  0  0  0  0  0  0  0  0  0  0  0
  -29.8179  -21.3272   20.9663 C   0  0  0  0  0  0  0  0  0  0  0  0
  -29.3192  -18.6653   20.2968 C   0  0  0  0  0  0  0  0  0  0  0  0
  -23.6414   -8.8669   23.9745 C   0  0  0  0  0  0  0  0  0  0  0  0
  -27.9406  -28.0358   20.4770 C   0  0  0  0  0  0  0  0  0  0  0  0
  -22.0323   -7.2162   24.4310 C   0  0  0  0  0  0  0  0  0  0  0  0
  -19.6372   -5.9549   23.7562 C   0  0  0  0  0  0  0  0  0  0  0  0
  -28.2566  -19.5263   20.5714 C   0  0  0  0  0  0  0  0  0  0  0  0
  -22.0204   -5.8523   24.1393 C   0  0  0  0  0  0  0  0  0  0  0  0
  -24.9507  -12.0485   21.5126 C   0  0  0  0  0  0  0  0  0  0  0  0
  -25.0575  -13.8641   20.2768 C   0  0  0  0  0  0  0  0  0  0  0  0
  -22.7797  -13.3892   21.1902 C   0  0  0  0  0  0  0  0  0  0  0  0
  -22.5471  -28.4275   20.9470 C   0  0  0  0  0  0  0  0  0  0  0  0
  -30.5257  -25.5040   20.7180 C   0  0  0  0  0  0  0  0  0  0  0  0
  -22.5418  -30.1941   18.2264 C   0  0  0  0  0  0  0  0  0  0  0  0
  -24.3261  -31.5812   15.6692 C   0  0  0  0  0  0  0  0  0  0  0  0
  -30.0111  -16.3296   19.6550 C   0  0  0  0  0  0  0  0  0  0  0  0
  -18.0170  -27.7446   23.1984 C   0  0  0  0  0  0  0  0  0  0  0  0
  -24.3198  -30.1455   21.4590 C   0  0  0  0  0  0  0  0  0  0  0  0
  -24.6778  -28.9666   18.7707 C   0  0  0  0  0  0  0  0  0  0  0  0
  -18.5107  -27.8932   21.7616 C   0  0  0  0  0  0  0  0  0  0  0  0
  -29.7991  -12.8787   18.8042 C   0  0  0  0  0  0  0  0  0  0  0  0
  -19.6949  -26.9664   21.5055 C   0  0  0  0  0  0  0  0  0  0  0  0
  -28.4550  -12.4424   19.3916 C   0  0  0  0  0  0  0  0  0  0  0  0
  -30.5062  -13.8948   19.6993 C   0  0  0  0  0  0  0  0  0  0  0  0
  -28.3567  -14.6310   20.6516 C   0  0  0  0  0  0  0  0  0  0  0  0
  -20.8765  -27.3160   22.4182 C   0  0  1  0  0  0  0  0  0  0  0  0
  -23.1295  -29.7643   20.5843 C   0  0  1  0  0  0  0  0  0  0  0  0
  -27.5773  -13.6566   19.7533 C   0  0  2  0  0  0  0  0  0  0  0  0
  -32.7029  -25.3035   21.8949 C   0  0  0  0  0  0  0  0  0  0  0  0
  -24.0410  -32.9360   13.5762 C   0  0  0  0  0  0  0  0  0  0  0  0
  -21.4939  -27.7243   16.7733 C   0  0  0  0  0  0  0  0  0  0  0  0
  -22.1272  -28.8141   14.6100 C   0  0  0  0  0  0  0  0  0  0  0  0
  -20.4178  -29.8744   16.0853 C   0  0  0  0  0  0  0  0  0  0  0  0
  -26.0060  -33.7777   16.7236 C   0  0  0  0  0  0  0  0  0  0  0  0
  -29.7645  -26.7105   21.2339 C   0  0  0  0  0  0  0  0  0  1  0  0
  -31.3912  -23.2180   21.3852 C   0  0  0  0  0  0  0  0  0  0  0  0
  -31.3074  -24.7015   21.7586 C   0  0  2  0  0  0  0  0  0  0  0  0
  -22.8500  -29.9213   16.7740 C   0  0  1  0  0  0  0  0  0  0  0  0
  -24.3120  -32.9768   15.0721 C   0  0  2  0  0  0  0  0  0  0  0  0
  -21.7417  -29.0794   16.0810 C   0  0  0  0  0  0  0  0  0  0  0  0
  -26.2287  -12.1185   21.1306 N   0  0  0  0  0  0  0  0  0  0  0  0
  -26.2622  -13.2329   20.3803 N   0  0  0  0  0  0  0  0  0  0  0  0
  -23.4685  -29.7103   19.1608 N   0  0  0  0  0  0  0  0  0  0  0  0
  -29.6157  -15.0189   19.9966 N   0  0  0  0  0  0  0  0  0  0  0  0
  -24.9134  -14.9988   19.5599 N   0  0  0  0  0  0  0  0  0  0  0  0
  -22.0182  -12.5115   21.9739 N   0  0  0  0  0  0  0  0  0  0  0  0
  -29.0692  -17.3129   19.9561 N   0  0  0  0  0  0  0  0  0  0  0  0
  -30.0656  -22.6485   21.2992 N   0  0  0  0  0  0  0  0  0  0  0  0
  -21.5696  -28.4855   21.9220 N   0  0  0  0  0  0  0  0  0  0  0  0
  -23.0871  -31.2214   16.1558 N   0  0  0  0  0  0  0  0  0  0  0  0
  -25.6238  -33.6483   15.2939 N   0  3  0  0  0  0  0  0  0  0  0  0
  -22.2215  -14.3785   20.6580 O   0  0  0  0  0  0  0  0  0  0  0  0
  -22.9534  -27.4184   20.3829 O   0  0  0  0  0  0  0  0  0  0  0  0
  -30.5316  -25.2058   19.5238 O   0  0  0  0  0  0  0  0  0  0  0  0
  -21.5203  -30.8199   18.5207 O   0  0  0  0  0  0  0  0  0  0  0  0
  -25.3343  -30.8789   15.6975 O   0  0  0  0  0  0  0  0  0  0  0  0
  -31.0932  -16.5594   19.1089 O   0  0  0  0  0  0  0  0  0  0  0  0
  -23.2202   -7.8436   24.7670 O   0  0  0  0  0  0  0  0  0  0  0  0
  -29.0882  -27.3737   20.1665 O   0  0  0  0  0  0  0  0  0  1  0  0
  -18.4869   -5.3491   23.4337 F   0  0  0  0  0  0  0  0  0  0  0  0
  -26.9917  -19.0853   20.5161 F   0  0  0  0  0  0  0  0  0  0  0  0
  -23.1562   -5.1423   24.1827 F   0  0  0  0  0  0  0  0  0  0  0  0
  1  2  1  0  0  0  0
  1  5  2  0  0  0  0
  2  6  2  0  0  0  0
  3 10  2  0  0  0  0
  3 18  1  0  0  0  0
  4 11  1  0  0  0  0
  4 18  2  0  0  0  0
  5 20  1  0  0  0  0
  6 22  1  0  0  0  0
  7 12  2  0  0  0  0
  7 21  1  0  0  0  0
  8  9  2  0  0  0  0
  8 24  1  0  0  0  0
  9 25  1  0  0  0  0
 10 26  1  0  0  0  0
 11 26  2  0  0  0  0
 12 27  1  0  0  0  0
 13 14  2  0  0  0  0
 13 28  1  0  0  0  0
 14 29  1  0  0  0  0
 15 23  1  0  0  0  0
 15 27  2  0  0  0  0
 16 24  2  0  0  0  0
 16 30  1  0  0  0  0
 17 29  2  0  0  0  0
 17 31  1  0  0  0  0
 18 32  1  0  0  0  0
 19 32  1  0  0  0  0
 19 33  2  0  0  0  0
 19 34  1  0  0  0  0
 20 22  2  0  0  0  0
 20 40  1  0  0  0  0
 21 23  2  0  0  0  0
 21 41  1  0  0  0  0
 22 49  1  0  0  0  0
 23 42  1  0  0  0  0
 24 71  1  0  0  0  0
 25 30  2  0  0  0  0
 25 70  1  0  0  0  0
 26 81  1  0  0  0  0
 27 82  1  0  0  0  0
 28 31  2  0  0  0  0
 28 81  1  0  0  0  0
 29 83  1  0  0  0  0
 30 84  1  0  0  0  0
 31 85  1  0  0  0  0
 32 64  2  0  0  0  0
 33 65  1  0  0  0  0
 33 68  1  0  0  0  0
 34 69  1  0  0  0  0
 34 75  2  0  0  0  0
 35 50  1  0  0  0  0
 35 72  1  0  0  0  0
 35 76  2  0  0  0  0
 36 58  1  0  0  0  0
 36 60  1  0  0  0  0
 36 77  2  0  0  0  0
 37 61  1  0  0  0  0
 37 66  1  0  0  0  0
 37 78  2  0  0  0  0
 38 62  1  0  0  0  0
 38 73  1  0  0  0  0
 38 79  2  0  0  0  0
 39 67  1  0  0  0  0
 39 70  1  0  0  0  0
 39 80  2  0  0  0  0
 40 43  1  0  0  0  0
 41 50  1  0  0  0  0
 42 66  1  0  0  0  0
 43 45  1  0  0  0  0
 44 46  1  0  0  0  0
 44 47  1  0  0  0  0
 45 49  1  0  0  0  0
 46 51  1  0  0  0  0
 47 67  1  0  0  0  0
 48 51  1  0  0  0  0
 48 67  1  0  0  0  0
 49 72  1  0  0  0  0
 50 66  1  0  0  0  0
 51 65  1  0  0  0  0
 52 60  1  0  0  0  0
 53 62  1  0  0  0  0
 54 63  1  0  0  0  0
 55 63  1  0  0  0  0
 56 63  1  0  0  0  0
 57 74  1  0  0  0  0
 58 82  1  0  0  0  0
 59 60  1  0  0  0  0
 59 71  1  0  0  0  0
 61 63  1  0  0  0  0
 61 73  1  0  0  0  0
 62 74  1  0  0  0  0
 64 65  1  0  0  0  0
M  CHG  1  74   1
M  ISO  4  39 100  58 101  70 100  82 101
M  END
> <Batch ID>
0110

> <Smiles>
CNC(C)C(=O)NC(C(=O)N1Cc2cc([101O:1][101CH2:1]C(=O)C(C)CNc3ccc([100NH:0][100C:0](=O)N4CCCC(n5nc(-c6ccc(Oc7ccc(F)cc7F)cc6)c(C(N)=O)c5N)C4)c(F)c3)ccc2CC1C(=O)NC1CCCc2ccccc21)C(C)(C)C

> <Shape>
0.302

> <Color>
0.159

> <Negative vol penalty>
0.000

$$$$

  -OEChem-04052301263D

 88 96  0     1  0  0  0  0  0999 V2000
  -21.6362   -7.9480   21.7928 C   0  0  0  0  0  0  0  0  0  0  0  0
  -22.5417   -8.6566   21.0096 C   0  0  0  0  0  0  0  0  0  0  0  0
  -20.1792  -25.3769   22.3356 C   0  0  0  0  0  0  0  0  0  0  0  0
  -19.2951  -26.6892   20.5098 C   0  0  0  0  0  0  0  0  0  0  0  0
  -20.5727   -8.6132   22.4013 C   0  0  0  0  0  0  0  0  0  0  0  0
  -22.3836  -10.0308   20.8336 C   0  0  0  0  0  0  0  0  0  0  0  0
  -26.8285  -14.2069   20.2788 C   0  0  0  0  0  0  0  0  0  0  0  0
  -18.9710  -25.5136   23.0189 C   0  0  0  0  0  0  0  0  0  0  0  0
  -18.0868  -26.8258   21.1931 C   0  0  0  0  0  0  0  0  0  0  0  0
  -27.3993  -14.8275   19.1684 C   0  0  0  0  0  0  0  0  0  0  0  0
  -14.8935  -27.8240   22.6131 C   0  0  0  0  0  0  0  0  0  0  0  0
  -14.3083  -29.0896   22.6486 C   0  0  0  0  0  0  0  0  0  0  0  0
  -25.9187  -16.7086   19.4663 C   0  0  0  0  0  0  0  0  0  0  0  0
  -29.4512  -21.2917   17.9394 C   0  0  0  0  0  0  0  0  0  0  0  0
  -16.2673  -29.9641   23.7598 C   0  0  0  0  0  0  0  0  0  0  0  0
  -20.3414  -25.9648   21.0810 C   0  0  0  0  0  0  0  0  0  0  0  0
  -29.3843  -23.2478   19.3557 C   0  0  0  0  0  0  0  0  0  0  0  0
  -28.9945  -22.4537   20.4342 C   0  0  0  0  0  0  0  0  0  0  0  0
  -21.9446  -24.8057   19.4705 C   0  0  0  0  0  0  0  0  0  0  0  0
  -20.4070   -9.9979   22.2405 C   0  0  0  0  0  0  0  0  0  0  0  0
  -25.7894  -14.8288   20.9859 C   0  0  0  0  0  0  0  0  0  0  0  0
  -21.3161  -10.7150   21.4394 C   0  0  0  0  0  0  0  0  0  0  0  0
  -25.3382  -16.0949   20.5868 C   0  0  0  0  0  0  0  0  0  0  0  0
  -29.6126  -22.6668   18.1083 C   0  0  0  0  0  0  0  0  0  0  0  0
  -29.0613  -20.4975   19.0179 C   0  0  0  0  0  0  0  0  0  0  0  0
  -17.9247  -26.2380   22.4477 C   0  0  0  0  0  0  0  0  0  0  0  0
  -26.9424  -16.0772   18.7603 C   0  0  0  0  0  0  0  0  0  0  0  0
  -16.1655  -27.6283   23.1509 C   0  0  0  0  0  0  0  0  0  0  0  0
  -28.8330  -21.0786   20.2653 C   0  0  0  0  0  0  0  0  0  0  0  0
  -14.9952  -30.1597   23.2220 C   0  0  0  0  0  0  0  0  0  0  0  0
  -16.8525  -28.6984   23.7243 C   0  0  0  0  0  0  0  0  0  0  0  0
  -21.5895  -25.8244   20.3749 C   0  0  0  0  0  0  0  0  0  0  0  0
  -23.2223  -25.1239   19.0794 C   0  0  0  0  0  0  0  0  0  0  0  0
  -27.6013  -22.9607   22.3880 C   0  0  0  0  0  0  0  0  0  0  0  0
  -28.7537  -23.0508   21.7456 C   0  0  0  0  0  0  0  0  0  0  0  0
  -29.5601  -24.7134   19.5228 C   0  0  0  0  0  0  0  0  0  0  0  0
  -21.1874  -23.6732   19.0238 C   0  0  0  0  0  0  0  0  0  0  0  0
  -22.7535  -14.1151   21.6006 C   0  0  0  0  0  0  0  0  0  0  0  0
  -22.9174  -16.7592   23.4725 C   0  0  0  0  0  0  0  0  0  0  0  0
  -24.4308  -19.7431   24.1457 C   0  0  0  0  0  0  0  0  0  0  0  0
  -28.3886  -26.7879   20.1919 C   0  0  0  0  0  0  0  0  0  0  0  0
  -19.2149  -10.6654   22.8794 C   0  0  0  0  0  0  0  0  0  0  0  0
  -25.2026  -14.1580   22.1976 C   0  0  0  0  0  0  0  0  0  0  0  0
  -24.2390  -16.8138   21.3240 C   0  0  0  0  0  0  0  0  0  0  0  0
  -19.3326  -12.1858   22.9485 C   0  0  0  0  0  0  0  0  0  0  0  0
  -25.9516  -29.3235   19.8330 C   0  0  0  0  0  0  0  0  0  0  0  0
  -19.8026  -12.7462   21.6099 C   0  0  0  0  0  0  0  0  0  0  0  0
  -24.6264  -28.5570   19.8592 C   0  0  0  0  0  0  0  0  0  0  0  0
  -26.9710  -28.7277   20.8029 C   0  0  0  0  0  0  0  0  0  0  0  0
  -25.8811  -26.5242   20.6823 C   0  0  0  0  0  0  0  0  0  0  0  0
  -21.1923  -12.2106   21.2449 C   0  0  1  0  0  0  0  0  0  0  0  0
  -23.7998  -14.6542   22.5346 C   0  0  1  0  0  0  0  0  0  0  0  0
  -24.8453  -27.0423   19.6715 C   0  0  1  0  0  0  0  0  0  0  0  0
  -24.3203  -21.6980   25.7152 C   0  0  0  0  0  0  0  0  0  0  0  0
  -29.5684  -16.1804   16.6161 C   0  0  0  0  0  0  0  0  0  0  0  0
  -20.4656  -17.8079   21.9898 C   0  0  0  0  0  0  0  0  0  0  0  0
  -20.9740  -20.0836   22.9014 C   0  0  0  0  0  0  0  0  0  0  0  0
  -20.4423  -18.2084   24.4583 C   0  0  0  0  0  0  0  0  0  0  0  0
  -27.1747  -19.2493   25.1387 C   0  0  0  0  0  0  0  0  0  0  0  0
  -29.4905  -19.7403   22.1179 C   0  0  0  0  0  0  0  0  0  0  0  0
  -29.1247  -18.4653   17.5717 C   0  0  0  0  0  0  0  0  0  0  0  0
  -22.6704  -18.2338   23.2638 C   0  0  1  0  0  0  0  0  0  0  0  0
  -24.9483  -20.3402   25.4418 C   0  0  2  0  0  0  0  0  0  0  0  0
  -28.8955  -16.9643   17.7334 C   0  0  1  0  0  0  0  0  0  1  0  0
  -21.1575  -18.5693   23.1380 C   0  0  0  0  0  0  0  0  0  0  0  0
  -22.5629  -26.7224   20.5483 N   0  0  0  0  0  0  0  0  0  0  0  0
  -23.5423  -26.2690   19.7476 N   0  0  0  0  0  0  0  0  0  0  0  0
  -23.6929  -16.1141   22.4986 N   0  0  0  0  0  0  0  0  0  0  0  0
  -27.1277  -27.2937   20.5534 N   0  0  0  0  0  0  0  0  0  0  0  0
  -30.0095  -23.4499   17.0009 N   0  0  0  0  0  0  0  0  0  0  0  0
  -24.0919  -24.5330   18.2327 N   0  0  0  0  0  0  0  0  0  0  0  0
  -19.8907  -23.4964   19.5256 N   0  0  0  0  0  0  0  0  0  0  0  0
  -28.9053  -19.1338   18.8342 N   0  0  0  0  0  0  0  0  0  0  0  0
  -28.4251  -25.4132   19.9334 N   0  0  0  0  0  0  0  0  0  0  0  0
  -22.2152  -12.9056   21.9966 N   0  0  0  0  0  0  0  0  0  0  0  0
  -23.3455  -18.9199   24.3601 N   0  0  0  0  0  0  0  0  0  0  0  0
  -26.4275  -20.5106   25.3794 N   0  3  0  0  0  0  0  0  0  0  0  0
  -30.6684  -25.2080   19.3355 O   0  0  0  0  0  0  0  0  0  0  0  0
  -21.6530  -22.8336   18.2165 O   0  0  0  0  0  0  0  0  0  0  0  0
  -22.4556  -14.7502   20.5958 O   0  0  0  0  0  0  0  0  0  0  0  0
  -22.4459  -16.2019   24.4668 O   0  0  0  0  0  0  0  0  0  0  0  0
  -24.9362  -19.9857   23.0520 O   0  0  0  0  0  0  0  0  0  0  0  0
  -29.3875  -27.5043   20.0721 O   0  0  0  0  0  0  0  0  0  0  0  0
  -16.7455  -26.3713   23.1141 O   0  0  0  0  0  0  0  0  0  0  0  0
  -28.4513  -20.2921   21.3151 O   0  0  0  0  0  0  0  0  0  0  0  0
  -27.4973  -16.6849   17.6764 O   0  0  0  0  0  0  0  0  0  1  0  0
  -14.4338  -31.3754   23.2547 F   0  0  0  0  0  0  0  0  0  0  0  0
  -18.0753  -28.5168   24.2415 F   0  0  0  0  0  0  0  0  0  0  0  0
  1  2  1  0  0  0  0
  1  5  2  0  0  0  0
  2  6  2  0  0  0  0
  3  8  2  0  0  0  0
  3 16  1  0  0  0  0
  4  9  1  0  0  0  0
  4 16  2  0  0  0  0
  5 20  1  0  0  0  0
  6 22  1  0  0  0  0
  7 10  2  0  0  0  0
  7 21  1  0  0  0  0
  8 26  1  0  0  0  0
  9 26  2  0  0  0  0
 10 27  1  0  0  0  0
 11 12  2  0  0  0  0
 11 28  1  0  0  0  0
 12 30  1  0  0  0  0
 13 23  1  0  0  0  0
 13 27  2  0  0  0  0
 14 24  2  0  0  0  0
 14 25  1  0  0  0  0
 15 30  2  0  0  0  0
 15 31  1  0  0  0  0
 16 32  1  0  0  0  0
 17 18  2  0  0  0  0
 17 24  1  0  0  0  0
 17 36  1  0  0  0  0
 18 29  1  0  0  0  0
 18 35  1  0  0  0  0
 19 32  1  0  0  0  0
 19 33  2  0  0  0  0
 19 37  1  0  0  0  0
 20 22  2  0  0  0  0
 20 42  1  0  0  0  0
 21 23  2  0  0  0  0
 21 43  1  0  0  0  0
 22 51  1  0  0  0  0
 23 44  1  0  0  0  0
 24 70  1  0  0  0  0
 25 29  2  0  0  0  0
 25 73  1  0  0  0  0
 26 84  1  0  0  0  0
 27 86  1  0  0  0  0
 28 31  2  0  0  0  0
 28 84  1  0  0  0  0
 29 85  1  0  0  0  0
 30 87  1  0  0  0  0
 31 88  1  0  0  0  0
 32 66  2  0  0  0  0
 33 67  1  0  0  0  0
 33 71  1  0  0  0  0
 34 35  2  0  0  0  0
 36 74  1  0  0  0  0
 36 78  2  0  0  0  0
 37 72  1  0  0  0  0
 37 79  2  0  0  0  0
 38 52  1  0  0  0  0
 38 75  1  0  0  0  0
 38 80  2  0  0  0  0
 39 62  1  0  0  0  0
 39 68  1  0  0  0  0
 39 81  2  0  0  0  0
 40 63  1  0  0  0  0
 40 76  1  0  0  0  0
 40 82  2  0  0  0  0
 41 69  1  0  0  0  0
 41 74  1  0  0  0  0
 41 83  2  0  0  0  0
 42 45  1  0  0  0  0
 43 52  1  0  0  0  0
 44 68  1  0  0  0  0
 45 47  1  0  0  0  0
 46 48  1  0  0  0  0
 46 49  1  0  0  0  0
 47 51  1  0  0  0  0
 48 53  1  0  0  0  0
 49 69  1  0  0  0  0
 50 53  1  0  0  0  0
 50 69  1  0  0  0  0
 51 75  1  0  0  0  0
 52 68  1  0  0  0  0
 53 67  1  0  0  0  0
 54 63  1  0  0  0  0
 55 64  1  0  0  0  0
 56 65  1  0  0  0  0
 57 65  1  0  0  0  0
 58 65  1  0  0  0  0
 59 77  1  0  0  0  0
 60 85  1  0  0  0  0
 61 64  1  0  0  0  0
 61 73  1  0  0  0  0
 62 65  1  0  0  0  0
 62 76  1  0  0  0  0
 63 77  1  0  0  0  0
 64 86  1  0  0  0  0
 66 67  1  0  0  0  0
M  CHG  1  77   1
M  ISO  4  41 100  64 101  74 100  86 101
M  END
> <Batch ID>
0110

> <Smiles>
C=Cc1c(OC)c(NC[101CH:1](C)[101O:1]c2ccc3c(c2)CN(C(=O)C(NC(=O)C(C)NC)C(C)(C)C)C(C(=O)NC2CCCc4ccccc42)C3)cc(N)c1C(=O)[100NH:0][100C:0](=O)N1CCCC(n2nc(-c3ccc(Oc4ccc(F)cc4F)cc3)c(C(N)=O)c2N)C1

> <Shape>
0.237

> <Color>
0.074

> <Negative vol penalty>
0.000

$$$$

  -OEChem-04052301263D

 86 94  0     1  0  0  0  0  0999 V2000
  -21.6852  -12.6182   18.7984 C   0  0  0  0  0  0  0  0  0  0  0  0
  -21.7168  -14.0023   18.9350 C   0  0  0  0  0  0  0  0  0  0  0  0
  -29.0815  -27.7915   19.0255 C   0  0  0  0  0  0  0  0  0  0  0  0
  -28.4491  -25.8138   20.2607 C   0  0  0  0  0  0  0  0  0  0  0  0
  -22.6620  -11.8357   19.4128 C   0  0  0  0  0  0  0  0  0  0  0  0
  -22.7248  -14.6047   19.6870 C   0  0  0  0  0  0  0  0  0  0  0  0
  -25.3932  -20.0101   18.6070 C   0  0  0  0  0  0  0  0  0  0  0  0
  -30.3330  -27.2313   18.7693 C   0  0  0  0  0  0  0  0  0  0  0  0
  -29.7006  -25.2535   20.0045 C   0  0  0  0  0  0  0  0  0  0  0  0
  -25.1860  -21.2816   19.1400 C   0  0  0  0  0  0  0  0  0  0  0  0
  -31.6531  -24.9435   16.6584 C   0  0  0  0  0  0  0  0  0  0  0  0
  -32.1517  -25.0376   15.3591 C   0  0  0  0  0  0  0  0  0  0  0  0
  -26.9840  -20.9119   20.7051 C   0  0  0  0  0  0  0  0  0  0  0  0
  -22.4760  -26.2003   23.6973 C   0  0  0  0  0  0  0  0  0  0  0  0
  -23.1721  -26.9125   25.8985 C   0  0  0  0  0  0  0  0  0  0  0  0
  -24.0746  -24.8852   24.9432 C   0  0  0  0  0  0  0  0  0  0  0  0
  -34.0632  -26.2651   16.1816 C   0  0  0  0  0  0  0  0  0  0  0  0
  -28.1396  -27.0827   19.7713 C   0  0  0  0  0  0  0  0  0  0  0  0
  -25.6847  -27.5419   19.2513 C   0  0  0  0  0  0  0  0  0  0  0  0
  -23.6880  -12.4295   20.1647 C   0  0  0  0  0  0  0  0  0  0  0  0
  -26.3919  -19.1744   19.1271 C   0  0  0  0  0  0  0  0  0  0  0  0
  -23.7154  -13.8293   20.3132 C   0  0  0  0  0  0  0  0  0  0  0  0
  -27.2036  -19.6313   20.1752 C   0  0  0  0  0  0  0  0  0  0  0  0
  -22.4072  -27.1134   24.7495 C   0  0  0  0  0  0  0  0  0  0  0  0
  -23.3097  -25.0861   23.7942 C   0  0  0  0  0  0  0  0  0  0  0  0
  -30.6425  -25.9624   19.2588 C   0  0  0  0  0  0  0  0  0  0  0  0
  -25.9795  -21.7316   20.1911 C   0  0  0  0  0  0  0  0  0  0  0  0
  -32.3595  -25.5103   17.7193 C   0  0  0  0  0  0  0  0  0  0  0  0
  -24.0058  -25.7983   25.9954 C   0  0  0  0  0  0  0  0  0  0  0  0
  -33.3568  -25.6984   15.1208 C   0  0  0  0  0  0  0  0  0  0  0  0
  -33.5645  -26.1711   17.4809 C   0  0  0  0  0  0  0  0  0  0  0  0
  -26.8469  -27.6611   20.0368 C   0  0  0  0  0  0  0  0  0  0  0  0
  -24.7361  -28.2677   19.9293 C   0  0  0  0  0  0  0  0  0  0  0  0
  -24.2771  -24.4081   21.8372 C   0  0  0  0  0  0  0  0  0  0  0  0
  -25.4809  -26.8380   18.0190 C   0  0  0  0  0  0  0  0  0  0  0  0
  -26.4217  -16.3337   20.5531 C   0  0  0  0  0  0  0  0  0  0  0  0
  -29.6380  -16.6849   20.3201 C   0  0  0  0  0  0  0  0  0  0  0  0
  -22.2374  -29.6258   24.7461 C   0  0  0  0  0  0  0  0  0  0  0  0
  -20.8222  -28.4644   23.2967 C   0  0  0  0  0  0  0  0  0  0  0  0
  -32.3092  -18.7890   20.0310 C   0  0  0  0  0  0  0  0  0  0  0  0
  -24.6946  -11.5392   20.8495 C   0  0  0  0  0  0  0  0  0  0  0  0
  -26.6204  -17.8158   18.5233 C   0  0  0  0  0  0  0  0  0  0  0  0
  -28.3025  -18.7806   20.7559 C   0  0  0  0  0  0  0  0  0  0  0  0
  -25.9438  -12.2806   21.3187 C   0  0  0  0  0  0  0  0  0  0  0  0
  -25.1776  -31.4541   23.8229 C   0  0  0  0  0  0  0  0  0  0  0  0
  -25.5606  -13.5702   22.0377 C   0  0  0  0  0  0  0  0  0  0  0  0
  -25.7944  -30.6050   22.7122 C   0  0  0  0  0  0  0  0  0  0  0  0
  -24.5120  -30.5854   24.8857 C   0  0  0  0  0  0  0  0  0  0  0  0
  -24.1038  -28.7896   23.2334 C   0  0  0  0  0  0  0  0  0  0  0  0
  -24.8070  -14.5215   21.1004 C   0  0  1  0  0  0  0  0  0  0  0  0
  -27.3268  -16.8517   19.4714 C   0  0  1  0  0  0  0  0  0  0  0  0
  -24.7600  -29.6294   22.1232 C   0  0  2  0  0  0  0  0  0  0  0  0
  -34.8155  -18.7848   19.9035 C   0  0  0  0  0  0  0  0  0  0  0  0
  -20.5061  -28.2866   25.8229 C   0  0  0  0  0  0  0  0  0  0  0  0
  -29.7873  -16.1571   23.3216 C   0  0  0  0  0  0  0  0  0  0  0  0
  -32.1113  -17.0879   23.2991 C   0  0  0  0  0  0  0  0  0  0  0  0
  -31.5763  -15.0420   21.9760 C   0  0  0  0  0  0  0  0  0  0  0  0
  -32.2906  -20.0348   17.3465 C   0  0  0  0  0  0  0  0  0  0  0  0
  -24.6339  -26.5750   28.1536 C   0  0  0  0  0  0  0  0  0  0  0  0
  -24.4505  -23.4908   20.6638 C   0  0  0  0  0  0  0  0  0  1  0  0
  -30.7138  -17.2856   21.1923 C   0  0  1  0  0  0  0  0  0  0  0  0
  -33.5172  -18.7630   19.1119 C   0  0  2  0  0  0  0  0  0  0  0  0
  -21.5165  -28.3051   24.6459 C   0  0  1  0  0  0  0  0  0  0  0  0
  -31.0253  -16.4087   22.4378 C   0  0  0  0  0  0  0  0  0  0  0  0
  -26.6563  -28.4043   21.1301 N   0  0  0  0  0  0  0  0  0  0  0  0
  -23.3786  -24.1657   22.7347 N   0  0  0  0  0  0  0  0  0  0  0  0
  -25.3633  -28.7587   21.0364 N   0  0  0  0  0  0  0  0  0  0  0  0
  -28.4826  -17.4576   20.1357 N   0  0  0  0  0  0  0  0  0  0  0  0
  -23.5531  -29.6573   24.2837 N   0  0  0  0  0  0  0  0  0  0  0  0
  -23.4349  -28.5275   19.6806 N   0  0  0  0  0  0  0  0  0  0  0  0
  -26.5622  -26.1436   17.4594 N   0  0  0  0  0  0  0  0  0  0  0  0
  -19.6353  -27.8795   23.1567 N   0  0  0  0  0  0  0  0  0  0  0  0
  -25.7305  -15.1881   20.2075 N   0  0  0  0  0  0  0  0  0  0  0  0
  -31.8620  -17.5178   20.3227 N   0  0  0  0  0  0  0  0  0  0  0  0
  -21.3704  -29.1841   22.3250 N   0  3  0  0  0  0  0  0  0  0  0  0
  -33.5015  -19.9434   18.2023 N   0  3  0  0  0  0  0  0  0  0  0  0
  -24.3771  -26.8386   17.4230 O   0  0  0  0  0  0  0  0  0  0  0  0
  -26.3564  -16.9284   21.6225 O   0  0  0  0  0  0  0  0  0  0  0  0
  -29.8191  -15.5741   19.8150 O   0  0  0  0  0  0  0  0  0  0  0  0
  -21.6461  -30.6001   25.2188 O   0  0  0  0  0  0  0  0  0  0  0  0
  -31.8144  -19.8326   20.4513 O   0  0  0  0  0  0  0  0  0  0  0  0
  -31.8635  -25.4153   19.0088 O   0  0  0  0  0  0  0  0  0  0  0  0
  -24.7523  -25.6024   27.1165 O   0  0  0  0  0  0  0  0  0  0  0  0
  -25.7790  -22.9720   20.7137 O   0  0  0  0  0  0  0  0  0  1  0  0
  -33.8363  -25.7873   13.8732 F   0  0  0  0  0  0  0  0  0  0  0  0
  -34.2482  -26.7165   18.4962 F   0  0  0  0  0  0  0  0  0  0  0  0
  1  2  1  0  0  0  0
  1  5  2  0  0  0  0
  2  6  2  0  0  0  0
  3  8  2  0  0  0  0
  3 18  1  0  0  0  0
  4  9  1  0  0  0  0
  4 18  2  0  0  0  0
  5 20  1  0  0  0  0
  6 22  1  0  0  0  0
  7 10  2  0  0  0  0
  7 21  1  0  0  0  0
  8 26  1  0  0  0  0
  9 26  2  0  0  0  0
 10 27  1  0  0  0  0
 11 12  2  0  0  0  0
 11 28  1  0  0  0  0
 12 30  1  0  0  0  0
 13 23  1  0  0  0  0
 13 27  2  0  0  0  0
 14 24  1  0  0  0  0
 14 25  2  0  0  0  0
 15 24  2  0  0  0  0
 15 29  1  0  0  0  0
 16 25  1  0  0  0  0
 16 29  2  0  0  0  0
 17 30  2  0  0  0  0
 17 31  1  0  0  0  0
 18 32  1  0  0  0  0
 19 32  1  0  0  0  0
 19 33  2  0  0  0  0
 19 35  1  0  0  0  0
 20 22  2  0  0  0  0
 20 41  1  0  0  0  0
 21 23  2  0  0  0  0
 21 42  1  0  0  0  0
 22 50  1  0  0  0  0
 23 43  1  0  0  0  0
 24 63  1  0  0  0  0
 25 66  1  0  0  0  0
 26 82  1  0  0  0  0
 27 84  1  0  0  0  0
 28 31  2  0  0  0  0
 28 82  1  0  0  0  0
 29 83  1  0  0  0  0
 30 85  1  0  0  0  0
 31 86  1  0  0  0  0
 32 65  2  0  0  0  0
 33 67  1  0  0  0  0
 33 70  1  0  0  0  0
 34 60  1  0  0  0  0
 34 66  2  0  0  0  0
 35 71  1  0  0  0  0
 35 77  2  0  0  0  0
 36 51  1  0  0  0  0
 36 73  1  0  0  0  0
 36 78  2  0  0  0  0
 37 61  1  0  0  0  0
 37 68  1  0  0  0  0
 37 79  2  0  0  0  0
 38 63  1  0  0  0  0
 38 69  1  0  0  0  0
 38 80  2  0  0  0  0
 39 63  1  0  0  0  0
 39 72  1  0  0  0  0
 39 75  2  0  0  0  0
 40 62  1  0  0  0  0
 40 74  1  0  0  0  0
 40 81  2  0  0  0  0
 41 44  1  0  0  0  0
 42 51  1  0  0  0  0
 43 68  1  0  0  0  0
 44 46  1  0  0  0  0
 45 47  1  0  0  0  0
 45 48  1  0  0  0  0
 46 50  1  0  0  0  0
 47 52  1  0  0  0  0
 48 69  1  0  0  0  0
 49 52  1  0  0  0  0
 49 69  1  0  0  0  0
 50 73  1  0  0  0  0
 51 68  1  0  0  0  0
 52 67  1  0  0  0  0
 53 62  1  0  0  0  0
 54 63  1  0  0  0  0
 55 64  1  0  0  0  0
 56 64  1  0  0  0  0
 57 64  1  0  0  0  0
 58 76  1  0  0  0  0
 59 83  1  0  0  0  0
 60 84  1  0  0  0  0
 61 64  1  0  0  0  0
 61 74  1  0  0  0  0
 62 76  1  0  0  0  0
 65 67  1  0  0  0  0
M  CHG  2  75   1  76   1
M  ISO  4  38 100  60 101  63 100  84 101
M  END
> <Batch ID>
0110

> <Smiles>
CNC(C)C(=O)NC(C(=O)N1Cc2cc([101O:1][101CH:1]=CNc3cc(OC)cc([100C:0](C)(C(=N)N)[100C:0](=O)N4CCCC(n5nc(-c6ccc(Oc7ccc(F)cc7F)cc6)c(C(N)=O)c5N)C4)c3)ccc2CC1C(=O)NC1CCCc2ccccc21)C(C)(C)C

> <Shape>
0.216

> <Color>
0.066

> <Negative vol penalty>
0.000

$$$$

  -OEChem-04052301263D

 85 93  0     1  0  0  0  0  0999 V2000
  -22.9074  -10.4613   19.0770 C   0  0  0  0  0  0  0  0  0  0  0  0
  -23.4894  -11.6581   18.6716 C   0  0  0  0  0  0  0  0  0  0  0  0
  -23.8569  -28.3470   23.0638 C   0  0  0  0  0  0  0  0  0  0  0  0
  -22.7404  -29.7134   21.4135 C   0  0  0  0  0  0  0  0  0  0  0  0
  -22.2966  -10.3729   20.3272 C   0  0  0  0  0  0  0  0  0  0  0  0
  -23.4599  -12.7676   19.5158 C   0  0  0  0  0  0  0  0  0  0  0  0
  -27.7867  -17.0615   20.1045 C   0  0  0  0  0  0  0  0  0  0  0  0
  -22.7847  -28.5263   23.9377 C   0  0  0  0  0  0  0  0  0  0  0  0
  -21.6681  -29.8927   22.2875 C   0  0  0  0  0  0  0  0  0  0  0  0
  -27.9193  -18.3398   19.5639 C   0  0  0  0  0  0  0  0  0  0  0  0
  -18.9693  -28.1344   23.3099 C   0  0  0  0  0  0  0  0  0  0  0  0
  -17.6821  -27.9990   22.7902 C   0  0  0  0  0  0  0  0  0  0  0  0
  -26.9687  -19.2808   21.5715 C   0  0  0  0  0  0  0  0  0  0  0  0
  -29.7623  -26.6479   22.0229 C   0  0  0  0  0  0  0  0  0  0  0  0
  -17.1862  -30.2768   23.4248 C   0  0  0  0  0  0  0  0  0  0  0  0
  -23.8348  -28.9406   21.8017 C   0  0  0  0  0  0  0  0  0  0  0  0
  -25.1001  -27.7331   19.9446 C   0  0  0  0  0  0  0  0  0  0  0  0
  -22.2681  -11.4790   21.1911 C   0  0  0  0  0  0  0  0  0  0  0  0
  -27.2331  -16.8822   21.3803 C   0  0  0  0  0  0  0  0  0  0  0  0
  -22.8470  -12.6942   20.7782 C   0  0  0  0  0  0  0  0  0  0  0  0
  -26.8325  -17.9994   22.1270 C   0  0  0  0  0  0  0  0  0  0  0  0
  -30.1945  -27.8820   22.4990 C   0  0  0  0  0  0  0  0  0  0  0  0
  -30.9308  -28.7251   21.6722 C   0  0  0  0  0  0  0  0  0  0  0  0
  -21.6903  -29.2992   23.5496 C   0  0  0  0  0  0  0  0  0  0  0  0
  -27.5076  -19.4495   20.2962 C   0  0  0  0  0  0  0  0  0  0  0  0
  -19.3651  -29.3410   23.8872 C   0  0  0  0  0  0  0  0  0  0  0  0
  -16.7905  -29.0702   22.8476 C   0  0  0  0  0  0  0  0  0  0  0  0
  -18.4735  -30.4122   23.9446 C   0  0  0  0  0  0  0  0  0  0  0  0
  -24.9423  -28.7562   20.8987 C   0  0  0  0  0  0  0  0  0  0  0  0
  -26.3081  -28.0023   19.3490 C   0  0  0  0  0  0  0  0  0  0  0  0
  -30.0798  -26.2851   20.7217 C   0  0  0  0  0  0  0  0  0  0  0  0
  -31.2189  -28.3097   20.3800 C   0  0  0  0  0  0  0  0  0  0  0  0
  -24.2322  -26.6374   19.6253 C   0  0  0  0  0  0  0  0  0  0  0  0
  -24.6663  -15.3958   22.5230 C   0  0  0  0  0  0  0  0  0  0  0  0
  -28.6385  -22.8875   20.0428 C   0  0  0  0  0  0  0  0  0  0  0  0
  -25.9542  -16.2046   25.3882 C   0  0  0  0  0  0  0  0  0  0  0  0
  -27.9993  -18.2822   27.1625 C   0  0  0  0  0  0  0  0  0  0  0  0
  -31.0209  -31.2288   21.5520 C   0  0  0  0  0  0  0  0  0  0  0  0
  -21.5548  -11.3491   22.5136 C   0  0  0  0  0  0  0  0  0  0  0  0
  -27.1215  -15.4987   21.9601 C   0  0  0  0  0  0  0  0  0  0  0  0
  -26.2507  -17.8622   23.5094 C   0  0  0  0  0  0  0  0  0  0  0  0
  -21.8954  -12.4620   23.5013 C   0  0  0  0  0  0  0  0  0  0  0  0
  -29.2779  -31.6004   18.3091 C   0  0  0  0  0  0  0  0  0  0  0  0
  -21.8339  -13.8226   22.8143 C   0  0  0  0  0  0  0  0  0  0  0  0
  -27.9453  -30.8961   18.5574 C   0  0  0  0  0  0  0  0  0  0  0  0
  -29.8552  -32.1892   19.5927 C   0  0  0  0  0  0  0  0  0  0  0  0
  -28.6688  -30.4826   20.9422 C   0  0  0  0  0  0  0  0  0  0  0  0
  -22.8571  -13.9125   21.6758 C   0  0  1  0  0  0  0  0  0  0  0  0
  -26.0696  -15.3949   23.0600 C   0  0  1  0  0  0  0  0  0  0  0  0
  -28.0863  -29.8458   19.6715 C   0  0  1  0  0  0  0  0  0  0  0  0
  -28.8210  -18.7189   29.4930 C   0  0  0  0  0  0  0  0  0  0  0  0
  -23.2740  -17.4823   26.0912 C   0  0  0  0  0  0  0  0  0  0  0  0
  -24.4201  -18.6931   27.9590 C   0  0  0  0  0  0  0  0  0  0  0  0
  -24.3393  -16.1999   27.9554 C   0  0  0  0  0  0  0  0  0  0  0  0
  -32.4763  -30.0273   23.1235 C   0  0  0  0  0  0  0  0  0  0  0  0
  -30.8123  -17.7858   26.3882 C   0  0  0  0  0  0  0  0  0  0  0  0
  -28.9080  -24.0912   20.9205 C   0  0  0  0  0  0  0  0  0  0  0  0
  -27.8408  -21.7713   20.6887 C   0  0  0  0  0  0  0  0  0  1  0  0
  -25.8449  -17.3935   26.3121 C   0  0  1  0  0  0  0  0  0  0  0  0
  -29.0869  -17.9956   28.1820 C   0  0  2  0  0  0  0  0  0  0  0  0
  -24.4787  -17.4450   27.0526 C   0  0  0  0  0  0  0  0  0  0  0  0
  -25.9682  -29.6114   20.9121 N   0  0  0  0  0  0  0  0  0  0  0  0
  -26.7822  -29.1263   19.9591 N   0  0  0  0  0  0  0  0  0  0  0  0
  -30.7903  -27.1161   19.9470 N   0  3  0  0  0  0  0  0  0  0  0  0
  -26.1563  -16.4883   24.0301 N   0  0  0  0  0  0  0  0  0  0  0  0
  -29.9275  -31.1927   20.6625 N   0  0  0  0  0  0  0  0  0  0  0  0
  -29.8740  -28.2573   23.8229 N   0  0  0  0  0  0  0  0  0  0  0  0
  -27.0004  -27.3848   18.3683 N   0  0  0  0  0  0  0  0  0  0  0  0
  -31.9554  -29.0991   19.4849 N   0  0  0  0  0  0  0  0  0  0  0  0
  -23.0297  -26.5092   20.3337 N   0  0  0  0  0  0  0  0  0  0  0  0
  -29.6755  -25.0683   20.1914 N   0  0  0  0  0  0  0  0  0  0  0  0
  -24.1844  -14.1401   22.2059 N   0  0  0  0  0  0  0  0  0  0  0  0
  -27.0025  -17.3301   27.1977 N   0  0  0  0  0  0  0  0  0  0  0  0
  -31.3879  -30.0076   22.1487 N   0  0  0  0  0  0  0  0  0  0  0  0
  -30.4126  -18.4359   27.6628 N   0  3  0  0  0  0  0  0  0  0  0  0
  -24.5223  -25.7877   18.7493 O   0  0  0  0  0  0  0  0  0  0  0  0
  -24.0646  -16.4570   22.4065 O   0  0  0  0  0  0  0  0  0  0  0  0
  -29.0358  -22.8089   18.8809 O   0  0  0  0  0  0  0  0  0  0  0  0
  -25.8708  -15.0660   25.8554 O   0  0  0  0  0  0  0  0  0  0  0  0
  -28.0290  -19.2556   26.4127 O   0  0  0  0  0  0  0  0  0  0  0  0
  -31.5963  -32.2858   21.8390 O   0  0  0  0  0  0  0  0  0  0  0  0
  -20.6437  -29.4742   24.4020 O   0  0  0  0  0  0  0  0  0  0  0  0
  -27.6353  -20.6982   19.7707 O   0  0  0  0  0  0  0  0  0  1  0  0
  -15.5548  -28.9405   22.3471 F   0  0  0  0  0  0  0  0  0  0  0  0
  -18.8483  -31.5743   24.4969 F   0  0  0  0  0  0  0  0  0  0  0  0
  1  2  1  0  0  0  0
  1  5  2  0  0  0  0
  2  6  2  0  0  0  0
  3  8  2  0  0  0  0
  3 16  1  0  0  0  0
  4  9  1  0  0  0  0
  4 16  2  0  0  0  0
  5 18  1  0  0  0  0
  6 20  1  0  0  0  0
  7 10  2  0  0  0  0
  7 19  1  0  0  0  0
  8 24  1  0  0  0  0
  9 24  2  0  0  0  0
 10 25  1  0  0  0  0
 11 12  2  0  0  0  0
 11 26  1  0  0  0  0
 12 27  1  0  0  0  0
 13 21  1  0  0  0  0
 13 25  2  0  0  0  0
 14 22  2  0  0  0  0
 14 31  1  0  0  0  0
 15 27  2  0  0  0  0
 15 28  1  0  0  0  0
 16 29  1  0  0  0  0
 17 29  1  0  0  0  0
 17 30  2  0  0  0  0
 17 33  1  0  0  0  0
 18 20  2  0  0  0  0
 18 39  1  0  0  0  0
 19 21  2  0  0  0  0
 19 40  1  0  0  0  0
 20 48  1  0  0  0  0
 21 41  1  0  0  0  0
 22 23  1  0  0  0  0
 22 67  1  0  0  0  0
 23 32  2  0  0  0  0
 23 74  1  0  0  0  0
 24 82  1  0  0  0  0
 25 83  1  0  0  0  0
 26 28  2  0  0  0  0
 26 82  1  0  0  0  0
 27 84  1  0  0  0  0
 28 85  1  0  0  0  0
 29 62  2  0  0  0  0
 30 63  1  0  0  0  0
 30 68  1  0  0  0  0
 31 64  2  0  0  0  0
 31 71  1  0  0  0  0
 32 64  1  0  0  0  0
 32 69  1  0  0  0  0
 33 70  1  0  0  0  0
 33 76  2  0  0  0  0
 34 49  1  0  0  0  0
 34 72  1  0  0  0  0
 34 77  2  0  0  0  0
 35 57  1  0  0  0  0
 35 58  1  0  0  0  0
 35 78  2  0  0  0  0
 36 59  1  0  0  0  0
 36 65  1  0  0  0  0
 36 79  2  0  0  0  0
 37 60  1  0  0  0  0
 37 73  1  0  0  0  0
 37 80  2  0  0  0  0
 38 66  1  0  0  0  0
 38 74  1  0  0  0  0
 38 81  2  0  0  0  0
 39 42  1  0  0  0  0
 40 49  1  0  0  0  0
 41 65  1  0  0  0  0
 42 44  1  0  0  0  0
 43 45  1  0  0  0  0
 43 46  1  0  0  0  0
 44 48  1  0  0  0  0
 45 50  1  0  0  0  0
 46 66  1  0  0  0  0
 47 50  1  0  0  0  0
 47 66  1  0  0  0  0
 48 72  1  0  0  0  0
 49 65  1  0  0  0  0
 50 63  1  0  0  0  0
 51 60  1  0  0  0  0
 52 61  1  0  0  0  0
 53 61  1  0  0  0  0
 54 61  1  0  0  0  0
 55 74  1  0  0  0  0
 56 75  1  0  0  0  0
 57 71  1  0  0  0  0
 58 83  1  0  0  0  0
 59 61  1  0  0  0  0
 59 73  1  0  0  0  0
 60 75  1  0  0  0  0
 62 63  1  0  0  0  0
M  CHG  2  64   1  75   1
M  ISO  4  38 100  58 101  74 100  83 101
M  END
> <Batch ID>
0110

> <Smiles>
CNC(C)C(=O)NC(C(=O)N1Cc2cc([101O:1][101CH2:1]C(=O)CNc3cc(N)c([100N:0](C)[100C:0](=O)N4CCCC(n5nc(-c6ccc(Oc7ccc(F)cc7F)cc6)c(C(N)=O)c5N)C4)c(N)n3)ccc2CC1C(=O)NC1CCCc2ccccc21)C(C)(C)C

> <Shape>
0.215

> <Color>
0.048

> <Negative vol penalty>
0.000

$$$$

  -OEChem-04052301263D

 87 95  0     1  0  0  0  0  0999 V2000
  -23.9516   -8.3905   21.6803 C   0  0  0  0  0  0  0  0  0  0  0  0
  -25.0683   -9.1664   21.3863 C   0  0  0  0  0  0  0  0  0  0  0  0
  -21.9402  -27.9197   21.0070 C   0  0  0  0  0  0  0  0  0  0  0  0
  -21.8431  -29.4829   22.8466 C   0  0  0  0  0  0  0  0  0  0  0  0
  -22.6742   -8.9372   21.5641 C   0  0  0  0  0  0  0  0  0  0  0  0
  -24.9083  -10.4891   20.9750 C   0  0  0  0  0  0  0  0  0  0  0  0
  -28.6036  -15.2082   22.2319 C   0  0  0  0  0  0  0  0  0  0  0  0
  -20.7166  -27.3789   21.4020 C   0  0  0  0  0  0  0  0  0  0  0  0
  -20.6195  -28.9421   23.2415 C   0  0  0  0  0  0  0  0  0  0  0  0
  -29.6161  -15.8275   21.5004 C   0  0  0  0  0  0  0  0  0  0  0  0
  -19.5863  -25.2308   23.7541 C   0  0  0  0  0  0  0  0  0  0  0  0
  -19.4718  -23.8410   23.7826 C   0  0  0  0  0  0  0  0  0  0  0  0
  -29.6729  -22.6407   19.7300 C   0  0  0  0  0  0  0  0  0  0  0  0
  -28.0438  -17.4945   20.7467 C   0  0  0  0  0  0  0  0  0  0  0  0
  -30.9526  -24.9506   18.8303 C   0  0  0  0  0  0  0  0  0  0  0  0
  -17.6784  -23.9555   22.1678 C   0  0  0  0  0  0  0  0  0  0  0  0
  -22.5035  -28.9717   21.7294 C   0  0  0  0  0  0  0  0  0  0  0  0
  -29.3042  -23.8857   20.2395 C   0  0  0  0  0  0  0  0  0  0  0  0
  -23.9771  -30.5968   20.4274 C   0  0  0  0  0  0  0  0  0  0  0  0
  -22.4988  -10.2702   21.1604 C   0  0  0  0  0  0  0  0  0  0  0  0
  -27.2989  -15.7221   22.2176 C   0  0  0  0  0  0  0  0  0  0  0  0
  -23.6273  -11.0537   20.8520 C   0  0  0  0  0  0  0  0  0  0  0  0
  -27.0171  -16.8814   21.4810 C   0  0  0  0  0  0  0  0  0  0  0  0
  -29.9440  -25.0406   19.7896 C   0  0  0  0  0  0  0  0  0  0  0  0
  -31.3214  -23.7055   18.3209 C   0  0  0  0  0  0  0  0  0  0  0  0
  -20.0562  -27.8901   22.5192 C   0  0  0  0  0  0  0  0  0  0  0  0
  -29.3357  -16.9691   20.7553 C   0  0  0  0  0  0  0  0  0  0  0  0
  -18.7467  -25.9831   22.9325 C   0  0  0  0  0  0  0  0  0  0  0  0
  -30.6816  -22.5506   18.7707 C   0  0  0  0  0  0  0  0  0  0  0  0
  -18.5179  -23.2034   22.9895 C   0  0  0  0  0  0  0  0  0  0  0  0
  -17.7928  -25.3454   22.1393 C   0  0  0  0  0  0  0  0  0  0  0  0
  -23.7677  -29.5304   21.3222 C   0  0  0  0  0  0  0  0  0  0  0  0
  -25.3421  -30.7407   20.3782 C   0  0  0  0  0  0  0  0  0  0  0  0
  -28.3278  -23.3555   22.4260 C   0  0  0  0  0  0  0  0  0  0  0  0
  -28.2458  -23.9401   21.2409 C   0  0  0  0  0  0  0  0  0  0  0  0
  -23.0230  -31.3867   19.7052 C   0  0  0  0  0  0  0  0  0  0  0  0
  -24.4669  -14.6268   21.2776 C   0  0  0  0  0  0  0  0  0  0  0  0
  -23.3955  -17.3873   22.6018 C   0  0  0  0  0  0  0  0  0  0  0  0
  -24.0665  -20.5946   23.5555 C   0  0  0  0  0  0  0  0  0  0  0  0
  -29.6990  -26.6520   21.6708 C   0  0  0  0  0  0  0  0  0  0  0  0
  -21.0965  -10.8027   21.0038 C   0  0  0  0  0  0  0  0  0  0  0  0
  -26.2239  -15.0578   23.0334 C   0  0  0  0  0  0  0  0  0  0  0  0
  -25.6374  -17.4846   21.4486 C   0  0  0  0  0  0  0  0  0  0  0  0
  -21.0288  -12.3256   20.9225 C   0  0  0  0  0  0  0  0  0  0  0  0
  -29.2860  -30.0717   22.9919 C   0  0  0  0  0  0  0  0  0  0  0  0
  -22.0810  -12.8558   19.9536 C   0  0  0  0  0  0  0  0  0  0  0  0
  -27.8201  -30.3785   22.6902 C   0  0  0  0  0  0  0  0  0  0  0  0
  -29.5186  -28.5804   23.2153 C   0  0  0  0  0  0  0  0  0  0  0  0
  -27.5680  -28.0296   21.7934 C   0  0  0  0  0  0  0  0  0  0  0  0
  -23.4956  -12.5000   20.4265 C   0  0  1  0  0  0  0  0  0  0  0  0
  -24.8164  -15.3709   22.5352 C   0  0  1  0  0  0  0  0  0  0  0  0
  -27.3090  -29.5191   21.5209 C   0  0  1  0  0  0  0  0  0  0  0  0
  -23.6771  -22.8434   24.5990 C   0  0  0  0  0  0  0  0  0  0  0  0
  -30.6982  -16.4252   17.9672 C   0  0  0  0  0  0  0  0  0  0  0  0
  -22.0067  -17.9743   19.9491 C   0  0  0  0  0  0  0  0  0  0  0  0
  -21.7626  -20.3553   20.6835 C   0  0  0  0  0  0  0  0  0  0  0  0
  -20.6571  -18.5327   21.9791 C   0  0  0  0  0  0  0  0  0  0  0  0
  -32.6039  -24.6766   16.4135 C   0  0  0  0  0  0  0  0  0  0  0  0
  -29.3294  -27.4230   19.3387 C   0  0  0  0  0  0  0  0  0  0  0  0
  -25.0385  -19.6682   26.1929 C   0  0  0  0  0  0  0  0  0  0  0  0
  -30.8311  -18.9357   18.1181 C   0  0  0  0  0  0  0  0  0  0  0  0
  -30.3213  -20.2000   18.8014 C   0  0  0  0  0  0  0  0  0  0  0  0
  -23.1687  -18.7943   22.1039 C   0  0  1  0  0  0  0  0  0  0  0  0
  -23.7731  -21.3453   24.8420 C   0  0  2  0  0  0  0  0  0  0  0  0
  -30.1333  -17.6749   18.6289 C   0  0  2  0  0  0  0  0  0  1  0  0
  -21.9244  -18.9019   21.1778 C   0  0  0  0  0  0  0  0  0  0  0  0
  -24.9083  -29.0321   21.8065 N   0  0  0  0  0  0  0  0  0  0  0  0
  -25.8477  -29.7886   21.2138 N   0  0  0  0  0  0  0  0  0  0  0  0
  -24.6188  -16.7950   22.2577 N   0  0  0  0  0  0  0  0  0  0  0  0
  -28.9830  -27.7833   22.1110 N   0  0  0  0  0  0  0  0  0  0  0  0
  -26.1473  -31.5874   19.7021 N   0  0  0  0  0  0  0  0  0  0  0  0
  -21.6601  -31.1052   19.8715 N   0  0  0  0  0  0  0  0  0  0  0  0
  -32.3439  -23.6287   17.3502 N   0  0  0  0  0  0  0  0  0  0  0  0
  -23.9075  -13.3824   21.4971 N   0  0  0  0  0  0  0  0  0  0  0  0
  -23.1059  -19.6418   23.2898 N   0  0  0  0  0  0  0  0  0  0  0  0
  -29.5845  -26.3434   20.2980 N   0  0  0  0  0  0  0  0  0  0  0  0
  -24.8502  -21.0995   25.8423 N   0  3  0  0  0  0  0  0  0  0  0  0
  -23.3695  -32.3038   18.9227 O   0  0  0  0  0  0  0  0  0  0  0  0
  -24.6871  -15.1439   20.1886 O   0  0  0  0  0  0  0  0  0  0  0  0
  -22.5224  -16.8368   23.2773 O   0  0  0  0  0  0  0  0  0  0  0  0
  -25.0475  -20.8325   22.8545 O   0  0  0  0  0  0  0  0  0  0  0  0
  -30.4074  -25.9891   22.4378 O   0  0  0  0  0  0  0  0  0  0  0  0
  -18.8621  -27.3628   22.9047 O   0  0  0  0  0  0  0  0  0  0  0  0
  -31.0294  -21.3181   18.2826 O   0  0  0  0  0  0  0  0  0  0  0  0
  -30.3220  -17.5751   20.0399 O   0  0  0  0  0  0  0  0  0  1  0  0
  -18.4092  -21.8686   23.0158 F   0  0  0  0  0  0  0  0  0  0  0  0
  -16.9843  -26.0627   21.3471 F   0  0  0  0  0  0  0  0  0  0  0  0
  1  2  1  0  0  0  0
  1  5  2  0  0  0  0
  2  6  2  0  0  0  0
  3  8  2  0  0  0  0
  3 17  1  0  0  0  0
  4  9  1  0  0  0  0
  4 17  2  0  0  0  0
  5 20  1  0  0  0  0
  6 22  1  0  0  0  0
  7 10  2  0  0  0  0
  7 21  1  0  0  0  0
  8 26  1  0  0  0  0
  9 26  2  0  0  0  0
 10 27  1  0  0  0  0
 11 12  2  0  0  0  0
 11 28  1  0  0  0  0
 12 30  1  0  0  0  0
 13 18  1  0  0  0  0
 13 29  2  0  0  0  0
 14 23  1  0  0  0  0
 14 27  2  0  0  0  0
 15 24  1  0  0  0  0
 15 25  2  0  0  0  0
 16 30  2  0  0  0  0
 16 31  1  0  0  0  0
 17 32  1  0  0  0  0
 18 24  2  0  0  0  0
 18 35  1  0  0  0  0
 19 32  1  0  0  0  0
 19 33  2  0  0  0  0
 19 36  1  0  0  0  0
 20 22  2  0  0  0  0
 20 41  1  0  0  0  0
 21 23  2  0  0  0  0
 21 42  1  0  0  0  0
 22 50  1  0  0  0  0
 23 43  1  0  0  0  0
 24 76  1  0  0  0  0
 25 29  1  0  0  0  0
 25 73  1  0  0  0  0
 26 83  1  0  0  0  0
 27 85  1  0  0  0  0
 28 31  2  0  0  0  0
 28 83  1  0  0  0  0
 29 84  1  0  0  0  0
 30 86  1  0  0  0  0
 31 87  1  0  0  0  0
 32 67  2  0  0  0  0
 33 68  1  0  0  0  0
 33 71  1  0  0  0  0
 34 35  2  0  0  0  0
 36 72  1  0  0  0  0
 36 78  2  0  0  0  0
 37 51  1  0  0  0  0
 37 74  1  0  0  0  0
 37 79  2  0  0  0  0
 38 63  1  0  0  0  0
 38 69  1  0  0  0  0
 38 80  2  0  0  0  0
 39 64  1  0  0  0  0
 39 75  1  0  0  0  0
 39 81  2  0  0  0  0
 40 70  1  0  0  0  0
 40 76  1  0  0  0  0
 40 82  2  0  0  0  0
 41 44  1  0  0  0  0
 42 51  1  0  0  0  0
 43 69  1  0  0  0  0
 44 46  1  0  0  0  0
 45 47  1  0  0  0  0
 45 48  1  0  0  0  0
 46 50  1  0  0  0  0
 47 52  1  0  0  0  0
 48 70  1  0  0  0  0
 49 52  1  0  0  0  0
 49 70  1  0  0  0  0
 50 74  1  0  0  0  0
 51 69  1  0  0  0  0
 52 68  1  0  0  0  0
 53 64  1  0  0  0  0
 54 65  1  0  0  0  0
 55 66  1  0  0  0  0
 56 66  1  0  0  0  0
 57 66  1  0  0  0  0
 58 73  1  0  0  0  0
 59 76  1  0  0  0  0
 60 77  1  0  0  0  0
 61 62  1  0  0  0  0
 61 65  1  0  0  0  0
 62 84  1  0  0  0  0
 63 66  1  0  0  0  0
 63 75  1  0  0  0  0
 64 77  1  0  0  0  0
 65 85  1  0  0  0  0
 67 68  1  0  0  0  0
M  CHG  1  77   1
M  ISO  4  40 100  65 101  76 100  85 101
M  END
> <Batch ID>
0110

> <Smiles>
C=Cc1cc(OCC[101CH:1](C)[101O:1]c2ccc3c(c2)CN(C(=O)C(NC(=O)C(C)NC)C(C)(C)C)C(C(=O)NC2CCCc4ccccc42)C3)c(NC)cc1[100N:0](C)[100C:0](=O)N1CCCC(n2nc(-c3ccc(Oc4ccc(F)cc4F)cc3)c(C(N)=O)c2N)C1

> <Shape>
0.255

> <Color>
0.059

> <Negative vol penalty>
0.000

$$$$

  -OEChem-04052301263D

 90 99  0     1  0  0  0  0  0999 V2000
  -16.8418  -27.9269   22.3199 C   0  0  0  0  0  0  0  0  0  0  0  0
  -17.9647  -27.6150   21.5600 C   0  0  0  0  0  0  0  0  0  0  0  0
  -23.9984   -8.9004   21.2514 C   0  0  0  0  0  0  0  0  0  0  0  0
  -25.2905   -9.7263   23.1183 C   0  0  0  0  0  0  0  0  0  0  0  0
  -16.9752  -28.6952   23.4757 C   0  0  0  0  0  0  0  0  0  0  0  0
  -19.2214  -28.0723   21.9549 C   0  0  0  0  0  0  0  0  0  0  0  0
  -24.5926  -23.4627   23.2939 C   0  0  0  0  0  0  0  0  0  0  0  0
  -23.7271   -7.7285   21.9575 C   0  0  0  0  0  0  0  0  0  0  0  0
  -25.0192   -8.5544   23.8245 C   0  0  0  0  0  0  0  0  0  0  0  0
  -25.7293  -22.6571   23.3642 C   0  0  0  0  0  0  0  0  0  0  0  0
  -21.6386   -6.7330   24.4233 C   0  0  0  0  0  0  0  0  0  0  0  0
  -20.3269   -6.2587   24.4127 C   0  0  0  0  0  0  0  0  0  0  0  0
  -27.0622  -24.5742   23.9938 C   0  0  0  0  0  0  0  0  0  0  0  0
  -31.5395  -18.0346   24.6821 C   0  0  0  0  0  0  0  0  0  0  0  0
  -21.0798   -4.1989   23.3991 C   0  0  0  0  0  0  0  0  0  0  0  0
  -24.7802   -9.8993   21.8317 C   0  0  0  0  0  0  0  0  0  0  0  0
  -24.1281  -12.0419   20.6104 C   0  0  0  0  0  0  0  0  0  0  0  0
  -18.2354  -29.1540   23.8902 C   0  0  0  0  0  0  0  0  0  0  0  0
  -24.6835  -24.8259   23.5886 C   0  0  0  0  0  0  0  0  0  0  0  0
  -19.3715  -28.8487   23.1166 C   0  0  0  0  0  0  0  0  0  0  0  0
  -25.9245  -25.3837   23.9372 C   0  0  0  0  0  0  0  0  0  0  0  0
  -30.6261  -17.4646   22.5193 C   0  0  0  0  0  0  0  0  0  0  0  0
  -30.9516  -15.7447   24.1845 C   0  0  0  0  0  0  0  0  0  0  0  0
  -31.1266  -18.4179   23.4061 C   0  0  0  0  0  0  0  0  0  0  0  0
  -31.4521  -16.6979   25.0713 C   0  0  0  0  0  0  0  0  0  0  0  0
  -30.5386  -16.1280   22.9085 C   0  0  0  0  0  0  0  0  0  0  0  0
  -24.2375   -7.5555   23.2441 C   0  0  0  0  0  0  0  0  0  0  0  0
  -26.9611  -23.2115   23.7130 C   0  0  0  0  0  0  0  0  0  0  0  0
  -22.6709   -5.9403   23.9216 C   0  0  0  0  0  0  0  0  0  0  0  0
  -20.0475   -4.9917   23.9007 C   0  0  0  0  0  0  0  0  0  0  0  0
  -22.3915   -4.6732   23.4096 C   0  0  0  0  0  0  0  0  0  0  0  0
  -25.0612  -11.1098   21.1026 C   0  0  0  0  0  0  0  0  0  0  0  0
  -24.8938  -13.0040   19.9984 C   0  0  0  0  0  0  0  0  0  0  0  0
  -30.2564  -22.0004   22.9507 C   0  0  0  0  0  0  0  0  0  0  0  0
  -31.3298  -22.4269   22.0093 C   0  0  0  0  0  0  0  0  0  0  0  0
  -29.1207  -22.7110   22.9659 C   0  0  0  0  0  0  0  0  0  1  0  0
  -22.6970  -12.0383   20.6985 C   0  0  0  0  0  0  0  0  0  0  0  0
  -22.9022  -28.1113   23.9187 C   0  0  0  0  0  0  0  0  0  0  0  0
  -24.8987  -27.9429   26.2416 C   0  0  0  0  0  0  0  0  0  0  0  0
  -26.3613  -26.9455   28.8434 C   0  0  0  0  0  0  0  0  0  0  0  0
  -30.5354  -14.8223   20.7541 C   0  0  0  0  0  0  0  0  0  0  0  0
  -18.3235  -30.0212   25.1210 C   0  0  0  0  0  0  0  0  0  0  0  0
  -23.4973  -25.7433   23.4659 C   0  0  0  0  0  0  0  0  0  0  0  0
  -25.9816  -26.8616   24.2122 C   0  0  0  0  0  0  0  0  0  0  0  0
  -30.4913  -20.7823   23.7962 C   0  0  0  0  0  0  0  0  0  0  0  0
  -32.1533  -21.3238   21.3882 C   0  0  0  0  0  0  0  0  0  0  0  0
  -19.7403  -30.1516   25.6741 C   0  0  0  0  0  0  0  0  0  0  0  0
  -29.0810  -13.5862   17.7484 C   0  0  0  0  0  0  0  0  0  0  0  0
  -20.7274  -30.4469   24.5493 C   0  0  0  0  0  0  0  0  0  0  0  0
  -27.7972  -12.9010   18.2220 C   0  0  0  0  0  0  0  0  0  0  0  0
  -32.4551  -20.2059   22.3762 C   0  0  0  0  0  0  0  0  0  0  0  0
  -30.2251  -13.3964   18.7428 C   0  0  0  0  0  0  0  0  0  0  0  0
  -28.6329  -13.0983   20.5989 C   0  0  0  0  0  0  0  0  0  0  0  0
  -20.7550  -29.3055   23.5257 C   0  0  1  0  0  0  0  0  0  0  0  0
  -23.4933  -26.8684   24.5163 C   0  0  1  0  0  0  0  0  0  0  0  0
  -27.4343  -13.3167   19.6611 C   0  0  2  0  0  0  0  0  0  0  0  0
  -30.1843  -17.8794   21.1499 C   0  0  0  0  0  0  0  0  0  0  0  0
  -32.1355  -12.1689   25.0316 C   0  0  0  0  0  0  0  0  0  0  0  0
  -24.9496  -27.7364   30.7614 C   0  0  0  0  0  0  0  0  0  0  0  0
  -26.8102  -29.7538   24.7018 C   0  0  0  0  0  0  0  0  0  0  0  0
  -28.2085  -29.9191   26.7720 C   0  0  0  0  0  0  0  0  0  0  0  0
  -25.8622  -30.7662   26.7829 C   0  0  0  0  0  0  0  0  0  0  0  0
  -28.7342  -27.4083   30.5503 C   0  0  0  0  0  0  0  0  0  0  0  0
  -30.8589  -14.3102   24.6053 C   0  0  0  0  0  0  0  0  0  0  0  0
  -32.2262  -13.6157   24.5729 C   0  0  0  0  0  0  0  0  0  0  0  0
  -26.2797  -28.2728   26.7491 C   0  0  1  0  0  0  0  0  0  0  0  0
  -26.2646  -27.0921   30.3512 C   0  0  2  0  0  0  0  0  0  0  0  0
  -26.7842  -29.6526   26.2400 C   0  0  0  0  0  0  0  0  0  0  0  0
  -26.3234  -11.4491   20.8269 N   0  0  0  0  0  0  0  0  0  0  0  0
  -26.1886  -12.6051   20.1548 N   0  0  0  0  0  0  0  0  0  0  0  0
  -31.2207  -19.7632   23.0350 N   0  0  1  0  0  0  0  0  0  0  0  0
  -24.8192  -27.2680   25.0175 N   0  0  0  0  0  0  0  0  0  0  0  0
  -29.8100  -13.8149   20.0834 N   0  0  0  0  0  0  0  0  0  0  0  0
  -31.8762  -16.3305   26.3676 N   0  0  0  0  0  0  0  0  0  0  0  0
  -24.5791  -14.1437   19.3470 N   0  0  0  0  0  0  0  0  0  0  0  0
  -22.0939  -12.6606   21.8001 N   0  0  0  0  0  0  0  0  0  0  0  0
  -30.0281  -15.1600   22.0084 N   0  0  0  0  0  0  0  0  0  0  0  0
  -21.5273  -28.1911   24.0319 N   0  0  0  0  0  0  0  0  0  0  0  0
  -26.2188  -28.1579   28.2022 N   0  0  0  0  0  0  0  0  0  0  0  0
  -27.3812  -27.9365   30.8622 N   0  3  0  0  0  0  0  0  0  0  0  0
  -31.4895  -23.6039   21.6952 O   0  0  0  0  0  0  0  0  0  0  0  0
  -21.9750  -11.4850   19.8347 O   0  0  0  0  0  0  0  0  0  0  0  0
  -23.6385  -28.9388   23.3945 O   0  0  0  0  0  0  0  0  0  0  0  0
  -23.9153  -28.2783   26.9077 O   0  0  0  0  0  0  0  0  0  0  0  0
  -26.5484  -25.8642   28.2899 O   0  0  0  0  0  0  0  0  0  0  0  0
  -31.5170  -15.3659   20.2413 O   0  0  0  0  0  0  0  0  0  0  0  0
  -23.9727   -6.4122   23.9335 O   0  0  0  0  0  0  0  0  0  0  0  0
  -28.0659  -22.4184   23.7842 O   0  0  0  0  0  0  0  0  0  1  0  0
  -18.7880   -4.5358   23.8920 F   0  0  0  0  0  0  0  0  0  0  0  0
  -23.3793   -3.9066   22.9274 F   0  0  0  0  0  0  0  0  0  0  0  0
  1  2  1  0  0  0  0
  1  5  2  0  0  0  0
  2  6  2  0  0  0  0
  3  8  2  0  0  0  0
  3 16  1  0  0  0  0
  4  9  1  0  0  0  0
  4 16  2  0  0  0  0
  5 18  1  0  0  0  0
  6 20  1  0  0  0  0
  7 10  2  0  0  0  0
  7 19  1  0  0  0  0
  8 27  1  0  0  0  0
  9 27  2  0  0  0  0
 10 28  1  0  0  0  0
 11 12  2  0  0  0  0
 11 29  1  0  0  0  0
 12 30  1  0  0  0  0
 13 21  1  0  0  0  0
 13 28  2  0  0  0  0
 14 24  1  0  0  0  0
 14 25  2  0  0  0  0
 15 30  2  0  0  0  0
 15 31  1  0  0  0  0
 16 32  1  0  0  0  0
 17 32  1  0  0  0  0
 17 33  2  0  0  0  0
 17 37  1  0  0  0  0
 18 20  2  0  0  0  0
 18 42  1  0  0  0  0
 19 21  2  0  0  0  0
 19 43  1  0  0  0  0
 20 54  1  0  0  0  0
 21 44  1  0  0  0  0
 22 24  2  0  0  0  0
 22 26  1  0  0  0  0
 22 57  1  0  0  0  0
 23 25  1  0  0  0  0
 23 26  2  0  0  0  0
 23 64  1  0  0  0  0
 24 71  1  0  0  0  0
 25 74  1  0  0  0  0
 26 77  1  0  0  0  0
 27 87  1  0  0  0  0
 28 88  1  0  0  0  0
 29 31  2  0  0  0  0
 29 87  1  0  0  0  0
 30 89  1  0  0  0  0
 31 90  1  0  0  0  0
 32 69  2  0  0  0  0
 33 70  1  0  0  0  0
 33 75  1  0  0  0  0
 34 35  1  0  0  0  0
 34 36  2  0  0  0  0
 34 45  1  0  0  0  0
 35 46  1  0  0  0  0
 35 81  2  0  0  0  0
 36 88  1  0  0  0  0
 37 76  1  0  0  0  0
 37 82  2  0  0  0  0
 38 55  1  0  0  0  0
 38 78  1  0  0  0  0
 38 83  2  0  0  0  0
 39 66  1  0  0  0  0
 39 72  1  0  0  0  0
 39 84  2  0  0  0  0
 40 67  1  0  0  0  0
 40 79  1  0  0  0  0
 40 85  2  0  0  0  0
 41 73  1  0  0  0  0
 41 77  1  0  0  0  0
 41 86  2  0  0  0  0
 42 47  1  0  0  0  0
 43 55  1  0  0  0  0
 44 72  1  0  0  0  0
 45 71  1  0  0  0  0
 46 51  1  0  0  0  0
 47 49  1  0  0  0  0
 48 50  1  0  0  0  0
 48 52  1  0  0  0  0
 49 54  1  0  0  0  0
 50 56  1  0  0  0  0
 51 71  1  0  0  0  0
 52 73  1  0  0  0  0
 53 56  1  0  0  0  0
 53 73  1  0  0  0  0
 54 78  1  0  0  0  0
 55 72  1  0  0  0  0
 56 70  1  0  0  0  0
 58 65  1  0  0  0  0
 59 67  1  0  0  0  0
 60 68  1  0  0  0  0
 61 68  1  0  0  0  0
 62 68  1  0  0  0  0
 63 80  1  0  0  0  0
 64 65  1  0  0  0  0
 66 68  1  0  0  0  0
 66 79  1  0  0  0  0
 67 80  1  0  0  0  0
 69 70  1  0  0  0  0
M  CHG  1  80   1
M  ISO  4  36 101  41 100  77 100  88 101
M  END
> <Batch ID>
0110

> <Smiles>
CCCc1c(N)cc(N2CCC(=O)C(=[101CH:1][101O:1]c3ccc4c(c3)CN(C(=O)C(NC(=O)C(C)NC)C(C)(C)C)C(C(=O)NC3CCCc5ccccc53)C4)C2)c(C)c1[100NH:0][100C:0](=O)N1CCCC(n2nc(-c3ccc(Oc4ccc(F)cc4F)cc3)c(C(N)=O)c2N)C1

> <Shape>
0.235

> <Color>
0.109

> <Negative vol penalty>
0.000

$$$$

  -OEChem-04052301263D

 89 97  0     1  0  0  0  0  0999 V2000
  -31.5262  -34.8320   21.0994 C   0  0  0  0  0  0  0  0  0  0  0  0
  -31.2384  -33.5210   20.7335 C   0  0  0  0  0  0  0  0  0  0  0  0
  -22.2350  -10.4028   20.8585 C   0  0  0  0  0  0  0  0  0  0  0  0
  -24.3124   -9.3197   21.4488 C   0  0  0  0  0  0  0  0  0  0  0  0
  -30.8585  -35.4172   22.1744 C   0  0  0  0  0  0  0  0  0  0  0  0
  -30.2833  -32.7940   21.4433 C   0  0  0  0  0  0  0  0  0  0  0  0
  -26.4170  -28.6129   19.1905 C   0  0  0  0  0  0  0  0  0  0  0  0
  -21.5766   -9.1748   20.9224 C   0  0  0  0  0  0  0  0  0  0  0  0
  -23.6539   -8.0917   21.5129 C   0  0  0  0  0  0  0  0  0  0  0  0
  -26.4542  -27.2194   19.1629 C   0  0  0  0  0  0  0  0  0  0  0  0
  -21.6595   -6.4472   23.6896 C   0  0  0  0  0  0  0  0  0  0  0  0
  -21.9350   -5.6219   24.7798 C   0  0  0  0  0  0  0  0  0  0  0  0
  -31.5617  -18.0292   21.8525 C   0  0  0  0  0  0  0  0  0  0  0  0
  -25.0859  -27.1496   21.1484 C   0  0  0  0  0  0  0  0  0  0  0  0
  -22.7258   -3.9023   23.2782 C   0  0  0  0  0  0  0  0  0  0  0  0
  -23.6030  -10.4752   21.1216 C   0  0  0  0  0  0  0  0  0  0  0  0
  -31.0617  -16.8606   21.2781 C   0  0  0  0  0  0  0  0  0  0  0  0
  -31.1754  -19.2728   21.3524 C   0  0  0  0  0  0  0  0  0  0  0  0
  -24.4672  -12.6657   22.1027 C   0  0  0  0  0  0  0  0  0  0  0  0
  -29.8879  -34.7002   22.8916 C   0  0  0  0  0  0  0  0  0  0  0  0
  -25.7219  -29.2864   20.2052 C   0  0  0  0  0  0  0  0  0  0  0  0
  -29.6030  -33.3697   22.5297 C   0  0  0  0  0  0  0  0  0  0  0  0
  -25.0393  -28.5516   21.1852 C   0  0  0  0  0  0  0  0  0  0  0  0
  -30.1754  -16.9355   20.2036 C   0  0  0  0  0  0  0  0  0  0  0  0
  -22.2860   -8.0193   21.2496 C   0  0  0  0  0  0  0  0  0  0  0  0
  -25.7910  -26.4876   20.1436 C   0  0  0  0  0  0  0  0  0  0  0  0
  -21.9171   -6.0000   22.3937 C   0  0  0  0  0  0  0  0  0  0  0  0
  -30.2892  -19.3477   20.2778 C   0  0  0  0  0  0  0  0  0  0  0  0
  -22.4682   -4.3494   24.5741 C   0  0  0  0  0  0  0  0  0  0  0  0
  -22.4503   -4.7276   22.1880 C   0  0  0  0  0  0  0  0  0  0  0  0
  -29.7892  -18.1791   19.7034 C   0  0  0  0  0  0  0  0  0  0  0  0
  -24.2838  -11.7433   21.0551 C   0  0  0  0  0  0  0  0  0  0  0  0
  -25.1692  -13.6989   21.5315 C   0  0  0  0  0  0  0  0  0  0  0  0
  -31.7113  -20.4788   21.9694 C   0  0  0  0  0  0  0  0  0  0  0  0
  -32.0522  -20.6167   23.2694 C   0  0  0  0  0  0  0  0  0  0  0  0
  -31.4851  -15.5770   21.8242 C   0  0  0  0  0  0  0  0  0  0  0  0
  -24.0412  -12.5948   23.4699 C   0  0  0  0  0  0  0  0  0  0  0  0
  -26.5330  -31.3134   22.5154 C   0  0  0  0  0  0  0  0  0  0  0  0
  -23.3254  -31.4656   22.9739 C   0  0  0  0  0  0  0  0  0  0  0  0
  -20.2741  -29.9790   22.6183 C   0  0  0  0  0  0  0  0  0  0  0  0
  -29.2740  -15.5859   18.2768 C   0  0  0  0  0  0  0  0  0  0  0  0
  -29.2263  -35.3592   24.0760 C   0  0  0  0  0  0  0  0  0  0  0  0
  -25.6690  -30.7896   20.2056 C   0  0  0  0  0  0  0  0  0  0  0  0
  -24.2618  -29.2266   22.2844 C   0  0  0  0  0  0  0  0  0  0  0  0
  -27.9592  -34.6459   24.5408 C   0  0  0  0  0  0  0  0  0  0  0  0
  -26.2246  -14.6780   16.6788 C   0  0  0  0  0  0  0  0  0  0  0  0
  -28.1959  -33.1416   24.6307 C   0  0  0  0  0  0  0  0  0  0  0  0
  -25.4629  -13.9095   17.7611 C   0  0  0  0  0  0  0  0  0  0  0  0
  -27.7257  -14.4007   16.7363 C   0  0  0  0  0  0  0  0  0  0  0  0
  -27.5848  -13.8450   19.1323 C   0  0  0  0  0  0  0  0  0  0  0  0
  -28.5556  -32.5568   23.2595 C   0  0  1  0  0  0  0  0  0  0  0  0
  -25.3593  -31.3762   21.5794 C   0  0  1  0  0  0  0  0  0  0  0  0
  -26.0767  -14.1427   19.1555 C   0  0  2  0  0  0  0  0  0  0  0  0
  -32.5906  -21.8785   23.8617 C   0  0  0  0  0  0  0  0  0  0  0  0
  -32.8524  -15.5046   22.4356 C   0  0  0  0  0  0  0  0  0  0  0  0
  -17.8412  -30.3293   23.1239 C   0  0  0  0  0  0  0  0  0  0  0  0
  -23.8373  -30.7770   25.9020 C   0  0  0  0  0  0  0  0  0  0  0  0
  -21.4080  -30.2126   26.1216 C   0  0  0  0  0  0  0  0  0  0  0  0
  -22.0985  -32.5361   25.5326 C   0  0  0  0  0  0  0  0  0  0  0  0
  -19.5479  -29.9037   19.7502 C   0  0  0  0  0  0  0  0  0  0  0  0
  -27.2248  -23.1612   20.2112 C   0  0  0  0  0  0  0  0  0  0  0  0
  -28.4718  -22.4808   19.6573 C   0  0  0  0  0  0  0  0  0  0  0  0
  -26.9890  -24.5177   19.5603 C   0  0  0  0  0  0  0  0  0  1  0  0
  -28.7322  -21.1444   20.3376 C   0  0  0  0  0  0  0  0  0  0  0  0
  -22.3273  -30.7006   23.8091 C   0  0  1  0  0  0  0  0  0  0  0  0
  -18.9499  -30.5088   22.0986 C   0  0  2  0  0  0  0  0  0  0  0  0
  -22.4340  -31.0436   25.3218 C   0  0  0  0  0  0  0  0  0  0  0  0
  -24.8255  -12.1544   19.9055 N   0  0  0  0  0  0  0  0  0  0  0  0
  -25.3561  -13.3464   20.2273 N   0  0  0  0  0  0  0  0  0  0  0  0
  -24.2453  -30.6983   22.2454 N   0  0  0  0  0  0  0  0  0  0  0  0
  -28.2382  -14.6470   18.0860 N   0  0  0  0  0  0  0  0  0  0  0  0
  -25.6387  -14.8654   22.0227 N   0  0  0  0  0  0  0  0  0  0  0  0
  -23.3304  -11.4625   23.8904 N   0  0  0  0  0  0  0  0  0  0  0  0
  -29.6567  -15.7599   19.6065 N   0  0  0  0  0  0  0  0  0  0  0  0
  -27.3684  -32.4118   22.4446 N   0  0  0  0  0  0  0  0  0  0  0  0
  -21.0169  -30.9687   23.2265 N   0  0  0  0  0  0  0  0  0  0  0  0
  -18.5582  -29.7916   20.8524 N   0  3  0  0  0  0  0  0  0  0  0  0
  -30.8056  -14.5508   21.8156 O   0  0  0  0  0  0  0  0  0  0  0  0
  -24.2694  -13.5161   24.2901 O   0  0  0  0  0  0  0  0  0  0  0  0
  -26.6697  -30.3411   23.2486 O   0  0  0  0  0  0  0  0  0  0  0  0
  -23.2856  -32.6985   22.9625 O   0  0  0  0  0  0  0  0  0  0  0  0
  -20.6139  -28.8037   22.5000 O   0  0  0  0  0  0  0  0  0  0  0  0
  -29.7653  -16.2109   17.3335 O   0  0  0  0  0  0  0  0  0  0  0  0
  -21.6438   -6.8209   21.3124 O   0  0  0  0  0  0  0  0  0  0  0  0
  -25.8262  -25.1275   20.1194 O   0  0  0  0  0  0  0  0  0  1  0  0
  -29.8943  -20.5574   19.7684 O   0  0  0  0  0  0  0  0  0  0  0  0
  -22.7341   -3.5576   25.6212 F   0  0  0  0  0  0  0  0  0  0  0  0
  -22.7010   -4.2930   20.9454 F   0  0  0  0  0  0  0  0  0  0  0  0
  -28.9371  -18.2567   18.6701 F   0  0  0  0  0  0  0  0  0  0  0  0
  1  2  1  0  0  0  0
  1  5  2  0  0  0  0
  2  6  2  0  0  0  0
  3  8  2  0  0  0  0
  3 16  1  0  0  0  0
  4  9  1  0  0  0  0
  4 16  2  0  0  0  0
  5 20  1  0  0  0  0
  6 22  1  0  0  0  0
  7 10  2  0  0  0  0
  7 21  1  0  0  0  0
  8 25  1  0  0  0  0
  9 25  2  0  0  0  0
 10 26  1  0  0  0  0
 11 12  2  0  0  0  0
 11 27  1  0  0  0  0
 12 29  1  0  0  0  0
 13 17  2  0  0  0  0
 13 18  1  0  0  0  0
 14 23  1  0  0  0  0
 14 26  2  0  0  0  0
 15 29  2  0  0  0  0
 15 30  1  0  0  0  0
 16 32  1  0  0  0  0
 17 24  1  0  0  0  0
 17 36  1  0  0  0  0
 18 28  2  0  0  0  0
 18 34  1  0  0  0  0
 19 32  1  0  0  0  0
 19 33  2  0  0  0  0
 19 37  1  0  0  0  0
 20 22  2  0  0  0  0
 20 42  1  0  0  0  0
 21 23  2  0  0  0  0
 21 43  1  0  0  0  0
 22 51  1  0  0  0  0
 23 44  1  0  0  0  0
 24 31  2  0  0  0  0
 24 74  1  0  0  0  0
 25 84  1  0  0  0  0
 26 85  1  0  0  0  0
 27 30  2  0  0  0  0
 27 84  1  0  0  0  0
 28 31  1  0  0  0  0
 28 86  1  0  0  0  0
 29 87  1  0  0  0  0
 30 88  1  0  0  0  0
 31 89  1  0  0  0  0
 32 68  2  0  0  0  0
 33 69  1  0  0  0  0
 33 72  1  0  0  0  0
 34 35  2  0  0  0  0
 35 54  1  0  0  0  0
 36 55  1  0  0  0  0
 36 78  2  0  0  0  0
 37 73  1  0  0  0  0
 37 79  2  0  0  0  0
 38 52  1  0  0  0  0
 38 75  1  0  0  0  0
 38 80  2  0  0  0  0
 39 65  1  0  0  0  0
 39 70  1  0  0  0  0
 39 81  2  0  0  0  0
 40 66  1  0  0  0  0
 40 76  1  0  0  0  0
 40 82  2  0  0  0  0
 41 71  1  0  0  0  0
 41 74  1  0  0  0  0
 41 83  2  0  0  0  0
 42 45  1  0  0  0  0
 43 52  1  0  0  0  0
 44 70  1  0  0  0  0
 45 47  1  0  0  0  0
 46 48  1  0  0  0  0
 46 49  1  0  0  0  0
 47 51  1  0  0  0  0
 48 53  1  0  0  0  0
 49 71  1  0  0  0  0
 50 53  1  0  0  0  0
 50 71  1  0  0  0  0
 51 75  1  0  0  0  0
 52 70  1  0  0  0  0
 53 69  1  0  0  0  0
 56 66  1  0  0  0  0
 57 67  1  0  0  0  0
 58 67  1  0  0  0  0
 59 67  1  0  0  0  0
 60 77  1  0  0  0  0
 61 62  1  0  0  0  0
 61 63  1  0  0  0  0
 62 64  1  0  0  0  0
 63 85  1  0  0  0  0
 64 86  1  0  0  0  0
 65 67  1  0  0  0  0
 65 76  1  0  0  0  0
 66 77  1  0  0  0  0
 68 69  1  0  0  0  0
M  CHG  1  77   1
M  ISO  4  41 100  63 101  74 100  85 101
M  END
> <Batch ID>
0110

> <Smiles>
CC=Cc1cc(C(C)=O)c([100NH:0][100C:0](=O)N2CCCC(n3nc(-c4ccc(Oc5ccc(F)cc5F)cc4)c(C(N)=O)c3N)C2)c(F)c1OCCC[101CH2:1][101O:1]c1ccc2c(c1)CN(C(=O)C(NC(=O)C(C)NC)C(C)(C)C)C(C(=O)NC1CCCc3ccccc31)C2

> <Shape>
0.294

> <Color>
0.127

> <Negative vol penalty>
0.000

$$$$

  -OEChem-04052301263D

 87 95  0     1  0  0  0  0  0999 V2000
  -24.5463  -36.3113   23.2077 C   0  0  0  0  0  0  0  0  0  0  0  0
  -24.9575  -35.3490   22.2910 C   0  0  0  0  0  0  0  0  0  0  0  0
  -24.5454   -9.3119   22.1401 C   0  0  0  0  0  0  0  0  0  0  0  0
  -23.1548  -10.3977   20.4896 C   0  0  0  0  0  0  0  0  0  0  0  0
  -24.8973  -36.1874   24.5514 C   0  0  0  0  0  0  0  0  0  0  0  0
  -25.7209  -34.2628   22.7172 C   0  0  0  0  0  0  0  0  0  0  0  0
  -25.5213  -28.5421   20.5400 C   0  0  0  0  0  0  0  0  0  0  0  0
  -23.7416   -8.1742   22.0689 C   0  0  0  0  0  0  0  0  0  0  0  0
  -22.3510   -9.2600   20.4183 C   0  0  0  0  0  0  0  0  0  0  0  0
  -26.3179  -27.8597   19.6216 C   0  0  0  0  0  0  0  0  0  0  0  0
  -20.7491   -7.1601   23.2693 C   0  0  0  0  0  0  0  0  0  0  0  0
  -20.3712   -6.5583   24.4695 C   0  0  0  0  0  0  0  0  0  0  0  0
  -27.6045  -26.9297   21.4379 C   0  0  0  0  0  0  0  0  0  0  0  0
  -27.8304  -20.4642   18.8107 C   0  0  0  0  0  0  0  0  0  0  0  0
  -26.8243  -20.7064   21.4014 C   0  0  0  0  0  0  0  0  0  0  0  0
  -21.4650   -4.5143   23.7891 C   0  0  0  0  0  0  0  0  0  0  0  0
  -24.2519  -10.4237   21.3505 C   0  0  0  0  0  0  0  0  0  0  0  0
  -26.2224  -11.8847   20.6501 C   0  0  0  0  0  0  0  0  0  0  0  0
  -25.6572  -35.0940   24.9960 C   0  0  0  0  0  0  0  0  0  0  0  0
  -25.7676  -28.4319   21.9161 C   0  0  0  0  0  0  0  0  0  0  0  0
  -26.0835  -34.1248   24.0679 C   0  0  0  0  0  0  0  0  0  0  0  0
  -26.8080  -27.6097   22.3718 C   0  0  0  0  0  0  0  0  0  0  0  0
  -27.2445  -19.3642   19.4369 C   0  0  0  0  0  0  0  0  0  0  0  0
  -27.9133  -21.6853   19.4798 C   0  0  0  0  0  0  0  0  0  0  0  0
  -26.7414  -19.4852   20.7323 C   0  0  0  0  0  0  0  0  0  0  0  0
  -22.6444   -8.1482   21.2080 C   0  0  0  0  0  0  0  0  0  0  0  0
  -27.3615  -27.0556   20.0704 C   0  0  0  0  0  0  0  0  0  0  0  0
  -21.4849   -6.4390   22.3288 C   0  0  0  0  0  0  0  0  0  0  0  0
  -27.4102  -21.8064   20.7751 C   0  0  0  0  0  0  0  0  0  0  0  0
  -20.7292   -5.2354   24.7295 C   0  0  0  0  0  0  0  0  0  0  0  0
  -21.8429   -5.1161   22.5888 C   0  0  0  0  0  0  0  0  0  0  0  0
  -25.0816  -11.5995   21.4240 C   0  0  0  0  0  0  0  0  0  0  0  0
  -26.6447  -13.1117   21.1003 C   0  0  0  0  0  0  0  0  0  0  0  0
  -29.1593  -16.5638   18.3935 C   0  0  0  0  0  0  0  0  0  0  0  0
  -28.1878  -17.0641   19.1652 C   0  0  0  0  0  0  0  0  0  0  0  0
  -27.7044  -23.5321   18.1493 C   0  0  0  0  0  0  0  0  0  0  0  0
  -26.8448  -11.1098   19.6167 C   0  0  0  0  0  0  0  0  0  0  0  0
  -26.5785  -30.4663   24.2198 C   0  0  0  0  0  0  0  0  0  0  0  0
  -26.1290  -27.8804   26.1260 C   0  0  0  0  0  0  0  0  0  0  0  0
  -26.0302  -24.4820   26.4228 C   0  0  0  0  0  0  0  0  0  0  0  0
  -25.5950  -18.3505   22.6674 C   0  0  0  0  0  0  0  0  0  0  0  0
  -26.0522  -35.0278   26.4500 C   0  0  0  0  0  0  0  0  0  0  0  0
  -24.8823  -29.1533   22.8951 C   0  0  0  0  0  0  0  0  0  0  0  0
  -27.1011  -27.4416   23.8395 C   0  0  0  0  0  0  0  0  0  0  0  0
  -26.5460  -33.6503   26.8849 C   0  0  0  0  0  0  0  0  0  0  0  0
  -25.2115  -15.8122   25.1345 C   0  0  0  0  0  0  0  0  0  0  0  0
  -27.5437  -33.0967   25.8725 C   0  0  0  0  0  0  0  0  0  0  0  0
  -25.2374  -14.5134   24.3255 C   0  0  0  0  0  0  0  0  0  0  0  0
  -24.4930  -16.9329   24.3852 C   0  0  0  0  0  0  0  0  0  0  0  0
  -25.0113  -15.8866   22.2159 C   0  0  0  0  0  0  0  0  0  0  0  0
  -26.8918  -32.9191   24.4959 C   0  0  1  0  0  0  0  0  0  0  0  0
  -25.5465  -29.3747   24.2505 C   0  0  1  0  0  0  0  0  0  0  0  0
  -25.7813  -14.7467   22.9024 C   0  0  2  0  0  0  0  0  0  0  0  0
  -27.9654  -24.5613   15.9267 C   0  0  0  0  0  0  0  0  0  0  0  0
  -25.6762  -22.6618   28.1136 C   0  0  0  0  0  0  0  0  0  0  0  0
  -28.9345  -28.3597   27.2257 C   0  0  0  0  0  0  0  0  0  0  0  0
  -28.8893  -26.0376   28.1606 C   0  0  0  0  0  0  0  0  0  0  0  0
  -27.2330  -27.7292   28.9467 C   0  0  0  0  0  0  0  0  0  0  0  0
  -23.6676  -23.4394   24.9773 C   0  0  0  0  0  0  0  0  0  0  0  0
  -28.6474  -23.2221   22.2316 C   0  0  0  0  0  0  0  0  0  0  0  0
  -27.1687  -18.0684   18.6965 C   0  0  0  0  0  0  0  0  0  0  0  0
  -27.5298  -25.9962   17.9478 C   0  0  0  0  0  0  0  0  0  1  0  0
  -28.2276  -24.7470   17.4161 C   0  0  1  0  0  0  0  0  0  0  0  0
  -27.0030  -26.7552   26.6250 C   0  0  1  0  0  0  0  0  0  0  0  0
  -25.0186  -23.5568   27.0748 C   0  0  2  0  0  0  0  0  0  0  0  0
  -28.0109  -27.2249   27.7117 C   0  0  0  0  0  0  0  0  0  0  0  0
  -24.7972  -12.5673   22.2995 N   0  0  0  0  0  0  0  0  0  0  0  0
  -28.5054  -22.7855   18.8374 N   0  0  0  0  0  0  0  0  0  0  0  0
  -25.7656  -13.4726   22.0786 N   0  0  0  0  0  0  0  0  0  0  0  0
  -26.2115  -28.1725   24.7572 N   0  0  0  0  0  0  0  0  0  0  0  0
  -25.0646  -17.0995   23.0471 N   0  0  0  0  0  0  0  0  0  0  0  0
  -27.6787  -13.9062   20.7509 N   0  0  0  0  0  0  0  0  0  0  0  0
  -26.2811   -9.8720   19.2784 N   0  0  0  0  0  0  0  0  0  0  0  0
  -26.1404  -18.3801   21.3843 N   0  0  0  0  0  0  0  0  0  0  0  0
  -26.0723  -31.7265   24.4749 N   0  0  0  0  0  0  0  0  0  0  0  0
  -26.0975  -25.6998   27.0661 N   0  0  0  0  0  0  0  0  0  0  0  0
  -24.3728  -22.6901   26.0488 N   0  3  0  0  0  0  0  0  0  0  0  0
  -27.8798  -11.4960   19.0226 O   0  0  0  0  0  0  0  0  0  0  0  0
  -27.7478  -30.1858   23.9838 O   0  0  0  0  0  0  0  0  0  0  0  0
  -25.3946  -28.4735   26.9201 O   0  0  0  0  0  0  0  0  0  0  0  0
  -26.6970  -24.1557   25.4433 O   0  0  0  0  0  0  0  0  0  0  0  0
  -25.5920  -19.3166   23.4346 O   0  0  0  0  0  0  0  0  0  0  0  0
  -21.8600   -7.0381   21.1380 O   0  0  0  0  0  0  0  0  0  0  0  0
  -27.4815  -22.9920   21.4433 O   0  0  0  0  0  0  0  0  0  0  0  0
  -28.1410  -26.3889   19.1760 O   0  0  0  0  0  0  0  0  0  1  0  0
  -20.3676   -4.6582   25.8828 F   0  0  0  0  0  0  0  0  0  0  0  0
  -22.5507   -4.4187   21.6897 F   0  0  0  0  0  0  0  0  0  0  0  0
  1  2  1  0  0  0  0
  1  5  2  0  0  0  0
  2  6  2  0  0  0  0
  3  8  2  0  0  0  0
  3 17  1  0  0  0  0
  4  9  1  0  0  0  0
  4 17  2  0  0  0  0
  5 19  1  0  0  0  0
  6 21  1  0  0  0  0
  7 10  2  0  0  0  0
  7 20  1  0  0  0  0
  8 26  1  0  0  0  0
  9 26  2  0  0  0  0
 10 27  1  0  0  0  0
 11 12  2  0  0  0  0
 11 28  1  0  0  0  0
 12 30  1  0  0  0  0
 13 22  1  0  0  0  0
 13 27  2  0  0  0  0
 14 23  1  0  0  0  0
 14 24  2  0  0  0  0
 15 25  1  0  0  0  0
 15 29  2  0  0  0  0
 16 30  2  0  0  0  0
 16 31  1  0  0  0  0
 17 32  1  0  0  0  0
 18 32  1  0  0  0  0
 18 33  2  0  0  0  0
 18 37  1  0  0  0  0
 19 21  2  0  0  0  0
 19 42  1  0  0  0  0
 20 22  2  0  0  0  0
 20 43  1  0  0  0  0
 21 51  1  0  0  0  0
 22 44  1  0  0  0  0
 23 25  2  0  0  0  0
 23 61  1  0  0  0  0
 24 29  1  0  0  0  0
 24 68  1  0  0  0  0
 25 74  1  0  0  0  0
 26 83  1  0  0  0  0
 27 85  1  0  0  0  0
 28 31  2  0  0  0  0
 28 83  1  0  0  0  0
 29 84  1  0  0  0  0
 30 86  1  0  0  0  0
 31 87  1  0  0  0  0
 32 67  2  0  0  0  0
 33 69  1  0  0  0  0
 33 72  1  0  0  0  0
 34 35  2  0  0  0  0
 35 61  1  0  0  0  0
 36 63  1  0  0  0  0
 36 68  2  0  0  0  0
 37 73  1  0  0  0  0
 37 78  2  0  0  0  0
 38 52  1  0  0  0  0
 38 75  1  0  0  0  0
 38 79  2  0  0  0  0
 39 64  1  0  0  0  0
 39 70  1  0  0  0  0
 39 80  2  0  0  0  0
 40 65  1  0  0  0  0
 40 76  1  0  0  0  0
 40 81  2  0  0  0  0
 41 71  1  0  0  0  0
 41 74  1  0  0  0  0
 41 82  2  0  0  0  0
 42 45  1  0  0  0  0
 43 52  1  0  0  0  0
 44 70  1  0  0  0  0
 45 47  1  0  0  0  0
 46 48  1  0  0  0  0
 46 49  1  0  0  0  0
 47 51  1  0  0  0  0
 48 53  1  0  0  0  0
 49 71  1  0  0  0  0
 50 53  1  0  0  0  0
 50 71  1  0  0  0  0
 51 75  1  0  0  0  0
 52 70  1  0  0  0  0
 53 69  1  0  0  0  0
 54 63  1  0  0  0  0
 55 65  1  0  0  0  0
 56 66  1  0  0  0  0
 57 66  1  0  0  0  0
 58 66  1  0  0  0  0
 59 77  1  0  0  0  0
 60 84  1  0  0  0  0
 62 63  1  0  0  0  0
 62 85  1  0  0  0  0
 64 66  1  0  0  0  0
 64 76  1  0  0  0  0
 65 77  1  0  0  0  0
 67 69  1  0  0  0  0
M  CHG  1  77   1
M  ISO  4  41 100  62 101  74 100  85 101
M  END
> <Batch ID>
0110

> <Smiles>
C=CCc1cc(NC=C(C)[101CH2:1][101O:1]c2ccc3c(c2)CN(C(=O)C(NC(=O)C(C)NC)C(C)(C)C)C(C(=O)NC2CCCc4ccccc42)C3)c(OC)cc1[100NH:0][100C:0](=O)N1CCCC(n2nc(-c3ccc(Oc4ccc(F)cc4F)cc3)c(C(N)=O)c2N)C1

> <Shape>
0.258

> <Color>
0.077

> <Negative vol penalty>
0.000

$$$$

  -OEChem-04052301263D

 85 93  0     1  0  0  0  0  0999 V2000
  -29.2345  -23.0245   21.7013 C   0  0  0  0  0  0  0  0  0  0  0  0
  -28.1068  -22.3158   21.2993 C   0  0  0  0  0  0  0  0  0  0  0  0
  -28.7527  -27.5321   20.8892 C   0  0  0  0  0  0  0  0  0  0  0  0
  -28.0295  -26.8168   18.6978 C   0  0  0  0  0  0  0  0  0  0  0  0
  -30.5053  -22.4995   21.4704 C   0  0  0  0  0  0  0  0  0  0  0  0
  -28.2494  -21.0821   20.6651 C   0  0  0  0  0  0  0  0  0  0  0  0
  -25.0521  -17.5916   22.4646 C   0  0  0  0  0  0  0  0  0  0  0  0
  -29.9689  -26.8753   20.7022 C   0  0  0  0  0  0  0  0  0  0  0  0
  -29.2458  -26.1600   18.5108 C   0  0  0  0  0  0  0  0  0  0  0  0
  -23.7294  -17.6547   22.0286 C   0  0  0  0  0  0  0  0  0  0  0  0
  -32.4181  -26.9830   17.6866 C   0  0  0  0  0  0  0  0  0  0  0  0
  -33.0593  -27.1468   16.4588 C   0  0  0  0  0  0  0  0  0  0  0  0
  -24.1749  -15.8937   20.4413 C   0  0  0  0  0  0  0  0  0  0  0  0
  -19.0466  -22.8498   19.6165 C   0  0  0  0  0  0  0  0  0  0  0  0
  -20.0184  -22.9664   17.4077 C   0  0  0  0  0  0  0  0  0  0  0  0
  -32.9431  -24.7635   16.0801 C   0  0  0  0  0  0  0  0  0  0  0  0
  -27.7829  -27.5028   19.8870 C   0  0  0  0  0  0  0  0  0  0  0  0
  -26.2190  -29.5133   19.7459 C   0  0  0  0  0  0  0  0  0  0  0  0
  -30.6633  -21.2543   20.8418 C   0  0  0  0  0  0  0  0  0  0  0  0
  -25.9505  -16.6851   21.8837 C   0  0  0  0  0  0  0  0  0  0  0  0
  -29.5236  -20.5406   20.4244 C   0  0  0  0  0  0  0  0  0  0  0  0
  -25.5079  -15.8193   20.8735 C   0  0  0  0  0  0  0  0  0  0  0  0
  -19.5290  -23.6046   18.5474 C   0  0  0  0  0  0  0  0  0  0  0  0
  -19.0536  -21.4567   19.5460 C   0  0  0  0  0  0  0  0  0  0  0  0
  -20.0254  -21.5733   17.3372 C   0  0  0  0  0  0  0  0  0  0  0  0
  -30.2155  -26.1893   19.5130 C   0  0  0  0  0  0  0  0  0  0  0  0
  -23.2913  -16.8077   21.0148 C   0  0  0  0  0  0  0  0  0  0  0  0
  -32.0395  -25.7094   18.1112 C   0  0  0  0  0  0  0  0  0  0  0  0
  -19.5430  -20.8185   18.4064 C   0  0  0  0  0  0  0  0  0  0  0  0
  -33.3218  -26.0371   15.6555 C   0  0  0  0  0  0  0  0  0  0  0  0
  -32.3019  -24.5997   17.3080 C   0  0  0  0  0  0  0  0  0  0  0  0
  -26.5261  -28.1806   20.0797 C   0  0  0  0  0  0  0  0  0  0  0  0
  -24.9086  -29.6693   20.1264 C   0  0  0  0  0  0  0  0  0  0  0  0
  -27.0445  -30.5201   19.1453 C   0  0  0  0  0  0  0  0  0  0  0  0
  -28.6631  -16.9516   20.2482 C   0  0  0  0  0  0  0  0  0  0  0  0
  -28.6830  -13.7183   20.5090 C   0  0  0  0  0  0  0  0  0  0  0  0
  -26.9101  -10.8369   20.9573 C   0  0  0  0  0  0  0  0  0  0  0  0
  -20.3827  -25.8144   20.8385 C   0  0  0  0  0  0  0  0  0  0  0  0
  -32.0585  -20.7495   20.5713 C   0  0  0  0  0  0  0  0  0  0  0  0
  -27.3672  -16.6109   22.3838 C   0  0  0  0  0  0  0  0  0  0  0  0
  -26.4275  -14.8142   20.2312 C   0  0  0  0  0  0  0  0  0  0  0  0
  -32.1127  -19.2626   20.2298 C   0  0  0  0  0  0  0  0  0  0  0  0
  -21.7068  -28.0369   23.2847 C   0  0  0  0  0  0  0  0  0  0  0  0
  -31.0402  -18.9111   19.2036 C   0  0  0  0  0  0  0  0  0  0  0  0
  -23.0644  -28.4460   22.7106 C   0  0  0  0  0  0  0  0  0  0  0  0
  -21.3791  -26.5781   22.9740 C   0  0  0  0  0  0  0  0  0  0  0  0
  -22.8161  -26.6251   20.9724 C   0  0  0  0  0  0  0  0  0  0  0  0
  -29.6366  -19.1877   19.7558 C   0  0  1  0  0  0  0  0  0  0  0  0
  -28.3290  -16.0051   21.3663 C   0  0  1  0  0  0  0  0  0  0  0  0
  -23.1655  -28.1039   21.2119 C   0  0  2  0  0  0  0  0  0  0  0  0
  -17.1356  -20.1117   20.4399 C   0  0  0  0  0  0  0  0  0  0  0  0
  -27.1970   -8.3472   21.0857 C   0  0  0  0  0  0  0  0  0  0  0  0
  -28.9983  -13.6007   17.4764 C   0  0  0  0  0  0  0  0  0  0  0  0
  -28.3306  -11.1896   17.5703 C   0  0  0  0  0  0  0  0  0  0  0  0
  -30.3991  -11.9554   18.7354 C   0  0  0  0  0  0  0  0  0  0  0  0
  -25.8737  -10.7438   23.7279 C   0  0  0  0  0  0  0  0  0  0  0  0
  -18.5329  -20.6662   20.7011 C   0  0  0  0  0  0  0  0  0  0  0  0
  -19.5230  -25.0939   18.6247 C   0  0  0  0  0  0  0  0  0  0  0  0
  -20.5331  -17.2838   18.7177 C   0  0  0  0  0  0  0  0  0  0  0  0
  -21.7525  -16.5289   19.2231 C   0  0  0  0  0  0  0  0  0  1  0  0
  -20.7140  -18.7902   18.8196 C   0  0  0  0  0  0  0  0  0  0  0  0
  -28.1396  -12.5759   19.6852 C   0  0  1  0  0  0  0  0  0  0  0  0
  -27.1362   -9.6471   21.8726 C   0  0  2  0  0  0  0  0  0  0  0  0
  -28.9498  -12.3506   18.3774 C   0  0  0  0  0  0  0  0  0  0  0  0
  -25.4939  -27.5360   20.6302 N   0  0  0  0  0  0  0  0  0  0  0  0
  -24.5254  -28.4676   20.6452 N   0  0  0  0  0  0  0  0  0  0  0  0
  -27.8049  -14.7844   20.7502 N   0  0  0  0  0  0  0  0  0  0  0  0
  -21.4919  -26.3201   21.5364 N   0  0  0  0  0  0  0  0  0  0  0  0
  -20.5247  -20.9414   16.1770 N   0  0  0  0  0  0  0  0  0  0  0  0
  -24.0582  -30.7160   20.0647 N   0  0  0  0  0  0  0  0  0  0  0  0
  -28.3668  -30.1915   18.8170 N   0  0  0  0  0  0  0  0  0  0  0  0
  -29.2359  -18.1373   20.6670 N   0  0  0  0  0  0  0  0  0  0  0  0
  -28.0996  -11.4171   20.5705 N   0  0  0  0  0  0  0  0  0  0  0  0
  -20.5726  -25.6044   19.4782 N   0  0  0  0  0  0  0  0  0  0  0  0
  -26.0324   -9.5425   22.8684 N   0  3  0  0  0  0  0  0  0  0  0  0
  -26.6269  -31.6817   18.9220 O   0  0  0  0  0  0  0  0  0  0  0  0
  -28.4204  -16.6294   19.0911 O   0  0  0  0  0  0  0  0  0  0  0  0
  -29.8414  -13.6634   20.9292 O   0  0  0  0  0  0  0  0  0  0  0  0
  -25.7903  -11.2116   20.6163 O   0  0  0  0  0  0  0  0  0  0  0  0
  -19.3014  -25.5734   21.3860 O   0  0  0  0  0  0  0  0  0  0  0  0
  -31.4023  -25.5485   19.3302 O   0  0  0  0  0  0  0  0  0  0  0  0
  -22.0009  -16.8677   20.5869 O   0  0  0  0  0  0  0  0  0  1  0  0
  -19.5495  -19.4494   18.3409 O   0  0  0  0  0  0  0  0  0  0  0  0
  -33.9362  -26.1948   14.4757 F   0  0  0  0  0  0  0  0  0  0  0  0
  -31.9394  -23.3738   17.7100 F   0  0  0  0  0  0  0  0  0  0  0  0
  1  2  1  0  0  0  0
  1  5  2  0  0  0  0
  2  6  2  0  0  0  0
  3  8  2  0  0  0  0
  3 17  1  0  0  0  0
  4  9  1  0  0  0  0
  4 17  2  0  0  0  0
  5 19  1  0  0  0  0
  6 21  1  0  0  0  0
  7 10  2  0  0  0  0
  7 20  1  0  0  0  0
  8 26  1  0  0  0  0
  9 26  2  0  0  0  0
 10 27  1  0  0  0  0
 11 12  2  0  0  0  0
 11 28  1  0  0  0  0
 12 30  1  0  0  0  0
 13 22  1  0  0  0  0
 13 27  2  0  0  0  0
 14 23  2  0  0  0  0
 14 24  1  0  0  0  0
 15 23  1  0  0  0  0
 15 25  2  0  0  0  0
 16 30  2  0  0  0  0
 16 31  1  0  0  0  0
 17 32  1  0  0  0  0
 18 32  1  0  0  0  0
 18 33  2  0  0  0  0
 18 34  1  0  0  0  0
 19 21  2  0  0  0  0
 19 39  1  0  0  0  0
 20 22  2  0  0  0  0
 20 40  1  0  0  0  0
 21 48  1  0  0  0  0
 22 41  1  0  0  0  0
 23 58  1  0  0  0  0
 24 29  2  0  0  0  0
 24 57  1  0  0  0  0
 25 29  1  0  0  0  0
 25 69  1  0  0  0  0
 26 81  1  0  0  0  0
 27 82  1  0  0  0  0
 28 31  2  0  0  0  0
 28 81  1  0  0  0  0
 29 83  1  0  0  0  0
 30 84  1  0  0  0  0
 31 85  1  0  0  0  0
 32 65  2  0  0  0  0
 33 66  1  0  0  0  0
 33 70  1  0  0  0  0
 34 71  1  0  0  0  0
 34 76  2  0  0  0  0
 35 49  1  0  0  0  0
 35 72  1  0  0  0  0
 35 77  2  0  0  0  0
 36 62  1  0  0  0  0
 36 67  1  0  0  0  0
 36 78  2  0  0  0  0
 37 63  1  0  0  0  0
 37 73  1  0  0  0  0
 37 79  2  0  0  0  0
 38 68  1  0  0  0  0
 38 74  1  0  0  0  0
 38 80  2  0  0  0  0
 39 42  1  0  0  0  0
 40 49  1  0  0  0  0
 41 67  1  0  0  0  0
 42 44  1  0  0  0  0
 43 45  1  0  0  0  0
 43 46  1  0  0  0  0
 44 48  1  0  0  0  0
 45 50  1  0  0  0  0
 46 68  1  0  0  0  0
 47 50  1  0  0  0  0
 47 68  1  0  0  0  0
 48 72  1  0  0  0  0
 49 67  1  0  0  0  0
 50 66  1  0  0  0  0
 51 57  1  0  0  0  0
 52 63  1  0  0  0  0
 53 64  1  0  0  0  0
 54 64  1  0  0  0  0
 55 64  1  0  0  0  0
 56 75  1  0  0  0  0
 58 74  1  0  0  0  0
 59 60  1  0  0  0  0
 59 61  1  0  0  0  0
 60 82  1  0  0  0  0
 61 83  1  0  0  0  0
 62 64  1  0  0  0  0
 62 73  1  0  0  0  0
 63 75  1  0  0  0  0
 65 66  1  0  0  0  0
M  CHG  1  75   1
M  ISO  4  38 100  60 101  74 100  82 101
M  END
> <Batch ID>
0110

> <Smiles>
CCc1cc(C[100NH:0][100C:0](=O)N2CCCC(n3nc(-c4ccc(Oc5ccc(F)cc5F)cc4)c(C(N)=O)c3N)C2)cc(N)c1OCC[101CH2:1][101O:1]c1ccc2c(c1)CN(C(=O)C(NC(=O)C(C)NC)C(C)(C)C)C(C(=O)NC1CCCc3ccccc31)C2

> <Shape>
0.234

> <Color>
0.038

> <Negative vol penalty>
0.000

$$$$

  -OEChem-04052301263D

 88 97  0     1  0  0  0  0  0999 V2000
  -21.9933  -28.8569   19.9257 C   0  0  0  0  0  0  0  0  0  0  0  0
  -22.8767  -27.8026   20.1335 C   0  0  0  0  0  0  0  0  0  0  0  0
  -23.0730   -9.8729   19.9356 C   0  0  0  0  0  0  0  0  0  0  0  0
  -23.8382   -9.8672   22.2273 C   0  0  0  0  0  0  0  0  0  0  0  0
  -29.7291  -19.2839   22.3764 C   0  0  0  0  0  0  0  0  0  0  0  0
  -21.9508  -29.4954   18.6870 C   0  0  0  0  0  0  0  0  0  0  0  0
  -23.7175  -27.3853   19.1023 C   0  0  0  0  0  0  0  0  0  0  0  0
  -29.4285  -25.2421   19.6475 C   0  0  0  0  0  0  0  0  0  0  0  0
  -30.6337  -19.8588   21.4838 C   0  0  0  0  0  0  0  0  0  0  0  0
  -22.3295   -8.7185   20.1810 C   0  0  0  0  0  0  0  0  0  0  0  0
  -23.0947   -8.7129   22.4727 C   0  0  0  0  0  0  0  0  0  0  0  0
  -29.9470  -23.9481   19.6649 C   0  0  0  0  0  0  0  0  0  0  0  0
  -19.8678   -7.9123   23.0783 C   0  0  0  0  0  0  0  0  0  0  0  0
  -19.1135   -7.8661   24.2507 C   0  0  0  0  0  0  0  0  0  0  0  0
  -30.4295  -24.1162   17.3073 C   0  0  0  0  0  0  0  0  0  0  0  0
  -31.1576  -17.6702   20.6049 C   0  0  0  0  0  0  0  0  0  0  0  0
  -20.3563   -5.9245   24.9737 C   0  0  0  0  0  0  0  0  0  0  0  0
  -23.8274  -10.4472   20.9587 C   0  0  0  0  0  0  0  0  0  0  0  0
  -29.5388  -17.9020   22.3833 C   0  0  0  0  0  0  0  0  0  0  0  0
  -24.1694  -12.9729   20.8517 C   0  0  0  0  0  0  0  0  0  0  0  0
  -22.7982  -29.0921   17.6430 C   0  0  0  0  0  0  0  0  0  0  0  0
  -29.3965  -25.9801   18.4556 C   0  0  0  0  0  0  0  0  0  0  0  0
  -23.6854  -28.0182   17.8480 C   0  0  0  0  0  0  0  0  0  0  0  0
  -29.9123  -25.4203   17.2780 C   0  0  0  0  0  0  0  0  0  0  0  0
  -31.3479  -19.0520   20.5980 C   0  0  0  0  0  0  0  0  0  0  0  0
  -30.2531  -17.0952   21.4976 C   0  0  0  0  0  0  0  0  0  0  0  0
  -22.3403   -8.1385   21.4495 C   0  0  0  0  0  0  0  0  0  0  0  0
  -30.4450  -23.3838   18.4941 C   0  0  0  0  0  0  0  0  0  0  0  0
  -20.8663   -6.9645   22.8535 C   0  0  0  0  0  0  0  0  0  0  0  0
  -19.3578   -6.8722   25.1984 C   0  0  0  0  0  0  0  0  0  0  0  0
  -21.1105   -5.9706   23.8012 C   0  0  0  0  0  0  0  0  0  0  0  0
  -24.5961  -11.6394   20.7057 C   0  0  0  0  0  0  0  0  0  0  0  0
  -25.2608  -13.7242   20.4900 C   0  0  0  0  0  0  0  0  0  0  0  0
  -32.7724  -18.6792   17.3644 C   0  0  0  0  0  0  0  0  0  0  0  0
  -28.5855  -17.3372   23.3311 C   0  0  0  0  0  0  0  0  0  0  0  0
  -27.2724  -17.6429   23.4062 C   0  0  0  0  0  0  0  0  0  0  0  0
  -22.9000  -13.4867   21.2763 C   0  0  0  0  0  0  0  0  0  0  0  0
  -27.0974  -27.2433   16.6605 C   0  0  0  0  0  0  0  0  0  0  0  0
  -29.6016  -28.4906   15.0186 C   0  0  0  0  0  0  0  0  0  0  0  0
  -32.8985  -28.2796   14.1627 C   0  0  0  0  0  0  0  0  0  0  0  0
  -30.7276  -14.7680   20.6578 C   0  0  0  0  0  0  0  0  0  0  0  0
  -22.6829  -29.7818   16.3067 C   0  0  0  0  0  0  0  0  0  0  0  0
  -28.8583  -27.3847   18.4592 C   0  0  0  0  0  0  0  0  0  0  0  0
  -29.9196  -26.1784   15.9766 C   0  0  0  0  0  0  0  0  0  0  0  0
  -32.0444  -18.6536   16.0428 C   0  0  0  0  0  0  0  0  0  0  0  0
  -23.8708  -29.5237   15.3835 C   0  0  0  0  0  0  0  0  0  0  0  0
  -30.6077  -19.0015   16.4211 C   0  0  0  0  0  0  0  0  0  0  0  0
  -29.6073  -12.3673   18.2790 C   0  0  0  0  0  0  0  0  0  0  0  0
  -24.2210  -28.0391   15.3664 C   0  0  0  0  0  0  0  0  0  0  0  0
  -28.1686  -12.0736   18.7103 C   0  0  0  0  0  0  0  0  0  0  0  0
  -30.5252  -12.5894   19.4797 C   0  0  0  0  0  0  0  0  0  0  0  0
  -28.6216  -13.3066   20.8693 C   0  0  0  0  0  0  0  0  0  0  0  0
  -24.6307  -27.5528   16.7618 C   0  0  1  0  0  0  0  0  0  0  0  0
  -28.4044  -27.8541   17.0804 C   0  0  1  0  0  0  0  0  0  0  0  0
  -27.6460  -13.1399   19.6928 C   0  0  2  0  0  0  0  0  0  0  0  0
  -30.7458  -19.8801   17.6606 C   0  0  2  0  0  0  0  0  0  0  0  0
  -26.3328  -17.0446   24.4021 C   0  0  0  0  0  0  0  0  0  0  0  0
  -34.6505  -29.4209   12.7752 C   0  0  0  0  0  0  0  0  0  0  0  0
  -28.3897  -27.2773   12.4948 C   0  0  0  0  0  0  0  0  0  0  0  0
  -30.5953  -27.6125   11.3585 C   0  0  0  0  0  0  0  0  0  0  0  0
  -29.3173  -29.5814   12.2029 C   0  0  0  0  0  0  0  0  0  0  0  0
  -34.5674  -28.8589   16.5373 C   0  0  0  0  0  0  0  0  0  0  0  0
  -32.3211  -19.6714   19.6370 C   0  0  0  0  0  0  0  0  0  0  0  0
  -30.8346  -21.3609   17.3059 C   0  0  0  0  0  0  0  0  0  1  0  0
  -30.4489  -28.0372   13.8543 C   0  0  1  0  0  0  0  0  0  0  0  0
  -34.0039  -29.3199   14.1480 C   0  0  2  0  0  0  0  0  0  0  0  0
  -29.6860  -28.1118   12.5016 C   0  0  0  0  0  0  0  0  0  0  0  0
  -25.8600  -11.5456   20.2840 N   0  0  0  0  0  0  0  0  0  0  0  0
  -26.2368  -12.8298   20.1618 N   0  0  0  0  0  0  0  0  0  0  0  0
  -31.9750  -19.3905   18.2586 N   0  0  0  0  0  0  0  0  0  0  0  0
  -29.3769  -27.5459   16.0299 N   0  0  0  0  0  0  0  0  0  0  0  0
  -29.9685  -13.6155   20.3640 N   0  0  0  0  0  0  0  0  0  0  0  0
  -25.4713  -15.0560   20.4237 N   0  0  0  0  0  0  0  0  0  0  0  0
  -21.8887  -12.5758   21.6110 N   0  0  0  0  0  0  0  0  0  0  0  0
  -30.0823  -15.6887   21.4827 N   0  0  0  0  0  0  0  0  0  0  0  0
  -25.9865  -27.9608   17.0612 N   0  0  0  0  0  0  0  0  0  0  0  0
  -31.6665  -28.8397   13.8987 N   0  0  0  0  0  0  0  0  0  0  0  0
  -35.0593  -28.9685   15.1398 N   0  3  0  0  0  0  0  0  0  0  0  0
  -33.8732  -18.1859   17.5598 O   0  0  0  0  0  0  0  0  0  0  0  0
  -22.6641  -14.7170   21.3409 O   0  0  0  0  0  0  0  0  0  0  0  0
  -27.0969  -26.1992   16.0190 O   0  0  0  0  0  0  0  0  0  0  0  0
  -29.1614  -29.6428   15.0336 O   0  0  0  0  0  0  0  0  0  0  0  0
  -33.1076  -27.0886   14.3826 O   0  0  0  0  0  0  0  0  0  0  0  0
  -31.8556  -14.9391   20.1885 O   0  0  0  0  0  0  0  0  0  0  0  0
  -21.6148   -7.0122   21.6894 O   0  0  0  0  0  0  0  0  0  0  0  0
  -30.9511  -22.1207   18.5082 O   0  0  0  0  0  0  0  0  0  1  0  0
  -18.6344   -6.8289   26.3249 F   0  0  0  0  0  0  0  0  0  0  0  0
  -22.0692   -5.0581   23.5914 F   0  0  0  0  0  0  0  0  0  0  0  0
  1  2  1  0  0  0  0
  1  6  2  0  0  0  0
  2  7  2  0  0  0  0
  3 10  2  0  0  0  0
  3 18  1  0  0  0  0
  4 11  1  0  0  0  0
  4 18  2  0  0  0  0
  5  9  2  0  0  0  0
  5 19  1  0  0  0  0
  6 21  1  0  0  0  0
  7 23  1  0  0  0  0
  8 12  2  0  0  0  0
  8 22  1  0  0  0  0
  9 25  1  0  0  0  0
 10 27  1  0  0  0  0
 11 27  2  0  0  0  0
 12 28  1  0  0  0  0
 13 14  2  0  0  0  0
 13 29  1  0  0  0  0
 14 30  1  0  0  0  0
 15 24  1  0  0  0  0
 15 28  2  0  0  0  0
 16 25  2  0  0  0  0
 16 26  1  0  0  0  0
 17 30  2  0  0  0  0
 17 31  1  0  0  0  0
 18 32  1  0  0  0  0
 19 26  2  0  0  0  0
 19 35  1  0  0  0  0
 20 32  1  0  0  0  0
 20 33  2  0  0  0  0
 20 37  1  0  0  0  0
 21 23  2  0  0  0  0
 21 42  1  0  0  0  0
 22 24  2  0  0  0  0
 22 43  1  0  0  0  0
 23 53  1  0  0  0  0
 24 44  1  0  0  0  0
 25 63  1  0  0  0  0
 26 75  1  0  0  0  0
 27 85  1  0  0  0  0
 28 86  1  0  0  0  0
 29 31  2  0  0  0  0
 29 85  1  0  0  0  0
 30 87  1  0  0  0  0
 31 88  1  0  0  0  0
 32 68  2  0  0  0  0
 33 69  1  0  0  0  0
 33 73  1  0  0  0  0
 34 45  1  0  0  0  0
 34 70  1  0  0  0  0
 34 79  2  0  0  0  0
 35 36  2  0  0  0  0
 36 57  1  0  0  0  0
 37 74  1  0  0  0  0
 37 80  2  0  0  0  0
 38 54  1  0  0  0  0
 38 76  1  0  0  0  0
 38 81  2  0  0  0  0
 39 65  1  0  0  0  0
 39 71  1  0  0  0  0
 39 82  2  0  0  0  0
 40 66  1  0  0  0  0
 40 77  1  0  0  0  0
 40 83  2  0  0  0  0
 41 72  1  0  0  0  0
 41 75  1  0  0  0  0
 41 84  2  0  0  0  0
 42 46  1  0  0  0  0
 43 54  1  0  0  0  0
 44 71  1  0  0  0  0
 45 47  1  0  0  0  0
 46 49  1  0  0  0  0
 47 56  1  0  0  0  0
 48 50  1  0  0  0  0
 48 51  1  0  0  0  0
 49 53  1  0  0  0  0
 50 55  1  0  0  0  0
 51 72  1  0  0  0  0
 52 55  1  0  0  0  0
 52 72  1  0  0  0  0
 53 76  1  0  0  0  0
 54 71  1  0  0  0  0
 55 69  1  0  0  0  0
 56 64  1  0  0  0  0
 56 70  1  0  0  0  0
 58 66  1  0  0  0  0
 59 67  1  0  0  0  0
 60 67  1  0  0  0  0
 61 67  1  0  0  0  0
 62 78  1  0  0  0  0
 63 70  1  0  0  0  0
 64 86  1  0  0  0  0
 65 67  1  0  0  0  0
 65 77  1  0  0  0  0
 66 78  1  0  0  0  0
 68 69  1  0  0  0  0
M  CHG  1  78   1
M  ISO  4  41 100  64 101  75 100  86 101
M  END
> <Batch ID>
0110

> <Smiles>
CC=Cc1ccc(CN2C(=O)CCC2[101CH2:1][101O:1]c2ccc3c(c2)CN(C(=O)C(NC(=O)C(C)NC)C(C)(C)C)C(C(=O)NC2CCCc4ccccc42)C3)cc1[100NH:0][100C:0](=O)N1CCCC(n2nc(-c3ccc(Oc4ccc(F)cc4F)cc3)c(C(N)=O)c2N)C1

> <Shape>
0.237

> <Color>
0.188

> <Negative vol penalty>
0.000

$$$$

  -OEChem-04052301263D

 87 95  0     1  0  0  0  0  0999 V2000
  -27.4214  -35.3528   23.7243 C   0  0  0  0  0  0  0  0  0  0  0  0
  -27.7343  -34.0320   23.4193 C   0  0  0  0  0  0  0  0  0  0  0  0
  -24.6843   -8.7328   21.7836 C   0  0  0  0  0  0  0  0  0  0  0  0
  -23.0286  -10.0056   20.5689 C   0  0  0  0  0  0  0  0  0  0  0  0
  -26.1541  -35.6737   24.2089 C   0  0  0  0  0  0  0  0  0  0  0  0
  -26.7803  -33.0311   23.5999 C   0  0  0  0  0  0  0  0  0  0  0  0
  -26.5598  -29.8283   19.6835 C   0  0  0  0  0  0  0  0  0  0  0  0
  -23.6709   -8.1088   22.5111 C   0  0  0  0  0  0  0  0  0  0  0  0
  -22.0152   -9.3816   21.2964 C   0  0  0  0  0  0  0  0  0  0  0  0
  -27.5545  -28.8550   19.6001 C   0  0  0  0  0  0  0  0  0  0  0  0
  -21.4422   -5.6101   22.0395 C   0  0  0  0  0  0  0  0  0  0  0  0
  -21.5251   -4.2286   22.2128 C   0  0  0  0  0  0  0  0  0  0  0  0
  -26.0362  -27.2314   20.5370 C   0  0  0  0  0  0  0  0  0  0  0  0
  -21.5838   -4.5328   24.6089 C   0  0  0  0  0  0  0  0  0  0  0  0
  -24.3632   -9.6812   20.8125 C   0  0  0  0  0  0  0  0  0  0  0  0
  -25.9715   -9.8964   18.8441 C   0  0  0  0  0  0  0  0  0  0  0  0
  -25.1809  -34.6776   24.3863 C   0  0  0  0  0  0  0  0  0  0  0  0
  -25.2970  -29.5125   20.2053 C   0  0  0  0  0  0  0  0  0  0  0  0
  -25.4992  -33.3388   24.0886 C   0  0  0  0  0  0  0  0  0  0  0  0
  -25.0263  -28.2018   20.6236 C   0  0  0  0  0  0  0  0  0  0  0  0
  -22.3363   -8.4332   22.2675 C   0  0  0  0  0  0  0  0  0  0  0  0
  -27.2938  -27.5571   20.0295 C   0  0  0  0  0  0  0  0  0  0  0  0
  -21.4303   -6.4530   23.1508 C   0  0  0  0  0  0  0  0  0  0  0  0
  -21.5958   -3.6899   23.4975 C   0  0  0  0  0  0  0  0  0  0  0  0
  -21.5010   -5.9144   24.4355 C   0  0  0  0  0  0  0  0  0  0  0  0
  -25.4096  -10.3265   20.0611 C   0  0  0  0  0  0  0  0  0  0  0  0
  -26.9180  -10.8466   18.5480 C   0  0  0  0  0  0  0  0  0  0  0  0
  -28.3155  -21.1658   19.2291 C   0  0  0  0  0  0  0  0  0  0  0  0
  -28.3257  -20.0391   20.1392 C   0  0  0  0  0  0  0  0  0  0  0  0
  -28.0683  -18.8054   19.6703 C   0  0  0  0  0  0  0  0  0  0  0  0
  -28.0552  -21.0170   17.9204 C   0  0  0  0  0  0  0  0  0  0  0  0
  -27.7726  -18.6011   18.2100 C   0  0  0  0  0  0  0  0  0  0  0  0
  -25.6652   -8.7412   18.0520 C   0  0  0  0  0  0  0  0  0  0  0  0
  -23.5928  -30.4931   22.7028 C   0  0  0  0  0  0  0  0  0  0  0  0
  -21.3004  -28.6168   21.3811 C   0  0  0  0  0  0  0  0  0  0  0  0
  -28.6110  -24.4576   17.9488 C   0  0  0  0  0  0  0  0  0  0  0  0
  -20.5258  -25.9760   19.3629 C   0  0  0  0  0  0  0  0  0  0  0  0
  -27.2550  -16.5721   20.1772 C   0  0  0  0  0  0  0  0  0  0  0  0
  -23.8402  -35.0661   24.9575 C   0  0  0  0  0  0  0  0  0  0  0  0
  -24.2263  -30.5672   20.2637 C   0  0  0  0  0  0  0  0  0  0  0  0
  -23.6807  -27.8066   21.1726 C   0  0  0  0  0  0  0  0  0  0  0  0
  -22.7645  -34.0001   24.7659 C   0  0  0  0  0  0  0  0  0  0  0  0
  -29.8588  -13.9841   20.6027 C   0  0  0  0  0  0  0  0  0  0  0  0
  -23.3034  -32.6240   25.1436 C   0  0  0  0  0  0  0  0  0  0  0  0
  -29.0329  -12.7101   20.4520 C   0  0  0  0  0  0  0  0  0  0  0  0
  -29.0644  -15.1075   21.2677 C   0  0  0  0  0  0  0  0  0  0  0  0
  -26.9447  -14.1290   20.4356 C   0  0  0  0  0  0  0  0  0  0  0  0
  -24.4833  -32.2285   24.2475 C   0  0  1  0  0  0  0  0  0  0  0  0
  -23.1397  -30.2594   21.2894 C   0  0  1  0  0  0  0  0  0  0  0  0
  -27.7123  -13.0038   19.7245 C   0  0  2  0  0  0  0  0  0  0  0  0
  -28.6368  -20.3935   21.5675 C   0  0  0  0  0  0  0  0  0  0  0  0
  -18.5692  -24.6583   18.5070 C   0  0  0  0  0  0  0  0  0  0  0  0
  -21.0625  -27.2196   24.0832 C   0  0  0  0  0  0  0  0  0  0  0  0
  -19.8407  -25.3599   22.9356 C   0  0  0  0  0  0  0  0  0  0  0  0
  -18.8816  -27.6627   22.9423 C   0  0  0  0  0  0  0  0  0  0  0  0
  -27.5034  -19.6134   15.9721 C   0  0  0  0  0  0  0  0  0  0  0  0
  -30.3800  -22.7114   17.6448 C   0  0  0  0  0  0  0  0  0  0  0  0
  -21.1343  -26.6775   16.5528 C   0  0  0  0  0  0  0  0  0  0  0  0
  -28.0535  -22.1977   17.0171 C   0  0  0  0  0  0  0  0  0  0  0  0
  -29.7174  -25.3582   18.4883 C   0  0  0  0  0  0  0  0  0  0  0  0
  -29.2190  -26.7382   18.8986 C   0  0  0  0  0  0  0  0  0  1  0  0
  -20.9027  -27.1659   21.5068 C   0  0  1  0  0  0  0  0  0  0  0  0
  -19.5081  -25.8260   18.2466 C   0  0  2  0  0  0  0  0  0  0  0  0
  -20.1979  -26.8596   22.8585 C   0  0  0  0  0  0  0  0  0  0  0  0
  -25.9539  -11.4616   20.5076 N   0  0  0  0  0  0  0  0  0  0  0  0
  -26.8677  -11.7527   19.5662 N   0  0  0  0  0  0  0  0  0  0  0  0
  -27.7840  -19.7494   17.4010 N   0  0  0  0  0  0  0  0  0  0  0  0
  -22.6685  -28.8749   21.2154 N   0  0  0  0  0  0  0  0  0  0  0  0
  -27.7741  -15.3303   20.5953 N   0  0  0  0  0  0  0  0  0  0  0  0
  -27.7801  -10.9871   17.5188 N   0  0  0  0  0  0  0  0  0  0  0  0
  -24.6651   -7.8685   18.5021 N   0  0  0  0  0  0  0  0  0  0  0  0
  -28.0538  -17.6803   20.4458 N   0  0  0  0  0  0  0  0  0  0  0  0
  -24.0092  -31.7866   22.9535 N   0  0  0  0  0  0  0  0  0  0  0  0
  -20.0965  -26.8602   20.3299 N   0  0  0  0  0  0  0  0  0  0  0  0
  -29.0004  -23.1731   17.5528 N   0  0  0  0  0  0  0  0  0  0  0  0
  -20.1968  -25.5941   16.9455 N   0  3  0  0  0  0  0  0  0  0  0  0
  -27.5395  -17.4629   17.7991 O   0  0  0  0  0  0  0  0  0  0  0  0
  -26.2720   -8.4815   16.9853 O   0  0  0  0  0  0  0  0  0  0  0  0
  -23.5652  -29.5687   23.5068 O   0  0  0  0  0  0  0  0  0  0  0  0
  -20.4286  -29.4885   21.4211 O   0  0  0  0  0  0  0  0  0  0  0  0
  -27.4487  -24.8655   17.8781 O   0  0  0  0  0  0  0  0  0  0  0  0
  -21.5931  -25.3668   19.3775 O   0  0  0  0  0  0  0  0  0  0  0  0
  -26.1579  -16.6761   19.6165 O   0  0  0  0  0  0  0  0  0  0  0  0
  -21.3472   -7.8244   22.9770 O   0  0  0  0  0  0  0  0  0  0  0  0
  -28.2632  -26.6053   19.9499 O   0  0  0  0  0  0  0  0  0  1  0  0
  -21.6738   -2.3631   23.6639 F   0  0  0  0  0  0  0  0  0  0  0  0
  -21.4887   -6.7190   25.5070 F   0  0  0  0  0  0  0  0  0  0  0  0
  1  2  1  0  0  0  0
  1  5  2  0  0  0  0
  2  6  2  0  0  0  0
  3  8  2  0  0  0  0
  3 15  1  0  0  0  0
  4  9  1  0  0  0  0
  4 15  2  0  0  0  0
  5 17  1  0  0  0  0
  6 19  1  0  0  0  0
  7 10  2  0  0  0  0
  7 18  1  0  0  0  0
  8 21  1  0  0  0  0
  9 21  2  0  0  0  0
 10 22  1  0  0  0  0
 11 12  2  0  0  0  0
 11 23  1  0  0  0  0
 12 24  1  0  0  0  0
 13 20  1  0  0  0  0
 13 22  2  0  0  0  0
 14 24  2  0  0  0  0
 14 25  1  0  0  0  0
 15 26  1  0  0  0  0
 16 26  1  0  0  0  0
 16 27  2  0  0  0  0
 16 33  1  0  0  0  0
 17 19  2  0  0  0  0
 17 39  1  0  0  0  0
 18 20  2  0  0  0  0
 18 40  1  0  0  0  0
 19 48  1  0  0  0  0
 20 41  1  0  0  0  0
 21 84  1  0  0  0  0
 22 85  1  0  0  0  0
 23 25  2  0  0  0  0
 23 84  1  0  0  0  0
 24 86  1  0  0  0  0
 25 87  1  0  0  0  0
 26 65  2  0  0  0  0
 27 66  1  0  0  0  0
 27 70  1  0  0  0  0
 28 29  1  0  0  0  0
 28 31  2  0  0  0  0
 29 30  2  0  0  0  0
 29 51  1  0  0  0  0
 30 32  1  0  0  0  0
 30 72  1  0  0  0  0
 31 59  1  0  0  0  0
 31 67  1  0  0  0  0
 32 67  1  0  0  0  0
 32 77  2  0  0  0  0
 33 71  1  0  0  0  0
 33 78  2  0  0  0  0
 34 49  1  0  0  0  0
 34 73  1  0  0  0  0
 34 79  2  0  0  0  0
 35 62  1  0  0  0  0
 35 68  1  0  0  0  0
 35 80  2  0  0  0  0
 36 60  1  0  0  0  0
 36 75  1  0  0  0  0
 36 81  2  0  0  0  0
 37 63  1  0  0  0  0
 37 74  1  0  0  0  0
 37 82  2  0  0  0  0
 38 69  1  0  0  0  0
 38 72  1  0  0  0  0
 38 83  2  0  0  0  0
 39 42  1  0  0  0  0
 40 49  1  0  0  0  0
 41 68  1  0  0  0  0
 42 44  1  0  0  0  0
 43 45  1  0  0  0  0
 43 46  1  0  0  0  0
 44 48  1  0  0  0  0
 45 50  1  0  0  0  0
 46 69  1  0  0  0  0
 47 50  1  0  0  0  0
 47 69  1  0  0  0  0
 48 73  1  0  0  0  0
 49 68  1  0  0  0  0
 50 66  1  0  0  0  0
 52 63  1  0  0  0  0
 53 64  1  0  0  0  0
 54 64  1  0  0  0  0
 55 64  1  0  0  0  0
 56 67  1  0  0  0  0
 57 75  1  0  0  0  0
 58 76  1  0  0  0  0
 59 75  1  0  0  0  0
 60 61  1  0  0  0  0
 61 85  1  0  0  0  0
 62 64  1  0  0  0  0
 62 74  1  0  0  0  0
 63 76  1  0  0  0  0
 65 66  1  0  0  0  0
M  CHG  1  76   1
M  ISO  4  38 100  61 101  72 100  85 101
M  END
> <Batch ID>
0110

> <Smiles>
CNC(C)C(=O)NC(C(=O)N1Cc2cc([101O:1][101CH2:1]CC(=O)N(C)Cc3cc(C)c([100NH:0][100C:0](=O)N4CCCC(n5nc(-c6ccc(Oc7ccc(F)cc7F)cc6)c(C(N)=O)c5N)C4)c(=O)n3C)ccc2CC1C(=O)NC1CCCc2ccccc21)C(C)(C)C

> <Shape>
0.360

> <Color>
0.107

> <Negative vol penalty>
0.000

$$$$

  -OEChem-04052301263D

 84 92  0     1  0  0  0  0  0999 V2000
  -23.4926  -21.7495   16.0340 C   0  0  0  0  0  0  0  0  0  0  0  0
  -24.6062  -20.9158   16.0229 C   0  0  0  0  0  0  0  0  0  0  0  0
  -32.4944  -18.0280   16.8474 C   0  0  0  0  0  0  0  0  0  0  0  0
  -24.7260  -28.9250   21.6924 C   0  0  0  0  0  0  0  0  0  0  0  0
  -25.3817  -30.2102   19.7545 C   0  0  0  0  0  0  0  0  0  0  0  0
  -31.4661  -18.9335   17.1089 C   0  0  0  0  0  0  0  0  0  0  0  0
  -22.6298  -21.7438   17.1292 C   0  0  0  0  0  0  0  0  0  0  0  0
  -24.8583  -20.0766   17.1077 C   0  0  0  0  0  0  0  0  0  0  0  0
  -27.3231  -14.4731   16.9323 C   0  0  0  0  0  0  0  0  0  0  0  0
  -32.7202  -16.9595   17.7152 C   0  0  0  0  0  0  0  0  0  0  0  0
  -24.5054  -30.1060   22.4010 C   0  0  0  0  0  0  0  0  0  0  0  0
  -25.1611  -31.3912   20.4631 C   0  0  0  0  0  0  0  0  0  0  0  0
  -28.6192  -14.0110   17.1567 C   0  0  0  0  0  0  0  0  0  0  0  0
  -26.3605  -32.4274   24.0115 C   0  0  0  0  0  0  0  0  0  0  0  0
  -26.8514  -32.5015   25.3150 C   0  0  0  0  0  0  0  0  0  0  0  0
  -28.0298  -13.4825   19.4354 C   0  0  0  0  0  0  0  0  0  0  0  0
  -24.6079  -32.8532   26.1398 C   0  0  0  0  0  0  0  0  0  0  0  0
  -25.1642  -28.9771   20.3691 C   0  0  0  0  0  0  0  0  0  0  0  0
  -30.6637  -18.7706   18.2381 C   0  0  0  0  0  0  0  0  0  0  0  0
  -24.4624  -27.0498   18.8524 C   0  0  0  0  0  0  0  0  0  0  0  0
  -22.8662  -20.8971   18.2237 C   0  0  0  0  0  0  0  0  0  0  0  0
  -26.3721  -14.4534   17.9626 C   0  0  0  0  0  0  0  0  0  0  0  0
  -23.9987  -20.0606   18.2191 C   0  0  0  0  0  0  0  0  0  0  0  0
  -26.7216  -13.9424   19.2207 C   0  0  0  0  0  0  0  0  0  0  0  0
  -24.7229  -31.3391   21.7864 C   0  0  0  0  0  0  0  0  0  0  0  0
  -28.9736  -13.5183   18.4092 C   0  0  0  0  0  0  0  0  0  0  0  0
  -31.9178  -16.7966   18.8445 C   0  0  0  0  0  0  0  0  0  0  0  0
  -24.9934  -32.5663   23.7721 C   0  0  0  0  0  0  0  0  0  0  0  0
  -30.8895  -17.7021   19.1060 C   0  0  0  0  0  0  0  0  0  0  0  0
  -25.9751  -32.7144   26.3792 C   0  0  0  0  0  0  0  0  0  0  0  0
  -24.1171  -32.7792   24.8362 C   0  0  0  0  0  0  0  0  0  0  0  0
  -25.3928  -27.7575   19.6368 C   0  0  0  0  0  0  0  0  0  0  0  0
  -25.1660  -25.9715   18.3743 C   0  0  0  0  0  0  0  0  0  0  0  0
  -29.5970  -19.7310   18.4875 C   0  0  0  0  0  0  0  0  0  0  0  0
  -29.7258  -20.8770   19.1869 C   0  0  0  0  0  0  0  0  0  0  0  0
  -23.0852  -27.3411   18.5801 C   0  0  0  0  0  0  0  0  0  0  0  0
  -28.5486  -21.7545   19.3445 C   0  0  0  0  0  0  0  0  0  0  0  0
  -24.6887  -16.6656   19.5040 C   0  0  0  0  0  0  0  0  0  0  0  0
  -23.2681  -14.0830   20.8584 C   0  0  0  0  0  0  0  0  0  0  0  0
  -23.4627  -10.7843   21.7115 C   0  0  0  0  0  0  0  0  0  0  0  0
  -21.9314  -20.9604   19.4056 C   0  0  0  0  0  0  0  0  0  0  0  0
  -24.9706  -14.9306   17.6967 C   0  0  0  0  0  0  0  0  0  0  0  0
  -25.7319  -13.8808   20.3544 C   0  0  0  0  0  0  0  0  0  0  0  0
  -22.0637  -19.7693   20.3512 C   0  0  0  0  0  0  0  0  0  0  0  0
  -30.1038  -24.9500   18.4490 C   0  0  0  0  0  0  0  0  0  0  0  0
  -23.5324  -19.4831   20.6471 C   0  0  0  0  0  0  0  0  0  0  0  0
  -28.9397  -25.9135   18.6637 C   0  0  0  0  0  0  0  0  0  0  0  0
  -30.0806  -23.7937   19.4476 C   0  0  0  0  0  0  0  0  0  0  0  0
  -27.6236  -24.0135   19.6825 C   0  0  0  0  0  0  0  0  0  0  0  0
  -24.2923  -19.1181   19.3661 C   0  0  1  0  0  0  0  0  0  0  0  0
  -24.2285  -15.3408   18.9649 C   0  0  1  0  0  0  0  0  0  0  0  0
  -27.6007  -25.1591   18.6586 C   0  0  1  0  0  0  0  0  0  0  0  0
  -22.1599   -8.9620   22.8425 C   0  0  0  0  0  0  0  0  0  0  0  0
  -23.9252  -15.3035   23.5766 C   0  0  0  0  0  0  0  0  0  0  0  0
  -23.4813  -13.0669   24.6103 C   0  0  0  0  0  0  0  0  0  0  0  0
  -21.6521  -14.2730   23.4179 C   0  0  0  0  0  0  0  0  0  0  0  0
  -23.4199   -9.1321   19.2565 C   0  0  0  0  0  0  0  0  0  0  0  0
  -30.5485  -18.1667   21.4133 C   0  0  0  0  0  0  0  0  0  0  0  0
  -32.2629  -13.3469   19.9132 C   0  0  0  0  0  0  0  0  0  0  0  0
  -30.7504  -13.1962   19.9567 C   0  0  0  0  0  0  0  0  0  1  0  0
  -32.6905  -14.5627   19.1060 C   0  0  0  0  0  0  0  0  0  0  0  0
  -23.5308  -13.2366   22.0805 C   0  0  1  0  0  0  0  0  0  0  0  0
  -22.4896   -9.6351   21.5193 C   0  0  2  0  0  0  0  0  0  0  0  0
  -23.1668  -13.9728   23.4007 C   0  0  0  0  0  0  0  0  0  0  0  0
  -26.5958  -27.1774   19.6586 N   0  0  0  0  0  0  0  0  0  0  0  0
  -26.4260  -26.0938   18.8819 N   0  0  0  0  0  0  0  0  0  0  0  0
  -28.7710  -23.1250   19.4664 N   0  0  0  0  0  0  0  0  0  0  0  0
  -24.3760  -14.3650   20.0468 N   0  0  0  0  0  0  0  0  0  0  0  0
  -24.8237  -24.9400   17.5735 N   0  0  0  0  0  0  0  0  0  0  0  0
  -22.5196  -28.4894   19.1512 N   0  0  0  0  0  0  0  0  0  0  0  0
  -24.0104  -17.7511   18.9835 N   0  0  0  0  0  0  0  0  0  0  0  0
  -22.8074  -11.9865   21.8745 N   0  0  0  0  0  0  0  0  0  0  0  0
  -23.0701   -8.6126   20.6036 N   0  3  0  0  0  0  0  0  0  0  0  0
  -22.3726  -26.5963   17.8654 O   0  0  0  0  0  0  0  0  0  0  0  0
  -27.4388  -21.2191   19.3635 O   0  0  0  0  0  0  0  0  0  0  0  0
  -25.5913  -16.7003   20.3321 O   0  0  0  0  0  0  0  0  0  0  0  0
  -22.1208  -14.4734   20.6284 O   0  0  0  0  0  0  0  0  0  0  0  0
  -24.6820  -10.6304   21.7201 O   0  0  0  0  0  0  0  0  0  0  0  0
  -24.5075  -32.4918   22.4775 O   0  0  0  0  0  0  0  0  0  0  0  0
  -30.1125  -17.5306   20.2149 O   0  0  0  0  0  0  0  0  0  0  0  0
  -30.2382  -13.0673   18.6311 O   0  0  0  0  0  0  0  0  0  1  0  0
  -32.1517  -15.7420   19.6881 O   0  0  0  0  0  0  0  0  0  0  0  0
  -26.4463  -32.7840   27.6311 F   0  0  0  0  0  0  0  0  0  0  0  0
  -22.8025  -32.9122   24.6126 F   0  0  0  0  0  0  0  0  0  0  0  0
  1  2  1  0  0  0  0
  1  7  2  0  0  0  0
  2  8  2  0  0  0  0
  3  6  1  0  0  0  0
  3 10  2  0  0  0  0
  4 11  2  0  0  0  0
  4 18  1  0  0  0  0
  5 12  1  0  0  0  0
  5 18  2  0  0  0  0
  6 19  2  0  0  0  0
  7 21  1  0  0  0  0
  8 23  1  0  0  0  0
  9 13  2  0  0  0  0
  9 22  1  0  0  0  0
 10 27  1  0  0  0  0
 11 25  1  0  0  0  0
 12 25  2  0  0  0  0
 13 26  1  0  0  0  0
 14 15  2  0  0  0  0
 14 28  1  0  0  0  0
 15 30  1  0  0  0  0
 16 24  1  0  0  0  0
 16 26  2  0  0  0  0
 17 30  2  0  0  0  0
 17 31  1  0  0  0  0
 18 32  1  0  0  0  0
 19 29  1  0  0  0  0
 19 34  1  0  0  0  0
 20 32  1  0  0  0  0
 20 33  2  0  0  0  0
 20 36  1  0  0  0  0
 21 23  2  0  0  0  0
 21 41  1  0  0  0  0
 22 24  2  0  0  0  0
 22 42  1  0  0  0  0
 23 50  1  0  0  0  0
 24 43  1  0  0  0  0
 25 79  1  0  0  0  0
 26 81  1  0  0  0  0
 27 29  2  0  0  0  0
 27 82  1  0  0  0  0
 28 31  2  0  0  0  0
 28 79  1  0  0  0  0
 29 80  1  0  0  0  0
 30 83  1  0  0  0  0
 31 84  1  0  0  0  0
 32 65  2  0  0  0  0
 33 66  1  0  0  0  0
 33 69  1  0  0  0  0
 34 35  2  0  0  0  0
 35 37  1  0  0  0  0
 36 70  1  0  0  0  0
 36 74  2  0  0  0  0
 37 67  1  0  0  0  0
 37 75  2  0  0  0  0
 38 51  1  0  0  0  0
 38 71  1  0  0  0  0
 38 76  2  0  0  0  0
 39 62  1  0  0  0  0
 39 68  1  0  0  0  0
 39 77  2  0  0  0  0
 40 63  1  0  0  0  0
 40 72  1  0  0  0  0
 40 78  2  0  0  0  0
 41 44  1  0  0  0  0
 42 51  1  0  0  0  0
 43 68  1  0  0  0  0
 44 46  1  0  0  0  0
 45 47  1  0  0  0  0
 45 48  1  0  0  0  0
 46 50  1  0  0  0  0
 47 52  1  0  0  0  0
 48 67  1  0  0  0  0
 49 52  1  0  0  0  0
 49 67  1  0  0  0  0
 50 71  1  0  0  0  0
 51 68  1  0  0  0  0
 52 66  1  0  0  0  0
 53 63  1  0  0  0  0
 54 64  1  0  0  0  0
 55 64  1  0  0  0  0
 56 64  1  0  0  0  0
 57 73  1  0  0  0  0
 58 80  1  0  0  0  0
 59 60  1  0  0  0  0
 59 61  1  0  0  0  0
 60 81  1  0  0  0  0
 61 82  1  0  0  0  0
 62 64  1  0  0  0  0
 62 72  1  0  0  0  0
 63 73  1  0  0  0  0
 65 66  1  0  0  0  0
M  CHG  1  73   1
M  ISO  4  35 100  37 100  60 101  81 101
M  END
> <Batch ID>
0110

> <Smiles>
CNC(C)C(=O)NC(C(=O)N1Cc2cc([101O:1][101CH2:1]CCOc3cccc(C=[100CH:0][100C:0](=O)N4CCCC(n5nc(-c6ccc(Oc7ccc(F)cc7F)cc6)c(C(N)=O)c5N)C4)c3OC)ccc2CC1C(=O)NC1CCCc2ccccc21)C(C)(C)C

> <Shape>
0.265

> <Color>
0.069

> <Negative vol penalty>
0.000

$$$$

  -OEChem-04052301263D

 88 96  0     1  0  0  0  0  0999 V2000
  -19.3805  -32.3853   23.3488 C   0  0  0  0  0  0  0  0  0  0  0  0
  -20.0429  -31.5496   22.4554 C   0  0  0  0  0  0  0  0  0  0  0  0
  -23.0602   -9.8815   19.9530 C   0  0  0  0  0  0  0  0  0  0  0  0
  -23.8645   -9.8772   22.2312 C   0  0  0  0  0  0  0  0  0  0  0  0
  -19.4779  -32.1548   24.7204 C   0  0  0  0  0  0  0  0  0  0  0  0
  -20.8041  -30.4834   22.9332 C   0  0  0  0  0  0  0  0  0  0  0  0
  -21.5320  -25.0053   20.2939 C   0  0  0  0  0  0  0  0  0  0  0  0
  -22.3204   -8.7277   20.2120 C   0  0  0  0  0  0  0  0  0  0  0  0
  -23.1247   -8.7234   22.4902 C   0  0  0  0  0  0  0  0  0  0  0  0
  -22.5468  -24.4748   19.4985 C   0  0  0  0  0  0  0  0  0  0  0  0
  -19.9082   -7.9250   23.1516 C   0  0  0  0  0  0  0  0  0  0  0  0
  -19.1741   -7.8801   24.3367 C   0  0  0  0  0  0  0  0  0  0  0  0
  -29.7744  -17.3420   19.9525 C   0  0  0  0  0  0  0  0  0  0  0  0
  -23.5400  -23.4637   21.4505 C   0  0  0  0  0  0  0  0  0  0  0  0
  -20.4280   -5.9383   25.0399 C   0  0  0  0  0  0  0  0  0  0  0  0
  -23.8323  -10.4562   20.9626 C   0  0  0  0  0  0  0  0  0  0  0  0
  -29.4207  -16.7665   21.1729 C   0  0  0  0  0  0  0  0  0  0  0  0
  -27.6803  -18.4195   21.4479 C   0  0  0  0  0  0  0  0  0  0  0  0
  -24.1737  -12.9816   20.8478 C   0  0  0  0  0  0  0  0  0  0  0  0
  -20.2328  -31.0795   25.2148 C   0  0  0  0  0  0  0  0  0  0  0  0
  -21.5197  -24.7777   21.6775 C   0  0  0  0  0  0  0  0  0  0  0  0
  -20.9128  -30.2391   24.3128 C   0  0  0  0  0  0  0  0  0  0  0  0
  -22.5226  -23.9904   22.2609 C   0  0  0  0  0  0  0  0  0  0  0  0
  -28.3736  -17.3052   21.9205 C   0  0  0  0  0  0  0  0  0  0  0  0
  -22.3526   -8.1486   21.4806 C   0  0  0  0  0  0  0  0  0  0  0  0
  -23.5526  -23.7063   20.0772 C   0  0  0  0  0  0  0  0  0  0  0  0
  -20.9022   -6.9765   22.9105 C   0  0  0  0  0  0  0  0  0  0  0  0
  -29.0811  -18.4563   19.4799 C   0  0  0  0  0  0  0  0  0  0  0  0
  -28.0340  -18.9950   20.2275 C   0  0  0  0  0  0  0  0  0  0  0  0
  -19.4340   -6.8868   25.2809 C   0  0  0  0  0  0  0  0  0  0  0  0
  -21.1621   -5.9832   23.8546 C   0  0  0  0  0  0  0  0  0  0  0  0
  -24.5972  -11.6477   20.6956 C   0  0  0  0  0  0  0  0  0  0  0  0
  -25.2592  -13.7321   20.4669 C   0  0  0  0  0  0  0  0  0  0  0  0
  -26.5816  -18.9936   22.2211 C   0  0  0  0  0  0  0  0  0  0  0  0
  -26.7009  -19.9456   23.1689 C   0  0  0  0  0  0  0  0  0  0  0  0
  -30.1673  -15.6030   21.6355 C   0  0  0  0  0  0  0  0  0  0  0  0
  -22.9120  -13.4964   21.2937 C   0  0  0  0  0  0  0  0  0  0  0  0
  -30.7734  -14.6486   20.6788 C   0  0  0  0  0  0  0  0  0  0  0  0
  -21.6920  -26.6277   24.2566 C   0  0  0  0  0  0  0  0  0  0  0  0
  -21.1176  -23.8413   25.8150 C   0  0  0  0  0  0  0  0  0  0  0  0
  -21.2657  -20.4318   25.8041 C   0  0  0  0  0  0  0  0  0  0  0  0
  -20.3470  -30.8985   26.7078 C   0  0  0  0  0  0  0  0  0  0  0  0
  -20.4034  -25.3348   22.5177 C   0  0  0  0  0  0  0  0  0  0  0  0
  -22.5437  -23.6998   23.7386 C   0  0  0  0  0  0  0  0  0  0  0  0
  -20.8688  -29.5234   27.1165 C   0  0  0  0  0  0  0  0  0  0  0  0
  -29.5528  -12.4005   18.1662 C   0  0  0  0  0  0  0  0  0  0  0  0
  -22.0866  -29.1442   26.2798 C   0  0  0  0  0  0  0  0  0  0  0  0
  -28.1331  -12.0840   18.6353 C   0  0  0  0  0  0  0  0  0  0  0  0
  -30.5001  -12.5951   19.3457 C   0  0  0  0  0  0  0  0  0  0  0  0
  -28.6220  -13.3219   20.7926 C   0  0  0  0  0  0  0  0  0  0  0  0
  -21.7280  -29.0574   24.7914 C   0  0  1  0  0  0  0  0  0  0  0  0
  -20.7740  -25.4680   23.9915 C   0  0  1  0  0  0  0  0  0  0  0  0
  -27.6304  -13.1460   19.6294 C   0  0  2  0  0  0  0  0  0  0  0  0
  -25.5479  -20.4977   23.9425 C   0  0  0  0  0  0  0  0  0  0  0  0
  -20.7580  -18.4334   27.2345 C   0  0  0  0  0  0  0  0  0  0  0  0
  -23.6076  -24.4073   27.4853 C   0  0  0  0  0  0  0  0  0  0  0  0
  -23.5907  -22.0071   28.1971 C   0  0  0  0  0  0  0  0  0  0  0  0
  -21.6714  -23.4915   28.7763 C   0  0  0  0  0  0  0  0  0  0  0  0
  -19.3246  -19.3720   23.8374 C   0  0  0  0  0  0  0  0  0  0  0  0
  -30.4274  -20.0344   18.3166 C   0  0  0  0  0  0  0  0  0  0  0  0
  -25.5849  -21.1554   18.5230 C   0  0  0  0  0  0  0  0  0  0  0  0
  -25.1259  -21.9568   19.7310 C   0  0  0  0  0  0  0  0  0  1  0  0
  -26.2318  -19.8394   18.9257 C   0  0  0  0  0  0  0  0  0  0  0  0
  -21.9765  -22.7371   26.3826 C   0  0  1  0  0  0  0  0  0  0  0  0
  -20.2342  -19.3776   26.1636 C   0  0  2  0  0  0  0  0  0  0  0  0
  -22.7125  -23.1677   27.6828 C   0  0  0  0  0  0  0  0  0  0  0  0
  -25.8536  -11.5530   20.2524 N   0  0  0  0  0  0  0  0  0  0  0  0
  -30.3510  -15.3288   22.8968 N   0  0  0  0  0  0  0  0  0  0  0  0
  -26.2289  -12.8369   20.1228 N   0  0  0  0  0  0  0  0  0  0  0  0
  -29.9759  -13.5824   20.2874 N   0  0  0  0  0  0  0  0  0  0  0  0
  -21.4339  -24.2719   24.5187 N   0  0  0  0  0  0  0  0  0  0  0  0
  -28.0216  -16.7140   23.1586 N   0  0  0  0  0  0  0  0  0  0  0  0
  -25.4692  -15.0637   20.3960 N   0  0  0  0  0  0  0  0  0  0  0  0
  -21.9061  -12.5863   21.6463 N   0  0  0  0  0  0  0  0  0  0  0  0
  -21.0366  -27.8176   24.5096 N   0  0  0  0  0  0  0  0  0  0  0  0
  -21.1006  -21.5820   26.5464 N   0  0  0  0  0  0  0  0  0  0  0  0
  -19.8758  -18.5726   24.9618 N   0  3  0  0  0  0  0  0  0  0  0  0
  -22.6779  -14.7269   21.3614 O   0  0  0  0  0  0  0  0  0  0  0  0
  -31.9198  -14.9039   20.3341 O   0  0  0  0  0  0  0  0  0  0  0  0
  -22.9050  -26.4553   24.2348 O   0  0  0  0  0  0  0  0  0  0  0  0
  -20.1955  -24.2998   26.4940 O   0  0  0  0  0  0  0  0  0  0  0  0
  -22.1336  -20.2515   24.9527 O   0  0  0  0  0  0  0  0  0  0  0  0
  -21.6307   -7.0229   21.7337 O   0  0  0  0  0  0  0  0  0  0  0  0
  -29.4377  -19.0080   18.2862 O   0  0  0  0  0  0  0  0  0  0  0  0
  -24.5445  -23.1878   19.3032 O   0  0  0  0  0  0  0  0  0  1  0  0
  -27.3640  -20.0901   19.7474 O   0  0  0  0  0  0  0  0  0  0  0  0
  -18.7300   -6.8447   26.4197 F   0  0  0  0  0  0  0  0  0  0  0  0
  -22.1166   -5.0700   23.6292 F   0  0  0  0  0  0  0  0  0  0  0  0
  1  2  1  0  0  0  0
  1  5  2  0  0  0  0
  2  6  2  0  0  0  0
  3  8  2  0  0  0  0
  3 16  1  0  0  0  0
  4  9  1  0  0  0  0
  4 16  2  0  0  0  0
  5 20  1  0  0  0  0
  6 22  1  0  0  0  0
  7 10  2  0  0  0  0
  7 21  1  0  0  0  0
  8 25  1  0  0  0  0
  9 25  2  0  0  0  0
 10 26  1  0  0  0  0
 11 12  2  0  0  0  0
 11 27  1  0  0  0  0
 12 30  1  0  0  0  0
 13 17  1  0  0  0  0
 13 28  2  0  0  0  0
 14 23  1  0  0  0  0
 14 26  2  0  0  0  0
 15 30  2  0  0  0  0
 15 31  1  0  0  0  0
 16 32  1  0  0  0  0
 17 24  2  0  0  0  0
 17 36  1  0  0  0  0
 18 24  1  0  0  0  0
 18 29  2  0  0  0  0
 18 34  1  0  0  0  0
 19 32  1  0  0  0  0
 19 33  2  0  0  0  0
 19 37  1  0  0  0  0
 20 22  2  0  0  0  0
 20 42  1  0  0  0  0
 21 23  2  0  0  0  0
 21 43  1  0  0  0  0
 22 51  1  0  0  0  0
 23 44  1  0  0  0  0
 24 72  1  0  0  0  0
 25 83  1  0  0  0  0
 26 85  1  0  0  0  0
 27 31  2  0  0  0  0
 27 83  1  0  0  0  0
 28 29  1  0  0  0  0
 28 84  1  0  0  0  0
 29 86  1  0  0  0  0
 30 87  1  0  0  0  0
 31 88  1  0  0  0  0
 32 67  2  0  0  0  0
 33 69  1  0  0  0  0
 33 73  1  0  0  0  0
 34 35  2  0  0  0  0
 35 54  1  0  0  0  0
 36 38  1  0  0  0  0
 36 68  2  0  0  0  0
 37 74  1  0  0  0  0
 37 78  2  0  0  0  0
 38 70  1  0  0  0  0
 38 79  2  0  0  0  0
 39 52  1  0  0  0  0
 39 75  1  0  0  0  0
 39 80  2  0  0  0  0
 40 64  1  0  0  0  0
 40 71  1  0  0  0  0
 40 81  2  0  0  0  0
 41 65  1  0  0  0  0
 41 76  1  0  0  0  0
 41 82  2  0  0  0  0
 42 45  1  0  0  0  0
 43 52  1  0  0  0  0
 44 71  1  0  0  0  0
 45 47  1  0  0  0  0
 46 48  1  0  0  0  0
 46 49  1  0  0  0  0
 47 51  1  0  0  0  0
 48 53  1  0  0  0  0
 49 70  1  0  0  0  0
 50 53  1  0  0  0  0
 50 70  1  0  0  0  0
 51 75  1  0  0  0  0
 52 71  1  0  0  0  0
 53 69  1  0  0  0  0
 55 65  1  0  0  0  0
 56 66  1  0  0  0  0
 57 66  1  0  0  0  0
 58 66  1  0  0  0  0
 59 77  1  0  0  0  0
 60 84  1  0  0  0  0
 61 62  1  0  0  0  0
 61 63  1  0  0  0  0
 62 85  1  0  0  0  0
 63 86  1  0  0  0  0
 64 66  1  0  0  0  0
 64 76  1  0  0  0  0
 65 77  1  0  0  0  0
 67 69  1  0  0  0  0
M  CHG  1  77   1
M  ISO  4  36 100  38 100  62 101  85 101
M  END
> <Batch ID>
0110

> <Smiles>
CC=Cc1c(N)c([100C:0](=N)[100C:0](=O)N2CCCC(n3nc(-c4ccc(Oc5ccc(F)cc5F)cc4)c(C(N)=O)c3N)C2)cc(OC)c1OCC[101CH2:1][101O:1]c1ccc2c(c1)CN(C(=O)C(NC(=O)C(C)NC)C(C)(C)C)C(C(=O)NC1CCCc3ccccc31)C2

> <Shape>
0.234

> <Color>
0.175

> <Negative vol penalty>
0.000

$$$$

  -OEChem-04052301263D

 89 98  0     1  0  0  0  0  0999 V2000
  -16.0091  -19.7521   23.3764 C   0  0  0  0  0  0  0  0  0  0  0  0
  -17.2781  -20.3102   23.4928 C   0  0  0  0  0  0  0  0  0  0  0  0
  -26.8391  -29.8462   20.3557 C   0  0  0  0  0  0  0  0  0  0  0  0
  -25.6979  -27.7274   20.5695 C   0  0  0  0  0  0  0  0  0  0  0  0
  -15.8431  -18.3721   23.4851 C   0  0  0  0  0  0  0  0  0  0  0  0
  -18.3818  -19.4886   23.7191 C   0  0  0  0  0  0  0  0  0  0  0  0
  -24.0684  -20.2941   21.5932 C   0  0  0  0  0  0  0  0  0  0  0  0
  -25.6174  -30.4819   20.1346 C   0  0  0  0  0  0  0  0  0  0  0  0
  -24.4761  -28.3632   20.3485 C   0  0  0  0  0  0  0  0  0  0  0  0
  -25.2182  -20.8316   22.1703 C   0  0  0  0  0  0  0  0  0  0  0  0
  -22.2853  -30.2302   22.1191 C   0  0  0  0  0  0  0  0  0  0  0  0
  -21.2203  -29.8924   22.9540 C   0  0  0  0  0  0  0  0  0  0  0  0
  -25.9501  -18.6113   22.7652 C   0  0  0  0  0  0  0  0  0  0  0  0
  -28.9908  -17.7848   20.4228 C   0  0  0  0  0  0  0  0  0  0  0  0
  -29.8103  -19.1368   22.2496 C   0  0  0  0  0  0  0  0  0  0  0  0
  -19.9546  -29.1446   21.0367 C   0  0  0  0  0  0  0  0  0  0  0  0
  -26.8793  -28.4689   20.5731 C   0  0  0  0  0  0  0  0  0  0  0  0
  -29.0553  -28.0636   21.8414 C   0  0  0  0  0  0  0  0  0  0  0  0
  -16.9466  -17.5322   23.7032 C   0  0  0  0  0  0  0  0  0  0  0  0
  -23.8453  -18.9098   21.6075 C   0  0  0  0  0  0  0  0  0  0  0  0
  -18.2302  -18.0962   23.8321 C   0  0  0  0  0  0  0  0  0  0  0  0
  -24.7980  -18.0586   22.1854 C   0  0  0  0  0  0  0  0  0  0  0  0
  -28.9438  -18.9153   19.6072 C   0  0  0  0  0  0  0  0  0  0  0  0
  -29.7634  -20.2674   21.4340 C   0  0  0  0  0  0  0  0  0  0  0  0
  -29.4240  -17.8956   21.7441 C   0  0  0  0  0  0  0  0  0  0  0  0
  -29.3301  -20.1566   20.1127 C   0  0  0  0  0  0  0  0  0  0  0  0
  -24.4359  -29.7405   20.1310 C   0  0  0  0  0  0  0  0  0  0  0  0
  -26.1579  -19.9904   22.7589 C   0  0  0  0  0  0  0  0  0  0  0  0
  -22.1850  -30.0253   20.7430 C   0  0  0  0  0  0  0  0  0  0  0  0
  -20.0549  -29.3495   22.4128 C   0  0  0  0  0  0  0  0  0  0  0  0
  -21.0197  -29.4825   20.2018 C   0  0  0  0  0  0  0  0  0  0  0  0
  -28.1411  -27.8115   20.8010 C   0  0  0  0  0  0  0  0  0  0  0  0
  -30.0849  -27.1834   21.6145 C   0  0  0  0  0  0  0  0  0  0  0  0
  -30.8376  -21.3281   24.4211 C   0  0  0  0  0  0  0  0  0  0  0  0
  -28.0311  -22.8518   17.9094 C   0  0  0  0  0  0  0  0  0  0  0  0
  -28.0990  -21.7727   18.6923 C   0  0  0  0  0  0  0  0  0  0  0  0
  -28.9805  -29.0089   22.9168 C   0  0  0  0  0  0  0  0  0  0  0  0
  -21.6231  -17.0086   22.8530 C   0  0  0  0  0  0  0  0  0  0  0  0
  -23.2214  -14.7133   21.2100 C   0  0  0  0  0  0  0  0  0  0  0  0
  -26.1382  -13.6801   19.7708 C   0  0  0  0  0  0  0  0  0  0  0  0
  -30.4980  -21.9525   18.8867 C   0  0  0  0  0  0  0  0  0  0  0  0
  -16.7114  -16.0508   23.8609 C   0  0  0  0  0  0  0  0  0  0  0  0
  -22.6129  -18.3436   20.9571 C   0  0  0  0  0  0  0  0  0  0  0  0
  -24.6154  -16.5638   22.2090 C   0  0  0  0  0  0  0  0  0  0  0  0
  -30.2350  -21.7251   25.7464 C   0  0  0  0  0  0  0  0  0  0  0  0
  -17.9817  -15.2148   23.7272 C   0  0  0  0  0  0  0  0  0  0  0  0
  -28.7528  -21.8853   25.4316 C   0  0  0  0  0  0  0  0  0  0  0  0
  -32.3091  -24.8324   18.1027 C   0  0  0  0  0  0  0  0  0  0  0  0
  -19.1119  -15.8259   24.5493 C   0  0  0  0  0  0  0  0  0  0  0  0
  -31.5375  -25.9541   18.7973 C   0  0  0  0  0  0  0  0  0  0  0  0
  -31.3571  -23.8133   17.4872 C   0  0  0  0  0  0  0  0  0  0  0  0
  -29.6162  -24.3296   19.1684 C   0  0  0  0  0  0  0  0  0  0  0  0
  -19.4553  -17.2356   24.0530 C   0  0  1  0  0  0  0  0  0  0  0  0
  -22.2407  -16.9611   21.4841 C   0  0  1  0  0  0  0  0  0  0  0  0
  -30.5342  -25.3855   19.8163 C   0  0  2  0  0  0  0  0  0  0  0  0
  -28.7315  -22.3133   23.9685 C   0  0  2  0  0  0  0  0  0  0  0  0
  -28.4746  -18.7647   18.1962 C   0  0  0  0  0  0  0  0  0  0  0  0
  -27.1478  -11.7419   18.5373 C   0  0  0  0  0  0  0  0  0  0  0  0
  -23.4182  -13.1544   23.8256 C   0  0  0  0  0  0  0  0  0  0  0  0
  -25.2034  -11.7496   22.7730 C   0  0  0  0  0  0  0  0  0  0  0  0
  -22.8998  -11.7590   21.8160 C   0  0  0  0  0  0  0  0  0  0  0  0
  -26.6965  -15.3397   17.3848 C   0  0  0  0  0  0  0  0  0  0  0  0
  -30.1846  -21.5898   22.0067 C   0  0  0  0  0  0  0  0  0  0  0  0
  -27.4319  -21.9307   23.2769 C   0  0  0  0  0  0  0  0  0  1  0  0
  -24.3759  -13.7892   21.5134 C   0  0  1  0  0  0  0  0  0  0  0  0
  -26.4311  -13.0770   18.4088 C   0  0  2  0  0  0  0  0  0  0  0  0
  -23.9771  -12.6413   22.4834 C   0  0  0  0  0  0  0  0  0  0  0  0
  -28.5537  -26.8468   19.9745 N   0  0  0  0  0  0  0  0  0  0  0  0
  -29.7385  -26.4850   20.4954 N   0  0  0  0  0  0  0  0  0  0  0  0
  -29.9193  -21.6741   23.4295 N   0  0  0  0  0  0  0  0  0  0  0  0
  -23.3911  -16.0588   21.5657 N   0  0  0  0  0  0  0  0  0  0  0  0
  -30.4177  -23.3009   18.4853 N   0  0  0  0  0  0  0  0  0  0  0  0
  -29.4719  -16.7530   22.5694 N   0  0  0  0  0  0  0  0  0  0  0  0
  -31.2438  -26.9464   22.2651 N   0  0  0  0  0  0  0  0  0  0  0  0
  -28.3806  -28.6079   24.1183 N   0  0  0  0  0  0  0  0  0  0  0  0
  -20.2503  -17.1667   22.8457 N   0  0  0  0  0  0  0  0  0  0  0  0
  -24.8831  -13.3327   20.2240 N   0  0  0  0  0  0  0  0  0  0  0  0
  -29.2800  -21.3306   19.2659 N   0  0  0  0  0  0  0  0  0  0  0  0
  -27.2893  -13.9962   17.6091 N   0  3  0  0  0  0  0  0  0  0  0  0
  -31.9503  -20.8412   24.2847 O   0  0  0  0  0  0  0  0  0  0  0  0
  -29.4174  -30.1798   22.8097 O   0  0  0  0  0  0  0  0  0  0  0  0
  -22.3388  -16.9078   23.8426 O   0  0  0  0  0  0  0  0  0  0  0  0
  -22.2091  -14.2594   20.6706 O   0  0  0  0  0  0  0  0  0  0  0  0
  -26.9438  -14.3855   20.3741 O   0  0  0  0  0  0  0  0  0  0  0  0
  -31.5717  -21.3365   18.8882 O   0  0  0  0  0  0  0  0  0  0  0  0
  -23.2436  -30.3605   19.9155 O   0  0  0  0  0  0  0  0  0  0  0  0
  -27.2807  -20.5124   23.3235 O   0  0  0  0  0  0  0  0  0  1  0  0
  -19.0328  -29.0237   23.2149 F   0  0  0  0  0  0  0  0  0  0  0  0
  -20.9179  -29.2822   18.8807 F   0  0  0  0  0  0  0  0  0  0  0  0
  1  2  1  0  0  0  0
  1  5  2  0  0  0  0
  2  6  2  0  0  0  0
  3  8  2  0  0  0  0
  3 17  1  0  0  0  0
  4  9  1  0  0  0  0
  4 17  2  0  0  0  0
  5 19  1  0  0  0  0
  6 21  1  0  0  0  0
  7 10  2  0  0  0  0
  7 20  1  0  0  0  0
  8 27  1  0  0  0  0
  9 27  2  0  0  0  0
 10 28  1  0  0  0  0
 11 12  2  0  0  0  0
 11 29  1  0  0  0  0
 12 30  1  0  0  0  0
 13 22  1  0  0  0  0
 13 28  2  0  0  0  0
 14 23  2  0  0  0  0
 14 25  1  0  0  0  0
 15 24  1  0  0  0  0
 15 25  2  0  0  0  0
 16 30  2  0  0  0  0
 16 31  1  0  0  0  0
 17 32  1  0  0  0  0
 18 32  1  0  0  0  0
 18 33  2  0  0  0  0
 18 37  1  0  0  0  0
 19 21  2  0  0  0  0
 19 42  1  0  0  0  0
 20 22  2  0  0  0  0
 20 43  1  0  0  0  0
 21 53  1  0  0  0  0
 22 44  1  0  0  0  0
 23 26  1  0  0  0  0
 23 57  1  0  0  0  0
 24 26  2  0  0  0  0
 24 63  1  0  0  0  0
 25 73  1  0  0  0  0
 26 78  1  0  0  0  0
 27 86  1  0  0  0  0
 28 87  1  0  0  0  0
 29 31  2  0  0  0  0
 29 86  1  0  0  0  0
 30 88  1  0  0  0  0
 31 89  1  0  0  0  0
 32 68  2  0  0  0  0
 33 69  1  0  0  0  0
 33 74  1  0  0  0  0
 34 45  1  0  0  0  0
 34 70  1  0  0  0  0
 34 80  2  0  0  0  0
 35 36  2  0  0  0  0
 36 78  1  0  0  0  0
 37 75  1  0  0  0  0
 37 81  2  0  0  0  0
 38 54  1  0  0  0  0
 38 76  1  0  0  0  0
 38 82  2  0  0  0  0
 39 65  1  0  0  0  0
 39 71  1  0  0  0  0
 39 83  2  0  0  0  0
 40 66  1  0  0  0  0
 40 77  1  0  0  0  0
 40 84  2  0  0  0  0
 41 72  1  0  0  0  0
 41 78  1  0  0  0  0
 41 85  2  0  0  0  0
 42 46  1  0  0  0  0
 43 54  1  0  0  0  0
 44 71  1  0  0  0  0
 45 47  1  0  0  0  0
 46 49  1  0  0  0  0
 47 56  1  0  0  0  0
 48 50  1  0  0  0  0
 48 51  1  0  0  0  0
 49 53  1  0  0  0  0
 50 55  1  0  0  0  0
 51 72  1  0  0  0  0
 52 55  1  0  0  0  0
 52 72  1  0  0  0  0
 53 76  1  0  0  0  0
 54 71  1  0  0  0  0
 55 69  1  0  0  0  0
 56 64  1  0  0  0  0
 56 70  1  0  0  0  0
 58 66  1  0  0  0  0
 59 67  1  0  0  0  0
 60 67  1  0  0  0  0
 61 67  1  0  0  0  0
 62 79  1  0  0  0  0
 63 70  1  0  0  0  0
 64 87  1  0  0  0  0
 65 67  1  0  0  0  0
 65 77  1  0  0  0  0
 66 79  1  0  0  0  0
 68 69  1  0  0  0  0
M  CHG  1  79   1
M  ISO  4  41 100  64 101  78 100  87 101
M  END
> <Batch ID>
0110

> <Smiles>
C=C[100N:0](c1c(C)cc(N)cc1CN1C(=O)CCC1[101CH2:1][101O:1]c1ccc2c(c1)CN(C(=O)C(NC(=O)C(C)NC)C(C)(C)C)C(C(=O)NC1CCCc3ccccc31)C2)[100C:0](=O)N1CCCC(n2nc(-c3ccc(Oc4ccc(F)cc4F)cc3)c(C(N)=O)c2N)C1

> <Shape>
0.232

> <Color>
0.044

> <Negative vol penalty>
0.000

$$$$

  -OEChem-04052301263D

 87 96  0     1  0  0  0  0  0999 V2000
  -16.1694  -28.9533   24.1576 C   0  0  0  0  0  0  0  0  0  0  0  0
  -17.1760  -27.9966   24.2404 C   0  0  0  0  0  0  0  0  0  0  0  0
  -23.0919   -9.8926   19.9397 C   0  0  0  0  0  0  0  0  0  0  0  0
  -23.5526   -9.9683   22.3102 C   0  0  0  0  0  0  0  0  0  0  0  0
  -16.3746  -30.1172   23.4180 C   0  0  0  0  0  0  0  0  0  0  0  0
  -18.3881  -28.2028   23.5826 C   0  0  0  0  0  0  0  0  0  0  0  0
  -23.9462  -26.4602   25.4738 C   0  0  0  0  0  0  0  0  0  0  0  0
  -22.2777   -8.7768   20.1336 C   0  0  0  0  0  0  0  0  0  0  0  0
  -22.7383   -8.8525   22.5040 C   0  0  0  0  0  0  0  0  0  0  0  0
  -24.7469  -25.3658   25.1497 C   0  0  0  0  0  0  0  0  0  0  0  0
  -22.9677   -5.5024   22.1108 C   0  0  0  0  0  0  0  0  0  0  0  0
  -23.4460   -4.4872   22.9391 C   0  0  0  0  0  0  0  0  0  0  0  0
  -28.6163  -18.8060   18.8938 C   0  0  0  0  0  0  0  0  0  0  0  0
  -25.9204  -26.7121   23.5282 C   0  0  0  0  0  0  0  0  0  0  0  0
  -29.5222  -19.0011   16.2201 C   0  0  0  0  0  0  0  0  0  0  0  0
  -21.5488   -4.7891   24.4043 C   0  0  0  0  0  0  0  0  0  0  0  0
  -23.7294  -10.4884   21.0280 C   0  0  0  0  0  0  0  0  0  0  0  0
  -24.1824  -12.9933   20.8608 C   0  0  0  0  0  0  0  0  0  0  0  0
  -17.5934  -30.3423   22.7588 C   0  0  0  0  0  0  0  0  0  0  0  0
  -24.1197  -27.6878   24.8186 C   0  0  0  0  0  0  0  0  0  0  0  0
  -18.6093  -29.3702   22.8323 C   0  0  0  0  0  0  0  0  0  0  0  0
  -28.9525  -17.6772   18.1676 C   0  0  0  0  0  0  0  0  0  0  0  0
  -25.1223  -27.8213   23.8475 C   0  0  0  0  0  0  0  0  0  0  0  0
  -29.3998  -17.7734   16.8462 C   0  0  0  0  0  0  0  0  0  0  0  0
  -28.7386  -20.0504   18.2719 C   0  0  0  0  0  0  0  0  0  0  0  0
  -22.1008   -8.2568   21.4157 C   0  0  0  0  0  0  0  0  0  0  0  0
  -25.7322  -25.4908   24.1748 C   0  0  0  0  0  0  0  0  0  0  0  0
  -21.7801   -6.1610   22.4292 C   0  0  0  0  0  0  0  0  0  0  0  0
  -29.1876  -20.1472   16.9447 C   0  0  0  0  0  0  0  0  0  0  0  0
  -22.7365   -4.1305   24.0859 C   0  0  0  0  0  0  0  0  0  0  0  0
  -21.0706   -5.8043   23.5759 C   0  0  0  0  0  0  0  0  0  0  0  0
  -24.5711  -11.6406   20.8283 C   0  0  0  0  0  0  0  0  0  0  0  0
  -25.3404  -13.6894   20.6144 C   0  0  0  0  0  0  0  0  0  0  0  0
  -22.8900  -13.5690   21.0931 C   0  0  0  0  0  0  0  0  0  0  0  0
  -22.2991  -29.5169   22.9629 C   0  0  0  0  0  0  0  0  0  0  0  0
  -24.7904  -31.5789   23.2163 C   0  0  0  0  0  0  0  0  0  0  0  0
  -27.9425  -21.2972   20.3101 C   0  0  0  0  0  0  0  0  0  0  0  0
  -28.1196  -32.0417   23.8066 C   0  0  0  0  0  0  0  0  0  0  0  0
  -29.9541  -14.2155   17.4301 C   0  0  0  0  0  0  0  0  0  0  0  0
  -17.7514  -31.5940   21.9324 C   0  0  0  0  0  0  0  0  0  0  0  0
  -23.2656  -28.8662   25.1986 C   0  0  0  0  0  0  0  0  0  0  0  0
  -28.8883  -16.2458   18.5913 C   0  0  0  0  0  0  0  0  0  0  0  0
  -25.3624  -29.1232   23.1293 C   0  0  0  0  0  0  0  0  0  0  0  0
  -29.6971  -16.4178   16.3002 C   0  0  0  0  0  0  0  0  0  0  0  0
  -19.2016  -31.9078   21.5734 C   0  0  0  0  0  0  0  0  0  0  0  0
  -30.1567  -12.1472   20.4539 C   0  0  0  0  0  0  0  0  0  0  0  0
  -19.9103  -30.6542   21.0703 C   0  0  0  0  0  0  0  0  0  0  0  0
  -28.6839  -11.9087   20.7939 C   0  0  0  0  0  0  0  0  0  0  0  0
  -30.3783  -12.3180   18.9524 C   0  0  0  0  0  0  0  0  0  0  0  0
  -28.0571  -13.0866   18.6562 C   0  0  0  0  0  0  0  0  0  0  0  0
  -19.9470  -29.5691   22.1532 C   0  0  1  0  0  0  0  0  0  0  0  0
  -23.1877  -29.9255   24.1036 C   0  0  1  0  0  0  0  0  0  0  0  0
  -27.7833  -12.9880   20.1627 C   0  0  1  0  0  0  0  0  0  0  0  0
  -29.8718  -33.8354   23.9069 C   0  0  0  0  0  0  0  0  0  0  0  0
  -24.8400  -31.6975   20.1678 C   0  0  0  0  0  0  0  0  0  0  0  0
  -27.1299  -32.6991   20.3135 C   0  0  0  0  0  0  0  0  0  0  0  0
  -25.1801  -33.8997   21.3031 C   0  0  0  0  0  0  0  0  0  0  0  0
  -28.6986  -31.4788   26.6538 C   0  0  0  0  0  0  0  0  0  0  0  0
  -28.1628  -21.8521   15.6413 C   0  0  0  0  0  0  0  0  0  0  0  0
  -27.6993  -22.7478   20.7030 C   0  0  0  0  0  0  0  0  0  0  0  0
  -27.1945  -22.8920   22.1345 C   0  0  0  0  0  0  0  0  0  0  0  0
  -27.0043  -24.3520   22.5193 C   0  0  0  0  0  0  0  0  0  1  0  0
  -26.0618  -31.8202   22.4389 C   0  0  1  0  0  0  0  0  0  0  0  0
  -28.8575  -33.0242   24.6981 C   0  0  2  0  0  0  0  0  0  0  0  0
  -25.7974  -32.5039   21.0678 C   0  0  0  0  0  0  0  0  0  0  0  0
  -25.8743  -11.4845   20.5805 N   0  0  0  0  0  0  0  0  0  0  0  0
  -26.3145  -12.7481   20.4550 N   0  0  0  0  0  0  0  0  0  0  0  0
  -24.4973  -30.2445   23.5315 N   0  0  0  0  0  0  0  0  0  0  0  0
  -29.4314  -15.5111   17.4295 N   0  0  0  0  0  0  0  0  0  0  0  0
  -29.4801  -13.3346   18.4072 N   0  0  0  0  0  0  0  0  0  0  0  0
  -25.6104  -15.0088   20.5205 N   0  0  0  0  0  0  0  0  0  0  0  0
  -21.8085  -12.7096   21.3300 N   0  0  0  0  0  0  0  0  0  0  0  0
  -28.4055  -21.2026   18.9892 N   0  0  0  0  0  0  0  0  0  0  0  0
  -20.9724  -29.8650   23.1306 N   0  0  0  0  0  0  0  0  0  0  0  0
  -26.9436  -32.5748   23.3228 N   0  0  0  0  0  0  0  0  0  0  0  0
  -29.5785  -32.2992   25.7823 N   0  3  0  0  0  0  0  0  0  0  0  0
  -22.6967  -14.8083   21.0745 O   0  0  0  0  0  0  0  0  0  0  0  0
  -22.7817  -28.9306   22.0011 O   0  0  0  0  0  0  0  0  0  0  0  0
  -24.0869  -32.5397   23.5383 O   0  0  0  0  0  0  0  0  0  0  0  0
  -27.7426  -20.3698   21.0875 O   0  0  0  0  0  0  0  0  0  0  0  0
  -28.5458  -30.9155   23.5608 O   0  0  0  0  0  0  0  0  0  0  0  0
  -30.8400  -13.8780   16.6345 O   0  0  0  0  0  0  0  0  0  0  0  0
  -21.3062   -7.1682   21.6053 O   0  0  0  0  0  0  0  0  0  0  0  0
  -29.3056  -21.3647   16.3395 O   0  0  0  0  0  0  0  0  0  0  0  0
  -26.5204  -24.4162   23.8537 O   0  0  0  0  0  0  0  0  0  1  0  0
  -23.1951   -3.1545   24.8805 F   0  0  0  0  0  0  0  0  0  0  0  0
  -19.9284   -6.4326   23.8864 F   0  0  0  0  0  0  0  0  0  0  0  0
  1  2  1  0  0  0  0
  1  5  2  0  0  0  0
  2  6  2  0  0  0  0
  3  8  2  0  0  0  0
  3 17  1  0  0  0  0
  4  9  1  0  0  0  0
  4 17  2  0  0  0  0
  5 19  1  0  0  0  0
  6 21  1  0  0  0  0
  7 10  2  0  0  0  0
  7 20  1  0  0  0  0
  8 26  1  0  0  0  0
  9 26  2  0  0  0  0
 10 27  1  0  0  0  0
 11 12  2  0  0  0  0
 11 28  1  0  0  0  0
 12 30  1  0  0  0  0
 13 22  2  0  0  0  0
 13 25  1  0  0  0  0
 14 23  1  0  0  0  0
 14 27  2  0  0  0  0
 15 24  2  0  0  0  0
 15 29  1  0  0  0  0
 16 30  2  0  0  0  0
 16 31  1  0  0  0  0
 17 32  1  0  0  0  0
 18 32  1  0  0  0  0
 18 33  2  0  0  0  0
 18 34  1  0  0  0  0
 19 21  2  0  0  0  0
 19 40  1  0  0  0  0
 20 23  2  0  0  0  0
 20 41  1  0  0  0  0
 21 51  1  0  0  0  0
 22 24  1  0  0  0  0
 22 42  1  0  0  0  0
 23 43  1  0  0  0  0
 24 44  1  0  0  0  0
 25 29  2  0  0  0  0
 25 73  1  0  0  0  0
 26 83  1  0  0  0  0
 27 85  1  0  0  0  0
 28 31  2  0  0  0  0
 28 83  1  0  0  0  0
 29 84  1  0  0  0  0
 30 86  1  0  0  0  0
 31 87  1  0  0  0  0
 32 66  2  0  0  0  0
 33 67  1  0  0  0  0
 33 71  1  0  0  0  0
 34 72  1  0  0  0  0
 34 77  2  0  0  0  0
 35 52  1  0  0  0  0
 35 74  1  0  0  0  0
 35 78  2  0  0  0  0
 36 63  1  0  0  0  0
 36 68  1  0  0  0  0
 36 79  2  0  0  0  0
 37 60  1  0  0  0  0
 37 73  1  0  0  0  0
 37 80  2  0  0  0  0
 38 64  1  0  0  0  0
 38 75  1  0  0  0  0
 38 81  2  0  0  0  0
 39 69  1  0  0  0  0
 39 70  1  0  0  0  0
 39 82  2  0  0  0  0
 40 45  1  0  0  0  0
 41 52  1  0  0  0  0
 42 69  1  0  0  0  0
 43 68  1  0  0  0  0
 44 69  1  0  0  0  0
 45 47  1  0  0  0  0
 46 48  1  0  0  0  0
 46 49  1  0  0  0  0
 47 51  1  0  0  0  0
 48 53  1  0  0  0  0
 49 70  1  0  0  0  0
 50 53  1  0  0  0  0
 50 70  1  0  0  0  0
 51 74  1  0  0  0  0
 52 68  1  0  0  0  0
 53 67  1  0  0  0  0
 54 64  1  0  0  0  0
 55 65  1  0  0  0  0
 56 65  1  0  0  0  0
 57 65  1  0  0  0  0
 58 76  1  0  0  0  0
 59 84  1  0  0  0  0
 60 61  1  0  0  0  0
 61 62  1  0  0  0  0
 62 85  1  0  0  0  0
 63 65  1  0  0  0  0
 63 75  1  0  0  0  0
 64 76  1  0  0  0  0
 66 67  1  0  0  0  0
M  CHG  1  76   1
M  ISO  4  39 100  62 101  69 100  85 101
M  END
> <Batch ID>
0110

> <Smiles>
CNC(C)C(=O)NC(C(=O)N1Cc2cc([101O:1][101CH2:1]CCC(=O)Nc3cc4c(cc3OC)C[100N:0]([100C:0](=O)N3CCCC(n5nc(-c6ccc(Oc7ccc(F)cc7F)cc6)c(C(N)=O)c5N)C3)C4)ccc2CC1C(=O)NC1CCCc2ccccc21)C(C)(C)C

> <Shape>
0.312

> <Color>
0.220

> <Negative vol penalty>
0.000

$$$$

  -OEChem-04052301263D

 92101  0     1  0  0  0  0  0999 V2000
  -19.3016  -27.5602   26.5983 C   0  0  0  0  0  0  0  0  0  0  0  0
  -20.5134  -27.0975   26.0954 C   0  0  0  0  0  0  0  0  0  0  0  0
  -22.8845  -10.2051   20.1331 C   0  0  0  0  0  0  0  0  0  0  0  0
  -24.6779   -8.8764   21.0578 C   0  0  0  0  0  0  0  0  0  0  0  0
  -18.4105  -28.2295   25.7604 C   0  0  0  0  0  0  0  0  0  0  0  0
  -20.8343  -27.3028   24.7540 C   0  0  0  0  0  0  0  0  0  0  0  0
  -26.3952  -28.3692   22.4205 C   0  0  0  0  0  0  0  0  0  0  0  0
  -21.9762   -9.1913   20.4379 C   0  0  0  0  0  0  0  0  0  0  0  0
  -23.7697   -7.8626   21.3627 C   0  0  0  0  0  0  0  0  0  0  0  0
  -27.3282  -27.5379   21.8023 C   0  0  0  0  0  0  0  0  0  0  0  0
  -21.4638   -7.2210   23.7484 C   0  0  0  0  0  0  0  0  0  0  0  0
  -21.5529   -6.6308   25.0091 C   0  0  0  0  0  0  0  0  0  0  0  0
  -26.4918  -28.2149   19.6433 C   0  0  0  0  0  0  0  0  0  0  0  0
  -28.9668  -19.5261   20.8584 C   0  0  0  0  0  0  0  0  0  0  0  0
  -27.7483  -20.2273   18.4488 C   0  0  0  0  0  0  0  0  0  0  0  0
  -21.9559   -4.4845   23.9756 C   0  0  0  0  0  0  0  0  0  0  0  0
  -24.2354  -10.0476   20.4430 C   0  0  0  0  0  0  0  0  0  0  0  0
  -25.4651  -11.6202   18.8549 C   0  0  0  0  0  0  0  0  0  0  0  0
  -18.7248  -28.4516   24.4104 C   0  0  0  0  0  0  0  0  0  0  0  0
  -25.4947  -29.1226   21.6537 C   0  0  0  0  0  0  0  0  0  0  0  0
  -19.9460  -27.9745   23.8970 C   0  0  0  0  0  0  0  0  0  0  0  0
  -25.5501  -29.0570   20.2541 C   0  0  0  0  0  0  0  0  0  0  0  0
  -29.2353  -20.7645   20.2756 C   0  0  0  0  0  0  0  0  0  0  0  0
  -28.6261  -21.1151   19.0708 C   0  0  0  0  0  0  0  0  0  0  0  0
  -28.0890  -18.6381   20.2364 C   0  0  0  0  0  0  0  0  0  0  0  0
  -22.4188   -8.0201   21.0527 C   0  0  0  0  0  0  0  0  0  0  0  0
  -27.3747  -27.4584   20.4136 C   0  0  0  0  0  0  0  0  0  0  0  0
  -21.6207   -6.4431   22.6013 C   0  0  0  0  0  0  0  0  0  0  0  0
  -27.4798  -18.9888   19.0317 C   0  0  0  0  0  0  0  0  0  0  0  0
  -21.7990   -5.2625   25.1227 C   0  0  0  0  0  0  0  0  0  0  0  0
  -21.8668   -5.0748   22.7149 C   0  0  0  0  0  0  0  0  0  0  0  0
  -25.1741  -11.0943   20.1278 C   0  0  0  0  0  0  0  0  0  0  0  0
  -26.4148  -12.5841   19.0905 C   0  0  0  0  0  0  0  0  0  0  0  0
  -28.6173  -24.7742   18.3463 C   0  0  0  0  0  0  0  0  0  0  0  0
  -28.1550  -23.5501   18.6994 C   0  0  0  0  0  0  0  0  0  0  0  0
  -29.9834  -24.8636   17.7295 C   0  0  0  0  0  0  0  0  0  0  0  0
  -24.9253  -11.2690   17.5739 C   0  0  0  0  0  0  0  0  0  0  0  0
  -22.3307  -29.2234   21.3660 C   0  0  0  0  0  0  0  0  0  0  0  0
  -22.9747  -31.7728   19.4664 C   0  0  0  0  0  0  0  0  0  0  0  0
  -25.3920  -32.6192   16.9252 C   0  0  0  0  0  0  0  0  0  0  0  0
  -28.3548  -16.8938   22.0344 C   0  0  0  0  0  0  0  0  0  0  0  0
  -17.7092  -29.1384   23.5321 C   0  0  0  0  0  0  0  0  0  0  0  0
  -24.5121  -30.0349   22.3352 C   0  0  0  0  0  0  0  0  0  0  0  0
  -24.6189  -29.8609   19.3851 C   0  0  0  0  0  0  0  0  0  0  0  0
  -30.8258  -23.6129   17.6583 C   0  0  0  0  0  0  0  0  0  0  0  0
  -18.2877  -29.6449   22.2134 C   0  0  0  0  0  0  0  0  0  0  0  0
  -29.0794  -13.6321   23.2646 C   0  0  0  0  0  0  0  0  0  0  0  0
  -19.1501  -28.5692   21.5606 C   0  0  0  0  0  0  0  0  0  0  0  0
  -28.1520  -12.7243   22.4535 C   0  0  0  0  0  0  0  0  0  0  0  0
  -29.9737  -22.3686   17.4792 C   0  0  0  0  0  0  0  0  0  0  0  0
  -28.4153  -14.9660   23.6013 C   0  0  0  0  0  0  0  0  0  0  0  0
  -26.9361  -14.7850   21.6395 C   0  0  0  0  0  0  0  0  0  0  0  0
  -20.3408  -28.1997   22.4536 C   0  0  1  0  0  0  0  0  0  0  0  0
  -23.3020  -30.3654   21.4668 C   0  0  1  0  0  0  0  0  0  0  0  0
  -27.5846  -13.4553   21.2209 C   0  0  2  0  0  0  0  0  0  0  0  0
  -26.7565  -23.4055   19.2677 C   0  0  0  0  0  0  0  0  0  0  0  0
  -32.2866  -20.8171   19.8000 C   0  0  0  0  0  0  0  0  0  0  0  0
  -29.6383  -22.1317   22.3394 C   0  0  0  0  0  0  0  0  0  0  0  0
  -26.2838  -34.8500   16.2002 C   0  0  0  0  0  0  0  0  0  0  0  0
  -20.7682  -31.6465   17.3628 C   0  0  0  0  0  0  0  0  0  0  0  0
  -22.3589  -32.6857   15.7325 C   0  0  0  0  0  0  0  0  0  0  0  0
  -21.6808  -33.9370   17.7812 C   0  0  0  0  0  0  0  0  0  0  0  0
  -28.1926  -31.7775   17.3801 C   0  0  0  0  0  0  0  0  0  0  0  0
  -27.1829  -17.2194   17.4706 C   0  0  0  0  0  0  0  0  0  0  0  0
  -27.9173  -26.0886   18.5467 C   0  0  0  0  0  0  0  0  0  1  0  0
  -31.6151  -21.1277   21.1322 C   0  0  0  0  0  0  0  0  0  0  0  0
  -30.1804  -21.6958   20.9627 C   0  0  1  0  0  0  0  0  0  0  0  0
  -23.2508  -31.9669   17.9950 C   0  0  1  0  0  0  0  0  0  0  0  0
  -26.5319  -33.6139   17.0506 C   0  0  2  0  0  0  0  0  0  0  0  0
  -22.0214  -32.5348   17.2312 C   0  0  0  0  0  0  0  0  0  0  0  0
  -25.8818  -11.6757   21.1001 N   0  0  0  0  0  0  0  0  0  0  0  0
  -26.6269  -12.5770   20.4378 N   0  0  0  0  0  0  0  0  0  0  0  0
  -28.8865  -22.3710   18.4643 N   0  0  0  0  0  0  0  0  0  0  0  0
  -23.6718  -30.7334   20.0986 N   0  0  0  0  0  0  0  0  0  0  0  0
  -27.9057  -15.6029   22.3850 N   0  0  0  0  0  0  0  0  0  0  0  0
  -27.0808  -13.4286   18.2746 N   0  0  0  0  0  0  0  0  0  0  0  0
  -25.5626  -10.2646   16.8328 N   0  0  0  0  0  0  0  0  0  0  0  0
  -27.8262  -17.3837   20.8406 N   0  0  0  0  0  0  0  0  0  0  0  0
  -21.3734  -29.2095   22.3625 N   0  0  0  0  0  0  0  0  0  0  0  0
  -24.4446  -32.8014   17.9103 N   0  0  0  0  0  0  0  0  0  0  0  0
  -27.8131  -32.9914   16.6123 N   0  3  0  0  0  0  0  0  0  0  0  0
  -30.4308  -25.9424   17.3413 O   0  0  0  0  0  0  0  0  0  0  0  0
  -23.9174  -11.8406   17.0933 O   0  0  0  0  0  0  0  0  0  0  0  0
  -22.4407  -28.4157   20.4511 O   0  0  0  0  0  0  0  0  0  0  0  0
  -22.1755  -32.5204   20.0355 O   0  0  0  0  0  0  0  0  0  0  0  0
  -25.3447  -31.7684   16.0395 O   0  0  0  0  0  0  0  0  0  0  0  0
  -29.1706  -17.5074   22.7272 O   0  0  0  0  0  0  0  0  0  0  0  0
  -21.5328   -7.0307   21.3505 O   0  0  0  0  0  0  0  0  0  0  0  0
  -26.6197  -18.1353   18.4071 O   0  0  0  0  0  0  0  0  0  0  0  0
  -28.2840  -26.6473   19.8076 O   0  0  0  0  0  0  0  0  0  1  0  0
  -21.8860   -4.6960   26.3333 F   0  0  0  0  0  0  0  0  0  0  0  0
  -22.0196   -4.3224   21.6165 F   0  0  0  0  0  0  0  0  0  0  0  0
  1  2  1  0  0  0  0
  1  5  2  0  0  0  0
  2  6  2  0  0  0  0
  3  8  2  0  0  0  0
  3 17  1  0  0  0  0
  4  9  1  0  0  0  0
  4 17  2  0  0  0  0
  5 19  1  0  0  0  0
  6 21  1  0  0  0  0
  7 10  2  0  0  0  0
  7 20  1  0  0  0  0
  8 26  1  0  0  0  0
  9 26  2  0  0  0  0
 10 27  1  0  0  0  0
 11 12  2  0  0  0  0
 11 28  1  0  0  0  0
 12 30  1  0  0  0  0
 13 22  1  0  0  0  0
 13 27  2  0  0  0  0
 14 23  1  0  0  0  0
 14 25  2  0  0  0  0
 15 24  1  0  0  0  0
 15 29  2  0  0  0  0
 16 30  2  0  0  0  0
 16 31  1  0  0  0  0
 17 32  1  0  0  0  0
 18 32  1  0  0  0  0
 18 33  2  0  0  0  0
 18 37  1  0  0  0  0
 19 21  2  0  0  0  0
 19 42  1  0  0  0  0
 20 22  2  0  0  0  0
 20 43  1  0  0  0  0
 21 53  1  0  0  0  0
 22 44  1  0  0  0  0
 23 24  2  0  0  0  0
 23 67  1  0  0  0  0
 24 73  1  0  0  0  0
 25 29  1  0  0  0  0
 25 78  1  0  0  0  0
 26 88  1  0  0  0  0
 27 90  1  0  0  0  0
 28 31  2  0  0  0  0
 28 88  1  0  0  0  0
 29 89  1  0  0  0  0
 30 91  1  0  0  0  0
 31 92  1  0  0  0  0
 32 71  2  0  0  0  0
 33 72  1  0  0  0  0
 33 76  1  0  0  0  0
 34 35  2  0  0  0  0
 34 36  1  0  0  0  0
 34 65  1  0  0  0  0
 35 56  1  0  0  0  0
 35 73  1  0  0  0  0
 36 45  1  0  0  0  0
 36 82  2  0  0  0  0
 37 77  1  0  0  0  0
 37 83  2  0  0  0  0
 38 54  1  0  0  0  0
 38 79  1  0  0  0  0
 38 84  2  0  0  0  0
 39 68  1  0  0  0  0
 39 74  1  0  0  0  0
 39 85  2  0  0  0  0
 40 69  1  0  0  0  0
 40 80  1  0  0  0  0
 40 86  2  0  0  0  0
 41 75  1  0  0  0  0
 41 78  1  0  0  0  0
 41 87  2  0  0  0  0
 42 46  1  0  0  0  0
 43 54  1  0  0  0  0
 44 74  1  0  0  0  0
 45 50  1  0  0  0  0
 46 48  1  0  0  0  0
 47 49  1  0  0  0  0
 47 51  1  0  0  0  0
 48 53  1  0  0  0  0
 49 55  1  0  0  0  0
 50 73  1  0  0  0  0
 51 75  1  0  0  0  0
 52 55  1  0  0  0  0
 52 75  1  0  0  0  0
 53 79  1  0  0  0  0
 54 74  1  0  0  0  0
 55 72  1  0  0  0  0
 57 66  1  0  0  0  0
 58 67  1  0  0  0  0
 59 69  1  0  0  0  0
 60 70  1  0  0  0  0
 61 70  1  0  0  0  0
 62 70  1  0  0  0  0
 63 81  1  0  0  0  0
 64 89  1  0  0  0  0
 65 90  1  0  0  0  0
 66 67  1  0  0  0  0
 68 70  1  0  0  0  0
 68 80  1  0  0  0  0
 69 81  1  0  0  0  0
 71 72  1  0  0  0  0
M  CHG  1  81   1
M  ISO  4  41 100  65 101  78 100  90 101
M  END
> <Batch ID>
0110

> <Smiles>
CCC(C)c1cc([100NH:0][100C:0](=O)N2CCCC(n3nc(-c4ccc(Oc5ccc(F)cc5F)cc4)c(C(N)=O)c3N)C2)c(OC)cc1N1CCC(=O)C([101CH2:1][101O:1]c2ccc3c(c2)CN(C(=O)C(NC(=O)C(C)NC)C(C)(C)C)C(C(=O)NC2CCCc4ccccc42)C3)=C1C

> <Shape>
0.301

> <Color>
0.132

> <Negative vol penalty>
0.000

$$$$

  -OEChem-04052301263D

 86 94  0     1  0  0  0  0  0999 V2000
  -31.8519  -26.2163   22.8303 C   0  0  0  0  0  0  0  0  0  0  0  0
  -30.8056  -25.3697   23.1791 C   0  0  0  0  0  0  0  0  0  0  0  0
  -27.6515  -26.6658   16.8350 C   0  0  0  0  0  0  0  0  0  0  0  0
  -29.4555  -27.4818   18.2195 C   0  0  0  0  0  0  0  0  0  0  0  0
  -32.5375  -26.0145   21.6343 C   0  0  0  0  0  0  0  0  0  0  0  0
  -30.4525  -24.3140   22.3379 C   0  0  0  0  0  0  0  0  0  0  0  0
  -27.0832  -21.1477   24.0190 C   0  0  0  0  0  0  0  0  0  0  0  0
  -17.9075  -27.4386   21.8676 C   0  0  0  0  0  0  0  0  0  0  0  0
  -18.4946  -26.1883   22.0617 C   0  0  0  0  0  0  0  0  0  0  0  0
  -28.5288  -26.5567   15.7561 C   0  0  0  0  0  0  0  0  0  0  0  0
  -30.3328  -27.3727   17.1406 C   0  0  0  0  0  0  0  0  0  0  0  0
  -25.7337  -21.4765   24.1392 C   0  0  0  0  0  0  0  0  0  0  0  0
  -30.9153  -24.4101   14.6934 C   0  0  0  0  0  0  0  0  0  0  0  0
  -30.8613  -23.2443   13.9294 C   0  0  0  0  0  0  0  0  0  0  0  0
  -20.4584  -27.2532   22.9818 C   0  0  0  0  0  0  0  0  0  0  0  0
  -25.2528  -20.2060   22.1458 C   0  0  0  0  0  0  0  0  0  0  0  0
  -30.3193  -24.5524   11.9718 C   0  0  0  0  0  0  0  0  0  0  0  0
  -28.1148  -27.1284   18.0667 C   0  0  0  0  0  0  0  0  0  0  0  0
  -19.8713  -28.5035   22.7877 C   0  0  0  0  0  0  0  0  0  0  0  0
  -26.4653  -26.2079   19.7812 C   0  0  0  0  0  0  0  0  0  0  0  0
  -32.1838  -24.9631   20.7727 C   0  0  0  0  0  0  0  0  0  0  0  0
  -27.5300  -20.3533   22.9534 C   0  0  0  0  0  0  0  0  0  0  0  0
  -31.1480  -24.0794   21.1380 C   0  0  0  0  0  0  0  0  0  0  0  0
  -26.6081  -19.8664   22.0158 C   0  0  0  0  0  0  0  0  0  0  0  0
  -18.5959  -28.5962   22.2306 C   0  0  0  0  0  0  0  0  0  0  0  0
  -19.7700  -26.0955   22.6187 C   0  0  0  0  0  0  0  0  0  0  0  0
  -29.8694  -26.9101   15.9089 C   0  0  0  0  0  0  0  0  0  0  0  0
  -24.8186  -21.0080   23.2010 C   0  0  0  0  0  0  0  0  0  0  0  0
  -30.6711  -25.6470   14.0967 C   0  0  0  0  0  0  0  0  0  0  0  0
  -30.5634  -23.3155   12.5686 C   0  0  0  0  0  0  0  0  0  0  0  0
  -30.3732  -25.7182   12.7359 C   0  0  0  0  0  0  0  0  0  0  0  0
  -27.2090  -27.2419   19.1814 C   0  0  0  0  0  0  0  0  0  0  0  0
  -25.7673  -26.8271   20.7891 C   0  0  0  0  0  0  0  0  0  0  0  0
  -23.1552  -22.6499   23.2890 C   0  0  0  0  0  0  0  0  0  1  0  0
  -20.6263  -29.7200   23.1839 C   0  0  0  0  0  0  0  0  0  0  0  0
  -26.4104  -24.8125   19.4563 C   0  0  0  0  0  0  0  0  0  0  0  0
  -21.8911  -23.0776   23.3934 C   0  0  0  0  0  0  0  0  0  0  0  0
  -21.6159  -24.5509   23.3519 C   0  0  0  0  0  0  0  0  0  0  0  0
  -29.5354  -20.7800   20.5244 C   0  0  0  0  0  0  0  0  0  0  0  0
  -28.9766  -17.6252   20.0169 C   0  0  0  0  0  0  0  0  0  0  0  0
  -26.9029  -14.9468   20.4321 C   0  0  0  0  0  0  0  0  0  0  0  0
  -22.6930  -31.0052   22.7358 C   0  0  0  0  0  0  0  0  0  0  0  0
  -32.9646  -24.7858   19.4943 C   0  0  0  0  0  0  0  0  0  0  0  0
  -28.9850  -19.9854   22.8529 C   0  0  0  0  0  0  0  0  0  0  0  0
  -27.0337  -18.9934   20.8647 C   0  0  0  0  0  0  0  0  0  0  0  0
  -32.2365  -23.9243   18.4676 C   0  0  0  0  0  0  0  0  0  0  0  0
  -26.1940  -31.4940   22.7107 C   0  0  0  0  0  0  0  0  0  0  0  0
  -31.7471  -22.6400   19.1201 C   0  0  0  0  0  0  0  0  0  0  0  0
  -26.7133  -30.3420   21.8461 C   0  0  0  0  0  0  0  0  0  0  0  0
  -24.8722  -32.0492   22.1820 C   0  0  0  0  0  0  0  0  0  0  0  0
  -24.3392  -29.9033   21.1008 C   0  0  0  0  0  0  0  0  0  0  0  0
  -30.7262  -22.9430   20.2241 C   0  0  1  0  0  0  0  0  0  0  0  0
  -29.4064  -19.5952   21.4395 C   0  0  1  0  0  0  0  0  0  0  0  0
  -25.6322  -29.2636   21.6319 C   0  0  1  0  0  0  0  0  0  0  0  0
  -17.9439  -29.9225   22.0120 C   0  0  0  0  0  0  0  0  0  0  0  0
  -26.6984  -12.5087   19.8741 C   0  0  0  0  0  0  0  0  0  0  0  0
  -28.2316  -18.3469   17.1474 C   0  0  0  0  0  0  0  0  0  0  0  0
  -27.1533  -16.0974   16.9354 C   0  0  0  0  0  0  0  0  0  0  0  0
  -29.6023  -16.2679   17.3779 C   0  0  0  0  0  0  0  0  0  0  0  0
  -26.8538  -14.1779   23.2896 C   0  0  0  0  0  0  0  0  0  0  0  0
  -27.9674  -16.8326   19.2218 C   0  0  1  0  0  0  0  0  0  0  0  0
  -27.1717  -13.5276   20.8991 C   0  0  2  0  0  0  0  0  0  0  0  0
  -28.2306  -16.9042   17.6911 C   0  0  0  0  0  0  0  0  0  0  0  0
  -27.0026  -28.4280   19.7600 N   0  0  0  0  0  0  0  0  0  0  0  0
  -26.1212  -28.1431   20.7337 N   0  0  0  0  0  0  0  0  0  0  0  0
  -28.4680  -18.6666   20.8060 N   0  0  0  0  0  0  0  0  0  0  0  0
  -23.9000  -30.9673   22.0162 N   0  0  0  0  0  0  0  0  0  0  0  0
  -24.8914  -26.3688   21.7084 N   0  0  0  0  0  0  0  0  0  0  0  0
  -27.3151  -23.9446   20.0829 N   0  0  0  0  0  0  0  0  0  0  0  0
  -20.3664  -24.8263   22.8136 N   0  0  0  0  0  0  0  0  0  0  0  0
  -21.8506  -29.9050   22.5410 N   0  0  0  0  0  0  0  0  0  0  0  0
  -30.4457  -21.7265   20.9544 N   0  0  0  0  0  0  0  0  0  0  0  0
  -27.9877  -15.4804   19.7690 N   0  0  0  0  0  0  0  0  0  0  0  0
  -26.4666  -13.2630   22.1851 N   0  3  0  0  0  0  0  0  0  0  0  0
  -20.1303  -30.4926   23.9994 O   0  0  0  0  0  0  0  0  0  0  0  0
  -25.5946  -24.3515   18.6224 O   0  0  0  0  0  0  0  0  0  0  0  0
  -22.4429  -25.3582   23.7622 O   0  0  0  0  0  0  0  0  0  0  0  0
  -28.8603  -20.8308   19.5030 O   0  0  0  0  0  0  0  0  0  0  0  0
  -30.1714  -17.3266   19.9462 O   0  0  0  0  0  0  0  0  0  0  0  0
  -25.8359  -15.5229   20.6321 O   0  0  0  0  0  0  0  0  0  0  0  0
  -22.4065  -31.9205   23.5140 O   0  0  0  0  0  0  0  0  0  0  0  0
  -20.8247  -22.2134   23.5372 O   0  0  0  0  0  0  0  0  0  0  0  0
  -30.7258  -26.8035   14.8564 O   0  0  0  0  0  0  0  0  0  0  0  0
  -23.5009  -21.3280   23.3156 O   0  0  0  0  0  0  0  0  0  1  0  0
  -30.5131  -22.1961   11.8347 F   0  0  0  0  0  0  0  0  0  0  0  0
  -30.1389  -26.9037   12.1567 F   0  0  0  0  0  0  0  0  0  0  0  0
  1  2  1  0  0  0  0
  1  5  2  0  0  0  0
  2  6  2  0  0  0  0
  3 10  2  0  0  0  0
  3 18  1  0  0  0  0
  4 11  1  0  0  0  0
  4 18  2  0  0  0  0
  5 21  1  0  0  0  0
  6 23  1  0  0  0  0
  7 12  2  0  0  0  0
  7 22  1  0  0  0  0
  8  9  2  0  0  0  0
  8 25  1  0  0  0  0
  9 26  1  0  0  0  0
 10 27  1  0  0  0  0
 11 27  2  0  0  0  0
 12 28  1  0  0  0  0
 13 14  2  0  0  0  0
 13 29  1  0  0  0  0
 14 30  1  0  0  0  0
 15 19  1  0  0  0  0
 15 26  2  0  0  0  0
 16 24  1  0  0  0  0
 16 28  2  0  0  0  0
 17 30  2  0  0  0  0
 17 31  1  0  0  0  0
 18 32  1  0  0  0  0
 19 25  2  0  0  0  0
 19 35  1  0  0  0  0
 20 32  1  0  0  0  0
 20 33  2  0  0  0  0
 20 36  1  0  0  0  0
 21 23  2  0  0  0  0
 21 43  1  0  0  0  0
 22 24  2  0  0  0  0
 22 44  1  0  0  0  0
 23 52  1  0  0  0  0
 24 45  1  0  0  0  0
 25 55  1  0  0  0  0
 26 70  1  0  0  0  0
 27 83  1  0  0  0  0
 28 84  1  0  0  0  0
 29 31  2  0  0  0  0
 29 83  1  0  0  0  0
 30 85  1  0  0  0  0
 31 86  1  0  0  0  0
 32 64  2  0  0  0  0
 33 65  1  0  0  0  0
 33 68  1  0  0  0  0
 34 37  2  0  0  0  0
 34 84  1  0  0  0  0
 35 71  1  0  0  0  0
 35 75  2  0  0  0  0
 36 69  1  0  0  0  0
 36 76  2  0  0  0  0
 37 38  1  0  0  0  0
 37 82  1  0  0  0  0
 38 70  1  0  0  0  0
 38 77  2  0  0  0  0
 39 53  1  0  0  0  0
 39 72  1  0  0  0  0
 39 78  2  0  0  0  0
 40 61  1  0  0  0  0
 40 66  1  0  0  0  0
 40 79  2  0  0  0  0
 41 62  1  0  0  0  0
 41 73  1  0  0  0  0
 41 80  2  0  0  0  0
 42 67  1  0  0  0  0
 42 71  1  0  0  0  0
 42 81  2  0  0  0  0
 43 46  1  0  0  0  0
 44 53  1  0  0  0  0
 45 66  1  0  0  0  0
 46 48  1  0  0  0  0
 47 49  1  0  0  0  0
 47 50  1  0  0  0  0
 48 52  1  0  0  0  0
 49 54  1  0  0  0  0
 50 67  1  0  0  0  0
 51 54  1  0  0  0  0
 51 67  1  0  0  0  0
 52 72  1  0  0  0  0
 53 66  1  0  0  0  0
 54 65  1  0  0  0  0
 56 62  1  0  0  0  0
 57 63  1  0  0  0  0
 58 63  1  0  0  0  0
 59 63  1  0  0  0  0
 60 74  1  0  0  0  0
 61 63  1  0  0  0  0
 61 73  1  0  0  0  0
 62 74  1  0  0  0  0
 64 65  1  0  0  0  0
M  CHG  1  74   1
M  ISO  4  34 101  42 100  71 100  84 101
M  END
> <Batch ID>
0110

> <Smiles>
CNC(C)C(=O)NC(C(=O)N1Cc2cc([101O:1][101CH2:1]C(=O)C(=O)Nc3ccc(C)c(C(=O)[100NH:0][100C:0](=O)N4CCCC(n5nc(-c6ccc(Oc7ccc(F)cc7F)cc6)c(C(N)=O)c5N)C4)c3)ccc2CC1C(=O)NC1CCCc2ccccc21)C(C)(C)C

> <Shape>
0.210

> <Color>
0.083

> <Negative vol penalty>
0.000

$$$$

  -OEChem-04052301263D

 88 97  0     1  0  0  0  0  0999 V2000
  -30.9411  -27.3691   16.5559 C   0  0  0  0  0  0  0  0  0  0  0  0
  -29.9176  -26.8001   17.3069 C   0  0  0  0  0  0  0  0  0  0  0  0
  -26.5022  -12.1118   21.2264 C   0  0  0  0  0  0  0  0  0  0  0  0
  -25.5299  -14.1317   20.3256 C   0  0  0  0  0  0  0  0  0  0  0  0
  -31.5893  -28.5140   17.0174 C   0  0  0  0  0  0  0  0  0  0  0  0
  -29.5424  -27.3751   18.5206 C   0  0  0  0  0  0  0  0  0  0  0  0
  -24.5160  -27.6978   19.0459 C   0  0  0  0  0  0  0  0  0  0  0  0
  -25.2392  -11.5212   21.2657 C   0  0  0  0  0  0  0  0  0  0  0  0
  -24.2668  -13.5412   20.3648 C   0  0  0  0  0  0  0  0  0  0  0  0
  -23.8363  -26.5320   19.3963 C   0  0  0  0  0  0  0  0  0  0  0  0
  -21.8898  -12.8949   22.6806 C   0  0  0  0  0  0  0  0  0  0  0  0
  -20.8344  -13.6549   23.1849 C   0  0  0  0  0  0  0  0  0  0  0  0
  -23.7525  -27.2773   21.6891 C   0  0  0  0  0  0  0  0  0  0  0  0
  -25.7559  -22.1586   21.2973 C   0  0  0  0  0  0  0  0  0  0  0  0
  -25.3822  -20.1393   20.0246 C   0  0  0  0  0  0  0  0  0  0  0  0
  -19.6808  -13.4551   21.0715 C   0  0  0  0  0  0  0  0  0  0  0  0
  -26.6476  -13.4170   20.7564 C   0  0  0  0  0  0  0  0  0  0  0  0
  -27.6159  -20.7217   20.7379 C   0  0  0  0  0  0  0  0  0  0  0  0
  -29.0785  -13.5800   20.0004 C   0  0  0  0  0  0  0  0  0  0  0  0
  -31.2154  -29.1089   18.2327 C   0  0  0  0  0  0  0  0  0  0  0  0
  -24.8292  -28.6586   20.0180 C   0  0  0  0  0  0  0  0  0  0  0  0
  -30.1871  -28.5282   18.9995 C   0  0  0  0  0  0  0  0  0  0  0  0
  -24.4340  -28.4555   21.3479 C   0  0  0  0  0  0  0  0  0  0  0  0
  -27.1204  -21.8738   21.3486 C   0  0  0  0  0  0  0  0  0  0  0  0
  -24.8868  -21.2913   20.6353 C   0  0  0  0  0  0  0  0  0  0  0  0
  -24.1215  -12.2359   20.8349 C   0  0  0  0  0  0  0  0  0  0  0  0
  -23.4570  -26.3203   20.7185 C   0  0  0  0  0  0  0  0  0  0  0  0
  -21.8407  -12.4150   21.3718 C   0  0  0  0  0  0  0  0  0  0  0  0
  -26.7468  -19.8544   20.0759 C   0  0  0  0  0  0  0  0  0  0  0  0
  -19.7300  -13.9350   22.3803 C   0  0  0  0  0  0  0  0  0  0  0  0
  -20.7362  -12.6951   20.5672 C   0  0  0  0  0  0  0  0  0  0  0  0
  -27.9520  -14.0277   20.7161 C   0  0  0  0  0  0  0  0  0  0  0  0
  -30.0574  -14.4985   20.2912 C   0  0  0  0  0  0  0  0  0  0  0  0
  -22.4942  -20.8023   19.9533 C   0  0  0  0  0  0  0  0  0  0  0  0
  -29.0422  -20.4190   20.7863 C   0  0  0  0  0  0  0  0  0  0  0  0
  -29.2268  -12.4362   19.1487 C   0  0  0  0  0  0  0  0  0  0  0  0
  -29.7435  -20.2300   22.0769 C   0  0  0  0  0  0  0  0  0  0  0  0
  -27.5246  -29.8857   21.1724 C   0  0  0  0  0  0  0  0  0  0  0  0
  -25.4912  -31.8460   22.7676 C   0  0  0  0  0  0  0  0  0  0  0  0
  -22.3685  -32.3623   24.0440 C   0  0  0  0  0  0  0  0  0  0  0  0
  -31.9771  -30.3185   18.7135 C   0  0  0  0  0  0  0  0  0  0  0  0
  -25.5393  -29.9232   19.6190 C   0  0  0  0  0  0  0  0  0  0  0  0
  -24.7284  -29.4655   22.4258 C   0  0  0  0  0  0  0  0  0  0  0  0
  -21.1663  -21.4876   20.1732 C   0  0  0  0  0  0  0  0  0  0  0  0
  -31.2668  -31.0821   19.8284 C   0  0  0  0  0  0  0  0  0  0  0  0
  -21.4351  -22.4105   21.3467 C   0  0  0  0  0  0  0  0  0  0  0  0
  -31.4655  -17.5349   23.6980 C   0  0  0  0  0  0  0  0  0  0  0  0
  -30.7575  -30.1180   20.8951 C   0  0  0  0  0  0  0  0  0  0  0  0
  -30.8336  -16.2888   23.0786 C   0  0  0  0  0  0  0  0  0  0  0  0
  -30.4495  -18.6633   23.8420 C   0  0  0  0  0  0  0  0  0  0  0  0
  -29.1299  -17.7793   21.9379 C   0  0  0  0  0  0  0  0  0  0  0  0
  -29.7348  -29.1370   20.3091 C   0  0  1  0  0  0  0  0  0  0  0  0
  -26.2595  -30.5967   20.7831 C   0  0  1  0  0  0  0  0  0  0  0  0
  -30.1324  -16.6271   21.7510 C   0  0  2  0  0  0  0  0  0  0  0  0
  -22.9056  -22.7802   21.1868 C   0  0  2  0  0  0  0  0  0  0  0  0
  -28.0271  -22.8206   22.0654 C   0  0  0  0  0  0  0  0  0  0  0  0
  -21.0182  -34.0438   25.3272 C   0  0  0  0  0  0  0  0  0  0  0  0
  -26.9115  -31.0206   25.3389 C   0  0  0  0  0  0  0  0  0  0  0  0
  -24.9725  -31.9457   26.6245 C   0  0  0  0  0  0  0  0  0  0  0  0
  -26.3501  -33.4532   25.1920 C   0  0  0  0  0  0  0  0  0  0  0  0
  -20.4410  -32.6833   21.8212 C   0  0  0  0  0  0  0  0  0  0  0  0
  -26.2481  -17.8975   18.8198 C   0  0  0  0  0  0  0  0  0  0  0  0
  -23.0684  -24.0127   20.2943 C   0  0  0  0  0  0  0  0  0  1  0  0
  -24.7833  -31.7965   24.1000 C   0  0  1  0  0  0  0  0  0  0  0  0
  -21.4245  -33.5473   23.9484 C   0  0  2  0  0  0  0  0  0  0  0  0
  -25.7503  -32.0339   25.2941 C   0  0  0  0  0  0  0  0  0  0  0  0
  -28.1918  -15.1438   21.4096 N   0  0  0  0  0  0  0  0  0  0  0  0
  -29.7804  -20.2949   19.7195 N   0  0  0  0  0  0  0  0  0  0  0  0
  -29.4803  -15.4051   21.1310 N   0  0  0  0  0  0  0  0  0  0  0  0
  -23.4859  -21.5837   20.5835 N   0  0  0  0  0  0  0  0  0  0  0  0
  -29.7770  -18.9342   22.5730 N   0  0  0  0  0  0  0  0  0  0  0  0
  -25.4304  -30.6830   21.9869 N   0  0  0  0  0  0  0  0  0  0  0  0
  -31.3470  -14.6110   19.9080 N   0  0  0  0  0  0  0  0  0  0  0  0
  -28.9491  -12.5800   17.7825 N   0  0  0  0  0  0  0  0  0  0  0  0
  -28.4491  -29.7821   20.1506 N   0  0  0  0  0  0  0  0  0  0  0  0
  -23.6891  -32.7579   24.0170 N   0  0  0  0  0  0  0  0  0  0  0  0
  -20.1910  -33.1682   23.2030 N   0  3  0  0  0  0  0  0  0  0  0  0
  -22.5945  -19.7716   19.3035 O   0  0  0  0  0  0  0  0  0  0  0  0
  -29.5789  -11.3156   19.5890 O   0  0  0  0  0  0  0  0  0  0  0  0
  -30.2210  -21.2430   22.5709 O   0  0  0  0  0  0  0  0  0  0  0  0
  -27.6532  -29.4638   22.3157 O   0  0  0  0  0  0  0  0  0  0  0  0
  -26.0706  -32.8810   22.4288 O   0  0  0  0  0  0  0  0  0  0  0  0
  -21.9738  -31.2021   24.1373 O   0  0  0  0  0  0  0  0  0  0  0  0
  -22.8888  -11.6599   20.8729 O   0  0  0  0  0  0  0  0  0  0  0  0
  -27.2100  -18.7236   19.4721 O   0  0  0  0  0  0  0  0  0  0  0  0
  -22.7940  -25.1830   21.0634 O   0  0  0  0  0  0  0  0  0  1  0  0
  -18.7159  -14.6636   22.8651 F   0  0  0  0  0  0  0  0  0  0  0  0
  -20.6828  -12.2358   19.3095 F   0  0  0  0  0  0  0  0  0  0  0  0
  1  2  1  0  0  0  0
  1  5  2  0  0  0  0
  2  6  2  0  0  0  0
  3  8  2  0  0  0  0
  3 17  1  0  0  0  0
  4  9  1  0  0  0  0
  4 17  2  0  0  0  0
  5 20  1  0  0  0  0
  6 22  1  0  0  0  0
  7 10  2  0  0  0  0
  7 21  1  0  0  0  0
  8 26  1  0  0  0  0
  9 26  2  0  0  0  0
 10 27  1  0  0  0  0
 11 12  2  0  0  0  0
 11 28  1  0  0  0  0
 12 30  1  0  0  0  0
 13 23  1  0  0  0  0
 13 27  2  0  0  0  0
 14 24  2  0  0  0  0
 14 25  1  0  0  0  0
 15 25  2  0  0  0  0
 15 29  1  0  0  0  0
 16 30  2  0  0  0  0
 16 31  1  0  0  0  0
 17 32  1  0  0  0  0
 18 24  1  0  0  0  0
 18 29  2  0  0  0  0
 18 35  1  0  0  0  0
 19 32  1  0  0  0  0
 19 33  2  0  0  0  0
 19 36  1  0  0  0  0
 20 22  2  0  0  0  0
 20 41  1  0  0  0  0
 21 23  2  0  0  0  0
 21 42  1  0  0  0  0
 22 52  1  0  0  0  0
 23 43  1  0  0  0  0
 24 56  1  0  0  0  0
 25 70  1  0  0  0  0
 26 84  1  0  0  0  0
 27 86  1  0  0  0  0
 28 31  2  0  0  0  0
 28 84  1  0  0  0  0
 29 85  1  0  0  0  0
 30 87  1  0  0  0  0
 31 88  1  0  0  0  0
 32 67  2  0  0  0  0
 33 69  1  0  0  0  0
 33 73  1  0  0  0  0
 34 44  1  0  0  0  0
 34 70  1  0  0  0  0
 34 78  2  0  0  0  0
 35 37  1  0  0  0  0
 35 68  2  0  0  0  0
 36 74  1  0  0  0  0
 36 79  2  0  0  0  0
 37 71  1  0  0  0  0
 37 80  2  0  0  0  0
 38 53  1  0  0  0  0
 38 75  1  0  0  0  0
 38 81  2  0  0  0  0
 39 64  1  0  0  0  0
 39 72  1  0  0  0  0
 39 82  2  0  0  0  0
 40 65  1  0  0  0  0
 40 76  1  0  0  0  0
 40 83  2  0  0  0  0
 41 45  1  0  0  0  0
 42 53  1  0  0  0  0
 43 72  1  0  0  0  0
 44 46  1  0  0  0  0
 45 48  1  0  0  0  0
 46 55  1  0  0  0  0
 47 49  1  0  0  0  0
 47 50  1  0  0  0  0
 48 52  1  0  0  0  0
 49 54  1  0  0  0  0
 50 71  1  0  0  0  0
 51 54  1  0  0  0  0
 51 71  1  0  0  0  0
 52 75  1  0  0  0  0
 53 72  1  0  0  0  0
 54 69  1  0  0  0  0
 55 63  1  0  0  0  0
 55 70  1  0  0  0  0
 57 65  1  0  0  0  0
 58 66  1  0  0  0  0
 59 66  1  0  0  0  0
 60 66  1  0  0  0  0
 61 77  1  0  0  0  0
 62 85  1  0  0  0  0
 63 86  1  0  0  0  0
 64 66  1  0  0  0  0
 64 76  1  0  0  0  0
 65 77  1  0  0  0  0
 67 69  1  0  0  0  0
M  CHG  1  77   1
M  ISO  4  35 100  37 100  63 101  86 101
M  END
> <Batch ID>
0110

> <Smiles>
CNC(C)C(=O)NC(C(=O)N1Cc2cc([101O:1][101CH2:1]C3CCC(=O)N3c3cc(C)c([100C:0](=N)[100C:0](=O)N4CCCC(n5nc(-c6ccc(Oc7ccc(F)cc7F)cc6)c(C(N)=O)c5N)C4)c(OC)c3)ccc2CC1C(=O)NC1CCCc2ccccc21)C(C)(C)C

> <Shape>
0.262

> <Color>
0.067

> <Negative vol penalty>
0.000

$$$$

  -OEChem-04052301263D

 88 97  0     1  0  0  0  0  0999 V2000
  -32.2647  -28.1021   20.2458 C   0  0  0  0  0  0  0  0  0  0  0  0
  -30.9242  -27.7918   20.4515 C   0  0  0  0  0  0  0  0  0  0  0  0
  -22.3265  -10.4404   20.6324 C   0  0  0  0  0  0  0  0  0  0  0  0
  -24.1476   -9.6189   21.9910 C   0  0  0  0  0  0  0  0  0  0  0  0
  -32.9011  -29.0237   21.0762 C   0  0  0  0  0  0  0  0  0  0  0  0
  -30.2196  -28.4022   21.4885 C   0  0  0  0  0  0  0  0  0  0  0  0
  -25.6341  -29.9961   20.0471 C   0  0  0  0  0  0  0  0  0  0  0  0
  -22.8025  -21.4029   21.0069 C   0  0  0  0  0  0  0  0  0  0  0  0
  -23.3782  -20.1783   21.3456 C   0  0  0  0  0  0  0  0  0  0  0  0
  -21.7609   -9.1655   20.6195 C   0  0  0  0  0  0  0  0  0  0  0  0
  -23.5819   -8.3439   21.9782 C   0  0  0  0  0  0  0  0  0  0  0  0
  -24.6302  -29.0345   19.9406 C   0  0  0  0  0  0  0  0  0  0  0  0
  -21.0773   -6.7158   23.5582 C   0  0  0  0  0  0  0  0  0  0  0  0
  -21.0210   -6.0212   24.7665 C   0  0  0  0  0  0  0  0  0  0  0  0
  -23.7756  -29.6968   22.0971 C   0  0  0  0  0  0  0  0  0  0  0  0
  -23.3288  -20.8006   23.6796 C   0  0  0  0  0  0  0  0  0  0  0  0
  -22.3729   -4.2587   23.8162 C   0  0  0  0  0  0  0  0  0  0  0  0
  -23.5199  -10.6671   21.3181 C   0  0  0  0  0  0  0  0  0  0  0  0
  -24.5299  -12.7364   20.2201 C   0  0  0  0  0  0  0  0  0  0  0  0
  -32.2013  -29.6530   22.1178 C   0  0  0  0  0  0  0  0  0  0  0  0
  -25.7230  -30.8092   21.1861 C   0  0  0  0  0  0  0  0  0  0  0  0
  -30.8476  -29.3322   22.3345 C   0  0  0  0  0  0  0  0  0  0  0  0
  -24.7801  -30.6696   22.2144 C   0  0  0  0  0  0  0  0  0  0  0  0
  -22.4900  -22.3264   22.0046 C   0  0  0  0  0  0  0  0  0  0  0  0
  -23.6413  -19.8772   22.6819 C   0  0  0  0  0  0  0  0  0  0  0  0
  -22.3886   -8.1172   21.2924 C   0  0  0  0  0  0  0  0  0  0  0  0
  -23.7025  -28.8828   20.9670 C   0  0  0  0  0  0  0  0  0  0  0  0
  -21.7813   -6.1819   22.4789 C   0  0  0  0  0  0  0  0  0  0  0  0
  -22.7531  -22.0252   23.3409 C   0  0  0  0  0  0  0  0  0  0  0  0
  -21.6689   -4.7927   24.8955 C   0  0  0  0  0  0  0  0  0  0  0  0
  -22.4291   -4.9533   22.6079 C   0  0  0  0  0  0  0  0  0  0  0  0
  -24.1050  -11.9838   21.3314 C   0  0  0  0  0  0  0  0  0  0  0  0
  -25.0068  -13.9060   20.7597 C   0  0  0  0  0  0  0  0  0  0  0  0
  -21.7439  -25.9768   21.8284 C   0  0  0  0  0  0  0  0  0  0  0  0
  -22.4652  -24.8321   21.9072 C   0  0  0  0  0  0  0  0  0  0  0  0
  -20.2827  -25.8707   21.4988 C   0  0  0  0  0  0  0  0  0  0  0  0
  -24.4966  -12.4077   18.8250 C   0  0  0  0  0  0  0  0  0  0  0  0
  -27.9004  -31.2567   23.4582 C   0  0  0  0  0  0  0  0  0  0  0  0
  -25.8811  -33.6203   24.3846 C   0  0  0  0  0  0  0  0  0  0  0  0
  -22.7104  -34.8827   24.3971 C   0  0  0  0  0  0  0  0  0  0  0  0
  -24.5516  -18.1771   24.3028 C   0  0  0  0  0  0  0  0  0  0  0  0
  -32.9445  -30.6072   23.0189 C   0  0  0  0  0  0  0  0  0  0  0  0
  -26.7958  -31.8599   21.2737 C   0  0  0  0  0  0  0  0  0  0  0  0
  -24.8197  -31.5314   23.4490 C   0  0  0  0  0  0  0  0  0  0  0  0
  -19.6617  -24.4976   21.4091 C   0  0  0  0  0  0  0  0  0  0  0  0
  -32.0266  -31.4896   23.8609 C   0  0  0  0  0  0  0  0  0  0  0  0
  -25.9672  -15.1648   25.5675 C   0  0  0  0  0  0  0  0  0  0  0  0
  -30.9223  -30.6541   24.5007 C   0  0  0  0  0  0  0  0  0  0  0  0
  -25.6439  -14.1306   24.4867 C   0  0  0  0  0  0  0  0  0  0  0  0
  -20.6492  -23.4655   20.8935 C   0  0  0  0  0  0  0  0  0  0  0  0
  -24.8333  -16.1731   25.7449 C   0  0  0  0  0  0  0  0  0  0  0  0
  -24.0730  -15.8052   23.4307 C   0  0  0  0  0  0  0  0  0  0  0  0
  -30.0429  -29.9918   23.4333 C   0  0  1  0  0  0  0  0  0  0  0  0
  -27.1013  -32.2837   22.7070 C   0  0  1  0  0  0  0  0  0  0  0  0
  -25.2129  -14.8069   23.1705 C   0  0  2  0  0  0  0  0  0  0  0  0
  -23.9565  -24.8954   22.1750 C   0  0  0  0  0  0  0  0  0  0  0  0
  -21.3614  -36.8111   25.2682 C   0  0  0  0  0  0  0  0  0  0  0  0
  -25.8915  -32.3677   27.1668 C   0  0  0  0  0  0  0  0  0  0  0  0
  -23.8535  -33.7181   27.7063 C   0  0  0  0  0  0  0  0  0  0  0  0
  -25.9964  -34.8663   27.1473 C   0  0  0  0  0  0  0  0  0  0  0  0
  -21.9962  -35.7677   21.6648 C   0  0  0  0  0  0  0  0  0  0  0  0
  -21.1572  -22.8245   24.9124 C   0  0  0  0  0  0  0  0  0  0  0  0
  -22.2443  -27.3707   22.0820 C   0  0  0  0  0  0  0  0  0  1  0  0
  -24.6949  -33.7098   25.3140 C   0  0  1  0  0  0  0  0  0  0  0  0
  -22.1791  -36.2742   24.1038 C   0  0  2  0  0  0  0  0  0  0  0  0
  -25.1092  -33.6478   26.8113 C   0  0  0  0  0  0  0  0  0  0  0  0
  -24.2952  -12.6217   22.4894 N   0  0  0  0  0  0  0  0  0  0  0  0
  -24.8450  -13.7874   22.1087 N   0  0  0  0  0  0  0  0  0  0  0  0
  -21.9050  -23.5680   21.6454 N   0  0  0  0  0  0  0  0  0  0  0  0
  -25.8912  -32.5401   23.4907 N   0  0  0  0  0  0  0  0  0  0  0  0
  -24.4816  -16.7764   24.4576 N   0  0  0  0  0  0  0  0  0  0  0  0
  -25.5445  -15.0141   20.2070 N   0  0  0  0  0  0  0  0  0  0  0  0
  -25.6035  -11.7548   18.2657 N   0  0  0  0  0  0  0  0  0  0  0  0
  -24.2257  -18.6330   23.0259 N   0  0  0  0  0  0  0  0  0  0  0  0
  -29.1157  -30.9526   22.8750 N   0  0  0  0  0  0  0  0  0  0  0  0
  -23.9761  -34.9239   24.9428 N   0  0  0  0  0  0  0  0  0  0  0  0
  -21.3128  -36.2529   22.8914 N   0  3  0  0  0  0  0  0  0  0  0  0
  -19.5928  -26.8804   21.3594 O   0  0  0  0  0  0  0  0  0  0  0  0
  -23.5211  -12.6993   18.0923 O   0  0  0  0  0  0  0  0  0  0  0  0
  -27.4485  -30.7768   24.4913 O   0  0  0  0  0  0  0  0  0  0  0  0
  -26.7625  -34.4811   24.4444 O   0  0  0  0  0  0  0  0  0  0  0  0
  -22.0656  -33.8616   24.1688 O   0  0  0  0  0  0  0  0  0  0  0  0
  -24.9029  -18.9153   25.2267 O   0  0  0  0  0  0  0  0  0  0  0  0
  -21.8368   -6.8731   21.2802 O   0  0  0  0  0  0  0  0  0  0  0  0
  -22.4556  -22.9144   24.3301 O   0  0  0  0  0  0  0  0  0  0  0  0
  -22.7220  -27.9446   20.8659 O   0  0  0  0  0  0  0  0  0  1  0  0
  -21.6161   -4.1265   26.0564 F   0  0  0  0  0  0  0  0  0  0  0  0
  -23.1080   -4.4358   21.5748 F   0  0  0  0  0  0  0  0  0  0  0  0
  1  2  1  0  0  0  0
  1  5  2  0  0  0  0
  2  6  2  0  0  0  0
  3 10  2  0  0  0  0
  3 18  1  0  0  0  0
  4 11  1  0  0  0  0
  4 18  2  0  0  0  0
  5 20  1  0  0  0  0
  6 22  1  0  0  0  0
  7 12  2  0  0  0  0
  7 21  1  0  0  0  0
  8  9  2  0  0  0  0
  8 24  1  0  0  0  0
  9 25  1  0  0  0  0
 10 26  1  0  0  0  0
 11 26  2  0  0  0  0
 12 27  1  0  0  0  0
 13 14  2  0  0  0  0
 13 28  1  0  0  0  0
 14 30  1  0  0  0  0
 15 23  1  0  0  0  0
 15 27  2  0  0  0  0
 16 25  2  0  0  0  0
 16 29  1  0  0  0  0
 17 30  2  0  0  0  0
 17 31  1  0  0  0  0
 18 32  1  0  0  0  0
 19 32  1  0  0  0  0
 19 33  2  0  0  0  0
 19 37  1  0  0  0  0
 20 22  2  0  0  0  0
 20 42  1  0  0  0  0
 21 23  2  0  0  0  0
 21 43  1  0  0  0  0
 22 53  1  0  0  0  0
 23 44  1  0  0  0  0
 24 29  2  0  0  0  0
 24 69  1  0  0  0  0
 25 74  1  0  0  0  0
 26 84  1  0  0  0  0
 27 86  1  0  0  0  0
 28 31  2  0  0  0  0
 28 84  1  0  0  0  0
 29 85  1  0  0  0  0
 30 87  1  0  0  0  0
 31 88  1  0  0  0  0
 32 67  2  0  0  0  0
 33 68  1  0  0  0  0
 33 72  1  0  0  0  0
 34 35  2  0  0  0  0
 34 36  1  0  0  0  0
 34 63  1  0  0  0  0
 35 56  1  0  0  0  0
 35 69  1  0  0  0  0
 36 45  1  0  0  0  0
 36 78  2  0  0  0  0
 37 73  1  0  0  0  0
 37 79  2  0  0  0  0
 38 54  1  0  0  0  0
 38 75  1  0  0  0  0
 38 80  2  0  0  0  0
 39 64  1  0  0  0  0
 39 70  1  0  0  0  0
 39 81  2  0  0  0  0
 40 65  1  0  0  0  0
 40 76  1  0  0  0  0
 40 82  2  0  0  0  0
 41 71  1  0  0  0  0
 41 74  1  0  0  0  0
 41 83  2  0  0  0  0
 42 46  1  0  0  0  0
 43 54  1  0  0  0  0
 44 70  1  0  0  0  0
 45 50  1  0  0  0  0
 46 48  1  0  0  0  0
 47 49  1  0  0  0  0
 47 51  1  0  0  0  0
 48 53  1  0  0  0  0
 49 55  1  0  0  0  0
 50 69  1  0  0  0  0
 51 71  1  0  0  0  0
 52 55  1  0  0  0  0
 52 71  1  0  0  0  0
 53 75  1  0  0  0  0
 54 70  1  0  0  0  0
 55 68  1  0  0  0  0
 57 65  1  0  0  0  0
 58 66  1  0  0  0  0
 59 66  1  0  0  0  0
 60 66  1  0  0  0  0
 61 77  1  0  0  0  0
 62 85  1  0  0  0  0
 63 86  1  0  0  0  0
 64 66  1  0  0  0  0
 64 76  1  0  0  0  0
 65 77  1  0  0  0  0
 67 68  1  0  0  0  0
M  CHG  1  77   1
M  ISO  4  41 100  63 101  74 100  86 101
M  END
> <Batch ID>
0110

> <Smiles>
CNC(C)C(=O)NC(C(=O)N1Cc2cc([101O:1][101CH2:1]C3=C(C)N(c4ccc([100NH:0][100C:0](=O)N5CCCC(n6nc(-c7ccc(Oc8ccc(F)cc8F)cc7)c(C(N)=O)c6N)C5)cc4OC)CCC3=O)ccc2CC1C(=O)NC1CCCc2ccccc21)C(C)(C)C

> <Shape>
0.233

> <Color>
0.115

> <Negative vol penalty>
0.000

$$$$

  -OEChem-04052301263D

 86 95  0     1  0  0  0  0  0999 V2000
  -28.4880  -35.6734   24.4780 C   0  0  0  0  0  0  0  0  0  0  0  0
  -28.6595  -34.8348   23.3813 C   0  0  0  0  0  0  0  0  0  0  0  0
  -24.7095  -14.0553   22.5473 C   0  0  0  0  0  0  0  0  0  0  0  0
  -25.2503  -14.8046   20.3150 C   0  0  0  0  0  0  0  0  0  0  0  0
  -27.8296  -35.2064   25.6149 C   0  0  0  0  0  0  0  0  0  0  0  0
  -28.1738  -33.5283   23.4213 C   0  0  0  0  0  0  0  0  0  0  0  0
  -25.8564  -30.3176   18.7493 C   0  0  0  0  0  0  0  0  0  0  0  0
  -23.8861  -13.0633   22.0149 C   0  0  0  0  0  0  0  0  0  0  0  0
  -24.4269  -13.8125   19.7825 C   0  0  0  0  0  0  0  0  0  0  0  0
  -26.4095  -29.3530   17.9084 C   0  0  0  0  0  0  0  0  0  0  0  0
  -24.2548  -10.0161   20.5966 C   0  0  0  0  0  0  0  0  0  0  0  0
  -24.3555   -8.7328   21.1339 C   0  0  0  0  0  0  0  0  0  0  0  0
  -25.5026  -27.6155   19.3148 C   0  0  0  0  0  0  0  0  0  0  0  0
  -27.9674  -23.5487   18.0584 C   0  0  0  0  0  0  0  0  0  0  0  0
  -27.3452  -24.3124   20.6684 C   0  0  0  0  0  0  0  0  0  0  0  0
  -22.0268   -8.8174   21.7720 C   0  0  0  0  0  0  0  0  0  0  0  0
  -25.3916  -14.9260   21.6973 C   0  0  0  0  0  0  0  0  0  0  0  0
  -27.6139  -15.8487   22.5444 C   0  0  0  0  0  0  0  0  0  0  0  0
  -27.3270  -33.8967   25.6651 C   0  0  0  0  0  0  0  0  0  0  0  0
  -25.1302  -29.9379   19.8873 C   0  0  0  0  0  0  0  0  0  0  0  0
  -27.5093  -33.0430   24.5604 C   0  0  0  0  0  0  0  0  0  0  0  0
  -24.9391  -28.5773   20.1672 C   0  0  0  0  0  0  0  0  0  0  0  0
  -28.4593  -24.7496   18.5697 C   0  0  0  0  0  0  0  0  0  0  0  0
  -27.1643  -22.7296   18.8520 C   0  0  0  0  0  0  0  0  0  0  0  0
  -28.1483  -25.1314   19.8747 C   0  0  0  0  0  0  0  0  0  0  0  0
  -26.8533  -23.1115   20.1571 C   0  0  0  0  0  0  0  0  0  0  0  0
  -23.7448  -12.9418   20.6325 C   0  0  0  0  0  0  0  0  0  0  0  0
  -26.2351  -28.0017   18.1926 C   0  0  0  0  0  0  0  0  0  0  0  0
  -23.0402  -10.7001   20.6471 C   0  0  0  0  0  0  0  0  0  0  0  0
  -23.2415   -8.1334   21.7215 C   0  0  0  0  0  0  0  0  0  0  0  0
  -21.9262  -10.1007   21.2348 C   0  0  0  0  0  0  0  0  0  0  0  0
  -26.2418  -15.9514   22.2467 C   0  0  0  0  0  0  0  0  0  0  0  0
  -27.9512  -17.0844   23.0400 C   0  0  0  0  0  0  0  0  0  0  0  0
  -30.6117  -25.9634   18.0015 C   0  0  0  0  0  0  0  0  0  0  0  0
  -28.5040  -14.7357   22.3870 C   0  0  0  0  0  0  0  0  0  0  0  0
  -25.4768  -30.3708   23.0172 C   0  0  0  0  0  0  0  0  0  0  0  0
  -22.5642  -28.9484   23.1422 C   0  0  0  0  0  0  0  0  0  0  0  0
  -20.2805  -26.8876   21.6641 C   0  0  0  0  0  0  0  0  0  0  0  0
  -25.6486  -22.5480   22.2966 C   0  0  0  0  0  0  0  0  0  0  0  0
  -26.6640  -33.4218   26.9338 C   0  0  0  0  0  0  0  0  0  0  0  0
  -24.5172  -30.9905   20.7697 C   0  0  0  0  0  0  0  0  0  0  0  0
  -24.1506  -28.1172   21.3652 C   0  0  0  0  0  0  0  0  0  0  0  0
  -31.0794  -26.8086   16.8404 C   0  0  0  0  0  0  0  0  0  0  0  0
  -25.8492  -32.1435   26.7536 C   0  0  0  0  0  0  0  0  0  0  0  0
  -30.1051  -26.4565   15.7323 C   0  0  0  0  0  0  0  0  0  0  0  0
  -26.0779  -20.8195   25.3797 C   0  0  0  0  0  0  0  0  0  0  0  0
  -26.6447  -31.1105   25.9618 C   0  0  0  0  0  0  0  0  0  0  0  0
  -26.2996  -19.3666   24.9529 C   0  0  0  0  0  0  0  0  0  0  0  0
  -25.0613  -21.5250   24.4837 C   0  0  0  0  0  0  0  0  0  0  0  0
  -25.5664  -19.9974   22.6180 C   0  0  0  0  0  0  0  0  0  0  0  0
  -26.9746  -31.6273   24.5562 C   0  0  1  0  0  0  0  0  0  0  0  0
  -24.2327  -30.4933   22.1836 C   0  0  1  0  0  0  0  0  0  0  0  0
  -26.6307  -19.2647   23.4511 C   0  0  2  0  0  0  0  0  0  0  0  0
  -28.8116  -26.1401   16.4747 C   0  0  2  0  0  0  0  0  0  0  0  0
  -18.0082  -25.8853   22.0240 C   0  0  0  0  0  0  0  0  0  0  0  0
  -23.7564  -26.9664   25.1322 C   0  0  0  0  0  0  0  0  0  0  0  0
  -21.7856  -25.4774   24.7234 C   0  0  0  0  0  0  0  0  0  0  0  0
  -21.4491  -27.7500   25.6954 C   0  0  0  0  0  0  0  0  0  0  0  0
  -19.1893  -28.2048   19.2488 C   0  0  0  0  0  0  0  0  0  0  0  0
  -27.9762  -27.4046   16.6865 C   0  0  0  0  0  0  0  0  0  1  0  0
  -22.0734  -27.5253   23.2557 C   0  0  1  0  0  0  0  0  0  0  0  0
  -18.7897  -27.0438   21.4240 C   0  0  2  0  0  0  0  0  0  0  0  0
  -22.2827  -26.9381   24.6801 C   0  0  0  0  0  0  0  0  0  0  0  0
  -25.7417  -17.1571   22.5296 N   0  0  0  0  0  0  0  0  0  0  0  0
  -26.8052  -17.8233   23.0104 N   0  0  0  0  0  0  0  0  0  0  0  0
  -29.2818  -25.5737   17.7359 N   0  0  0  0  0  0  0  0  0  0  0  0
  -23.5764  -29.1845   22.2011 N   0  0  0  0  0  0  0  0  0  0  0  0
  -25.4424  -21.3901   23.0761 N   0  0  0  0  0  0  0  0  0  0  0  0
  -26.6762  -21.5177   18.3138 N   0  0  0  0  0  0  0  0  0  0  0  0
  -28.6366  -26.3433   20.4129 N   0  0  0  0  0  0  0  0  0  0  0  0
  -29.1133  -17.6002   23.4938 N   0  0  0  0  0  0  0  0  0  0  0  0
  -27.9931  -13.5405   21.8629 N   0  0  0  0  0  0  0  0  0  0  0  0
  -26.0395  -22.2960   20.9819 N   0  0  0  0  0  0  0  0  0  0  0  0
  -25.8156  -31.5260   23.6956 N   0  0  0  0  0  0  0  0  0  0  0  0
  -20.6836  -27.5362   22.8122 N   0  0  0  0  0  0  0  0  0  0  0  0
  -18.5032  -27.0970   19.9624 N   0  3  0  0  0  0  0  0  0  0  0  0
  -31.3229  -25.7381   18.9701 O   0  0  0  0  0  0  0  0  0  0  0  0
  -29.7128  -14.7941   22.7172 O   0  0  0  0  0  0  0  0  0  0  0  0
  -26.0837  -29.3065   23.0441 O   0  0  0  0  0  0  0  0  0  0  0  0
  -22.0628  -29.8199   23.8569 O   0  0  0  0  0  0  0  0  0  0  0  0
  -21.0134  -26.2507   20.9107 O   0  0  0  0  0  0  0  0  0  0  0  0
  -25.5165  -23.6801   22.7687 O   0  0  0  0  0  0  0  0  0  0  0  0
  -22.9417  -11.9738   20.1126 O   0  0  0  0  0  0  0  0  0  0  0  0
  -26.7745  -27.0581   17.3737 O   0  0  0  0  0  0  0  0  0  1  0  0
  -23.3378   -6.9005   22.2360 F   0  0  0  0  0  0  0  0  0  0  0  0
  -20.7563  -10.7524   21.2852 F   0  0  0  0  0  0  0  0  0  0  0  0
  1  2  1  0  0  0  0
  1  5  2  0  0  0  0
  2  6  2  0  0  0  0
  3  8  2  0  0  0  0
  3 17  1  0  0  0  0
  4  9  1  0  0  0  0
  4 17  2  0  0  0  0
  5 19  1  0  0  0  0
  6 21  1  0  0  0  0
  7 10  2  0  0  0  0
  7 20  1  0  0  0  0
  8 27  1  0  0  0  0
  9 27  2  0  0  0  0
 10 28  1  0  0  0  0
 11 12  2  0  0  0  0
 11 29  1  0  0  0  0
 12 30  1  0  0  0  0
 13 22  1  0  0  0  0
 13 28  2  0  0  0  0
 14 23  1  0  0  0  0
 14 24  2  0  0  0  0
 15 25  1  0  0  0  0
 15 26  2  0  0  0  0
 16 30  2  0  0  0  0
 16 31  1  0  0  0  0
 17 32  1  0  0  0  0
 18 32  1  0  0  0  0
 18 33  2  0  0  0  0
 18 35  1  0  0  0  0
 19 21  2  0  0  0  0
 19 40  1  0  0  0  0
 20 22  2  0  0  0  0
 20 41  1  0  0  0  0
 21 51  1  0  0  0  0
 22 42  1  0  0  0  0
 23 25  2  0  0  0  0
 23 66  1  0  0  0  0
 24 26  1  0  0  0  0
 24 69  1  0  0  0  0
 25 70  1  0  0  0  0
 26 73  1  0  0  0  0
 27 83  1  0  0  0  0
 28 84  1  0  0  0  0
 29 31  2  0  0  0  0
 29 83  1  0  0  0  0
 30 85  1  0  0  0  0
 31 86  1  0  0  0  0
 32 64  2  0  0  0  0
 33 65  1  0  0  0  0
 33 71  1  0  0  0  0
 34 43  1  0  0  0  0
 34 66  1  0  0  0  0
 34 77  2  0  0  0  0
 35 72  1  0  0  0  0
 35 78  2  0  0  0  0
 36 52  1  0  0  0  0
 36 74  1  0  0  0  0
 36 79  2  0  0  0  0
 37 61  1  0  0  0  0
 37 67  1  0  0  0  0
 37 80  2  0  0  0  0
 38 62  1  0  0  0  0
 38 75  1  0  0  0  0
 38 81  2  0  0  0  0
 39 68  1  0  0  0  0
 39 73  1  0  0  0  0
 39 82  2  0  0  0  0
 40 44  1  0  0  0  0
 41 52  1  0  0  0  0
 42 67  1  0  0  0  0
 43 45  1  0  0  0  0
 44 47  1  0  0  0  0
 45 54  1  0  0  0  0
 46 48  1  0  0  0  0
 46 49  1  0  0  0  0
 47 51  1  0  0  0  0
 48 53  1  0  0  0  0
 49 68  1  0  0  0  0
 50 53  1  0  0  0  0
 50 68  1  0  0  0  0
 51 74  1  0  0  0  0
 52 67  1  0  0  0  0
 53 65  1  0  0  0  0
 54 60  1  0  0  0  0
 54 66  1  0  0  0  0
 55 62  1  0  0  0  0
 56 63  1  0  0  0  0
 57 63  1  0  0  0  0
 58 63  1  0  0  0  0
 59 76  1  0  0  0  0
 60 84  1  0  0  0  0
 61 63  1  0  0  0  0
 61 75  1  0  0  0  0
 62 76  1  0  0  0  0
 64 65  1  0  0  0  0
M  CHG  1  76   1
M  ISO  4  39 100  60 101  73 100  84 101
M  END
> <Batch ID>
0110

> <Smiles>
CNC(C)C(=O)NC(C(=O)N1Cc2cc([101O:1][101CH2:1]C3CCC(=O)N3c3cc(N)c([100NH:0][100C:0](=O)N4CCCC(n5nc(-c6ccc(Oc7ccc(F)cc7F)cc6)c(C(N)=O)c5N)C4)cc3N)ccc2CC1C(=O)NC1CCCc2ccccc21)C(C)(C)C

> <Shape>
0.257

> <Color>
0.055

> <Negative vol penalty>
0.000

$$$$

  -OEChem-04052301263D

 86 94  0     1  0  0  0  0  0999 V2000
  -17.3441  -26.0870   25.9551 C   0  0  0  0  0  0  0  0  0  0  0  0
  -18.0880  -25.0296   25.4412 C   0  0  0  0  0  0  0  0  0  0  0  0
  -26.0463  -12.8161   19.7190 C   0  0  0  0  0  0  0  0  0  0  0  0
  -24.5163  -12.8448   21.5886 C   0  0  0  0  0  0  0  0  0  0  0  0
  -17.3400  -27.3179   25.3004 C   0  0  0  0  0  0  0  0  0  0  0  0
  -18.8273  -25.2023   24.2716 C   0  0  0  0  0  0  0  0  0  0  0  0
  -24.8873  -23.0340   21.1264 C   0  0  0  0  0  0  0  0  0  0  0  0
  -25.5234  -11.5894   19.3100 C   0  0  0  0  0  0  0  0  0  0  0  0
  -23.9935  -11.6181   21.1796 C   0  0  0  0  0  0  0  0  0  0  0  0
  -25.3424  -22.4867   19.9277 C   0  0  0  0  0  0  0  0  0  0  0  0
  -24.8605   -8.3552   21.3613 C   0  0  0  0  0  0  0  0  0  0  0  0
  -24.6575   -7.3795   22.3371 C   0  0  0  0  0  0  0  0  0  0  0  0
  -25.3234  -24.6809   18.9255 C   0  0  0  0  0  0  0  0  0  0  0  0
  -22.2998   -7.3436   21.8108 C   0  0  0  0  0  0  0  0  0  0  0  0
  -25.5428  -13.4439   20.8584 C   0  0  0  0  0  0  0  0  0  0  0  0
  -25.6419  -15.9926   20.9016 C   0  0  0  0  0  0  0  0  0  0  0  0
  -18.0874  -27.5086   24.1275 C   0  0  0  0  0  0  0  0  0  0  0  0
  -24.6359  -24.4097   21.2306 C   0  0  0  0  0  0  0  0  0  0  0  0
  -18.8322  -26.4365   23.5999 C   0  0  0  0  0  0  0  0  0  0  0  0
  -24.8675  -25.2436   20.1274 C   0  0  0  0  0  0  0  0  0  0  0  0
  -24.4970  -10.9904   20.0402 C   0  0  0  0  0  0  0  0  0  0  0  0
  -25.5578  -23.3097   18.8261 C   0  0  0  0  0  0  0  0  0  0  0  0
  -23.7831   -8.8253   20.6102 C   0  0  0  0  0  0  0  0  0  0  0  0
  -23.3772   -6.8737   22.5619 C   0  0  0  0  0  0  0  0  0  0  0  0
  -22.5028   -8.3194   20.8350 C   0  0  0  0  0  0  0  0  0  0  0  0
  -26.0828  -14.7108   21.2818 C   0  0  0  0  0  0  0  0  0  0  0  0
  -31.1420  -21.2398   20.8206 C   0  0  0  0  0  0  0  0  0  0  0  0
  -31.8724  -22.1569   20.0943 C   0  0  0  0  0  0  0  0  0  0  0  0
  -26.4752  -16.8549   21.5713 C   0  0  0  0  0  0  0  0  0  0  0  0
  -29.6450  -21.7158   19.2902 C   0  0  0  0  0  0  0  0  0  0  0  0
  -24.5746  -16.3699   20.0218 C   0  0  0  0  0  0  0  0  0  0  0  0
  -31.6481  -20.5384   22.0284 C   0  0  0  0  0  0  0  0  0  0  0  0
  -22.0656  -26.1812   21.8299 C   0  0  0  0  0  0  0  0  0  0  0  0
  -24.2176  -28.6083   21.8259 C   0  0  0  0  0  0  0  0  0  0  0  0
  -27.2479  -29.7918   20.7946 C   0  0  0  0  0  0  0  0  0  0  0  0
  -27.2905  -21.0520   18.6897 C   0  0  0  0  0  0  0  0  0  0  0  0
  -31.5018  -18.4197   23.2986 C   0  0  0  0  0  0  0  0  0  0  0  0
  -18.0142  -28.8433   23.4290 C   0  0  0  0  0  0  0  0  0  0  0  0
  -24.1706  -24.9885   22.5387 C   0  0  0  0  0  0  0  0  0  0  0  0
  -24.6322  -26.7298   20.1935 C   0  0  0  0  0  0  0  0  0  0  0  0
  -19.1226  -29.0542   22.4007 C   0  0  0  0  0  0  0  0  0  0  0  0
  -29.8389  -15.9927   25.2585 C   0  0  0  0  0  0  0  0  0  0  0  0
  -19.2730  -27.8199   21.5172 C   0  0  0  0  0  0  0  0  0  0  0  0
  -28.6708  -15.5516   24.3725 C   0  0  0  0  0  0  0  0  0  0  0  0
  -31.1029  -16.2562   24.4414 C   0  0  0  0  0  0  0  0  0  0  0  0
  -29.7692  -16.7347   22.4289 C   0  0  0  0  0  0  0  0  0  0  0  0
  -19.6667  -26.5921   22.3471 C   0  0  1  0  0  0  0  0  0  0  0  0
  -23.4565  -26.3271   22.3794 C   0  0  1  0  0  0  0  0  0  0  0  0
  -28.4539  -16.5248   23.1964 C   0  0  1  0  0  0  0  0  0  0  0  0
  -28.7145  -31.8244   20.9178 C   0  0  0  0  0  0  0  0  0  0  0  0
  -26.7280  -21.0310   16.2225 C   0  0  0  0  0  0  0  0  0  0  0  0
  -24.8995  -20.6709   17.9234 C   0  0  0  0  0  0  0  0  0  0  0  0
  -22.4504  -30.0053   19.7679 C   0  0  0  0  0  0  0  0  0  0  0  0
  -24.3788  -31.5111   19.2370 C   0  0  0  0  0  0  0  0  0  0  0  0
  -23.3923  -31.5115   21.5282 C   0  0  0  0  0  0  0  0  0  0  0  0
  -29.4031  -28.2964   22.1648 C   0  0  0  0  0  0  0  0  0  0  0  0
  -33.2465  -22.6594   20.2966 C   0  0  0  0  0  0  0  0  0  0  0  0
  -24.7803  -29.5365   20.7767 C   0  0  1  0  0  0  0  0  0  0  0  0
  -28.3684  -30.4847   21.5488 C   0  0  2  0  0  0  0  0  0  0  0  0
  -26.2257  -21.3689   17.6247 C   0  0  0  0  0  0  0  0  0  1  0  0
  -23.7531  -30.6128   20.3253 C   0  0  0  0  0  0  0  0  0  0  0  0
  -27.1160  -14.7507   22.1273 N   0  0  0  0  0  0  0  0  0  0  0  0
  -29.8644  -20.9859   20.3613 N   0  0  0  0  0  0  0  0  0  0  0  0
  -27.3314  -16.0679   22.2839 N   0  0  0  0  0  0  0  0  0  0  0  0
  -24.1715  -27.2472   21.4926 N   0  0  0  0  0  0  0  0  0  0  0  0
  -30.8156  -17.1940   23.3546 N   0  0  0  0  0  0  0  0  0  0  0  0
  -26.5518  -18.2020   21.6142 N   0  0  0  0  0  0  0  0  0  0  0  0
  -23.8176  -15.3573   19.4170 N   0  0  0  0  0  0  0  0  0  0  0  0
  -28.4696  -21.7651   18.5024 N   0  0  0  0  0  0  0  0  0  0  0  0
  -31.1256  -19.2635   22.2476 N   0  0  0  0  0  0  0  0  0  0  0  0
  -21.0748  -26.6365   22.6787 N   0  0  0  0  0  0  0  0  0  0  0  0
  -26.0128  -30.0832   21.3339 N   0  0  0  0  0  0  0  0  0  0  0  0
  -33.3254  -23.8733   21.1652 N   0  3  0  0  0  0  0  0  0  0  0  0
  -29.5934  -29.6359   21.5512 N   0  3  0  0  0  0  0  0  0  0  0  0
  -24.3107  -17.5694   19.7664 O   0  0  0  0  0  0  0  0  0  0  0  0
  -32.5007  -21.0840   22.7235 O   0  0  0  0  0  0  0  0  0  0  0  0
  -21.9035  -25.6930   20.7177 O   0  0  0  0  0  0  0  0  0  0  0  0
  -23.8398  -29.0729   22.9043 O   0  0  0  0  0  0  0  0  0  0  0  0
  -27.4479  -29.0678   19.8218 O   0  0  0  0  0  0  0  0  0  0  0  0
  -27.0602  -20.2424   19.5857 O   0  0  0  0  0  0  0  0  0  0  0  0
  -32.3489  -18.7509   24.1341 O   0  0  0  0  0  0  0  0  0  0  0  0
  -23.9864   -9.7934   19.6412 O   0  0  0  0  0  0  0  0  0  0  0  0
  -26.0015  -22.7779   17.6547 O   0  0  0  0  0  0  0  0  0  1  0  0
  -23.1826   -5.9355   23.4980 F   0  0  0  0  0  0  0  0  0  0  0  0
  -21.4641   -8.7662   20.1158 F   0  0  0  0  0  0  0  0  0  0  0  0
  -30.9319  -22.7297   18.7794 S   0  0  0  0  0  0  0  0  0  0  0  0
  1  2  1  0  0  0  0
  1  5  2  0  0  0  0
  2  6  2  0  0  0  0
  3  8  2  0  0  0  0
  3 15  1  0  0  0  0
  4  9  1  0  0  0  0
  4 15  2  0  0  0  0
  5 17  1  0  0  0  0
  6 19  1  0  0  0  0
  7 10  2  0  0  0  0
  7 18  1  0  0  0  0
  8 21  1  0  0  0  0
  9 21  2  0  0  0  0
 10 22  1  0  0  0  0
 11 12  2  0  0  0  0
 11 23  1  0  0  0  0
 12 24  1  0  0  0  0
 13 20  1  0  0  0  0
 13 22  2  0  0  0  0
 14 24  2  0  0  0  0
 14 25  1  0  0  0  0
 15 26  1  0  0  0  0
 16 26  1  0  0  0  0
 16 29  2  0  0  0  0
 16 31  1  0  0  0  0
 17 19  2  0  0  0  0
 17 38  1  0  0  0  0
 18 20  2  0  0  0  0
 18 39  1  0  0  0  0
 19 47  1  0  0  0  0
 20 40  1  0  0  0  0
 21 82  1  0  0  0  0
 22 83  1  0  0  0  0
 23 25  2  0  0  0  0
 23 82  1  0  0  0  0
 24 84  1  0  0  0  0
 25 85  1  0  0  0  0
 26 62  2  0  0  0  0
 27 28  2  0  0  0  0
 27 32  1  0  0  0  0
 27 63  1  0  0  0  0
 28 57  1  0  0  0  0
 28 86  1  0  0  0  0
 29 64  1  0  0  0  0
 29 67  1  0  0  0  0
 30 63  2  0  0  0  0
 30 69  1  0  0  0  0
 30 86  1  0  0  0  0
 31 68  1  0  0  0  0
 31 75  2  0  0  0  0
 32 70  1  0  0  0  0
 32 76  2  0  0  0  0
 33 48  1  0  0  0  0
 33 71  1  0  0  0  0
 33 77  2  0  0  0  0
 34 58  1  0  0  0  0
 34 65  1  0  0  0  0
 34 78  2  0  0  0  0
 35 59  1  0  0  0  0
 35 72  1  0  0  0  0
 35 79  2  0  0  0  0
 36 60  1  0  0  0  0
 36 69  1  0  0  0  0
 36 80  2  0  0  0  0
 37 66  1  0  0  0  0
 37 70  1  0  0  0  0
 37 81  2  0  0  0  0
 38 41  1  0  0  0  0
 39 48  1  0  0  0  0
 40 65  1  0  0  0  0
 41 43  1  0  0  0  0
 42 44  1  0  0  0  0
 42 45  1  0  0  0  0
 43 47  1  0  0  0  0
 44 49  1  0  0  0  0
 45 66  1  0  0  0  0
 46 49  1  0  0  0  0
 46 66  1  0  0  0  0
 47 71  1  0  0  0  0
 48 65  1  0  0  0  0
 49 64  1  0  0  0  0
 50 59  1  0  0  0  0
 51 60  1  0  0  0  0
 52 60  1  0  0  0  0
 53 61  1  0  0  0  0
 54 61  1  0  0  0  0
 55 61  1  0  0  0  0
 56 74  1  0  0  0  0
 57 73  1  0  0  0  0
 58 61  1  0  0  0  0
 58 72  1  0  0  0  0
 59 74  1  0  0  0  0
 60 83  1  0  0  0  0
 62 64  1  0  0  0  0
M  CHG  2  73   1  74   1
M  ISO  4  37 100  60 101  70 100  83 101
M  END
> <Batch ID>
0110

> <Smiles>
CNC(C)C(=O)NC(C(=O)N1Cc2cc([101O:1][101C:1](C)(C)C(=O)Nc3nc(C(=O)[100NH:0][100C:0](=O)N4CCCC(n5nc(-c6ccc(Oc7ccc(F)cc7F)cc6)c(C(N)=O)c5N)C4)c(CN)s3)ccc2CC1C(=O)NC1CCCc2ccccc21)C(C)(C)C

> <Shape>
0.221

> <Color>
0.047

> <Negative vol penalty>
0.000

$$$$

  -OEChem-04052301263D

 87 95  0     1  0  0  0  0  0999 V2000
  -28.6383  -35.8999   20.9216 C   0  0  0  0  0  0  0  0  0  0  0  0
  -28.7814  -34.5280   21.1029 C   0  0  0  0  0  0  0  0  0  0  0  0
  -23.3421  -10.4256   22.3447 C   0  0  0  0  0  0  0  0  0  0  0  0
  -22.4146  -10.4046   20.1139 C   0  0  0  0  0  0  0  0  0  0  0  0
  -27.4835  -36.5437   21.3641 C   0  0  0  0  0  0  0  0  0  0  0  0
  -27.7701  -33.7993   21.7279 C   0  0  0  0  0  0  0  0  0  0  0  0
  -26.7248  -29.4683   19.3206 C   0  0  0  0  0  0  0  0  0  0  0  0
  -22.9228   -9.1085   22.5315 C   0  0  0  0  0  0  0  0  0  0  0  0
  -21.9953   -9.0874   20.3007 C   0  0  0  0  0  0  0  0  0  0  0  0
  -27.6030  -28.4032   19.5160 C   0  0  0  0  0  0  0  0  0  0  0  0
  -23.9594   -6.0147   21.6445 C   0  0  0  0  0  0  0  0  0  0  0  0
  -24.8630   -5.1224   22.2214 C   0  0  0  0  0  0  0  0  0  0  0  0
  -26.0777  -27.4478   21.1221 C   0  0  0  0  0  0  0  0  0  0  0  0
  -24.0712  -21.9377   18.8758 C   0  0  0  0  0  0  0  0  0  0  0  0
  -26.6616  -20.9112   18.7386 C   0  0  0  0  0  0  0  0  0  0  0  0
  -23.3209   -4.7373   24.0410 C   0  0  0  0  0  0  0  0  0  0  0  0
  -23.0880  -11.0737   21.1359 C   0  0  0  0  0  0  0  0  0  0  0  0
  -24.7554  -12.8686   20.4248 C   0  0  0  0  0  0  0  0  0  0  0  0
  -26.4533  -35.8209   21.9861 C   0  0  0  0  0  0  0  0  0  0  0  0
  -25.5193  -29.5368   20.0339 C   0  0  0  0  0  0  0  0  0  0  0  0
  -26.6009  -34.4342   22.1803 C   0  0  0  0  0  0  0  0  0  0  0  0
  -25.1847  -28.5135   20.9321 C   0  0  0  0  0  0  0  0  0  0  0  0
  -25.1335  -22.6485   19.4341 C   0  0  0  0  0  0  0  0  0  0  0  0
  -24.3040  -20.7135   18.2490 C   0  0  0  0  0  0  0  0  0  0  0  0
  -26.4287  -22.1353   19.3654 C   0  0  0  0  0  0  0  0  0  0  0  0
  -22.2494   -8.4394   21.5095 C   0  0  0  0  0  0  0  0  0  0  0  0
  -27.2809  -27.3943   20.4190 C   0  0  0  0  0  0  0  0  0  0  0  0
  -22.7366   -6.2684   22.2658 C   0  0  0  0  0  0  0  0  0  0  0  0
  -25.5992  -20.2003   18.1803 C   0  0  0  0  0  0  0  0  0  0  0  0
  -24.5438   -4.4837   23.4196 C   0  0  0  0  0  0  0  0  0  0  0  0
  -22.4173   -5.6297   23.4640 C   0  0  0  0  0  0  0  0  0  0  0  0
  -23.5204  -12.4345   20.9426 C   0  0  0  0  0  0  0  0  0  0  0  0
  -24.6734  -14.2395   20.4450 C   0  0  0  0  0  0  0  0  0  0  0  0
  -28.1073  -23.6688   19.1305 C   0  0  0  0  0  0  0  0  0  0  0  0
  -25.8765  -12.1012   19.9664 C   0  0  0  0  0  0  0  0  0  0  0  0
  -24.2658  -31.5711   22.1300 C   0  0  0  0  0  0  0  0  0  0  0  0
  -21.6500  -29.6790   21.8132 C   0  0  0  0  0  0  0  0  0  0  0  0
  -20.3659  -26.6233   21.0005 C   0  0  0  0  0  0  0  0  0  0  0  0
  -21.8473  -18.9602   19.5107 C   0  0  0  0  0  0  0  0  0  0  0  0
  -25.2440  -36.5682   22.4901 C   0  0  0  0  0  0  0  0  0  0  0  0
  -24.5705  -30.6785   19.7920 C   0  0  0  0  0  0  0  0  0  0  0  0
  -23.8936  -28.5298   21.7076 C   0  0  0  0  0  0  0  0  0  0  0  0
  -24.0566  -35.6626   22.8064 C   0  0  0  0  0  0  0  0  0  0  0  0
  -21.2806  -17.3031   22.6106 C   0  0  0  0  0  0  0  0  0  0  0  0
  -24.5089  -34.4533   23.6186 C   0  0  0  0  0  0  0  0  0  0  0  0
  -21.9089  -15.9232   22.4079 C   0  0  0  0  0  0  0  0  0  0  0  0
  -20.6200  -17.8156   21.3328 C   0  0  0  0  0  0  0  0  0  0  0  0
  -22.1214  -16.4431   19.9415 C   0  0  0  0  0  0  0  0  0  0  0  0
  -25.5152  -33.6052   22.8315 C   0  0  1  0  0  0  0  0  0  0  0  0
  -23.6072  -30.9108   20.9519 C   0  0  1  0  0  0  0  0  0  0  0  0
  -22.8486  -15.9087   21.1873 C   0  0  2  0  0  0  0  0  0  0  0  0
  -24.8689  -23.8444   21.6219 C   0  0  0  0  0  0  0  0  0  0  0  0
  -30.5017  -24.1257   18.7760 C   0  0  0  0  0  0  0  0  0  0  0  0
  -18.1965  -25.3680   20.8760 C   0  0  0  0  0  0  0  0  0  0  0  0
  -21.6459  -29.3897   24.8507 C   0  0  0  0  0  0  0  0  0  0  0  0
  -20.1111  -27.4287   24.5921 C   0  0  0  0  0  0  0  0  0  0  0  0
  -19.3833  -29.6891   23.8282 C   0  0  0  0  0  0  0  0  0  0  0  0
  -20.6554  -26.1806   18.0886 C   0  0  0  0  0  0  0  0  0  0  0  0
  -27.1971  -18.5565   17.5474 C   0  0  0  0  0  0  0  0  0  0  0  0
  -24.8595  -23.9570   20.1005 C   0  0  0  0  0  0  0  0  0  0  0  0
  -23.1549  -19.9662   17.6567 C   0  0  0  0  0  0  0  0  0  0  0  0
  -28.9510  -25.9688   19.5053 C   0  0  0  0  0  0  0  0  0  1  0  0
  -29.2840  -24.4835   19.6191 C   0  0  1  0  0  0  0  0  0  0  0  0
  -21.1376  -28.4388   22.5048 C   0  0  1  0  0  0  0  0  0  0  0  0
  -19.1980  -26.2242   20.1166 C   0  0  2  0  0  0  0  0  0  0  0  0
  -20.5948  -28.7370   23.9309 C   0  0  0  0  0  0  0  0  0  0  0  0
  -22.7131  -13.4475   21.2681 N   0  0  0  0  0  0  0  0  0  0  0  0
  -27.5108  -22.8377   19.9217 N   0  0  0  0  0  0  0  0  0  0  0  0
  -23.4424  -14.5318   20.9542 N   0  0  0  0  0  0  0  0  0  0  0  0
  -23.0018  -29.6704   21.4409 N   0  0  0  0  0  0  0  0  0  0  0  0
  -21.5647  -17.7775   20.2138 N   0  0  0  0  0  0  0  0  0  0  0  0
  -25.5350  -15.2113   20.0769 N   0  0  0  0  0  0  0  0  0  0  0  0
  -25.7937  -10.7030   20.0149 N   0  0  0  0  0  0  0  0  0  0  0  0
  -24.8323  -32.7983   21.8431 N   0  0  0  0  0  0  0  0  0  0  0  0
  -20.1556  -27.8453   21.6037 N   0  0  0  0  0  0  0  0  0  0  0  0
  -22.7582  -18.8374   18.4686 N   0  0  0  0  0  0  0  0  0  0  0  0
  -19.6810  -25.4494   18.9387 N   0  3  0  0  0  0  0  0  0  0  0  0
  -26.9270  -12.6397   19.5422 O   0  0  0  0  0  0  0  0  0  0  0  0
  -24.2591  -31.0094   23.2191 O   0  0  0  0  0  0  0  0  0  0  0  0
  -20.8777  -30.6179   21.6044 O   0  0  0  0  0  0  0  0  0  0  0  0
  -21.3632  -25.9196   21.1445 O   0  0  0  0  0  0  0  0  0  0  0  0
  -21.3304  -20.0462   19.7942 O   0  0  0  0  0  0  0  0  0  0  0  0
  -21.8403   -7.1540   21.6914 O   0  0  0  0  0  0  0  0  0  0  0  0
  -25.8438  -19.0058   17.5720 O   0  0  0  0  0  0  0  0  0  0  0  0
  -28.1366  -26.3540   20.6120 O   0  0  0  0  0  0  0  0  0  1  0  0
  -25.4109   -3.6256   23.9727 F   0  0  0  0  0  0  0  0  0  0  0  0
  -21.2436   -5.8685   24.0650 F   0  0  0  0  0  0  0  0  0  0  0  0
  1  2  1  0  0  0  0
  1  5  2  0  0  0  0
  2  6  2  0  0  0  0
  3  8  2  0  0  0  0
  3 17  1  0  0  0  0
  4  9  1  0  0  0  0
  4 17  2  0  0  0  0
  5 19  1  0  0  0  0
  6 21  1  0  0  0  0
  7 10  2  0  0  0  0
  7 20  1  0  0  0  0
  8 26  1  0  0  0  0
  9 26  2  0  0  0  0
 10 27  1  0  0  0  0
 11 12  2  0  0  0  0
 11 28  1  0  0  0  0
 12 30  1  0  0  0  0
 13 22  1  0  0  0  0
 13 27  2  0  0  0  0
 14 23  1  0  0  0  0
 14 24  2  0  0  0  0
 15 25  1  0  0  0  0
 15 29  2  0  0  0  0
 16 30  2  0  0  0  0
 16 31  1  0  0  0  0
 17 32  1  0  0  0  0
 18 32  1  0  0  0  0
 18 33  2  0  0  0  0
 18 35  1  0  0  0  0
 19 21  2  0  0  0  0
 19 40  1  0  0  0  0
 20 22  2  0  0  0  0
 20 41  1  0  0  0  0
 21 49  1  0  0  0  0
 22 42  1  0  0  0  0
 23 25  2  0  0  0  0
 23 60  1  0  0  0  0
 24 29  1  0  0  0  0
 24 61  1  0  0  0  0
 25 68  1  0  0  0  0
 26 83  1  0  0  0  0
 27 85  1  0  0  0  0
 28 31  2  0  0  0  0
 28 83  1  0  0  0  0
 29 84  1  0  0  0  0
 30 86  1  0  0  0  0
 31 87  1  0  0  0  0
 32 67  2  0  0  0  0
 33 69  1  0  0  0  0
 33 72  1  0  0  0  0
 34 63  1  0  0  0  0
 34 68  2  0  0  0  0
 35 73  1  0  0  0  0
 35 78  2  0  0  0  0
 36 50  1  0  0  0  0
 36 74  1  0  0  0  0
 36 79  2  0  0  0  0
 37 64  1  0  0  0  0
 37 70  1  0  0  0  0
 37 80  2  0  0  0  0
 38 65  1  0  0  0  0
 38 75  1  0  0  0  0
 38 81  2  0  0  0  0
 39 71  1  0  0  0  0
 39 76  1  0  0  0  0
 39 82  2  0  0  0  0
 40 43  1  0  0  0  0
 41 50  1  0  0  0  0
 42 70  1  0  0  0  0
 43 45  1  0  0  0  0
 44 46  1  0  0  0  0
 44 47  1  0  0  0  0
 45 49  1  0  0  0  0
 46 51  1  0  0  0  0
 47 71  1  0  0  0  0
 48 51  1  0  0  0  0
 48 71  1  0  0  0  0
 49 74  1  0  0  0  0
 50 70  1  0  0  0  0
 51 69  1  0  0  0  0
 52 60  1  0  0  0  0
 53 63  1  0  0  0  0
 54 65  1  0  0  0  0
 55 66  1  0  0  0  0
 56 66  1  0  0  0  0
 57 66  1  0  0  0  0
 58 77  1  0  0  0  0
 59 84  1  0  0  0  0
 61 76  1  0  0  0  0
 62 63  1  0  0  0  0
 62 85  1  0  0  0  0
 64 66  1  0  0  0  0
 64 75  1  0  0  0  0
 65 77  1  0  0  0  0
 67 69  1  0  0  0  0
M  CHG  1  77   1
M  ISO  4  39 100  62 101  76 100  85 101
M  END
> <Batch ID>
0110

> <Smiles>
CCc1cc(C[100NH:0][100C:0](=O)N2CCCC(n3nc(-c4ccc(Oc5ccc(F)cc5F)cc4)c(C(N)=O)c3N)C2)c(OC)cc1NC=C(C)[101CH2:1][101O:1]c1ccc2c(c1)CN(C(=O)C(NC(=O)C(C)NC)C(C)(C)C)C(C(=O)NC1CCCc3ccccc31)C2

> <Shape>
0.275

> <Color>
0.109

> <Negative vol penalty>
0.000

$$$$

  -OEChem-04052301263D

 84 92  0     1  0  0  0  0  0999 V2000
  -17.2810  -26.3242   24.7741 C   0  0  0  0  0  0  0  0  0  0  0  0
  -18.4103  -25.5778   25.0952 C   0  0  0  0  0  0  0  0  0  0  0  0
  -23.4786   -9.6034   20.9520 C   0  0  0  0  0  0  0  0  0  0  0  0
  -24.1753  -10.3602   23.1381 C   0  0  0  0  0  0  0  0  0  0  0  0
  -17.3515  -27.3011   23.7819 C   0  0  0  0  0  0  0  0  0  0  0  0
  -19.6105  -25.8072   24.4234 C   0  0  0  0  0  0  0  0  0  0  0  0
  -26.6977  -25.7000   25.4606 C   0  0  0  0  0  0  0  0  0  0  0  0
  -22.8972   -8.4740   21.5283 C   0  0  0  0  0  0  0  0  0  0  0  0
  -23.5939   -9.2309   23.7144 C   0  0  0  0  0  0  0  0  0  0  0  0
  -27.8595  -25.1647   24.9060 C   0  0  0  0  0  0  0  0  0  0  0  0
  -20.0554   -7.7102   23.1936 C   0  0  0  0  0  0  0  0  0  0  0  0
  -18.7796   -7.3463   22.7627 C   0  0  0  0  0  0  0  0  0  0  0  0
  -27.8835  -26.9327   23.2650 C   0  0  0  0  0  0  0  0  0  0  0  0
  -19.6364   -5.2092   22.0307 C   0  0  0  0  0  0  0  0  0  0  0  0
  -24.1177  -10.5465   21.7569 C   0  0  0  0  0  0  0  0  0  0  0  0
  -24.1064  -12.9585   20.9264 C   0  0  0  0  0  0  0  0  0  0  0  0
  -18.5556  -27.5493   23.1043 C   0  0  0  0  0  0  0  0  0  0  0  0
  -26.1131  -26.8514   24.9139 C   0  0  0  0  0  0  0  0  0  0  0  0
  -19.6968  -26.7875   23.4203 C   0  0  0  0  0  0  0  0  0  0  0  0
  -26.7158  -27.4821   23.8162 C   0  0  0  0  0  0  0  0  0  0  0  0
  -22.9548   -8.2877   22.9095 C   0  0  0  0  0  0  0  0  0  0  0  0
  -28.4509  -25.7794   23.8063 C   0  0  0  0  0  0  0  0  0  0  0  0
  -21.1217   -6.8235   23.0431 C   0  0  0  0  0  0  0  0  0  0  0  0
  -18.5701   -6.0959   22.1812 C   0  0  0  0  0  0  0  0  0  0  0  0
  -20.9122   -5.5731   22.4617 C   0  0  0  0  0  0  0  0  0  0  0  0
  -24.7189  -11.7131   21.1622 C   0  0  0  0  0  0  0  0  0  0  0  0
  -31.2742  -19.6808   20.2882 C   0  0  0  0  0  0  0  0  0  0  0  0
  -28.9621  -18.8020   21.2927 C   0  0  0  0  0  0  0  0  0  0  0  0
  -30.3705  -20.5504   20.8580 C   0  0  0  0  0  0  0  0  0  0  0  0
  -29.8654  -17.9325   20.7223 C   0  0  0  0  0  0  0  0  0  0  0  0
  -25.0916  -13.7218   20.3491 C   0  0  0  0  0  0  0  0  0  0  0  0
  -22.7668  -13.3871   21.2045 C   0  0  0  0  0  0  0  0  0  0  0  0
  -23.3156  -27.5206   23.5613 C   0  0  0  0  0  0  0  0  0  0  0  0
  -24.4511  -30.5585   23.6281 C   0  0  0  0  0  0  0  0  0  0  0  0
  -29.8884  -22.9516   21.4461 C   0  0  0  0  0  0  0  0  0  0  0  0
  -27.1539  -32.6395   23.7327 C   0  0  0  0  0  0  0  0  0  0  0  0
  -30.3526  -15.5323   20.1323 C   0  0  0  0  0  0  0  0  0  0  0  0
  -18.5710  -28.5832   22.0063 C   0  0  0  0  0  0  0  0  0  0  0  0
  -24.8749  -27.4317   25.5404 C   0  0  0  0  0  0  0  0  0  0  0  0
  -26.1391  -28.7318   23.2045 C   0  0  0  0  0  0  0  0  0  0  0  0
  -19.9763  -29.0218   21.6024 C   0  0  0  0  0  0  0  0  0  0  0  0
  -29.6427  -12.4193   18.5567 C   0  0  0  0  0  0  0  0  0  0  0  0
  -20.8828  -27.8084   21.4210 C   0  0  0  0  0  0  0  0  0  0  0  0
  -28.2480  -12.0605   19.0747 C   0  0  0  0  0  0  0  0  0  0  0  0
  -30.4881  -13.1023   19.6302 C   0  0  0  0  0  0  0  0  0  0  0  0
  -28.4663  -13.9095   20.7836 C   0  0  0  0  0  0  0  0  0  0  0  0
  -21.0232  -27.0240   22.7312 C   0  0  1  0  0  0  0  0  0  0  0  0
  -24.0787  -28.3141   24.5839 C   0  0  1  0  0  0  0  0  0  0  0  0
  -27.5555  -13.2778   19.7183 C   0  0  2  0  0  0  0  0  0  0  0  0
  -32.5705  -20.1543   19.7229 C   0  0  0  0  0  0  0  0  0  0  0  0
  -27.6653  -18.3303   21.8589 C   0  0  0  0  0  0  0  0  0  0  0  0
  -27.7675  -35.0728   23.7379 C   0  0  0  0  0  0  0  0  0  0  0  0
  -23.8659  -30.7099   20.6374 C   0  0  0  0  0  0  0  0  0  0  0  0
  -25.3371  -32.7324   20.5227 C   0  0  0  0  0  0  0  0  0  0  0  0
  -23.2725  -32.7718   21.9222 C   0  0  0  0  0  0  0  0  0  0  0  0
  -28.4551  -32.4250   26.3822 C   0  0  0  0  0  0  0  0  0  0  0  0
  -30.5904  -24.2967   21.2990 C   0  0  0  0  0  0  0  0  0  0  0  0
  -29.7842  -25.4565   21.8635 C   0  0  0  0  0  0  0  0  0  1  0  0
  -25.2643  -31.4167   22.6894 C   0  0  1  0  0  0  0  0  0  0  0  0
  -27.4579  -33.8533   24.5922 C   0  0  2  0  0  0  0  0  0  0  0  0
  -24.4450  -31.8831   21.4530 C   0  0  0  0  0  0  0  0  0  0  0  0
  -25.9943  -11.6826   20.7668 N   0  0  0  0  0  0  0  0  0  0  0  0
  -29.1983  -20.1266   21.3707 N   0  0  0  0  0  0  0  0  0  0  0  0
  -31.0377  -18.3562   20.2099 N   0  0  0  0  0  0  0  0  0  0  0  0
  -26.1913  -12.9183   20.2767 N   0  0  0  0  0  0  0  0  0  0  0  0
  -24.9240  -29.2571   23.8488 N   0  0  0  0  0  0  0  0  0  0  0  0
  -29.7700  -14.2486   20.1917 N   0  0  0  0  0  0  0  0  0  0  0  0
  -25.1158  -14.9951   19.9013 N   0  0  0  0  0  0  0  0  0  0  0  0
  -21.8839  -12.4762   21.8004 N   0  0  0  0  0  0  0  0  0  0  0  0
  -30.6724  -21.9319   20.9129 N   0  0  0  0  0  0  0  0  0  0  0  0
  -29.5631  -16.5492   20.6683 N   0  0  0  0  0  0  0  0  0  0  0  0
  -21.9458  -27.6920   23.6239 N   0  0  0  0  0  0  0  0  0  0  0  0
  -25.8020  -32.5072   23.4958 N   0  0  0  0  0  0  0  0  0  0  0  0
  -28.6312  -33.5850   25.4710 N   0  3  0  0  0  0  0  0  0  0  0  0
  -22.3597  -14.5384   20.9175 O   0  0  0  0  0  0  0  0  0  0  0  0
  -23.9245  -26.8070   22.7729 O   0  0  0  0  0  0  0  0  0  0  0  0
  -23.4377  -31.0279   24.1520 O   0  0  0  0  0  0  0  0  0  0  0  0
  -28.7848  -22.8451   21.9704 O   0  0  0  0  0  0  0  0  0  0  0  0
  -28.0285  -31.8864   23.3105 O   0  0  0  0  0  0  0  0  0  0  0  0
  -31.4579  -15.7201   19.6174 O   0  0  0  0  0  0  0  0  0  0  0  0
  -22.3875   -7.1859   23.4722 O   0  0  0  0  0  0  0  0  0  0  0  0
  -29.5845  -25.2586   23.2626 O   0  0  0  0  0  0  0  0  0  1  0  0
  -17.3447   -5.7460   21.7688 F   0  0  0  0  0  0  0  0  0  0  0  0
  -21.9324   -4.7166   22.3155 F   0  0  0  0  0  0  0  0  0  0  0  0
  1  2  1  0  0  0  0
  1  5  2  0  0  0  0
  2  6  2  0  0  0  0
  3  8  2  0  0  0  0
  3 15  1  0  0  0  0
  4  9  1  0  0  0  0
  4 15  2  0  0  0  0
  5 17  1  0  0  0  0
  6 19  1  0  0  0  0
  7 10  2  0  0  0  0
  7 18  1  0  0  0  0
  8 21  1  0  0  0  0
  9 21  2  0  0  0  0
 10 22  1  0  0  0  0
 11 12  2  0  0  0  0
 11 23  1  0  0  0  0
 12 24  1  0  0  0  0
 13 20  1  0  0  0  0
 13 22  2  0  0  0  0
 14 24  2  0  0  0  0
 14 25  1  0  0  0  0
 15 26  1  0  0  0  0
 16 26  1  0  0  0  0
 16 31  2  0  0  0  0
 16 32  1  0  0  0  0
 17 19  2  0  0  0  0
 17 38  1  0  0  0  0
 18 20  2  0  0  0  0
 18 39  1  0  0  0  0
 19 47  1  0  0  0  0
 20 40  1  0  0  0  0
 21 81  1  0  0  0  0
 22 82  1  0  0  0  0
 23 25  2  0  0  0  0
 23 81  1  0  0  0  0
 24 83  1  0  0  0  0
 25 84  1  0  0  0  0
 26 62  2  0  0  0  0
 27 29  2  0  0  0  0
 27 50  1  0  0  0  0
 27 64  1  0  0  0  0
 28 30  1  0  0  0  0
 28 51  1  0  0  0  0
 28 63  2  0  0  0  0
 29 63  1  0  0  0  0
 29 70  1  0  0  0  0
 30 64  2  0  0  0  0
 30 71  1  0  0  0  0
 31 65  1  0  0  0  0
 31 68  1  0  0  0  0
 32 69  1  0  0  0  0
 32 75  2  0  0  0  0
 33 48  1  0  0  0  0
 33 72  1  0  0  0  0
 33 76  2  0  0  0  0
 34 59  1  0  0  0  0
 34 66  1  0  0  0  0
 34 77  2  0  0  0  0
 35 57  1  0  0  0  0
 35 70  1  0  0  0  0
 35 78  2  0  0  0  0
 36 60  1  0  0  0  0
 36 73  1  0  0  0  0
 36 79  2  0  0  0  0
 37 67  1  0  0  0  0
 37 71  1  0  0  0  0
 37 80  2  0  0  0  0
 38 41  1  0  0  0  0
 39 48  1  0  0  0  0
 40 66  1  0  0  0  0
 41 43  1  0  0  0  0
 42 44  1  0  0  0  0
 42 45  1  0  0  0  0
 43 47  1  0  0  0  0
 44 49  1  0  0  0  0
 45 67  1  0  0  0  0
 46 49  1  0  0  0  0
 46 67  1  0  0  0  0
 47 72  1  0  0  0  0
 48 66  1  0  0  0  0
 49 65  1  0  0  0  0
 52 60  1  0  0  0  0
 53 61  1  0  0  0  0
 54 61  1  0  0  0  0
 55 61  1  0  0  0  0
 56 74  1  0  0  0  0
 57 58  1  0  0  0  0
 58 82  1  0  0  0  0
 59 61  1  0  0  0  0
 59 73  1  0  0  0  0
 60 74  1  0  0  0  0
 62 65  1  0  0  0  0
M  CHG  1  74   1
M  ISO  4  37 100  58 101  71 100  82 101
M  END
> <Batch ID>
0110

> <Smiles>
CNC(C)C(=O)NC(C(=O)N1Cc2cc([101O:1][101CH2:1]CC(=O)Nc3nc(C)c([100NH:0][100C:0](=O)N4CCCC(n5nc(-c6ccc(Oc7ccc(F)cc7F)cc6)c(C(N)=O)c5N)C4)nc3C)ccc2CC1C(=O)NC1CCCc2ccccc21)C(C)(C)C

> <Shape>
0.307

> <Color>
0.162

> <Negative vol penalty>
0.000

$$$$

  -OEChem-04052301263D

 84 92  0     1  0  0  0  0  0999 V2000
  -22.2662   -8.4924   20.5628 C   0  0  0  0  0  0  0  0  0  0  0  0
  -22.1306   -9.8744   20.4774 C   0  0  0  0  0  0  0  0  0  0  0  0
  -25.9316  -31.0359   22.4539 C   0  0  0  0  0  0  0  0  0  0  0  0
  -26.7359  -31.5596   20.2367 C   0  0  0  0  0  0  0  0  0  0  0  0
  -23.3498   -7.9402   21.2444 C   0  0  0  0  0  0  0  0  0  0  0  0
  -23.0782  -10.7049   21.0747 C   0  0  0  0  0  0  0  0  0  0  0  0
  -24.4777  -14.5320   18.0681 C   0  0  0  0  0  0  0  0  0  0  0  0
  -25.9988  -32.3861   22.7972 C   0  0  0  0  0  0  0  0  0  0  0  0
  -26.8030  -32.9099   20.5800 C   0  0  0  0  0  0  0  0  0  0  0  0
  -23.6043  -15.6139   17.9661 C   0  0  0  0  0  0  0  0  0  0  0  0
  -25.6151  -35.7409   24.1438 C   0  0  0  0  0  0  0  0  0  0  0  0
  -24.5340  -36.2891   24.8338 C   0  0  0  0  0  0  0  0  0  0  0  0
  -24.9547  -16.8448   19.5410 C   0  0  0  0  0  0  0  0  0  0  0  0
  -24.9491  -22.9477   16.9817 C   0  0  0  0  0  0  0  0  0  0  0  0
  -25.9394  -21.3357   18.4841 C   0  0  0  0  0  0  0  0  0  0  0  0
  -23.0737  -35.7263   22.9932 C   0  0  0  0  0  0  0  0  0  0  0  0
  -26.3002  -30.6226   21.1736 C   0  0  0  0  0  0  0  0  0  0  0  0
  -27.2991  -23.0872   17.5247 C   0  0  0  0  0  0  0  0  0  0  0  0
  -25.1344  -28.5460   20.2592 C   0  0  0  0  0  0  0  0  0  0  0  0
  -24.3163   -8.7644   21.8421 C   0  0  0  0  0  0  0  0  0  0  0  0
  -25.5921  -14.5945   18.9170 C   0  0  0  0  0  0  0  0  0  0  0  0
  -24.1750  -10.1632   21.7662 C   0  0  0  0  0  0  0  0  0  0  0  0
  -25.8422  -15.7633   19.6500 C   0  0  0  0  0  0  0  0  0  0  0  0
  -24.8260  -21.8265   17.8022 C   0  0  0  0  0  0  0  0  0  0  0  0
  -26.1857  -23.5781   16.8429 C   0  0  0  0  0  0  0  0  0  0  0  0
  -26.4344  -33.3231   21.8603 C   0  0  0  0  0  0  0  0  0  0  0  0
  -23.8411  -16.7694   18.7049 C   0  0  0  0  0  0  0  0  0  0  0  0
  -25.4256  -35.1854   22.8783 C   0  0  0  0  0  0  0  0  0  0  0  0
  -23.2633  -36.2818   24.2586 C   0  0  0  0  0  0  0  0  0  0  0  0
  -27.1760  -21.9660   18.3454 C   0  0  0  0  0  0  0  0  0  0  0  0
  -24.1549  -35.1781   22.3031 C   0  0  0  0  0  0  0  0  0  0  0  0
  -26.2317  -29.2278   20.8185 C   0  0  0  0  0  0  0  0  0  0  0  0
  -25.5727  -27.2527   20.1118 C   0  0  0  0  0  0  0  0  0  0  0  0
  -23.3344  -20.2471   17.0914 C   0  0  0  0  0  0  0  0  0  0  0  0
  -28.6026  -23.7277   17.4007 C   0  0  0  0  0  0  0  0  0  0  0  0
  -23.8351  -29.0377   19.9046 C   0  0  0  0  0  0  0  0  0  0  0  0
  -29.5829  -23.6968   18.5103 C   0  0  0  0  0  0  0  0  0  0  0  0
  -26.5571  -12.9728   21.4749 C   0  0  0  0  0  0  0  0  0  0  0  0
  -29.2290  -14.7795   21.1298 C   0  0  0  0  0  0  0  0  0  0  0  0
  -30.6582  -17.6399   19.9372 C   0  0  0  0  0  0  0  0  0  0  0  0
  -25.4449   -8.1215   22.6087 C   0  0  0  0  0  0  0  0  0  0  0  0
  -26.5395  -13.4288   18.9954 C   0  0  0  0  0  0  0  0  0  0  0  0
  -27.0356  -15.8885   20.5603 C   0  0  0  0  0  0  0  0  0  0  0  0
  -26.6062   -9.0706   22.8932 C   0  0  0  0  0  0  0  0  0  0  0  0
  -29.7058  -24.9443   21.8697 C   0  0  0  0  0  0  0  0  0  0  0  0
  -26.0881  -10.4060   23.4175 C   0  0  0  0  0  0  0  0  0  0  0  0
  -28.7519  -26.1381   21.8381 C   0  0  0  0  0  0  0  0  0  0  0  0
  -30.4451  -24.7853   20.5451 C   0  0  0  0  0  0  0  0  0  0  0  0
  -28.5827  -25.8742   19.3227 C   0  0  0  0  0  0  0  0  0  0  0  0
  -25.1954  -11.0972   22.3798 C   0  0  1  0  0  0  0  0  0  0  0  0
  -27.3591  -13.4105   20.2820 C   0  0  1  0  0  0  0  0  0  0  0  0
  -27.7973  -26.0503   20.6341 C   0  0  2  0  0  0  0  0  0  0  0  0
  -32.8521  -18.8545   19.8423 C   0  0  0  0  0  0  0  0  0  0  0  0
  -28.8916  -15.6117   24.0459 C   0  0  0  0  0  0  0  0  0  0  0  0
  -30.4846  -17.4956   23.6199 C   0  0  0  0  0  0  0  0  0  0  0  0
  -31.2499  -15.1353   23.3632 C   0  0  0  0  0  0  0  0  0  0  0  0
  -30.7123  -17.5500   16.9795 C   0  0  0  0  0  0  0  0  0  0  0  0
  -22.0384  -19.4836   17.1494 C   0  0  0  0  0  0  0  0  0  0  0  0
  -22.3151  -18.0050   17.3630 C   0  0  0  0  0  0  0  0  0  1  0  0
  -29.6837  -16.1246   21.6426 C   0  0  1  0  0  0  0  0  0  0  0  0
  -31.9272  -17.8743   19.1376 C   0  0  2  0  0  0  0  0  0  0  0  0
  -30.0538  -16.0891   23.1523 C   0  0  0  0  0  0  0  0  0  0  0  0
  -27.2875  -28.4334   21.0134 N   0  0  0  0  0  0  0  0  0  0  0  0
  -28.9886  -24.3574   16.3262 N   0  0  0  0  0  0  0  0  0  0  0  0
  -23.5807  -21.1907   17.9403 N   0  0  0  0  0  0  0  0  0  0  0  0
  -26.8557  -27.2390   20.5741 N   0  0  0  0  0  0  0  0  0  0  0  0
  -29.5122  -24.7417   19.4209 N   0  0  0  0  0  0  0  0  0  0  0  0
  -27.9292  -14.7194   20.6077 N   0  0  0  0  0  0  0  0  0  0  0  0
  -26.2885  -24.7132   16.0081 N   0  0  0  0  0  0  0  0  0  0  0  0
  -24.9818  -26.1372   19.6332 N   0  0  0  0  0  0  0  0  0  0  0  0
  -23.5512  -30.3928   20.1225 N   0  0  0  0  0  0  0  0  0  0  0  0
  -26.0028  -11.7133   21.3488 N   0  0  0  0  0  0  0  0  0  0  0  0
  -30.7738  -16.5470   20.7699 N   0  0  0  0  0  0  0  0  0  0  0  0
  -31.5976  -18.4235   17.7920 N   0  3  0  0  0  0  0  0  0  0  0  0
  -22.9466  -28.2938   19.4243 O   0  0  0  0  0  0  0  0  0  0  0  0
  -30.3555  -22.7474   18.5051 O   0  0  0  0  0  0  0  0  0  0  0  0
  -26.4504  -13.7217   22.4390 O   0  0  0  0  0  0  0  0  0  0  0  0
  -30.0014  -13.8192   21.1837 O   0  0  0  0  0  0  0  0  0  0  0  0
  -29.6652  -18.3570   19.8360 O   0  0  0  0  0  0  0  0  0  0  0  0
  -26.4998  -34.6408   22.1949 O   0  0  0  0  0  0  0  0  0  0  0  0
  -22.9897  -17.8266   18.6077 O   0  0  0  0  0  0  0  0  0  1  0  0
  -22.2249  -36.8069   24.9220 F   0  0  0  0  0  0  0  0  0  0  0  0
  -28.2388  -21.4856   19.0067 F   0  0  0  0  0  0  0  0  0  0  0  0
  -23.9664  -34.6448   21.0882 F   0  0  0  0  0  0  0  0  0  0  0  0
  1  2  1  0  0  0  0
  1  5  2  0  0  0  0
  2  6  2  0  0  0  0
  3  8  2  0  0  0  0
  3 17  1  0  0  0  0
  4  9  1  0  0  0  0
  4 17  2  0  0  0  0
  5 20  1  0  0  0  0
  6 22  1  0  0  0  0
  7 10  2  0  0  0  0
  7 21  1  0  0  0  0
  8 26  1  0  0  0  0
  9 26  2  0  0  0  0
 10 27  1  0  0  0  0
 11 12  2  0  0  0  0
 11 28  1  0  0  0  0
 12 29  1  0  0  0  0
 13 23  1  0  0  0  0
 13 27  2  0  0  0  0
 14 24  1  0  0  0  0
 14 25  2  0  0  0  0
 15 24  2  0  0  0  0
 15 30  1  0  0  0  0
 16 29  2  0  0  0  0
 16 31  1  0  0  0  0
 17 32  1  0  0  0  0
 18 25  1  0  0  0  0
 18 30  2  0  0  0  0
 18 35  1  0  0  0  0
 19 32  1  0  0  0  0
 19 33  2  0  0  0  0
 19 36  1  0  0  0  0
 20 22  2  0  0  0  0
 20 41  1  0  0  0  0
 21 23  2  0  0  0  0
 21 42  1  0  0  0  0
 22 50  1  0  0  0  0
 23 43  1  0  0  0  0
 24 65  1  0  0  0  0
 25 69  1  0  0  0  0
 26 80  1  0  0  0  0
 27 81  1  0  0  0  0
 28 31  2  0  0  0  0
 28 80  1  0  0  0  0
 29 82  1  0  0  0  0
 30 83  1  0  0  0  0
 31 84  1  0  0  0  0
 32 63  2  0  0  0  0
 33 66  1  0  0  0  0
 33 70  1  0  0  0  0
 34 58  1  0  0  0  0
 34 65  2  0  0  0  0
 35 37  1  0  0  0  0
 35 64  2  0  0  0  0
 36 71  1  0  0  0  0
 36 75  2  0  0  0  0
 37 67  1  0  0  0  0
 37 76  2  0  0  0  0
 38 51  1  0  0  0  0
 38 72  1  0  0  0  0
 38 77  2  0  0  0  0
 39 60  1  0  0  0  0
 39 68  1  0  0  0  0
 39 78  2  0  0  0  0
 40 61  1  0  0  0  0
 40 73  1  0  0  0  0
 40 79  2  0  0  0  0
 41 44  1  0  0  0  0
 42 51  1  0  0  0  0
 43 68  1  0  0  0  0
 44 46  1  0  0  0  0
 45 47  1  0  0  0  0
 45 48  1  0  0  0  0
 46 50  1  0  0  0  0
 47 52  1  0  0  0  0
 48 67  1  0  0  0  0
 49 52  1  0  0  0  0
 49 67  1  0  0  0  0
 50 72  1  0  0  0  0
 51 68  1  0  0  0  0
 52 66  1  0  0  0  0
 53 61  1  0  0  0  0
 54 62  1  0  0  0  0
 55 62  1  0  0  0  0
 56 62  1  0  0  0  0
 57 74  1  0  0  0  0
 58 59  1  0  0  0  0
 59 81  1  0  0  0  0
 60 62  1  0  0  0  0
 60 73  1  0  0  0  0
 61 74  1  0  0  0  0
 63 66  1  0  0  0  0
M  CHG  1  74   1
M  ISO  4  35 100  37 100  59 101  81 101
M  END
> <Batch ID>
0110

> <Smiles>
CNC(C)C(=O)NC(C(=O)N1Cc2cc([101O:1][101CH2:1]C=CNc3cc(N)c([100C:0](=N)[100C:0](=O)N4CCCC(n5nc(-c6ccc(Oc7ccc(F)cc7F)cc6)c(C(N)=O)c5N)C4)c(F)c3)ccc2CC1C(=O)NC1CCCc2ccccc21)C(C)(C)C

> <Shape>
0.271

> <Color>
0.058

> <Negative vol penalty>
0.000

$$$$

  -OEChem-04052301263D

 89 97  0     1  0  0  0  0  0999 V2000
  -21.8010  -33.3415   13.8529 C   0  0  0  0  0  0  0  0  0  0  0  0
  -22.6285  -32.2823   14.2116 C   0  0  0  0  0  0  0  0  0  0  0  0
  -23.5913   -9.6381   19.9747 C   0  0  0  0  0  0  0  0  0  0  0  0
  -24.3364   -9.8231   22.2655 C   0  0  0  0  0  0  0  0  0  0  0  0
  -21.8339  -34.5287   14.5833 C   0  0  0  0  0  0  0  0  0  0  0  0
  -23.4904  -32.4101   15.3003 C   0  0  0  0  0  0  0  0  0  0  0  0
  -25.1210  -28.0145   19.2405 C   0  0  0  0  0  0  0  0  0  0  0  0
  -32.4736  -16.9222   23.1508 C   0  0  0  0  0  0  0  0  0  0  0  0
  -30.5157  -16.4967   21.8008 C   0  0  0  0  0  0  0  0  0  0  0  0
  -32.2885  -18.2949   22.9867 C   0  0  0  0  0  0  0  0  0  0  0  0
  -30.3305  -17.8694   21.6368 C   0  0  0  0  0  0  0  0  0  0  0  0
  -23.0807   -8.3682   20.2433 C   0  0  0  0  0  0  0  0  0  0  0  0
  -23.8257   -8.5532   22.5341 C   0  0  0  0  0  0  0  0  0  0  0  0
  -26.2495  -27.1999   19.3227 C   0  0  0  0  0  0  0  0  0  0  0  0
  -22.3984   -5.5082   23.9157 C   0  0  0  0  0  0  0  0  0  0  0  0
  -21.6645   -5.3385   25.0896 C   0  0  0  0  0  0  0  0  0  0  0  0
  -27.2323  -28.7316   20.9062 C   0  0  0  0  0  0  0  0  0  0  0  0
  -20.0737   -6.9926   24.3341 C   0  0  0  0  0  0  0  0  0  0  0  0
  -24.2193  -10.3655   20.9857 C   0  0  0  0  0  0  0  0  0  0  0  0
  -24.0741  -12.9076   20.8286 C   0  0  0  0  0  0  0  0  0  0  0  0
  -22.6896  -34.6676   15.6875 C   0  0  0  0  0  0  0  0  0  0  0  0
  -25.0442  -29.2013   19.9835 C   0  0  0  0  0  0  0  0  0  0  0  0
  -23.5358  -33.6007   16.0454 C   0  0  0  0  0  0  0  0  0  0  0  0
  -26.1007  -29.5581   20.8336 C   0  0  0  0  0  0  0  0  0  0  0  0
  -31.5873  -16.0230   22.5578 C   0  0  0  0  0  0  0  0  0  0  0  0
  -31.2169  -18.7685   22.2298 C   0  0  0  0  0  0  0  0  0  0  0  0
  -23.1978   -7.8258   21.5230 C   0  0  0  0  0  0  0  0  0  0  0  0
  -27.3066  -27.5599   20.1534 C   0  0  0  0  0  0  0  0  0  0  0  0
  -21.9701   -6.4201   22.9509 C   0  0  0  0  0  0  0  0  0  0  0  0
  -20.5022   -6.0807   25.2988 C   0  0  0  0  0  0  0  0  0  0  0  0
  -20.8077   -7.1622   23.1601 C   0  0  0  0  0  0  0  0  0  0  0  0
  -24.7475  -11.6772   20.7087 C   0  0  0  0  0  0  0  0  0  0  0  0
  -25.0035  -13.8458   20.4514 C   0  0  0  0  0  0  0  0  0  0  0  0
  -22.7287  -13.1782   21.2438 C   0  0  0  0  0  0  0  0  0  0  0  0
  -24.7912  -32.2867   19.2625 C   0  0  0  0  0  0  0  0  0  0  0  0
  -31.0123  -13.7665   20.4488 C   0  0  0  0  0  0  0  0  0  0  0  0
  -24.4876  -32.6126   22.4756 C   0  0  0  0  0  0  0  0  0  0  0  0
  -30.0198  -20.8019   21.3492 C   0  0  0  0  0  0  0  0  0  0  0  0
  -25.0889  -31.3437   25.5861 C   0  0  0  0  0  0  0  0  0  0  0  0
  -31.7298  -14.1660   24.2335 C   0  0  0  0  0  0  0  0  0  0  0  0
  -22.7242  -35.9869   16.4176 C   0  0  0  0  0  0  0  0  0  0  0  0
  -23.8086  -30.0553   19.9041 C   0  0  0  0  0  0  0  0  0  0  0  0
  -26.0588  -30.8117   21.6675 C   0  0  0  0  0  0  0  0  0  0  0  0
  -23.3953  -35.9081   17.7864 C   0  0  0  0  0  0  0  0  0  0  0  0
  -28.8451  -14.4150   17.6699 C   0  0  0  0  0  0  0  0  0  0  0  0
  -24.7072  -35.1354   17.6941 C   0  0  0  0  0  0  0  0  0  0  0  0
  -27.4940  -13.8725   18.1341 C   0  0  0  0  0  0  0  0  0  0  0  0
  -29.9986  -13.5704   18.2020 C   0  0  0  0  0  0  0  0  0  0  0  0
  -28.6502  -12.8692   20.1544 C   0  0  0  0  0  0  0  0  0  0  0  0
  -24.4664  -33.6921   17.2352 C   0  0  1  0  0  0  0  0  0  0  0  0
  -24.0562  -31.5039   20.3136 C   0  0  1  0  0  0  0  0  0  0  0  0
  -27.4591  -13.7115   19.6642 C   0  0  2  0  0  0  0  0  0  0  0  0
  -24.7551  -31.8543   28.0203 C   0  0  0  0  0  0  0  0  0  0  0  0
  -26.7595  -34.6461   22.3582 C   0  0  0  0  0  0  0  0  0  0  0  0
  -27.0137  -34.4011   24.8368 C   0  0  0  0  0  0  0  0  0  0  0  0
  -24.8786  -35.2703   23.8836 C   0  0  0  0  0  0  0  0  0  0  0  0
  -23.4459  -28.9153   25.9893 C   0  0  0  0  0  0  0  0  0  0  0  0
  -30.8516  -13.5903   21.9378 C   0  0  0  0  0  0  0  0  0  0  0  0
  -30.1873  -22.3145   21.4257 C   0  0  0  0  0  0  0  0  0  0  0  0
  -29.1162  -23.0949   20.6648 C   0  0  0  0  0  0  0  0  0  0  0  0
  -29.2732  -24.6075   20.8262 C   0  0  0  0  0  0  0  0  0  0  0  0
  -28.2197  -25.3673   20.0320 C   0  0  0  0  0  0  0  0  0  1  0  0
  -25.4449  -32.8199   23.6244 C   0  0  1  0  0  0  0  0  0  0  0  0
  -24.1849  -31.1622   26.7920 C   0  0  2  0  0  0  0  0  0  0  0  0
  -31.7854  -14.5553   22.7333 C   0  0  1  0  0  0  0  0  0  0  0  0
  -26.0261  -34.2616   23.6587 C   0  0  0  0  0  0  0  0  0  0  0  0
  -26.0074  -11.8177   20.2881 N   0  0  0  0  0  0  0  0  0  0  0  0
  -26.1330  -13.1476   20.1403 N   0  0  0  0  0  0  0  0  0  0  0  0
  -24.8319  -31.6169   21.5505 N   0  0  0  0  0  0  0  0  0  0  0  0
  -29.9171  -13.4225   19.6562 N   0  0  0  0  0  0  0  0  0  0  0  0
  -24.9566  -15.1918   20.3587 N   0  0  0  0  0  0  0  0  0  0  0  0
  -21.9085  -12.0980   21.5971 N   0  0  0  0  0  0  0  0  0  0  0  0
  -30.5354  -14.4729   24.8490 N   0  0  0  0  0  0  0  0  0  0  0  0
  -31.0286  -20.1613   22.0634 N   0  0  0  0  0  0  0  0  0  0  0  0
  -23.9673  -32.8899   18.3315 N   0  0  0  0  0  0  0  0  0  0  0  0
  -24.7215  -32.4384   24.8325 N   0  0  0  0  0  0  0  0  0  0  0  0
  -24.0202  -29.7140   27.1026 N   0  3  0  0  0  0  0  0  0  0  0  0
  -22.2625  -14.3420   21.2843 O   0  0  0  0  0  0  0  0  0  0  0  0
  -26.0150  -32.3407   19.2948 O   0  0  0  0  0  0  0  0  0  0  0  0
  -32.0790  -14.1998   20.0055 O   0  0  0  0  0  0  0  0  0  0  0  0
  -23.4682  -33.3037   22.4058 O   0  0  0  0  0  0  0  0  0  0  0  0
  -29.0895  -20.2789   20.7447 O   0  0  0  0  0  0  0  0  0  0  0  0
  -26.0294  -30.5919   25.3395 O   0  0  0  0  0  0  0  0  0  0  0  0
  -32.6738  -13.6554   24.8352 O   0  0  0  0  0  0  0  0  0  0  0  0
  -33.1314  -14.2017   22.3318 O   0  0  0  0  0  0  0  0  0  0  0  0
  -22.6994   -6.5867   21.7856 O   0  0  0  0  0  0  0  0  0  0  0  0
  -28.4096  -26.7669   20.2350 O   0  0  0  0  0  0  0  0  0  1  0  0
  -19.7966   -5.9166   26.4255 F   0  0  0  0  0  0  0  0  0  0  0  0
  -20.3906   -8.0389   22.2365 F   0  0  0  0  0  0  0  0  0  0  0  0
  1  2  1  0  0  0  0
  1  5  2  0  0  0  0
  2  6  2  0  0  0  0
  3 12  2  0  0  0  0
  3 19  1  0  0  0  0
  4 13  1  0  0  0  0
  4 19  2  0  0  0  0
  5 21  1  0  0  0  0
  6 23  1  0  0  0  0
  7 14  2  0  0  0  0
  7 22  1  0  0  0  0
  8 10  2  0  0  0  0
  8 25  1  0  0  0  0
  9 11  1  0  0  0  0
  9 25  2  0  0  0  0
 10 26  1  0  0  0  0
 11 26  2  0  0  0  0
 12 27  1  0  0  0  0
 13 27  2  0  0  0  0
 14 28  1  0  0  0  0
 15 16  2  0  0  0  0
 15 29  1  0  0  0  0
 16 30  1  0  0  0  0
 17 24  1  0  0  0  0
 17 28  2  0  0  0  0
 18 30  2  0  0  0  0
 18 31  1  0  0  0  0
 19 32  1  0  0  0  0
 20 32  1  0  0  0  0
 20 33  2  0  0  0  0
 20 34  1  0  0  0  0
 21 23  2  0  0  0  0
 21 41  1  0  0  0  0
 22 24  2  0  0  0  0
 22 42  1  0  0  0  0
 23 50  1  0  0  0  0
 24 43  1  0  0  0  0
 25 65  1  0  0  0  0
 26 74  1  0  0  0  0
 27 86  1  0  0  0  0
 28 87  1  0  0  0  0
 29 31  2  0  0  0  0
 29 86  1  0  0  0  0
 30 88  1  0  0  0  0
 31 89  1  0  0  0  0
 32 67  2  0  0  0  0
 33 68  1  0  0  0  0
 33 71  1  0  0  0  0
 34 72  1  0  0  0  0
 34 78  2  0  0  0  0
 35 51  1  0  0  0  0
 35 75  1  0  0  0  0
 35 79  2  0  0  0  0
 36 58  1  0  0  0  0
 36 70  1  0  0  0  0
 36 80  2  0  0  0  0
 37 63  1  0  0  0  0
 37 69  1  0  0  0  0
 37 81  2  0  0  0  0
 38 59  1  0  0  0  0
 38 74  1  0  0  0  0
 38 82  2  0  0  0  0
 39 64  1  0  0  0  0
 39 76  1  0  0  0  0
 39 83  2  0  0  0  0
 40 65  1  0  0  0  0
 40 73  1  0  0  0  0
 40 84  2  0  0  0  0
 41 44  1  0  0  0  0
 42 51  1  0  0  0  0
 43 69  1  0  0  0  0
 44 46  1  0  0  0  0
 45 47  1  0  0  0  0
 45 48  1  0  0  0  0
 46 50  1  0  0  0  0
 47 52  1  0  0  0  0
 48 70  1  0  0  0  0
 49 52  1  0  0  0  0
 49 70  1  0  0  0  0
 50 75  1  0  0  0  0
 51 69  1  0  0  0  0
 52 68  1  0  0  0  0
 53 64  1  0  0  0  0
 54 66  1  0  0  0  0
 55 66  1  0  0  0  0
 56 66  1  0  0  0  0
 57 77  1  0  0  0  0
 58 65  1  0  0  0  0
 59 60  1  0  0  0  0
 60 61  1  0  0  0  0
 61 62  1  0  0  0  0
 62 87  1  0  0  0  0
 63 66  1  0  0  0  0
 63 76  1  0  0  0  0
 64 77  1  0  0  0  0
 65 85  1  0  0  0  0
 67 68  1  0  0  0  0
M  CHG  1  77   1
M  ISO  4  36 100  58 100  62 101  87 101
M  END
> <Batch ID>
0110

> <Smiles>
CNC(C)C(=O)NC(C(=O)N1Cc2cc([101O:1][101CH2:1]CCCC(=O)Nc3ccc(C(O)([100CH2:0][100C:0](=O)N4CCCC(n5nc(-c6ccc(Oc7ccc(F)cc7F)cc6)c(C(N)=O)c5N)C4)C(N)=O)cc3)ccc2CC1C(=O)NC1CCCc2ccccc21)C(C)(C)C

> <Shape>
0.345

> <Color>
0.206

> <Negative vol penalty>
0.000

$$$$

  -OEChem-04052301263D

 86 95  0     1  0  0  0  0  0999 V2000
  -23.5877  -30.6684   13.5388 C   0  0  0  0  0  0  0  0  0  0  0  0
  -24.1735  -29.7803   14.4352 C   0  0  0  0  0  0  0  0  0  0  0  0
  -23.3304   -9.7475   21.3781 C   0  0  0  0  0  0  0  0  0  0  0  0
  -23.9871  -10.7198   23.4901 C   0  0  0  0  0  0  0  0  0  0  0  0
  -23.7609  -32.0417   13.7062 C   0  0  0  0  0  0  0  0  0  0  0  0
  -24.9337  -30.2649   15.4989 C   0  0  0  0  0  0  0  0  0  0  0  0
  -23.8645  -27.9403   19.8690 C   0  0  0  0  0  0  0  0  0  0  0  0
  -22.6596   -8.7293   22.0555 C   0  0  0  0  0  0  0  0  0  0  0  0
  -23.3162   -9.7016   24.1674 C   0  0  0  0  0  0  0  0  0  0  0  0
  -24.4102  -26.6725   20.0660 C   0  0  0  0  0  0  0  0  0  0  0  0
  -19.7143   -8.3300   23.6676 C   0  0  0  0  0  0  0  0  0  0  0  0
  -18.4364   -7.9892   23.2245 C   0  0  0  0  0  0  0  0  0  0  0  0
  -26.1474  -27.6393   21.4323 C   0  0  0  0  0  0  0  0  0  0  0  0
  -31.2901  -19.9203   22.0324 C   0  0  0  0  0  0  0  0  0  0  0  0
  -29.4345  -18.5133   21.3890 C   0  0  0  0  0  0  0  0  0  0  0  0
  -31.6971  -17.6846   21.2118 C   0  0  0  0  0  0  0  0  0  0  0  0
  -19.1889   -5.7354   22.7873 C   0  0  0  0  0  0  0  0  0  0  0  0
  -23.9943  -10.7427   22.0954 C   0  0  0  0  0  0  0  0  0  0  0  0
  -24.1620  -13.0351   20.9888 C   0  0  0  0  0  0  0  0  0  0  0  0
  -24.5156  -32.5438   14.7780 C   0  0  0  0  0  0  0  0  0  0  0  0
  -24.4634  -29.0703   20.4442 C   0  0  0  0  0  0  0  0  0  0  0  0
  -25.1183  -31.6462   15.6800 C   0  0  0  0  0  0  0  0  0  0  0  0
  -25.6058  -28.9200   21.2432 C   0  0  0  0  0  0  0  0  0  0  0  0
  -29.9174  -19.7275   21.8769 C   0  0  0  0  0  0  0  0  0  0  0  0
  -32.1799  -18.8989   21.6997 C   0  0  0  0  0  0  0  0  0  0  0  0
  -30.3243  -17.4918   21.0564 C   0  0  0  0  0  0  0  0  0  0  0  0
  -22.6524   -8.7064   23.4501 C   0  0  0  0  0  0  0  0  0  0  0  0
  -25.5535  -26.5223   20.8453 C   0  0  0  0  0  0  0  0  0  0  0  0
  -20.7296   -7.3735   23.6705 C   0  0  0  0  0  0  0  0  0  0  0  0
  -18.1736   -6.6919   22.7844 C   0  0  0  0  0  0  0  0  0  0  0  0
  -20.4669   -6.0762   23.2304 C   0  0  0  0  0  0  0  0  0  0  0  0
  -24.6879  -11.7944   21.3963 C   0  0  0  0  0  0  0  0  0  0  0  0
  -25.2134  -13.6677   20.3716 C   0  0  0  0  0  0  0  0  0  0  0  0
  -27.6205  -23.6500   20.2423 C   0  0  0  0  0  0  0  0  0  0  0  0
  -27.0288  -24.8458   20.1499 C   0  0  0  0  0  0  0  0  0  1  0  0
  -22.8413  -13.5681   21.1536 C   0  0  0  0  0  0  0  0  0  0  0  0
  -25.7981  -31.7232   19.3111 C   0  0  0  0  0  0  0  0  0  0  0  0
  -25.9223  -32.5358   22.4491 C   0  0  0  0  0  0  0  0  0  0  0  0
  -25.9850  -31.5165   25.7054 C   0  0  0  0  0  0  0  0  0  0  0  0
  -30.5794  -15.1422   20.1843 C   0  0  0  0  0  0  0  0  0  0  0  0
  -24.7141  -34.0346   14.8907 C   0  0  0  0  0  0  0  0  0  0  0  0
  -23.8470  -30.4276   20.2441 C   0  0  0  0  0  0  0  0  0  0  0  0
  -26.2752  -30.0988   21.8995 C   0  0  0  0  0  0  0  0  0  0  0  0
  -28.6551  -23.1291   19.2900 C   0  0  0  0  0  0  0  0  0  0  0  0
  -25.2233  -34.4796   16.2593 C   0  0  0  0  0  0  0  0  0  0  0  0
  -29.7425  -11.9079   18.9529 C   0  0  0  0  0  0  0  0  0  0  0  0
  -26.3786  -33.5930   16.7132 C   0  0  0  0  0  0  0  0  0  0  0  0
  -28.3096  -11.6921   19.4453 C   0  0  0  0  0  0  0  0  0  0  0  0
  -30.5858  -12.6659   19.9766 C   0  0  0  0  0  0  0  0  0  0  0  0
  -28.5741  -13.7169   20.9344 C   0  0  0  0  0  0  0  0  0  0  0  0
  -29.4325  -22.1261   20.1279 C   0  0  0  0  0  0  0  0  0  0  0  0
  -25.9295  -32.1342   16.8607 C   0  0  1  0  0  0  0  0  0  0  0  0
  -27.4206  -22.6518   21.3509 C   0  0  1  0  0  0  0  0  0  0  0  0
  -24.8359  -31.5699   20.4550 C   0  0  1  0  0  0  0  0  0  0  0  0
  -27.6682  -13.0144   19.9099 C   0  0  2  0  0  0  0  0  0  0  0  0
  -26.0076  -22.0895   21.4341 C   0  0  0  0  0  0  0  0  0  0  0  0
  -26.1272  -32.4090   28.0465 C   0  0  0  0  0  0  0  0  0  0  0  0
  -28.9053  -33.0525   22.0683 C   0  0  0  0  0  0  0  0  0  0  0  0
  -29.1603  -33.0050   24.5585 C   0  0  0  0  0  0  0  0  0  0  0  0
  -27.7265  -34.7420   23.4863 C   0  0  0  0  0  0  0  0  0  0  0  0
  -23.3527  -30.3714   26.4257 C   0  0  0  0  0  0  0  0  0  0  0  0
  -28.9604  -20.8262   22.2347 C   0  0  0  0  0  0  0  0  0  0  0  0
  -26.9226  -32.3462   23.5637 C   0  0  1  0  0  0  0  0  0  0  0  0
  -25.2005  -31.9776   26.9205 C   0  0  2  0  0  0  0  0  0  0  0  0
  -28.1674  -33.2642   23.4054 C   0  0  0  0  0  0  0  0  0  0  0  0
  -25.9735  -11.6457   21.0656 N   0  0  0  0  0  0  0  0  0  0  0  0
  -26.2641  -12.8011   20.4438 N   0  0  0  0  0  0  0  0  0  0  0  0
  -25.6383  -31.4060   21.6688 N   0  0  0  0  0  0  0  0  0  0  0  0
  -29.9178  -13.9094   20.3668 N   0  0  0  0  0  0  0  0  0  0  0  0
  -33.5682  -19.0943   21.8570 N   0  0  0  0  0  0  0  0  0  0  0  0
  -25.3324  -14.8750   19.7796 N   0  0  0  0  0  0  0  0  0  0  0  0
  -21.8822  -12.7857   21.8111 N   0  0  0  0  0  0  0  0  0  0  0  0
  -29.8333  -16.2584   20.5612 N   0  0  0  0  0  0  0  0  0  0  0  0
  -25.1903  -31.9549   18.0919 N   0  0  0  0  0  0  0  0  0  0  0  0
  -26.1886  -32.5441   24.8089 N   0  0  0  0  0  0  0  0  0  0  0  0
  -28.3876  -21.5170   21.0383 N   0  3  2  0  0  0  0  0  0  0  0  0
  -24.3304  -30.8771   27.4234 N   0  3  0  0  0  0  0  0  0  0  0  0
  -22.5165  -14.6978   20.7157 O   0  0  0  0  0  0  0  0  0  0  0  0
  -27.0028  -31.6391   19.5195 O   0  0  0  0  0  0  0  0  0  0  0  0
  -25.4064  -33.6436   22.2815 O   0  0  0  0  0  0  0  0  0  0  0  0
  -26.3810  -30.3613   25.5673 O   0  0  0  0  0  0  0  0  0  0  0  0
  -31.7131  -15.2050   19.7019 O   0  0  0  0  0  0  0  0  0  0  0  0
  -21.9976   -7.7131   24.1114 O   0  0  0  0  0  0  0  0  0  0  0  0
  -26.0886  -25.2861   21.0387 O   0  0  0  0  0  0  0  0  0  1  0  0
  -16.9460   -6.3644   22.3604 F   0  0  0  0  0  0  0  0  0  0  0  0
  -21.4379   -5.1527   23.2320 F   0  0  0  0  0  0  0  0  0  0  0  0
  1  2  1  0  0  0  0
  1  5  2  0  0  0  0
  2  6  2  0  0  0  0
  3  8  2  0  0  0  0
  3 18  1  0  0  0  0
  4  9  1  0  0  0  0
  4 18  2  0  0  0  0
  5 20  1  0  0  0  0
  6 22  1  0  0  0  0
  7 10  2  0  0  0  0
  7 21  1  0  0  0  0
  8 27  1  0  0  0  0
  9 27  2  0  0  0  0
 10 28  1  0  0  0  0
 11 12  2  0  0  0  0
 11 29  1  0  0  0  0
 12 30  1  0  0  0  0
 13 23  1  0  0  0  0
 13 28  2  0  0  0  0
 14 24  1  0  0  0  0
 14 25  2  0  0  0  0
 15 24  2  0  0  0  0
 15 26  1  0  0  0  0
 16 25  1  0  0  0  0
 16 26  2  0  0  0  0
 17 30  2  0  0  0  0
 17 31  1  0  0  0  0
 18 32  1  0  0  0  0
 19 32  1  0  0  0  0
 19 33  2  0  0  0  0
 19 36  1  0  0  0  0
 20 22  2  0  0  0  0
 20 41  1  0  0  0  0
 21 23  2  0  0  0  0
 21 42  1  0  0  0  0
 22 52  1  0  0  0  0
 23 43  1  0  0  0  0
 24 62  1  0  0  0  0
 25 70  1  0  0  0  0
 26 73  1  0  0  0  0
 27 83  1  0  0  0  0
 28 84  1  0  0  0  0
 29 31  2  0  0  0  0
 29 83  1  0  0  0  0
 30 85  1  0  0  0  0
 31 86  1  0  0  0  0
 32 66  2  0  0  0  0
 33 67  1  0  0  0  0
 33 71  1  0  0  0  0
 34 35  2  0  0  0  0
 34 44  1  0  0  0  0
 34 53  1  0  0  0  0
 35 84  1  0  0  0  0
 36 72  1  0  0  0  0
 36 78  2  0  0  0  0
 37 54  1  0  0  0  0
 37 74  1  0  0  0  0
 37 79  2  0  0  0  0
 38 63  1  0  0  0  0
 38 68  1  0  0  0  0
 38 80  2  0  0  0  0
 39 64  1  0  0  0  0
 39 75  1  0  0  0  0
 39 81  2  0  0  0  0
 40 69  1  0  0  0  0
 40 73  1  0  0  0  0
 40 82  2  0  0  0  0
 41 45  1  0  0  0  0
 42 54  1  0  0  0  0
 43 68  1  0  0  0  0
 44 51  1  0  0  0  0
 45 47  1  0  0  0  0
 46 48  1  0  0  0  0
 46 49  1  0  0  0  0
 47 52  1  0  0  0  0
 48 55  1  0  0  0  0
 49 69  1  0  0  0  0
 50 55  1  0  0  0  0
 50 69  1  0  0  0  0
 51 76  1  0  0  0  0
 52 74  1  0  0  0  0
 53 56  1  0  0  0  0
 53 76  1  0  0  0  0
 54 68  1  0  0  0  0
 55 67  1  0  0  0  0
 57 64  1  0  0  0  0
 58 65  1  0  0  0  0
 59 65  1  0  0  0  0
 60 65  1  0  0  0  0
 61 77  1  0  0  0  0
 62 76  1  0  0  0  0
 63 65  1  0  0  0  0
 63 75  1  0  0  0  0
 64 77  1  0  0  0  0
 66 67  1  0  0  0  0
M  CHG  2  76   1  77   1
M  ISO  4  35 101  40 100  73 100  84 101
M  END
> <Batch ID>
0110

> <Smiles>
CNC(C)C(=O)NC(C(=O)N1Cc2cc([101O:1][101CH:1]=C3CCN(Cc4cc(N)cc([100NH:0][100C:0](=O)N5CCCC(n6nc(-c7ccc(Oc8ccc(F)cc8F)cc7)c(C(N)=O)c6N)C5)c4)C3C)ccc2CC1C(=O)NC1CCCc2ccccc21)C(C)(C)C

> <Shape>
0.294

> <Color>
0.149

> <Negative vol penalty>
0.000

$$$$

  -OEChem-04052301263D

 90 99  0     1  0  0  0  0  0999 V2000
  -16.9080  -25.5040   24.7276 C   0  0  0  0  0  0  0  0  0  0  0  0
  -17.5775  -24.5128   24.0171 C   0  0  0  0  0  0  0  0  0  0  0  0
  -22.1761  -13.6057   22.1473 C   0  0  0  0  0  0  0  0  0  0  0  0
  -23.7397  -12.4656   23.5937 C   0  0  0  0  0  0  0  0  0  0  0  0
  -17.2101  -26.8463   24.5024 C   0  0  0  0  0  0  0  0  0  0  0  0
  -18.5487  -24.8636   23.0800 C   0  0  0  0  0  0  0  0  0  0  0  0
  -23.6773  -21.7855   21.7651 C   0  0  0  0  0  0  0  0  0  0  0  0
  -21.1812  -13.4695   23.1154 C   0  0  0  0  0  0  0  0  0  0  0  0
  -22.7448  -12.3294   24.5619 C   0  0  0  0  0  0  0  0  0  0  0  0
  -24.0001  -20.8935   20.7434 C   0  0  0  0  0  0  0  0  0  0  0  0
  -21.2843  -14.2612   26.9189 C   0  0  0  0  0  0  0  0  0  0  0  0
  -21.6236  -14.5523   28.2401 C   0  0  0  0  0  0  0  0  0  0  0  0
  -24.9783  -22.7020   19.4817 C   0  0  0  0  0  0  0  0  0  0  0  0
  -28.8599  -22.1244   19.5482 C   0  0  0  0  0  0  0  0  0  0  0  0
  -27.9308  -20.7010   17.8314 C   0  0  0  0  0  0  0  0  0  0  0  0
  -21.0564  -12.2937   28.8836 C   0  0  0  0  0  0  0  0  0  0  0  0
  -23.4553  -13.1036   22.3864 C   0  0  0  0  0  0  0  0  0  0  0  0
  -24.4652  -12.7391   20.0724 C   0  0  0  0  0  0  0  0  0  0  0  0
  -18.1923  -27.2134   23.5691 C   0  0  0  0  0  0  0  0  0  0  0  0
  -23.9934  -23.1467   21.6478 C   0  0  0  0  0  0  0  0  0  0  0  0
  -18.8633  -26.2122   22.8411 C   0  0  0  0  0  0  0  0  0  0  0  0
  -24.6608  -23.6088   20.5044 C   0  0  0  0  0  0  0  0  0  0  0  0
  -28.8981  -21.0410   20.4259 C   0  0  0  0  0  0  0  0  0  0  0  0
  -27.9690  -19.6175   18.7090 C   0  0  0  0  0  0  0  0  0  0  0  0
  -28.4527  -19.7875   20.0063 C   0  0  0  0  0  0  0  0  0  0  0  0
  -21.4656  -12.8314   24.3227 C   0  0  0  0  0  0  0  0  0  0  0  0
  -24.6481  -21.3522   19.6002 C   0  0  0  0  0  0  0  0  0  0  0  0
  -20.8309  -12.9863   26.5800 C   0  0  0  0  0  0  0  0  0  0  0  0
  -28.3762  -21.9545   18.2510 C   0  0  0  0  0  0  0  0  0  0  0  0
  -21.5097  -13.5686   29.2225 C   0  0  0  0  0  0  0  0  0  0  0  0
  -20.7169  -12.0026   27.5623 C   0  0  0  0  0  0  0  0  0  0  0  0
  -24.4833  -13.2435   21.3865 C   0  0  0  0  0  0  0  0  0  0  0  0
  -25.6640  -13.1391   19.5345 C   0  0  0  0  0  0  0  0  0  0  0  0
  -26.6584  -18.4526   15.8581 C   0  0  0  0  0  0  0  0  0  0  0  0
  -27.8223  -17.6382   22.9709 C   0  0  0  0  0  0  0  0  0  0  0  0
  -27.7994  -18.6642   22.1173 C   0  0  0  0  0  0  0  0  0  0  0  0
  -23.4550  -11.9771   19.3981 C   0  0  0  0  0  0  0  0  0  0  0  0
  -22.3094  -25.8412   21.5607 C   0  0  0  0  0  0  0  0  0  0  0  0
  -25.2450  -27.2198   21.6211 C   0  0  0  0  0  0  0  0  0  0  0  0
  -28.5877  -26.9467   20.9895 C   0  0  0  0  0  0  0  0  0  0  0  0
  -29.3886  -17.5956   20.6483 C   0  0  0  0  0  0  0  0  0  0  0  0
  -18.4509  -28.6792   23.3258 C   0  0  0  0  0  0  0  0  0  0  0  0
  -23.6624  -24.0914   22.7705 C   0  0  0  0  0  0  0  0  0  0  0  0
  -25.0403  -25.0568   20.3386 C   0  0  0  0  0  0  0  0  0  0  0  0
  -25.3089  -18.4169   15.1839 C   0  0  0  0  0  0  0  0  0  0  0  0
  -19.7579  -28.9525   22.5859 C   0  0  0  0  0  0  0  0  0  0  0  0
  -24.3438  -18.8134   16.2942 C   0  0  0  0  0  0  0  0  0  0  0  0
  -30.1601  -14.1923   20.7522 C   0  0  0  0  0  0  0  0  0  0  0  0
  -19.8987  -28.0185   21.3882 C   0  0  0  0  0  0  0  0  0  0  0  0
  -28.7955  -13.5061   20.8062 C   0  0  0  0  0  0  0  0  0  0  0  0
  -30.1748  -15.4492   21.6146 C   0  0  0  0  0  0  0  0  0  0  0  0
  -27.7396  -15.7646   21.3082 C   0  0  0  0  0  0  0  0  0  0  0  0
  -19.9407  -26.5519   21.8342 C   0  0  1  0  0  0  0  0  0  0  0  0
  -23.5719  -25.5462   22.3202 C   0  0  1  0  0  0  0  0  0  0  0  0
  -27.6682  -14.4892   20.4446 C   0  0  2  0  0  0  0  0  0  0  0  0
  -25.0228  -18.3182   17.5662 C   0  0  2  0  0  0  0  0  0  0  0  0
  -29.4223  -21.2540   21.8091 C   0  0  0  0  0  0  0  0  0  0  0  0
  -30.7275  -28.2525   21.1054 C   0  0  0  0  0  0  0  0  0  0  0  0
  -24.4282  -28.7752   19.1264 C   0  0  0  0  0  0  0  0  0  0  0  0
  -26.8459  -29.3064   18.7509 C   0  0  0  0  0  0  0  0  0  0  0  0
  -25.7008  -30.1084   20.8169 C   0  0  0  0  0  0  0  0  0  0  0  0
  -29.7919  -25.0266   22.8926 C   0  0  0  0  0  0  0  0  0  0  0  0
  -27.8310  -22.7681   16.0838 C   0  0  0  0  0  0  0  0  0  0  0  0
  -27.4813  -18.2814   18.2283 C   0  0  0  0  0  0  0  0  0  0  0  0
  -24.6013  -19.1165   18.7905 C   0  0  0  0  0  0  0  0  0  1  0  0
  -26.2453  -27.6513   20.5759 C   0  0  1  0  0  0  0  0  0  0  0  0
  -29.8032  -27.2880   21.8323 C   0  0  2  0  0  0  0  0  0  0  0  0
  -25.7963  -28.9333   19.8195 C   0  0  0  0  0  0  0  0  0  0  0  0
  -25.6048  -13.9127   21.6666 N   0  0  0  0  0  0  0  0  0  0  0  0
  -26.3026  -13.8315   20.5209 N   0  0  0  0  0  0  0  0  0  0  0  0
  -26.4339  -18.4117   17.2344 N   0  0  0  0  0  0  0  0  0  0  0  0
  -24.6895  -25.9425   21.4611 N   0  0  0  0  0  0  0  0  0  0  0  0
  -29.0867  -16.3547   21.2437 N   0  0  0  0  0  0  0  0  0  0  0  0
  -26.2237  -12.9625   18.3188 N   0  0  0  0  0  0  0  0  0  0  0  0
  -23.5087  -10.5788   19.4771 N   0  0  0  0  0  0  0  0  0  0  0  0
  -21.2478  -26.2207   22.3597 N   0  0  0  0  0  0  0  0  0  0  0  0
  -27.5249  -27.7810   21.2645 N   0  0  0  0  0  0  0  0  0  0  0  0
  -28.4922  -18.6624   20.9176 N   0  0  0  0  0  0  0  0  0  0  0  0
  -30.5726  -26.0534   22.1557 N   0  3  0  0  0  0  0  0  0  0  0  0
  -27.7278  -18.4647   15.2664 O   0  0  0  0  0  0  0  0  0  0  0  0
  -22.5416  -12.5198   18.7313 O   0  0  0  0  0  0  0  0  0  0  0  0
  -22.2996  -25.7339   20.3400 O   0  0  0  0  0  0  0  0  0  0  0  0
  -24.9722  -27.9851   22.5494 O   0  0  0  0  0  0  0  0  0  0  0  0
  -28.5827  -26.0338   20.1666 O   0  0  0  0  0  0  0  0  0  0  0  0
  -30.3946  -17.7525   19.9443 O   0  0  0  0  0  0  0  0  0  0  0  0
  -20.4951  -12.6986   25.2677 O   0  0  0  0  0  0  0  0  0  0  0  0
  -28.3374  -23.0121   17.3953 O   0  0  0  0  0  0  0  0  0  0  0  0
  -24.9636  -20.4837   18.6012 O   0  0  0  0  0  0  0  0  0  1  0  0
  -21.8372  -13.8479   30.4909 F   0  0  0  0  0  0  0  0  0  0  0  0
  -20.2831  -10.7756   27.2425 F   0  0  0  0  0  0  0  0  0  0  0  0
  1  2  1  0  0  0  0
  1  5  2  0  0  0  0
  2  6  2  0  0  0  0
  3  8  2  0  0  0  0
  3 17  1  0  0  0  0
  4  9  1  0  0  0  0
  4 17  2  0  0  0  0
  5 19  1  0  0  0  0
  6 21  1  0  0  0  0
  7 10  2  0  0  0  0
  7 20  1  0  0  0  0
  8 26  1  0  0  0  0
  9 26  2  0  0  0  0
 10 27  1  0  0  0  0
 11 12  2  0  0  0  0
 11 28  1  0  0  0  0
 12 30  1  0  0  0  0
 13 22  1  0  0  0  0
 13 27  2  0  0  0  0
 14 23  2  0  0  0  0
 14 29  1  0  0  0  0
 15 24  1  0  0  0  0
 15 29  2  0  0  0  0
 16 30  2  0  0  0  0
 16 31  1  0  0  0  0
 17 32  1  0  0  0  0
 18 32  1  0  0  0  0
 18 33  2  0  0  0  0
 18 37  1  0  0  0  0
 19 21  2  0  0  0  0
 19 42  1  0  0  0  0
 20 22  2  0  0  0  0
 20 43  1  0  0  0  0
 21 53  1  0  0  0  0
 22 44  1  0  0  0  0
 23 25  1  0  0  0  0
 23 57  1  0  0  0  0
 24 25  2  0  0  0  0
 24 64  1  0  0  0  0
 25 78  1  0  0  0  0
 26 86  1  0  0  0  0
 27 88  1  0  0  0  0
 28 31  2  0  0  0  0
 28 86  1  0  0  0  0
 29 87  1  0  0  0  0
 30 89  1  0  0  0  0
 31 90  1  0  0  0  0
 32 69  2  0  0  0  0
 33 70  1  0  0  0  0
 33 74  1  0  0  0  0
 34 45  1  0  0  0  0
 34 71  1  0  0  0  0
 34 80  2  0  0  0  0
 35 36  2  0  0  0  0
 36 78  1  0  0  0  0
 37 75  1  0  0  0  0
 37 81  2  0  0  0  0
 38 54  1  0  0  0  0
 38 76  1  0  0  0  0
 38 82  2  0  0  0  0
 39 66  1  0  0  0  0
 39 72  1  0  0  0  0
 39 83  2  0  0  0  0
 40 67  1  0  0  0  0
 40 77  1  0  0  0  0
 40 84  2  0  0  0  0
 41 73  1  0  0  0  0
 41 78  1  0  0  0  0
 41 85  2  0  0  0  0
 42 46  1  0  0  0  0
 43 54  1  0  0  0  0
 44 72  1  0  0  0  0
 45 47  1  0  0  0  0
 46 49  1  0  0  0  0
 47 56  1  0  0  0  0
 48 50  1  0  0  0  0
 48 51  1  0  0  0  0
 49 53  1  0  0  0  0
 50 55  1  0  0  0  0
 51 73  1  0  0  0  0
 52 55  1  0  0  0  0
 52 73  1  0  0  0  0
 53 76  1  0  0  0  0
 54 72  1  0  0  0  0
 55 70  1  0  0  0  0
 56 65  1  0  0  0  0
 56 71  1  0  0  0  0
 58 67  1  0  0  0  0
 59 68  1  0  0  0  0
 60 68  1  0  0  0  0
 61 68  1  0  0  0  0
 62 79  1  0  0  0  0
 63 87  1  0  0  0  0
 64 71  1  0  0  0  0
 65 88  1  0  0  0  0
 66 68  1  0  0  0  0
 66 77  1  0  0  0  0
 67 79  1  0  0  0  0
 69 70  1  0  0  0  0
M  CHG  1  79   1
M  ISO  4  41 100  65 101  78 100  88 101
M  END
> <Batch ID>
0110

> <Smiles>
C=C[100N:0](c1c(C)cc(OC)cc1CN1C(=O)CCC1[101CH2:1][101O:1]c1ccc2c(c1)CN(C(=O)C(NC(=O)C(C)NC)C(C)(C)C)C(C(=O)NC1CCCc3ccccc31)C2)[100C:0](=O)N1CCCC(n2nc(-c3ccc(Oc4ccc(F)cc4F)cc3)c(C(N)=O)c2N)C1

> <Shape>
0.220

> <Color>
0.062

> <Negative vol penalty>
0.000

$$$$

  -OEChem-04052301263D

 84 92  0     1  0  0  0  0  0999 V2000
  -26.2784  -34.9423   24.1976 C   0  0  0  0  0  0  0  0  0  0  0  0
  -26.7831  -33.6945   23.8461 C   0  0  0  0  0  0  0  0  0  0  0  0
  -24.8318  -14.2151   22.6012 C   0  0  0  0  0  0  0  0  0  0  0  0
  -25.3928  -13.3300   20.4243 C   0  0  0  0  0  0  0  0  0  0  0  0
  -24.9487  -35.0677   24.5976 C   0  0  0  0  0  0  0  0  0  0  0  0
  -25.9586  -32.5710   23.8955 C   0  0  0  0  0  0  0  0  0  0  0  0
  -26.4402  -29.6264   19.8038 C   0  0  0  0  0  0  0  0  0  0  0  0
  -24.6303  -12.9192   23.0762 C   0  0  0  0  0  0  0  0  0  0  0  0
  -25.1913  -12.0341   20.8993 C   0  0  0  0  0  0  0  0  0  0  0  0
  -27.5577  -28.7948   19.7458 C   0  0  0  0  0  0  0  0  0  0  0  0
  -22.5715   -9.9978   21.5483 C   0  0  0  0  0  0  0  0  0  0  0  0
  -21.8392   -9.1209   20.7482 C   0  0  0  0  0  0  0  0  0  0  0  0
  -27.4769  -21.1990   16.0598 C   0  0  0  0  0  0  0  0  0  0  0  0
  -26.2032  -26.9343   20.4692 C   0  0  0  0  0  0  0  0  0  0  0  0
  -26.7303  -22.8719   18.1638 C   0  0  0  0  0  0  0  0  0  0  0  0
  -23.7400   -7.6337   20.6383 C   0  0  0  0  0  0  0  0  0  0  0  0
  -25.2130  -14.4205   21.2752 C   0  0  0  0  0  0  0  0  0  0  0  0
  -26.1402  -21.2731   16.4514 C   0  0  0  0  0  0  0  0  0  0  0  0
  -26.6226  -16.4918   20.7953 C   0  0  0  0  0  0  0  0  0  0  0  0
  -24.1048  -33.9468   24.6426 C   0  0  0  0  0  0  0  0  0  0  0  0
  -25.1961  -29.1198   20.2061 C   0  0  0  0  0  0  0  0  0  0  0  0
  -24.6167  -32.6813   24.2978 C   0  0  0  0  0  0  0  0  0  0  0  0
  -25.0710  -27.7610   20.5290 C   0  0  0  0  0  0  0  0  0  0  0  0
  -28.4404  -21.9614   16.7203 C   0  0  0  0  0  0  0  0  0  0  0  0
  -28.0671  -22.7979   17.7723 C   0  0  0  0  0  0  0  0  0  0  0  0
  -24.8100  -11.8287   22.2253 C   0  0  0  0  0  0  0  0  0  0  0  0
  -27.4400  -27.4492   20.0813 C   0  0  0  0  0  0  0  0  0  0  0  0
  -23.8882   -9.6927   21.8934 C   0  0  0  0  0  0  0  0  0  0  0  0
  -22.4234   -7.9388   20.2932 C   0  0  0  0  0  0  0  0  0  0  0  0
  -25.7669  -22.1095   17.5033 C   0  0  0  0  0  0  0  0  0  0  0  0
  -24.4724   -8.5107   21.4384 C   0  0  0  0  0  0  0  0  0  0  0  0
  -25.4207  -15.7590   20.7838 C   0  0  0  0  0  0  0  0  0  0  0  0
  -26.2962  -17.6959   20.2207 C   0  0  0  0  0  0  0  0  0  0  0  0
  -29.2342  -24.7536   17.9674 C   0  0  0  0  0  0  0  0  0  0  0  0
  -25.1399  -20.4748   15.7603 C   0  0  0  0  0  0  0  0  0  0  0  0
  -27.9184  -16.1176   21.2819 C   0  0  0  0  0  0  0  0  0  0  0  0
  -23.7111  -20.5261   16.1466 C   0  0  0  0  0  0  0  0  0  0  0  0
  -23.2044  -29.7123   22.6115 C   0  0  0  0  0  0  0  0  0  0  0  0
  -21.2785  -27.6498   21.0118 C   0  0  0  0  0  0  0  0  0  0  0  0
  -21.0033  -25.0683   18.7966 C   0  0  0  0  0  0  0  0  0  0  0  0
  -22.6874  -34.1242   25.1267 C   0  0  0  0  0  0  0  0  0  0  0  0
  -23.9945  -30.0240   20.2378 C   0  0  0  0  0  0  0  0  0  0  0  0
  -23.7533  -27.1635   20.9476 C   0  0  0  0  0  0  0  0  0  0  0  0
  -21.7776  -32.9449   24.7925 C   0  0  0  0  0  0  0  0  0  0  0  0
  -21.8053  -19.6971   19.0685 C   0  0  0  0  0  0  0  0  0  0  0  0
  -22.4644  -31.6267   25.1353 C   0  0  0  0  0  0  0  0  0  0  0  0
  -22.6575  -18.6302   19.7549 C   0  0  0  0  0  0  0  0  0  0  0  0
  -21.9091  -19.6027   17.5497 C   0  0  0  0  0  0  0  0  0  0  0  0
  -24.1704  -18.5997   17.7213 C   0  0  0  0  0  0  0  0  0  0  0  0
  -23.7468  -31.4431   24.3147 C   0  0  1  0  0  0  0  0  0  0  0  0
  -22.8877  -29.5150   21.1560 C   0  0  1  0  0  0  0  0  0  0  0  0
  -24.1128  -18.6812   19.2567 C   0  0  2  0  0  0  0  0  0  0  0  0
  -29.8658  -21.8647   16.2842 C   0  0  0  0  0  0  0  0  0  0  0  0
  -19.3028  -23.5711   17.7177 C   0  0  0  0  0  0  0  0  0  0  0  0
  -21.0347  -26.0617   23.6057 C   0  0  0  0  0  0  0  0  0  0  0  0
  -20.1526  -24.1402   22.2648 C   0  0  0  0  0  0  0  0  0  0  0  0
  -18.9012  -26.2973   22.3224 C   0  0  0  0  0  0  0  0  0  0  0  0
  -21.7127  -26.0218   16.0861 C   0  0  0  0  0  0  0  0  0  0  0  0
  -30.2264  -25.6806   18.6171 C   0  0  0  0  0  0  0  0  0  0  0  0
  -29.5316  -26.9563   19.0625 C   0  0  0  0  0  0  0  0  0  1  0  0
  -21.0669  -26.1551   21.0258 C   0  0  1  0  0  0  0  0  0  0  0  0
  -20.0962  -24.8629   17.5968 C   0  0  2  0  0  0  0  0  0  0  0  0
  -20.3142  -25.6749   22.2987 C   0  0  0  0  0  0  0  0  0  0  0  0
  -24.4064  -16.4406   20.2447 N   0  0  0  0  0  0  0  0  0  0  0  0
  -25.4224  -19.6736   14.7688 N   0  0  0  0  0  0  0  0  0  0  0  0
  -29.0238  -23.5724   18.4496 N   0  0  0  0  0  0  0  0  0  0  0  0
  -24.9702  -17.6143   19.9123 N   0  0  0  0  0  0  0  0  0  0  0  0
  -23.3039  -19.6174   17.1133 N   0  0  0  0  0  0  0  0  0  0  0  0
  -22.6091  -28.0897   20.9691 N   0  0  0  0  0  0  0  0  0  0  0  0
  -27.0169  -18.8058   19.9544 N   0  0  0  0  0  0  0  0  0  0  0  0
  -28.0791  -14.8431   21.8424 N   0  0  0  0  0  0  0  0  0  0  0  0
  -23.4282  -31.0293   22.9650 N   0  0  0  0  0  0  0  0  0  0  0  0
  -20.3938  -25.8264   19.7739 N   0  0  0  0  0  0  0  0  0  0  0  0
  -20.9002  -24.8050   16.3434 N   0  3  0  0  0  0  0  0  0  0  0  0
  -28.9005  -16.8966   21.2364 O   0  0  0  0  0  0  0  0  0  0  0  0
  -23.0383  -21.3692   15.5681 O   0  0  0  0  0  0  0  0  0  0  0  0
  -23.2414  -28.7418   23.3587 O   0  0  0  0  0  0  0  0  0  0  0  0
  -20.2990  -28.3993   21.0307 O   0  0  0  0  0  0  0  0  0  0  0  0
  -22.1377  -24.5998   18.8619 O   0  0  0  0  0  0  0  0  0  0  0  0
  -24.6137  -10.5640   22.6885 O   0  0  0  0  0  0  0  0  0  0  0  0
  -28.5293  -26.6354   20.0262 O   0  0  0  0  0  0  0  0  0  1  0  0
  -21.7195   -7.0960   19.5262 F   0  0  0  0  0  0  0  0  0  0  0  0
  -24.4852  -22.1875   17.8886 F   0  0  0  0  0  0  0  0  0  0  0  0
  -25.7366   -8.2116   21.7676 F   0  0  0  0  0  0  0  0  0  0  0  0
  1  2  1  0  0  0  0
  1  5  2  0  0  0  0
  2  6  2  0  0  0  0
  3  8  2  0  0  0  0
  3 17  1  0  0  0  0
  4  9  1  0  0  0  0
  4 17  2  0  0  0  0
  5 20  1  0  0  0  0
  6 22  1  0  0  0  0
  7 10  2  0  0  0  0
  7 21  1  0  0  0  0
  8 26  1  0  0  0  0
  9 26  2  0  0  0  0
 10 27  1  0  0  0  0
 11 12  2  0  0  0  0
 11 28  1  0  0  0  0
 12 29  1  0  0  0  0
 13 18  2  0  0  0  0
 13 24  1  0  0  0  0
 14 23  1  0  0  0  0
 14 27  2  0  0  0  0
 15 25  1  0  0  0  0
 15 30  2  0  0  0  0
 16 29  2  0  0  0  0
 16 31  1  0  0  0  0
 17 32  1  0  0  0  0
 18 30  1  0  0  0  0
 18 35  1  0  0  0  0
 19 32  1  0  0  0  0
 19 33  2  0  0  0  0
 19 36  1  0  0  0  0
 20 22  2  0  0  0  0
 20 41  1  0  0  0  0
 21 23  2  0  0  0  0
 21 42  1  0  0  0  0
 22 50  1  0  0  0  0
 23 43  1  0  0  0  0
 24 25  2  0  0  0  0
 24 53  1  0  0  0  0
 25 66  1  0  0  0  0
 26 80  1  0  0  0  0
 27 81  1  0  0  0  0
 28 31  2  0  0  0  0
 28 80  1  0  0  0  0
 29 82  1  0  0  0  0
 30 83  1  0  0  0  0
 31 84  1  0  0  0  0
 32 64  2  0  0  0  0
 33 67  1  0  0  0  0
 33 70  1  0  0  0  0
 34 59  1  0  0  0  0
 34 66  2  0  0  0  0
 35 37  1  0  0  0  0
 35 65  2  0  0  0  0
 36 71  1  0  0  0  0
 36 75  2  0  0  0  0
 37 68  1  0  0  0  0
 37 76  2  0  0  0  0
 38 51  1  0  0  0  0
 38 72  1  0  0  0  0
 38 77  2  0  0  0  0
 39 61  1  0  0  0  0
 39 69  1  0  0  0  0
 39 78  2  0  0  0  0
 40 62  1  0  0  0  0
 40 73  1  0  0  0  0
 40 79  2  0  0  0  0
 41 44  1  0  0  0  0
 42 51  1  0  0  0  0
 43 69  1  0  0  0  0
 44 46  1  0  0  0  0
 45 47  1  0  0  0  0
 45 48  1  0  0  0  0
 46 50  1  0  0  0  0
 47 52  1  0  0  0  0
 48 68  1  0  0  0  0
 49 52  1  0  0  0  0
 49 68  1  0  0  0  0
 50 72  1  0  0  0  0
 51 69  1  0  0  0  0
 52 67  1  0  0  0  0
 54 62  1  0  0  0  0
 55 63  1  0  0  0  0
 56 63  1  0  0  0  0
 57 63  1  0  0  0  0
 58 74  1  0  0  0  0
 59 60  1  0  0  0  0
 60 81  1  0  0  0  0
 61 63  1  0  0  0  0
 61 73  1  0  0  0  0
 62 74  1  0  0  0  0
 64 67  1  0  0  0  0
M  CHG  1  74   1
M  ISO  4  35 100  37 100  60 101  81 101
M  END
> <Batch ID>
0110

> <Smiles>
CNC(C)C(=O)NC(C(=O)N1Cc2cc([101O:1][101CH2:1]C=CNc3cc(F)c([100C:0](=N)[100C:0](=O)N4CCCC(n5nc(-c6ccc(Oc7ccc(F)cc7F)cc6)c(C(N)=O)c5N)C4)cc3C)ccc2CC1C(=O)NC1CCCc2ccccc21)C(C)(C)C

> <Shape>
0.237

> <Color>
0.091

> <Negative vol penalty>
0.000

$$$$

  -OEChem-04052301263D

 89 98  0     1  0  0  0  0  0999 V2000
  -26.2008  -32.0370   14.0820 C   0  0  0  0  0  0  0  0  0  0  0  0
  -26.7024  -31.1099   14.9900 C   0  0  0  0  0  0  0  0  0  0  0  0
  -22.5735   -9.7987   20.7513 C   0  0  0  0  0  0  0  0  0  0  0  0
  -24.4428  -10.5505   22.0846 C   0  0  0  0  0  0  0  0  0  0  0  0
  -29.4295  -18.3640   23.4448 C   0  0  0  0  0  0  0  0  0  0  0  0
  -25.8009  -33.2975   14.5237 C   0  0  0  0  0  0  0  0  0  0  0  0
  -26.8056  -31.4433   16.3400 C   0  0  0  0  0  0  0  0  0  0  0  0
  -25.1486  -27.7517   19.3849 C   0  0  0  0  0  0  0  0  0  0  0  0
  -29.6537  -19.6691   23.0067 C   0  0  0  0  0  0  0  0  0  0  0  0
  -22.7891   -8.4911   21.1864 C   0  0  0  0  0  0  0  0  0  0  0  0
  -24.6584   -9.2429   22.5197 C   0  0  0  0  0  0  0  0  0  0  0  0
  -26.0011  -26.6686   19.5946 C   0  0  0  0  0  0  0  0  0  0  0  0
  -22.1432   -6.6453   23.9448 C   0  0  0  0  0  0  0  0  0  0  0  0
  -21.0313   -5.9028   24.3424 C   0  0  0  0  0  0  0  0  0  0  0  0
  -26.6675  -27.6112   21.7128 C   0  0  0  0  0  0  0  0  0  0  0  0
  -21.5093   -4.2688   22.6282 C   0  0  0  0  0  0  0  0  0  0  0  0
  -23.4004  -10.8284   21.2004 C   0  0  0  0  0  0  0  0  0  0  0  0
  -28.7133  -17.4732   22.6452 C   0  0  0  0  0  0  0  0  0  0  0  0
  -22.0164  -12.9539   20.9272 C   0  0  0  0  0  0  0  0  0  0  0  0
  -25.8902  -33.6432   15.8813 C   0  0  0  0  0  0  0  0  0  0  0  0
  -25.0571  -28.7798   20.3341 C   0  0  0  0  0  0  0  0  0  0  0  0
  -26.4078  -32.7102   16.8000 C   0  0  0  0  0  0  0  0  0  0  0  0
  -25.8111  -28.7049   21.5139 C   0  0  0  0  0  0  0  0  0  0  0  0
  -29.1617  -20.0835   21.7690 C   0  0  0  0  0  0  0  0  0  0  0  0
  -28.2212  -17.8876   21.4076 C   0  0  0  0  0  0  0  0  0  0  0  0
  -23.8315   -8.2132   22.0706 C   0  0  0  0  0  0  0  0  0  0  0  0
  -26.7628  -26.5997   20.7574 C   0  0  0  0  0  0  0  0  0  0  0  0
  -22.9381   -6.1996   22.8887 C   0  0  0  0  0  0  0  0  0  0  0  0
  -20.7144   -4.7146   23.6842 C   0  0  0  0  0  0  0  0  0  0  0  0
  -22.6211   -5.0113   22.2305 C   0  0  0  0  0  0  0  0  0  0  0  0
  -28.4454  -19.1928   20.9694 C   0  0  0  0  0  0  0  0  0  0  0  0
  -23.1786  -12.1793   20.7508 C   0  0  0  0  0  0  0  0  0  0  0  0
  -22.3079  -14.1527   20.3236 C   0  0  0  0  0  0  0  0  0  0  0  0
  -28.6361  -23.4803   20.3202 C   0  0  0  0  0  0  0  0  0  0  0  0
  -28.3862  -22.3487   21.0228 C   0  0  0  0  0  0  0  0  0  0  0  0
  -30.0307  -23.7024   19.8097 C   0  0  0  0  0  0  0  0  0  0  0  0
  -27.8292  -15.8371   24.2443 C   0  0  0  0  0  0  0  0  0  0  0  0
  -28.4995  -16.1174   23.1375 C   0  0  0  0  0  0  0  0  0  0  0  0
  -20.7836  -12.6196   21.5784 C   0  0  0  0  0  0  0  0  0  0  0  0
  -25.6688  -31.8990   20.3283 C   0  0  0  0  0  0  0  0  0  0  0  0
  -24.3644  -31.7647   23.2953 C   0  0  0  0  0  0  0  0  0  0  0  0
  -23.6174  -29.8933   26.0497 C   0  0  0  0  0  0  0  0  0  0  0  0
  -27.4305  -17.0096   19.1826 C   0  0  0  0  0  0  0  0  0  0  0  0
  -25.4899  -35.0345   16.3041 C   0  0  0  0  0  0  0  0  0  0  0  0
  -24.1128  -29.9280   20.1052 C   0  0  0  0  0  0  0  0  0  0  0  0
  -25.7341  -29.7726   22.5734 C   0  0  0  0  0  0  0  0  0  0  0  0
  -31.0459  -22.5984   19.9820 C   0  0  0  0  0  0  0  0  0  0  0  0
  -25.2814  -35.1773   17.8095 C   0  0  0  0  0  0  0  0  0  0  0  0
  -24.9659  -16.0269   16.8084 C   0  0  0  0  0  0  0  0  0  0  0  0
  -26.4324  -34.5284   18.5718 C   0  0  0  0  0  0  0  0  0  0  0  0
  -24.1184  -15.0037   17.5680 C   0  0  0  0  0  0  0  0  0  0  0  0
  -30.8034  -21.8038   21.2533 C   0  0  0  0  0  0  0  0  0  0  0  0
  -26.4449  -15.9235   17.1767 C   0  0  0  0  0  0  0  0  0  0  0  0
  -25.8848  -14.9628   19.3750 C   0  0  0  0  0  0  0  0  0  0  0  0
  -26.5119  -33.0258   18.2764 C   0  0  1  0  0  0  0  0  0  0  0  0
  -24.4839  -31.1748   20.9021 C   0  0  1  0  0  0  0  0  0  0  0  0
  -24.3788  -15.0717   19.0856 C   0  0  2  0  0  0  0  0  0  0  0  0
  -27.0085  -22.1130   21.6112 C   0  0  0  0  0  0  0  0  0  0  0  0
  -22.5850  -30.0695   28.3301 C   0  0  0  0  0  0  0  0  0  0  0  0
  -26.8912  -33.1253   24.3315 C   0  0  0  0  0  0  0  0  0  0  0  0
  -26.2380  -32.4218   26.6438 C   0  0  0  0  0  0  0  0  0  0  0  0
  -24.7645  -33.9617   25.3474 C   0  0  0  0  0  0  0  0  0  0  0  0
  -21.4958  -27.9461   25.3668 C   0  0  0  0  0  0  0  0  0  0  0  0
  -27.6406  -24.5427   19.9486 C   0  0  0  0  0  0  0  0  0  1  0  0
  -24.8969  -31.5247   24.6874 C   0  0  1  0  0  0  0  0  0  0  0  0
  -22.3414  -29.7601   26.8612 C   0  0  2  0  0  0  0  0  0  0  0  0
  -25.7008  -32.7391   25.2319 C   0  0  0  0  0  0  0  0  0  0  0  0
  -24.1369  -12.8312   20.0870 N   0  0  0  0  0  0  0  0  0  0  0  0
  -23.5774  -14.0280   19.8409 N   0  0  0  0  0  0  0  0  0  0  0  0
  -29.3915  -21.4117   21.3262 N   0  0  0  0  0  0  0  0  0  0  0  0
  -24.8010  -30.8782   22.3006 N   0  0  0  0  0  0  0  0  0  0  0  0
  -26.6150  -15.9999   18.6293 N   0  0  0  0  0  0  0  0  0  0  0  0
  -21.5995  -15.2907   20.1639 N   0  0  0  0  0  0  0  0  0  0  0  0
  -20.6518  -11.3448   22.1457 N   0  0  0  0  0  0  0  0  0  0  0  0
  -27.4907  -17.0032   20.5758 N   0  0  0  0  0  0  0  0  0  0  0  0
  -25.4976  -32.3101   19.0202 N   0  0  0  0  0  0  0  0  0  0  0  0
  -23.7475  -31.1536   25.5057 N   0  0  0  0  0  0  0  0  0  0  0  0
  -21.8028  -28.3746   26.7558 N   0  3  0  0  0  0  0  0  0  0  0  0
  -30.3269  -24.7382   19.2145 O   0  0  0  0  0  0  0  0  0  0  0  0
  -19.8212  -13.4218   21.6407 O   0  0  0  0  0  0  0  0  0  0  0  0
  -26.6641  -32.0734   21.0216 O   0  0  0  0  0  0  0  0  0  0  0  0
  -23.5841  -32.6997   23.0991 O   0  0  0  0  0  0  0  0  0  0  0  0
  -24.4204  -28.9726   25.9152 O   0  0  0  0  0  0  0  0  0  0  0  0
  -28.0096  -17.8371   18.4741 O   0  0  0  0  0  0  0  0  0  0  0  0
  -24.0420   -6.9374   22.4956 O   0  0  0  0  0  0  0  0  0  0  0  0
  -27.5962  -25.5440   20.9644 O   0  0  0  0  0  0  0  0  0  1  0  0
  -19.6476   -4.0009   24.0672 F   0  0  0  0  0  0  0  0  0  0  0  0
  -23.3817   -4.5775   21.2160 F   0  0  0  0  0  0  0  0  0  0  0  0
  -27.9729  -19.5932   19.7789 F   0  0  0  0  0  0  0  0  0  0  0  0
  1  2  1  0  0  0  0
  1  6  2  0  0  0  0
  2  7  2  0  0  0  0
  3 10  2  0  0  0  0
  3 17  1  0  0  0  0
  4 11  1  0  0  0  0
  4 17  2  0  0  0  0
  5  9  2  0  0  0  0
  5 18  1  0  0  0  0
  6 20  1  0  0  0  0
  7 22  1  0  0  0  0
  8 12  2  0  0  0  0
  8 21  1  0  0  0  0
  9 24  1  0  0  0  0
 10 26  1  0  0  0  0
 11 26  2  0  0  0  0
 12 27  1  0  0  0  0
 13 14  2  0  0  0  0
 13 28  1  0  0  0  0
 14 29  1  0  0  0  0
 15 23  1  0  0  0  0
 15 27  2  0  0  0  0
 16 29  2  0  0  0  0
 16 30  1  0  0  0  0
 17 32  1  0  0  0  0
 18 25  2  0  0  0  0
 18 38  1  0  0  0  0
 19 32  1  0  0  0  0
 19 33  2  0  0  0  0
 19 39  1  0  0  0  0
 20 22  2  0  0  0  0
 20 44  1  0  0  0  0
 21 23  2  0  0  0  0
 21 45  1  0  0  0  0
 22 55  1  0  0  0  0
 23 46  1  0  0  0  0
 24 31  2  0  0  0  0
 24 70  1  0  0  0  0
 25 31  1  0  0  0  0
 25 75  1  0  0  0  0
 26 85  1  0  0  0  0
 27 86  1  0  0  0  0
 28 30  2  0  0  0  0
 28 85  1  0  0  0  0
 29 87  1  0  0  0  0
 30 88  1  0  0  0  0
 31 89  1  0  0  0  0
 32 68  2  0  0  0  0
 33 69  1  0  0  0  0
 33 73  1  0  0  0  0
 34 35  2  0  0  0  0
 34 36  1  0  0  0  0
 34 64  1  0  0  0  0
 35 58  1  0  0  0  0
 35 70  1  0  0  0  0
 36 47  1  0  0  0  0
 36 79  2  0  0  0  0
 37 38  2  0  0  0  0
 39 74  1  0  0  0  0
 39 80  2  0  0  0  0
 40 56  1  0  0  0  0
 40 76  1  0  0  0  0
 40 81  2  0  0  0  0
 41 65  1  0  0  0  0
 41 71  1  0  0  0  0
 41 82  2  0  0  0  0
 42 66  1  0  0  0  0
 42 77  1  0  0  0  0
 42 83  2  0  0  0  0
 43 72  1  0  0  0  0
 43 75  1  0  0  0  0
 43 84  2  0  0  0  0
 44 48  1  0  0  0  0
 45 56  1  0  0  0  0
 46 71  1  0  0  0  0
 47 52  1  0  0  0  0
 48 50  1  0  0  0  0
 49 51  1  0  0  0  0
 49 53  1  0  0  0  0
 50 55  1  0  0  0  0
 51 57  1  0  0  0  0
 52 70  1  0  0  0  0
 53 72  1  0  0  0  0
 54 57  1  0  0  0  0
 54 72  1  0  0  0  0
 55 76  1  0  0  0  0
 56 71  1  0  0  0  0
 57 69  1  0  0  0  0
 59 66  1  0  0  0  0
 60 67  1  0  0  0  0
 61 67  1  0  0  0  0
 62 67  1  0  0  0  0
 63 78  1  0  0  0  0
 64 86  1  0  0  0  0
 65 67  1  0  0  0  0
 65 77  1  0  0  0  0
 66 78  1  0  0  0  0
 68 69  1  0  0  0  0
M  CHG  1  78   1
M  ISO  4  43 100  64 101  75 100  86 101
M  END
> <Batch ID>
0110

> <Smiles>
C=Cc1ccc(N2CCC(=O)C([101CH2:1][101O:1]c3ccc4c(c3)CN(C(=O)C(NC(=O)C(C)NC)C(C)(C)C)C(C(=O)NC3CCCc5ccccc53)C4)=C2C)c(F)c1[100NH:0][100C:0](=O)N1CCCC(n2nc(-c3ccc(Oc4ccc(F)cc4F)cc3)c(C(N)=O)c2N)C1

> <Shape>
0.274

> <Color>
0.080

> <Negative vol penalty>
0.000

$$$$

  -OEChem-04052301263D

 88 96  0     1  0  0  0  0  0999 V2000
  -31.6084  -32.2001   16.9565 C   0  0  0  0  0  0  0  0  0  0  0  0
  -31.9740  -30.8745   17.1677 C   0  0  0  0  0  0  0  0  0  0  0  0
  -23.0276  -10.0747   19.8419 C   0  0  0  0  0  0  0  0  0  0  0  0
  -23.8586   -9.7336   22.0847 C   0  0  0  0  0  0  0  0  0  0  0  0
  -30.4001  -32.6779   17.4621 C   0  0  0  0  0  0  0  0  0  0  0  0
  -31.1318  -30.0262   17.8857 C   0  0  0  0  0  0  0  0  0  0  0  0
  -30.2607  -24.0386   16.9391 C   0  0  0  0  0  0  0  0  0  0  0  0
  -22.2533   -8.9199   19.9531 C   0  0  0  0  0  0  0  0  0  0  0  0
  -23.0842   -8.5788   22.1959 C   0  0  0  0  0  0  0  0  0  0  0  0
  -30.7899  -22.9050   17.5545 C   0  0  0  0  0  0  0  0  0  0  0  0
  -19.8513   -7.7977   22.7949 C   0  0  0  0  0  0  0  0  0  0  0  0
  -19.1304   -7.6138   23.9747 C   0  0  0  0  0  0  0  0  0  0  0  0
  -28.8461  -22.7775   18.9774 C   0  0  0  0  0  0  0  0  0  0  0  0
  -27.1957  -14.6140   15.5718 C   0  0  0  0  0  0  0  0  0  0  0  0
  -29.0698  -15.3679   16.8971 C   0  0  0  0  0  0  0  0  0  0  0  0
  -20.3279   -5.5561   24.3857 C   0  0  0  0  0  0  0  0  0  0  0  0
  -23.8303  -10.4816   20.9076 C   0  0  0  0  0  0  0  0  0  0  0  0
  -24.2535  -12.9871   21.1329 C   0  0  0  0  0  0  0  0  0  0  0  0
  -29.5382  -31.8324   18.1783 C   0  0  0  0  0  0  0  0  0  0  0  0
  -29.0233  -24.5575   17.3464 C   0  0  0  0  0  0  0  0  0  0  0  0
  -29.9115  -30.4934   18.4025 C   0  0  0  0  0  0  0  0  0  0  0  0
  -28.3023  -23.9164   18.3639 C   0  0  0  0  0  0  0  0  0  0  0  0
  -26.5856  -15.8588   15.7264 C   0  0  0  0  0  0  0  0  0  0  0  0
  -28.4378  -14.3685   16.1572 C   0  0  0  0  0  0  0  0  0  0  0  0
  -28.4598  -16.6127   17.0517 C   0  0  0  0  0  0  0  0  0  0  0  0
  -22.2815   -8.1719   21.1301 C   0  0  0  0  0  0  0  0  0  0  0  0
  -30.0839  -22.2759   18.5757 C   0  0  0  0  0  0  0  0  0  0  0  0
  -20.8105   -6.8607   22.4103 C   0  0  0  0  0  0  0  0  0  0  0  0
  -27.2176  -16.8581   16.4663 C   0  0  0  0  0  0  0  0  0  0  0  0
  -19.3687   -6.4930   24.7701 C   0  0  0  0  0  0  0  0  0  0  0  0
  -21.0488   -5.7400   23.2058 C   0  0  0  0  0  0  0  0  0  0  0  0
  -24.6308  -11.6741   20.7932 C   0  0  0  0  0  0  0  0  0  0  0  0
  -25.3585  -13.7485   20.8402 C   0  0  0  0  0  0  0  0  0  0  0  0
  -30.2895  -19.9472   18.6511 C   0  0  0  0  0  0  0  0  0  1  0  0
  -23.0149  -13.4749   21.6655 C   0  0  0  0  0  0  0  0  0  0  0  0
  -30.7317  -18.7845   19.1506 C   0  0  0  0  0  0  0  0  0  0  0  0
  -30.3445  -17.5221   18.4423 C   0  0  0  0  0  0  0  0  0  0  0  0
  -28.0497  -27.3083   18.6068 C   0  0  0  0  0  0  0  0  0  0  0  0
  -25.1066  -26.0104   18.1870 C   0  0  0  0  0  0  0  0  0  0  0  0
  -23.2019  -23.1994   17.8442 C   0  0  0  0  0  0  0  0  0  0  0  0
  -29.9290  -12.5176   16.9582 C   0  0  0  0  0  0  0  0  0  0  0  0
  -28.2644  -32.4066   18.7461 C   0  0  0  0  0  0  0  0  0  0  0  0
  -28.4539  -25.7655   16.6543 C   0  0  0  0  0  0  0  0  0  0  0  0
  -26.9602  -24.4218   18.8242 C   0  0  0  0  0  0  0  0  0  0  0  0
  -27.2553  -31.3442   19.1744 C   0  0  0  0  0  0  0  0  0  0  0  0
  -30.1216  -13.5095   20.5180 C   0  0  0  0  0  0  0  0  0  0  0  0
  -27.9428  -30.2519   19.9874 C   0  0  0  0  0  0  0  0  0  0  0  0
  -28.7232  -13.1813   21.0377 C   0  0  0  0  0  0  0  0  0  0  0  0
  -30.5221  -12.6024   19.3584 C   0  0  0  0  0  0  0  0  0  0  0  0
  -28.1413  -12.2824   18.7498 C   0  0  0  0  0  0  0  0  0  0  0  0
  -29.0133  -29.5358   19.1551 C   0  0  1  0  0  0  0  0  0  0  0  0
  -27.4238  -26.5082   17.4997 C   0  0  1  0  0  0  0  0  0  0  0  0
  -27.6983  -13.2091   19.8919 C   0  0  1  0  0  0  0  0  0  0  0  0
  -25.2559  -16.1023   15.0920 C   0  0  0  0  0  0  0  0  0  0  0  0
  -33.1284  -18.6445   19.8767 C   0  0  0  0  0  0  0  0  0  0  0  0
  -20.8228  -22.4551   17.5555 C   0  0  0  0  0  0  0  0  0  0  0  0
  -24.5751  -26.5724   21.1386 C   0  0  0  0  0  0  0  0  0  0  0  0
  -22.6360  -24.9934   21.0183 C   0  0  0  0  0  0  0  0  0  0  0  0
  -22.6483  -27.0594   19.6204 C   0  0  0  0  0  0  0  0  0  0  0  0
  -29.0190  -12.4542   14.6779 C   0  0  0  0  0  0  0  0  0  0  0  0
  -23.7950  -21.9242   15.2401 C   0  0  0  0  0  0  0  0  0  0  0  0
  -25.7564  -18.2381   17.7377 C   0  0  0  0  0  0  0  0  0  0  0  0
  -31.6717  -18.6538   20.3186 C   0  0  0  0  0  0  0  0  0  0  0  0
  -24.1900  -25.1475   19.0203 C   0  0  1  0  0  0  0  0  0  0  0  0
  -22.1152  -22.8342   16.8492 C   0  0  2  0  0  0  0  0  0  0  0  0
  -23.5385  -25.9345   20.1923 C   0  0  0  0  0  0  0  0  0  0  0  0
  -25.8780  -11.6019   20.3206 N   0  0  0  0  0  0  0  0  0  0  0  0
  -26.2940  -12.8792   20.3612 N   0  0  0  0  0  0  0  0  0  0  0  0
  -26.4486  -25.6097   18.1209 N   0  0  0  0  0  0  0  0  0  0  0  0
  -29.5089  -12.5923   18.3021 N   0  0  0  0  0  0  0  0  0  0  0  0
  -25.6115  -15.0702   20.9482 N   0  0  0  0  0  0  0  0  0  0  0  0
  -21.9838  -12.5569   21.9071 N   0  0  0  0  0  0  0  0  0  0  0  0
  -29.1152  -17.6164   17.8054 N   0  0  0  0  0  0  0  0  0  0  0  0
  -28.3989  -28.5949   18.2432 N   0  0  0  0  0  0  0  0  0  0  0  0
  -23.2321  -24.5554   18.0928 N   0  0  0  0  0  0  0  0  0  0  0  0
  -29.0683  -13.0810   15.9970 N   0  0  0  0  0  0  0  0  0  0  0  0
  -22.5477  -21.6813   16.0097 N   0  3  0  0  0  0  0  0  0  0  0  0
  -22.8224  -14.6912   21.9043 O   0  0  0  0  0  0  0  0  0  0  0  0
  -31.0783  -16.5422   18.5220 O   0  0  0  0  0  0  0  0  0  0  0  0
  -28.2030  -26.7968   19.7098 O   0  0  0  0  0  0  0  0  0  0  0  0
  -24.6474  -26.9993   17.6102 O   0  0  0  0  0  0  0  0  0  0  0  0
  -23.9469  -22.3648   18.3531 O   0  0  0  0  0  0  0  0  0  0  0  0
  -30.9723  -11.9394   16.6299 O   0  0  0  0  0  0  0  0  0  0  0  0
  -21.5259   -7.0451   21.2391 O   0  0  0  0  0  0  0  0  0  0  0  0
  -30.5983  -21.1696   19.1785 O   0  0  0  0  0  0  0  0  0  1  0  0
  -26.6188  -18.0752   16.6148 O   0  0  0  0  0  0  0  0  0  0  0  0
  -18.6774   -6.3174   25.9039 F   0  0  0  0  0  0  0  0  0  0  0  0
  -21.9698   -4.8370   22.8422 F   0  0  0  0  0  0  0  0  0  0  0  0
  1  2  1  0  0  0  0
  1  5  2  0  0  0  0
  2  6  2  0  0  0  0
  3  8  2  0  0  0  0
  3 17  1  0  0  0  0
  4  9  1  0  0  0  0
  4 17  2  0  0  0  0
  5 19  1  0  0  0  0
  6 21  1  0  0  0  0
  7 10  2  0  0  0  0
  7 20  1  0  0  0  0
  8 26  1  0  0  0  0
  9 26  2  0  0  0  0
 10 27  1  0  0  0  0
 11 12  2  0  0  0  0
 11 28  1  0  0  0  0
 12 30  1  0  0  0  0
 13 22  1  0  0  0  0
 13 27  2  0  0  0  0
 14 23  2  0  0  0  0
 14 24  1  0  0  0  0
 15 24  2  0  0  0  0
 15 25  1  0  0  0  0
 16 30  2  0  0  0  0
 16 31  1  0  0  0  0
 17 32  1  0  0  0  0
 18 32  1  0  0  0  0
 18 33  2  0  0  0  0
 18 35  1  0  0  0  0
 19 21  2  0  0  0  0
 19 42  1  0  0  0  0
 20 22  2  0  0  0  0
 20 43  1  0  0  0  0
 21 51  1  0  0  0  0
 22 44  1  0  0  0  0
 23 29  1  0  0  0  0
 23 54  1  0  0  0  0
 24 76  1  0  0  0  0
 25 29  2  0  0  0  0
 25 73  1  0  0  0  0
 26 84  1  0  0  0  0
 27 85  1  0  0  0  0
 28 31  2  0  0  0  0
 28 84  1  0  0  0  0
 29 86  1  0  0  0  0
 30 87  1  0  0  0  0
 31 88  1  0  0  0  0
 32 67  2  0  0  0  0
 33 68  1  0  0  0  0
 33 71  1  0  0  0  0
 34 36  2  0  0  0  0
 34 85  1  0  0  0  0
 35 72  1  0  0  0  0
 35 78  2  0  0  0  0
 36 37  1  0  0  0  0
 36 63  1  0  0  0  0
 37 73  1  0  0  0  0
 37 79  2  0  0  0  0
 38 52  1  0  0  0  0
 38 74  1  0  0  0  0
 38 80  2  0  0  0  0
 39 64  1  0  0  0  0
 39 69  1  0  0  0  0
 39 81  2  0  0  0  0
 40 65  1  0  0  0  0
 40 75  1  0  0  0  0
 40 82  2  0  0  0  0
 41 70  1  0  0  0  0
 41 76  1  0  0  0  0
 41 83  2  0  0  0  0
 42 45  1  0  0  0  0
 43 52  1  0  0  0  0
 44 69  1  0  0  0  0
 45 47  1  0  0  0  0
 46 48  1  0  0  0  0
 46 49  1  0  0  0  0
 47 51  1  0  0  0  0
 48 53  1  0  0  0  0
 49 70  1  0  0  0  0
 50 53  1  0  0  0  0
 50 70  1  0  0  0  0
 51 74  1  0  0  0  0
 52 69  1  0  0  0  0
 53 68  1  0  0  0  0
 55 63  1  0  0  0  0
 56 65  1  0  0  0  0
 57 66  1  0  0  0  0
 58 66  1  0  0  0  0
 59 66  1  0  0  0  0
 60 76  1  0  0  0  0
 61 77  1  0  0  0  0
 62 86  1  0  0  0  0
 64 66  1  0  0  0  0
 64 75  1  0  0  0  0
 65 77  1  0  0  0  0
 67 68  1  0  0  0  0
M  CHG  1  77   1
M  ISO  4  34 101  41 100  76 100  85 101
M  END
> <Batch ID>
0110

> <Smiles>
CCC(C(=O)Nc1cc([100N:0](C)[100C:0](=O)N2CCCC(n3nc(-c4ccc(Oc5ccc(F)cc5F)cc4)c(C(N)=O)c3N)C2)cc(C)c1OC)=[101CH:1][101O:1]c1ccc2c(c1)CN(C(=O)C(NC(=O)C(C)NC)C(C)(C)C)C(C(=O)NC1CCCc3ccccc31)C2

> <Shape>
0.217

> <Color>
0.170

> <Negative vol penalty>
0.000

$$$$

  -OEChem-04052301263D

 88 96  0     1  0  0  0  0  0999 V2000
  -25.3051  -35.5326   22.0467 C   0  0  0  0  0  0  0  0  0  0  0  0
  -25.9906  -34.3229   21.9994 C   0  0  0  0  0  0  0  0  0  0  0  0
  -20.2057  -13.3293   22.2665 C   0  0  0  0  0  0  0  0  0  0  0  0
  -20.5633  -11.8803   20.3666 C   0  0  0  0  0  0  0  0  0  0  0  0
  -24.0151  -35.5813   22.5734 C   0  0  0  0  0  0  0  0  0  0  0  0
  -25.3868  -33.1614   22.4799 C   0  0  0  0  0  0  0  0  0  0  0  0
  -26.0196  -29.2142   19.3712 C   0  0  0  0  0  0  0  0  0  0  0  0
  -19.0905  -12.5754   22.6316 C   0  0  0  0  0  0  0  0  0  0  0  0
  -19.4481  -11.1263   20.7318 C   0  0  0  0  0  0  0  0  0  0  0  0
  -27.2576  -28.5736   19.3993 C   0  0  0  0  0  0  0  0  0  0  0  0
  -18.6969   -8.7254   22.9884 C   0  0  0  0  0  0  0  0  0  0  0  0
  -18.8183   -7.3361   22.9603 C   0  0  0  0  0  0  0  0  0  0  0  0
  -27.0268  -19.2776   22.5041 C   0  0  0  0  0  0  0  0  0  0  0  0
  -26.3255  -26.8467   20.8022 C   0  0  0  0  0  0  0  0  0  0  0  0
  -29.1660  -19.5558   23.5918 C   0  0  0  0  0  0  0  0  0  0  0  0
  -17.0308   -7.2127   21.3396 C   0  0  0  0  0  0  0  0  0  0  0  0
  -20.9422  -12.9818   21.1339 C   0  0  0  0  0  0  0  0  0  0  0  0
  -27.5104  -19.9488   21.3811 C   0  0  0  0  0  0  0  0  0  0  0  0
  -23.4270  -13.5584   21.1607 C   0  0  0  0  0  0  0  0  0  0  0  0
  -23.3915  -34.4181   23.0517 C   0  0  0  0  0  0  0  0  0  0  0  0
  -24.9262  -28.6807   20.0685 C   0  0  0  0  0  0  0  0  0  0  0  0
  -24.0878  -33.1949   23.0148 C   0  0  0  0  0  0  0  0  0  0  0  0
  -25.0741  -27.4810   20.7792 C   0  0  0  0  0  0  0  0  0  0  0  0
  -27.8545  -19.0811   23.6095 C   0  0  0  0  0  0  0  0  0  0  0  0
  -18.7117  -11.4738   21.8643 C   0  0  0  0  0  0  0  0  0  0  0  0
  -27.4115  -27.3913   20.1172 C   0  0  0  0  0  0  0  0  0  0  0  0
  -17.7424   -9.3583   22.1921 C   0  0  0  0  0  0  0  0  0  0  0  0
  -29.6497  -20.2270   22.4688 C   0  0  0  0  0  0  0  0  0  0  0  0
  -28.8219  -20.4235   21.3635 C   0  0  0  0  0  0  0  0  0  0  0  0
  -17.9853   -6.5798   22.1359 C   0  0  0  0  0  0  0  0  0  0  0  0
  -16.9094   -8.6020   21.3677 C   0  0  0  0  0  0  0  0  0  0  0  0
  -22.0940  -13.7606   20.7559 C   0  0  0  0  0  0  0  0  0  0  0  0
  -24.1318  -14.5555   20.5319 C   0  0  0  0  0  0  0  0  0  0  0  0
  -26.6184  -20.1452   20.2246 C   0  0  0  0  0  0  0  0  0  0  0  0
  -29.1478  -22.4431   20.2292 C   0  0  0  0  0  0  0  0  0  0  0  0
  -23.9788  -12.5587   22.0277 C   0  0  0  0  0  0  0  0  0  0  0  0
  -30.0025  -23.2587   19.6012 C   0  0  0  0  0  0  0  0  0  0  0  0
  -29.8089  -24.7412   19.5787 C   0  0  0  0  0  0  0  0  0  0  0  0
  -23.0824  -29.6836   22.4556 C   0  0  0  0  0  0  0  0  0  0  0  0
  -21.4200  -26.9785   21.7910 C   0  0  0  0  0  0  0  0  0  0  0  0
  -21.4131  -23.8348   20.4631 C   0  0  0  0  0  0  0  0  0  0  0  0
  -24.6222  -19.9285   19.1024 C   0  0  0  0  0  0  0  0  0  0  0  0
  -22.0139  -34.5288   23.6556 C   0  0  0  0  0  0  0  0  0  0  0  0
  -23.5905  -29.3695   20.0063 C   0  0  0  0  0  0  0  0  0  0  0  0
  -23.9262  -26.8562   21.5280 C   0  0  0  0  0  0  0  0  0  0  0  0
  -21.3024  -33.1859   23.7998 C   0  0  0  0  0  0  0  0  0  0  0  0
  -22.7672  -17.7729   16.8849 C   0  0  0  0  0  0  0  0  0  0  0  0
  -22.2406  -32.1471   24.4061 C   0  0  0  0  0  0  0  0  0  0  0  0
  -22.5069  -16.5344   17.7422 C   0  0  0  0  0  0  0  0  0  0  0  0
  -22.7403  -19.0486   17.7211 C   0  0  0  0  0  0  0  0  0  0  0  0
  -23.4209  -17.7882   19.7452 C   0  0  0  0  0  0  0  0  0  0  0  0
  -23.4572  -31.9090   23.5034 C   0  0  1  0  0  0  0  0  0  0  0  0
  -22.6779  -29.0101   21.1747 C   0  0  1  0  0  0  0  0  0  0  0  0
  -23.4716  -16.4785   18.9401 C   0  0  1  0  0  0  0  0  0  0  0  0
  -19.9172  -21.8528   20.1005 C   0  0  0  0  0  0  0  0  0  0  0  0
  -21.6940  -26.2357   24.7377 C   0  0  0  0  0  0  0  0  0  0  0  0
  -21.0525  -23.8920   24.1347 C   0  0  0  0  0  0  0  0  0  0  0  0
  -19.4472  -25.7616   23.7469 C   0  0  0  0  0  0  0  0  0  0  0  0
  -21.6980  -24.0113   17.5226 C   0  0  0  0  0  0  0  0  0  0  0  0
  -31.9357  -19.7988   21.9720 C   0  0  0  0  0  0  0  0  0  0  0  0
  -28.6103  -25.3443   20.2870 C   0  0  0  0  0  0  0  0  0  1  0  0
  -21.4800  -25.5446   22.2593 C   0  0  1  0  0  0  0  0  0  0  0  0
  -20.4541  -23.1466   19.5085 C   0  0  2  0  0  0  0  0  0  0  0  0
  -20.9408  -25.3710   23.7073 C   0  0  0  0  0  0  0  0  0  0  0  0
  -21.9575  -14.8043   19.9336 N   0  0  0  0  0  0  0  0  0  0  0  0
  -25.4013  -19.7095   20.2224 N   0  0  0  0  0  0  0  0  0  0  0  0
  -23.2138  -15.2668   19.8167 N   0  0  0  0  0  0  0  0  0  0  0  0
  -22.6419  -27.5709   21.4420 N   0  0  0  0  0  0  0  0  0  0  0  0
  -23.6437  -18.9451   18.8679 N   0  0  0  0  0  0  0  0  0  0  0  0
  -27.3658  -18.4018   24.7448 N   0  0  0  0  0  0  0  0  0  0  0  0
  -25.4411  -14.8845   20.5265 N   0  0  0  0  0  0  0  0  0  0  0  0
  -23.1135  -11.6099   22.5894 N   0  0  0  0  0  0  0  0  0  0  0  0
  -23.0988  -31.0635   22.3849 N   0  0  0  0  0  0  0  0  0  0  0  0
  -20.7676  -24.7581   21.2581 N   0  0  0  0  0  0  0  0  0  0  0  0
  -21.1411  -22.8268   18.2253 N   0  3  0  0  0  0  0  0  0  0  0  0
  -25.2005  -12.5180   22.3094 O   0  0  0  0  0  0  0  0  0  0  0  0
  -30.6269  -25.4454   18.9850 O   0  0  0  0  0  0  0  0  0  0  0  0
  -23.3577  -29.0018   23.4359 O   0  0  0  0  0  0  0  0  0  0  0  0
  -20.3283  -27.5497   21.7302 O   0  0  0  0  0  0  0  0  0  0  0  0
  -22.6140  -23.5761   20.5024 O   0  0  0  0  0  0  0  0  0  0  0  0
  -24.7498  -20.9018   18.3558 O   0  0  0  0  0  0  0  0  0  0  0  0
  -31.1153  -22.7820   18.9355 O   0  0  0  0  0  0  0  0  0  0  0  0
  -17.6236  -10.7377   22.2205 O   0  0  0  0  0  0  0  0  0  0  0  0
  -29.3043  -21.0823   20.2634 O   0  0  0  0  0  0  0  0  0  0  0  0
  -30.9327  -20.6851   22.4645 O   0  0  0  0  0  0  0  0  0  0  0  0
  -28.6190  -26.7644   20.1468 O   0  0  0  0  0  0  0  0  0  1  0  0
  -18.1031   -5.2458   22.1079 F   0  0  0  0  0  0  0  0  0  0  0  0
  -15.9913   -9.2045   20.5996 F   0  0  0  0  0  0  0  0  0  0  0  0
  1  2  1  0  0  0  0
  1  5  2  0  0  0  0
  2  6  2  0  0  0  0
  3  8  2  0  0  0  0
  3 17  1  0  0  0  0
  4  9  1  0  0  0  0
  4 17  2  0  0  0  0
  5 20  1  0  0  0  0
  6 22  1  0  0  0  0
  7 10  2  0  0  0  0
  7 21  1  0  0  0  0
  8 25  1  0  0  0  0
  9 25  2  0  0  0  0
 10 26  1  0  0  0  0
 11 12  2  0  0  0  0
 11 27  1  0  0  0  0
 12 30  1  0  0  0  0
 13 18  2  0  0  0  0
 13 24  1  0  0  0  0
 14 23  1  0  0  0  0
 14 26  2  0  0  0  0
 15 24  2  0  0  0  0
 15 28  1  0  0  0  0
 16 30  2  0  0  0  0
 16 31  1  0  0  0  0
 17 32  1  0  0  0  0
 18 29  1  0  0  0  0
 18 34  1  0  0  0  0
 19 32  1  0  0  0  0
 19 33  2  0  0  0  0
 19 36  1  0  0  0  0
 20 22  2  0  0  0  0
 20 43  1  0  0  0  0
 21 23  2  0  0  0  0
 21 44  1  0  0  0  0
 22 52  1  0  0  0  0
 23 45  1  0  0  0  0
 24 70  1  0  0  0  0
 25 83  1  0  0  0  0
 26 86  1  0  0  0  0
 27 31  2  0  0  0  0
 27 83  1  0  0  0  0
 28 29  2  0  0  0  0
 28 85  1  0  0  0  0
 29 84  1  0  0  0  0
 30 87  1  0  0  0  0
 31 88  1  0  0  0  0
 32 65  2  0  0  0  0
 33 67  1  0  0  0  0
 33 71  1  0  0  0  0
 34 66  2  0  0  0  0
 35 37  2  0  0  0  0
 35 84  1  0  0  0  0
 36 72  1  0  0  0  0
 36 76  2  0  0  0  0
 37 38  1  0  0  0  0
 37 82  1  0  0  0  0
 38 61  1  0  0  0  0
 38 77  2  0  0  0  0
 39 53  1  0  0  0  0
 39 73  1  0  0  0  0
 39 78  2  0  0  0  0
 40 62  1  0  0  0  0
 40 68  1  0  0  0  0
 40 79  2  0  0  0  0
 41 63  1  0  0  0  0
 41 74  1  0  0  0  0
 41 80  2  0  0  0  0
 42 66  1  0  0  0  0
 42 69  1  0  0  0  0
 42 81  2  0  0  0  0
 43 46  1  0  0  0  0
 44 53  1  0  0  0  0
 45 68  1  0  0  0  0
 46 48  1  0  0  0  0
 47 49  1  0  0  0  0
 47 50  1  0  0  0  0
 48 52  1  0  0  0  0
 49 54  1  0  0  0  0
 50 69  1  0  0  0  0
 51 54  1  0  0  0  0
 51 69  1  0  0  0  0
 52 73  1  0  0  0  0
 53 68  1  0  0  0  0
 54 67  1  0  0  0  0
 55 63  1  0  0  0  0
 56 64  1  0  0  0  0
 57 64  1  0  0  0  0
 58 64  1  0  0  0  0
 59 75  1  0  0  0  0
 60 85  1  0  0  0  0
 61 86  1  0  0  0  0
 62 64  1  0  0  0  0
 62 74  1  0  0  0  0
 63 75  1  0  0  0  0
 65 67  1  0  0  0  0
M  CHG  1  75   1
M  ISO  4  42 100  61 101  66 100  86 101
M  END
> <Batch ID>
0110

> <Smiles>
CNC(C)C(=O)NC(C(=O)N1Cc2cc([101O:1][101CH2:1]C(=O)C(=O)COc3c(C=[100N:0][100C:0](=O)N4CCCC(n5nc(-c6ccc(Oc7ccc(F)cc7F)cc6)c(C(N)=O)c5N)C4)cc(N)cc3OC)ccc2CC1C(=O)NC1CCCc2ccccc21)C(C)(C)C

> <Shape>
0.192

> <Color>
0.120

> <Negative vol penalty>
0.000

$$$$

  -OEChem-04052301263D

 88 97  0     1  0  0  0  0  0999 V2000
  -28.8884  -29.9892   31.2093 C   0  0  0  0  0  0  0  0  0  0  0  0
  -28.7461  -29.0938   30.1541 C   0  0  0  0  0  0  0  0  0  0  0  0
  -23.0068   -9.4150   20.9629 C   0  0  0  0  0  0  0  0  0  0  0  0
  -23.9097  -10.5261   22.9091 C   0  0  0  0  0  0  0  0  0  0  0  0
  -27.8979  -30.9394   31.4541 C   0  0  0  0  0  0  0  0  0  0  0  0
  -27.6126  -29.1475   29.3437 C   0  0  0  0  0  0  0  0  0  0  0  0
  -28.7287  -28.7953   24.4167 C   0  0  0  0  0  0  0  0  0  0  0  0
  -22.3392   -8.5108   21.7888 C   0  0  0  0  0  0  0  0  0  0  0  0
  -23.2420   -9.6218   23.7350 C   0  0  0  0  0  0  0  0  0  0  0  0
  -29.0162  -27.5255   23.9181 C   0  0  0  0  0  0  0  0  0  0  0  0
  -23.0946   -5.7416   23.5737 C   0  0  0  0  0  0  0  0  0  0  0  0
  -23.1533   -4.3900   23.2345 C   0  0  0  0  0  0  0  0  0  0  0  0
  -26.7738  -27.3681   23.0427 C   0  0  0  0  0  0  0  0  0  0  0  0
  -27.9861  -20.1433   19.4592 C   0  0  0  0  0  0  0  0  0  0  0  0
  -30.1699  -18.4885   19.9837 C   0  0  0  0  0  0  0  0  0  0  0  0
  -20.7459   -4.3349   23.0378 C   0  0  0  0  0  0  0  0  0  0  0  0
  -23.7921  -10.4226   21.5230 C   0  0  0  0  0  0  0  0  0  0  0  0
  -23.9085  -12.2397   19.7363 C   0  0  0  0  0  0  0  0  0  0  0  0
  -26.7563  -31.0110   30.6404 C   0  0  0  0  0  0  0  0  0  0  0  0
  -27.4561  -29.3576   24.2412 C   0  0  0  0  0  0  0  0  0  0  0  0
  -26.6053  -30.0987   29.5786 C   0  0  0  0  0  0  0  0  0  0  0  0
  -26.4735  -28.6463   23.5378 C   0  0  0  0  0  0  0  0  0  0  0  0
  -27.8580  -18.7598   19.3368 C   0  0  0  0  0  0  0  0  0  0  0  0
  -29.2062  -20.6995   19.8438 C   0  0  0  0  0  0  0  0  0  0  0  0
  -28.9499  -17.9324   19.5991 C   0  0  0  0  0  0  0  0  0  0  0  0
  -30.2981  -19.8721   20.1061 C   0  0  0  0  0  0  0  0  0  0  0  0
  -22.4567   -8.6142   23.1749 C   0  0  0  0  0  0  0  0  0  0  0  0
  -28.0378  -26.8104   23.2336 C   0  0  0  0  0  0  0  0  0  0  0  0
  -21.8616   -6.3900   23.6450 C   0  0  0  0  0  0  0  0  0  0  0  0
  -21.9790   -3.6866   22.9665 C   0  0  0  0  0  0  0  0  0  0  0  0
  -20.6873   -5.6866   23.3770 C   0  0  0  0  0  0  0  0  0  0  0  0
  -24.4826  -11.3567   20.6704 C   0  0  0  0  0  0  0  0  0  0  0  0
  -24.9787  -12.9048   19.1897 C   0  0  0  0  0  0  0  0  0  0  0  0
  -28.4851  -24.2494   20.7518 C   0  0  0  0  0  0  0  0  0  0  0  0
  -28.5425  -22.8983   20.8375 C   0  0  0  0  0  0  0  0  0  0  0  0
  -29.3707  -24.9255   19.7473 C   0  0  0  0  0  0  0  0  0  0  0  0
  -22.5309  -12.4409   19.3935 C   0  0  0  0  0  0  0  0  0  0  0  0
  -25.1389  -30.3170   26.1941 C   0  0  0  0  0  0  0  0  0  0  0  0
  -23.7825  -31.3624   23.4392 C   0  0  0  0  0  0  0  0  0  0  0  0
  -23.3832  -30.1359   20.0697 C   0  0  0  0  0  0  0  0  0  0  0  0
  -29.8358  -15.5768   19.7116 C   0  0  0  0  0  0  0  0  0  0  0  0
  -25.6902  -32.0246   30.9730 C   0  0  0  0  0  0  0  0  0  0  0  0
  -27.1702  -30.7395   24.7618 C   0  0  0  0  0  0  0  0  0  0  0  0
  -25.0979  -29.2137   23.3049 C   0  0  0  0  0  0  0  0  0  0  0  0
  -30.4589  -24.1045   19.1012 C   0  0  0  0  0  0  0  0  0  0  0  0
  -24.6967  -32.2585   29.8378 C   0  0  0  0  0  0  0  0  0  0  0  0
  -29.9484  -12.0210   19.5682 C   0  0  0  0  0  0  0  0  0  0  0  0
  -24.2277  -30.9286   29.2564 C   0  0  0  0  0  0  0  0  0  0  0  0
  -28.4892  -11.6038   19.7654 C   0  0  0  0  0  0  0  0  0  0  0  0
  -29.9761  -22.7008   18.7907 C   0  0  0  0  0  0  0  0  0  0  0  0
  -30.3088  -13.2407   20.4145 C   0  0  0  0  0  0  0  0  0  0  0  0
  -27.9587  -13.9791   20.4461 C   0  0  0  0  0  0  0  0  0  0  0  0
  -25.4019  -30.1415   28.6621 C   0  0  1  0  0  0  0  0  0  0  0  0
  -25.6823  -31.0026   24.9725 C   0  0  1  0  0  0  0  0  0  0  0  0
  -27.5308  -12.7941   19.5650 C   0  0  2  0  0  0  0  0  0  0  0  0
  -26.5392  -18.1914   18.9236 C   0  0  0  0  0  0  0  0  0  0  0  0
  -27.8098  -22.1842   21.9575 C   0  0  0  0  0  0  0  0  0  0  0  0
  -23.1024  -31.3742   17.9052 C   0  0  0  0  0  0  0  0  0  0  0  0
  -20.7970  -30.9992   23.9534 C   0  0  0  0  0  0  0  0  0  0  0  0
  -20.4923  -30.6117   21.4988 C   0  0  0  0  0  0  0  0  0  0  0  0
  -21.3616  -32.8027   22.3154 C   0  0  0  0  0  0  0  0  0  0  0  0
  -25.6953  -28.7531   18.8445 C   0  0  0  0  0  0  0  0  0  0  0  0
  -27.6186  -25.1639   21.5695 C   0  0  0  0  0  0  0  0  0  1  0  0
  -22.8537  -30.7639   22.4106 C   0  0  1  0  0  0  0  0  0  0  0  0
  -24.0783  -30.6567   18.8247 C   0  0  2  0  0  0  0  0  0  0  0  0
  -21.3940  -31.2782   22.5596 C   0  0  0  0  0  0  0  0  0  0  0  0
  -25.8142  -11.4497   20.7170 N   0  0  0  0  0  0  0  0  0  0  0  0
  -26.0857  -12.3991   19.8054 N   0  0  0  0  0  0  0  0  0  0  0  0
  -29.3150  -22.1121   19.9624 N   0  0  0  0  0  0  0  0  0  0  0  0
  -24.8650  -30.5658   23.8387 N   0  0  0  0  0  0  0  0  0  0  0  0
  -29.3606  -14.3295   20.1690 N   0  0  0  0  0  0  0  0  0  0  0  0
  -31.5426  -20.4146   20.4976 N   0  0  0  0  0  0  0  0  0  0  0  0
  -25.0715  -13.8668   18.2473 N   0  0  0  0  0  0  0  0  0  0  0  0
  -21.7979  -13.3991   20.1069 N   0  0  0  0  0  0  0  0  0  0  0  0
  -28.8390  -16.5246   19.4821 N   0  0  0  0  0  0  0  0  0  0  0  0
  -25.7684  -30.6796   27.3696 N   0  0  0  0  0  0  0  0  0  0  0  0
  -23.4541  -31.0386   21.1096 N   0  0  0  0  0  0  0  0  0  0  0  0
  -24.6966  -29.5316   18.0677 N   0  3  0  0  0  0  0  0  0  0  0  0
  -29.2688  -26.1299   19.5191 O   0  0  0  0  0  0  0  0  0  0  0  0
  -21.9623  -11.7787   18.4925 O   0  0  0  0  0  0  0  0  0  0  0  0
  -24.2159  -29.5192   26.0790 O   0  0  0  0  0  0  0  0  0  0  0  0
  -23.5600  -32.4978   23.8670 O   0  0  0  0  0  0  0  0  0  0  0  0
  -22.8293  -29.0396   20.1141 O   0  0  0  0  0  0  0  0  0  0  0  0
  -31.0359  -15.7798   19.5104 O   0  0  0  0  0  0  0  0  0  0  0  0
  -21.8051   -7.7322   23.9811 O   0  0  0  0  0  0  0  0  0  0  0  0
  -28.3156  -25.5705   22.7465 O   0  0  0  0  0  0  0  0  0  1  0  0
  -22.0355   -2.3889   22.6392 F   0  0  0  0  0  0  0  0  0  0  0  0
  -19.4999   -6.3043   23.4428 F   0  0  0  0  0  0  0  0  0  0  0  0
  1  2  1  0  0  0  0
  1  5  2  0  0  0  0
  2  6  2  0  0  0  0
  3  8  2  0  0  0  0
  3 17  1  0  0  0  0
  4  9  1  0  0  0  0
  4 17  2  0  0  0  0
  5 19  1  0  0  0  0
  6 21  1  0  0  0  0
  7 10  2  0  0  0  0
  7 20  1  0  0  0  0
  8 27  1  0  0  0  0
  9 27  2  0  0  0  0
 10 28  1  0  0  0  0
 11 12  2  0  0  0  0
 11 29  1  0  0  0  0
 12 30  1  0  0  0  0
 13 22  1  0  0  0  0
 13 28  2  0  0  0  0
 14 23  2  0  0  0  0
 14 24  1  0  0  0  0
 15 25  2  0  0  0  0
 15 26  1  0  0  0  0
 16 30  2  0  0  0  0
 16 31  1  0  0  0  0
 17 32  1  0  0  0  0
 18 32  1  0  0  0  0
 18 33  2  0  0  0  0
 18 37  1  0  0  0  0
 19 21  2  0  0  0  0
 19 42  1  0  0  0  0
 20 22  2  0  0  0  0
 20 43  1  0  0  0  0
 21 53  1  0  0  0  0
 22 44  1  0  0  0  0
 23 25  1  0  0  0  0
 23 56  1  0  0  0  0
 24 26  2  0  0  0  0
 24 69  1  0  0  0  0
 25 75  1  0  0  0  0
 26 72  1  0  0  0  0
 27 85  1  0  0  0  0
 28 86  1  0  0  0  0
 29 31  2  0  0  0  0
 29 85  1  0  0  0  0
 30 87  1  0  0  0  0
 31 88  1  0  0  0  0
 32 67  2  0  0  0  0
 33 68  1  0  0  0  0
 33 73  1  0  0  0  0
 34 35  2  0  0  0  0
 34 36  1  0  0  0  0
 34 63  1  0  0  0  0
 35 57  1  0  0  0  0
 35 69  1  0  0  0  0
 36 45  1  0  0  0  0
 36 79  2  0  0  0  0
 37 74  1  0  0  0  0
 37 80  2  0  0  0  0
 38 54  1  0  0  0  0
 38 76  1  0  0  0  0
 38 81  2  0  0  0  0
 39 64  1  0  0  0  0
 39 70  1  0  0  0  0
 39 82  2  0  0  0  0
 40 65  1  0  0  0  0
 40 77  1  0  0  0  0
 40 83  2  0  0  0  0
 41 71  1  0  0  0  0
 41 75  1  0  0  0  0
 41 84  2  0  0  0  0
 42 46  1  0  0  0  0
 43 54  1  0  0  0  0
 44 70  1  0  0  0  0
 45 50  1  0  0  0  0
 46 48  1  0  0  0  0
 47 49  1  0  0  0  0
 47 51  1  0  0  0  0
 48 53  1  0  0  0  0
 49 55  1  0  0  0  0
 50 69  1  0  0  0  0
 51 71  1  0  0  0  0
 52 55  1  0  0  0  0
 52 71  1  0  0  0  0
 53 76  1  0  0  0  0
 54 70  1  0  0  0  0
 55 68  1  0  0  0  0
 58 65  1  0  0  0  0
 59 66  1  0  0  0  0
 60 66  1  0  0  0  0
 61 66  1  0  0  0  0
 62 78  1  0  0  0  0
 63 86  1  0  0  0  0
 64 66  1  0  0  0  0
 64 77  1  0  0  0  0
 65 78  1  0  0  0  0
 67 68  1  0  0  0  0
M  CHG  1  78   1
M  ISO  4  41 100  63 101  75 100  86 101
M  END
> <Batch ID>
0110

> <Smiles>
CNC(C)C(=O)NC(C(=O)N1Cc2cc([101O:1][101CH2:1]C3=C(C)N(c4cc(C)c([100NH:0][100C:0](=O)N5CCCC(n6nc(-c7ccc(Oc8ccc(F)cc8F)cc7)c(C(N)=O)c6N)C5)cc4N)CCC3=O)ccc2CC1C(=O)NC1CCCc2ccccc21)C(C)(C)C

> <Shape>
0.300

> <Color>
0.086

> <Negative vol penalty>
0.000

$$$$

  -OEChem-04052301263D

 90 99  0     1  0  0  0  0  0999 V2000
  -17.4967  -30.7033   23.5618 C   0  0  0  0  0  0  0  0  0  0  0  0
  -18.8145  -30.2987   23.3746 C   0  0  0  0  0  0  0  0  0  0  0  0
  -26.4390  -12.6989   20.9265 C   0  0  0  0  0  0  0  0  0  0  0  0
  -24.9638  -14.1101   19.6345 C   0  0  0  0  0  0  0  0  0  0  0  0
  -16.4821  -29.7510   23.6497 C   0  0  0  0  0  0  0  0  0  0  0  0
  -19.1186  -28.9414   23.2761 C   0  0  0  0  0  0  0  0  0  0  0  0
  -22.3386  -27.9413   19.4976 C   0  0  0  0  0  0  0  0  0  0  0  0
  -25.6631  -11.5873   20.5985 C   0  0  0  0  0  0  0  0  0  0  0  0
  -24.1878  -12.9983   19.3063 C   0  0  0  0  0  0  0  0  0  0  0  0
  -23.6866  -28.2199   19.7193 C   0  0  0  0  0  0  0  0  0  0  0  0
  -22.7418  -10.2081   21.5927 C   0  0  0  0  0  0  0  0  0  0  0  0
  -22.4219   -9.3169   22.6169 C   0  0  0  0  0  0  0  0  0  0  0  0
  -29.0116  -24.1415   21.0565 C   0  0  0  0  0  0  0  0  0  0  0  0
  -24.0862  -25.8867   20.1836 C   0  0  0  0  0  0  0  0  0  0  0  0
  -30.0556  -22.6480   19.4701 C   0  0  0  0  0  0  0  0  0  0  0  0
  -23.5440   -7.5417   21.4226 C   0  0  0  0  0  0  0  0  0  0  0  0
  -26.0893  -13.9604   20.4446 C   0  0  0  0  0  0  0  0  0  0  0  0
  -29.8609  -25.1696   20.6474 C   0  0  0  0  0  0  0  0  0  0  0  0
  -28.2534  -15.3102   20.4954 C   0  0  0  0  0  0  0  0  0  0  0  0
  -16.7727  -28.3818   23.5425 C   0  0  0  0  0  0  0  0  0  0  0  0
  -21.8514  -26.6329   19.6282 C   0  0  0  0  0  0  0  0  0  0  0  0
  -18.1072  -27.9699   23.3639 C   0  0  0  0  0  0  0  0  0  0  0  0
  -22.7321  -25.5937   19.9606 C   0  0  0  0  0  0  0  0  0  0  0  0
  -29.1090  -22.8806   20.4679 C   0  0  0  0  0  0  0  0  0  0  0  0
  -30.8074  -24.9369   19.6497 C   0  0  0  0  0  0  0  0  0  0  0  0
  -24.5375  -11.7369   19.7883 C   0  0  0  0  0  0  0  0  0  0  0  0
  -24.5600  -27.1930   20.0651 C   0  0  0  0  0  0  0  0  0  0  0  0
  -23.4627   -9.7661   20.4834 C   0  0  0  0  0  0  0  0  0  0  0  0
  -22.8230   -7.9837   22.5318 C   0  0  0  0  0  0  0  0  0  0  0  0
  -30.9048  -23.6761   19.0610 C   0  0  0  0  0  0  0  0  0  0  0  0
  -23.8639   -8.4329   20.3983 C   0  0  0  0  0  0  0  0  0  0  0  0
  -26.8902  -15.1092   20.7837 C   0  0  0  0  0  0  0  0  0  0  0  0
  -28.5375  -16.5457   21.0239 C   0  0  0  0  0  0  0  0  0  0  0  0
  -29.4237  -30.1121   19.3947 C   0  0  0  0  0  0  0  0  0  0  0  0
  -29.7382  -26.4928   21.2848 C   0  0  0  0  0  0  0  0  0  0  0  0
  -29.1799  -14.4565   19.8111 C   0  0  0  0  0  0  0  0  0  0  0  0
  -19.7163  -25.2113   21.5055 C   0  0  0  0  0  0  0  0  0  0  0  0
  -20.3033  -22.6631   19.5860 C   0  0  0  0  0  0  0  0  0  0  0  0
  -23.1885  -21.1234   18.0622 C   0  0  0  0  0  0  0  0  0  0  0  0
  -27.2527  -21.8987   21.8594 C   0  0  0  0  0  0  0  0  0  0  0  0
  -15.6486  -27.3873   23.6909 C   0  0  0  0  0  0  0  0  0  0  0  0
  -20.3998  -26.3445   19.3597 C   0  0  0  0  0  0  0  0  0  0  0  0
  -22.2631  -24.1687   20.0937 C   0  0  0  0  0  0  0  0  0  0  0  0
  -29.1712  -29.0471   18.3471 C   0  0  0  0  0  0  0  0  0  0  0  0
  -29.8093  -29.6684   20.7901 C   0  0  0  0  0  0  0  0  0  0  0  0
  -16.0063  -25.9863   23.2016 C   0  0  0  0  0  0  0  0  0  0  0  0
  -27.8961  -28.2659   18.6418 C   0  0  0  0  0  0  0  0  0  0  0  0
  -25.8225  -19.5205   24.0900 C   0  0  0  0  0  0  0  0  0  0  0  0
  -17.3732  -25.5677   23.7337 C   0  0  0  0  0  0  0  0  0  0  0  0
  -26.0849  -18.1773   23.4050 C   0  0  0  0  0  0  0  0  0  0  0  0
  -28.7916  -28.7213   21.4024 C   0  0  0  0  0  0  0  0  0  0  0  0
  -25.5050  -20.6205   23.0787 C   0  0  0  0  0  0  0  0  0  0  0  0
  -26.7537  -19.4345   21.3171 C   0  0  0  0  0  0  0  0  0  0  0  0
  -18.4737  -26.5080   23.2275 C   0  0  1  0  0  0  0  0  0  0  0  0
  -19.9130  -25.0601   20.0236 C   0  0  1  0  0  0  0  0  0  0  0  0
  -27.1417  -18.3099   22.2909 C   0  0  2  0  0  0  0  0  0  0  0  0
  -28.1288  -27.0522   19.5500 C   0  0  2  0  0  0  0  0  0  0  0  0
  -23.3907  -19.7442   15.9755 C   0  0  0  0  0  0  0  0  0  0  0  0
  -19.9993  -20.2860   21.4747 C   0  0  0  0  0  0  0  0  0  0  0  0
  -21.6880  -19.0601   20.0914 C   0  0  0  0  0  0  0  0  0  0  0  0
  -19.5268  -19.7766   19.0723 C   0  0  0  0  0  0  0  0  0  0  0  0
  -25.2512  -22.9214   16.9346 C   0  0  0  0  0  0  0  0  0  0  0  0
  -26.8092  -26.4242   19.9858 C   0  0  0  0  0  0  0  0  0  1  0  0
  -21.2839  -21.5154   19.6027 C   0  0  1  0  0  0  0  0  0  0  0  0
  -23.5483  -21.1275   16.5874 C   0  0  2  0  0  0  0  0  0  0  0  0
  -20.6309  -20.1847   20.0719 C   0  0  0  0  0  0  0  0  0  0  0  0
  -26.3461  -16.1348   21.4441 N   0  0  0  0  0  0  0  0  0  0  0  0
  -27.3727  -16.9921   21.5754 N   0  0  0  0  0  0  0  0  0  0  0  0
  -28.9130  -27.3960   20.7622 N   0  0  0  0  0  0  0  0  0  0  0  0
  -20.8336  -23.9384   19.8272 N   0  0  0  0  0  0  0  0  0  0  0  0
  -26.5513  -20.6904   22.0563 N   0  0  0  0  0  0  0  0  0  0  0  0
  -31.6748  -25.9673   19.2241 N   0  0  0  0  0  0  0  0  0  0  0  0
  -29.6676  -17.2829   21.0661 N   0  0  0  0  0  0  0  0  0  0  0  0
  -28.7221  -13.2214   19.3321 N   0  0  0  0  0  0  0  0  0  0  0  0
  -28.2466  -21.8359   20.8832 N   0  0  0  0  0  0  0  0  0  0  0  0
  -18.8130  -26.1966   21.8555 N   0  0  0  0  0  0  0  0  0  0  0  0
  -21.8662  -21.4566   18.2663 N   0  0  0  0  0  0  0  0  0  0  0  0
  -30.4530  -26.7626   22.3732 N   0  3  0  0  0  0  0  0  0  0  0  0
  -24.9601  -21.5663   16.3998 N   0  3  0  0  0  0  0  0  0  0  0  0
  -29.3695  -31.3087   19.1053 O   0  0  0  0  0  0  0  0  0  0  0  0
  -30.3824  -14.7721   19.6441 O   0  0  0  0  0  0  0  0  0  0  0  0
  -20.3369  -24.4865   22.2744 O   0  0  0  0  0  0  0  0  0  0  0  0
  -19.1118  -22.4372   19.3599 O   0  0  0  0  0  0  0  0  0  0  0  0
  -23.9985  -20.8481   18.9447 O   0  0  0  0  0  0  0  0  0  0  0  0
  -27.0095  -22.9066   22.5279 O   0  0  0  0  0  0  0  0  0  0  0  0
  -23.7802  -10.6523   19.4678 O   0  0  0  0  0  0  0  0  0  0  0  0
  -25.8761  -27.4623   20.2826 O   0  0  0  0  0  0  0  0  0  1  0  0
  -22.5171   -7.1283   23.5162 F   0  0  0  0  0  0  0  0  0  0  0  0
  -31.8107  -23.4406   18.1011 F   0  0  0  0  0  0  0  0  0  0  0  0
  -24.5577   -8.0027   19.3357 F   0  0  0  0  0  0  0  0  0  0  0  0
  1  2  1  0  0  0  0
  1  5  2  0  0  0  0
  2  6  2  0  0  0  0
  3  8  2  0  0  0  0
  3 17  1  0  0  0  0
  4  9  1  0  0  0  0
  4 17  2  0  0  0  0
  5 20  1  0  0  0  0
  6 22  1  0  0  0  0
  7 10  2  0  0  0  0
  7 21  1  0  0  0  0
  8 26  1  0  0  0  0
  9 26  2  0  0  0  0
 10 27  1  0  0  0  0
 11 12  2  0  0  0  0
 11 28  1  0  0  0  0
 12 29  1  0  0  0  0
 13 18  1  0  0  0  0
 13 24  2  0  0  0  0
 14 23  1  0  0  0  0
 14 27  2  0  0  0  0
 15 24  1  0  0  0  0
 15 30  2  0  0  0  0
 16 29  2  0  0  0  0
 16 31  1  0  0  0  0
 17 32  1  0  0  0  0
 18 25  2  0  0  0  0
 18 35  1  0  0  0  0
 19 32  1  0  0  0  0
 19 33  2  0  0  0  0
 19 36  1  0  0  0  0
 20 22  2  0  0  0  0
 20 41  1  0  0  0  0
 21 23  2  0  0  0  0
 21 42  1  0  0  0  0
 22 54  1  0  0  0  0
 23 43  1  0  0  0  0
 24 75  1  0  0  0  0
 25 30  1  0  0  0  0
 25 72  1  0  0  0  0
 26 86  1  0  0  0  0
 27 87  1  0  0  0  0
 28 31  2  0  0  0  0
 28 86  1  0  0  0  0
 29 88  1  0  0  0  0
 30 89  1  0  0  0  0
 31 90  1  0  0  0  0
 32 67  2  0  0  0  0
 33 68  1  0  0  0  0
 33 73  1  0  0  0  0
 34 44  1  0  0  0  0
 34 45  1  0  0  0  0
 34 80  2  0  0  0  0
 35 69  1  0  0  0  0
 35 78  2  0  0  0  0
 36 74  1  0  0  0  0
 36 81  2  0  0  0  0
 37 55  1  0  0  0  0
 37 76  1  0  0  0  0
 37 82  2  0  0  0  0
 38 64  1  0  0  0  0
 38 70  1  0  0  0  0
 38 83  2  0  0  0  0
 39 65  1  0  0  0  0
 39 77  1  0  0  0  0
 39 84  2  0  0  0  0
 40 71  1  0  0  0  0
 40 75  1  0  0  0  0
 40 85  2  0  0  0  0
 41 46  1  0  0  0  0
 42 55  1  0  0  0  0
 43 70  1  0  0  0  0
 44 47  1  0  0  0  0
 45 51  1  0  0  0  0
 46 49  1  0  0  0  0
 47 57  1  0  0  0  0
 48 50  1  0  0  0  0
 48 52  1  0  0  0  0
 49 54  1  0  0  0  0
 50 56  1  0  0  0  0
 51 69  1  0  0  0  0
 52 71  1  0  0  0  0
 53 56  1  0  0  0  0
 53 71  1  0  0  0  0
 54 76  1  0  0  0  0
 55 70  1  0  0  0  0
 56 68  1  0  0  0  0
 57 63  1  0  0  0  0
 57 69  1  0  0  0  0
 58 65  1  0  0  0  0
 59 66  1  0  0  0  0
 60 66  1  0  0  0  0
 61 66  1  0  0  0  0
 62 79  1  0  0  0  0
 63 87  1  0  0  0  0
 64 66  1  0  0  0  0
 64 77  1  0  0  0  0
 65 79  1  0  0  0  0
 67 68  1  0  0  0  0
M  CHG  2  78   1  79   1
M  ISO  4  40 100  63 101  75 100  87 101
M  END
> <Batch ID>
0110

> <Smiles>
CNC(C)C(=O)NC(C(=O)N1Cc2cc([101O:1][101CH2:1]C3CCC(=O)CCN3C(=N)c3cc([100NH:0][100C:0](=O)N4CCCC(n5nc(-c6ccc(Oc7ccc(F)cc7F)cc6)c(C(N)=O)c5N)C4)cc(F)c3N)ccc2CC1C(=O)NC1CCCc2ccccc21)C(C)(C)C

> <Shape>
0.246

> <Color>
0.055

> <Negative vol penalty>
0.000

$$$$

  -OEChem-04052301263D

 88 97  0     1  0  0  0  0  0999 V2000
  -18.3320  -28.3626   26.3110 C   0  0  0  0  0  0  0  0  0  0  0  0
  -19.6962  -28.0964   26.3691 C   0  0  0  0  0  0  0  0  0  0  0  0
  -22.5633  -10.9779   21.5263 C   0  0  0  0  0  0  0  0  0  0  0  0
  -22.7537  -12.7425   23.1654 C   0  0  0  0  0  0  0  0  0  0  0  0
  -17.6748  -28.3638   25.0814 C   0  0  0  0  0  0  0  0  0  0  0  0
  -20.4039  -27.8301   25.1975 C   0  0  0  0  0  0  0  0  0  0  0  0
  -26.8738  -28.7296   22.2566 C   0  0  0  0  0  0  0  0  0  0  0  0
  -30.6991  -20.7353   20.1607 C   0  0  0  0  0  0  0  0  0  0  0  0
  -30.4814  -19.3950   20.4797 C   0  0  0  0  0  0  0  0  0  0  0  0
  -21.5334  -10.3997   22.2682 C   0  0  0  0  0  0  0  0  0  0  0  0
  -21.7236  -12.1644   23.9074 C   0  0  0  0  0  0  0  0  0  0  0  0
  -27.8821  -28.0001   21.6283 C   0  0  0  0  0  0  0  0  0  0  0  0
  -21.2306   -8.4770   25.0315 C   0  0  0  0  0  0  0  0  0  0  0  0
  -21.2695   -7.0964   25.2267 C   0  0  0  0  0  0  0  0  0  0  0  0
  -26.6577  -28.1072   19.5525 C   0  0  0  0  0  0  0  0  0  0  0  0
  -28.8643  -20.6598   18.5907 C   0  0  0  0  0  0  0  0  0  0  0  0
  -19.1372   -6.8788   24.1116 C   0  0  0  0  0  0  0  0  0  0  0  0
  -23.1735  -12.1492   21.9749 C   0  0  0  0  0  0  0  0  0  0  0  0
  -24.1714  -13.2169   19.8840 C   0  0  0  0  0  0  0  0  0  0  0  0
  -18.3767  -28.1069   23.8931 C   0  0  0  0  0  0  0  0  0  0  0  0
  -25.7428  -29.1447   21.5391 C   0  0  0  0  0  0  0  0  0  0  0  0
  -19.7553  -27.8266   23.9509 C   0  0  0  0  0  0  0  0  0  0  0  0
  -25.6377  -28.8440   20.1735 C   0  0  0  0  0  0  0  0  0  0  0  0
  -29.8906  -21.3678   19.2163 C   0  0  0  0  0  0  0  0  0  0  0  0
  -29.4552  -18.6870   19.8541 C   0  0  0  0  0  0  0  0  0  0  0  0
  -21.1135  -10.9930   23.4588 C   0  0  0  0  0  0  0  0  0  0  0  0
  -27.7728  -27.6863   20.2767 C   0  0  0  0  0  0  0  0  0  0  0  0
  -20.1450   -9.0585   24.3765 C   0  0  0  0  0  0  0  0  0  0  0  0
  -28.6466  -19.3195   18.9096 C   0  0  0  0  0  0  0  0  0  0  0  0
  -20.2228   -6.2973   24.7667 C   0  0  0  0  0  0  0  0  0  0  0  0
  -19.0984   -8.2594   23.9166 C   0  0  0  0  0  0  0  0  0  0  0  0
  -24.2379  -12.7466   21.2092 C   0  0  0  0  0  0  0  0  0  0  0  0
  -25.4353  -13.6869   19.6227 C   0  0  0  0  0  0  0  0  0  0  0  0
  -29.3066  -24.9729   18.4579 C   0  0  0  0  0  0  0  0  0  0  0  0
  -29.1703  -23.7645   19.0563 C   0  0  0  0  0  0  0  0  0  0  0  0
  -30.4834  -25.1835   17.5493 C   0  0  0  0  0  0  0  0  0  0  0  0
  -23.0661  -13.2280   18.9709 C   0  0  0  0  0  0  0  0  0  0  0  0
  -22.6225  -28.5737   21.7433 C   0  0  0  0  0  0  0  0  0  0  0  0
  -22.4540  -30.8217   19.4107 C   0  0  0  0  0  0  0  0  0  0  0  0
  -24.0076  -32.4703   16.8582 C   0  0  0  0  0  0  0  0  0  0  0  0
  -29.9665  -16.5622   21.1071 C   0  0  0  0  0  0  0  0  0  0  0  0
  -17.6140  -28.0724   22.5924 C   0  0  0  0  0  0  0  0  0  0  0  0
  -24.6765  -29.9539   22.2251 C   0  0  0  0  0  0  0  0  0  0  0  0
  -24.4533  -29.2838   19.3536 C   0  0  0  0  0  0  0  0  0  0  0  0
  -31.3744  -24.0051   17.2385 C   0  0  0  0  0  0  0  0  0  0  0  0
  -18.5098  -28.1502   21.3588 C   0  0  0  0  0  0  0  0  0  0  0  0
  -29.7395  -13.1946   22.2405 C   0  0  0  0  0  0  0  0  0  0  0  0
  -19.6884  -27.1913   21.4937 C   0  0  0  0  0  0  0  0  0  0  0  0
  -28.2825  -12.8165   21.9642 C   0  0  0  0  0  0  0  0  0  0  0  0
  -31.4617  -23.0412   18.4088 C   0  0  0  0  0  0  0  0  0  0  0  0
  -29.8727  -14.6486   22.6896 C   0  0  0  0  0  0  0  0  0  0  0  0
  -27.7902  -15.2556   21.5218 C   0  0  0  0  0  0  0  0  0  0  0  0
  -20.5624  -27.5576   22.6994 C   0  0  1  0  0  0  0  0  0  0  0  0
  -23.3257  -29.8826   21.5198 C   0  0  1  0  0  0  0  0  0  0  0  0
  -27.6125  -13.8189   21.0040 C   0  0  2  0  0  0  0  0  0  0  0  0
  -28.0327  -23.5276   20.0306 C   0  0  0  0  0  0  0  0  0  0  0  0
  -23.6024  -34.2266   15.1122 C   0  0  0  0  0  0  0  0  0  0  0  0
  -20.8605  -28.8099   17.7604 C   0  0  0  0  0  0  0  0  0  0  0  0
  -21.3059  -30.2199   15.7400 C   0  0  0  0  0  0  0  0  0  0  0  0
  -20.0065  -31.1580   17.6516 C   0  0  0  0  0  0  0  0  0  0  0  0
  -26.1205  -34.2226   17.9645 C   0  0  0  0  0  0  0  0  0  0  0  0
  -26.3570  -18.6765   18.9123 C   0  0  0  0  0  0  0  0  0  0  0  0
  -28.3666  -26.1398   18.5704 C   0  0  0  0  0  0  0  0  0  1  0  0
  -22.4970  -30.8020   17.9019 C   0  0  1  0  0  0  0  0  0  0  0  0
  -24.1000  -33.9477   16.5219 C   0  0  2  0  0  0  0  0  0  0  0  0
  -21.1890  -30.2373   17.2791 C   0  0  0  0  0  0  0  0  0  0  0  0
  -25.4483  -12.9034   21.7519 N   0  0  0  0  0  0  0  0  0  0  0  0
  -26.1541  -13.4774   20.7627 N   0  0  0  0  0  0  0  0  0  0  0  0
  -30.1116  -22.7313   18.8924 N   0  0  0  0  0  0  0  0  0  0  0  0
  -23.4341  -30.0672   20.0712 N   0  0  0  0  0  0  0  0  0  0  0  0
  -29.2186  -15.5406   21.7297 N   0  0  0  0  0  0  0  0  0  0  0  0
  -25.9908  -14.2547   18.5311 N   0  0  0  0  0  0  0  0  0  0  0  0
  -22.2221  -14.3469   18.9572 N   0  0  0  0  0  0  0  0  0  0  0  0
  -29.2465  -17.3262   20.1892 N   0  0  0  0  0  0  0  0  0  0  0  0
  -21.4053  -28.6916   22.3867 N   0  0  0  0  0  0  0  0  0  0  0  0
  -22.8185  -32.1625   17.4848 N   0  0  0  0  0  0  0  0  0  0  0  0
  -25.5117  -34.4146   16.6230 N   0  3  0  0  0  0  0  0  0  0  0  0
  -30.6869  -26.2780   17.0243 O   0  0  0  0  0  0  0  0  0  0  0  0
  -22.8241  -12.2670   18.2019 O   0  0  0  0  0  0  0  0  0  0  0  0
  -23.1449  -27.5339   21.3590 O   0  0  0  0  0  0  0  0  0  0  0  0
  -21.5874  -31.4879   19.9824 O   0  0  0  0  0  0  0  0  0  0  0  0
  -24.8993  -31.6686   16.5884 O   0  0  0  0  0  0  0  0  0  0  0  0
  -31.1648  -16.7285   21.3487 O   0  0  0  0  0  0  0  0  0  0  0  0
  -20.1083  -10.4292   24.1829 O   0  0  0  0  0  0  0  0  0  0  0  0
  -27.6380  -18.6462   18.2869 O   0  0  0  0  0  0  0  0  0  0  0  0
  -28.7553  -26.9738   19.6611 O   0  0  0  0  0  0  0  0  0  1  0  0
  -20.2610   -4.9714   24.9528 F   0  0  0  0  0  0  0  0  0  0  0  0
  -18.0534   -8.8123   23.2855 F   0  0  0  0  0  0  0  0  0  0  0  0
  1  2  1  0  0  0  0
  1  5  2  0  0  0  0
  2  6  2  0  0  0  0
  3 10  2  0  0  0  0
  3 18  1  0  0  0  0
  4 11  1  0  0  0  0
  4 18  2  0  0  0  0
  5 20  1  0  0  0  0
  6 22  1  0  0  0  0
  7 12  2  0  0  0  0
  7 21  1  0  0  0  0
  8  9  2  0  0  0  0
  8 24  1  0  0  0  0
  9 25  1  0  0  0  0
 10 26  1  0  0  0  0
 11 26  2  0  0  0  0
 12 27  1  0  0  0  0
 13 14  2  0  0  0  0
 13 28  1  0  0  0  0
 14 30  1  0  0  0  0
 15 23  1  0  0  0  0
 15 27  2  0  0  0  0
 16 24  2  0  0  0  0
 16 29  1  0  0  0  0
 17 30  2  0  0  0  0
 17 31  1  0  0  0  0
 18 32  1  0  0  0  0
 19 32  1  0  0  0  0
 19 33  2  0  0  0  0
 19 37  1  0  0  0  0
 20 22  2  0  0  0  0
 20 42  1  0  0  0  0
 21 23  2  0  0  0  0
 21 43  1  0  0  0  0
 22 53  1  0  0  0  0
 23 44  1  0  0  0  0
 24 69  1  0  0  0  0
 25 29  2  0  0  0  0
 25 74  1  0  0  0  0
 26 84  1  0  0  0  0
 27 86  1  0  0  0  0
 28 31  2  0  0  0  0
 28 84  1  0  0  0  0
 29 85  1  0  0  0  0
 30 87  1  0  0  0  0
 31 88  1  0  0  0  0
 32 67  2  0  0  0  0
 33 68  1  0  0  0  0
 33 72  1  0  0  0  0
 34 35  2  0  0  0  0
 34 36  1  0  0  0  0
 34 63  1  0  0  0  0
 35 56  1  0  0  0  0
 35 69  1  0  0  0  0
 36 45  1  0  0  0  0
 36 78  2  0  0  0  0
 37 73  1  0  0  0  0
 37 79  2  0  0  0  0
 38 54  1  0  0  0  0
 38 75  1  0  0  0  0
 38 80  2  0  0  0  0
 39 64  1  0  0  0  0
 39 70  1  0  0  0  0
 39 81  2  0  0  0  0
 40 65  1  0  0  0  0
 40 76  1  0  0  0  0
 40 82  2  0  0  0  0
 41 71  1  0  0  0  0
 41 74  1  0  0  0  0
 41 83  2  0  0  0  0
 42 46  1  0  0  0  0
 43 54  1  0  0  0  0
 44 70  1  0  0  0  0
 45 50  1  0  0  0  0
 46 48  1  0  0  0  0
 47 49  1  0  0  0  0
 47 51  1  0  0  0  0
 48 53  1  0  0  0  0
 49 55  1  0  0  0  0
 50 69  1  0  0  0  0
 51 71  1  0  0  0  0
 52 55  1  0  0  0  0
 52 71  1  0  0  0  0
 53 75  1  0  0  0  0
 54 70  1  0  0  0  0
 55 68  1  0  0  0  0
 57 65  1  0  0  0  0
 58 66  1  0  0  0  0
 59 66  1  0  0  0  0
 60 66  1  0  0  0  0
 61 77  1  0  0  0  0
 62 85  1  0  0  0  0
 63 86  1  0  0  0  0
 64 66  1  0  0  0  0
 64 76  1  0  0  0  0
 65 77  1  0  0  0  0
 67 68  1  0  0  0  0
M  CHG  1  77   1
M  ISO  4  41 100  63 101  74 100  86 101
M  END
> <Batch ID>
0110

> <Smiles>
CNC(C)C(=O)NC(C(=O)N1Cc2cc([101O:1][101CH2:1]C3=C(C)N(c4ccc([100NH:0][100C:0](=O)N5CCCC(n6nc(-c7ccc(Oc8ccc(F)cc8F)cc7)c(C(N)=O)c6N)C5)c(OC)c4)CCC3=O)ccc2CC1C(=O)NC1CCCc2ccccc21)C(C)(C)C

> <Shape>
0.281

> <Color>
0.077

> <Negative vol penalty>
0.000

$$$$

  -OEChem-04052301263D

 90 99  0     1  0  0  0  0  0999 V2000
  -29.5701  -32.9532   24.8369 C   0  0  0  0  0  0  0  0  0  0  0  0
  -29.8009  -31.5942   25.0248 C   0  0  0  0  0  0  0  0  0  0  0  0
  -23.0736   -9.8725   19.9433 C   0  0  0  0  0  0  0  0  0  0  0  0
  -23.8327   -9.8809   22.2370 C   0  0  0  0  0  0  0  0  0  0  0  0
  -28.2702  -33.4534   24.8989 C   0  0  0  0  0  0  0  0  0  0  0  0
  -28.7320  -30.7348   25.2759 C   0  0  0  0  0  0  0  0  0  0  0  0
  -28.9951  -26.4641   22.5673 C   0  0  0  0  0  0  0  0  0  0  0  0
  -22.3283   -8.7205   20.1942 C   0  0  0  0  0  0  0  0  0  0  0  0
  -23.0874   -8.7289   22.4879 C   0  0  0  0  0  0  0  0  0  0  0  0
  -29.8795  -25.4820   23.0112 C   0  0  0  0  0  0  0  0  0  0  0  0
  -19.8581   -7.9355   23.0901 C   0  0  0  0  0  0  0  0  0  0  0  0
  -19.1006   -7.8977   24.2607 C   0  0  0  0  0  0  0  0  0  0  0  0
  -28.0408  -24.2912   24.0213 C   0  0  0  0  0  0  0  0  0  0  0  0
  -29.8843  -17.4576   23.1356 C   0  0  0  0  0  0  0  0  0  0  0  0
  -32.0679  -16.6073   22.5473 C   0  0  0  0  0  0  0  0  0  0  0  0
  -20.3395   -5.9595   24.9996 C   0  0  0  0  0  0  0  0  0  0  0  0
  -23.8259  -10.4527   20.9647 C   0  0  0  0  0  0  0  0  0  0  0  0
  -24.1707  -12.9773   20.8423 C   0  0  0  0  0  0  0  0  0  0  0  0
  -27.1837  -32.5982   25.1413 C   0  0  0  0  0  0  0  0  0  0  0  0
  -27.6261  -26.3725   22.8569 C   0  0  0  0  0  0  0  0  0  0  0  0
  -27.4164  -31.2242   25.3425 C   0  0  0  0  0  0  0  0  0  0  0  0
  -27.1407  -25.2721   23.5777 C   0  0  0  0  0  0  0  0  0  0  0  0
  -30.4724  -18.3431   24.0387 C   0  0  0  0  0  0  0  0  0  0  0  0
  -31.8582  -18.3608   24.1961 C   0  0  0  0  0  0  0  0  0  0  0  0
  -30.6820  -16.5896   22.3899 C   0  0  0  0  0  0  0  0  0  0  0  0
  -32.6560  -17.4929   23.4504 C   0  0  0  0  0  0  0  0  0  0  0  0
  -22.3351   -8.1487   21.4665 C   0  0  0  0  0  0  0  0  0  0  0  0
  -29.4029  -24.3969   23.7408 C   0  0  0  0  0  0  0  0  0  0  0  0
  -20.8562   -6.9853   22.8741 C   0  0  0  0  0  0  0  0  0  0  0  0
  -19.3414   -6.9097   25.2155 C   0  0  0  0  0  0  0  0  0  0  0  0
  -21.0969   -5.9974   23.8289 C   0  0  0  0  0  0  0  0  0  0  0  0
  -24.5965  -11.6424   20.7061 C   0  0  0  0  0  0  0  0  0  0  0  0
  -25.2639  -13.7252   20.4786 C   0  0  0  0  0  0  0  0  0  0  0  0
  -32.4503  -22.4826   24.4399 C   0  0  0  0  0  0  0  0  0  0  0  0
  -32.7298  -21.3162   23.8171 C   0  0  0  0  0  0  0  0  0  0  0  0
  -32.9433  -22.7314   25.8361 C   0  0  0  0  0  0  0  0  0  0  0  0
  -22.9007  -13.4951   21.2602 C   0  0  0  0  0  0  0  0  0  0  0  0
  -25.5535  -28.1512   24.4830 C   0  0  0  0  0  0  0  0  0  0  0  0
  -23.4020  -26.0301   23.3019 C   0  0  0  0  0  0  0  0  0  0  0  0
  -22.7922  -22.9129   22.0538 C   0  0  0  0  0  0  0  0  0  0  0  0
  -30.7313  -14.7645   20.6542 C   0  0  0  0  0  0  0  0  0  0  0  0
  -25.8014  -33.1924   25.2463 C   0  0  0  0  0  0  0  0  0  0  0  0
  -26.6813  -27.4264   22.3479 C   0  0  0  0  0  0  0  0  0  0  0  0
  -25.6772  -25.1167   23.8976 C   0  0  0  0  0  0  0  0  0  0  0  0
  -33.8797  -21.7320   26.4657 C   0  0  0  0  0  0  0  0  0  0  0  0
  -24.6841  -32.1572   25.1448 C   0  0  0  0  0  0  0  0  0  0  0  0
  -29.6149  -12.3496   18.2880 C   0  0  0  0  0  0  0  0  0  0  0  0
  -24.9881  -30.9548   26.0329 C   0  0  0  0  0  0  0  0  0  0  0  0
  -28.1747  -12.0601   18.7173 C   0  0  0  0  0  0  0  0  0  0  0  0
  -30.5298  -12.5785   19.4897 C   0  0  0  0  0  0  0  0  0  0  0  0
  -28.6232  -13.3066   20.8696 C   0  0  0  0  0  0  0  0  0  0  0  0
  -34.5043  -20.8294   25.4264 C   0  0  0  0  0  0  0  0  0  0  0  0
  -26.2803  -30.2563   25.5925 C   0  0  1  0  0  0  0  0  0  0  0  0
  -25.3804  -27.4964   23.1417 C   0  0  1  0  0  0  0  0  0  0  0  0
  -27.6506  -13.1333   19.6916 C   0  0  2  0  0  0  0  0  0  0  0  0
  -29.5954  -19.2610   24.8258 C   0  0  0  0  0  0  0  0  0  0  0  0
  -33.4389  -21.4479   21.4540 C   0  0  0  0  0  0  0  0  0  0  0  0
  -20.9290  -21.4578   21.2121 C   0  0  0  0  0  0  0  0  0  0  0  0
  -22.4679  -25.5712   26.1702 C   0  0  0  0  0  0  0  0  0  0  0  0
  -21.3238  -23.4854   25.3900 C   0  0  0  0  0  0  0  0  0  0  0  0
  -20.6275  -25.7020   24.4820 C   0  0  0  0  0  0  0  0  0  0  0  0
  -24.0372  -22.6658   19.3803 C   0  0  0  0  0  0  0  0  0  0  0  0
  -32.4871  -19.3147   25.1685 C   0  0  0  0  0  0  0  0  0  0  0  0
  -31.6429  -23.6054   23.8490 C   0  0  0  0  0  0  0  0  0  1  0  0
  -32.3394  -21.0145   22.3931 C   0  0  0  0  0  0  0  0  0  0  0  0
  -22.8390  -24.7083   23.7652 C   0  0  1  0  0  0  0  0  0  0  0  0
  -22.0170  -22.4505   20.8333 C   0  0  2  0  0  0  0  0  0  0  0  0
  -21.8425  -24.8703   24.9476 C   0  0  0  0  0  0  0  0  0  0  0  0
  -25.8614  -11.5447   20.2883 N   0  0  0  0  0  0  0  0  0  0  0  0
  -26.2398  -12.8277   20.1588 N   0  0  0  0  0  0  0  0  0  0  0  0
  -24.7941  -26.1765   23.3834 N   0  0  0  0  0  0  0  0  0  0  0  0
  -29.9717  -13.6109   20.3659 N   0  0  0  0  0  0  0  0  0  0  0  0
  -34.0610  -17.4958   23.5954 N   0  0  0  0  0  0  0  0  0  0  0  0
  -25.4759  -15.0563   20.4043 N   0  0  0  0  0  0  0  0  0  0  0  0
  -21.8876  -12.5874   21.5980 N   0  0  0  0  0  0  0  0  0  0  0  0
  -30.0847  -15.6911   21.4714 N   0  0  0  0  0  0  0  0  0  0  0  0
  -26.0406  -29.4428   24.4198 N   0  0  0  0  0  0  0  0  0  0  0  0
  -22.2662  -24.0720   22.5839 N   0  0  0  0  0  0  0  0  0  0  0  0
  -33.4485  -20.2724   24.5173 N   0  3  1  0  0  0  0  0  0  0  0  0
  -22.9319  -21.7949   19.8564 N   0  3  0  0  0  0  0  0  0  0  0  0
  -32.5785  -23.7241   26.4660 O   0  0  0  0  0  0  0  0  0  0  0  0
  -22.6659  -14.7260   21.3162 O   0  0  0  0  0  0  0  0  0  0  0  0
  -25.2649  -27.5311   25.4998 O   0  0  0  0  0  0  0  0  0  0  0  0
  -22.6357  -26.8981   22.8765 O   0  0  0  0  0  0  0  0  0  0  0  0
  -23.7646  -22.3045   22.4952 O   0  0  0  0  0  0  0  0  0  0  0  0
  -31.8607  -14.9314   20.1868 O   0  0  0  0  0  0  0  0  0  0  0  0
  -21.6078   -7.0247   21.7117 O   0  0  0  0  0  0  0  0  0  0  0  0
  -30.2641  -23.4372   24.1758 O   0  0  0  0  0  0  0  0  0  1  0  0
  -18.6150   -6.8744   26.3404 F   0  0  0  0  0  0  0  0  0  0  0  0
  -22.0552   -5.0825   23.6275 F   0  0  0  0  0  0  0  0  0  0  0  0
  1  2  1  0  0  0  0
  1  5  2  0  0  0  0
  2  6  2  0  0  0  0
  3  8  2  0  0  0  0
  3 17  1  0  0  0  0
  4  9  1  0  0  0  0
  4 17  2  0  0  0  0
  5 19  1  0  0  0  0
  6 21  1  0  0  0  0
  7 10  2  0  0  0  0
  7 20  1  0  0  0  0
  8 27  1  0  0  0  0
  9 27  2  0  0  0  0
 10 28  1  0  0  0  0
 11 12  2  0  0  0  0
 11 29  1  0  0  0  0
 12 30  1  0  0  0  0
 13 22  1  0  0  0  0
 13 28  2  0  0  0  0
 14 23  2  0  0  0  0
 14 25  1  0  0  0  0
 15 25  2  0  0  0  0
 15 26  1  0  0  0  0
 16 30  2  0  0  0  0
 16 31  1  0  0  0  0
 17 32  1  0  0  0  0
 18 32  1  0  0  0  0
 18 33  2  0  0  0  0
 18 37  1  0  0  0  0
 19 21  2  0  0  0  0
 19 42  1  0  0  0  0
 20 22  2  0  0  0  0
 20 43  1  0  0  0  0
 21 53  1  0  0  0  0
 22 44  1  0  0  0  0
 23 24  1  0  0  0  0
 23 56  1  0  0  0  0
 24 26  2  0  0  0  0
 24 63  1  0  0  0  0
 25 76  1  0  0  0  0
 26 73  1  0  0  0  0
 27 87  1  0  0  0  0
 28 88  1  0  0  0  0
 29 31  2  0  0  0  0
 29 87  1  0  0  0  0
 30 89  1  0  0  0  0
 31 90  1  0  0  0  0
 32 69  2  0  0  0  0
 33 70  1  0  0  0  0
 33 74  1  0  0  0  0
 34 35  2  0  0  0  0
 34 36  1  0  0  0  0
 34 64  1  0  0  0  0
 35 65  1  0  0  0  0
 35 79  1  0  0  0  0
 36 45  1  0  0  0  0
 36 81  2  0  0  0  0
 37 75  1  0  0  0  0
 37 82  2  0  0  0  0
 38 54  1  0  0  0  0
 38 77  1  0  0  0  0
 38 83  2  0  0  0  0
 39 66  1  0  0  0  0
 39 71  1  0  0  0  0
 39 84  2  0  0  0  0
 40 67  1  0  0  0  0
 40 78  1  0  0  0  0
 40 85  2  0  0  0  0
 41 72  1  0  0  0  0
 41 76  1  0  0  0  0
 41 86  2  0  0  0  0
 42 46  1  0  0  0  0
 43 54  1  0  0  0  0
 44 71  1  0  0  0  0
 45 52  1  0  0  0  0
 46 48  1  0  0  0  0
 47 49  1  0  0  0  0
 47 50  1  0  0  0  0
 48 53  1  0  0  0  0
 49 55  1  0  0  0  0
 50 72  1  0  0  0  0
 51 55  1  0  0  0  0
 51 72  1  0  0  0  0
 52 79  1  0  0  0  0
 53 77  1  0  0  0  0
 54 71  1  0  0  0  0
 55 70  1  0  0  0  0
 57 65  1  0  0  0  0
 58 67  1  0  0  0  0
 59 68  1  0  0  0  0
 60 68  1  0  0  0  0
 61 68  1  0  0  0  0
 62 80  1  0  0  0  0
 63 79  1  0  0  0  0
 64 88  1  0  0  0  0
 66 68  1  0  0  0  0
 66 78  1  0  0  0  0
 67 80  1  0  0  0  0
 69 70  1  0  0  0  0
M  CHG  2  79   1  80   1
M  ISO  4  41 100  64 101  76 100  88 101
M  END
> <Batch ID>
0110

> <Smiles>
CCC1=C([101CH2:1][101O:1]c2ccc3c(c2)CN(C(=O)C(NC(=O)C(C)NC)C(C)(C)C)C(C(=O)NC2CCCc4ccccc42)C3)C(=O)CCN1Cc1c(C)cc([100NH:0][100C:0](=O)N2CCCC(n3nc(-c4ccc(Oc5ccc(F)cc5F)cc4)c(C(N)=O)c3N)C2)cc1N

> <Shape>
0.232

> <Color>
0.173

> <Negative vol penalty>
0.000

$$$$

  -OEChem-04052301263D

 87 95  0     1  0  0  0  0  0999 V2000
  -29.8781  -23.4140   24.7397 C   0  0  0  0  0  0  0  0  0  0  0  0
  -28.5402  -23.3587   24.3624 C   0  0  0  0  0  0  0  0  0  0  0  0
  -30.5159  -25.4975   21.2883 C   0  0  0  0  0  0  0  0  0  0  0  0
  -30.7514  -27.7764   20.5214 C   0  0  0  0  0  0  0  0  0  0  0  0
  -30.8201  -22.6247   24.0812 C   0  0  0  0  0  0  0  0  0  0  0  0
  -28.1436  -22.5149   23.3254 C   0  0  0  0  0  0  0  0  0  0  0  0
  -23.9358  -19.9232   24.4311 C   0  0  0  0  0  0  0  0  0  0  0  0
  -31.7480  -25.5880   21.9358 C   0  0  0  0  0  0  0  0  0  0  0  0
  -31.9835  -27.8670   21.1690 C   0  0  0  0  0  0  0  0  0  0  0  0
  -22.7236  -20.6045   24.3307 C   0  0  0  0  0  0  0  0  0  0  0  0
  -34.9991  -25.1020   23.4907 C   0  0  0  0  0  0  0  0  0  0  0  0
  -35.8879  -24.0364   23.3487 C   0  0  0  0  0  0  0  0  0  0  0  0
  -22.3389  -19.5900   22.1761 C   0  0  0  0  0  0  0  0  0  0  0  0
  -35.9104  -24.3738   20.9565 C   0  0  0  0  0  0  0  0  0  0  0  0
  -30.0176  -26.5917   20.5810 C   0  0  0  0  0  0  0  0  0  0  0  0
  -28.3855  -25.5981   18.8908 C   0  0  0  0  0  0  0  0  0  0  0  0
  -30.4334  -21.7636   23.0421 C   0  0  0  0  0  0  0  0  0  0  0  0
  -24.3646  -19.0773   23.3982 C   0  0  0  0  0  0  0  0  0  0  0  0
  -29.0815  -21.7144   22.6515 C   0  0  0  0  0  0  0  0  0  0  0  0
  -23.5558  -18.8972   22.2670 C   0  0  0  0  0  0  0  0  0  0  0  0
  -32.4818  -26.7728   21.8762 C   0  0  0  0  0  0  0  0  0  0  0  0
  -21.9262  -20.4401   23.2018 C   0  0  0  0  0  0  0  0  0  0  0  0
  -34.5658  -25.8034   22.3655 C   0  0  0  0  0  0  0  0  0  0  0  0
  -36.3436  -23.6723   22.0817 C   0  0  0  0  0  0  0  0  0  0  0  0
  -35.0215  -25.4393   21.0984 C   0  0  0  0  0  0  0  0  0  0  0  0
  -28.7452  -26.4985   19.9114 C   0  0  0  0  0  0  0  0  0  0  0  0
  -27.0818  -25.9150   18.5971 C   0  0  0  0  0  0  0  0  0  0  0  0
  -20.2256  -27.4868   22.2203 C   0  0  0  0  0  0  0  0  0  0  0  0
  -19.5599  -29.6410   23.1130 C   0  0  0  0  0  0  0  0  0  0  0  0
  -20.5279  -28.7716   22.4457 C   0  0  0  0  0  0  0  0  0  0  0  0
  -18.3605  -29.1504   23.5036 C   0  0  0  0  0  0  0  0  0  0  0  0
  -18.0356  -27.6944   23.2409 C   0  0  0  0  0  0  0  0  0  0  0  0
  -20.7672  -22.4705   23.1311 C   0  0  0  0  0  0  0  0  0  1  0  0
  -29.1606  -24.5673   18.2644 C   0  0  0  0  0  0  0  0  0  0  0  0
  -19.6648  -23.2236   23.0399 C   0  0  0  0  0  0  0  0  0  0  0  0
  -19.7964  -24.7146   23.0823 C   0  0  0  0  0  0  0  0  0  0  0  0
  -26.8583  -19.0289   21.4276 C   0  0  0  0  0  0  0  0  0  0  0  0
  -25.6085  -16.1693   20.5426 C   0  0  0  0  0  0  0  0  0  0  0  0
  -22.8673  -14.1480   20.3255 C   0  0  0  0  0  0  0  0  0  0  0  0
  -22.8952  -28.4796   21.9800 C   0  0  0  0  0  0  0  0  0  0  0  0
  -31.4949  -20.9648   22.3283 C   0  0  0  0  0  0  0  0  0  0  0  0
  -25.6623  -18.3289   23.5337 C   0  0  0  0  0  0  0  0  0  0  0  0
  -23.9612  -17.9847   21.1394 C   0  0  0  0  0  0  0  0  0  0  0  0
  -30.9343  -19.8190   21.4898 C   0  0  0  0  0  0  0  0  0  0  0  0
  -24.0055  -29.5550   18.6230 C   0  0  0  0  0  0  0  0  0  0  0  0
  -29.7518  -20.2981   20.6538 C   0  0  0  0  0  0  0  0  0  0  0  0
  -25.3499  -28.8416   18.5166 C   0  0  0  0  0  0  0  0  0  0  0  0
  -23.6960  -29.9851   20.0564 C   0  0  0  0  0  0  0  0  0  0  0  0
  -25.1161  -28.1533   20.9344 C   0  0  0  0  0  0  0  0  0  0  0  0
  -28.6086  -20.7932   21.5480 C   0  0  1  0  0  0  0  0  0  0  0  0
  -26.2426  -17.8914   22.1924 C   0  0  1  0  0  0  0  0  0  0  0  0
  -25.4215  -27.6705   19.5081 C   0  0  2  0  0  0  0  0  0  0  0  0
  -19.9635  -31.0794   23.3355 C   0  0  0  0  0  0  0  0  0  0  0  0
  -18.8409  -25.2447   20.8296 C   0  0  0  0  0  0  0  0  0  0  0  0
  -21.5394  -12.0649   19.8844 C   0  0  0  0  0  0  0  0  0  0  0  0
  -25.6714  -17.1747   17.6624 C   0  0  0  0  0  0  0  0  0  0  0  0
  -24.1083  -15.3162   17.0531 C   0  0  0  0  0  0  0  0  0  0  0  0
  -26.3758  -14.7925   17.9515 C   0  0  0  0  0  0  0  0  0  0  0  0
  -23.3245  -13.1363   23.0690 C   0  0  0  0  0  0  0  0  0  0  0  0
  -18.7608  -25.5327   22.3187 C   0  0  2  0  0  0  0  0  0  0  0  0
  -24.6087  -15.7140   19.5072 C   0  0  1  0  0  0  0  0  0  0  0  0
  -22.6563  -12.6930   20.7034 C   0  0  2  0  0  0  0  0  0  0  0  0
  -25.1841  -15.7681   18.0637 C   0  0  0  0  0  0  0  0  0  0  0  0
  -27.7503  -27.3255   20.2436 N   0  0  0  0  0  0  0  0  0  0  0  0
  -26.7527  -26.9460   19.4270 N   0  0  0  0  0  0  0  0  0  0  0  0
  -19.0156  -26.9235   22.5950 N   0  0  0  0  0  0  0  0  0  0  0  0
  -25.2417  -17.2799   21.3158 N   0  0  0  0  0  0  0  0  0  0  0  0
  -23.8325  -28.8638   21.0001 N   0  0  0  0  0  0  0  0  0  0  0  0
  -26.1962  -25.4095   17.7123 N   0  0  0  0  0  0  0  0  0  0  0  0
  -17.3599  -29.8373   24.1344 N   0  0  0  0  0  0  0  0  0  0  0  0
  -29.9088  -24.8930   17.1249 N   0  0  0  0  0  0  0  0  0  0  0  0
  -21.7421  -29.2568   22.0482 N   0  0  0  0  0  0  0  0  0  0  0  0
  -27.8784  -19.6730   22.1014 N   0  0  0  0  0  0  0  0  0  0  0  0
  -24.1644  -14.3884   19.9240 N   0  0  0  0  0  0  0  0  0  0  0  0
  -22.3021  -12.5788   22.1465 N   0  3  0  0  0  0  0  0  0  0  0  0
  -16.9442  -27.2452   23.5958 O   0  0  0  0  0  0  0  0  0  0  0  0
  -29.1759  -23.3883   18.6925 O   0  0  0  0  0  0  0  0  0  0  0  0
  -20.7303  -25.2501   23.6799 O   0  0  0  0  0  0  0  0  0  0  0  0
  -26.4398  -19.3011   20.3085 O   0  0  0  0  0  0  0  0  0  0  0  0
  -26.6726  -15.5577   20.6657 O   0  0  0  0  0  0  0  0  0  0  0  0
  -21.9703  -14.9866   20.3775 O   0  0  0  0  0  0  0  0  0  0  0  0
  -23.0848  -27.5213   22.7379 O   0  0  0  0  0  0  0  0  0  0  0  0
  -18.4036  -22.6842   22.9076 O   0  0  0  0  0  0  0  0  0  0  0  0
  -33.6840  -26.8616   22.5081 O   0  0  0  0  0  0  0  0  0  0  0  0
  -20.7428  -21.1044   23.1009 O   0  0  0  0  0  0  0  0  0  1  0  0
  -37.1983  -22.6500   21.9457 F   0  0  0  0  0  0  0  0  0  0  0  0
  -34.6097  -26.1102   20.0139 F   0  0  0  0  0  0  0  0  0  0  0  0
  1  2  1  0  0  0  0
  1  5  2  0  0  0  0
  2  6  2  0  0  0  0
  3  8  2  0  0  0  0
  3 15  1  0  0  0  0
  4  9  1  0  0  0  0
  4 15  2  0  0  0  0
  5 17  1  0  0  0  0
  6 19  1  0  0  0  0
  7 10  2  0  0  0  0
  7 18  1  0  0  0  0
  8 21  1  0  0  0  0
  9 21  2  0  0  0  0
 10 22  1  0  0  0  0
 11 12  2  0  0  0  0
 11 23  1  0  0  0  0
 12 24  1  0  0  0  0
 13 20  1  0  0  0  0
 13 22  2  0  0  0  0
 14 24  2  0  0  0  0
 14 25  1  0  0  0  0
 15 26  1  0  0  0  0
 16 26  1  0  0  0  0
 16 27  2  0  0  0  0
 16 34  1  0  0  0  0
 17 19  2  0  0  0  0
 17 41  1  0  0  0  0
 18 20  2  0  0  0  0
 18 42  1  0  0  0  0
 19 50  1  0  0  0  0
 20 43  1  0  0  0  0
 21 84  1  0  0  0  0
 22 85  1  0  0  0  0
 23 25  2  0  0  0  0
 23 84  1  0  0  0  0
 24 86  1  0  0  0  0
 25 87  1  0  0  0  0
 26 64  2  0  0  0  0
 27 65  1  0  0  0  0
 27 69  1  0  0  0  0
 28 30  2  0  0  0  0
 28 66  1  0  0  0  0
 29 30  1  0  0  0  0
 29 31  2  0  0  0  0
 29 53  1  0  0  0  0
 30 72  1  0  0  0  0
 31 32  1  0  0  0  0
 31 70  1  0  0  0  0
 32 66  1  0  0  0  0
 32 76  2  0  0  0  0
 33 35  2  0  0  0  0
 33 85  1  0  0  0  0
 34 71  1  0  0  0  0
 34 77  2  0  0  0  0
 35 36  1  0  0  0  0
 35 83  1  0  0  0  0
 36 60  1  0  0  0  0
 36 78  2  0  0  0  0
 37 51  1  0  0  0  0
 37 73  1  0  0  0  0
 37 79  2  0  0  0  0
 38 61  1  0  0  0  0
 38 67  1  0  0  0  0
 38 80  2  0  0  0  0
 39 62  1  0  0  0  0
 39 74  1  0  0  0  0
 39 81  2  0  0  0  0
 40 68  1  0  0  0  0
 40 72  1  0  0  0  0
 40 82  2  0  0  0  0
 41 44  1  0  0  0  0
 42 51  1  0  0  0  0
 43 67  1  0  0  0  0
 44 46  1  0  0  0  0
 45 47  1  0  0  0  0
 45 48  1  0  0  0  0
 46 50  1  0  0  0  0
 47 52  1  0  0  0  0
 48 68  1  0  0  0  0
 49 52  1  0  0  0  0
 49 68  1  0  0  0  0
 50 73  1  0  0  0  0
 51 67  1  0  0  0  0
 52 65  1  0  0  0  0
 54 60  1  0  0  0  0
 55 62  1  0  0  0  0
 56 63  1  0  0  0  0
 57 63  1  0  0  0  0
 58 63  1  0  0  0  0
 59 75  1  0  0  0  0
 60 66  1  0  0  0  0
 61 63  1  0  0  0  0
 61 74  1  0  0  0  0
 62 75  1  0  0  0  0
 64 65  1  0  0  0  0
M  CHG  1  75   1
M  ISO  4  33 101  40 100  72 100  85 101
M  END
> <Batch ID>
0110

> <Smiles>
CNC(C)C(=O)NC(C(=O)N1Cc2cc([101O:1][101CH2:1]C(=O)C(=O)C(C)n3cc([100NH:0][100C:0](=O)N4CCCC(n5nc(-c6ccc(Oc7ccc(F)cc7F)cc6)c(C(N)=O)c5N)C4)c(C)c(N)c3=O)ccc2CC1C(=O)NC1CCCc2ccccc21)C(C)(C)C

> <Shape>
0.208

> <Color>
0.086

> <Negative vol penalty>
0.000

$$$$

  -OEChem-04052301263D

 92101  0     1  0  0  0  0  0999 V2000
  -30.9646  -10.9913   22.0215 C   0  0  0  0  0  0  0  0  0  0  0  0
  -30.9043  -12.2845   21.5123 C   0  0  0  0  0  0  0  0  0  0  0  0
  -20.3784  -27.3418   21.5646 C   0  0  0  0  0  0  0  0  0  0  0  0
  -19.4894  -28.5507   23.4582 C   0  0  0  0  0  0  0  0  0  0  0  0
  -29.8965  -10.1164   21.8274 C   0  0  0  0  0  0  0  0  0  0  0  0
  -29.7763  -12.7033   20.8076 C   0  0  0  0  0  0  0  0  0  0  0  0
  -28.2210  -17.3185   22.1954 C   0  0  0  0  0  0  0  0  0  0  0  0
  -19.4381  -26.3318   21.7679 C   0  0  0  0  0  0  0  0  0  0  0  0
  -18.5491  -27.5407   23.6615 C   0  0  0  0  0  0  0  0  0  0  0  0
  -28.9309  -18.4077   21.6921 C   0  0  0  0  0  0  0  0  0  0  0  0
  -17.0384  -23.6084   21.5682 C   0  0  0  0  0  0  0  0  0  0  0  0
  -16.3645  -23.1154   20.4510 C   0  0  0  0  0  0  0  0  0  0  0  0
  -28.5579  -26.9820   20.8665 C   0  0  0  0  0  0  0  0  0  0  0  0
  -27.2242  -18.7396   20.0200 C   0  0  0  0  0  0  0  0  0  0  0  0
  -29.5881  -25.7042   22.6394 C   0  0  0  0  0  0  0  0  0  0  0  0
  -15.4840  -25.3214   20.0087 C   0  0  0  0  0  0  0  0  0  0  0  0
  -20.4041  -28.4512   22.4098 C   0  0  0  0  0  0  0  0  0  0  0  0
  -28.4624  -28.0840   21.7162 C   0  0  0  0  0  0  0  0  0  0  0  0
  -28.9298  -27.9961   23.0275 C   0  0  0  0  0  0  0  0  0  0  0  0
  -21.5335  -30.2911   21.0506 C   0  0  0  0  0  0  0  0  0  0  0  0
  -28.7508  -10.5277   21.1283 C   0  0  0  0  0  0  0  0  0  0  0  0
  -27.0108  -16.9243   21.6070 C   0  0  0  0  0  0  0  0  0  0  0  0
  -28.6924  -11.8326   20.6028 C   0  0  0  0  0  0  0  0  0  0  0  0
  -26.4996  -17.6466   20.5194 C   0  0  0  0  0  0  0  0  0  0  0  0
  -29.1207  -25.7920   21.3281 C   0  0  0  0  0  0  0  0  0  0  0  0
  -29.4926  -26.8062   23.4891 C   0  0  0  0  0  0  0  0  0  0  0  0
  -18.5234  -26.4313   22.8163 C   0  0  0  0  0  0  0  0  0  0  0  0
  -28.4340  -19.1167   20.6024 C   0  0  0  0  0  0  0  0  0  0  0  0
  -16.9352  -24.9579   21.9058 C   0  0  0  0  0  0  0  0  0  0  0  0
  -15.5873  -23.9719   19.6712 C   0  0  0  0  0  0  0  0  0  0  0  0
  -16.1580  -25.8144   21.1260 C   0  0  0  0  0  0  0  0  0  0  0  0
  -21.3756  -29.4946   22.2006 C   0  0  0  0  0  0  0  0  0  0  0  0
  -22.5838  -31.1235   21.3511 C   0  0  0  0  0  0  0  0  0  0  0  0
  -30.0377  -22.3595   20.5697 C   0  0  0  0  0  0  0  0  0  0  0  0
  -29.1717  -23.3425   20.9358 C   0  0  0  0  0  0  0  0  0  0  0  0
  -31.1094  -25.0064   18.9749 C   0  0  0  0  0  0  0  0  0  0  0  0
  -26.6158  -29.3900   20.7677 C   0  0  0  0  0  0  0  0  0  0  0  0
  -27.8656  -29.3089   21.1971 C   0  0  0  0  0  0  0  0  0  0  0  0
  -28.8321  -29.1647   23.9395 C   0  0  0  0  0  0  0  0  0  0  0  0
  -20.7965  -30.2795   19.8209 C   0  0  0  0  0  0  0  0  0  0  0  0
  -25.9782  -14.2976   20.1448 C   0  0  0  0  0  0  0  0  0  0  0  0
  -23.1347  -15.8578   20.1941 C   0  0  0  0  0  0  0  0  0  0  0  0
  -21.9694  -19.2267   19.6374 C   0  0  0  0  0  0  0  0  0  0  0  0
  -27.2268  -30.6947   25.0376 C   0  0  0  0  0  0  0  0  0  0  0  0
  -27.6412   -9.5313   20.9028 C   0  0  0  0  0  0  0  0  0  0  0  0
  -26.2437  -15.7635   22.1786 C   0  0  0  0  0  0  0  0  0  0  0  0
  -25.1947  -17.2765   19.8645 C   0  0  0  0  0  0  0  0  0  0  0  0
  -31.2562  -22.5724   19.6775 C   0  0  0  0  0  0  0  0  0  0  0  0
  -31.9089  -23.9541   19.7112 C   0  0  0  0  0  0  0  0  0  0  0  0
  -29.6045  -24.9505   19.0725 C   0  0  0  0  0  0  0  0  0  0  0  0
  -26.3258  -10.1725   20.4683 C   0  0  0  0  0  0  0  0  0  0  0  0
  -24.7546  -33.2213   25.0746 C   0  0  0  0  0  0  0  0  0  0  0  0
  -26.5700  -11.1957   19.3636 C   0  0  0  0  0  0  0  0  0  0  0  0
  -23.6252  -32.6340   24.2238 C   0  0  0  0  0  0  0  0  0  0  0  0
  -25.4332  -32.1539   25.9318 C   0  0  0  0  0  0  0  0  0  0  0  0
  -24.7705  -30.3855   24.3534 C   0  0  0  0  0  0  0  0  0  0  0  0
  -27.4756  -12.3318   19.8543 C   0  0  1  0  0  0  0  0  0  0  0  0
  -25.2788  -15.1343   21.1784 C   0  0  1  0  0  0  0  0  0  0  0  0
  -24.1018  -31.4076   23.4199 C   0  0  1  0  0  0  0  0  0  0  0  0
  -27.9985  -23.0331   21.8485 C   0  0  0  0  0  0  0  0  0  0  0  0
  -19.9571  -20.4265   20.5364 C   0  0  0  0  0  0  0  0  0  0  0  0
  -21.7933  -14.9389   17.6122 C   0  0  0  0  0  0  0  0  0  0  0  0
  -20.6241  -17.1506   17.5145 C   0  0  0  0  0  0  0  0  0  0  0  0
  -20.2105  -15.6066   19.4297 C   0  0  0  0  0  0  0  0  0  0  0  0
  -23.6222  -21.4316   20.7170 C   0  0  0  0  0  0  0  0  0  0  0  0
  -29.9190  -20.9239   21.0320 C   0  0  0  0  0  0  0  0  0  1  0  0
  -22.4248  -16.8161   19.2685 C   0  0  1  0  0  0  0  0  0  0  0  0
  -21.4525  -20.1945   20.6864 C   0  0  2  0  0  0  0  0  0  0  0  0
  -21.2916  -16.1267   18.4573 C   0  0  0  0  0  0  0  0  0  0  0  0
  -22.2554  -29.7940   23.1600 N   0  0  0  0  0  0  0  0  0  0  0  0
  -22.9762  -30.7879   22.6134 N   0  0  0  0  0  0  0  0  0  0  0  0
  -29.2174  -24.6670   20.4604 N   0  0  0  0  0  0  0  0  0  0  0  0
  -24.4849  -16.1302   20.4557 N   0  0  0  0  0  0  0  0  0  0  0  0
  -25.8633  -31.0321   25.0952 N   0  0  0  0  0  0  0  0  0  0  0  0
  -29.9731  -26.6932   24.8132 N   0  0  0  0  0  0  0  0  0  0  0  0
  -23.2008  -32.1025   20.6559 N   0  0  0  0  0  0  0  0  0  0  0  0
  -19.6656  -31.1003   19.7119 N   0  0  0  0  0  0  0  0  0  0  0  0
  -27.5409  -29.6365   24.1776 N   0  0  0  0  0  0  0  0  0  0  0  0
  -26.7239  -13.2602   20.6713 N   0  0  0  0  0  0  0  0  0  0  0  0
  -21.9740  -17.9275   20.0992 N   0  0  0  0  0  0  0  0  0  0  0  0
  -22.1463  -21.5080   20.5661 N   0  3  0  0  0  0  0  0  0  0  0  0
  -31.6704  -25.8885   18.3233 O   0  0  0  0  0  0  0  0  0  0  0  0
  -29.8555  -29.6126   24.4493 O   0  0  0  0  0  0  0  0  0  0  0  0
  -21.1213  -29.5503   18.8533 O   0  0  0  0  0  0  0  0  0  0  0  0
  -25.8495  -14.5719   18.9574 O   0  0  0  0  0  0  0  0  0  0  0  0
  -22.5121  -14.9067   20.6732 O   0  0  0  0  0  0  0  0  0  0  0  0
  -22.3294  -19.5867   18.5187 O   0  0  0  0  0  0  0  0  0  0  0  0
  -28.0948  -31.3071   25.6676 O   0  0  0  0  0  0  0  0  0  0  0  0
  -17.6055  -25.4461   23.0148 O   0  0  0  0  0  0  0  0  0  0  0  0
  -29.1252  -20.1799   20.1086 O   0  0  0  0  0  0  0  0  0  1  0  0
  -14.9414  -23.4986   18.5974 F   0  0  0  0  0  0  0  0  0  0  0  0
  -16.0559  -27.1121   21.4445 F   0  0  0  0  0  0  0  0  0  0  0  0
  1  2  1  0  0  0  0
  1  5  2  0  0  0  0
  2  6  2  0  0  0  0
  3  8  2  0  0  0  0
  3 17  1  0  0  0  0
  4  9  1  0  0  0  0
  4 17  2  0  0  0  0
  5 21  1  0  0  0  0
  6 23  1  0  0  0  0
  7 10  2  0  0  0  0
  7 22  1  0  0  0  0
  8 27  1  0  0  0  0
  9 27  2  0  0  0  0
 10 28  1  0  0  0  0
 11 12  2  0  0  0  0
 11 29  1  0  0  0  0
 12 30  1  0  0  0  0
 13 18  1  0  0  0  0
 13 25  2  0  0  0  0
 14 24  1  0  0  0  0
 14 28  2  0  0  0  0
 15 25  1  0  0  0  0
 15 26  2  0  0  0  0
 16 30  2  0  0  0  0
 16 31  1  0  0  0  0
 17 32  1  0  0  0  0
 18 19  2  0  0  0  0
 18 38  1  0  0  0  0
 19 26  1  0  0  0  0
 19 39  1  0  0  0  0
 20 32  1  0  0  0  0
 20 33  2  0  0  0  0
 20 40  1  0  0  0  0
 21 23  2  0  0  0  0
 21 45  1  0  0  0  0
 22 24  2  0  0  0  0
 22 46  1  0  0  0  0
 23 57  1  0  0  0  0
 24 47  1  0  0  0  0
 25 72  1  0  0  0  0
 26 75  1  0  0  0  0
 27 89  1  0  0  0  0
 28 90  1  0  0  0  0
 29 31  2  0  0  0  0
 29 89  1  0  0  0  0
 30 91  1  0  0  0  0
 31 92  1  0  0  0  0
 32 70  2  0  0  0  0
 33 71  1  0  0  0  0
 33 76  1  0  0  0  0
 34 35  2  0  0  0  0
 34 48  1  0  0  0  0
 34 66  1  0  0  0  0
 35 60  1  0  0  0  0
 35 72  1  0  0  0  0
 36 49  1  0  0  0  0
 36 50  1  0  0  0  0
 36 82  2  0  0  0  0
 37 38  2  0  0  0  0
 39 78  1  0  0  0  0
 39 83  2  0  0  0  0
 40 77  1  0  0  0  0
 40 84  2  0  0  0  0
 41 58  1  0  0  0  0
 41 79  1  0  0  0  0
 41 85  2  0  0  0  0
 42 67  1  0  0  0  0
 42 73  1  0  0  0  0
 42 86  2  0  0  0  0
 43 68  1  0  0  0  0
 43 80  1  0  0  0  0
 43 87  2  0  0  0  0
 44 74  1  0  0  0  0
 44 78  1  0  0  0  0
 44 88  2  0  0  0  0
 45 51  1  0  0  0  0
 46 58  1  0  0  0  0
 47 73  1  0  0  0  0
 48 49  1  0  0  0  0
 50 72  1  0  0  0  0
 51 53  1  0  0  0  0
 52 54  1  0  0  0  0
 52 55  1  0  0  0  0
 53 57  1  0  0  0  0
 54 59  1  0  0  0  0
 55 74  1  0  0  0  0
 56 59  1  0  0  0  0
 56 74  1  0  0  0  0
 57 79  1  0  0  0  0
 58 73  1  0  0  0  0
 59 71  1  0  0  0  0
 61 68  1  0  0  0  0
 62 69  1  0  0  0  0
 63 69  1  0  0  0  0
 64 69  1  0  0  0  0
 65 81  1  0  0  0  0
 66 90  1  0  0  0  0
 67 69  1  0  0  0  0
 67 80  1  0  0  0  0
 68 81  1  0  0  0  0
 70 71  1  0  0  0  0
M  CHG  1  81   1
M  ISO  4  44 100  66 101  78 100  90 101
M  END
> <Batch ID>
0110

> <Smiles>
C=Cc1cc(N2CC(=O)CCC([101CH2:1][101O:1]c3ccc4c(c3)CN(C(=O)C(NC(=O)C(C)NC)C(C)(C)C)C(C(=O)NC3CCCc5ccccc53)C4)=C2C)cc(N)c1C(=O)[100NH:0][100C:0](=O)N1CCCC(n2nc(-c3ccc(Oc4ccc(F)cc4F)cc3)c(C(N)=O)c2N)C1

> <Shape>
0.273

> <Color>
0.052

> <Negative vol penalty>
0.000

$$$$

  -OEChem-04052301263D

 85 93  0     1  0  0  0  0  0999 V2000
  -27.2875  -24.4946   16.7643 C   0  0  0  0  0  0  0  0  0  0  0  0
  -26.1292  -24.8197   17.4629 C   0  0  0  0  0  0  0  0  0  0  0  0
  -25.7802  -16.1866   20.0089 C   0  0  0  0  0  0  0  0  0  0  0  0
  -24.6128  -15.3823   21.9652 C   0  0  0  0  0  0  0  0  0  0  0  0
  -28.5323  -24.8700   17.2677 C   0  0  0  0  0  0  0  0  0  0  0  0
  -26.2151  -25.5194   18.6659 C   0  0  0  0  0  0  0  0  0  0  0  0
  -22.8319  -29.2749   18.9749 C   0  0  0  0  0  0  0  0  0  0  0  0
  -26.2277  -14.8924   19.7438 C   0  0  0  0  0  0  0  0  0  0  0  0
  -25.0602  -14.0880   21.7001 C   0  0  0  0  0  0  0  0  0  0  0  0
  -21.5177  -28.9243   19.2811 C   0  0  0  0  0  0  0  0  0  0  0  0
  -27.9731  -11.8596   18.7542 C   0  0  0  0  0  0  0  0  0  0  0  0
  -29.3139  -11.6936   18.4074 C   0  0  0  0  0  0  0  0  0  0  0  0
  -22.4329  -24.6527   24.2353 C   0  0  0  0  0  0  0  0  0  0  0  0
  -21.8878  -29.5656   21.5769 C   0  0  0  0  0  0  0  0  0  0  0  0
  -29.9796  -12.6414   20.5277 C   0  0  0  0  0  0  0  0  0  0  0  0
  -24.9728  -16.4316   21.1197 C   0  0  0  0  0  0  0  0  0  0  0  0
  -21.9843  -23.4338   24.7437 C   0  0  0  0  0  0  0  0  0  0  0  0
  -23.3240  -18.3692   20.9335 C   0  0  0  0  0  0  0  0  0  0  0  0
  -28.6330  -25.5831   18.4726 C   0  0  0  0  0  0  0  0  0  0  0  0
  -23.6886  -29.7640   19.9715 C   0  0  0  0  0  0  0  0  0  0  0  0
  -27.4626  -25.9035   19.1866 C   0  0  0  0  0  0  0  0  0  0  0  0
  -23.2116  -29.9241   21.2803 C   0  0  0  0  0  0  0  0  0  0  0  0
  -20.0872  -23.5088   23.2495 C   0  0  0  0  0  0  0  0  0  0  0  0
  -21.7087  -25.2998   23.2341 C   0  0  0  0  0  0  0  0  0  0  0  0
  -20.8115  -22.8618   24.2508 C   0  0  0  0  0  0  0  0  0  0  0  0
  -25.8677  -13.8431   20.5893 C   0  0  0  0  0  0  0  0  0  0  0  0
  -21.0463  -29.0669   20.5828 C   0  0  0  0  0  0  0  0  0  0  0  0
  -27.6355  -12.4166   19.9877 C   0  0  0  0  0  0  0  0  0  0  0  0
  -20.5359  -24.7278   22.7411 C   0  0  0  0  0  0  0  0  0  0  0  0
  -30.3172  -12.0845   19.2942 C   0  0  0  0  0  0  0  0  0  0  0  0
  -28.6388  -12.8074   20.8745 C   0  0  0  0  0  0  0  0  0  0  0  0
  -24.5108  -17.7684   21.3944 C   0  0  0  0  0  0  0  0  0  0  0  0
  -23.3488  -19.6337   21.4692 C   0  0  0  0  0  0  0  0  0  0  0  0
  -22.7644  -22.7859   25.7910 C   0  0  0  0  0  0  0  0  0  0  0  0
  -22.2915  -17.8323   20.0960 C   0  0  0  0  0  0  0  0  0  0  0  0
  -24.2323  -22.9628   25.8769 C   0  0  0  0  0  0  0  0  0  0  0  0
  -26.4248  -28.7823   21.2575 C   0  0  0  0  0  0  0  0  0  0  0  0
  -26.2804  -31.6397   22.7861 C   0  0  0  0  0  0  0  0  0  0  0  0
  -24.3617  -34.2193   23.9310 C   0  0  0  0  0  0  0  0  0  0  0  0
  -30.0034  -25.9259   19.0010 C   0  0  0  0  0  0  0  0  0  0  0  0
  -25.0955  -30.1628   19.6194 C   0  0  0  0  0  0  0  0  0  0  0  0
  -24.0851  -30.4638   22.3823 C   0  0  0  0  0  0  0  0  0  0  0  0
  -29.9859  -26.9925   20.0930 C   0  0  0  0  0  0  0  0  0  0  0  0
  -27.0455  -22.1611   23.8032 C   0  0  0  0  0  0  0  0  0  0  0  0
  -28.9058  -26.6826   21.1246 C   0  0  0  0  0  0  0  0  0  0  0  0
  -26.5509  -20.9709   22.9820 C   0  0  0  0  0  0  0  0  0  0  0  0
  -26.4604  -22.1492   25.2117 C   0  0  0  0  0  0  0  0  0  0  0  0
  -24.4655  -20.9063   24.4215 C   0  0  0  0  0  0  0  0  0  0  0  0
  -27.5133  -26.6834   20.4825 C   0  0  1  0  0  0  0  0  0  0  0  0
  -26.0343  -30.1663   20.8219 C   0  0  1  0  0  0  0  0  0  0  0  0
  -25.0135  -20.8994   22.9838 C   0  0  2  0  0  0  0  0  0  0  0  0
  -18.8280  -22.9028   22.7142 C   0  0  0  0  0  0  0  0  0  0  0  0
  -24.5224  -36.3931   25.1745 C   0  0  0  0  0  0  0  0  0  0  0  0
  -26.6149  -30.1131   25.4068 C   0  0  0  0  0  0  0  0  0  0  0  0
  -25.8265  -32.1577   26.6176 C   0  0  0  0  0  0  0  0  0  0  0  0
  -27.9209  -32.2412   25.2652 C   0  0  0  0  0  0  0  0  0  0  0  0
  -23.2987  -35.7475   21.6302 C   0  0  0  0  0  0  0  0  0  0  0  0
  -18.1669  -26.9182   20.9632 C   0  0  0  0  0  0  0  0  0  0  0  0
  -19.1723  -27.6798   20.1139 C   0  0  0  0  0  0  0  0  0  1  0  0
  -18.8193  -26.2738   22.1763 C   0  0  0  0  0  0  0  0  0  0  0  0
  -25.6875  -32.1282   24.0857 C   0  0  1  0  0  0  0  0  0  0  0  0
  -24.5202  -35.7241   23.8088 C   0  0  2  0  0  0  0  0  0  0  0  0
  -26.4963  -31.6480   25.3237 C   0  0  0  0  0  0  0  0  0  0  0  0
  -25.2366  -18.5842   22.1636 N   0  0  0  0  0  0  0  0  0  0  0  0
  -22.2348  -22.0234   26.7065 N   0  0  0  0  0  0  0  0  0  0  0  0
  -24.5040  -19.7106   22.1900 N   0  0  0  0  0  0  0  0  0  0  0  0
  -25.0030  -22.0444   25.1778 N   0  0  0  0  0  0  0  0  0  0  0  0
  -25.4549  -30.8338   21.9894 N   0  0  0  0  0  0  0  0  0  0  0  0
  -22.1753  -26.5336   22.7295 N   0  0  0  0  0  0  0  0  0  0  0  0
  -20.3547  -21.6261   24.7668 N   0  0  0  0  0  0  0  0  0  0  0  0
  -22.4949  -20.6763   21.3891 N   0  0  0  0  0  0  0  0  0  0  0  0
  -22.4238  -16.5161   19.6329 N   0  0  0  0  0  0  0  0  0  0  0  0
  -27.0528  -28.0398   20.2758 N   0  0  0  0  0  0  0  0  0  0  0  0
  -25.5820  -33.5784   23.9666 N   0  0  0  0  0  0  0  0  0  0  0  0
  -23.4042  -36.2990   23.0056 N   0  3  0  0  0  0  0  0  0  0  0  0
  -21.2896  -18.5054   19.7547 O   0  0  0  0  0  0  0  0  0  0  0  0
  -24.6108  -23.9056   26.5597 O   0  0  0  0  0  0  0  0  0  0  0  0
  -26.1760  -28.4158   22.4001 O   0  0  0  0  0  0  0  0  0  0  0  0
  -27.4311  -31.9672   22.4856 O   0  0  0  0  0  0  0  0  0  0  0  0
  -23.2650  -33.6679   23.9928 O   0  0  0  0  0  0  0  0  0  0  0  0
  -26.3039  -12.5800   20.3308 O   0  0  0  0  0  0  0  0  0  0  0  0
  -19.7641  -28.7249   20.8845 O   0  0  0  0  0  0  0  0  0  1  0  0
  -19.8249  -25.3619   21.7557 O   0  0  0  0  0  0  0  0  0  0  0  0
  -31.6047  -11.9236   18.9617 F   0  0  0  0  0  0  0  0  0  0  0  0
  -28.3206  -13.3419   22.0614 F   0  0  0  0  0  0  0  0  0  0  0  0
  1  2  1  0  0  0  0
  1  5  2  0  0  0  0
  2  6  2  0  0  0  0
  3  8  2  0  0  0  0
  3 16  1  0  0  0  0
  4  9  1  0  0  0  0
  4 16  2  0  0  0  0
  5 19  1  0  0  0  0
  6 21  1  0  0  0  0
  7 10  2  0  0  0  0
  7 20  1  0  0  0  0
  8 26  1  0  0  0  0
  9 26  2  0  0  0  0
 10 27  1  0  0  0  0
 11 12  2  0  0  0  0
 11 28  1  0  0  0  0
 12 30  1  0  0  0  0
 13 17  1  0  0  0  0
 13 24  2  0  0  0  0
 14 22  1  0  0  0  0
 14 27  2  0  0  0  0
 15 30  2  0  0  0  0
 15 31  1  0  0  0  0
 16 32  1  0  0  0  0
 17 25  2  0  0  0  0
 17 34  1  0  0  0  0
 18 32  1  0  0  0  0
 18 33  2  0  0  0  0
 18 35  1  0  0  0  0
 19 21  2  0  0  0  0
 19 40  1  0  0  0  0
 20 22  2  0  0  0  0
 20 41  1  0  0  0  0
 21 49  1  0  0  0  0
 22 42  1  0  0  0  0
 23 25  1  0  0  0  0
 23 29  2  0  0  0  0
 23 52  1  0  0  0  0
 24 29  1  0  0  0  0
 24 69  1  0  0  0  0
 25 70  1  0  0  0  0
 26 81  1  0  0  0  0
 27 82  1  0  0  0  0
 28 31  2  0  0  0  0
 28 81  1  0  0  0  0
 29 83  1  0  0  0  0
 30 84  1  0  0  0  0
 31 85  1  0  0  0  0
 32 64  2  0  0  0  0
 33 66  1  0  0  0  0
 33 71  1  0  0  0  0
 34 36  1  0  0  0  0
 34 65  2  0  0  0  0
 35 72  1  0  0  0  0
 35 76  2  0  0  0  0
 36 67  1  0  0  0  0
 36 77  2  0  0  0  0
 37 50  1  0  0  0  0
 37 73  1  0  0  0  0
 37 78  2  0  0  0  0
 38 61  1  0  0  0  0
 38 68  1  0  0  0  0
 38 79  2  0  0  0  0
 39 62  1  0  0  0  0
 39 74  1  0  0  0  0
 39 80  2  0  0  0  0
 40 43  1  0  0  0  0
 41 50  1  0  0  0  0
 42 68  1  0  0  0  0
 43 45  1  0  0  0  0
 44 46  1  0  0  0  0
 44 47  1  0  0  0  0
 45 49  1  0  0  0  0
 46 51  1  0  0  0  0
 47 67  1  0  0  0  0
 48 51  1  0  0  0  0
 48 67  1  0  0  0  0
 49 73  1  0  0  0  0
 50 68  1  0  0  0  0
 51 66  1  0  0  0  0
 53 62  1  0  0  0  0
 54 63  1  0  0  0  0
 55 63  1  0  0  0  0
 56 63  1  0  0  0  0
 57 75  1  0  0  0  0
 58 59  1  0  0  0  0
 58 60  1  0  0  0  0
 59 82  1  0  0  0  0
 60 83  1  0  0  0  0
 61 63  1  0  0  0  0
 61 74  1  0  0  0  0
 62 75  1  0  0  0  0
 64 66  1  0  0  0  0
M  CHG  1  75   1
M  ISO  4  34 100  36 100  59 101  82 101
M  END
> <Batch ID>
0110

> <Smiles>
CNC(C)C(=O)NC(C(=O)N1Cc2cc([101O:1][101CH2:1]CCOc3c(N)cc([100C:0](=N)[100C:0](=O)N4CCCC(n5nc(-c6ccc(Oc7ccc(F)cc7F)cc6)c(C(N)=O)c5N)C4)c(N)c3C)ccc2CC1C(=O)NC1CCCc2ccccc21)C(C)(C)C

> <Shape>
0.284

> <Color>
0.070

> <Negative vol penalty>
0.000

$$$$

  -OEChem-04052301263D

 82 90  0     1  0  0  0  0  0999 V2000
  -28.7861  -37.7419   21.4241 C   0  0  0  0  0  0  0  0  0  0  0  0
  -28.7864  -36.7067   20.4946 C   0  0  0  0  0  0  0  0  0  0  0  0
  -24.4047   -9.1718   21.8324 C   0  0  0  0  0  0  0  0  0  0  0  0
  -22.8670   -9.8838   20.1103 C   0  0  0  0  0  0  0  0  0  0  0  0
  -28.5966  -37.4624   22.7768 C   0  0  0  0  0  0  0  0  0  0  0  0
  -28.5981  -35.3914   20.9175 C   0  0  0  0  0  0  0  0  0  0  0  0
  -25.7249  -29.1923   18.7653 C   0  0  0  0  0  0  0  0  0  0  0  0
  -23.7072   -7.9705   21.9586 C   0  0  0  0  0  0  0  0  0  0  0  0
  -22.1695   -8.6824   20.2365 C   0  0  0  0  0  0  0  0  0  0  0  0
  -26.0562  -27.8465   18.6145 C   0  0  0  0  0  0  0  0  0  0  0  0
  -20.8614   -6.8852   23.4244 C   0  0  0  0  0  0  0  0  0  0  0  0
  -20.5798   -6.4325   24.7133 C   0  0  0  0  0  0  0  0  0  0  0  0
  -25.6592  -27.4913   20.9672 C   0  0  0  0  0  0  0  0  0  0  0  0
  -25.6793  -20.5605   19.2182 C   0  0  0  0  0  0  0  0  0  0  0  0
  -21.8345   -4.4141   24.2784 C   0  0  0  0  0  0  0  0  0  0  0  0
  -26.0927  -19.0316   17.6296 C   0  0  0  0  0  0  0  0  0  0  0  0
  -23.9846  -10.1285   20.9083 C   0  0  0  0  0  0  0  0  0  0  0  0
  -25.7883  -11.6380   19.9206 C   0  0  0  0  0  0  0  0  0  0  0  0
  -28.3962  -36.1440   23.2154 C   0  0  0  0  0  0  0  0  0  0  0  0
  -25.3682  -29.7009   20.0225 C   0  0  0  0  0  0  0  0  0  0  0  0
  -28.4070  -35.0939   22.2775 C   0  0  0  0  0  0  0  0  0  0  0  0
  -25.3213  -28.8434   21.1309 C   0  0  0  0  0  0  0  0  0  0  0  0
  -25.6082  -19.1869   18.9085 C   0  0  0  0  0  0  0  0  0  0  0  0
  -22.5896   -7.7258   21.1606 C   0  0  0  0  0  0  0  0  0  0  0  0
  -26.0262  -26.9964   19.7161 C   0  0  0  0  0  0  0  0  0  0  0  0
  -21.6295   -6.1024   22.5624 C   0  0  0  0  0  0  0  0  0  0  0  0
  -21.0664   -5.1969   25.1403 C   0  0  0  0  0  0  0  0  0  0  0  0
  -22.1160   -4.8668   22.9894 C   0  0  0  0  0  0  0  0  0  0  0  0
  -24.7044  -11.3698   20.7779 C   0  0  0  0  0  0  0  0  0  0  0  0
  -26.2042  -21.2032   18.1186 C   0  0  0  0  0  0  0  0  0  0  0  0
  -26.1103  -12.9489   20.1740 C   0  0  0  0  0  0  0  0  0  0  0  0
  -26.4732  -22.6410   17.9493 C   0  0  0  0  0  0  0  0  0  0  0  0
  -25.7715  -23.6323   18.5205 C   0  0  0  0  0  0  0  0  0  0  0  0
  -26.4454  -10.7788   18.9794 C   0  0  0  0  0  0  0  0  0  0  0  0
  -26.5708  -31.9018   21.9753 C   0  0  0  0  0  0  0  0  0  0  0  0
  -26.9990  -20.4889   15.8567 C   0  0  0  0  0  0  0  0  0  0  0  0
  -23.8755  -31.3031   23.6780 C   0  0  0  0  0  0  0  0  0  0  0  0
  -21.3541  -29.1344   24.4437 C   0  0  0  0  0  0  0  0  0  0  0  0
  -24.6346  -18.2485   21.0340 C   0  0  0  0  0  0  0  0  0  0  0  0
  -28.2427  -35.8861   24.6934 C   0  0  0  0  0  0  0  0  0  0  0  0
  -24.9876  -31.1493   20.1633 C   0  0  0  0  0  0  0  0  0  0  0  0
  -24.9253  -29.3356   22.4981 C   0  0  0  0  0  0  0  0  0  0  0  0
  -27.6762  -34.5055   25.0151 C   0  0  0  0  0  0  0  0  0  0  0  0
  -24.5666  -16.0690   23.8487 C   0  0  0  0  0  0  0  0  0  0  0  0
  -28.3880  -33.4326   24.1972 C   0  0  0  0  0  0  0  0  0  0  0  0
  -24.6856  -14.6742   23.2302 C   0  0  0  0  0  0  0  0  0  0  0  0
  -23.7241  -17.0036   22.9824 C   0  0  0  0  0  0  0  0  0  0  0  0
  -24.2657  -15.7040   20.9608 C   0  0  0  0  0  0  0  0  0  0  0  0
  -28.1813  -33.6568   22.6944 C   0  0  1  0  0  0  0  0  0  0  0  0
  -25.1372  -31.6704   21.5893 C   0  0  1  0  0  0  0  0  0  0  0  0
  -25.1593  -14.7459   21.7653 C   0  0  2  0  0  0  0  0  0  0  0  0
  -27.7996  -19.3608   15.2809 C   0  0  0  0  0  0  0  0  0  0  0  0
  -19.3214  -28.9113   25.8982 C   0  0  0  0  0  0  0  0  0  0  0  0
  -25.6652  -30.8053   26.0986 C   0  0  0  0  0  0  0  0  0  0  0  0
  -23.7233  -29.6891   27.2173 C   0  0  0  0  0  0  0  0  0  0  0  0
  -23.5822  -32.0993   26.5898 C   0  0  0  0  0  0  0  0  0  0  0  0
  -19.5681  -28.8405   22.1021 C   0  0  0  0  0  0  0  0  0  0  0  0
  -26.0745  -25.0809   18.3074 C   0  0  0  0  0  0  0  0  0  1  0  0
  -23.4969  -30.3394   24.7766 C   0  0  1  0  0  0  0  0  0  0  0  0
  -19.8513  -29.3287   24.5352 C   0  0  2  0  0  0  0  0  0  0  0  0
  -24.1263  -30.7241   26.1453 C   0  0  0  0  0  0  0  0  0  0  0  0
  -24.3608  -12.4256   21.5205 N   0  0  0  0  0  0  0  0  0  0  0  0
  -26.4629  -20.2692   17.1333 N   0  0  0  0  0  0  0  0  0  0  0  0
  -25.2340  -13.3698   21.1306 N   0  0  0  0  0  0  0  0  0  0  0  0
  -24.5681  -30.7611   22.5860 N   0  0  0  0  0  0  0  0  0  0  0  0
  -24.2341  -17.0241   21.6097 N   0  0  0  0  0  0  0  0  0  0  0  0
  -27.0548  -13.7711   19.6696 N   0  0  0  0  0  0  0  0  0  0  0  0
  -25.9873   -9.4611   18.8446 N   0  0  0  0  0  0  0  0  0  0  0  0
  -25.1330  -18.1396   19.7362 N   0  0  0  0  0  0  0  0  0  0  0  0
  -26.8629  -33.2143   22.2939 N   0  0  0  0  0  0  0  0  0  0  0  0
  -22.0392  -30.2815   24.7844 N   0  0  0  0  0  0  0  0  0  0  0  0
  -19.1597  -28.5179   23.4936 N   0  3  0  0  0  0  0  0  0  0  0  0
  -27.4206  -11.1633   18.2904 O   0  0  0  0  0  0  0  0  0  0  0  0
  -27.3536  -30.9590   21.9849 O   0  0  0  0  0  0  0  0  0  0  0  0
  -26.7905  -21.5561   15.2968 O   0  0  0  0  0  0  0  0  0  0  0  0
  -23.5618  -32.4916   23.7815 O   0  0  0  0  0  0  0  0  0  0  0  0
  -21.8688  -28.0702   24.1074 O   0  0  0  0  0  0  0  0  0  0  0  0
  -24.5677  -19.3112   21.6570 O   0  0  0  0  0  0  0  0  0  0  0  0
  -21.9088   -6.5536   21.2833 O   0  0  0  0  0  0  0  0  0  0  0  0
  -26.3497  -25.6824   19.5717 O   0  0  0  0  0  0  0  0  0  1  0  0
  -20.7972   -4.7630   26.3786 F   0  0  0  0  0  0  0  0  0  0  0  0
  -22.8554   -4.1108   22.1663 F   0  0  0  0  0  0  0  0  0  0  0  0
  1  2  1  0  0  0  0
  1  5  2  0  0  0  0
  2  6  2  0  0  0  0
  3  8  2  0  0  0  0
  3 17  1  0  0  0  0
  4  9  1  0  0  0  0
  4 17  2  0  0  0  0
  5 19  1  0  0  0  0
  6 21  1  0  0  0  0
  7 10  2  0  0  0  0
  7 20  1  0  0  0  0
  8 24  1  0  0  0  0
  9 24  2  0  0  0  0
 10 25  1  0  0  0  0
 11 12  2  0  0  0  0
 11 26  1  0  0  0  0
 12 27  1  0  0  0  0
 13 22  1  0  0  0  0
 13 25  2  0  0  0  0
 14 23  1  0  0  0  0
 14 30  2  0  0  0  0
 15 27  2  0  0  0  0
 15 28  1  0  0  0  0
 16 23  2  0  0  0  0
 16 63  1  0  0  0  0
 17 29  1  0  0  0  0
 18 29  1  0  0  0  0
 18 31  2  0  0  0  0
 18 34  1  0  0  0  0
 19 21  2  0  0  0  0
 19 40  1  0  0  0  0
 20 22  2  0  0  0  0
 20 41  1  0  0  0  0
 21 49  1  0  0  0  0
 22 42  1  0  0  0  0
 23 69  1  0  0  0  0
 24 79  1  0  0  0  0
 25 80  1  0  0  0  0
 26 28  2  0  0  0  0
 26 79  1  0  0  0  0
 27 81  1  0  0  0  0
 28 82  1  0  0  0  0
 29 62  2  0  0  0  0
 30 32  1  0  0  0  0
 30 63  1  0  0  0  0
 31 64  1  0  0  0  0
 31 67  1  0  0  0  0
 32 33  2  0  0  0  0
 33 58  1  0  0  0  0
 34 68  1  0  0  0  0
 34 73  2  0  0  0  0
 35 50  1  0  0  0  0
 35 70  1  0  0  0  0
 35 74  2  0  0  0  0
 36 52  1  0  0  0  0
 36 63  1  0  0  0  0
 36 75  2  0  0  0  0
 37 59  1  0  0  0  0
 37 65  1  0  0  0  0
 37 76  2  0  0  0  0
 38 60  1  0  0  0  0
 38 71  1  0  0  0  0
 38 77  2  0  0  0  0
 39 66  1  0  0  0  0
 39 69  1  0  0  0  0
 39 78  2  0  0  0  0
 40 43  1  0  0  0  0
 41 50  1  0  0  0  0
 42 65  1  0  0  0  0
 43 45  1  0  0  0  0
 44 46  1  0  0  0  0
 44 47  1  0  0  0  0
 45 49  1  0  0  0  0
 46 51  1  0  0  0  0
 47 66  1  0  0  0  0
 48 51  1  0  0  0  0
 48 66  1  0  0  0  0
 49 70  1  0  0  0  0
 50 65  1  0  0  0  0
 51 64  1  0  0  0  0
 53 60  1  0  0  0  0
 54 61  1  0  0  0  0
 55 61  1  0  0  0  0
 56 61  1  0  0  0  0
 57 72  1  0  0  0  0
 58 80  1  0  0  0  0
 59 61  1  0  0  0  0
 59 71  1  0  0  0  0
 60 72  1  0  0  0  0
 62 64  1  0  0  0  0
M  CHG  1  72   1
M  ISO  4  39 100  58 101  69 100  80 101
M  END
> <Batch ID>
0110

> <Smiles>
CNC(C)C(=O)NC(C(=O)N1Cc2cc([101O:1][101CH2:1]C=Cc3cc([100NH:0][100C:0](=O)N4CCCC(n5nc(-c6ccc(Oc7ccc(F)cc7F)cc6)c(C(N)=O)c5N)C4)cn3C(C)=O)ccc2CC1C(=O)NC1CCCc2ccccc21)C(C)(C)C

> <Shape>
0.249

> <Color>
0.120

> <Negative vol penalty>
0.000

$$$$

  -OEChem-04052301263D

 86 95  0     1  0  0  0  0  0999 V2000
  -32.8609  -25.3438   20.7230 C   0  0  0  0  0  0  0  0  0  0  0  0
  -32.6787  -26.6749   20.3655 C   0  0  0  0  0  0  0  0  0  0  0  0
  -28.5099  -14.0885   20.6536 C   0  0  0  0  0  0  0  0  0  0  0  0
  -26.4112  -15.0693   19.9677 C   0  0  0  0  0  0  0  0  0  0  0  0
  -32.0938  -24.3518   20.1158 C   0  0  0  0  0  0  0  0  0  0  0  0
  -31.7211  -27.0157   19.4096 C   0  0  0  0  0  0  0  0  0  0  0  0
  -24.1062  -27.8851   18.6929 C   0  0  0  0  0  0  0  0  0  0  0  0
  -27.8862  -12.8481   20.7884 C   0  0  0  0  0  0  0  0  0  0  0  0
  -25.7875  -13.8289   20.1025 C   0  0  0  0  0  0  0  0  0  0  0  0
  -23.0826  -27.1893   19.3346 C   0  0  0  0  0  0  0  0  0  0  0  0
  -26.8613  -10.3422   18.7629 C   0  0  0  0  0  0  0  0  0  0  0  0
  -27.5153   -9.2274   18.2384 C   0  0  0  0  0  0  0  0  0  0  0  0
  -24.2991  -27.3288   21.4131 C   0  0  0  0  0  0  0  0  0  0  0  0
  -22.9286  -23.9320   23.6870 C   0  0  0  0  0  0  0  0  0  0  0  0
  -25.2155  -23.4225   24.2764 C   0  0  0  0  0  0  0  0  0  0  0  0
  -27.5791   -8.2300   20.4380 C   0  0  0  0  0  0  0  0  0  0  0  0
  -27.7724  -15.1991   20.2433 C   0  0  0  0  0  0  0  0  0  0  0  0
  -29.0352  -17.0006   18.9521 C   0  0  0  0  0  0  0  0  0  0  0  0
  -31.1353  -24.6802   19.1430 C   0  0  0  0  0  0  0  0  0  0  0  0
  -25.2408  -28.2992   19.4053 C   0  0  0  0  0  0  0  0  0  0  0  0
  -30.9203  -26.0312   18.8028 C   0  0  0  0  0  0  0  0  0  0  0  0
  -25.3345  -28.0320   20.7786 C   0  0  0  0  0  0  0  0  0  0  0  0
  -23.0747  -23.2147   22.4997 C   0  0  0  0  0  0  0  0  0  0  0  0
  -23.9990  -24.0360   24.5754 C   0  0  0  0  0  0  0  0  0  0  0  0
  -25.3617  -22.7052   23.0891 C   0  0  0  0  0  0  0  0  0  0  0  0
  -26.5251  -12.7183   20.5128 C   0  0  0  0  0  0  0  0  0  0  0  0
  -23.1803  -26.9085   20.6943 C   0  0  0  0  0  0  0  0  0  0  0  0
  -26.5663  -10.4010   20.1249 C   0  0  0  0  0  0  0  0  0  0  0  0
  -27.8742   -8.1713   19.0759 C   0  0  0  0  0  0  0  0  0  0  0  0
  -26.9251   -9.3448   20.9625 C   0  0  0  0  0  0  0  0  0  0  0  0
  -24.2913  -22.6013   22.2008 C   0  0  0  0  0  0  0  0  0  0  0  0
  -28.4159  -16.4807   20.1045 C   0  0  0  0  0  0  0  0  0  0  0  0
  -29.4881  -18.2395   19.3350 C   0  0  0  0  0  0  0  0  0  0  0  0
  -21.7150  -22.0309   20.7168 C   0  0  0  0  0  0  0  0  0  0  0  0
  -29.1875  -16.4160   17.6518 C   0  0  0  0  0  0  0  0  0  0  0  0
  -28.3518  -27.6702   19.2316 C   0  0  0  0  0  0  0  0  0  0  0  0
  -28.5480  -29.9741   21.5066 C   0  0  0  0  0  0  0  0  0  0  0  0
  -27.0111  -31.7140   24.0082 C   0  0  0  0  0  0  0  0  0  0  0  0
  -27.7583  -22.0908   23.5635 C   0  0  0  0  0  0  0  0  0  0  0  0
  -30.3272  -23.5673   18.5236 C   0  0  0  0  0  0  0  0  0  0  0  0
  -26.3240  -29.0723   18.7042 C   0  0  0  0  0  0  0  0  0  0  0  0
  -26.5224  -28.4725   21.5930 C   0  0  0  0  0  0  0  0  0  0  0  0
  -20.4422  -22.3472   19.9675 C   0  0  0  0  0  0  0  0  0  0  0  0
  -29.6588  -23.9754   17.2147 C   0  0  0  0  0  0  0  0  0  0  0  0
  -19.7863  -23.4161   20.8210 C   0  0  0  0  0  0  0  0  0  0  0  0
  -30.9927  -20.6499   23.1899 C   0  0  0  0  0  0  0  0  0  0  0  0
  -28.9250  -25.2958   17.3955 C   0  0  0  0  0  0  0  0  0  0  0  0
  -30.7564  -19.4682   22.2466 C   0  0  0  0  0  0  0  0  0  0  0  0
  -29.8259  -20.8463   24.1562 C   0  0  0  0  0  0  0  0  0  0  0  0
  -28.2693  -19.7703   22.5787 C   0  0  0  0  0  0  0  0  0  0  0  0
  -29.9060  -26.4226   17.7434 C   0  0  1  0  0  0  0  0  0  0  0  0
  -27.6701  -28.9962   19.4180 C   0  0  1  0  0  0  0  0  0  0  0  0
  -29.3888  -19.5730   21.5435 C   0  0  2  0  0  0  0  0  0  0  0  0
  -20.9650  -24.1546   21.4452 C   0  0  2  0  0  0  0  0  0  0  0  0
  -27.4382  -33.5074   25.7107 C   0  0  0  0  0  0  0  0  0  0  0  0
  -30.0991  -27.9787   23.2160 C   0  0  0  0  0  0  0  0  0  0  0  0
  -29.6686  -29.4474   25.1974 C   0  0  0  0  0  0  0  0  0  0  0  0
  -30.9928  -30.3138   23.2690 C   0  0  0  0  0  0  0  0  0  0  0  0
  -24.9337  -33.4730   22.8467 C   0  0  0  0  0  0  0  0  0  0  0  0
  -21.4409  -25.2939   20.5410 C   0  0  0  0  0  0  0  0  0  1  0  0
  -28.4977  -29.9939   23.0153 C   0  0  1  0  0  0  0  0  0  0  0  0
  -26.9424  -33.2009   24.3060 C   0  0  2  0  0  0  0  0  0  0  0  0
  -29.7929  -29.4233   23.6589 C   0  0  0  0  0  0  0  0  0  0  0  0
  -28.4688  -17.3206   21.1417 N   0  0  0  0  0  0  0  0  0  0  0  0
  -29.1269  -18.3807   20.6425 N   0  0  0  0  0  0  0  0  0  0  0  0
  -21.9740  -23.1089   21.5898 N   0  0  0  0  0  0  0  0  0  0  0  0
  -27.5582  -29.2197   20.8608 N   0  0  0  0  0  0  0  0  0  0  0  0
  -28.5641  -20.9416   23.4190 N   0  0  0  0  0  0  0  0  0  0  0  0
  -23.8517  -24.7608   25.7764 N   0  0  0  0  0  0  0  0  0  0  0  0
  -30.1562  -19.2109   18.6773 N   0  0  0  0  0  0  0  0  0  0  0  0
  -28.6627  -15.1356   17.4294 N   0  0  0  0  0  0  0  0  0  0  0  0
  -26.5989  -22.0832   22.7887 N   0  0  0  0  0  0  0  0  0  0  0  0
  -29.1568  -27.6041   18.1105 N   0  0  0  0  0  0  0  0  0  0  0  0
  -28.1976  -31.3700   23.3957 N   0  0  0  0  0  0  0  0  0  0  0  0
  -25.5395  -33.6890   24.1859 N   0  3  0  0  0  0  0  0  0  0  0  0
  -22.3541  -21.0092   20.5112 O   0  0  0  0  0  0  0  0  0  0  0  0
  -29.7860  -17.0046   16.7197 O   0  0  0  0  0  0  0  0  0  0  0  0
  -28.1625  -26.7739   20.0456 O   0  0  0  0  0  0  0  0  0  0  0  0
  -29.4285  -30.6106   20.9225 O   0  0  0  0  0  0  0  0  0  0  0  0
  -26.1045  -30.9348   24.2939 O   0  0  0  0  0  0  0  0  0  0  0  0
  -28.0872  -23.0257   24.2982 O   0  0  0  0  0  0  0  0  0  0  0  0
  -25.9162  -11.5081   20.6439 O   0  0  0  0  0  0  0  0  0  0  0  0
  -22.1829  -26.2289   21.3230 O   0  0  0  0  0  0  0  0  0  1  0  0
  -28.5009   -7.1001   18.5719 F   0  0  0  0  0  0  0  0  0  0  0  0
  -26.6432   -9.3951   22.2716 F   0  0  0  0  0  0  0  0  0  0  0  0
  -24.4317  -21.9098   21.0594 F   0  0  0  0  0  0  0  0  0  0  0  0
  1  2  1  0  0  0  0
  1  5  2  0  0  0  0
  2  6  2  0  0  0  0
  3  8  2  0  0  0  0
  3 17  1  0  0  0  0
  4  9  1  0  0  0  0
  4 17  2  0  0  0  0
  5 19  1  0  0  0  0
  6 21  1  0  0  0  0
  7 10  2  0  0  0  0
  7 20  1  0  0  0  0
  8 26  1  0  0  0  0
  9 26  2  0  0  0  0
 10 27  1  0  0  0  0
 11 12  2  0  0  0  0
 11 28  1  0  0  0  0
 12 29  1  0  0  0  0
 13 22  1  0  0  0  0
 13 27  2  0  0  0  0
 14 23  1  0  0  0  0
 14 24  2  0  0  0  0
 15 24  1  0  0  0  0
 15 25  2  0  0  0  0
 16 29  2  0  0  0  0
 16 30  1  0  0  0  0
 17 32  1  0  0  0  0
 18 32  1  0  0  0  0
 18 33  2  0  0  0  0
 18 35  1  0  0  0  0
 19 21  2  0  0  0  0
 19 40  1  0  0  0  0
 20 22  2  0  0  0  0
 20 41  1  0  0  0  0
 21 51  1  0  0  0  0
 22 42  1  0  0  0  0
 23 31  2  0  0  0  0
 23 66  1  0  0  0  0
 24 69  1  0  0  0  0
 25 31  1  0  0  0  0
 25 72  1  0  0  0  0
 26 82  1  0  0  0  0
 27 83  1  0  0  0  0
 28 30  2  0  0  0  0
 28 82  1  0  0  0  0
 29 84  1  0  0  0  0
 30 85  1  0  0  0  0
 31 86  1  0  0  0  0
 32 64  2  0  0  0  0
 33 65  1  0  0  0  0
 33 70  1  0  0  0  0
 34 43  1  0  0  0  0
 34 66  1  0  0  0  0
 34 76  2  0  0  0  0
 35 71  1  0  0  0  0
 35 77  2  0  0  0  0
 36 52  1  0  0  0  0
 36 73  1  0  0  0  0
 36 78  2  0  0  0  0
 37 61  1  0  0  0  0
 37 67  1  0  0  0  0
 37 79  2  0  0  0  0
 38 62  1  0  0  0  0
 38 74  1  0  0  0  0
 38 80  2  0  0  0  0
 39 68  1  0  0  0  0
 39 72  1  0  0  0  0
 39 81  2  0  0  0  0
 40 44  1  0  0  0  0
 41 52  1  0  0  0  0
 42 67  1  0  0  0  0
 43 45  1  0  0  0  0
 44 47  1  0  0  0  0
 45 54  1  0  0  0  0
 46 48  1  0  0  0  0
 46 49  1  0  0  0  0
 47 51  1  0  0  0  0
 48 53  1  0  0  0  0
 49 68  1  0  0  0  0
 50 53  1  0  0  0  0
 50 68  1  0  0  0  0
 51 73  1  0  0  0  0
 52 67  1  0  0  0  0
 53 65  1  0  0  0  0
 54 60  1  0  0  0  0
 54 66  1  0  0  0  0
 55 62  1  0  0  0  0
 56 63  1  0  0  0  0
 57 63  1  0  0  0  0
 58 63  1  0  0  0  0
 59 75  1  0  0  0  0
 60 83  1  0  0  0  0
 61 63  1  0  0  0  0
 61 74  1  0  0  0  0
 62 75  1  0  0  0  0
 64 65  1  0  0  0  0
M  CHG  1  75   1
M  ISO  4  39 100  60 101  72 100  83 101
M  END
> <Batch ID>
0110

> <Smiles>
CNC(C)C(=O)NC(C(=O)N1Cc2cc([101O:1][101CH2:1]C3CCC(=O)N3c3cc(N)cc([100NH:0][100C:0](=O)N4CCCC(n5nc(-c6ccc(Oc7ccc(F)cc7F)cc6)c(C(N)=O)c5N)C4)c3F)ccc2CC1C(=O)NC1CCCc2ccccc21)C(C)(C)C

> <Shape>
0.205

> <Color>
0.067

> <Negative vol penalty>
0.000

$$$$

  -OEChem-04052301263D

 87 95  0     1  0  0  0  0  0999 V2000
  -25.7567  -38.1616   21.8917 C   0  0  0  0  0  0  0  0  0  0  0  0
  -26.5249  -37.0885   21.4515 C   0  0  0  0  0  0  0  0  0  0  0  0
  -23.1593  -10.0917   21.9330 C   0  0  0  0  0  0  0  0  0  0  0  0
  -24.7580   -8.3384   21.4779 C   0  0  0  0  0  0  0  0  0  0  0  0
  -24.7940  -37.9687   22.8815 C   0  0  0  0  0  0  0  0  0  0  0  0
  -26.3314  -35.8219   22.0017 C   0  0  0  0  0  0  0  0  0  0  0  0
  -26.8196  -30.4415   19.1176 C   0  0  0  0  0  0  0  0  0  0  0  0
  -22.1146   -9.1830   21.7642 C   0  0  0  0  0  0  0  0  0  0  0  0
  -23.7133   -7.4296   21.3092 C   0  0  0  0  0  0  0  0  0  0  0  0
  -27.8468  -29.5008   19.0545 C   0  0  0  0  0  0  0  0  0  0  0  0
  -21.6323   -5.6357   23.2769 C   0  0  0  0  0  0  0  0  0  0  0  0
  -21.7564   -4.3874   23.8867 C   0  0  0  0  0  0  0  0  0  0  0  0
  -26.8001  -28.2478   20.8303 C   0  0  0  0  0  0  0  0  0  0  0  0
  -28.5895  -20.8896   18.9149 C   0  0  0  0  0  0  0  0  0  0  0  0
  -30.4288  -19.2339   20.2026 C   0  0  0  0  0  0  0  0  0  0  0  0
  -21.6056   -3.3171   21.7259 C   0  0  0  0  0  0  0  0  0  0  0  0
  -24.4810   -9.6694   21.7898 C   0  0  0  0  0  0  0  0  0  0  0  0
  -26.2368  -10.9137   23.1596 C   0  0  0  0  0  0  0  0  0  0  0  0
  -24.5819  -36.6971   23.4373 C   0  0  0  0  0  0  0  0  0  0  0  0
  -25.7790  -30.2978   20.0465 C   0  0  0  0  0  0  0  0  0  0  0  0
  -25.3658  -35.6120   23.0008 C   0  0  0  0  0  0  0  0  0  0  0  0
  -25.7596  -29.1866   20.9015 C   0  0  0  0  0  0  0  0  0  0  0  0
  -28.4610  -19.5035   18.8271 C   0  0  0  0  0  0  0  0  0  0  0  0
  -29.6378  -21.4479   19.6464 C   0  0  0  0  0  0  0  0  0  0  0  0
  -29.3806  -18.6756   19.4710 C   0  0  0  0  0  0  0  0  0  0  0  0
  -22.3916   -7.8520   21.4523 C   0  0  0  0  0  0  0  0  0  0  0  0
  -27.8387  -28.4053   19.9129 C   0  0  0  0  0  0  0  0  0  0  0  0
  -21.4948   -5.7248   21.8917 C   0  0  0  0  0  0  0  0  0  0  0  0
  -21.7431   -3.2280   23.1112 C   0  0  0  0  0  0  0  0  0  0  0  0
  -30.5574  -20.6201   20.2903 C   0  0  0  0  0  0  0  0  0  0  0  0
  -21.4815   -4.5655   21.1162 C   0  0  0  0  0  0  0  0  0  0  0  0
  -25.5606  -10.6077   21.9635 C   0  0  0  0  0  0  0  0  0  0  0  0
  -27.1679  -11.8557   22.7964 C   0  0  0  0  0  0  0  0  0  0  0  0
  -28.5095  -26.1915   19.5670 C   0  0  0  0  0  0  0  0  0  1  0  0
  -30.2788  -16.4473   18.8475 C   0  0  0  0  0  0  0  0  0  0  0  0
  -26.0409  -10.3927   24.4810 C   0  0  0  0  0  0  0  0  0  0  0  0
  -29.4124  -25.2069   19.4839 C   0  0  0  0  0  0  0  0  0  0  0  0
  -28.9471  -23.8183   19.1622 C   0  0  0  0  0  0  0  0  0  0  0  0
  -24.7144  -32.0089   22.5047 C   0  0  0  0  0  0  0  0  0  0  0  0
  -22.3484  -29.7899   22.5226 C   0  0  0  0  0  0  0  0  0  0  0  0
  -21.3270  -26.6372   21.7078 C   0  0  0  0  0  0  0  0  0  0  0  0
  -28.1991  -16.6067   20.0589 C   0  0  0  0  0  0  0  0  0  0  0  0
  -23.5623  -36.5470   24.5384 C   0  0  0  0  0  0  0  0  0  0  0  0
  -24.6644  -31.3071   20.0837 C   0  0  0  0  0  0  0  0  0  0  0  0
  -24.6546  -28.9757   21.9029 C   0  0  0  0  0  0  0  0  0  0  0  0
  -23.1611  -35.0982   24.8036 C   0  0  0  0  0  0  0  0  0  0  0  0
  -28.6974  -13.4063   18.2436 C   0  0  0  0  0  0  0  0  0  0  0  0
  -24.3971  -34.2076   24.8810 C   0  0  0  0  0  0  0  0  0  0  0  0
  -27.9251  -12.4348   19.1344 C   0  0  0  0  0  0  0  0  0  0  0  0
  -28.0772  -14.7988   18.2699 C   0  0  0  0  0  0  0  0  0  0  0  0
  -27.1667  -14.4032   20.5403 C   0  0  0  0  0  0  0  0  0  0  0  0
  -25.1684  -34.2180   23.5557 C   0  0  1  0  0  0  0  0  0  0  0  0
  -23.9262  -31.3331   21.4186 C   0  0  1  0  0  0  0  0  0  0  0  0
  -27.7796  -12.9928   20.5602 C   0  0  1  0  0  0  0  0  0  0  0  0
  -27.3286  -18.9328   18.0364 C   0  0  0  0  0  0  0  0  0  0  0  0
  -19.3522  -25.0989   21.8846 C   0  0  0  0  0  0  0  0  0  0  0  0
  -22.9778  -29.3249   25.4717 C   0  0  0  0  0  0  0  0  0  0  0  0
  -21.6829  -27.1862   25.3390 C   0  0  0  0  0  0  0  0  0  0  0  0
  -20.5391  -29.3628   24.9188 C   0  0  0  0  0  0  0  0  0  0  0  0
  -21.0926  -26.4115   18.7662 C   0  0  0  0  0  0  0  0  0  0  0  0
  -22.1430  -28.4515   23.1900 C   0  0  1  0  0  0  0  0  0  0  0  0
  -20.0684  -26.1305   21.0269 C   0  0  2  0  0  0  0  0  0  0  0  0
  -21.8577  -28.5861   24.7124 C   0  0  0  0  0  0  0  0  0  0  0  0
  -26.0226  -11.2995   20.9185 N   0  0  0  0  0  0  0  0  0  0  0  0
  -26.9991  -12.0495   21.4569 N   0  0  0  0  0  0  0  0  0  0  0  0
  -23.5907  -29.9933   21.9051 N   0  0  0  0  0  0  0  0  0  0  0  0
  -27.9142  -15.2901   19.6454 N   0  0  0  0  0  0  0  0  0  0  0  0
  -28.1064  -12.5291   23.4953 N   0  0  0  0  0  0  0  0  0  0  0  0
  -25.0409   -9.4308   24.6785 N   0  0  0  0  0  0  0  0  0  0  0  0
  -29.7668  -22.8551   19.7341 N   0  0  0  0  0  0  0  0  0  0  0  0
  -24.5108  -33.3735   22.5816 N   0  0  0  0  0  0  0  0  0  0  0  0
  -21.0864  -27.7798   22.4411 N   0  0  0  0  0  0  0  0  0  0  0  0
  -29.2658  -17.2379   19.3918 N   0  0  0  0  0  0  0  0  0  0  0  0
  -20.4046  -25.5019   19.7182 N   0  3  0  0  0  0  0  0  0  0  0  0
  -31.2722  -16.8372   18.2390 O   0  0  0  0  0  0  0  0  0  0  0  0
  -26.7211  -10.7812   25.4607 O   0  0  0  0  0  0  0  0  0  0  0  0
  -27.9520  -23.6319   18.4701 O   0  0  0  0  0  0  0  0  0  0  0  0
  -25.4516  -31.3416   23.2208 O   0  0  0  0  0  0  0  0  0  0  0  0
  -21.4375  -30.6215   22.5420 O   0  0  0  0  0  0  0  0  0  0  0  0
  -22.4141  -26.0734   21.6029 O   0  0  0  0  0  0  0  0  0  0  0  0
  -27.6008  -17.1623   20.9876 O   0  0  0  0  0  0  0  0  0  0  0  0
  -30.7617  -25.4187   19.6820 O   0  0  0  0  0  0  0  0  0  0  0  0
  -21.3724   -6.9649   21.2878 O   0  0  0  0  0  0  0  0  0  0  0  0
  -28.8403  -27.4861   19.8539 O   0  0  0  0  0  0  0  0  0  1  0  0
  -21.8639   -2.0294   23.6967 F   0  0  0  0  0  0  0  0  0  0  0  0
  -31.5680  -21.1465   20.9967 F   0  0  0  0  0  0  0  0  0  0  0  0
  -21.3508   -4.6447   19.7849 F   0  0  0  0  0  0  0  0  0  0  0  0
  1  2  1  0  0  0  0
  1  5  2  0  0  0  0
  2  6  2  0  0  0  0
  3  8  2  0  0  0  0
  3 17  1  0  0  0  0
  4  9  1  0  0  0  0
  4 17  2  0  0  0  0
  5 19  1  0  0  0  0
  6 21  1  0  0  0  0
  7 10  2  0  0  0  0
  7 20  1  0  0  0  0
  8 26  1  0  0  0  0
  9 26  2  0  0  0  0
 10 27  1  0  0  0  0
 11 12  2  0  0  0  0
 11 28  1  0  0  0  0
 12 29  1  0  0  0  0
 13 22  1  0  0  0  0
 13 27  2  0  0  0  0
 14 23  2  0  0  0  0
 14 24  1  0  0  0  0
 15 25  2  0  0  0  0
 15 30  1  0  0  0  0
 16 29  2  0  0  0  0
 16 31  1  0  0  0  0
 17 32  1  0  0  0  0
 18 32  1  0  0  0  0
 18 33  2  0  0  0  0
 18 36  1  0  0  0  0
 19 21  2  0  0  0  0
 19 43  1  0  0  0  0
 20 22  2  0  0  0  0
 20 44  1  0  0  0  0
 21 52  1  0  0  0  0
 22 45  1  0  0  0  0
 23 25  1  0  0  0  0
 23 55  1  0  0  0  0
 24 30  2  0  0  0  0
 24 70  1  0  0  0  0
 25 73  1  0  0  0  0
 26 83  1  0  0  0  0
 27 84  1  0  0  0  0
 28 31  2  0  0  0  0
 28 83  1  0  0  0  0
 29 85  1  0  0  0  0
 30 86  1  0  0  0  0
 31 87  1  0  0  0  0
 32 64  2  0  0  0  0
 33 65  1  0  0  0  0
 33 68  1  0  0  0  0
 34 37  2  0  0  0  0
 34 84  1  0  0  0  0
 35 73  1  0  0  0  0
 35 75  2  0  0  0  0
 36 69  1  0  0  0  0
 36 76  2  0  0  0  0
 37 38  1  0  0  0  0
 37 82  1  0  0  0  0
 38 70  1  0  0  0  0
 38 77  2  0  0  0  0
 39 53  1  0  0  0  0
 39 71  1  0  0  0  0
 39 78  2  0  0  0  0
 40 61  1  0  0  0  0
 40 66  1  0  0  0  0
 40 79  2  0  0  0  0
 41 62  1  0  0  0  0
 41 72  1  0  0  0  0
 41 80  2  0  0  0  0
 42 67  1  0  0  0  0
 42 73  1  0  0  0  0
 42 81  2  0  0  0  0
 43 46  1  0  0  0  0
 44 53  1  0  0  0  0
 45 66  1  0  0  0  0
 46 48  1  0  0  0  0
 47 49  1  0  0  0  0
 47 50  1  0  0  0  0
 48 52  1  0  0  0  0
 49 54  1  0  0  0  0
 50 67  1  0  0  0  0
 51 54  1  0  0  0  0
 51 67  1  0  0  0  0
 52 71  1  0  0  0  0
 53 66  1  0  0  0  0
 54 65  1  0  0  0  0
 56 62  1  0  0  0  0
 57 63  1  0  0  0  0
 58 63  1  0  0  0  0
 59 63  1  0  0  0  0
 60 74  1  0  0  0  0
 61 63  1  0  0  0  0
 61 72  1  0  0  0  0
 62 74  1  0  0  0  0
 64 65  1  0  0  0  0
M  CHG  1  74   1
M  ISO  4  34 101  42 100  73 100  84 101
M  END
> <Batch ID>
0110

> <Smiles>
CNC(C)C(=O)NC(C(=O)N1Cc2cc([101O:1][101CH2:1]C(=O)C(=O)Nc3cc(C)c([100N:0](C=O)[100C:0](=O)N4CCCC(n5nc(-c6ccc(Oc7ccc(F)cc7F)cc6)c(C(N)=O)c5N)C4)cc3F)ccc2CC1C(=O)NC1CCCc2ccccc21)C(C)(C)C

> <Shape>
0.348

> <Color>
0.085

> <Negative vol penalty>
0.000

$$$$

  -OEChem-04052301263D

 86 94  0     1  0  0  0  0  0999 V2000
  -21.1789  -27.1490   21.2305 C   0  0  0  0  0  0  0  0  0  0  0  0
  -22.2913  -27.1923   22.0648 C   0  0  0  0  0  0  0  0  0  0  0  0
  -23.0534   -9.9136   19.9126 C   0  0  0  0  0  0  0  0  0  0  0  0
  -23.8371   -9.8458   22.1969 C   0  0  0  0  0  0  0  0  0  0  0  0
  -21.0231  -26.0939   20.3325 C   0  0  0  0  0  0  0  0  0  0  0  0
  -23.2481  -26.1798   22.0024 C   0  0  0  0  0  0  0  0  0  0  0  0
  -29.2904  -26.7696   22.8072 C   0  0  0  0  0  0  0  0  0  0  0  0
  -22.2998   -8.7614   20.1369 C   0  0  0  0  0  0  0  0  0  0  0  0
  -23.0835   -8.6937   22.4213 C   0  0  0  0  0  0  0  0  0  0  0  0
  -30.1176  -26.5373   23.9052 C   0  0  0  0  0  0  0  0  0  0  0  0
  -19.8534   -7.9123   23.0350 C   0  0  0  0  0  0  0  0  0  0  0  0
  -19.1083   -7.8462   24.2122 C   0  0  0  0  0  0  0  0  0  0  0  0
  -29.8918  -17.6382   22.8759 C   0  0  0  0  0  0  0  0  0  0  0  0
  -30.6298  -24.3417   23.0473 C   0  0  0  0  0  0  0  0  0  0  0  0
  -31.9395  -17.2501   21.6539 C   0  0  0  0  0  0  0  0  0  0  0  0
  -20.3365   -5.8752   24.8788 C   0  0  0  0  0  0  0  0  0  0  0  0
  -23.8221  -10.4557   20.9426 C   0  0  0  0  0  0  0  0  0  0  0  0
  -30.4065  -18.8425   23.3558 C   0  0  0  0  0  0  0  0  0  0  0  0
  -24.1897  -12.9796   20.8922 C   0  0  0  0  0  0  0  0  0  0  0  0
  -21.9833  -25.0730   20.2522 C   0  0  0  0  0  0  0  0  0  0  0  0
  -29.1179  -25.7838   21.8249 C   0  0  0  0  0  0  0  0  0  0  0  0
  -23.1043  -25.1093   21.1034 C   0  0  0  0  0  0  0  0  0  0  0  0
  -29.8019  -24.5649   21.9365 C   0  0  0  0  0  0  0  0  0  0  0  0
  -30.6584  -16.8419   22.0250 C   0  0  0  0  0  0  0  0  0  0  0  0
  -32.4542  -18.4544   22.1338 C   0  0  0  0  0  0  0  0  0  0  0  0
  -22.3148   -8.1515   21.3913 C   0  0  0  0  0  0  0  0  0  0  0  0
  -30.7851  -25.3221   24.0269 C   0  0  0  0  0  0  0  0  0  0  0  0
  -20.8400   -6.9599   22.7795 C   0  0  0  0  0  0  0  0  0  0  0  0
  -31.6876  -19.2507   22.9847 C   0  0  0  0  0  0  0  0  0  0  0  0
  -19.3499   -6.8277   25.1342 C   0  0  0  0  0  0  0  0  0  0  0  0
  -21.0816   -5.9414   23.7014 C   0  0  0  0  0  0  0  0  0  0  0  0
  -24.6012  -11.6455   20.7113 C   0  0  0  0  0  0  0  0  0  0  0  0
  -25.2860  -13.7279   20.5392 C   0  0  0  0  0  0  0  0  0  0  0  0
  -29.1586  -19.2447   25.4285 C   0  0  0  0  0  0  0  0  0  0  0  0
  -29.5845  -19.6548   24.2433 C   0  0  0  0  0  0  0  0  0  0  0  0
  -22.9293  -13.4962   21.3395 C   0  0  0  0  0  0  0  0  0  0  0  0
  -26.6434  -24.1142   20.7327 C   0  0  0  0  0  0  0  0  0  0  0  0
  -32.3246  -22.7856   25.2144 C   0  0  0  0  0  0  0  0  0  0  0  0
  -28.8116  -23.0592   18.5630 C   0  0  0  0  0  0  0  0  0  0  0  0
  -32.0848  -22.5045   17.7722 C   0  0  0  0  0  0  0  0  0  0  0  0
  -30.7646  -14.7110   20.6856 C   0  0  0  0  0  0  0  0  0  0  0  0
  -21.7478  -23.9282   19.2990 C   0  0  0  0  0  0  0  0  0  0  0  0
  -28.2432  -26.0601   20.6328 C   0  0  0  0  0  0  0  0  0  0  0  0
  -29.6664  -23.4817   20.8988 C   0  0  0  0  0  0  0  0  0  0  0  0
  -22.9961  -23.0911   19.0322 C   0  0  0  0  0  0  0  0  0  0  0  0
  -29.5998  -12.3789   18.2603 C   0  0  0  0  0  0  0  0  0  0  0  0
  -23.7097  -22.7647   20.3403 C   0  0  0  0  0  0  0  0  0  0  0  0
  -28.1616  -12.0900   18.6966 C   0  0  0  0  0  0  0  0  0  0  0  0
  -30.5298  -12.5631   19.4582 C   0  0  0  0  0  0  0  0  0  0  0  0
  -28.6452  -13.2668   20.8803 C   0  0  0  0  0  0  0  0  0  0  0  0
  -24.1763  -24.0426   21.0478 C   0  0  1  0  0  0  0  0  0  0  0  0
  -27.7375  -24.7901   19.9556 C   0  0  1  0  0  0  0  0  0  0  0  0
  -27.6583  -13.1381   19.7084 C   0  0  2  0  0  0  0  0  0  0  0  0
  -33.5429  -21.5975   15.9423 C   0  0  0  0  0  0  0  0  0  0  0  0
  -28.0401  -20.2168   19.3604 C   0  0  0  0  0  0  0  0  0  0  0  0
  -30.1307  -19.4105   18.2436 C   0  0  0  0  0  0  0  0  0  0  0  0
  -28.3669  -20.5590   16.9047 C   0  0  0  0  0  0  0  0  0  0  0  0
  -33.4637  -25.1002   17.4257 C   0  0  0  0  0  0  0  0  0  0  0  0
  -33.4369  -21.7603   25.0508 C   0  0  0  0  0  0  0  0  0  0  0  0
  -32.7035  -24.2194   24.8986 C   0  0  0  0  0  0  0  0  0  1  0  0
  -32.9224  -20.3780   24.6759 C   0  0  0  0  0  0  0  0  0  0  0  0
  -29.7888  -21.9102   18.4999 C   0  0  1  0  0  0  0  0  0  0  0  0
  -32.8919  -22.8395   16.5309 C   0  0  2  0  0  0  0  0  0  0  0  0
  -29.0829  -20.5436   18.2729 C   0  0  0  0  0  0  0  0  0  0  0  0
  -25.8605  -11.5487   20.2769 N   0  0  0  0  0  0  0  0  0  0  0  0
  -26.2498  -12.8315   20.1818 N   0  0  0  0  0  0  0  0  0  0  0  0
  -28.7948  -23.7971   19.7550 N   0  0  0  0  0  0  0  0  0  0  0  0
  -29.9910  -13.5737   20.3711 N   0  0  0  0  0  0  0  0  0  0  0  0
  -33.7529  -18.8538   21.7488 N   0  0  0  0  0  0  0  0  0  0  0  0
  -25.5099  -15.0587   20.5026 N   0  0  0  0  0  0  0  0  0  0  0  0
  -21.9112  -12.5882   21.6611 N   0  0  0  0  0  0  0  0  0  0  0  0
  -30.1358  -15.6185   21.5374 N   0  0  0  0  0  0  0  0  0  0  0  0
  -25.3733  -24.5597   20.4199 N   0  0  0  0  0  0  0  0  0  0  0  0
  -30.7622  -22.2582   17.4703 N   0  0  0  0  0  0  0  0  0  0  0  0
  -33.9640  -23.8212   16.8593 N   0  3  0  0  0  0  0  0  0  0  0  0
  -22.7068  -14.7270   21.4351 O   0  0  0  0  0  0  0  0  0  0  0  0
  -26.9302  -23.2514   21.5543 O   0  0  0  0  0  0  0  0  0  0  0  0
  -31.1892  -22.4809   25.5760 O   0  0  0  0  0  0  0  0  0  0  0  0
  -28.0949  -23.2977   17.5878 O   0  0  0  0  0  0  0  0  0  0  0  0
  -32.5792  -22.4618   18.8966 O   0  0  0  0  0  0  0  0  0  0  0  0
  -31.8905  -14.8815   20.2110 O   0  0  0  0  0  0  0  0  0  0  0  0
  -21.5795   -7.0274   21.6106 O   0  0  0  0  0  0  0  0  0  0  0  0
  -31.5925  -25.0925   25.0980 O   0  0  0  0  0  0  0  0  0  1  0  0
  -32.1990  -20.4326   23.4527 O   0  0  0  0  0  0  0  0  0  0  0  0
  -18.6353   -6.7652   26.2654 F   0  0  0  0  0  0  0  0  0  0  0  0
  -22.0289   -5.0242   23.4621 F   0  0  0  0  0  0  0  0  0  0  0  0
  1  2  1  0  0  0  0
  1  5  2  0  0  0  0
  2  6  2  0  0  0  0
  3  8  2  0  0  0  0
  3 17  1  0  0  0  0
  4  9  1  0  0  0  0
  4 17  2  0  0  0  0
  5 20  1  0  0  0  0
  6 22  1  0  0  0  0
  7 10  2  0  0  0  0
  7 21  1  0  0  0  0
  8 26  1  0  0  0  0
  9 26  2  0  0  0  0
 10 27  1  0  0  0  0
 11 12  2  0  0  0  0
 11 28  1  0  0  0  0
 12 30  1  0  0  0  0
 13 18  1  0  0  0  0
 13 24  2  0  0  0  0
 14 23  1  0  0  0  0
 14 27  2  0  0  0  0
 15 24  1  0  0  0  0
 15 25  2  0  0  0  0
 16 30  2  0  0  0  0
 16 31  1  0  0  0  0
 17 32  1  0  0  0  0
 18 29  2  0  0  0  0
 18 35  1  0  0  0  0
 19 32  1  0  0  0  0
 19 33  2  0  0  0  0
 19 36  1  0  0  0  0
 20 22  2  0  0  0  0
 20 42  1  0  0  0  0
 21 23  2  0  0  0  0
 21 43  1  0  0  0  0
 22 51  1  0  0  0  0
 23 44  1  0  0  0  0
 24 72  1  0  0  0  0
 25 29  1  0  0  0  0
 25 69  1  0  0  0  0
 26 82  1  0  0  0  0
 27 83  1  0  0  0  0
 28 31  2  0  0  0  0
 28 82  1  0  0  0  0
 29 84  1  0  0  0  0
 30 85  1  0  0  0  0
 31 86  1  0  0  0  0
 32 65  2  0  0  0  0
 33 66  1  0  0  0  0
 33 70  1  0  0  0  0
 34 35  2  0  0  0  0
 36 71  1  0  0  0  0
 36 76  2  0  0  0  0
 37 52  1  0  0  0  0
 37 73  1  0  0  0  0
 37 77  2  0  0  0  0
 38 59  1  0  0  0  0
 38 60  1  0  0  0  0
 38 78  2  0  0  0  0
 39 62  1  0  0  0  0
 39 67  1  0  0  0  0
 39 79  2  0  0  0  0
 40 63  1  0  0  0  0
 40 74  1  0  0  0  0
 40 80  2  0  0  0  0
 41 68  1  0  0  0  0
 41 72  1  0  0  0  0
 41 81  2  0  0  0  0
 42 45  1  0  0  0  0
 43 52  1  0  0  0  0
 44 67  1  0  0  0  0
 45 47  1  0  0  0  0
 46 48  1  0  0  0  0
 46 49  1  0  0  0  0
 47 51  1  0  0  0  0
 48 53  1  0  0  0  0
 49 68  1  0  0  0  0
 50 53  1  0  0  0  0
 50 68  1  0  0  0  0
 51 73  1  0  0  0  0
 52 67  1  0  0  0  0
 53 66  1  0  0  0  0
 54 63  1  0  0  0  0
 55 64  1  0  0  0  0
 56 64  1  0  0  0  0
 57 64  1  0  0  0  0
 58 75  1  0  0  0  0
 59 61  1  0  0  0  0
 60 83  1  0  0  0  0
 61 84  1  0  0  0  0
 62 64  1  0  0  0  0
 62 74  1  0  0  0  0
 63 75  1  0  0  0  0
 65 66  1  0  0  0  0
M  CHG  1  75   1
M  ISO  4  41 100  60 101  72 100  83 101
M  END
> <Batch ID>
0110

> <Smiles>
C=Cc1cc([100NH:0][100C:0](=O)N2CCCC(n3nc(-c4ccc(Oc5ccc(F)cc5F)cc4)c(C(N)=O)c3N)C2)cc(N)c1OCCC(=O)[101CH2:1][101O:1]c1ccc2c(c1)CN(C(=O)C(NC(=O)C(C)NC)C(C)(C)C)C(C(=O)NC1CCCc3ccccc31)C2

> <Shape>
0.240

> <Color>
0.181

> <Negative vol penalty>
0.000

$$$$

  -OEChem-04052301263D

 86 94  0     1  0  0  0  0  0999 V2000
  -20.3525  -17.8511   19.7627 C   0  0  0  0  0  0  0  0  0  0  0  0
  -21.5981  -18.4283   19.9878 C   0  0  0  0  0  0  0  0  0  0  0  0
  -22.0397  -24.8249   18.7150 C   0  0  0  0  0  0  0  0  0  0  0  0
  -23.0950  -23.9717   20.7138 C   0  0  0  0  0  0  0  0  0  0  0  0
  -20.1196  -16.5293   20.1403 C   0  0  0  0  0  0  0  0  0  0  0  0
  -22.6112  -17.6844   20.5916 C   0  0  0  0  0  0  0  0  0  0  0  0
  -27.0758  -18.2351   18.2657 C   0  0  0  0  0  0  0  0  0  0  0  0
  -22.1219  -23.5605   18.1318 C   0  0  0  0  0  0  0  0  0  0  0  0
  -23.1771  -22.7072   20.1307 C   0  0  0  0  0  0  0  0  0  0  0  0
  -27.7893  -19.4043   18.5258 C   0  0  0  0  0  0  0  0  0  0  0  0
  -24.4755  -21.6637   16.6194 C   0  0  0  0  0  0  0  0  0  0  0  0
  -24.9172  -21.5875   15.2986 C   0  0  0  0  0  0  0  0  0  0  0  0
  -29.1729  -18.2037   20.0953 C   0  0  0  0  0  0  0  0  0  0  0  0
  -22.8242  -20.5649   14.6577 C   0  0  0  0  0  0  0  0  0  0  0  0
  -22.5263  -25.0305   20.0060 C   0  0  0  0  0  0  0  0  0  0  0  0
  -21.3852  -26.8480   21.3852 C   0  0  0  0  0  0  0  0  0  0  0  0
  -21.1333  -15.7658   20.7403 C   0  0  0  0  0  0  0  0  0  0  0  0
  -27.3990  -17.0419   18.9277 C   0  0  0  0  0  0  0  0  0  0  0  0
  -22.3912  -16.3516   20.9788 C   0  0  0  0  0  0  0  0  0  0  0  0
  -28.4637  -17.0202   19.8399 C   0  0  0  0  0  0  0  0  0  0  0  0
  -22.6906  -22.5016   18.8397 C   0  0  0  0  0  0  0  0  0  0  0  0
  -28.8361  -19.3895   19.4428 C   0  0  0  0  0  0  0  0  0  0  0  0
  -23.2081  -21.1905   16.9594 C   0  0  0  0  0  0  0  0  0  0  0  0
  -24.0916  -21.0381   14.3177 C   0  0  0  0  0  0  0  0  0  0  0  0
  -22.3825  -20.6411   15.9786 C   0  0  0  0  0  0  0  0  0  0  0  0
  -22.4422  -26.3366   20.6087 C   0  0  0  0  0  0  0  0  0  0  0  0
  -27.8630  -28.1712   20.8125 C   0  0  0  0  0  0  0  0  0  0  0  0
  -21.7865  -28.1190   21.7169 C   0  0  0  0  0  0  0  0  0  0  0  0
  -28.0983  -28.5243   22.1247 C   0  0  0  0  0  0  0  0  0  0  0  0
  -28.8154  -26.3147   21.4879 C   0  0  0  0  0  0  0  0  0  0  0  0
  -28.1641  -29.8473   24.2201 C   0  0  0  0  0  0  0  0  0  0  0  0
  -20.1510  -26.2295   21.7722 C   0  0  0  0  0  0  0  0  0  0  0  0
  -28.4889  -30.9909   24.8460 C   0  0  0  0  0  0  0  0  0  0  0  0
  -25.8643  -15.0921   20.9143 C   0  0  0  0  0  0  0  0  0  0  0  0
  -29.3851  -22.7997   20.5266 C   0  0  0  0  0  0  0  0  0  0  0  0
  -28.5166  -13.2614   20.5453 C   0  0  0  0  0  0  0  0  0  0  0  0
  -31.8351  -13.0926   19.7669 C   0  0  0  0  0  0  0  0  0  0  0  0
  -27.0509  -30.7540   22.2800 C   0  0  0  0  0  0  0  0  0  0  0  0
  -20.8197  -14.3558   21.1742 C   0  0  0  0  0  0  0  0  0  0  0  0
  -26.6370  -15.7831   18.6162 C   0  0  0  0  0  0  0  0  0  0  0  0
  -28.8636  -15.7604   20.5621 C   0  0  0  0  0  0  0  0  0  0  0  0
  -22.0619  -13.5183   21.4676 C   0  0  0  0  0  0  0  0  0  0  0  0
  -24.4735  -31.7387   20.1408 C   0  0  0  0  0  0  0  0  0  0  0  0
  -23.0439  -14.3041   22.3307 C   0  0  0  0  0  0  0  0  0  0  0  0
  -23.5559  -30.5178   20.0822 C   0  0  0  0  0  0  0  0  0  0  0  0
  -25.9398  -31.3218   20.1347 C   0  0  0  0  0  0  0  0  0  0  0  0
  -25.3926  -29.1512   21.1898 C   0  0  0  0  0  0  0  0  0  0  0  0
  -23.5231  -15.5692   21.6087 C   0  0  1  0  0  0  0  0  0  0  0  0
  -26.7200  -14.7434   19.7295 C   0  0  1  0  0  0  0  0  0  0  0  0
  -23.8950  -29.5178   21.2016 C   0  0  2  0  0  0  0  0  0  0  0  0
  -28.8376  -30.9807   26.3103 C   0  0  0  0  0  0  0  0  0  0  0  0
  -28.5428  -32.3489   24.2025 C   0  0  0  0  0  0  0  0  0  0  0  0
  -33.7367  -11.4647   19.5903 C   0  0  0  0  0  0  0  0  0  0  0  0
  -28.7515  -13.2094   23.5871 C   0  0  0  0  0  0  0  0  0  0  0  0
  -31.1120  -12.4183   23.3217 C   0  0  0  0  0  0  0  0  0  0  0  0
  -29.2278  -11.0250   22.4665 C   0  0  0  0  0  0  0  0  0  0  0  0
  -32.1956  -13.6485   16.8825 C   0  0  0  0  0  0  0  0  0  0  0  0
  -28.8302  -21.7643   19.5700 C   0  0  0  0  0  0  0  0  0  1  0  0
  -28.7078  -24.1544   20.4992 C   0  0  0  0  0  0  0  0  0  0  0  0
  -29.8473  -13.1530   21.2500 C   0  0  1  0  0  0  0  0  0  0  0  0
  -32.6083  -12.1638   18.8482 C   0  0  2  0  0  0  0  0  0  0  0  0
  -29.7261  -12.4758   22.6443 C   0  0  0  0  0  0  0  0  0  0  0  0
  -23.4399  -27.2113   20.4559 N   0  0  0  0  0  0  0  0  0  0  0  0
  -28.2740  -26.9046   20.4454 N   0  0  0  0  0  0  0  0  0  0  0  0
  -23.0116  -28.2853   21.1409 N   0  0  0  0  0  0  0  0  0  0  0  0
  -28.0842  -14.5569   20.2281 N   0  0  0  0  0  0  0  0  0  0  0  0
  -26.2203  -30.3685   21.2090 N   0  0  0  0  0  0  0  0  0  0  0  0
  -27.2687  -28.9865   19.9082 N   0  0  0  0  0  0  0  0  0  0  0  0
  -21.2074  -29.0995   22.4419 N   0  0  0  0  0  0  0  0  0  0  0  0
  -19.8979  -24.9187   21.3455 N   0  0  0  0  0  0  0  0  0  0  0  0
  -24.5228  -15.2367   20.6164 N   0  0  0  0  0  0  0  0  0  0  0  0
  -30.7430  -12.4643   20.3270 N   0  0  0  0  0  0  0  0  0  0  0  0
  -27.8257  -29.7286   22.8819 N   0  0  0  0  0  0  0  0  0  0  0  0
  -33.1960  -12.9295   17.7128 N   0  3  0  0  0  0  0  0  0  0  0  0
  -19.2906  -26.8274   22.4620 O   0  0  0  0  0  0  0  0  0  0  0  0
  -26.3826  -15.2191   22.0175 O   0  0  0  0  0  0  0  0  0  0  0  0
  -30.3276  -22.5555   21.2785 O   0  0  0  0  0  0  0  0  0  0  0  0
  -27.8876  -12.2342   20.2796 O   0  0  0  0  0  0  0  0  0  0  0  0
  -32.1689  -14.2578   19.9705 O   0  0  0  0  0  0  0  0  0  0  0  0
  -27.1172  -31.9295   22.6622 O   0  0  0  0  0  0  0  0  0  0  0  0
  -22.7707  -21.2676   18.2711 O   0  0  0  0  0  0  0  0  0  0  0  0
  -29.5337  -20.5294   19.6990 O   0  0  0  0  0  0  0  0  0  1  0  0
  -29.3163  -25.0362   21.4189 O   0  0  0  0  0  0  0  0  0  0  0  0
  -24.5153  -20.9664   13.0490 F   0  0  0  0  0  0  0  0  0  0  0  0
  -21.1635  -20.1859   16.2989 F   0  0  0  0  0  0  0  0  0  0  0  0
  -28.8628  -27.2248   22.9420 S   0  0  0  0  0  0  0  0  0  0  0  0
  1  2  1  0  0  0  0
  1  5  2  0  0  0  0
  2  6  2  0  0  0  0
  3  8  2  0  0  0  0
  3 15  1  0  0  0  0
  4  9  1  0  0  0  0
  4 15  2  0  0  0  0
  5 17  1  0  0  0  0
  6 19  1  0  0  0  0
  7 10  2  0  0  0  0
  7 18  1  0  0  0  0
  8 21  1  0  0  0  0
  9 21  2  0  0  0  0
 10 22  1  0  0  0  0
 11 12  2  0  0  0  0
 11 23  1  0  0  0  0
 12 24  1  0  0  0  0
 13 20  1  0  0  0  0
 13 22  2  0  0  0  0
 14 24  2  0  0  0  0
 14 25  1  0  0  0  0
 15 26  1  0  0  0  0
 16 26  1  0  0  0  0
 16 28  2  0  0  0  0
 16 32  1  0  0  0  0
 17 19  2  0  0  0  0
 17 39  1  0  0  0  0
 18 20  2  0  0  0  0
 18 40  1  0  0  0  0
 19 48  1  0  0  0  0
 20 41  1  0  0  0  0
 21 81  1  0  0  0  0
 22 82  1  0  0  0  0
 23 25  2  0  0  0  0
 23 81  1  0  0  0  0
 24 84  1  0  0  0  0
 25 85  1  0  0  0  0
 26 63  2  0  0  0  0
 27 29  2  0  0  0  0
 27 64  1  0  0  0  0
 27 68  1  0  0  0  0
 28 65  1  0  0  0  0
 28 69  1  0  0  0  0
 29 73  1  0  0  0  0
 29 86  1  0  0  0  0
 30 64  2  0  0  0  0
 30 83  1  0  0  0  0
 30 86  1  0  0  0  0
 31 33  2  0  0  0  0
 31 73  1  0  0  0  0
 32 70  1  0  0  0  0
 32 75  2  0  0  0  0
 33 51  1  0  0  0  0
 33 52  1  0  0  0  0
 34 49  1  0  0  0  0
 34 71  1  0  0  0  0
 34 76  2  0  0  0  0
 35 58  1  0  0  0  0
 35 59  1  0  0  0  0
 35 77  2  0  0  0  0
 36 60  1  0  0  0  0
 36 66  1  0  0  0  0
 36 78  2  0  0  0  0
 37 61  1  0  0  0  0
 37 72  1  0  0  0  0
 37 79  2  0  0  0  0
 38 67  1  0  0  0  0
 38 73  1  0  0  0  0
 38 80  2  0  0  0  0
 39 42  1  0  0  0  0
 40 49  1  0  0  0  0
 41 66  1  0  0  0  0
 42 44  1  0  0  0  0
 43 45  1  0  0  0  0
 43 46  1  0  0  0  0
 44 48  1  0  0  0  0
 45 50  1  0  0  0  0
 46 67  1  0  0  0  0
 47 50  1  0  0  0  0
 47 67  1  0  0  0  0
 48 71  1  0  0  0  0
 49 66  1  0  0  0  0
 50 65  1  0  0  0  0
 53 61  1  0  0  0  0
 54 62  1  0  0  0  0
 55 62  1  0  0  0  0
 56 62  1  0  0  0  0
 57 74  1  0  0  0  0
 58 82  1  0  0  0  0
 59 83  1  0  0  0  0
 60 62  1  0  0  0  0
 60 72  1  0  0  0  0
 61 74  1  0  0  0  0
 63 65  1  0  0  0  0
M  CHG  1  74   1
M  ISO  4  38 100  58 101  73 100  82 101
M  END
> <Batch ID>
0110

> <Smiles>
CNC(C)C(=O)NC(C(=O)N1Cc2cc([101O:1][101CH2:1]C(=O)COc3nc(N)c([100N:0](C=C(C)C)[100C:0](=O)N4CCCC(n5nc(-c6ccc(Oc7ccc(F)cc7F)cc6)c(C(N)=O)c5N)C4)s3)ccc2CC1C(=O)NC1CCCc2ccccc21)C(C)(C)C

> <Shape>
0.247

> <Color>
0.085

> <Negative vol penalty>
0.000

$$$$

  -OEChem-04052301263D

 87 96  0     1  0  0  0  0  0999 V2000
  -16.9359  -28.6785   24.3363 C   0  0  0  0  0  0  0  0  0  0  0  0
  -17.5924  -27.7338   23.5539 C   0  0  0  0  0  0  0  0  0  0  0  0
  -29.0615  -21.6112   18.1059 C   0  0  0  0  0  0  0  0  0  0  0  0
  -31.3784  -21.0136   18.4407 C   0  0  0  0  0  0  0  0  0  0  0  0
  -17.3199  -30.0176   24.2792 C   0  0  0  0  0  0  0  0  0  0  0  0
  -18.6326  -28.1280   22.7130 C   0  0  0  0  0  0  0  0  0  0  0  0
  -22.6217  -25.0190   22.9686 C   0  0  0  0  0  0  0  0  0  0  0  0
  -25.2611  -11.4189   20.5559 C   0  0  0  0  0  0  0  0  0  0  0  0
  -26.3872  -12.2207   20.7416 C   0  0  0  0  0  0  0  0  0  0  0  0
  -29.3928  -22.2164   16.8937 C   0  0  0  0  0  0  0  0  0  0  0  0
  -31.7096  -21.6187   17.2284 C   0  0  0  0  0  0  0  0  0  0  0  0
  -22.5322  -23.8104   22.2794 C   0  0  0  0  0  0  0  0  0  0  0  0
  -30.7596  -25.1281   15.8554 C   0  0  0  0  0  0  0  0  0  0  0  0
  -30.2117  -26.3824   15.5870 C   0  0  0  0  0  0  0  0  0  0  0  0
  -23.8433  -24.7448   20.4829 C   0  0  0  0  0  0  0  0  0  0  0  0
  -23.8599  -13.3871   20.5543 C   0  0  0  0  0  0  0  0  0  0  0  0
  -29.1369  -25.4911   13.6153 C   0  0  0  0  0  0  0  0  0  0  0  0
  -30.0543  -21.0098   18.8795 C   0  0  0  0  0  0  0  0  0  0  0  0
  -29.1241  -20.9972   21.2548 C   0  0  0  0  0  0  0  0  0  0  0  0
  -18.3717  -30.4268   23.4445 C   0  0  0  0  0  0  0  0  0  0  0  0
  -23.3146  -26.1049   22.4143 C   0  0  0  0  0  0  0  0  0  0  0  0
  -19.0301  -29.4741   22.6437 C   0  0  0  0  0  0  0  0  0  0  0  0
  -23.9423  -25.9652   21.1683 C   0  0  0  0  0  0  0  0  0  0  0  0
  -24.9861  -14.1889   20.7401 C   0  0  0  0  0  0  0  0  0  0  0  0
  -23.9974  -12.0021   20.4621 C   0  0  0  0  0  0  0  0  0  0  0  0
  -26.2497  -13.6057   20.8338 C   0  0  0  0  0  0  0  0  0  0  0  0
  -30.7168  -22.2202   16.4549 C   0  0  0  0  0  0  0  0  0  0  0  0
  -23.1406  -23.6740   21.0351 C   0  0  0  0  0  0  0  0  0  0  0  0
  -30.4963  -24.0553   15.0037 C   0  0  0  0  0  0  0  0  0  0  0  0
  -29.4003  -26.5639   14.4670 C   0  0  0  0  0  0  0  0  0  0  0  0
  -29.6849  -24.2367   13.8837 C   0  0  0  0  0  0  0  0  0  0  0  0
  -29.7129  -20.3850   20.1321 C   0  0  0  0  0  0  0  0  0  0  0  0
  -29.0063  -19.9848   22.1756 C   0  0  0  0  0  0  0  0  0  0  0  0
  -25.4508  -20.0708   19.8486 C   0  0  0  0  0  0  0  0  0  0  0  0
  -24.3151  -20.6705   19.4538 C   0  0  0  0  0  0  0  0  0  0  0  0
  -28.7197  -22.3591   21.4481 C   0  0  0  0  0  0  0  0  0  0  0  0
  -22.5197  -29.0458   21.5072 C   0  0  0  0  0  0  0  0  0  0  0  0
  -25.7174  -29.3512   21.0557 C   0  0  0  0  0  0  0  0  0  0  0  0
  -28.7183  -27.8356   20.4686 C   0  0  0  0  0  0  0  0  0  0  0  0
  -28.5814  -14.0452   21.6802 C   0  0  0  0  0  0  0  0  0  0  0  0
  -18.7198  -31.8930   23.3811 C   0  0  0  0  0  0  0  0  0  0  0  0
  -23.4246  -27.3934   23.1825 C   0  0  0  0  0  0  0  0  0  0  0  0
  -24.7152  -27.0943   20.5387 C   0  0  0  0  0  0  0  0  0  0  0  0
  -25.6196  -18.5845   19.8493 C   0  0  0  0  0  0  0  0  0  0  0  0
  -23.1394  -19.8727   18.9451 C   0  0  0  0  0  0  0  0  0  0  0  0
  -20.0793  -32.1692   22.7443 C   0  0  0  0  0  0  0  0  0  0  0  0
  -31.0544  -15.8597   23.4882 C   0  0  0  0  0  0  0  0  0  0  0  0
  -20.2395  -31.3653   21.4579 C   0  0  0  0  0  0  0  0  0  0  0  0
  -30.9333  -17.2831   22.9393 C   0  0  0  0  0  0  0  0  0  0  0  0
  -30.8333  -14.8112   22.3994 C   0  0  0  0  0  0  0  0  0  0  0  0
  -29.4671  -16.3859   21.0866 C   0  0  0  0  0  0  0  0  0  0  0  0
  -23.4746  -18.4243   18.5886 C   0  0  0  0  0  0  0  0  0  0  0  0
  -20.1795  -29.8588   21.7377 C   0  0  1  0  0  0  0  0  0  0  0  0
  -23.7196  -28.5965   22.2921 C   0  0  1  0  0  0  0  0  0  0  0  0
  -29.6178  -17.4765   22.1597 C   0  0  2  0  0  0  0  0  0  0  0  0
  -31.2019  -27.6217   20.1801 C   0  0  0  0  0  0  0  0  0  0  0  0
  -25.1015  -30.2747   18.2136 C   0  0  0  0  0  0  0  0  0  0  0  0
  -27.5008  -29.8574   17.6325 C   0  0  0  0  0  0  0  0  0  0  0  0
  -26.9153  -31.5608   19.3583 C   0  0  0  0  0  0  0  0  0  0  0  0
  -29.1350  -27.4084   23.3674 C   0  0  0  0  0  0  0  0  0  0  0  0
  -24.8085  -15.6768   20.8342 C   0  0  0  0  0  0  0  0  0  0  0  0
  -24.1416  -22.1590   19.4993 C   0  0  0  0  0  0  0  0  0  1  0  0
  -24.5447  -16.3524   19.4924 C   0  0  0  0  0  0  0  0  0  0  0  0
  -26.6629  -29.1052   19.9048 C   0  0  1  0  0  0  0  0  0  0  0  0
  -30.0751  -27.9979   21.1297 C   0  0  2  0  0  0  0  0  0  0  0  0
  -26.5290  -30.1787   18.7880 C   0  0  0  0  0  0  0  0  0  0  0  0
  -29.9526  -19.0846   20.3204 N   0  0  0  0  0  0  0  0  0  0  0  0
  -29.5123  -18.8713   21.5721 N   0  0  0  0  0  0  0  0  0  0  0  0
  -24.7888  -28.3361   21.3261 N   0  0  0  0  0  0  0  0  0  0  0  0
  -29.5662  -15.0552   21.7066 N   0  0  0  0  0  0  0  0  0  0  0  0
  -22.8589  -11.1911   20.2737 N   0  0  0  0  0  0  0  0  0  0  0  0
  -28.5204  -19.9474   23.4345 N   0  0  0  0  0  0  0  0  0  0  0  0
  -29.6501  -23.2635   21.9778 N   0  0  0  0  0  0  0  0  0  0  0  0
  -27.4060  -14.4031   21.0208 N   0  0  0  0  0  0  0  0  0  0  0  0
  -21.4354  -29.3967   22.2886 N   0  0  0  0  0  0  0  0  0  0  0  0
  -27.9977  -29.0110   20.4861 N   0  0  0  0  0  0  0  0  0  0  0  0
  -24.3192  -17.8247   19.6835 N   0  3  1  0  0  0  0  0  0  0  0  0
  -30.1697  -27.1309   22.3381 N   0  3  0  0  0  0  0  0  0  0  0  0
  -27.5623  -22.7583   21.1749 O   0  0  0  0  0  0  0  0  0  0  0  0
  -22.5742  -29.0736   20.2833 O   0  0  0  0  0  0  0  0  0  0  0  0
  -25.8045  -30.4020   21.6959 O   0  0  0  0  0  0  0  0  0  0  0  0
  -28.3373  -26.7733   19.9819 O   0  0  0  0  0  0  0  0  0  0  0  0
  -28.7566  -12.9535   22.2275 O   0  0  0  0  0  0  0  0  0  0  0  0
  -31.0404  -22.8104   15.2719 O   0  0  0  0  0  0  0  0  0  0  0  0
  -23.0542  -22.4957   20.3599 O   0  0  0  0  0  0  0  0  0  1  0  0
  -28.8729  -27.7681   14.2103 F   0  0  0  0  0  0  0  0  0  0  0  0
  -29.4273  -23.2095   13.0625 F   0  0  0  0  0  0  0  0  0  0  0  0
  1  2  1  0  0  0  0
  1  5  2  0  0  0  0
  2  6  2  0  0  0  0
  3 10  2  0  0  0  0
  3 18  1  0  0  0  0
  4 11  1  0  0  0  0
  4 18  2  0  0  0  0
  5 20  1  0  0  0  0
  6 22  1  0  0  0  0
  7 12  2  0  0  0  0
  7 21  1  0  0  0  0
  8  9  2  0  0  0  0
  8 25  1  0  0  0  0
  9 26  1  0  0  0  0
 10 27  1  0  0  0  0
 11 27  2  0  0  0  0
 12 28  1  0  0  0  0
 13 14  2  0  0  0  0
 13 29  1  0  0  0  0
 14 30  1  0  0  0  0
 15 23  1  0  0  0  0
 15 28  2  0  0  0  0
 16 24  1  0  0  0  0
 16 25  2  0  0  0  0
 17 30  2  0  0  0  0
 17 31  1  0  0  0  0
 18 32  1  0  0  0  0
 19 32  1  0  0  0  0
 19 33  2  0  0  0  0
 19 36  1  0  0  0  0
 20 22  2  0  0  0  0
 20 41  1  0  0  0  0
 21 23  2  0  0  0  0
 21 42  1  0  0  0  0
 22 53  1  0  0  0  0
 23 43  1  0  0  0  0
 24 26  2  0  0  0  0
 24 61  1  0  0  0  0
 25 71  1  0  0  0  0
 26 74  1  0  0  0  0
 27 84  1  0  0  0  0
 28 85  1  0  0  0  0
 29 31  2  0  0  0  0
 29 84  1  0  0  0  0
 30 86  1  0  0  0  0
 31 87  1  0  0  0  0
 32 67  2  0  0  0  0
 33 68  1  0  0  0  0
 33 72  1  0  0  0  0
 34 35  2  0  0  0  0
 34 44  1  0  0  0  0
 35 45  1  0  0  0  0
 35 62  1  0  0  0  0
 36 73  1  0  0  0  0
 36 79  2  0  0  0  0
 37 54  1  0  0  0  0
 37 75  1  0  0  0  0
 37 80  2  0  0  0  0
 38 64  1  0  0  0  0
 38 69  1  0  0  0  0
 38 81  2  0  0  0  0
 39 65  1  0  0  0  0
 39 76  1  0  0  0  0
 39 82  2  0  0  0  0
 40 70  1  0  0  0  0
 40 74  1  0  0  0  0
 40 83  2  0  0  0  0
 41 46  1  0  0  0  0
 42 54  1  0  0  0  0
 43 69  1  0  0  0  0
 44 77  1  0  0  0  0
 45 52  1  0  0  0  0
 46 48  1  0  0  0  0
 47 49  1  0  0  0  0
 47 50  1  0  0  0  0
 48 53  1  0  0  0  0
 49 55  1  0  0  0  0
 50 70  1  0  0  0  0
 51 55  1  0  0  0  0
 51 70  1  0  0  0  0
 52 77  1  0  0  0  0
 53 75  1  0  0  0  0
 54 69  1  0  0  0  0
 55 68  1  0  0  0  0
 56 65  1  0  0  0  0
 57 66  1  0  0  0  0
 58 66  1  0  0  0  0
 59 66  1  0  0  0  0
 60 78  1  0  0  0  0
 61 63  1  0  0  0  0
 62 85  1  0  0  0  0
 63 77  1  0  0  0  0
 64 66  1  0  0  0  0
 64 76  1  0  0  0  0
 65 78  1  0  0  0  0
 67 68  1  0  0  0  0
M  CHG  2  77   1  78   1
M  ISO  4  40 100  62 101  74 100  85 101
M  END
> <Batch ID>
0110

> <Smiles>
CNC(C)C(=O)NC(C(=O)N1Cc2cc([101O:1][101CH2:1]C3=CCN(CCc4cc(N)ccc4[100NH:0][100C:0](=O)N4CCCC(n5nc(-c6ccc(Oc7ccc(F)cc7F)cc6)c(C(N)=O)c5N)C4)CC3)ccc2CC1C(=O)NC1CCCc2ccccc21)C(C)(C)C

> <Shape>
0.244

> <Color>
0.074

> <Negative vol penalty>
0.000

$$$$

  -OEChem-04052301263D

 91100  0     1  0  0  0  0  0999 V2000
  -23.5006  -34.2109   25.2409 C   0  0  0  0  0  0  0  0  0  0  0  0
  -22.9479  -33.1233   24.5723 C   0  0  0  0  0  0  0  0  0  0  0  0
  -23.1045   -9.8579   21.4251 C   0  0  0  0  0  0  0  0  0  0  0  0
  -23.8567  -10.7147   23.5552 C   0  0  0  0  0  0  0  0  0  0  0  0
  -24.8412  -34.5400   25.0452 C   0  0  0  0  0  0  0  0  0  0  0  0
  -23.7353  -32.3647   23.7068 C   0  0  0  0  0  0  0  0  0  0  0  0
  -23.3689  -26.3299   22.7312 C   0  0  0  0  0  0  0  0  0  0  0  0
  -22.3839   -8.8599   22.0810 C   0  0  0  0  0  0  0  0  0  0  0  0
  -23.1359   -9.7168   24.2111 C   0  0  0  0  0  0  0  0  0  0  0  0
  -22.7587  -25.5771   21.7288 C   0  0  0  0  0  0  0  0  0  0  0  0
  -23.0236   -5.8874   23.5573 C   0  0  0  0  0  0  0  0  0  0  0  0
  -23.1148   -4.5884   23.0576 C   0  0  0  0  0  0  0  0  0  0  0  0
  -30.6877  -19.1693   19.0747 C   0  0  0  0  0  0  0  0  0  0  0  0
  -24.8592  -25.4565   20.5489 C   0  0  0  0  0  0  0  0  0  0  0  0
  -25.4913  -20.1413   20.2612 C   0  0  0  0  0  0  0  0  0  0  0  0
  -26.0500  -21.1766   22.3715 C   0  0  0  0  0  0  0  0  0  0  0  0
  -20.7285   -4.5661   22.6804 C   0  0  0  0  0  0  0  0  0  0  0  0
  -29.7430  -19.4987   20.0214 C   0  0  0  0  0  0  0  0  0  0  0  0
  -23.8410  -10.7853   22.1622 C   0  0  0  0  0  0  0  0  0  0  0  0
  -24.1310  -13.0999   21.1297 C   0  0  0  0  0  0  0  0  0  0  0  0
  -25.6480  -33.7794   24.1844 C   0  0  0  0  0  0  0  0  0  0  0  0
  -24.7287  -26.6614   22.6443 C   0  0  0  0  0  0  0  0  0  0  0  0
  -25.0876  -32.6848   23.4985 C   0  0  0  0  0  0  0  0  0  0  0  0
  -25.4850  -26.2114   21.5527 C   0  0  0  0  0  0  0  0  0  0  0  0
  -26.5231  -19.2199   20.4401 C   0  0  0  0  0  0  0  0  0  0  0  0
  -27.3183  -19.2767   21.5847 C   0  0  0  0  0  0  0  0  0  0  0  0
  -30.9288  -17.7775   19.1840 C   0  0  0  0  0  0  0  0  0  0  0  0
  -25.2548  -21.1197   21.2269 C   0  0  0  0  0  0  0  0  0  0  0  0
  -22.3995   -8.7894   23.4740 C   0  0  0  0  0  0  0  0  0  0  0  0
  -23.5031  -25.1428   20.6360 C   0  0  0  0  0  0  0  0  0  0  0  0
  -21.7849   -6.5258   23.6187 C   0  0  0  0  0  0  0  0  0  0  0  0
  -27.0817  -20.2551   22.5504 C   0  0  0  0  0  0  0  0  0  0  0  0
  -21.9673   -3.9277   22.6191 C   0  0  0  0  0  0  0  0  0  0  0  0
  -20.6374   -5.8651   23.1802 C   0  0  0  0  0  0  0  0  0  0  0  0
  -24.5862  -11.8161   21.4852 C   0  0  0  0  0  0  0  0  0  0  0  0
  -25.2086  -13.6879   20.5137 C   0  0  0  0  0  0  0  0  0  0  0  0
  -30.1240  -17.2988   20.1942 C   0  0  0  0  0  0  0  0  0  0  0  0
  -22.8488  -13.7068   21.3379 C   0  0  0  0  0  0  0  0  0  0  0  0
  -26.3675  -29.3786   22.4573 C   0  0  0  0  0  0  0  0  0  0  0  0
  -28.9243  -27.4011   22.7291 C   0  0  0  0  0  0  0  0  0  0  0  0
  -30.2205  -24.2695   22.3285 C   0  0  0  0  0  0  0  0  0  0  0  0
  -30.6515  -14.8366   20.2713 C   0  0  0  0  0  0  0  0  0  0  0  0
  -27.0795  -34.2022   23.9685 C   0  0  0  0  0  0  0  0  0  0  0  0
  -25.3783  -27.4515   23.7471 C   0  0  0  0  0  0  0  0  0  0  0  0
  -26.9527  -26.5233   21.4223 C   0  0  0  0  0  0  0  0  0  0  0  0
  -27.9429  -33.1218   23.3225 C   0  0  0  0  0  0  0  0  0  0  0  0
  -29.5948  -11.7042   18.9490 C   0  0  0  0  0  0  0  0  0  0  0  0
  -27.2193  -32.5012   22.1317 C   0  0  0  0  0  0  0  0  0  0  0  0
  -28.1601  -11.5597   19.4617 C   0  0  0  0  0  0  0  0  0  0  0  0
  -30.5011  -12.3733   19.9808 C   0  0  0  0  0  0  0  0  0  0  0  0
  -28.5752  -13.5117   21.0123 C   0  0  0  0  0  0  0  0  0  0  0  0
  -25.9159  -31.8228   22.5706 C   0  0  1  0  0  0  0  0  0  0  0  0
  -26.6493  -28.1674   23.3005 C   0  0  1  0  0  0  0  0  0  0  0  0
  -27.6099  -12.9019   19.9827 C   0  0  2  0  0  0  0  0  0  0  0  0
  -26.7561  -18.1820   19.3915 C   0  0  0  0  0  0  0  0  0  0  0  0
  -31.8962  -22.4071   22.4725 C   0  0  0  0  0  0  0  0  0  0  0  0
  -21.1242  -22.9208   19.1394 C   0  0  0  0  0  0  0  0  0  0  0  0
  -30.0309  -28.6877   20.1933 C   0  0  0  0  0  0  0  0  0  0  0  0
  -31.6143  -26.7592   19.9892 C   0  0  0  0  0  0  0  0  0  0  0  0
  -31.7329  -28.2631   21.9758 C   0  0  0  0  0  0  0  0  0  0  0  0
  -29.2762  -23.4721   25.0177 C   0  0  0  0  0  0  0  0  0  0  0  0
  -27.4095  -19.5767   24.8061 C   0  0  0  0  0  0  0  0  0  0  0  0
  -28.4258  -18.2914   21.7817 C   0  0  0  0  0  0  0  0  0  0  0  0
  -23.3597  -22.0485   19.8958 C   0  0  0  0  0  0  0  0  0  0  0  0
  -29.8007  -26.6471   21.7582 C   0  0  1  0  0  0  0  0  0  0  0  0
  -31.0447  -23.3944   23.2555 C   0  0  2  0  0  0  0  0  0  0  0  0
  -22.3267  -23.1638   20.0397 C   0  0  1  0  0  0  0  0  0  1  0  0
  -30.7666  -27.5849   20.9803 C   0  0  0  0  0  0  0  0  0  0  0  0
  -25.8541  -11.6004   21.1248 N   0  0  0  0  0  0  0  0  0  0  0  0
  -29.4075  -18.3538   20.6958 N   0  0  0  0  0  0  0  0  0  0  0  0
  -26.2048  -12.7566   20.5364 N   0  0  0  0  0  0  0  0  0  0  0  0
  -27.5408  -27.3041   22.5233 N   0  0  0  0  0  0  0  0  0  0  0  0
  -29.9182  -13.6411   20.4254 N   0  0  0  0  0  0  0  0  0  0  0  0
  -31.7890  -17.0586   18.4313 N   0  0  0  0  0  0  0  0  0  0  0  0
  -25.3917  -14.9054   19.9601 N   0  0  0  0  0  0  0  0  0  0  0  0
  -21.8548  -12.9623   21.9875 N   0  0  0  0  0  0  0  0  0  0  0  0
  -24.2305  -22.0346   21.0493 N   0  0  0  0  0  0  0  0  0  0  0  0
  -29.9825  -15.9827   20.6998 N   0  0  0  0  0  0  0  0  0  0  0  0
  -26.1945  -30.5416   23.1832 N   0  0  0  0  0  0  0  0  0  0  0  0
  -30.4712  -25.6097   22.5344 N   0  0  0  0  0  0  0  0  0  0  0  0
  -30.1538  -22.6250   24.1695 N   0  3  0  0  0  0  0  0  0  0  0  0
  -22.5870  -14.8687   20.9444 O   0  0  0  0  0  0  0  0  0  0  0  0
  -26.3125  -29.2667   21.2382 O   0  0  0  0  0  0  0  0  0  0  0  0
  -29.4478  -28.0463   23.6408 O   0  0  0  0  0  0  0  0  0  0  0  0
  -29.4356  -23.8101   21.5018 O   0  0  0  0  0  0  0  0  0  0  0  0
  -31.7784  -14.8466   19.7693 O   0  0  0  0  0  0  0  0  0  0  0  0
  -21.6962   -7.8158   24.1144 O   0  0  0  0  0  0  0  0  0  0  0  0
  -27.8482  -20.3261   23.6749 O   0  0  0  0  0  0  0  0  0  0  0  0
  -22.9098  -24.4084   19.6559 O   0  0  0  0  0  0  0  0  0  1  0  0
  -22.0552   -2.6808   22.1378 F   0  0  0  0  0  0  0  0  0  0  0  0
  -19.4447   -6.4737   23.2356 F   0  0  0  0  0  0  0  0  0  0  0  0
  1  2  1  0  0  0  0
  1  5  2  0  0  0  0
  2  6  2  0  0  0  0
  3  8  2  0  0  0  0
  3 19  1  0  0  0  0
  4  9  1  0  0  0  0
  4 19  2  0  0  0  0
  5 21  1  0  0  0  0
  6 23  1  0  0  0  0
  7 10  2  0  0  0  0
  7 22  1  0  0  0  0
  8 29  1  0  0  0  0
  9 29  2  0  0  0  0
 10 30  1  0  0  0  0
 11 12  2  0  0  0  0
 11 31  1  0  0  0  0
 12 33  1  0  0  0  0
 13 18  2  0  0  0  0
 13 27  1  0  0  0  0
 14 24  1  0  0  0  0
 14 30  2  0  0  0  0
 15 25  2  0  0  0  0
 15 28  1  0  0  0  0
 16 28  2  0  0  0  0
 16 32  1  0  0  0  0
 17 33  2  0  0  0  0
 17 34  1  0  0  0  0
 18 70  1  0  0  0  0
 19 35  1  0  0  0  0
 20 35  1  0  0  0  0
 20 36  2  0  0  0  0
 20 38  1  0  0  0  0
 21 23  2  0  0  0  0
 21 43  1  0  0  0  0
 22 24  2  0  0  0  0
 22 44  1  0  0  0  0
 23 52  1  0  0  0  0
 24 45  1  0  0  0  0
 25 26  1  0  0  0  0
 25 55  1  0  0  0  0
 26 32  2  0  0  0  0
 26 63  1  0  0  0  0
 27 37  2  0  0  0  0
 27 74  1  0  0  0  0
 28 77  1  0  0  0  0
 29 87  1  0  0  0  0
 30 89  1  0  0  0  0
 31 34  2  0  0  0  0
 31 87  1  0  0  0  0
 32 88  1  0  0  0  0
 33 90  1  0  0  0  0
 34 91  1  0  0  0  0
 35 69  2  0  0  0  0
 36 71  1  0  0  0  0
 36 75  1  0  0  0  0
 37 70  1  0  0  0  0
 37 78  1  0  0  0  0
 38 76  1  0  0  0  0
 38 82  2  0  0  0  0
 39 53  1  0  0  0  0
 39 79  1  0  0  0  0
 39 83  2  0  0  0  0
 40 65  1  0  0  0  0
 40 72  1  0  0  0  0
 40 84  2  0  0  0  0
 41 66  1  0  0  0  0
 41 80  1  0  0  0  0
 41 85  2  0  0  0  0
 42 73  1  0  0  0  0
 42 78  1  0  0  0  0
 42 86  2  0  0  0  0
 43 46  1  0  0  0  0
 44 53  1  0  0  0  0
 45 72  1  0  0  0  0
 46 48  1  0  0  0  0
 47 49  1  0  0  0  0
 47 50  1  0  0  0  0
 48 52  1  0  0  0  0
 49 54  1  0  0  0  0
 50 73  1  0  0  0  0
 51 54  1  0  0  0  0
 51 73  1  0  0  0  0
 52 79  1  0  0  0  0
 53 72  1  0  0  0  0
 54 71  1  0  0  0  0
 56 66  1  0  0  0  0
 57 67  1  0  0  0  0
 58 68  1  0  0  0  0
 59 68  1  0  0  0  0
 60 68  1  0  0  0  0
 61 81  1  0  0  0  0
 62 88  1  0  0  0  0
 63 70  1  0  0  0  0
 64 67  1  0  0  0  0
 64 77  1  0  0  0  0
 65 68  1  0  0  0  0
 65 80  1  0  0  0  0
 66 81  1  0  0  0  0
 67 89  1  0  0  0  0
 69 71  1  0  0  0  0
M  CHG  1  81   1
M  ISO  4  42 100  67 101  78 100  89 101
M  END
> <Batch ID>
0110

> <Smiles>
CNC(C)C(=O)NC(C(=O)N1Cc2cc([101O:1][101CH:1](C)CNc3cc(C)c(Cn4ccc(N)c4[100NH:0][100C:0](=O)N4CCCC(n5nc(-c6ccc(Oc7ccc(F)cc7F)cc6)c(C(N)=O)c5N)C4)c(OC)c3)ccc2CC1C(=O)NC1CCCc2ccccc21)C(C)(C)C

> <Shape>
0.270

> <Color>
0.144

> <Negative vol penalty>
0.000

$$$$

  -OEChem-04052301263D

 81 89  0     1  0  0  0  0  0999 V2000
  -25.8660  -32.9339   28.1923 C   0  0  0  0  0  0  0  0  0  0  0  0
  -26.1332  -31.5822   28.0001 C   0  0  0  0  0  0  0  0  0  0  0  0
  -23.0765   -9.8582   19.9539 C   0  0  0  0  0  0  0  0  0  0  0  0
  -23.8311   -9.8864   22.2489 C   0  0  0  0  0  0  0  0  0  0  0  0
  -25.5095  -33.7340   27.1076 C   0  0  0  0  0  0  0  0  0  0  0  0
  -26.0428  -31.0295   26.7230 C   0  0  0  0  0  0  0  0  0  0  0  0
  -29.5203  -26.5601   24.3913 C   0  0  0  0  0  0  0  0  0  0  0  0
  -22.3321   -8.7074   20.2128 C   0  0  0  0  0  0  0  0  0  0  0  0
  -23.0866   -8.7356   22.5078 C   0  0  0  0  0  0  0  0  0  0  0  0
  -29.3142  -25.1886   24.2493 C   0  0  0  0  0  0  0  0  0  0  0  0
  -19.8570   -7.9433   23.1101 C   0  0  0  0  0  0  0  0  0  0  0  0
  -19.0973   -7.9142   24.2795 C   0  0  0  0  0  0  0  0  0  0  0  0
  -28.5673  -25.5416   21.9828 C   0  0  0  0  0  0  0  0  0  0  0  0
  -20.3370   -5.9836   25.0367 C   0  0  0  0  0  0  0  0  0  0  0  0
  -31.8354  -17.5276   21.6326 C   0  0  0  0  0  0  0  0  0  0  0  0
  -23.8261  -10.4477   20.9720 C   0  0  0  0  0  0  0  0  0  0  0  0
  -24.1682  -12.9716   20.8295 C   0  0  0  0  0  0  0  0  0  0  0  0
  -25.4241  -33.1930   25.8151 C   0  0  0  0  0  0  0  0  0  0  0  0
  -29.2407  -27.4354   23.3320 C   0  0  0  0  0  0  0  0  0  0  0  0
  -25.6835  -31.8229   25.6202 C   0  0  0  0  0  0  0  0  0  0  0  0
  -28.7731  -26.9236   22.1131 C   0  0  0  0  0  0  0  0  0  0  0  0
  -30.5811  -16.9446   21.8946 C   0  0  0  0  0  0  0  0  0  0  0  0
  -22.3370   -8.1461   21.4897 C   0  0  0  0  0  0  0  0  0  0  0  0
  -28.8349  -24.6794   23.0459 C   0  0  0  0  0  0  0  0  0  0  0  0
  -20.8566   -6.9925   22.9039 C   0  0  0  0  0  0  0  0  0  0  0  0
  -19.3373   -6.9343   25.2429 C   0  0  0  0  0  0  0  0  0  0  0  0
  -21.0966   -6.0127   23.8672 C   0  0  0  0  0  0  0  0  0  0  0  0
  -24.5958  -11.6361   20.7051 C   0  0  0  0  0  0  0  0  0  0  0  0
  -25.2612  -13.7177   20.4619 C   0  0  0  0  0  0  0  0  0  0  0  0
  -29.9360  -17.8605   22.6893 C   0  0  0  0  0  0  0  0  0  0  0  0
  -22.8968  -13.4913   21.2407 C   0  0  0  0  0  0  0  0  0  0  0  0
  -27.2375  -29.8651   22.8990 C   0  0  0  0  0  0  0  0  0  0  0  0
  -29.6908  -21.1615   22.9326 C   0  0  0  0  0  0  0  0  0  0  0  0
  -28.8284  -30.1679   20.0883 C   0  0  0  0  0  0  0  0  0  0  0  0
  -30.7231  -28.7000   17.6589 C   0  0  0  0  0  0  0  0  0  0  0  0
  -30.7269  -14.7651   20.6396 C   0  0  0  0  0  0  0  0  0  0  0  0
  -24.9889  -34.0871   24.6811 C   0  0  0  0  0  0  0  0  0  0  0  0
  -29.4937  -28.9094   23.4923 C   0  0  0  0  0  0  0  0  0  0  0  0
  -28.4768  -27.8187   20.9386 C   0  0  0  0  0  0  0  0  0  0  0  0
  -25.2805  -33.5053   23.3003 C   0  0  0  0  0  0  0  0  0  0  0  0
  -29.6182  -12.3293   18.2913 C   0  0  0  0  0  0  0  0  0  0  0  0
  -24.8459  -32.0446   23.2338 C   0  0  0  0  0  0  0  0  0  0  0  0
  -28.1775  -12.0417   18.7202 C   0  0  0  0  0  0  0  0  0  0  0  0
  -30.5304  -12.5693   19.4929 C   0  0  0  0  0  0  0  0  0  0  0  0
  -28.6202  -13.3065   20.8629 C   0  0  0  0  0  0  0  0  0  0  0  0
  -25.6203  -31.1920   24.2461 C   0  0  1  0  0  0  0  0  0  0  0  0
  -28.6875  -29.7634   22.5186 C   0  0  1  0  0  0  0  0  0  0  0  0
  -27.6502  -13.1223   19.6844 C   0  0  2  0  0  0  0  0  0  0  0  0
  -31.8403  -29.1912   15.4662 C   0  0  0  0  0  0  0  0  0  0  0  0
  -26.1195  -30.0654   18.6878 C   0  0  0  0  0  0  0  0  0  0  0  0
  -27.3244  -29.6033   16.5424 C   0  0  0  0  0  0  0  0  0  0  0  0
  -27.7143  -31.7495   17.7526 C   0  0  0  0  0  0  0  0  0  0  0  0
  -33.4010  -28.0701   18.7500 C   0  0  0  0  0  0  0  0  0  0  0  0
  -30.5895  -20.1609   23.6361 C   0  0  0  0  0  0  0  0  0  0  0  0
  -29.4747  -22.4733   23.6620 C   0  0  0  0  0  0  0  0  0  1  0  0
  -28.6597  -29.6038   18.6982 C   0  0  1  0  0  0  0  0  0  0  0  0
  -32.0055  -29.1417   16.9772 C   0  0  2  0  0  0  0  0  0  0  0  0
  -27.4581  -30.2386   17.9428 C   0  0  0  0  0  0  0  0  0  0  0  0
  -31.9805  -18.7215   22.2136 N   0  0  0  0  0  0  0  0  0  0  0  0
  -25.8616  -11.5365   20.2906 N   0  0  0  0  0  0  0  0  0  0  0  0
  -26.2388  -12.8188   20.1514 N   0  0  0  0  0  0  0  0  0  0  0  0
  -30.8090  -18.8962   22.8485 N   0  0  0  0  0  0  0  0  0  0  0  0
  -28.7343  -29.2532   21.1468 N   0  0  0  0  0  0  0  0  0  0  0  0
  -29.9694  -13.6083   20.3593 N   0  0  0  0  0  0  0  0  0  0  0  0
  -25.4718  -15.0485   20.3771 N   0  0  0  0  0  0  0  0  0  0  0  0
  -28.7123  -17.8719   23.2596 N   0  0  0  0  0  0  0  0  0  0  0  0
  -21.8841  -12.5852   21.5839 N   0  0  0  0  0  0  0  0  0  0  0  0
  -30.0776  -15.6977   21.4478 N   0  0  0  0  0  0  0  0  0  0  0  0
  -26.9526  -30.9110   23.7559 N   0  0  0  0  0  0  0  0  0  0  0  0
  -29.9446  -29.7762   18.0291 N   0  0  0  0  0  0  0  0  0  0  0  0
  -33.1140  -28.1987   17.2981 N   0  3  0  0  0  0  0  0  0  0  0  0
  -22.6604  -14.7223   21.2861 O   0  0  0  0  0  0  0  0  0  0  0  0
  -26.4361  -29.0554   22.4472 O   0  0  0  0  0  0  0  0  0  0  0  0
  -29.1659  -20.9350   21.8432 O   0  0  0  0  0  0  0  0  0  0  0  0
  -29.0430  -31.3744   20.2294 O   0  0  0  0  0  0  0  0  0  0  0  0
  -30.4384  -27.5183   17.8411 O   0  0  0  0  0  0  0  0  0  0  0  0
  -31.8571  -14.9295   20.1731 O   0  0  0  0  0  0  0  0  0  0  0  0
  -21.6105   -7.0233   21.7427 O   0  0  0  0  0  0  0  0  0  0  0  0
  -28.6322  -23.3412   22.9048 O   0  0  0  0  0  0  0  0  0  1  0  0
  -18.6087   -6.9074   26.3665 F   0  0  0  0  0  0  0  0  0  0  0  0
  -22.0564   -5.0974   23.6753 F   0  0  0  0  0  0  0  0  0  0  0  0
  1  2  1  0  0  0  0
  1  5  2  0  0  0  0
  2  6  2  0  0  0  0
  3  8  2  0  0  0  0
  3 16  1  0  0  0  0
  4  9  1  0  0  0  0
  4 16  2  0  0  0  0
  5 18  1  0  0  0  0
  6 20  1  0  0  0  0
  7 10  2  0  0  0  0
  7 19  1  0  0  0  0
  8 23  1  0  0  0  0
  9 23  2  0  0  0  0
 10 24  1  0  0  0  0
 11 12  2  0  0  0  0
 11 25  1  0  0  0  0
 12 26  1  0  0  0  0
 13 21  1  0  0  0  0
 13 24  2  0  0  0  0
 14 26  2  0  0  0  0
 14 27  1  0  0  0  0
 15 22  1  0  0  0  0
 15 59  2  0  0  0  0
 16 28  1  0  0  0  0
 17 28  1  0  0  0  0
 17 29  2  0  0  0  0
 17 31  1  0  0  0  0
 18 20  2  0  0  0  0
 18 37  1  0  0  0  0
 19 21  2  0  0  0  0
 19 38  1  0  0  0  0
 20 46  1  0  0  0  0
 21 39  1  0  0  0  0
 22 30  2  0  0  0  0
 22 68  1  0  0  0  0
 23 78  1  0  0  0  0
 24 79  1  0  0  0  0
 25 27  2  0  0  0  0
 25 78  1  0  0  0  0
 26 80  1  0  0  0  0
 27 81  1  0  0  0  0
 28 60  2  0  0  0  0
 29 61  1  0  0  0  0
 29 65  1  0  0  0  0
 30 62  1  0  0  0  0
 30 66  1  0  0  0  0
 31 67  1  0  0  0  0
 31 72  2  0  0  0  0
 32 47  1  0  0  0  0
 32 69  1  0  0  0  0
 32 73  2  0  0  0  0
 33 54  1  0  0  0  0
 33 55  1  0  0  0  0
 33 74  2  0  0  0  0
 34 56  1  0  0  0  0
 34 63  1  0  0  0  0
 34 75  2  0  0  0  0
 35 57  1  0  0  0  0
 35 70  1  0  0  0  0
 35 76  2  0  0  0  0
 36 64  1  0  0  0  0
 36 68  1  0  0  0  0
 36 77  2  0  0  0  0
 37 40  1  0  0  0  0
 38 47  1  0  0  0  0
 39 63  1  0  0  0  0
 40 42  1  0  0  0  0
 41 43  1  0  0  0  0
 41 44  1  0  0  0  0
 42 46  1  0  0  0  0
 43 48  1  0  0  0  0
 44 64  1  0  0  0  0
 45 48  1  0  0  0  0
 45 64  1  0  0  0  0
 46 69  1  0  0  0  0
 47 63  1  0  0  0  0
 48 61  1  0  0  0  0
 49 57  1  0  0  0  0
 50 58  1  0  0  0  0
 51 58  1  0  0  0  0
 52 58  1  0  0  0  0
 53 71  1  0  0  0  0
 54 62  1  0  0  0  0
 55 79  1  0  0  0  0
 56 58  1  0  0  0  0
 56 70  1  0  0  0  0
 57 71  1  0  0  0  0
 59 62  1  0  0  0  0
 60 61  1  0  0  0  0
M  CHG  1  71   1
M  ISO  4  36 100  55 101  68 100  79 101
M  END
> <Batch ID>
0110

> <Smiles>
CNC(C)C(=O)NC(C(=O)N1Cc2cc([101O:1][101CH2:1]C(=O)Cn3ncc([100NH:0][100C:0](=O)N4CCCC(n5nc(-c6ccc(Oc7ccc(F)cc7F)cc6)c(C(N)=O)c5N)C4)c3N)ccc2CC1C(=O)NC1CCCc2ccccc21)C(C)(C)C

> <Shape>
0.281

> <Color>
0.184

> <Negative vol penalty>
0.000

$$$$

  -OEChem-04052301263D

 88 96  0     1  0  0  0  0  0999 V2000
  -23.2204  -28.1244   27.5221 C   0  0  0  0  0  0  0  0  0  0  0  0
  -23.8444  -27.5618   26.4133 C   0  0  0  0  0  0  0  0  0  0  0  0
  -23.0651   -9.8586   19.9392 C   0  0  0  0  0  0  0  0  0  0  0  0
  -23.6439  -10.0226   22.2791 C   0  0  0  0  0  0  0  0  0  0  0  0
  -21.9651  -28.7162   27.3886 C   0  0  0  0  0  0  0  0  0  0  0  0
  -23.2129  -27.5898   25.1704 C   0  0  0  0  0  0  0  0  0  0  0  0
  -26.3501  -28.9279   21.4270 C   0  0  0  0  0  0  0  0  0  0  0  0
  -22.2982   -8.7250   20.2083 C   0  0  0  0  0  0  0  0  0  0  0  0
  -22.8770   -8.8890   22.5483 C   0  0  0  0  0  0  0  0  0  0  0  0
  -27.2265  -27.9533   20.9518 C   0  0  0  0  0  0  0  0  0  0  0  0
  -21.3635   -5.8289   23.7955 C   0  0  0  0  0  0  0  0  0  0  0  0
  -21.9143   -4.8569   24.6305 C   0  0  0  0  0  0  0  0  0  0  0  0
  -25.7581  -27.5541   19.0800 C   0  0  0  0  0  0  0  0  0  0  0  0
  -31.1097  -17.6937   20.6819 C   0  0  0  0  0  0  0  0  0  0  0  0
  -23.7450   -4.5635   23.0815 C   0  0  0  0  0  0  0  0  0  0  0  0
  -23.7379  -10.5074   20.9746 C   0  0  0  0  0  0  0  0  0  0  0  0
  -29.3522  -18.0474   22.3014 C   0  0  0  0  0  0  0  0  0  0  0  0
  -24.1007  -13.0185   20.7098 C   0  0  0  0  0  0  0  0  0  0  0  0
  -21.3221  -28.7600   26.1414 C   0  0  0  0  0  0  0  0  0  0  0  0
  -25.1637  -29.2157   20.7370 C   0  0  0  0  0  0  0  0  0  0  0  0
  -21.9472  -28.1815   25.0203 C   0  0  0  0  0  0  0  0  0  0  0  0
  -24.8695  -28.5346   19.5472 C   0  0  0  0  0  0  0  0  0  0  0  0
  -29.5450  -19.4258   22.2097 C   0  0  0  0  0  0  0  0  0  0  0  0
  -30.1346  -17.1813   21.5376 C   0  0  0  0  0  0  0  0  0  0  0  0
  -31.3026  -19.0721   20.5902 C   0  0  0  0  0  0  0  0  0  0  0  0
  -22.2041   -8.2402   21.5128 C   0  0  0  0  0  0  0  0  0  0  0  0
  -26.9292  -27.2642   19.7797 C   0  0  0  0  0  0  0  0  0  0  0  0
  -22.0034   -6.1683   22.6034 C   0  0  0  0  0  0  0  0  0  0  0  0
  -30.5202  -19.9382   21.3541 C   0  0  0  0  0  0  0  0  0  0  0  0
  -23.1051   -4.2242   24.2735 C   0  0  0  0  0  0  0  0  0  0  0  0
  -23.1942   -5.5356   22.2464 C   0  0  0  0  0  0  0  0  0  0  0  0
  -24.5307  -11.6781   20.6972 C   0  0  0  0  0  0  0  0  0  0  0  0
  -25.2216  -13.7418   20.3827 C   0  0  0  0  0  0  0  0  0  0  0  0
  -28.3310  -17.5144   23.1987 C   0  0  0  0  0  0  0  0  0  0  0  0
  -22.8040  -13.5613   20.9920 C   0  0  0  0  0  0  0  0  0  0  0  0
  -22.0663  -29.0272   21.4253 C   0  0  0  0  0  0  0  0  0  0  0  0
  -21.7363  -30.4870   18.5474 C   0  0  0  0  0  0  0  0  0  0  0  0
  -23.0488  -31.1499   15.4677 C   0  0  0  0  0  0  0  0  0  0  0  0
  -30.6627  -14.7988   20.9123 C   0  0  0  0  0  0  0  0  0  0  0  0
  -19.9448  -29.3685   26.0557 C   0  0  0  0  0  0  0  0  0  0  0  0
  -24.2419  -30.2886   21.2485 C   0  0  0  0  0  0  0  0  0  0  0  0
  -23.6188  -28.8205   18.7583 C   0  0  0  0  0  0  0  0  0  0  0  0
  -19.5083  -29.6890   24.6285 C   0  0  0  0  0  0  0  0  0  0  0  0
  -29.7243  -12.2283   18.6343 C   0  0  0  0  0  0  0  0  0  0  0  0
  -19.8019  -28.5122   23.7034 C   0  0  0  0  0  0  0  0  0  0  0  0
  -28.2541  -11.9663   18.9689 C   0  0  0  0  0  0  0  0  0  0  0  0
  -30.5440  -12.5391   19.8853 C   0  0  0  0  0  0  0  0  0  0  0  0
  -28.5388  -13.3556   21.0608 C   0  0  0  0  0  0  0  0  0  0  0  0
  -21.3052  -28.2141   23.6503 C   0  0  1  0  0  0  0  0  0  0  0  0
  -22.8110  -30.1386   20.7413 C   0  0  1  0  0  0  0  0  0  0  0  0
  -27.6600  -13.1019   19.8251 C   0  0  2  0  0  0  0  0  0  0  0  0
  -29.4709  -20.9103   24.2289 C   0  0  0  0  0  0  0  0  0  0  0  0
  -22.5298  -32.3388   13.3195 C   0  0  0  0  0  0  0  0  0  0  0  0
  -19.8321  -28.2352   17.7641 C   0  0  0  0  0  0  0  0  0  0  0  0
  -20.1004  -28.9336   15.3748 C   0  0  0  0  0  0  0  0  0  0  0  0
  -19.1100  -30.5146   17.0308 C   0  0  0  0  0  0  0  0  0  0  0  0
  -25.3834  -32.9448   15.7620 C   0  0  0  0  0  0  0  0  0  0  0  0
  -28.7115  -20.3640   23.0252 C   0  0  0  0  0  0  0  0  0  0  0  0
  -28.8639  -24.2012   19.7674 C   0  0  0  0  0  0  0  0  0  0  0  0
  -29.6698  -23.3959   20.7806 C   0  0  0  0  0  0  0  0  0  0  0  0
  -28.5525  -25.6003   20.2820 C   0  0  0  0  0  0  0  0  0  1  0  0
  -29.9447  -21.9831   20.2851 C   0  0  0  0  0  0  0  0  0  0  0  0
  -21.5871  -30.0163   17.1208 C   0  0  1  0  0  0  0  0  0  0  0  0
  -23.1843  -32.4454   14.6881 C   0  0  2  0  0  0  0  0  0  0  0  0
  -20.1801  -29.4180   16.8383 C   0  0  0  0  0  0  0  0  0  0  0  0
  -25.8239  -11.5543   20.3865 N   0  0  0  0  0  0  0  0  0  0  0  0
  -26.2160  -12.8263   20.2008 N   0  0  0  0  0  0  0  0  0  0  0  0
  -22.7461  -29.8738   19.3026 N   0  0  0  0  0  0  0  0  0  0  0  0
  -29.9235  -13.6273   20.6440 N   0  0  0  0  0  0  0  0  0  0  0  0
  -32.2932  -19.5760   19.7189 N   0  0  0  0  0  0  0  0  0  0  0  0
  -25.4437  -15.0652   20.2357 N   0  0  0  0  0  0  0  0  0  0  0  0
  -28.7107  -17.2248   24.5032 N   0  0  0  0  0  0  0  0  0  0  0  0
  -21.7644  -12.6770   21.3104 N   0  0  0  0  0  0  0  0  0  0  0  0
  -29.9581  -15.7774   21.6126 N   0  0  0  0  0  0  0  0  0  0  0  0
  -21.9800  -29.1687   22.7972 N   0  0  0  0  0  0  0  0  0  0  0  0
  -21.9324  -31.1552   16.2770 N   0  0  0  0  0  0  0  0  0  0  0  0
  -24.6223  -32.7864   14.4960 N   0  3  0  0  0  0  0  0  0  0  0  0
  -27.1721  -17.3121   22.8050 O   0  0  0  0  0  0  0  0  0  0  0  0
  -22.5702  -14.7929   20.9467 O   0  0  0  0  0  0  0  0  0  0  0  0
  -21.6029  -28.1099   20.7577 O   0  0  0  0  0  0  0  0  0  0  0  0
  -20.9894  -31.3712   18.9738 O   0  0  0  0  0  0  0  0  0  0  0  0
  -23.8508  -30.2242   15.3658 O   0  0  0  0  0  0  0  0  0  0  0  0
  -31.8256  -14.9355   20.5239 O   0  0  0  0  0  0  0  0  0  0  0  0
  -21.4557   -7.1341   21.7759 O   0  0  0  0  0  0  0  0  0  0  0  0
  -27.7826  -26.3121   19.3139 O   0  0  0  0  0  0  0  0  0  1  0  0
  -30.7087  -21.2929   21.2644 O   0  0  0  0  0  0  0  0  0  0  0  0
  -23.6347   -3.2918   25.0762 F   0  0  0  0  0  0  0  0  0  0  0  0
  -23.8141   -5.8582   21.1030 F   0  0  0  0  0  0  0  0  0  0  0  0
  1  2  1  0  0  0  0
  1  5  2  0  0  0  0
  2  6  2  0  0  0  0
  3  8  2  0  0  0  0
  3 16  1  0  0  0  0
  4  9  1  0  0  0  0
  4 16  2  0  0  0  0
  5 19  1  0  0  0  0
  6 21  1  0  0  0  0
  7 10  2  0  0  0  0
  7 20  1  0  0  0  0
  8 26  1  0  0  0  0
  9 26  2  0  0  0  0
 10 27  1  0  0  0  0
 11 12  2  0  0  0  0
 11 28  1  0  0  0  0
 12 30  1  0  0  0  0
 13 22  1  0  0  0  0
 13 27  2  0  0  0  0
 14 24  2  0  0  0  0
 14 25  1  0  0  0  0
 15 30  2  0  0  0  0
 15 31  1  0  0  0  0
 16 32  1  0  0  0  0
 17 23  2  0  0  0  0
 17 24  1  0  0  0  0
 17 34  1  0  0  0  0
 18 32  1  0  0  0  0
 18 33  2  0  0  0  0
 18 35  1  0  0  0  0
 19 21  2  0  0  0  0
 19 40  1  0  0  0  0
 20 22  2  0  0  0  0
 20 41  1  0  0  0  0
 21 49  1  0  0  0  0
 22 42  1  0  0  0  0
 23 29  1  0  0  0  0
 23 58  1  0  0  0  0
 24 74  1  0  0  0  0
 25 29  2  0  0  0  0
 25 70  1  0  0  0  0
 26 84  1  0  0  0  0
 27 85  1  0  0  0  0
 28 31  2  0  0  0  0
 28 84  1  0  0  0  0
 29 86  1  0  0  0  0
 30 87  1  0  0  0  0
 31 88  1  0  0  0  0
 32 66  2  0  0  0  0
 33 67  1  0  0  0  0
 33 71  1  0  0  0  0
 34 72  1  0  0  0  0
 34 78  2  0  0  0  0
 35 73  1  0  0  0  0
 35 79  2  0  0  0  0
 36 50  1  0  0  0  0
 36 75  1  0  0  0  0
 36 80  2  0  0  0  0
 37 63  1  0  0  0  0
 37 68  1  0  0  0  0
 37 81  2  0  0  0  0
 38 64  1  0  0  0  0
 38 76  1  0  0  0  0
 38 82  2  0  0  0  0
 39 69  1  0  0  0  0
 39 74  1  0  0  0  0
 39 83  2  0  0  0  0
 40 43  1  0  0  0  0
 41 50  1  0  0  0  0
 42 68  1  0  0  0  0
 43 45  1  0  0  0  0
 44 46  1  0  0  0  0
 44 47  1  0  0  0  0
 45 49  1  0  0  0  0
 46 51  1  0  0  0  0
 47 69  1  0  0  0  0
 48 51  1  0  0  0  0
 48 69  1  0  0  0  0
 49 75  1  0  0  0  0
 50 68  1  0  0  0  0
 51 67  1  0  0  0  0
 52 58  1  0  0  0  0
 53 64  1  0  0  0  0
 54 65  1  0  0  0  0
 55 65  1  0  0  0  0
 56 65  1  0  0  0  0
 57 77  1  0  0  0  0
 59 60  1  0  0  0  0
 59 61  1  0  0  0  0
 60 62  1  0  0  0  0
 61 85  1  0  0  0  0
 62 86  1  0  0  0  0
 63 65  1  0  0  0  0
 63 76  1  0  0  0  0
 64 77  1  0  0  0  0
 66 67  1  0  0  0  0
M  CHG  1  77   1
M  ISO  4  39 100  61 101  74 100  85 101
M  END
> <Batch ID>
0110

> <Smiles>
CCc1c(OCCC[101CH2:1][101O:1]c2ccc3c(c2)CN(C(=O)C(NC(=O)C(C)NC)C(C)(C)C)C(C(=O)NC2CCCc4ccccc42)C3)c(N)cc([100NH:0][100C:0](=O)N2CCCC(n3nc(-c4ccc(Oc5ccc(F)cc5F)cc4)c(C(N)=O)c3N)C2)c1C(N)=O

> <Shape>
0.313

> <Color>
0.228

> <Negative vol penalty>
0.000

$$$$

  -OEChem-04052301263D

 84 92  0     1  0  0  0  0  0999 V2000
  -17.7044  -11.8033   24.9281 C   0  0  0  0  0  0  0  0  0  0  0  0
  -18.7553  -12.6739   24.6581 C   0  0  0  0  0  0  0  0  0  0  0  0
  -23.0712   -9.8716   19.9428 C   0  0  0  0  0  0  0  0  0  0  0  0
  -23.8346   -9.8793   22.2350 C   0  0  0  0  0  0  0  0  0  0  0  0
  -16.6328  -11.7096   24.0411 C   0  0  0  0  0  0  0  0  0  0  0  0
  -18.7357  -13.4508   23.5003 C   0  0  0  0  0  0  0  0  0  0  0  0
  -20.0701  -18.2589   24.3639 C   0  0  0  0  0  0  0  0  0  0  0  0
  -22.3271   -8.7190   20.1945 C   0  0  0  0  0  0  0  0  0  0  0  0
  -23.0905   -8.7266   22.4867 C   0  0  0  0  0  0  0  0  0  0  0  0
  -21.4306  -18.5255   24.5111 C   0  0  0  0  0  0  0  0  0  0  0  0
  -19.3807   -7.9247   21.6507 C   0  0  0  0  0  0  0  0  0  0  0  0
  -18.0730   -7.8789   21.1674 C   0  0  0  0  0  0  0  0  0  0  0  0
  -21.5199  -19.2989   22.2279 C   0  0  0  0  0  0  0  0  0  0  0  0
  -30.3748  -18.0971   24.0278 C   0  0  0  0  0  0  0  0  0  0  0  0
  -28.3544  -19.3784   24.3645 C   0  0  0  0  0  0  0  0  0  0  0  0
  -18.6296   -5.9349   19.8453 C   0  0  0  0  0  0  0  0  0  0  0  0
  -23.8251  -10.4517   20.9631 C   0  0  0  0  0  0  0  0  0  0  0  0
  -24.1681  -12.9766   20.8413 C   0  0  0  0  0  0  0  0  0  0  0  0
  -16.5954  -12.4928   22.8767 C   0  0  0  0  0  0  0  0  0  0  0  0
  -19.4255  -18.5005   23.1422 C   0  0  0  0  0  0  0  0  0  0  0  0
  -17.6632  -13.3665   22.5962 C   0  0  0  0  0  0  0  0  0  0  0  0
  -20.1506  -19.0369   22.0686 C   0  0  0  0  0  0  0  0  0  0  0  0
  -29.9475  -17.7607   22.7434 C   0  0  0  0  0  0  0  0  0  0  0  0
  -27.9271  -19.0420   23.0800 C   0  0  0  0  0  0  0  0  0  0  0  0
  -29.5783  -18.9059   24.8384 C   0  0  0  0  0  0  0  0  0  0  0  0
  -22.3367   -8.1465   21.4664 C   0  0  0  0  0  0  0  0  0  0  0  0
  -22.1564  -19.0429   23.4421 C   0  0  0  0  0  0  0  0  0  0  0  0
  -20.3129   -6.9756   21.2312 C   0  0  0  0  0  0  0  0  0  0  0  0
  -28.7236  -18.2331   22.2695 C   0  0  0  0  0  0  0  0  0  0  0  0
  -17.6975   -6.8840   20.2648 C   0  0  0  0  0  0  0  0  0  0  0  0
  -19.9373   -5.9807   20.3285 C   0  0  0  0  0  0  0  0  0  0  0  0
  -24.5944  -11.6420   20.7036 C   0  0  0  0  0  0  0  0  0  0  0  0
  -25.2601  -13.7253   20.4760 C   0  0  0  0  0  0  0  0  0  0  0  0
  -25.6682  -18.7728   22.8546 C   0  0  0  0  0  0  0  0  0  0  0  0
  -22.8985  -13.4933   21.2619 C   0  0  0  0  0  0  0  0  0  0  0  0
  -17.9093  -16.6949   21.0104 C   0  0  0  0  0  0  0  0  0  0  0  0
  -17.2439  -19.5576   19.6378 C   0  0  0  0  0  0  0  0  0  0  0  0
  -18.0935  -22.8360   19.2167 C   0  0  0  0  0  0  0  0  0  0  0  0
  -30.7447  -14.7414   20.6555 C   0  0  0  0  0  0  0  0  0  0  0  0
  -15.4386  -12.3223   21.9240 C   0  0  0  0  0  0  0  0  0  0  0  0
  -17.9516  -18.2326   23.0078 C   0  0  0  0  0  0  0  0  0  0  0  0
  -19.5012  -19.3331   20.7423 C   0  0  0  0  0  0  0  0  0  0  0  0
  -15.3144  -13.4548   20.9080 C   0  0  0  0  0  0  0  0  0  0  0  0
  -29.6021  -12.3564   18.2716 C   0  0  0  0  0  0  0  0  0  0  0  0
  -16.6740  -13.7722   20.2934 C   0  0  0  0  0  0  0  0  0  0  0  0
  -28.1652  -12.0637   18.7069 C   0  0  0  0  0  0  0  0  0  0  0  0
  -30.5212  -12.5773   19.4710 C   0  0  0  0  0  0  0  0  0  0  0  0
  -28.6220  -13.3101   20.8601 C   0  0  0  0  0  0  0  0  0  0  0  0
  -17.6663  -14.2439   21.3631 C   0  0  1  0  0  0  0  0  0  0  0  0
  -17.5097  -18.0346   21.5611 C   0  0  1  0  0  0  0  0  0  0  0  0
  -27.6459  -13.1355   19.6841 C   0  0  2  0  0  0  0  0  0  0  0  0
  -17.3813  -24.9157   18.0063 C   0  0  0  0  0  0  0  0  0  0  0  0
  -18.4029  -18.4425   17.0449 C   0  0  0  0  0  0  0  0  0  0  0  0
  -18.5439  -20.7881   16.1808 C   0  0  0  0  0  0  0  0  0  0  0  0
  -16.3252  -19.8047   16.7580 C   0  0  0  0  0  0  0  0  0  0  0  0
  -17.6482  -24.2981   21.7511 C   0  0  0  0  0  0  0  0  0  0  0  0
  -28.6867  -18.7826   19.9559 C   0  0  0  0  0  0  0  0  0  0  0  0
  -30.8136  -16.8926   21.8912 C   0  0  0  0  0  0  0  0  0  0  0  0
  -24.2964  -19.1886   22.4149 C   0  0  0  0  0  0  0  0  0  1  0  0
  -17.9220  -20.4357   18.6139 C   0  0  1  0  0  0  0  0  0  0  0  0
  -17.2680  -24.1079   19.2898 C   0  0  2  0  0  0  0  0  0  0  0  0
  -17.8115  -19.8604   17.1737 C   0  0  0  0  0  0  0  0  0  0  0  0
  -25.8586  -11.5453   20.2834 N   0  0  0  0  0  0  0  0  0  0  0  0
  -26.6920  -19.5255   22.6161 N   0  0  0  0  0  0  0  0  0  0  0  0
  -26.2360  -12.8286   20.1539 N   0  0  0  0  0  0  0  0  0  0  0  0
  -18.0592  -19.0483   20.6585 N   0  0  0  0  0  0  0  0  0  0  0  0
  -29.9726  -13.6065   20.3573 N   0  0  0  0  0  0  0  0  0  0  0  0
  -30.0099  -19.2455   26.1374 N   0  0  0  0  0  0  0  0  0  0  0  0
  -25.4711  -15.0566   20.4020 N   0  0  0  0  0  0  0  0  0  0  0  0
  -21.8866  -12.5849   21.6012 N   0  0  0  0  0  0  0  0  0  0  0  0
  -17.4064  -15.6218   21.7212 N   0  0  0  0  0  0  0  0  0  0  0  0
  -17.3455  -21.7666   18.7717 N   0  0  0  0  0  0  0  0  0  0  0  0
  -30.1473  -15.6710   21.4980 N   0  0  0  0  0  0  0  0  0  0  0  0
  -17.7277  -24.9594   20.4232 N   0  3  0  0  0  0  0  0  0  0  0  0
  -22.6630  -14.7241   21.3190 O   0  0  0  0  0  0  0  0  0  0  0  0
  -18.6199  -16.6389   20.0136 O   0  0  0  0  0  0  0  0  0  0  0  0
  -16.0341  -19.3378   19.5397 O   0  0  0  0  0  0  0  0  0  0  0  0
  -19.2838  -22.7961   19.5202 O   0  0  0  0  0  0  0  0  0  0  0  0
  -31.8800  -14.9161   20.2000 O   0  0  0  0  0  0  0  0  0  0  0  0
  -21.6105   -7.0219   21.7124 O   0  0  0  0  0  0  0  0  0  0  0  0
  -28.3066  -17.9049   21.0126 O   0  0  0  0  0  0  0  0  0  0  0  0
  -23.4846  -19.3034   23.5829 O   0  0  0  0  0  0  0  0  0  1  0  0
  -16.4413   -6.8393   19.8020 F   0  0  0  0  0  0  0  0  0  0  0  0
  -20.8281   -5.0655   19.9228 F   0  0  0  0  0  0  0  0  0  0  0  0
  1  2  1  0  0  0  0
  1  5  2  0  0  0  0
  2  6  2  0  0  0  0
  3  8  2  0  0  0  0
  3 17  1  0  0  0  0
  4  9  1  0  0  0  0
  4 17  2  0  0  0  0
  5 19  1  0  0  0  0
  6 21  1  0  0  0  0
  7 10  2  0  0  0  0
  7 20  1  0  0  0  0
  8 26  1  0  0  0  0
  9 26  2  0  0  0  0
 10 27  1  0  0  0  0
 11 12  2  0  0  0  0
 11 28  1  0  0  0  0
 12 30  1  0  0  0  0
 13 22  1  0  0  0  0
 13 27  2  0  0  0  0
 14 23  2  0  0  0  0
 14 25  1  0  0  0  0
 15 24  1  0  0  0  0
 15 25  2  0  0  0  0
 16 30  2  0  0  0  0
 16 31  1  0  0  0  0
 17 32  1  0  0  0  0
 18 32  1  0  0  0  0
 18 33  2  0  0  0  0
 18 35  1  0  0  0  0
 19 21  2  0  0  0  0
 19 40  1  0  0  0  0
 20 22  2  0  0  0  0
 20 41  1  0  0  0  0
 21 49  1  0  0  0  0
 22 42  1  0  0  0  0
 23 29  1  0  0  0  0
 23 58  1  0  0  0  0
 24 29  2  0  0  0  0
 24 64  1  0  0  0  0
 25 68  1  0  0  0  0
 26 80  1  0  0  0  0
 27 82  1  0  0  0  0
 28 31  2  0  0  0  0
 28 80  1  0  0  0  0
 29 81  1  0  0  0  0
 30 83  1  0  0  0  0
 31 84  1  0  0  0  0
 32 63  2  0  0  0  0
 33 65  1  0  0  0  0
 33 69  1  0  0  0  0
 34 59  1  0  0  0  0
 34 64  2  0  0  0  0
 35 70  1  0  0  0  0
 35 75  2  0  0  0  0
 36 50  1  0  0  0  0
 36 71  1  0  0  0  0
 36 76  2  0  0  0  0
 37 60  1  0  0  0  0
 37 66  1  0  0  0  0
 37 77  2  0  0  0  0
 38 61  1  0  0  0  0
 38 72  1  0  0  0  0
 38 78  2  0  0  0  0
 39 67  1  0  0  0  0
 39 73  1  0  0  0  0
 39 79  2  0  0  0  0
 40 43  1  0  0  0  0
 41 50  1  0  0  0  0
 42 66  1  0  0  0  0
 43 45  1  0  0  0  0
 44 46  1  0  0  0  0
 44 47  1  0  0  0  0
 45 49  1  0  0  0  0
 46 51  1  0  0  0  0
 47 67  1  0  0  0  0
 48 51  1  0  0  0  0
 48 67  1  0  0  0  0
 49 71  1  0  0  0  0
 50 66  1  0  0  0  0
 51 65  1  0  0  0  0
 52 61  1  0  0  0  0
 53 62  1  0  0  0  0
 54 62  1  0  0  0  0
 55 62  1  0  0  0  0
 56 74  1  0  0  0  0
 57 81  1  0  0  0  0
 58 73  1  0  0  0  0
 59 82  1  0  0  0  0
 60 62  1  0  0  0  0
 60 72  1  0  0  0  0
 61 74  1  0  0  0  0
 63 65  1  0  0  0  0
M  CHG  1  74   1
M  ISO  4  39 100  59 101  73 100  82 101
M  END
> <Batch ID>
0110

> <Smiles>
CNC(C)C(=O)NC(C(=O)N1Cc2cc([101O:1][101CH:1]=CNc3cc(N)cc(C[100NH:0][100C:0](=O)N4CCCC(n5nc(-c6ccc(Oc7ccc(F)cc7F)cc6)c(C(N)=O)c5N)C4)c3OC)ccc2CC1C(=O)NC1CCCc2ccccc21)C(C)(C)C

> <Shape>
0.162

> <Color>
0.184

> <Negative vol penalty>
0.000

$$$$

  -OEChem-04052301263D

 85 93  0     1  0  0  0  0  0999 V2000
  -32.1600  -14.4845   20.8850 C   0  0  0  0  0  0  0  0  0  0  0  0
  -31.2337  -15.5207   20.8241 C   0  0  0  0  0  0  0  0  0  0  0  0
  -29.3469  -28.8914   20.5928 C   0  0  0  0  0  0  0  0  0  0  0  0
  -27.6002  -27.5968   19.5393 C   0  0  0  0  0  0  0  0  0  0  0  0
  -31.7673  -13.1812   20.5832 C   0  0  0  0  0  0  0  0  0  0  0  0
  -29.9142  -15.2542   20.4602 C   0  0  0  0  0  0  0  0  0  0  0  0
  -26.5640  -17.6033   23.4440 C   0  0  0  0  0  0  0  0  0  0  0  0
  -19.3768  -25.9160   24.6021 C   0  0  0  0  0  0  0  0  0  0  0  0
  -30.2675  -27.8839   20.3048 C   0  0  0  0  0  0  0  0  0  0  0  0
  -28.5207  -26.5892   19.2513 C   0  0  0  0  0  0  0  0  0  0  0  0
  -26.3464  -18.9606   23.2117 C   0  0  0  0  0  0  0  0  0  0  0  0
  -20.3123  -24.8859   24.5057 C   0  0  0  0  0  0  0  0  0  0  0  0
  -30.0302  -24.0495   20.8952 C   0  0  0  0  0  0  0  0  0  0  0  0
  -29.6487  -22.7317   21.1472 C   0  0  0  0  0  0  0  0  0  0  0  0
  -24.3320  -18.4237   21.9979 C   0  0  0  0  0  0  0  0  0  0  0  0
  -29.9531  -22.1969   18.8108 C   0  0  0  0  0  0  0  0  0  0  0  0
  -28.0132  -28.7479   20.2101 C   0  0  0  0  0  0  0  0  0  0  0  0
  -21.0689  -27.5135   23.9525 C   0  0  0  0  0  0  0  0  0  0  0  0
  -26.7294  -30.8927   19.7008 C   0  0  0  0  0  0  0  0  0  0  0  0
  -30.4400  -12.8972   20.2248 C   0  0  0  0  0  0  0  0  0  0  0  0
  -25.6715  -16.6437   22.9448 C   0  0  0  0  0  0  0  0  0  0  0  0
  -29.5036  -13.9461   20.1520 C   0  0  0  0  0  0  0  0  0  0  0  0
  -24.5392  -17.0550   22.2274 C   0  0  0  0  0  0  0  0  0  0  0  0
  -19.7551  -27.2298   24.3254 C   0  0  0  0  0  0  0  0  0  0  0  0
  -29.8544  -26.7328   19.6340 C   0  0  0  0  0  0  0  0  0  0  0  0
  -25.2318  -19.3709   22.4861 C   0  0  0  0  0  0  0  0  0  0  0  0
  -21.6261  -25.1696   24.1328 C   0  0  0  0  0  0  0  0  0  0  0  0
  -30.3731  -24.4410   19.6010 C   0  0  0  0  0  0  0  0  0  0  0  0
  -22.0045  -26.4834   23.8562 C   0  0  0  0  0  0  0  0  0  0  0  0
  -29.6101  -21.8054   20.1050 C   0  0  0  0  0  0  0  0  0  0  0  0
  -30.3346  -23.5147   18.5588 C   0  0  0  0  0  0  0  0  0  0  0  0
  -27.0617  -29.7881   20.5079 C   0  0  0  0  0  0  0  0  0  0  0  0
  -25.7843  -31.5760   20.4262 C   0  0  0  0  0  0  0  0  0  0  0  0
  -23.5136  -22.5341   22.5811 C   0  0  0  0  0  0  0  0  0  0  0  0
  -23.8610  -21.2505   22.7286 C   0  0  0  0  0  0  0  0  0  1  0  0
  -21.4690  -28.8862   23.6622 C   0  0  0  0  0  0  0  0  0  0  0  0
  -27.2303  -31.2675   18.4107 C   0  0  0  0  0  0  0  0  0  0  0  0
  -21.9888  -29.7756   24.7262 C   0  0  0  0  0  0  0  0  0  0  0  0
  -25.8951  -14.2233   20.8965 C   0  0  0  0  0  0  0  0  0  0  0  0
  -22.8491  -13.6447   21.8503 C   0  0  0  0  0  0  0  0  0  0  0  0
  -19.9502  -14.8575   23.1814 C   0  0  0  0  0  0  0  0  0  0  0  0
  -30.0736  -11.4800   19.8615 C   0  0  0  0  0  0  0  0  0  0  0  0
  -25.9062  -15.1850   23.2270 C   0  0  0  0  0  0  0  0  0  0  0  0
  -23.5400  -16.0658   21.6874 C   0  0  0  0  0  0  0  0  0  0  0  0
  -28.5688  -11.2242   19.8484 C   0  0  0  0  0  0  0  0  0  0  0  0
  -24.3896  -32.4324   24.9129 C   0  0  0  0  0  0  0  0  0  0  0  0
  -27.8444  -12.3384   19.0995 C   0  0  0  0  0  0  0  0  0  0  0  0
  -25.3388  -32.1326   23.7532 C   0  0  0  0  0  0  0  0  0  0  0  0
  -23.8610  -31.1501   25.5475 C   0  0  0  0  0  0  0  0  0  0  0  0
  -24.1460  -29.9221   23.4122 C   0  0  0  0  0  0  0  0  0  0  0  0
  -28.0573  -13.6932   19.7855 C   0  0  1  0  0  0  0  0  0  0  0  0
  -25.2072  -14.2639   22.2317 C   0  0  1  0  0  0  0  0  0  0  0  0
  -24.6789  -31.1931   22.7282 C   0  0  2  0  0  0  0  0  0  0  0  0
  -18.7309  -28.3121   24.4370 C   0  0  0  0  0  0  0  0  0  0  0  0
  -17.6232  -14.1545   23.8046 C   0  0  0  0  0  0  0  0  0  0  0  0
  -22.0538  -13.6745   18.9047 C   0  0  0  0  0  0  0  0  0  0  0  0
  -19.6684  -13.9234   19.6231 C   0  0  0  0  0  0  0  0  0  0  0  0
  -20.9559  -11.8851   20.2636 C   0  0  0  0  0  0  0  0  0  0  0  0
  -20.3852  -15.5306   26.0304 C   0  0  0  0  0  0  0  0  0  0  0  0
  -23.5912  -26.7099   22.0992 C   0  0  0  0  0  0  0  0  0  0  0  0
  -22.2422  -23.1103   23.1151 C   0  0  0  0  0  0  0  0  0  0  0  0
  -21.4818  -14.0875   21.3883 C   0  0  1  0  0  0  0  0  0  0  0  0
  -19.0537  -14.3337   24.2888 C   0  0  2  0  0  0  0  0  0  0  0  0
  -21.0597  -13.4114   20.0533 C   0  0  0  0  0  0  0  0  0  0  0  0
  -26.3829  -29.7671   21.6580 N   0  0  0  0  0  0  0  0  0  0  0  0
  -21.3996  -29.4114   22.4716 N   0  0  0  0  0  0  0  0  0  0  0  0
  -25.6148  -30.8670   21.5790 N   0  0  0  0  0  0  0  0  0  0  0  0
  -23.2741  -30.2659   24.5425 N   0  0  0  0  0  0  0  0  0  0  0  0
  -23.8167  -14.6505   21.9841 N   0  0  0  0  0  0  0  0  0  0  0  0
  -25.0901  -32.7082   20.1842 N   0  0  0  0  0  0  0  0  0  0  0  0
  -28.1986  -30.4533   17.8076 N   0  0  0  0  0  0  0  0  0  0  0  0
  -27.2113  -13.8065   20.9541 N   0  0  0  0  0  0  0  0  0  0  0  0
  -20.5728  -13.8328   22.5006 N   0  0  0  0  0  0  0  0  0  0  0  0
  -19.0452  -15.2802   25.4398 N   0  3  0  0  0  0  0  0  0  0  0  0
  -26.8430  -32.3029   17.8178 O   0  0  0  0  0  0  0  0  0  0  0  0
  -21.2247  -29.9839   25.6595 O   0  0  0  0  0  0  0  0  0  0  0  0
  -25.2770  -14.5448   19.8884 O   0  0  0  0  0  0  0  0  0  0  0  0
  -23.0492  -12.4515   22.0906 O   0  0  0  0  0  0  0  0  0  0  0  0
  -20.0818  -16.0558   22.9418 O   0  0  0  0  0  0  0  0  0  0  0  0
  -30.7525  -25.7495   19.3526 O   0  0  0  0  0  0  0  0  0  0  0  0
  -25.0173  -20.6951   22.2573 O   0  0  0  0  0  0  0  0  0  1  0  0
  -23.2918  -26.7509   23.4922 O   0  0  0  0  0  0  0  0  0  0  0  0
  -22.5347  -24.1476   24.0422 O   0  0  0  0  0  0  0  0  0  0  0  0
  -29.2452  -20.5396   20.3474 F   0  0  0  0  0  0  0  0  0  0  0  0
  -30.6640  -23.8846   17.3137 F   0  0  0  0  0  0  0  0  0  0  0  0
  1  2  1  0  0  0  0
  1  5  2  0  0  0  0
  2  6  2  0  0  0  0
  3  9  2  0  0  0  0
  3 17  1  0  0  0  0
  4 10  1  0  0  0  0
  4 17  2  0  0  0  0
  5 20  1  0  0  0  0
  6 22  1  0  0  0  0
  7 11  2  0  0  0  0
  7 21  1  0  0  0  0
  8 12  2  0  0  0  0
  8 24  1  0  0  0  0
  9 25  1  0  0  0  0
 10 25  2  0  0  0  0
 11 26  1  0  0  0  0
 12 27  1  0  0  0  0
 13 14  2  0  0  0  0
 13 28  1  0  0  0  0
 14 30  1  0  0  0  0
 15 23  1  0  0  0  0
 15 26  2  0  0  0  0
 16 30  2  0  0  0  0
 16 31  1  0  0  0  0
 17 32  1  0  0  0  0
 18 24  2  0  0  0  0
 18 29  1  0  0  0  0
 18 36  1  0  0  0  0
 19 32  1  0  0  0  0
 19 33  2  0  0  0  0
 19 37  1  0  0  0  0
 20 22  2  0  0  0  0
 20 42  1  0  0  0  0
 21 23  2  0  0  0  0
 21 43  1  0  0  0  0
 22 51  1  0  0  0  0
 23 44  1  0  0  0  0
 24 54  1  0  0  0  0
 25 80  1  0  0  0  0
 26 81  1  0  0  0  0
 27 29  2  0  0  0  0
 27 83  1  0  0  0  0
 28 31  2  0  0  0  0
 28 80  1  0  0  0  0
 29 82  1  0  0  0  0
 30 84  1  0  0  0  0
 31 85  1  0  0  0  0
 32 65  2  0  0  0  0
 33 67  1  0  0  0  0
 33 70  1  0  0  0  0
 34 35  2  0  0  0  0
 34 61  1  0  0  0  0
 35 81  1  0  0  0  0
 36 38  1  0  0  0  0
 36 66  2  0  0  0  0
 37 71  1  0  0  0  0
 37 75  2  0  0  0  0
 38 68  1  0  0  0  0
 38 76  2  0  0  0  0
 39 52  1  0  0  0  0
 39 72  1  0  0  0  0
 39 77  2  0  0  0  0
 40 62  1  0  0  0  0
 40 69  1  0  0  0  0
 40 78  2  0  0  0  0
 41 63  1  0  0  0  0
 41 73  1  0  0  0  0
 41 79  2  0  0  0  0
 42 45  1  0  0  0  0
 43 52  1  0  0  0  0
 44 69  1  0  0  0  0
 45 47  1  0  0  0  0
 46 48  1  0  0  0  0
 46 49  1  0  0  0  0
 47 51  1  0  0  0  0
 48 53  1  0  0  0  0
 49 68  1  0  0  0  0
 50 53  1  0  0  0  0
 50 68  1  0  0  0  0
 51 72  1  0  0  0  0
 52 69  1  0  0  0  0
 53 67  1  0  0  0  0
 55 63  1  0  0  0  0
 56 64  1  0  0  0  0
 57 64  1  0  0  0  0
 58 64  1  0  0  0  0
 59 74  1  0  0  0  0
 60 82  1  0  0  0  0
 61 83  1  0  0  0  0
 62 64  1  0  0  0  0
 62 73  1  0  0  0  0
 63 74  1  0  0  0  0
 65 67  1  0  0  0  0
M  CHG  1  74   1
M  ISO  4  35 101  36 100  38 100  81 101
M  END
> <Batch ID>
0110

> <Smiles>
CNC(C)C(=O)NC(C(=O)N1Cc2cc([101O:1][101CH:1]=CCOc3ccc(C)c([100C:0](=N)[100C:0](=O)N4CCCC(n5nc(-c6ccc(Oc7ccc(F)cc7F)cc6)c(C(N)=O)c5N)C4)c3OC)ccc2CC1C(=O)NC1CCCc2ccccc21)C(C)(C)C

> <Shape>
0.257

> <Color>
0.062

> <Negative vol penalty>
0.000

$$$$

  -OEChem-04052301263D

 86 94  0     1  0  0  0  0  0999 V2000
  -30.9607  -25.1517   17.9746 C   0  0  0  0  0  0  0  0  0  0  0  0
  -29.5713  -25.0913   18.0108 C   0  0  0  0  0  0  0  0  0  0  0  0
  -27.3352  -19.3601   21.7025 C   0  0  0  0  0  0  0  0  0  0  0  0
  -27.1227  -19.8676   19.3500 C   0  0  0  0  0  0  0  0  0  0  0  0
  -31.6599  -25.7314   19.0324 C   0  0  0  0  0  0  0  0  0  0  0  0
  -28.8803  -25.6097   19.1054 C   0  0  0  0  0  0  0  0  0  0  0  0
  -23.4188  -28.3797   19.0357 C   0  0  0  0  0  0  0  0  0  0  0  0
  -22.2701  -21.9395   25.9367 C   0  0  0  0  0  0  0  0  0  0  0  0
  -21.7022  -20.6758   25.7756 C   0  0  0  0  0  0  0  0  0  0  0  0
  -28.5448  -18.7116   21.4534 C   0  0  0  0  0  0  0  0  0  0  0  0
  -28.3323  -19.2192   19.1008 C   0  0  0  0  0  0  0  0  0  0  0  0
  -22.1316  -27.9226   19.3147 C   0  0  0  0  0  0  0  0  0  0  0  0
  -29.4333  -16.0392   18.7746 C   0  0  0  0  0  0  0  0  0  0  0  0
  -29.4899  -15.1689   17.6860 C   0  0  0  0  0  0  0  0  0  0  0  0
  -22.3270  -28.7652   21.5666 C   0  0  0  0  0  0  0  0  0  0  0  0
  -20.1376  -21.5831   24.1738 C   0  0  0  0  0  0  0  0  0  0  0  0
  -31.2411  -16.5122   16.7031 C   0  0  0  0  0  0  0  0  0  0  0  0
  -26.6241  -19.9380   20.6508 C   0  0  0  0  0  0  0  0  0  0  0  0
  -25.1866  -21.9678   21.2176 C   0  0  0  0  0  0  0  0  0  0  0  0
  -30.9766  -26.2658   20.1362 C   0  0  0  0  0  0  0  0  0  0  0  0
  -24.1752  -29.0244   20.0249 C   0  0  0  0  0  0  0  0  0  0  0  0
  -29.5710  -26.1959   20.1796 C   0  0  0  0  0  0  0  0  0  0  0  0
  -23.6226  -29.2318   21.2969 C   0  0  0  0  0  0  0  0  0  0  0  0
  -21.7718  -23.0251   25.2164 C   0  0  0  0  0  0  0  0  0  0  0  0
  -20.6360  -20.4976   24.8941 C   0  0  0  0  0  0  0  0  0  0  0  0
  -29.0434  -18.6412   20.1526 C   0  0  0  0  0  0  0  0  0  0  0  0
  -21.5866  -28.1127   20.5812 C   0  0  0  0  0  0  0  0  0  0  0  0
  -30.2806  -17.1461   18.8274 C   0  0  0  0  0  0  0  0  0  0  0  0
  -20.7055  -22.8469   24.3349 C   0  0  0  0  0  0  0  0  0  0  0  0
  -30.3938  -15.4054   16.6503 C   0  0  0  0  0  0  0  0  0  0  0  0
  -31.1845  -17.3826   17.7916 C   0  0  0  0  0  0  0  0  0  0  0  0
  -25.3743  -20.6075   20.9074 C   0  0  0  0  0  0  0  0  0  0  0  0
  -23.8279  -22.1013   21.3683 C   0  0  0  0  0  0  0  0  0  0  0  0
  -26.1539  -23.0169   21.3571 C   0  0  0  0  0  0  0  0  0  0  0  0
  -26.9287  -28.4196   21.4934 C   0  0  0  0  0  0  0  0  0  0  0  0
  -18.9899  -26.2047   22.2477 C   0  0  0  0  0  0  0  0  0  0  0  0
  -26.4348  -31.3529   22.7873 C   0  0  0  0  0  0  0  0  0  0  0  0
  -24.2222  -33.8043   23.6487 C   0  0  0  0  0  0  0  0  0  0  0  0
  -19.4527  -18.7583   23.5280 C   0  0  0  0  0  0  0  0  0  0  0  0
  -31.7780  -26.8400   21.2775 C   0  0  0  0  0  0  0  0  0  0  0  0
  -25.5521  -29.5354   19.7001 C   0  0  0  0  0  0  0  0  0  0  0  0
  -24.3857  -29.9361   22.3878 C   0  0  0  0  0  0  0  0  0  0  0  0
  -30.9521  -27.7028   22.2282 C   0  0  0  0  0  0  0  0  0  0  0  0
  -19.8622  -19.5393   19.9342 C   0  0  0  0  0  0  0  0  0  0  0  0
  -29.6452  -27.0022   22.5859 C   0  0  0  0  0  0  0  0  0  0  0  0
  -21.3336  -19.9385   19.8393 C   0  0  0  0  0  0  0  0  0  0  0  0
  -19.6161  -18.5490   21.0684 C   0  0  0  0  0  0  0  0  0  0  0  0
  -21.5751  -19.4325   22.3025 C   0  0  0  0  0  0  0  0  0  0  0  0
  -28.7845  -26.7696   21.3382 C   0  0  1  0  0  0  0  0  0  0  0  0
  -26.4273  -29.7216   20.9357 C   0  0  1  0  0  0  0  0  0  0  0  0
  -21.8424  -20.4607   21.1930 C   0  0  1  0  0  0  0  0  0  0  0  0
  -22.3919  -24.3706   25.4018 C   0  0  0  0  0  0  0  0  0  0  0  0
  -18.5966  -18.8230   26.6843 C   0  0  0  0  0  0  0  0  0  0  0  0
  -24.1115  -36.0689   24.7242 C   0  0  0  0  0  0  0  0  0  0  0  0
  -26.7894  -30.0647   25.5304 C   0  0  0  0  0  0  0  0  0  0  0  0
  -25.7492  -32.1035   26.5451 C   0  0  0  0  0  0  0  0  0  0  0  0
  -27.8882  -32.2969   25.2762 C   0  0  0  0  0  0  0  0  0  0  0  0
  -23.1278  -35.0445   21.1945 C   0  0  0  0  0  0  0  0  0  0  0  0
  -18.6054  -25.7177   23.6370 C   0  0  0  0  0  0  0  0  0  0  0  0
  -20.0599  -27.2781   22.2025 C   0  0  0  0  0  0  0  0  0  1  0  0
  -19.8312  -18.3809   25.9251 C   0  0  0  0  0  0  0  0  0  0  0  0
  -18.8347  -24.2256   23.8298 C   0  0  0  0  0  0  0  0  0  0  0  0
  -25.7355  -31.8738   24.0196 C   0  0  1  0  0  0  0  0  0  0  0  0
  -24.2398  -35.3042   23.4159 C   0  0  2  0  0  0  0  0  0  0  0  0
  -26.5267  -31.5697   25.3231 C   0  0  0  0  0  0  0  0  0  0  0  0
  -24.2267  -19.9255   20.8634 N   0  0  0  0  0  0  0  0  0  0  0  0
  -23.3049  -20.8611   21.1481 N   0  0  0  0  0  0  0  0  0  0  0  0
  -25.7305  -30.4117   22.0231 N   0  0  0  0  0  0  0  0  0  0  0  0
  -20.1589  -19.0328   22.3388 N   0  0  0  0  0  0  0  0  0  0  0  0
  -23.0416  -23.1573   21.6664 N   0  0  0  0  0  0  0  0  0  0  0  0
  -27.5077  -22.7068   21.1687 N   0  0  0  0  0  0  0  0  0  0  0  0
  -28.1237  -27.9954   20.9444 N   0  0  0  0  0  0  0  0  0  0  0  0
  -25.4958  -33.2934   23.7836 N   0  0  0  0  0  0  0  0  0  0  0  0
  -20.0483  -19.1907   24.7283 N   0  0  0  0  0  0  0  0  0  0  0  0
  -23.1132  -35.7035   22.5258 N   0  3  0  0  0  0  0  0  0  0  0  0
  -25.8288  -24.1908   21.6565 O   0  0  0  0  0  0  0  0  0  0  0  0
  -26.2802  -27.8433   22.3588 O   0  0  0  0  0  0  0  0  0  0  0  0
  -18.4744  -25.7612   21.2228 O   0  0  0  0  0  0  0  0  0  0  0  0
  -27.5614  -31.7711   22.5090 O   0  0  0  0  0  0  0  0  0  0  0  0
  -23.1825  -33.1517   23.7088 O   0  0  0  0  0  0  0  0  0  0  0  0
  -18.3914  -18.1225   23.5270 O   0  0  0  0  0  0  0  0  0  0  0  0
  -30.2237  -18.0088   19.9091 O   0  0  0  0  0  0  0  0  0  0  0  0
  -20.3306  -27.6669   20.8564 O   0  0  0  0  0  0  0  0  0  1  0  0
  -20.2039  -23.9027   23.6201 O   0  0  0  0  0  0  0  0  0  0  0  0
  -30.4491  -14.5687   15.6057 F   0  0  0  0  0  0  0  0  0  0  0  0
  -32.0017  -18.4436   17.8374 F   0  0  0  0  0  0  0  0  0  0  0  0
  1  2  1  0  0  0  0
  1  5  2  0  0  0  0
  2  6  2  0  0  0  0
  3 10  2  0  0  0  0
  3 18  1  0  0  0  0
  4 11  1  0  0  0  0
  4 18  2  0  0  0  0
  5 20  1  0  0  0  0
  6 22  1  0  0  0  0
  7 12  2  0  0  0  0
  7 21  1  0  0  0  0
  8  9  2  0  0  0  0
  8 24  1  0  0  0  0
  9 25  1  0  0  0  0
 10 26  1  0  0  0  0
 11 26  2  0  0  0  0
 12 27  1  0  0  0  0
 13 14  2  0  0  0  0
 13 28  1  0  0  0  0
 14 30  1  0  0  0  0
 15 23  1  0  0  0  0
 15 27  2  0  0  0  0
 16 25  2  0  0  0  0
 16 29  1  0  0  0  0
 17 30  2  0  0  0  0
 17 31  1  0  0  0  0
 18 32  1  0  0  0  0
 19 32  1  0  0  0  0
 19 33  2  0  0  0  0
 19 34  1  0  0  0  0
 20 22  2  0  0  0  0
 20 40  1  0  0  0  0
 21 23  2  0  0  0  0
 21 41  1  0  0  0  0
 22 49  1  0  0  0  0
 23 42  1  0  0  0  0
 24 29  2  0  0  0  0
 24 52  1  0  0  0  0
 25 74  1  0  0  0  0
 26 82  1  0  0  0  0
 27 83  1  0  0  0  0
 28 31  2  0  0  0  0
 28 82  1  0  0  0  0
 29 84  1  0  0  0  0
 30 85  1  0  0  0  0
 31 86  1  0  0  0  0
 32 66  2  0  0  0  0
 33 67  1  0  0  0  0
 33 70  1  0  0  0  0
 34 71  1  0  0  0  0
 34 76  2  0  0  0  0
 35 50  1  0  0  0  0
 35 72  1  0  0  0  0
 35 77  2  0  0  0  0
 36 59  1  0  0  0  0
 36 60  1  0  0  0  0
 36 78  2  0  0  0  0
 37 63  1  0  0  0  0
 37 68  1  0  0  0  0
 37 79  2  0  0  0  0
 38 64  1  0  0  0  0
 38 73  1  0  0  0  0
 38 80  2  0  0  0  0
 39 69  1  0  0  0  0
 39 74  1  0  0  0  0
 39 81  2  0  0  0  0
 40 43  1  0  0  0  0
 41 50  1  0  0  0  0
 42 68  1  0  0  0  0
 43 45  1  0  0  0  0
 44 46  1  0  0  0  0
 44 47  1  0  0  0  0
 45 49  1  0  0  0  0
 46 51  1  0  0  0  0
 47 69  1  0  0  0  0
 48 51  1  0  0  0  0
 48 69  1  0  0  0  0
 49 72  1  0  0  0  0
 50 68  1  0  0  0  0
 51 67  1  0  0  0  0
 53 61  1  0  0  0  0
 54 64  1  0  0  0  0
 55 65  1  0  0  0  0
 56 65  1  0  0  0  0
 57 65  1  0  0  0  0
 58 75  1  0  0  0  0
 59 62  1  0  0  0  0
 60 83  1  0  0  0  0
 61 74  1  0  0  0  0
 62 84  1  0  0  0  0
 63 65  1  0  0  0  0
 63 73  1  0  0  0  0
 64 75  1  0  0  0  0
 66 67  1  0  0  0  0
M  CHG  1  75   1
M  ISO  4  39 100  60 101  74 100  83 101
M  END
> <Batch ID>
0110

> <Smiles>
CC[100N:0](c1ccc(C)c(OCCC(=O)[101CH2:1][101O:1]c2ccc3c(c2)CN(C(=O)C(NC(=O)C(C)NC)C(C)(C)C)C(C(=O)NC2CCCc4ccccc42)C3)c1)[100C:0](=O)N1CCCC(n2nc(-c3ccc(Oc4ccc(F)cc4F)cc3)c(C(N)=O)c2N)C1

> <Shape>
0.233

> <Color>
0.067

> <Negative vol penalty>
0.000

$$$$

  -OEChem-04052301263D

 93102  0     1  0  0  0  0  0999 V2000
  -29.3516  -33.7559   27.2048 C   0  0  0  0  0  0  0  0  0  0  0  0
  -29.7140  -33.2821   25.9480 C   0  0  0  0  0  0  0  0  0  0  0  0
  -23.0658  -10.8085   18.1717 C   0  0  0  0  0  0  0  0  0  0  0  0
  -22.7749  -10.0789   20.4565 C   0  0  0  0  0  0  0  0  0  0  0  0
  -30.2516  -19.3114   19.4137 C   0  0  0  0  0  0  0  0  0  0  0  0
  -28.3304  -33.1286   27.9172 C   0  0  0  0  0  0  0  0  0  0  0  0
  -29.0561  -32.1799   25.4034 C   0  0  0  0  0  0  0  0  0  0  0  0
  -26.9395  -29.4903   19.1103 C   0  0  0  0  0  0  0  0  0  0  0  0
  -29.6049  -20.4922   19.0492 C   0  0  0  0  0  0  0  0  0  0  0  0
  -22.1573   -9.8392   17.7465 C   0  0  0  0  0  0  0  0  0  0  0  0
  -21.8664   -9.1096   20.0313 C   0  0  0  0  0  0  0  0  0  0  0  0
  -27.0242  -28.3212   18.3554 C   0  0  0  0  0  0  0  0  0  0  0  0
  -18.6192   -8.9777   19.1044 C   0  0  0  0  0  0  0  0  0  0  0  0
  -17.4377   -8.8355   19.8320 C   0  0  0  0  0  0  0  0  0  0  0  0
  -28.5550  -18.0285   18.2678 C   0  0  0  0  0  0  0  0  0  0  0  0
  -25.2217  -27.3664   19.6432 C   0  0  0  0  0  0  0  0  0  0  0  0
  -18.0136   -6.5401   20.3185 C   0  0  0  0  0  0  0  0  0  0  0  0
  -23.3746  -10.9283   19.5267 C   0  0  0  0  0  0  0  0  0  0  0  0
  -29.7267  -18.0795   19.0229 C   0  0  0  0  0  0  0  0  0  0  0  0
  -24.0269  -13.2520   20.3527 C   0  0  0  0  0  0  0  0  0  0  0  0
  -27.6531  -32.0241   27.3769 C   0  0  0  0  0  0  0  0  0  0  0  0
  -26.0010  -29.6023   20.1462 C   0  0  0  0  0  0  0  0  0  0  0  0
  -28.0258  -31.5364   26.1098 C   0  0  0  0  0  0  0  0  0  0  0  0
  -25.1254  -28.5389   20.4081 C   0  0  0  0  0  0  0  0  0  0  0  0
  -27.9082  -19.2094   17.9034 C   0  0  0  0  0  0  0  0  0  0  0  0
  -28.4332  -20.4413   18.2941 C   0  0  0  0  0  0  0  0  0  0  0  0
  -21.5576   -8.9898   18.6763 C   0  0  0  0  0  0  0  0  0  0  0  0
  -26.1672  -27.2579   18.6237 C   0  0  0  0  0  0  0  0  0  0  0  0
  -19.4979   -7.9011   18.9838 C   0  0  0  0  0  0  0  0  0  0  0  0
  -17.1349   -7.6167   20.4391 C   0  0  0  0  0  0  0  0  0  0  0  0
  -19.1951   -6.6823   19.5909 C   0  0  0  0  0  0  0  0  0  0  0  0
  -24.3134  -11.9290   19.9665 C   0  0  0  0  0  0  0  0  0  0  0  0
  -25.2491  -13.7865   20.6799 C   0  0  0  0  0  0  0  0  0  0  0  0
  -23.1195  -18.9231   18.1614 C   0  0  0  0  0  0  0  0  0  0  0  0
  -30.4098  -16.8320   19.4091 C   0  0  0  0  0  0  0  0  0  0  0  0
  -27.0864  -25.1281   18.3248 C   0  0  0  0  0  0  0  0  0  1  0  0
  -22.7685  -13.9367   20.4107 C   0  0  0  0  0  0  0  0  0  0  0  0
  -27.2438  -23.9650   17.6813 C   0  0  0  0  0  0  0  0  0  0  0  0
  -28.1883  -22.9448   18.2429 C   0  0  0  0  0  0  0  0  0  0  0  0
  -26.1720  -30.0285   23.2915 C   0  0  0  0  0  0  0  0  0  0  0  0
  -22.9451  -30.2485   23.0447 C   0  0  0  0  0  0  0  0  0  0  0  0
  -20.1148  -29.4900   21.2951 C   0  0  0  0  0  0  0  0  0  0  0  0
  -30.6442  -14.5444   19.4666 C   0  0  0  0  0  0  0  0  0  0  0  0
  -26.5879  -31.3497   28.2046 C   0  0  0  0  0  0  0  0  0  0  0  0
  -25.9045  -30.8801   20.9337 C   0  0  0  0  0  0  0  0  0  0  0  0
  -24.0867  -28.6165   21.4960 C   0  0  0  0  0  0  0  0  0  0  0  0
  -23.7869  -18.6283   19.4756 C   0  0  0  0  0  0  0  0  0  0  0  0
  -25.6871  -30.4189   27.3969 C   0  0  0  0  0  0  0  0  0  0  0  0
  -29.7505  -11.5889   21.3297 C   0  0  0  0  0  0  0  0  0  0  0  0
  -26.5228  -29.5251   26.4861 C   0  0  0  0  0  0  0  0  0  0  0  0
  -28.2358  -11.5051   21.1419 C   0  0  0  0  0  0  0  0  0  0  0  0
  -30.4399  -12.1358   20.0834 C   0  0  0  0  0  0  0  0  0  0  0  0
  -28.3915  -13.3773   19.4419 C   0  0  0  0  0  0  0  0  0  0  0  0
  -25.2436  -18.4717   19.0733 C   0  0  0  0  0  0  0  0  0  0  0  0
  -27.3190  -30.3586   25.4747 C   0  0  1  0  0  0  0  0  0  0  0  0
  -24.1266  -19.3143   17.1044 C   0  0  1  0  0  0  0  0  0  0  0  0
  -25.2562  -30.6914   22.3017 C   0  0  1  0  0  0  0  0  0  0  0  0
  -27.6588  -12.8589   20.6911 C   0  0  1  0  0  0  0  0  0  0  0  0
  -22.5227  -20.6277   15.7079 C   0  0  0  0  0  0  0  0  0  0  0  0
  -17.6223  -29.7732   21.3620 C   0  0  0  0  0  0  0  0  0  0  0  0
  -22.7590  -28.0838   25.1870 C   0  0  0  0  0  0  0  0  0  0  0  0
  -20.3662  -27.7416   24.5345 C   0  0  0  0  0  0  0  0  0  0  0  0
  -21.1077  -29.9451   25.4385 C   0  0  0  0  0  0  0  0  0  0  0  0
  -20.1016  -30.9987   18.7491 C   0  0  0  0  0  0  0  0  0  0  0  0
  -26.6546  -19.1254   17.0946 C   0  0  0  0  0  0  0  0  0  0  0  0
  -23.8114  -20.6540   16.4712 C   0  0  0  0  0  0  0  0  0  0  0  0
  -21.7991  -29.2675   23.1029 C   0  0  1  0  0  0  0  0  0  0  0  0
  -18.9389  -30.3464   20.8613 C   0  0  2  0  0  0  0  0  0  0  0  0
  -21.5288  -28.7570   24.5465 C   0  0  0  0  0  0  0  0  0  0  0  0
  -25.6155  -11.6406   20.0407 N   0  0  0  0  0  0  0  0  0  0  0  0
  -29.9520  -15.6720   19.0681 N   0  0  0  0  0  0  0  0  0  0  0  0
  -26.1580  -12.7900   20.4773 N   0  0  0  0  0  0  0  0  0  0  0  0
  -24.0358  -29.8844   22.2424 N   0  0  0  0  0  0  0  0  0  0  0  0
  -29.8429  -13.4053   19.6663 N   0  0  0  0  0  0  0  0  0  0  0  0
  -25.6243  -15.0070   21.1181 N   0  0  0  0  0  0  0  0  0  0  0  0
  -21.6108  -13.2393   20.0398 N   0  0  0  0  0  0  0  0  0  0  0  0
  -27.7915  -21.6509   17.9343 N   0  0  0  0  0  0  0  0  0  0  0  0
  -26.4596  -30.8036   24.3987 N   0  0  0  0  0  0  0  0  0  0  0  0
  -20.6596  -29.9337   22.4816 N   0  0  0  0  0  0  0  0  0  0  0  0
  -25.4180  -19.3990   17.8906 N   0  3  2  0  0  0  0  0  0  0  0  0
  -18.8798  -30.4302   19.3745 N   0  3  0  0  0  0  0  0  0  0  0  0
  -21.9096  -18.8757   17.9827 O   0  0  0  0  0  0  0  0  0  0  0  0
  -22.6756  -15.1365   20.7647 O   0  0  0  0  0  0  0  0  0  0  0  0
  -29.1737  -23.2863   18.8880 O   0  0  0  0  0  0  0  0  0  0  0  0
  -26.5859  -28.8969   23.0679 O   0  0  0  0  0  0  0  0  0  0  0  0
  -22.8721  -31.3022   23.6818 O   0  0  0  0  0  0  0  0  0  0  0  0
  -20.5082  -28.5218   20.6483 O   0  0  0  0  0  0  0  0  0  0  0  0
  -31.8655  -14.5111   19.6349 O   0  0  0  0  0  0  0  0  0  0  0  0
  -26.5678  -23.6640   16.5163 O   0  0  0  0  0  0  0  0  0  0  0  0
  -20.6709   -8.0441   18.2617 O   0  0  0  0  0  0  0  0  0  0  0  0
  -26.2481  -26.1154   17.8889 O   0  0  0  0  0  0  0  0  0  1  0  0
  -16.0010   -7.4808   21.1391 F   0  0  0  0  0  0  0  0  0  0  0  0
  -20.0359   -5.6448   19.4795 F   0  0  0  0  0  0  0  0  0  0  0  0
  1  2  1  0  0  0  0
  1  6  2  0  0  0  0
  2  7  2  0  0  0  0
  3 10  2  0  0  0  0
  3 18  1  0  0  0  0
  4 11  1  0  0  0  0
  4 18  2  0  0  0  0
  5  9  2  0  0  0  0
  5 19  1  0  0  0  0
  6 21  1  0  0  0  0
  7 23  1  0  0  0  0
  8 12  2  0  0  0  0
  8 22  1  0  0  0  0
  9 26  1  0  0  0  0
 10 27  1  0  0  0  0
 11 27  2  0  0  0  0
 12 28  1  0  0  0  0
 13 14  2  0  0  0  0
 13 29  1  0  0  0  0
 14 30  1  0  0  0  0
 15 19  2  0  0  0  0
 15 25  1  0  0  0  0
 16 24  1  0  0  0  0
 16 28  2  0  0  0  0
 17 30  2  0  0  0  0
 17 31  1  0  0  0  0
 18 32  1  0  0  0  0
 19 35  1  0  0  0  0
 20 32  1  0  0  0  0
 20 33  2  0  0  0  0
 20 37  1  0  0  0  0
 21 23  2  0  0  0  0
 21 44  1  0  0  0  0
 22 24  2  0  0  0  0
 22 45  1  0  0  0  0
 23 55  1  0  0  0  0
 24 46  1  0  0  0  0
 25 26  2  0  0  0  0
 25 65  1  0  0  0  0
 26 77  1  0  0  0  0
 27 90  1  0  0  0  0
 28 91  1  0  0  0  0
 29 31  2  0  0  0  0
 29 90  1  0  0  0  0
 30 92  1  0  0  0  0
 31 93  1  0  0  0  0
 32 70  2  0  0  0  0
 33 72  1  0  0  0  0
 33 75  1  0  0  0  0
 34 47  1  0  0  0  0
 34 56  1  0  0  0  0
 34 82  2  0  0  0  0
 35 71  2  0  0  0  0
 36 38  2  0  0  0  0
 36 91  1  0  0  0  0
 37 76  1  0  0  0  0
 37 83  2  0  0  0  0
 38 39  1  0  0  0  0
 38 89  1  0  0  0  0
 39 77  1  0  0  0  0
 39 84  2  0  0  0  0
 40 57  1  0  0  0  0
 40 78  1  0  0  0  0
 40 85  2  0  0  0  0
 41 67  1  0  0  0  0
 41 73  1  0  0  0  0
 41 86  2  0  0  0  0
 42 68  1  0  0  0  0
 42 79  1  0  0  0  0
 42 87  2  0  0  0  0
 43 71  1  0  0  0  0
 43 74  1  0  0  0  0
 43 88  2  0  0  0  0
 44 48  1  0  0  0  0
 45 57  1  0  0  0  0
 46 73  1  0  0  0  0
 47 54  1  0  0  0  0
 48 50  1  0  0  0  0
 49 51  1  0  0  0  0
 49 52  1  0  0  0  0
 50 55  1  0  0  0  0
 51 58  1  0  0  0  0
 52 74  1  0  0  0  0
 53 58  1  0  0  0  0
 53 74  1  0  0  0  0
 54 80  1  0  0  0  0
 55 78  1  0  0  0  0
 56 66  1  0  0  0  0
 56 80  1  0  0  0  0
 57 73  1  0  0  0  0
 58 72  1  0  0  0  0
 59 66  1  0  0  0  0
 60 68  1  0  0  0  0
 61 69  1  0  0  0  0
 62 69  1  0  0  0  0
 63 69  1  0  0  0  0
 64 81  1  0  0  0  0
 65 80  1  0  0  0  0
 67 69  1  0  0  0  0
 67 79  1  0  0  0  0
 68 81  1  0  0  0  0
 70 72  1  0  0  0  0
M  CHG  2  80   1  81   1
M  ISO  4  36 101  43 100  71 100  91 101
M  END
> <Batch ID>
0110

> <Smiles>
CCC1C(=O)CCN1Cc1cc(C=[100N:0][100C:0](=O)N2CCCC(n3nc(-c4ccc(Oc5ccc(F)cc5F)cc4)c(C(N)=O)c3N)C2)ccc1NC(=O)C(=O)[101CH2:1][101O:1]c1ccc2c(c1)CN(C(=O)C(NC(=O)C(C)NC)C(C)(C)C)C(C(=O)NC1CCCc3ccccc31)C2

> <Shape>
0.264

> <Color>
0.135

> <Negative vol penalty>
0.000

$$$$

  -OEChem-04052301263D

 84 92  0     1  0  0  0  0  0999 V2000
  -29.7436  -30.3506   26.2696 C   0  0  0  0  0  0  0  0  0  0  0  0
  -29.3477  -29.3840   25.3508 C   0  0  0  0  0  0  0  0  0  0  0  0
  -22.9133  -10.7811   19.4994 C   0  0  0  0  0  0  0  0  0  0  0  0
  -23.5488   -9.8318   21.6283 C   0  0  0  0  0  0  0  0  0  0  0  0
  -28.7865  -31.1426   26.9025 C   0  0  0  0  0  0  0  0  0  0  0  0
  -27.9942  -29.2079   25.0653 C   0  0  0  0  0  0  0  0  0  0  0  0
  -27.0992  -28.7518   20.1018 C   0  0  0  0  0  0  0  0  0  0  0  0
  -22.0014   -9.7431   19.3087 C   0  0  0  0  0  0  0  0  0  0  0  0
  -22.6368   -8.7938   21.4376 C   0  0  0  0  0  0  0  0  0  0  0  0
  -27.3759  -27.5175   19.5157 C   0  0  0  0  0  0  0  0  0  0  0  0
  -22.4806   -5.9047   19.6885 C   0  0  0  0  0  0  0  0  0  0  0  0
  -22.9067   -4.6073   19.9725 C   0  0  0  0  0  0  0  0  0  0  0  0
  -25.0329  -26.9521   19.6143 C   0  0  0  0  0  0  0  0  0  0  0  0
  -26.8105  -19.9258   19.0321 C   0  0  0  0  0  0  0  0  0  0  0  0
  -28.1850  -20.9319   17.3189 C   0  0  0  0  0  0  0  0  0  0  0  0
  -21.1627   -4.3975   21.6312 C   0  0  0  0  0  0  0  0  0  0  0  0
  -23.6871  -10.8255   20.6592 C   0  0  0  0  0  0  0  0  0  0  0  0
  -28.7451  -18.7491   18.1897 C   0  0  0  0  0  0  0  0  0  0  0  0
  -24.3900  -13.1360   21.4807 C   0  0  0  0  0  0  0  0  0  0  0  0
  -27.4213  -30.9828   26.6174 C   0  0  0  0  0  0  0  0  0  0  0  0
  -25.7865  -29.0918   20.4591 C   0  0  0  0  0  0  0  0  0  0  0  0
  -27.0178  -29.9976   25.6960 C   0  0  0  0  0  0  0  0  0  0  0  0
  -24.7418  -28.1925   20.2024 C   0  0  0  0  0  0  0  0  0  0  0  0
  -27.0820  -20.9888   18.1708 C   0  0  0  0  0  0  0  0  0  0  0  0
  -27.6421  -18.8059   19.0416 C   0  0  0  0  0  0  0  0  0  0  0  0
  -21.8630   -8.7494   20.2778 C   0  0  0  0  0  0  0  0  0  0  0  0
  -26.3432  -26.6162   19.2745 C   0  0  0  0  0  0  0  0  0  0  0  0
  -21.3955   -6.4486   20.3759 C   0  0  0  0  0  0  0  0  0  0  0  0
  -29.0166  -19.8121   17.3283 C   0  0  0  0  0  0  0  0  0  0  0  0
  -22.2478   -3.8537   20.9438 C   0  0  0  0  0  0  0  0  0  0  0  0
  -20.7365   -5.6950   21.3472 C   0  0  0  0  0  0  0  0  0  0  0  0
  -24.6297  -11.8972   20.8565 C   0  0  0  0  0  0  0  0  0  0  0  0
  -25.5946  -13.7925   21.4148 C   0  0  0  0  0  0  0  0  0  0  0  0
  -29.6293  -17.5701   18.1909 C   0  0  0  0  0  0  0  0  0  0  0  0
  -26.5704  -23.0648   18.9796 C   0  0  0  0  0  0  0  0  0  0  0  0
  -23.1861  -13.6476   22.0677 C   0  0  0  0  0  0  0  0  0  0  0  0
  -24.3117  -29.7801   23.1895 C   0  0  0  0  0  0  0  0  0  0  0  0
  -21.8146  -30.4320   21.2244 C   0  0  0  0  0  0  0  0  0  0  0  0
  -20.2859  -29.9236   18.2158 C   0  0  0  0  0  0  0  0  0  0  0  0
  -30.0757  -15.3301   18.4638 C   0  0  0  0  0  0  0  0  0  0  0  0
  -26.4202  -31.8302   27.3619 C   0  0  0  0  0  0  0  0  0  0  0  0
  -25.5008  -30.4381   21.0661 C   0  0  0  0  0  0  0  0  0  0  0  0
  -23.3125  -28.5176   20.5487 C   0  0  0  0  0  0  0  0  0  0  0  0
  -25.0330  -31.8353   26.7247 C   0  0  0  0  0  0  0  0  0  0  0  0
  -30.1943  -12.1394   20.1402 C   0  0  0  0  0  0  0  0  0  0  0  0
  -24.6050  -30.4157   26.3663 C   0  0  0  0  0  0  0  0  0  0  0  0
  -28.7305  -11.8794   20.4954 C   0  0  0  0  0  0  0  0  0  0  0  0
  -30.3258  -12.8720   18.8084 C   0  0  0  0  0  0  0  0  0  0  0  0
  -28.0842  -13.8918   19.0982 C   0  0  0  0  0  0  0  0  0  0  0  0
  -25.5609  -29.7935   25.3413 C   0  0  1  0  0  0  0  0  0  0  0  0
  -24.1987  -30.4713   21.8602 C   0  0  1  0  0  0  0  0  0  0  0  0
  -27.9112  -13.1816   20.4516 C   0  0  1  0  0  0  0  0  0  0  0  0
  -18.2381  -30.5628   16.9138 C   0  0  0  0  0  0  0  0  0  0  0  0
  -20.1434  -28.5244   22.9209 C   0  0  0  0  0  0  0  0  0  0  0  0
  -18.4581  -28.4662   21.0704 C   0  0  0  0  0  0  0  0  0  0  0  0
  -18.9596  -30.6166   22.2310 C   0  0  0  0  0  0  0  0  0  0  0  0
  -21.8978  -31.1755   16.0726 C   0  0  0  0  0  0  0  0  0  0  0  0
  -29.8797  -19.2199   15.1929 C   0  0  0  0  0  0  0  0  0  0  0  0
  -25.7567  -24.3221   19.0533 C   0  0  0  0  0  0  0  0  0  1  0  0
  -20.6697  -29.6334   20.6495 C   0  0  1  0  0  0  0  0  0  0  0  0
  -19.6923  -30.8942   17.2108 C   0  0  2  0  0  0  0  0  0  0  0  0
  -19.5848  -29.3029   21.7131 C   0  0  0  0  0  0  0  0  0  0  0  0
  -25.8877  -11.7718   20.4256 N   0  0  0  0  0  0  0  0  0  0  0  0
  -26.2448  -22.1173   18.1625 N   0  0  0  0  0  0  0  0  0  0  0  0
  -29.1891  -16.3898   18.4814 N   0  0  0  0  0  0  0  0  0  0  0  0
  -26.4493  -12.9403   20.7796 N   0  0  0  0  0  0  0  0  0  0  0  0
  -23.0849  -29.8438   21.1460 N   0  0  0  0  0  0  0  0  0  0  0  0
  -29.5078  -14.0855   18.7926 N   0  0  0  0  0  0  0  0  0  0  0  0
  -27.3477  -17.7407   19.9220 N   0  0  0  0  0  0  0  0  0  0  0  0
  -25.9956  -15.0099   21.8388 N   0  0  0  0  0  0  0  0  0  0  0  0
  -22.0394  -12.8420   22.0499 N   0  0  0  0  0  0  0  0  0  0  0  0
  -25.2853  -30.3069   24.0166 N   0  0  0  0  0  0  0  0  0  0  0  0
  -20.1746  -30.3939   19.5072 N   0  0  0  0  0  0  0  0  0  0  0  0
  -20.4558  -30.8469   15.9318 N   0  3  0  0  0  0  0  0  0  0  0  0
  -23.1245  -14.7919   22.5778 O   0  0  0  0  0  0  0  0  0  0  0  0
  -23.5695  -28.8394   23.4465 O   0  0  0  0  0  0  0  0  0  0  0  0
  -21.5911  -31.5401   21.7182 O   0  0  0  0  0  0  0  0  0  0  0  0
  -20.7940  -28.8535   17.8884 O   0  0  0  0  0  0  0  0  0  0  0  0
  -31.2712  -15.4386   18.1805 O   0  0  0  0  0  0  0  0  0  0  0  0
  -20.9731   -7.7365   20.0922 O   0  0  0  0  0  0  0  0  0  0  0  0
  -30.0893  -19.7784   16.4880 O   0  0  0  0  0  0  0  0  0  0  0  0
  -26.6106  -25.4105   18.7031 O   0  0  0  0  0  0  0  0  0  1  0  0
  -22.6562   -2.6072   21.2154 F   0  0  0  0  0  0  0  0  0  0  0  0
  -19.6927   -6.2116   22.0100 F   0  0  0  0  0  0  0  0  0  0  0  0
  1  2  1  0  0  0  0
  1  5  2  0  0  0  0
  2  6  2  0  0  0  0
  3  8  2  0  0  0  0
  3 17  1  0  0  0  0
  4  9  1  0  0  0  0
  4 17  2  0  0  0  0
  5 20  1  0  0  0  0
  6 22  1  0  0  0  0
  7 10  2  0  0  0  0
  7 21  1  0  0  0  0
  8 26  1  0  0  0  0
  9 26  2  0  0  0  0
 10 27  1  0  0  0  0
 11 12  2  0  0  0  0
 11 28  1  0  0  0  0
 12 30  1  0  0  0  0
 13 23  1  0  0  0  0
 13 27  2  0  0  0  0
 14 24  1  0  0  0  0
 14 25  2  0  0  0  0
 15 24  2  0  0  0  0
 15 29  1  0  0  0  0
 16 30  2  0  0  0  0
 16 31  1  0  0  0  0
 17 32  1  0  0  0  0
 18 25  1  0  0  0  0
 18 29  2  0  0  0  0
 18 34  1  0  0  0  0
 19 32  1  0  0  0  0
 19 33  2  0  0  0  0
 19 36  1  0  0  0  0
 20 22  2  0  0  0  0
 20 41  1  0  0  0  0
 21 23  2  0  0  0  0
 21 42  1  0  0  0  0
 22 50  1  0  0  0  0
 23 43  1  0  0  0  0
 24 64  1  0  0  0  0
 25 69  1  0  0  0  0
 26 80  1  0  0  0  0
 27 82  1  0  0  0  0
 28 31  2  0  0  0  0
 28 80  1  0  0  0  0
 29 81  1  0  0  0  0
 30 83  1  0  0  0  0
 31 84  1  0  0  0  0
 32 63  2  0  0  0  0
 33 66  1  0  0  0  0
 33 70  1  0  0  0  0
 34 65  2  0  0  0  0
 35 59  1  0  0  0  0
 35 64  2  0  0  0  0
 36 71  1  0  0  0  0
 36 75  2  0  0  0  0
 37 51  1  0  0  0  0
 37 72  1  0  0  0  0
 37 76  2  0  0  0  0
 38 60  1  0  0  0  0
 38 67  1  0  0  0  0
 38 77  2  0  0  0  0
 39 61  1  0  0  0  0
 39 73  1  0  0  0  0
 39 78  2  0  0  0  0
 40 65  1  0  0  0  0
 40 68  1  0  0  0  0
 40 79  2  0  0  0  0
 41 44  1  0  0  0  0
 42 51  1  0  0  0  0
 43 67  1  0  0  0  0
 44 46  1  0  0  0  0
 45 47  1  0  0  0  0
 45 48  1  0  0  0  0
 46 50  1  0  0  0  0
 47 52  1  0  0  0  0
 48 68  1  0  0  0  0
 49 52  1  0  0  0  0
 49 68  1  0  0  0  0
 50 72  1  0  0  0  0
 51 67  1  0  0  0  0
 52 66  1  0  0  0  0
 53 61  1  0  0  0  0
 54 62  1  0  0  0  0
 55 62  1  0  0  0  0
 56 62  1  0  0  0  0
 57 74  1  0  0  0  0
 58 81  1  0  0  0  0
 59 82  1  0  0  0  0
 60 62  1  0  0  0  0
 60 73  1  0  0  0  0
 61 74  1  0  0  0  0
 63 66  1  0  0  0  0
M  CHG  1  74   1
M  ISO  4  40 100  59 101  65 100  82 101
M  END
> <Batch ID>
0110

> <Smiles>
CNC(C)C(=O)NC(C(=O)N1Cc2cc([101O:1][101CH:1]=CNc3cc(N)c(C=[100N:0][100C:0](=O)N4CCCC(n5nc(-c6ccc(Oc7ccc(F)cc7F)cc6)c(C(N)=O)c5N)C4)c(OC)c3)ccc2CC1C(=O)NC1CCCc2ccccc21)C(C)(C)C

> <Shape>
0.292

> <Color>
0.129

> <Negative vol penalty>
0.000

$$$$

  -OEChem-04052301263D

 89 97  0     1  0  0  0  0  0999 V2000
  -30.1267  -37.1123   23.5211 C   0  0  0  0  0  0  0  0  0  0  0  0
  -30.3411  -35.9095   22.8556 C   0  0  0  0  0  0  0  0  0  0  0  0
  -23.7376  -15.8869   20.6736 C   0  0  0  0  0  0  0  0  0  0  0  0
  -23.8042  -15.1897   18.3613 C   0  0  0  0  0  0  0  0  0  0  0  0
  -29.2161  -37.1718   24.5752 C   0  0  0  0  0  0  0  0  0  0  0  0
  -29.6456  -34.7652   23.2446 C   0  0  0  0  0  0  0  0  0  0  0  0
  -27.6579  -30.2525   19.6128 C   0  0  0  0  0  0  0  0  0  0  0  0
  -23.0573  -17.0471   20.3042 C   0  0  0  0  0  0  0  0  0  0  0  0
  -23.1238  -16.3500   17.9919 C   0  0  0  0  0  0  0  0  0  0  0  0
  -28.1783  -28.9955   19.3082 C   0  0  0  0  0  0  0  0  0  0  0  0
  -23.8104  -20.0524   18.9531 C   0  0  0  0  0  0  0  0  0  0  0  0
  -24.2336  -21.2573   19.5141 C   0  0  0  0  0  0  0  0  0  0  0  0
  -26.7695  -28.0089   20.9997 C   0  0  0  0  0  0  0  0  0  0  0  0
  -29.3236  -19.6264   18.7026 C   0  0  0  0  0  0  0  0  0  0  0  0
  -31.0177  -18.4228   20.5638 C   0  0  0  0  0  0  0  0  0  0  0  0
  -22.0452  -21.5724   20.4881 C   0  0  0  0  0  0  0  0  0  0  0  0
  -24.1111  -14.9581   19.7022 C   0  0  0  0  0  0  0  0  0  0  0  0
  -24.2505  -12.5202   20.4403 C   0  0  0  0  0  0  0  0  0  0  0  0
  -28.5020  -36.0298   24.9710 C   0  0  0  0  0  0  0  0  0  0  0  0
  -26.6957  -30.3989   20.6224 C   0  0  0  0  0  0  0  0  0  0  0  0
  -28.7256  -34.8092   24.3059 C   0  0  0  0  0  0  0  0  0  0  0  0
  -26.2366  -29.2685   21.3134 C   0  0  0  0  0  0  0  0  0  0  0  0
  -29.4289  -18.2365   18.7533 C   0  0  0  0  0  0  0  0  0  0  0  0
  -30.0654  -20.4146   19.5825 C   0  0  0  0  0  0  0  0  0  0  0  0
  -30.2759  -17.6347   19.6839 C   0  0  0  0  0  0  0  0  0  0  0  0
  -22.7503  -17.2787   18.9634 C   0  0  0  0  0  0  0  0  0  0  0  0
  -27.7363  -27.8738   20.0036 C   0  0  0  0  0  0  0  0  0  0  0  0
  -22.5046  -19.6075   19.1596 C   0  0  0  0  0  0  0  0  0  0  0  0
  -23.3510  -22.0173   20.2816 C   0  0  0  0  0  0  0  0  0  0  0  0
  -30.9125  -19.8128   20.5131 C   0  0  0  0  0  0  0  0  0  0  0  0
  -21.6220  -20.3675   19.9270 C   0  0  0  0  0  0  0  0  0  0  0  0
  -24.8144  -13.7596   20.0831 C   0  0  0  0  0  0  0  0  0  0  0  0
  -25.3309  -11.7171   20.7127 C   0  0  0  0  0  0  0  0  0  0  0  0
  -22.8732  -12.1298   20.5189 C   0  0  0  0  0  0  0  0  0  0  0  0
  -26.5710  -31.9491   23.3945 C   0  0  0  0  0  0  0  0  0  0  0  0
  -23.4846  -30.9512   23.3685 C   0  0  0  0  0  0  0  0  0  0  0  0
  -31.6238  -15.5457   19.5516 C   0  0  0  0  0  0  0  0  0  0  0  0
  -29.1673  -22.5835   18.6706 C   0  0  0  0  0  0  0  0  0  0  0  0
  -21.1763  -28.7020   22.2463 C   0  0  0  0  0  0  0  0  0  0  0  0
  -29.3194  -15.4806   20.3113 C   0  0  0  0  0  0  0  0  0  0  0  0
  -27.5630  -36.1322   26.1468 C   0  0  0  0  0  0  0  0  0  0  0  0
  -26.1246  -31.7581   20.9206 C   0  0  0  0  0  0  0  0  0  0  0  0
  -25.1903  -29.3693   22.3922 C   0  0  0  0  0  0  0  0  0  0  0  0
  -26.5902  -34.9606   26.2532 C   0  0  0  0  0  0  0  0  0  0  0  0
  -28.8772  -12.3857   18.3454 C   0  0  0  0  0  0  0  0  0  0  0  0
  -27.3264  -33.6372   26.0707 C   0  0  0  0  0  0  0  0  0  0  0  0
  -28.4410  -11.3945   19.4178 C   0  0  0  0  0  0  0  0  0  0  0  0
  -29.8485  -13.4250   18.8953 C   0  0  0  0  0  0  0  0  0  0  0  0
  -28.8324  -13.2027   21.1599 C   0  0  0  0  0  0  0  0  0  0  0  0
  -27.9721  -33.5519   24.6824 C   0  0  1  0  0  0  0  0  0  0  0  0
  -25.5249  -31.8603   22.3196 C   0  0  1  0  0  0  0  0  0  0  0  0
  -27.8907  -12.0859   20.6745 C   0  0  1  0  0  0  0  0  0  0  0  0
  -32.4497  -15.9932   18.3650 C   0  0  0  0  0  0  0  0  0  0  0  0
  -27.1581  -17.3207   18.2136 C   0  0  0  0  0  0  0  0  0  0  0  0
  -18.7416  -28.1215   22.4270 C   0  0  0  0  0  0  0  0  0  0  0  0
  -23.9746  -29.7686   26.1383 C   0  0  0  0  0  0  0  0  0  0  0  0
  -21.8829  -28.4218   25.8568 C   0  0  0  0  0  0  0  0  0  0  0  0
  -21.7677  -30.9136   25.8684 C   0  0  0  0  0  0  0  0  0  0  0  0
  -20.7464  -29.1021   19.3456 C   0  0  0  0  0  0  0  0  0  0  0  0
  -28.6228  -17.4168   17.7985 C   0  0  0  0  0  0  0  0  0  0  0  0
  -29.3496  -24.0689   18.9502 C   0  0  0  0  0  0  0  0  0  0  0  0
  -28.5040  -24.9471   18.0345 C   0  0  0  0  0  0  0  0  0  0  0  0
  -28.6667  -26.4238   18.3642 C   0  0  0  0  0  0  0  0  0  1  0  0
  -22.7524  -29.7277   23.8644 C   0  0  1  0  0  0  0  0  0  0  0  0
  -19.7951  -28.8909   21.6454 C   0  0  2  0  0  0  0  0  0  0  0  0
  -22.6155  -29.7060   25.4130 C   0  0  0  0  0  0  0  0  0  0  0  0
  -26.1494  -13.7497   20.1240 N   0  0  0  0  0  0  0  0  0  0  0  0
  -26.4334  -12.4942   20.5102 N   0  0  0  0  0  0  0  0  0  0  0  0
  -24.6672  -30.7208   22.6516 N   0  0  0  0  0  0  0  0  0  0  0  0
  -29.3282  -14.0852   20.0995 N   0  0  0  0  0  0  0  0  0  0  0  0
  -25.4360  -10.4292   21.1033 N   0  0  0  0  0  0  0  0  0  0  0  0
  -21.8907  -13.0788   20.2052 N   0  0  0  0  0  0  0  0  0  0  0  0
  -29.9575  -21.8246   19.5294 N   0  0  0  0  0  0  0  0  0  0  0  0
  -26.9761  -33.2390   23.6802 N   0  0  0  0  0  0  0  0  0  0  0  0
  -21.4798  -29.6967   23.1516 N   0  0  0  0  0  0  0  0  0  0  0  0
  -30.3999  -16.1987   19.7521 N   0  0  0  0  0  0  0  0  0  0  0  0
  -19.7746  -28.4137   20.2337 N   0  3  0  0  0  0  0  0  0  0  0  0
  -22.5236  -10.9783   20.8731 O   0  0  0  0  0  0  0  0  0  0  0  0
  -26.9792  -30.9234   23.9265 O   0  0  0  0  0  0  0  0  0  0  0  0
  -23.0204  -32.0699   23.6024 O   0  0  0  0  0  0  0  0  0  0  0  0
  -32.0251  -14.6166   20.2581 O   0  0  0  0  0  0  0  0  0  0  0  0
  -28.4130  -22.1736   17.7946 O   0  0  0  0  0  0  0  0  0  0  0  0
  -21.9108  -27.7636   21.9456 O   0  0  0  0  0  0  0  0  0  0  0  0
  -28.4578  -16.0436   20.9980 O   0  0  0  0  0  0  0  0  0  0  0  0
  -22.0862  -18.4107   18.6026 O   0  0  0  0  0  0  0  0  0  0  0  0
  -28.2431  -26.6458   19.7087 O   0  0  0  0  0  0  0  0  0  1  0  0
  -23.7579  -23.1736   20.8215 F   0  0  0  0  0  0  0  0  0  0  0  0
  -31.6292  -20.5612   21.3638 F   0  0  0  0  0  0  0  0  0  0  0  0
  -20.3666  -19.9447   20.1298 F   0  0  0  0  0  0  0  0  0  0  0  0
  1  2  1  0  0  0  0
  1  5  2  0  0  0  0
  2  6  2  0  0  0  0
  3  8  2  0  0  0  0
  3 17  1  0  0  0  0
  4  9  1  0  0  0  0
  4 17  2  0  0  0  0
  5 19  1  0  0  0  0
  6 21  1  0  0  0  0
  7 10  2  0  0  0  0
  7 20  1  0  0  0  0
  8 26  1  0  0  0  0
  9 26  2  0  0  0  0
 10 27  1  0  0  0  0
 11 12  2  0  0  0  0
 11 28  1  0  0  0  0
 12 29  1  0  0  0  0
 13 22  1  0  0  0  0
 13 27  2  0  0  0  0
 14 23  1  0  0  0  0
 14 24  2  0  0  0  0
 15 25  1  0  0  0  0
 15 30  2  0  0  0  0
 16 29  2  0  0  0  0
 16 31  1  0  0  0  0
 17 32  1  0  0  0  0
 18 32  1  0  0  0  0
 18 33  2  0  0  0  0
 18 34  1  0  0  0  0
 19 21  2  0  0  0  0
 19 41  1  0  0  0  0
 20 22  2  0  0  0  0
 20 42  1  0  0  0  0
 21 50  1  0  0  0  0
 22 43  1  0  0  0  0
 23 25  2  0  0  0  0
 23 60  1  0  0  0  0
 24 30  1  0  0  0  0
 24 73  1  0  0  0  0
 25 76  1  0  0  0  0
 26 85  1  0  0  0  0
 27 86  1  0  0  0  0
 28 31  2  0  0  0  0
 28 85  1  0  0  0  0
 29 87  1  0  0  0  0
 30 88  1  0  0  0  0
 31 89  1  0  0  0  0
 32 67  2  0  0  0  0
 33 68  1  0  0  0  0
 33 71  1  0  0  0  0
 34 72  1  0  0  0  0
 34 78  2  0  0  0  0
 35 51  1  0  0  0  0
 35 74  1  0  0  0  0
 35 79  2  0  0  0  0
 36 64  1  0  0  0  0
 36 69  1  0  0  0  0
 36 80  2  0  0  0  0
 37 53  1  0  0  0  0
 37 76  1  0  0  0  0
 37 81  2  0  0  0  0
 38 61  1  0  0  0  0
 38 73  1  0  0  0  0
 38 82  2  0  0  0  0
 39 65  1  0  0  0  0
 39 75  1  0  0  0  0
 39 83  2  0  0  0  0
 40 70  1  0  0  0  0
 40 76  1  0  0  0  0
 40 84  2  0  0  0  0
 41 44  1  0  0  0  0
 42 51  1  0  0  0  0
 43 69  1  0  0  0  0
 44 46  1  0  0  0  0
 45 47  1  0  0  0  0
 45 48  1  0  0  0  0
 46 50  1  0  0  0  0
 47 52  1  0  0  0  0
 48 70  1  0  0  0  0
 49 52  1  0  0  0  0
 49 70  1  0  0  0  0
 50 74  1  0  0  0  0
 51 69  1  0  0  0  0
 52 68  1  0  0  0  0
 54 60  1  0  0  0  0
 55 65  1  0  0  0  0
 56 66  1  0  0  0  0
 57 66  1  0  0  0  0
 58 66  1  0  0  0  0
 59 77  1  0  0  0  0
 61 62  1  0  0  0  0
 62 63  1  0  0  0  0
 63 86  1  0  0  0  0
 64 66  1  0  0  0  0
 64 75  1  0  0  0  0
 65 77  1  0  0  0  0
 67 68  1  0  0  0  0
M  CHG  1  77   1
M  ISO  4  40 100  63 101  76 100  86 101
M  END
> <Batch ID>
0110

> <Smiles>
CCc1cc(NC(=O)CC[101CH2:1][101O:1]c2ccc3c(c2)CN(C(=O)C(NC(=O)C(C)NC)C(C)(C)C)C(C(=O)NC2CCCc4ccccc42)C3)c(F)cc1[100N:0](C(C)=O)[100C:0](=O)N1CCCC(n2nc(-c3ccc(Oc4ccc(F)cc4F)cc3)c(C(N)=O)c2N)C1

> <Shape>
0.295

> <Color>
0.108

> <Negative vol penalty>
0.000

$$$$

  -OEChem-04052301263D

 89 97  0     1  0  0  0  0  0999 V2000
  -23.2488   -7.4314   21.5552 C   0  0  0  0  0  0  0  0  0  0  0  0
  -24.0724   -8.4341   21.0534 C   0  0  0  0  0  0  0  0  0  0  0  0
  -22.6672  -28.5671   21.2187 C   0  0  0  0  0  0  0  0  0  0  0  0
  -23.8139  -30.6007   21.8404 C   0  0  0  0  0  0  0  0  0  0  0  0
  -21.9164   -7.7108   21.8561 C   0  0  0  0  0  0  0  0  0  0  0  0
  -23.5637   -9.7166   20.8511 C   0  0  0  0  0  0  0  0  0  0  0  0
  -26.6868  -13.3325   22.5293 C   0  0  0  0  0  0  0  0  0  0  0  0
  -21.4412  -29.2211   21.3406 C   0  0  0  0  0  0  0  0  0  0  0  0
  -22.5879  -31.2548   21.9622 C   0  0  0  0  0  0  0  0  0  0  0  0
  -27.7832  -13.6489   21.7284 C   0  0  0  0  0  0  0  0  0  0  0  0
  -17.9919  -30.2596   21.8379 C   0  0  0  0  0  0  0  0  0  0  0  0
  -16.9649  -29.5959   22.5090 C   0  0  0  0  0  0  0  0  0  0  0  0
  -26.6029  -15.5761   20.8845 C   0  0  0  0  0  0  0  0  0  0  0  0
  -28.9991  -19.6326   20.6392 C   0  0  0  0  0  0  0  0  0  0  0  0
  -31.3530  -20.1769   20.6296 C   0  0  0  0  0  0  0  0  0  0  0  0
  -18.3283  -29.5008   24.5013 C   0  0  0  0  0  0  0  0  0  0  0  0
  -23.8535  -29.2568   21.4687 C   0  0  0  0  0  0  0  0  0  0  0  0
  -25.9207  -28.4831   20.1897 C   0  0  0  0  0  0  0  0  0  0  0  0
  -21.3936   -8.9998   21.6665 C   0  0  0  0  0  0  0  0  0  0  0  0
  -25.5341  -14.1307   22.5056 C   0  0  0  0  0  0  0  0  0  0  0  0
  -22.2226  -10.0131   21.1485 C   0  0  0  0  0  0  0  0  0  0  0  0
  -25.4942  -15.2690   21.6880 C   0  0  0  0  0  0  0  0  0  0  0  0
  -28.7155  -20.8697   21.2179 C   0  0  0  0  0  0  0  0  0  0  0  0
  -30.3179  -19.2862   20.3451 C   0  0  0  0  0  0  0  0  0  0  0  0
  -29.7506  -21.7603   21.5024 C   0  0  0  0  0  0  0  0  0  0  0  0
  -21.4016  -30.5649   21.7123 C   0  0  0  0  0  0  0  0  0  0  0  0
  -27.7403  -14.7692   20.9036 C   0  0  0  0  0  0  0  0  0  0  0  0
  -19.1871  -30.5439   22.4984 C   0  0  0  0  0  0  0  0  0  0  0  0
  -17.1331  -29.2165   23.8407 C   0  0  0  0  0  0  0  0  0  0  0  0
  -31.0694  -21.4139   21.2083 C   0  0  0  0  0  0  0  0  0  0  0  0
  -19.3553  -30.1645   23.8301 C   0  0  0  0  0  0  0  0  0  0  0  0
  -25.1202  -28.5816   21.3435 C   0  0  0  0  0  0  0  0  0  0  0  0
  -27.0099  -27.7479   20.5892 C   0  0  0  0  0  0  0  0  0  0  0  0
  -24.1395  -24.2995   19.3678 C   0  0  0  0  0  0  0  0  0  0  0  0
  -25.3532  -23.9185   19.7778 C   0  0  0  0  0  0  0  0  0  0  0  0
  -30.8309  -17.0720   20.5889 C   0  0  0  0  0  0  0  0  0  0  0  0
  -25.6996  -29.0094   18.8745 C   0  0  0  0  0  0  0  0  0  0  0  0
  -25.5365  -22.6231   20.4851 C   0  0  0  0  0  0  0  0  0  0  0  0
  -22.4912  -13.6537   21.7201 C   0  0  0  0  0  0  0  0  0  0  0  0
  -22.1317  -16.6729   22.8505 C   0  0  0  0  0  0  0  0  0  0  0  0
  -23.5542  -19.6983   23.5362 C   0  0  0  0  0  0  0  0  0  0  0  0
  -28.8456  -23.1488   23.3594 C   0  0  0  0  0  0  0  0  0  0  0  0
  -19.9346   -9.2420   21.9616 C   0  0  0  0  0  0  0  0  0  0  0  0
  -24.3700  -13.7908   23.3956 C   0  0  0  0  0  0  0  0  0  0  0  0
  -24.2881  -16.1699   21.6412 C   0  0  0  0  0  0  0  0  0  0  0  0
  -19.5727  -10.7210   22.0714 C   0  0  0  0  0  0  0  0  0  0  0  0
  -28.5455  -26.3388   25.1881 C   0  0  0  0  0  0  0  0  0  0  0  0
  -20.1832  -11.5071   20.9155 C   0  0  0  0  0  0  0  0  0  0  0  0
  -27.6383  -27.1676   24.2804 C   0  0  0  0  0  0  0  0  0  0  0  0
  -28.2577  -24.8453   25.0661 C   0  0  0  0  0  0  0  0  0  0  0  0
  -27.4176  -25.1623   22.7587 C   0  0  0  0  0  0  0  0  0  0  0  0
  -21.7141  -11.4229   20.9387 C   0  0  1  0  0  0  0  0  0  0  0  0
  -23.0518  -14.3838   22.9077 C   0  0  1  0  0  0  0  0  0  0  0  0
  -27.7125  -26.6684   22.8270 C   0  0  1  0  0  0  0  0  0  0  0  0
  -22.9998  -21.9810   24.4191 C   0  0  0  0  0  0  0  0  0  0  0  0
  -20.8067  -17.3760   20.1935 C   0  0  0  0  0  0  0  0  0  0  0  0
  -21.1417  -19.7948   20.7462 C   0  0  0  0  0  0  0  0  0  0  0  0
  -19.7035  -18.3715   22.2051 C   0  0  0  0  0  0  0  0  0  0  0  0
  -30.0736  -24.2407   21.4967 C   0  0  0  0  0  0  0  0  0  0  0  0
  -25.4364  -19.4064   25.8014 C   0  0  0  0  0  0  0  0  0  0  0  0
  -27.2935  -21.2145   21.5217 C   0  0  0  0  0  0  0  0  0  0  0  0
  -31.1341  -15.6874   20.0822 C   0  0  0  0  0  0  0  0  0  0  0  0
  -30.0985  -14.7050   20.6025 C   0  0  0  0  0  0  0  0  0  1  0  0
  -22.2115  -18.0557   22.2503 C   0  0  1  0  0  0  0  0  0  0  0  0
  -23.4921  -20.5848   24.7670 C   0  0  2  0  0  0  0  0  0  0  0  0
  -20.9880  -18.3816   21.3480 C   0  0  0  0  0  0  0  0  0  0  0  0
  -25.6551  -27.9585   22.3969 N   0  0  0  0  0  0  0  0  0  0  0  0
  -30.6037  -18.0401   19.7624 N   0  0  0  0  0  0  0  0  0  0  0  0
  -26.8034  -27.4614   21.9066 N   0  0  0  0  0  0  0  0  0  0  0  0
  -23.1729  -15.7921   22.5250 N   0  0  0  0  0  0  0  0  0  0  0  0
  -28.2896  -24.4059   23.6706 N   0  0  0  0  0  0  0  0  0  0  0  0
  -28.1144  -27.3247   19.9385 N   0  0  0  0  0  0  0  0  0  0  0  0
  -24.5287  -29.7417   18.6360 N   0  0  0  0  0  0  0  0  0  0  0  0
  -26.8614  -22.4018   20.8313 N   0  0  0  0  0  0  0  0  0  0  0  0
  -22.2540  -12.3112   21.9457 N   0  0  0  0  0  0  0  0  0  0  0  0
  -22.3918  -18.9760   23.3679 N   0  0  0  0  0  0  0  0  0  0  0  0
  -29.4746  -23.0456   22.0997 N   0  0  0  0  0  0  0  0  0  0  0  0
  -24.8415  -20.7035   25.3884 N   0  3  0  0  0  0  0  0  0  0  0  0
  -26.5084  -28.8213   17.9342 O   0  0  0  0  0  0  0  0  0  0  0  0
  -24.6043  -21.8600   20.7174 O   0  0  0  0  0  0  0  0  0  0  0  0
  -22.2874  -14.2635   20.6769 O   0  0  0  0  0  0  0  0  0  0  0  0
  -21.1844  -16.3871   23.5871 O   0  0  0  0  0  0  0  0  0  0  0  0
  -24.5343  -19.6539   22.7960 O   0  0  0  0  0  0  0  0  0  0  0  0
  -28.8087  -22.2037   24.1563 O   0  0  0  0  0  0  0  0  0  0  0  0
  -20.2055  -31.2035   21.8310 O   0  0  0  0  0  0  0  0  0  0  0  0
  -28.8088  -15.0800   20.1203 O   0  0  0  0  0  0  0  0  0  1  0  0
  -16.1462  -28.5806   24.4855 F   0  0  0  0  0  0  0  0  0  0  0  0
  -32.0729  -22.2618   21.4759 F   0  0  0  0  0  0  0  0  0  0  0  0
  -20.5009  -30.4359   24.4704 F   0  0  0  0  0  0  0  0  0  0  0  0
  1  2  1  0  0  0  0
  1  5  2  0  0  0  0
  2  6  2  0  0  0  0
  3  8  2  0  0  0  0
  3 17  1  0  0  0  0
  4  9  1  0  0  0  0
  4 17  2  0  0  0  0
  5 19  1  0  0  0  0
  6 21  1  0  0  0  0
  7 10  2  0  0  0  0
  7 20  1  0  0  0  0
  8 26  1  0  0  0  0
  9 26  2  0  0  0  0
 10 27  1  0  0  0  0
 11 12  2  0  0  0  0
 11 28  1  0  0  0  0
 12 29  1  0  0  0  0
 13 22  1  0  0  0  0
 13 27  2  0  0  0  0
 14 23  1  0  0  0  0
 14 24  2  0  0  0  0
 15 24  1  0  0  0  0
 15 30  2  0  0  0  0
 16 29  2  0  0  0  0
 16 31  1  0  0  0  0
 17 32  1  0  0  0  0
 18 32  1  0  0  0  0
 18 33  2  0  0  0  0
 18 37  1  0  0  0  0
 19 21  2  0  0  0  0
 19 43  1  0  0  0  0
 20 22  2  0  0  0  0
 20 44  1  0  0  0  0
 21 52  1  0  0  0  0
 22 45  1  0  0  0  0
 23 25  2  0  0  0  0
 23 61  1  0  0  0  0
 24 68  1  0  0  0  0
 25 30  1  0  0  0  0
 25 77  1  0  0  0  0
 26 85  1  0  0  0  0
 27 86  1  0  0  0  0
 28 31  2  0  0  0  0
 28 85  1  0  0  0  0
 29 87  1  0  0  0  0
 30 88  1  0  0  0  0
 31 89  1  0  0  0  0
 32 67  2  0  0  0  0
 33 69  1  0  0  0  0
 33 72  1  0  0  0  0
 34 35  2  0  0  0  0
 35 38  1  0  0  0  0
 36 62  1  0  0  0  0
 36 68  2  0  0  0  0
 37 73  1  0  0  0  0
 37 79  2  0  0  0  0
 38 74  1  0  0  0  0
 38 80  2  0  0  0  0
 39 53  1  0  0  0  0
 39 75  1  0  0  0  0
 39 81  2  0  0  0  0
 40 64  1  0  0  0  0
 40 70  1  0  0  0  0
 40 82  2  0  0  0  0
 41 65  1  0  0  0  0
 41 76  1  0  0  0  0
 41 83  2  0  0  0  0
 42 71  1  0  0  0  0
 42 77  1  0  0  0  0
 42 84  2  0  0  0  0
 43 46  1  0  0  0  0
 44 53  1  0  0  0  0
 45 70  1  0  0  0  0
 46 48  1  0  0  0  0
 47 49  1  0  0  0  0
 47 50  1  0  0  0  0
 48 52  1  0  0  0  0
 49 54  1  0  0  0  0
 50 71  1  0  0  0  0
 51 54  1  0  0  0  0
 51 71  1  0  0  0  0
 52 75  1  0  0  0  0
 53 70  1  0  0  0  0
 54 69  1  0  0  0  0
 55 65  1  0  0  0  0
 56 66  1  0  0  0  0
 57 66  1  0  0  0  0
 58 66  1  0  0  0  0
 59 77  1  0  0  0  0
 60 78  1  0  0  0  0
 61 74  1  0  0  0  0
 62 63  1  0  0  0  0
 63 86  1  0  0  0  0
 64 66  1  0  0  0  0
 64 76  1  0  0  0  0
 65 78  1  0  0  0  0
 67 69  1  0  0  0  0
M  CHG  1  78   1
M  ISO  4  42 100  63 101  77 100  86 101
M  END
> <Batch ID>
0110

> <Smiles>
C=CC(=O)NCc1cc(NC=C[101CH2:1][101O:1]c2ccc3c(c2)CN(C(=O)C(NC(=O)C(C)NC)C(C)(C)C)C(C(=O)NC2CCCc4ccccc42)C3)cc(F)c1[100N:0](C)[100C:0](=O)N1CCCC(n2nc(-c3ccc(Oc4ccc(F)cc4F)cc3)c(C(N)=O)c2N)C1

> <Shape>
0.207

> <Color>
0.089

> <Negative vol penalty>
0.000

$$$$

  -OEChem-04052301263D

 91100  0     1  0  0  0  0  0999 V2000
  -33.9851  -28.5209   16.6695 C   0  0  0  0  0  0  0  0  0  0  0  0
  -33.6824  -27.2974   17.2584 C   0  0  0  0  0  0  0  0  0  0  0  0
  -23.3057  -10.2570   22.1921 C   0  0  0  0  0  0  0  0  0  0  0  0
  -23.7247   -9.5829   19.9102 C   0  0  0  0  0  0  0  0  0  0  0  0
  -33.1071  -29.5953   16.8062 C   0  0  0  0  0  0  0  0  0  0  0  0
  -32.5019  -27.1479   17.9853 C   0  0  0  0  0  0  0  0  0  0  0  0
  -27.6092  -22.1954   16.1345 C   0  0  0  0  0  0  0  0  0  0  0  0
  -22.5802   -9.0850   22.4052 C   0  0  0  0  0  0  0  0  0  0  0  0
  -22.9991   -8.4108   20.1233 C   0  0  0  0  0  0  0  0  0  0  0  0
  -26.7217  -21.1315   15.9710 C   0  0  0  0  0  0  0  0  0  0  0  0
  -19.4879   -7.9095   21.7120 C   0  0  0  0  0  0  0  0  0  0  0  0
  -18.2686   -8.0156   22.3810 C   0  0  0  0  0  0  0  0  0  0  0  0
  -25.8756  -13.9904   16.0100 C   0  0  0  0  0  0  0  0  0  0  0  0
  -25.3442  -21.9914   17.7630 C   0  0  0  0  0  0  0  0  0  0  0  0
  -27.3261  -15.7211   16.8691 C   0  0  0  0  0  0  0  0  0  0  0  0
  -19.0913   -6.5459   24.1132 C   0  0  0  0  0  0  0  0  0  0  0  0
  -23.8779  -10.5060   20.9446 C   0  0  0  0  0  0  0  0  0  0  0  0
  -26.9697  -13.1340   15.8880 C   0  0  0  0  0  0  0  0  0  0  0  0
  -24.1590  -13.0394   20.8405 C   0  0  0  0  0  0  0  0  0  0  0  0
  -31.9106  -29.4562   17.5270 C   0  0  0  0  0  0  0  0  0  0  0  0
  -27.3590  -23.1709   17.1037 C   0  0  0  0  0  0  0  0  0  0  0  0
  -31.6077  -28.2219   18.1329 C   0  0  0  0  0  0  0  0  0  0  0  0
  -26.2229  -23.0661   17.9229 C   0  0  0  0  0  0  0  0  0  0  0  0
  -26.0538  -15.2840   16.5005 C   0  0  0  0  0  0  0  0  0  0  0  0
  -28.2420  -13.5710   16.2566 C   0  0  0  0  0  0  0  0  0  0  0  0
  -22.4269   -8.1618   21.3708 C   0  0  0  0  0  0  0  0  0  0  0  0
  -25.5922  -21.0296   16.7835 C   0  0  0  0  0  0  0  0  0  0  0  0
  -20.5089   -7.1216   22.2435 C   0  0  0  0  0  0  0  0  0  0  0  0
  -18.0703   -7.3338   23.5817 C   0  0  0  0  0  0  0  0  0  0  0  0
  -28.4202  -14.8646   16.7472 C   0  0  0  0  0  0  0  0  0  0  0  0
  -20.3106   -6.4398   23.4441 C   0  0  0  0  0  0  0  0  0  0  0  0
  -24.6271  -11.7169   20.7237 C   0  0  0  0  0  0  0  0  0  0  0  0
  -25.2473  -13.8175   20.5298 C   0  0  0  0  0  0  0  0  0  0  0  0
  -22.4194  -17.6518   17.6363 C   0  0  0  0  0  0  0  0  0  0  0  0
  -23.6897  -18.0828   17.6334 C   0  0  0  0  0  0  0  0  0  0  0  0
  -21.9976  -16.2352   17.5220 C   0  0  0  0  0  0  0  0  0  0  0  0
  -24.8785  -17.1657   17.6192 C   0  0  0  0  0  0  0  0  0  0  0  0
  -26.2722  -11.5396   14.1598 C   0  0  0  0  0  0  0  0  0  0  0  0
  -26.7441  -11.7890   15.3713 C   0  0  0  0  0  0  0  0  0  0  0  0
  -22.8568  -13.5214   21.1980 C   0  0  0  0  0  0  0  0  0  0  0  0
  -28.4749  -26.3584   18.7379 C   0  0  0  0  0  0  0  0  0  0  0  0
  -25.4275  -26.5330   18.4324 C   0  0  0  0  0  0  0  0  0  0  0  0
  -22.1961  -27.5529   18.0383 C   0  0  0  0  0  0  0  0  0  0  0  0
  -30.1912  -12.3348   17.2383 C   0  0  0  0  0  0  0  0  0  0  0  0
  -31.0155  -30.6594   17.6873 C   0  0  0  0  0  0  0  0  0  0  0  0
  -28.3199  -24.3008   17.3561 C   0  0  0  0  0  0  0  0  0  0  0  0
  -26.0125  -24.1199   18.9756 C   0  0  0  0  0  0  0  0  0  0  0  0
  -22.6033  -15.3517   16.4520 C   0  0  0  0  0  0  0  0  0  0  0  0
  -29.6057  -30.3115   18.1581 C   0  0  0  0  0  0  0  0  0  0  0  0
  -30.0264  -13.8218   20.6228 C   0  0  0  0  0  0  0  0  0  0  0  0
  -29.6595  -29.3306   19.3251 C   0  0  0  0  0  0  0  0  0  0  0  0
  -28.6055  -13.4860   21.0721 C   0  0  0  0  0  0  0  0  0  0  0  0
  -23.7815  -15.9714   15.7164 C   0  0  0  0  0  0  0  0  0  0  0  0
  -30.5691  -12.7880   19.6408 C   0  0  0  0  0  0  0  0  0  0  0  0
  -28.2682  -12.2443   18.8981 C   0  0  0  0  0  0  0  0  0  0  0  0
  -30.3249  -28.0134   18.9084 C   0  0  1  0  0  0  0  0  0  0  0  0
  -27.6187  -25.6107   17.7583 C   0  0  1  0  0  0  0  0  0  0  0  0
  -27.6837  -13.2926   19.8567 C   0  0  1  0  0  0  0  0  0  0  0  0
  -20.4839  -29.0984   19.0267 C   0  0  0  0  0  0  0  0  0  0  0  0
  -25.0241  -24.5956   20.7535 C   0  0  0  0  0  0  0  0  0  0  0  0
  -22.7760  -25.6300   21.1334 C   0  0  0  0  0  0  0  0  0  0  0  0
  -24.8389  -27.0128   21.3676 C   0  0  0  0  0  0  0  0  0  0  0  0
  -29.8964  -12.4150   14.8014 C   0  0  0  0  0  0  0  0  0  0  0  0
  -21.9495  -29.0808   15.5156 C   0  0  0  0  0  0  0  0  0  0  0  0
  -24.0215  -19.5415   17.7713 C   0  0  0  0  0  0  0  0  0  1  0  0
  -24.0777  -26.3028   19.0636 C   0  0  1  0  0  0  0  0  0  0  0  0
  -21.5765  -28.9376   17.9812 C   0  0  2  0  0  0  0  0  0  0  0  0
  -24.1859  -25.8741   20.5542 C   0  0  0  0  0  0  0  0  0  0  0  0
  -25.9126  -11.6545   20.3665 N   0  0  0  0  0  0  0  0  0  0  0  0
  -26.2615  -12.9477   20.2561 N   0  0  0  0  0  0  0  0  0  0  0  0
  -24.9192  -16.1724   16.6271 N   0  0  0  0  0  0  0  0  0  0  0  0
  -26.3143  -25.4495   18.4227 N   0  0  0  0  0  0  0  0  0  0  0  0
  -29.6530  -12.5704   18.5201 N   0  0  0  0  0  0  0  0  0  0  0  0
  -25.4261  -15.1541   20.4666 N   0  0  0  0  0  0  0  0  0  0  0  0
  -21.8541  -12.5858   21.4866 N   0  0  0  0  0  0  0  0  0  0  0  0
  -29.4009  -27.1983   18.1493 N   0  0  0  0  0  0  0  0  0  0  0  0
  -23.3121  -27.5258   18.8476 N   0  0  0  0  0  0  0  0  0  0  0  0
  -29.3910  -12.7065   16.1411 N   0  0  0  0  0  0  0  0  0  0  0  0
  -20.9810  -29.1836   16.6374 N   0  3  0  0  0  0  0  0  0  0  0  0
  -21.0912  -15.8210   18.2452 O   0  0  0  0  0  0  0  0  0  0  0  0
  -25.7318  -17.3522   18.4891 O   0  0  0  0  0  0  0  0  0  0  0  0
  -22.5860  -14.7454   21.2436 O   0  0  0  0  0  0  0  0  0  0  0  0
  -28.3075  -26.1878   19.9398 O   0  0  0  0  0  0  0  0  0  0  0  0
  -25.6931  -27.6440   17.9650 O   0  0  0  0  0  0  0  0  0  0  0  0
  -21.7340  -26.5908   17.4290 O   0  0  0  0  0  0  0  0  0  0  0  0
  -31.2857  -11.7801   17.0800 O   0  0  0  0  0  0  0  0  0  0  0  0
  -21.7191   -7.0179   21.5785 O   0  0  0  0  0  0  0  0  0  0  0  0
  -24.7276  -19.9909   16.6155 O   0  0  0  0  0  0  0  0  0  1  0  0
  -16.8999   -7.4370   24.2248 F   0  0  0  0  0  0  0  0  0  0  0  0
  -29.6378  -15.2968   17.1054 F   0  0  0  0  0  0  0  0  0  0  0  0
  -21.2882   -5.6823   23.9603 F   0  0  0  0  0  0  0  0  0  0  0  0
  1  2  1  0  0  0  0
  1  5  2  0  0  0  0
  2  6  2  0  0  0  0
  3  8  2  0  0  0  0
  3 17  1  0  0  0  0
  4  9  1  0  0  0  0
  4 17  2  0  0  0  0
  5 20  1  0  0  0  0
  6 22  1  0  0  0  0
  7 10  2  0  0  0  0
  7 21  1  0  0  0  0
  8 26  1  0  0  0  0
  9 26  2  0  0  0  0
 10 27  1  0  0  0  0
 11 12  2  0  0  0  0
 11 28  1  0  0  0  0
 12 29  1  0  0  0  0
 13 18  1  0  0  0  0
 13 24  2  0  0  0  0
 14 23  1  0  0  0  0
 14 27  2  0  0  0  0
 15 24  1  0  0  0  0
 15 30  2  0  0  0  0
 16 29  2  0  0  0  0
 16 31  1  0  0  0  0
 17 32  1  0  0  0  0
 18 25  2  0  0  0  0
 18 39  1  0  0  0  0
 19 32  1  0  0  0  0
 19 33  2  0  0  0  0
 19 40  1  0  0  0  0
 20 22  2  0  0  0  0
 20 45  1  0  0  0  0
 21 23  2  0  0  0  0
 21 46  1  0  0  0  0
 22 56  1  0  0  0  0
 23 47  1  0  0  0  0
 24 71  1  0  0  0  0
 25 30  1  0  0  0  0
 25 78  1  0  0  0  0
 26 87  1  0  0  0  0
 27 88  1  0  0  0  0
 28 31  2  0  0  0  0
 28 87  1  0  0  0  0
 29 89  1  0  0  0  0
 30 90  1  0  0  0  0
 31 91  1  0  0  0  0
 32 69  2  0  0  0  0
 33 70  1  0  0  0  0
 33 74  1  0  0  0  0
 34 35  2  0  0  0  0
 34 36  1  0  0  0  0
 35 37  1  0  0  0  0
 35 65  1  0  0  0  0
 36 48  1  0  0  0  0
 36 80  2  0  0  0  0
 37 71  1  0  0  0  0
 37 81  2  0  0  0  0
 38 39  2  0  0  0  0
 40 75  1  0  0  0  0
 40 82  2  0  0  0  0
 41 57  1  0  0  0  0
 41 76  1  0  0  0  0
 41 83  2  0  0  0  0
 42 66  1  0  0  0  0
 42 72  1  0  0  0  0
 42 84  2  0  0  0  0
 43 67  1  0  0  0  0
 43 77  1  0  0  0  0
 43 85  2  0  0  0  0
 44 73  1  0  0  0  0
 44 78  1  0  0  0  0
 44 86  2  0  0  0  0
 45 49  1  0  0  0  0
 46 57  1  0  0  0  0
 47 72  1  0  0  0  0
 48 53  1  0  0  0  0
 49 51  1  0  0  0  0
 50 52  1  0  0  0  0
 50 54  1  0  0  0  0
 51 56  1  0  0  0  0
 52 58  1  0  0  0  0
 53 71  1  0  0  0  0
 54 73  1  0  0  0  0
 55 58  1  0  0  0  0
 55 73  1  0  0  0  0
 56 76  1  0  0  0  0
 57 72  1  0  0  0  0
 58 70  1  0  0  0  0
 59 67  1  0  0  0  0
 60 68  1  0  0  0  0
 61 68  1  0  0  0  0
 62 68  1  0  0  0  0
 63 78  1  0  0  0  0
 64 79  1  0  0  0  0
 65 88  1  0  0  0  0
 66 68  1  0  0  0  0
 66 77  1  0  0  0  0
 67 79  1  0  0  0  0
 69 70  1  0  0  0  0
M  CHG  1  79   1
M  ISO  4  44 100  65 101  78 100  88 101
M  END
> <Batch ID>
0110

> <Smiles>
C=Cc1cc(N2CCC(=O)C=C([101CH2:1][101O:1]c3ccc4c(c3)CN(C(=O)C(NC(=O)C(C)NC)C(C)(C)C)C(C(=O)NC3CCCc5ccccc53)C4)C2=O)cc(F)c1[100N:0](C)[100C:0](=O)N1CCCC(n2nc(-c3ccc(Oc4ccc(F)cc4F)cc3)c(C(N)=O)c2N)C1

> <Shape>
0.171

> <Color>
0.184

> <Negative vol penalty>
0.000

$$$$

  -OEChem-04052301263D

 86 94  0     1  0  0  0  0  0999 V2000
  -27.8673  -25.2545   16.2774 C   0  0  0  0  0  0  0  0  0  0  0  0
  -26.7047  -25.3977   17.0279 C   0  0  0  0  0  0  0  0  0  0  0  0
  -30.7769  -17.8471   18.6304 C   0  0  0  0  0  0  0  0  0  0  0  0
  -28.4678  -17.6716   17.9417 C   0  0  0  0  0  0  0  0  0  0  0  0
  -29.0779  -25.7397   16.7702 C   0  0  0  0  0  0  0  0  0  0  0  0
  -26.7523  -26.0252   18.2722 C   0  0  0  0  0  0  0  0  0  0  0  0
  -22.9747  -29.3340   18.9252 C   0  0  0  0  0  0  0  0  0  0  0  0
  -31.1445  -16.9513   17.6264 C   0  0  0  0  0  0  0  0  0  0  0  0
  -28.8353  -16.7758   16.9377 C   0  0  0  0  0  0  0  0  0  0  0  0
  -21.7208  -28.8141   19.2434 C   0  0  0  0  0  0  0  0  0  0  0  0
  -29.1162  -14.1662   14.4236 C   0  0  0  0  0  0  0  0  0  0  0  0
  -28.3371  -13.0210   14.2594 C   0  0  0  0  0  0  0  0  0  0  0  0
  -22.0956  -29.3476   21.5659 C   0  0  0  0  0  0  0  0  0  0  0  0
  -23.2912  -24.3753   23.8749 C   0  0  0  0  0  0  0  0  0  0  0  0
  -28.8441  -12.3513   16.5247 C   0  0  0  0  0  0  0  0  0  0  0  0
  -29.4386  -18.2072   18.7881 C   0  0  0  0  0  0  0  0  0  0  0  0
  -21.8882  -22.4094   23.8152 C   0  0  0  0  0  0  0  0  0  0  0  0
  -28.9806  -20.5343   19.7276 C   0  0  0  0  0  0  0  0  0  0  0  0
  -29.1387  -26.3821   18.0169 C   0  0  0  0  0  0  0  0  0  0  0  0
  -23.8044  -29.8555   19.9282 C   0  0  0  0  0  0  0  0  0  0  0  0
  -27.9651  -26.5182   18.7828 C   0  0  0  0  0  0  0  0  0  0  0  0
  -23.3585  -29.8758   21.2575 C   0  0  0  0  0  0  0  0  0  0  0  0
  -23.0037  -23.0828   24.3132 C   0  0  0  0  0  0  0  0  0  0  0  0
  -21.0602  -23.0288   22.8790 C   0  0  0  0  0  0  0  0  0  0  0  0
  -22.4632  -24.9947   22.9387 C   0  0  0  0  0  0  0  0  0  0  0  0
  -30.1737  -16.4157   16.7800 C   0  0  0  0  0  0  0  0  0  0  0  0
  -21.2822  -28.8182   20.5643 C   0  0  0  0  0  0  0  0  0  0  0  0
  -29.7594  -14.4039   15.6383 C   0  0  0  0  0  0  0  0  0  0  0  0
  -21.3477  -24.3214   22.4407 C   0  0  0  0  0  0  0  0  0  0  0  0
  -28.2009  -12.1135   15.3100 C   0  0  0  0  0  0  0  0  0  0  0  0
  -29.6233  -13.4965   16.6889 C   0  0  0  0  0  0  0  0  0  0  0  0
  -29.0582  -19.1321   19.8255 C   0  0  0  0  0  0  0  0  0  0  0  0
  -28.5767  -20.9437   20.9749 C   0  0  0  0  0  0  0  0  0  0  0  0
  -20.7991  -20.7924   25.3033 C   0  0  0  0  0  0  0  0  0  0  0  0
  -21.5895  -21.0566   24.2758 C   0  0  0  0  0  0  0  0  0  0  0  0
  -29.2496  -21.3902   18.6093 C   0  0  0  0  0  0  0  0  0  0  0  0
  -26.6783  -29.1197   21.0695 C   0  0  0  0  0  0  0  0  0  0  0  0
  -26.2620  -31.8384   22.7893 C   0  0  0  0  0  0  0  0  0  0  0  0
  -24.1022  -34.0994   24.1568 C   0  0  0  0  0  0  0  0  0  0  0  0
  -25.2892  -20.3913   25.4507 C   0  0  0  0  0  0  0  0  0  0  0  0
  -30.4786  -26.8480   18.5289 C   0  0  0  0  0  0  0  0  0  0  0  0
  -25.1431  -30.4369   19.5648 C   0  0  0  0  0  0  0  0  0  0  0  0
  -24.2027  -30.4428   22.3685 C   0  0  0  0  0  0  0  0  0  0  0  0
  -30.3777  -27.8340   19.6899 C   0  0  0  0  0  0  0  0  0  0  0  0
  -28.2304  -18.3887   25.3267 C   0  0  0  0  0  0  0  0  0  0  0  0
  -29.3771  -27.3359   20.7279 C   0  0  0  0  0  0  0  0  0  0  0  0
  -28.6975  -18.5143   23.8756 C   0  0  0  0  0  0  0  0  0  0  0  0
  -26.7070  -18.3601   25.4287 C   0  0  0  0  0  0  0  0  0  0  0  0
  -26.4880  -19.6120   23.3172 C   0  0  0  0  0  0  0  0  0  0  0  0
  -27.9719  -27.2151   20.1261 C   0  0  1  0  0  0  0  0  0  0  0  0
  -26.1171  -30.4736   20.7385 C   0  0  1  0  0  0  0  0  0  0  0  0
  -28.0164  -19.7012   23.1680 C   0  0  2  0  0  0  0  0  0  0  0  0
  -19.8582  -22.3224   22.3318 C   0  0  0  0  0  0  0  0  0  0  0  0
  -24.0569  -36.1941   25.5380 C   0  0  0  0  0  0  0  0  0  0  0  0
  -26.8608  -30.1984   25.2917 C   0  0  0  0  0  0  0  0  0  0  0  0
  -25.8868  -32.0566   26.6580 C   0  0  0  0  0  0  0  0  0  0  0  0
  -27.9090  -32.4688   25.2568 C   0  0  0  0  0  0  0  0  0  0  0  0
  -22.7911  -35.6359   21.9937 C   0  0  0  0  0  0  0  0  0  0  0  0
  -23.9152  -22.4539   25.3184 C   0  0  0  0  0  0  0  0  0  0  0  0
  -18.6827  -26.3291   20.8795 C   0  0  0  0  0  0  0  0  0  0  0  0
  -19.5639  -27.2548   20.0555 C   0  0  0  0  0  0  0  0  0  1  0  0
  -19.4468  -25.6896   22.0282 C   0  0  0  0  0  0  0  0  0  0  0  0
  -25.6631  -32.1713   24.1345 C   0  0  1  0  0  0  0  0  0  0  0  0
  -24.0832  -35.6171   24.1312 C   0  0  2  0  0  0  0  0  0  0  0  0
  -26.5646  -31.7112   25.3148 C   0  0  0  0  0  0  0  0  0  0  0  0
  -28.7301  -18.6809   21.0390 N   0  0  0  0  0  0  0  0  0  0  0  0
  -28.4425  -19.8061   21.7153 N   0  0  0  0  0  0  0  0  0  0  0  0
  -25.5065  -30.9939   21.9636 N   0  0  0  0  0  0  0  0  0  0  0  0
  -26.1231  -19.5132   24.7391 N   0  0  0  0  0  0  0  0  0  0  0  0
  -22.7682  -26.3033   22.5037 N   0  0  0  0  0  0  0  0  0  0  0  0
  -28.3269  -22.1621   21.4996 N   0  0  0  0  0  0  0  0  0  0  0  0
  -29.6549  -20.8048   17.4021 N   0  0  0  0  0  0  0  0  0  0  0  0
  -27.3523  -28.5190   20.0234 N   0  0  0  0  0  0  0  0  0  0  0  0
  -25.3883  -33.6040   24.1157 N   0  0  0  0  0  0  0  0  0  0  0  0
  -24.7827  -21.4617   24.7236 N   0  0  0  0  0  0  0  0  0  0  0  0
  -22.8812  -36.1078   23.3995 N   0  3  0  0  0  0  0  0  0  0  0  0
  -29.1498  -22.6385   18.6831 O   0  0  0  0  0  0  0  0  0  0  0  0
  -26.5135  -28.6552   22.1915 O   0  0  0  0  0  0  0  0  0  0  0  0
  -27.3564  -32.3160   22.4797 O   0  0  0  0  0  0  0  0  0  0  0  0
  -23.0787  -33.4212   24.2119 O   0  0  0  0  0  0  0  0  0  0  0  0
  -25.0204  -20.2362   26.6468 O   0  0  0  0  0  0  0  0  0  0  0  0
  -30.5320  -15.5418   15.8000 O   0  0  0  0  0  0  0  0  0  0  0  0
  -20.0590  -28.3108   20.8776 O   0  0  0  0  0  0  0  0  0  1  0  0
  -20.5347  -24.9295   21.5199 O   0  0  0  0  0  0  0  0  0  0  0  0
  -27.4514  -11.0146   15.1527 F   0  0  0  0  0  0  0  0  0  0  0  0
  -30.2378  -13.7201   17.8586 F   0  0  0  0  0  0  0  0  0  0  0  0
  1  2  1  0  0  0  0
  1  5  2  0  0  0  0
  2  6  2  0  0  0  0
  3  8  2  0  0  0  0
  3 16  1  0  0  0  0
  4  9  1  0  0  0  0
  4 16  2  0  0  0  0
  5 19  1  0  0  0  0
  6 21  1  0  0  0  0
  7 10  2  0  0  0  0
  7 20  1  0  0  0  0
  8 26  1  0  0  0  0
  9 26  2  0  0  0  0
 10 27  1  0  0  0  0
 11 12  2  0  0  0  0
 11 28  1  0  0  0  0
 12 30  1  0  0  0  0
 13 22  1  0  0  0  0
 13 27  2  0  0  0  0
 14 23  2  0  0  0  0
 14 25  1  0  0  0  0
 15 30  2  0  0  0  0
 15 31  1  0  0  0  0
 16 32  1  0  0  0  0
 17 23  1  0  0  0  0
 17 24  2  0  0  0  0
 17 35  1  0  0  0  0
 18 32  1  0  0  0  0
 18 33  2  0  0  0  0
 18 36  1  0  0  0  0
 19 21  2  0  0  0  0
 19 41  1  0  0  0  0
 20 22  2  0  0  0  0
 20 42  1  0  0  0  0
 21 50  1  0  0  0  0
 22 43  1  0  0  0  0
 23 59  1  0  0  0  0
 24 29  1  0  0  0  0
 24 53  1  0  0  0  0
 25 29  2  0  0  0  0
 25 70  1  0  0  0  0
 26 82  1  0  0  0  0
 27 83  1  0  0  0  0
 28 31  2  0  0  0  0
 28 82  1  0  0  0  0
 29 84  1  0  0  0  0
 30 85  1  0  0  0  0
 31 86  1  0  0  0  0
 32 66  2  0  0  0  0
 33 67  1  0  0  0  0
 33 71  1  0  0  0  0
 34 35  2  0  0  0  0
 36 72  1  0  0  0  0
 36 77  2  0  0  0  0
 37 51  1  0  0  0  0
 37 73  1  0  0  0  0
 37 78  2  0  0  0  0
 38 63  1  0  0  0  0
 38 68  1  0  0  0  0
 38 79  2  0  0  0  0
 39 64  1  0  0  0  0
 39 74  1  0  0  0  0
 39 80  2  0  0  0  0
 40 69  1  0  0  0  0
 40 75  1  0  0  0  0
 40 81  2  0  0  0  0
 41 44  1  0  0  0  0
 42 51  1  0  0  0  0
 43 68  1  0  0  0  0
 44 46  1  0  0  0  0
 45 47  1  0  0  0  0
 45 48  1  0  0  0  0
 46 50  1  0  0  0  0
 47 52  1  0  0  0  0
 48 69  1  0  0  0  0
 49 52  1  0  0  0  0
 49 69  1  0  0  0  0
 50 73  1  0  0  0  0
 51 68  1  0  0  0  0
 52 67  1  0  0  0  0
 54 64  1  0  0  0  0
 55 65  1  0  0  0  0
 56 65  1  0  0  0  0
 57 65  1  0  0  0  0
 58 76  1  0  0  0  0
 59 75  1  0  0  0  0
 60 61  1  0  0  0  0
 60 62  1  0  0  0  0
 61 83  1  0  0  0  0
 62 84  1  0  0  0  0
 63 65  1  0  0  0  0
 63 74  1  0  0  0  0
 64 76  1  0  0  0  0
 66 67  1  0  0  0  0
M  CHG  1  76   1
M  ISO  4  40 100  61 101  75 100  83 101
M  END
> <Batch ID>
0110

> <Smiles>
C=Cc1c(C[100NH:0][100C:0](=O)N2CCCC(n3nc(-c4ccc(Oc5ccc(F)cc5F)cc4)c(C(N)=O)c3N)C2)cc(N)c(OCC[101CH2:1][101O:1]c2ccc3c(c2)CN(C(=O)C(NC(=O)C(C)NC)C(C)(C)C)C(C(=O)NC2CCCc4ccccc42)C3)c1C

> <Shape>
0.254

> <Color>
0.068

> <Negative vol penalty>
0.000

$$$$

  -OEChem-04052301263D

 87 95  0     1  0  0  0  0  0999 V2000
  -35.2792  -12.7778   21.9768 C   0  0  0  0  0  0  0  0  0  0  0  0
  -34.6048  -13.8620   21.4245 C   0  0  0  0  0  0  0  0  0  0  0  0
  -24.2317  -31.1737   21.1417 C   0  0  0  0  0  0  0  0  0  0  0  0
  -25.0396  -29.0073   21.8424 C   0  0  0  0  0  0  0  0  0  0  0  0
  -23.9094  -25.3585   18.7742 C   0  0  0  0  0  0  0  0  0  0  0  0
  -34.7632  -11.4906   21.8330 C   0  0  0  0  0  0  0  0  0  0  0  0
  -33.4144  -13.6595   20.7270 C   0  0  0  0  0  0  0  0  0  0  0  0
  -29.8320  -17.0109   21.9837 C   0  0  0  0  0  0  0  0  0  0  0  0
  -25.2476  -25.0142   18.9642 C   0  0  0  0  0  0  0  0  0  0  0  0
  -25.3341  -31.3122   20.2985 C   0  0  0  0  0  0  0  0  0  0  0  0
  -26.1421  -29.1458   20.9992 C   0  0  0  0  0  0  0  0  0  0  0  0
  -29.9310  -18.2865   21.4298 C   0  0  0  0  0  0  0  0  0  0  0  0
  -26.8099  -28.8255   17.7019 C   0  0  0  0  0  0  0  0  0  0  0  0
  -27.1641  -27.7293   16.9154 C   0  0  0  0  0  0  0  0  0  0  0  0
  -28.2750  -17.6919   19.7795 C   0  0  0  0  0  0  0  0  0  0  0  0
  -24.5750  -22.8257   19.7359 C   0  0  0  0  0  0  0  0  0  0  0  0
  -29.3357  -27.6724   17.9728 C   0  0  0  0  0  0  0  0  0  0  0  0
  -24.0844  -30.0213   21.9137 C   0  0  0  0  0  0  0  0  0  0  0  0
  -22.9039  -24.4365   19.0651 C   0  0  0  0  0  0  0  0  0  0  0  0
  -22.5857  -30.7155   23.8578 C   0  0  0  0  0  0  0  0  0  0  0  0
  -33.5609  -11.2732   21.1417 C   0  0  0  0  0  0  0  0  0  0  0  0
  -28.9603  -16.0611   21.4320 C   0  0  0  0  0  0  0  0  0  0  0  0
  -32.8825  -12.3680   20.5726 C   0  0  0  0  0  0  0  0  0  0  0  0
  -28.1649  -16.4058   20.3298 C   0  0  0  0  0  0  0  0  0  0  0  0
  -23.2367  -23.1701   19.5459 C   0  0  0  0  0  0  0  0  0  0  0  0
  -25.5805  -23.7478   19.4451 C   0  0  0  0  0  0  0  0  0  0  0  0
  -26.2894  -30.2983   20.2273 C   0  0  0  0  0  0  0  0  0  0  0  0
  -29.1546  -18.6263   20.3258 C   0  0  0  0  0  0  0  0  0  0  0  0
  -27.7186  -29.3452   18.6238 C   0  0  0  0  0  0  0  0  0  0  0  0
  -28.4270  -27.1528   17.0509 C   0  0  0  0  0  0  0  0  0  0  0  0
  -28.9815  -28.7686   18.7593 C   0  0  0  0  0  0  0  0  0  0  0  0
  -22.9460  -29.8779   22.7852 C   0  0  0  0  0  0  0  0  0  0  0  0
  -21.4375  -30.1543   24.3610 C   0  0  0  0  0  0  0  0  0  0  0  0
  -21.4998  -24.8194   18.8568 C   0  0  0  0  0  0  0  0  0  0  0  0
  -23.2312  -31.8953   24.3549 C   0  0  0  0  0  0  0  0  0  0  0  0
  -29.3176  -13.2062   20.0808 C   0  0  0  0  0  0  0  0  0  0  0  0
  -26.0742  -13.2094   20.1296 C   0  0  0  0  0  0  0  0  0  0  0  0
  -27.4458  -22.1892   20.1046 C   0  0  0  0  0  0  0  0  0  0  0  0
  -23.1798  -15.0153   20.2184 C   0  0  0  0  0  0  0  0  0  0  0  0
  -21.1902  -25.7381   21.1795 C   0  0  0  0  0  0  0  0  0  0  0  0
  -33.0669   -9.8584   20.9716 C   0  0  0  0  0  0  0  0  0  0  0  0
  -28.8455  -14.6980   22.0576 C   0  0  0  0  0  0  0  0  0  0  0  0
  -27.1987  -15.4291   19.7126 C   0  0  0  0  0  0  0  0  0  0  0  0
  -31.6052   -9.7714   20.5399 C   0  0  0  0  0  0  0  0  0  0  0  0
  -17.9708  -27.4101   22.4102 C   0  0  0  0  0  0  0  0  0  0  0  0
  -31.3277  -10.7419   19.3962 C   0  0  0  0  0  0  0  0  0  0  0  0
  -18.7809  -28.5732   22.9711 C   0  0  0  0  0  0  0  0  0  0  0  0
  -18.8221  -26.5870   21.4469 C   0  0  0  0  0  0  0  0  0  0  0  0
  -20.4362  -26.6399   23.3489 C   0  0  0  0  0  0  0  0  0  0  0  0
  -31.5756  -12.1915   19.8303 C   0  0  1  0  0  0  0  0  0  0  0  0
  -28.3020  -13.6440   21.0979 C   0  0  1  0  0  0  0  0  0  0  0  0
  -20.0335  -28.0805   23.7246 C   0  0  1  0  0  0  0  0  0  0  0  0
  -22.1782  -22.1647   19.8618 C   0  0  0  0  0  0  0  0  0  0  0  0
  -19.4604  -24.4886   15.7658 C   0  0  0  0  0  0  0  0  0  0  0  0
  -20.6854  -14.7405   20.2097 C   0  0  0  0  0  0  0  0  0  0  0  0
  -26.1533  -12.6087   17.1391 C   0  0  0  0  0  0  0  0  0  0  0  0
  -23.7450  -13.2810   17.0112 C   0  0  0  0  0  0  0  0  0  0  0  0
  -24.4212  -11.3324   18.4141 C   0  0  0  0  0  0  0  0  0  0  0  0
  -22.9116  -16.3090   22.8667 C   0  0  0  0  0  0  0  0  0  0  0  0
  -28.9686  -22.2349   20.1587 C   0  0  0  0  0  0  0  0  0  0  0  0
  -19.6437  -24.8842   17.2152 C   0  0  0  0  0  0  0  0  0  0  0  0
  -29.5878  -20.9402   20.6632 C   0  0  0  0  0  0  0  0  0  1  0  0
  -24.9912  -13.6718   19.1850 C   0  0  1  0  0  0  0  0  0  0  0  0
  -21.9314  -14.8761   21.0709 C   0  0  2  0  0  0  0  0  0  0  0  0
  -24.8472  -12.7415   17.9475 C   0  0  0  0  0  0  0  0  0  0  0  0
  -22.0957  -28.8618   22.6162 N   0  0  0  0  0  0  0  0  0  0  0  0
  -21.1897  -29.0573   23.5894 N   0  0  0  0  0  0  0  0  0  0  0  0
  -27.1272  -14.1069   20.3563 N   0  0  0  0  0  0  0  0  0  0  0  0
  -20.1766  -26.3216   21.9447 N   0  0  0  0  0  0  0  0  0  0  0  0
  -20.6258  -30.4972   25.3837 N   0  0  0  0  0  0  0  0  0  0  0  0
  -24.2055  -31.7539   25.3524 N   0  0  0  0  0  0  0  0  0  0  0  0
  -26.9194  -23.4032   19.6340 N   0  0  0  0  0  0  0  0  0  0  0  0
  -20.7785  -25.3968   19.8306 N   0  0  0  0  0  0  0  0  0  0  0  0
  -30.4701  -12.6761   20.6288 N   0  0  0  0  0  0  0  0  0  0  0  0
  -23.7772  -13.7948   19.9846 N   0  0  0  0  0  0  0  0  0  0  0  0
  -21.0131  -24.5715   17.6323 N   0  3  0  0  0  0  0  0  0  0  0  0
  -21.7682  -16.0691   21.9491 N   0  3  0  0  0  0  0  0  0  0  0  0
  -22.9406  -33.0424   23.9387 O   0  0  0  0  0  0  0  0  0  0  0  0
  -29.0731  -13.3381   18.8873 O   0  0  0  0  0  0  0  0  0  0  0  0
  -25.9853  -12.0958   20.6528 O   0  0  0  0  0  0  0  0  0  0  0  0
  -26.8102  -21.1955   20.4408 O   0  0  0  0  0  0  0  0  0  0  0  0
  -23.5824  -16.0980   19.7986 O   0  0  0  0  0  0  0  0  0  0  0  0
  -22.3293  -25.5039   21.5656 O   0  0  0  0  0  0  0  0  0  0  0  0
  -27.3652  -30.4330   19.4044 O   0  0  0  0  0  0  0  0  0  0  0  0
  -29.2505  -19.8793   19.7790 O   0  0  0  0  0  0  0  0  0  1  0  0
  -28.7665  -26.0992   16.2967 F   0  0  0  0  0  0  0  0  0  0  0  0
  -29.8583  -29.2627   19.6441 F   0  0  0  0  0  0  0  0  0  0  0  0
  1  2  1  0  0  0  0
  1  6  2  0  0  0  0
  2  7  2  0  0  0  0
  3 10  2  0  0  0  0
  3 18  1  0  0  0  0
  4 11  1  0  0  0  0
  4 18  2  0  0  0  0
  5  9  2  0  0  0  0
  5 19  1  0  0  0  0
  6 21  1  0  0  0  0
  7 23  1  0  0  0  0
  8 12  2  0  0  0  0
  8 22  1  0  0  0  0
  9 26  1  0  0  0  0
 10 27  1  0  0  0  0
 11 27  2  0  0  0  0
 12 28  1  0  0  0  0
 13 14  2  0  0  0  0
 13 29  1  0  0  0  0
 14 30  1  0  0  0  0
 15 24  1  0  0  0  0
 15 28  2  0  0  0  0
 16 25  1  0  0  0  0
 16 26  2  0  0  0  0
 17 30  2  0  0  0  0
 17 31  1  0  0  0  0
 18 32  1  0  0  0  0
 19 25  2  0  0  0  0
 19 34  1  0  0  0  0
 20 32  1  0  0  0  0
 20 33  2  0  0  0  0
 20 35  1  0  0  0  0
 21 23  2  0  0  0  0
 21 41  1  0  0  0  0
 22 24  2  0  0  0  0
 22 42  1  0  0  0  0
 23 50  1  0  0  0  0
 24 43  1  0  0  0  0
 25 53  1  0  0  0  0
 26 72  1  0  0  0  0
 27 84  1  0  0  0  0
 28 85  1  0  0  0  0
 29 31  2  0  0  0  0
 29 84  1  0  0  0  0
 30 86  1  0  0  0  0
 31 87  1  0  0  0  0
 32 66  2  0  0  0  0
 33 67  1  0  0  0  0
 33 70  1  0  0  0  0
 34 73  1  0  0  0  0
 34 76  2  0  0  0  0
 35 71  1  0  0  0  0
 35 78  2  0  0  0  0
 36 51  1  0  0  0  0
 36 74  1  0  0  0  0
 36 79  2  0  0  0  0
 37 63  1  0  0  0  0
 37 68  1  0  0  0  0
 37 80  2  0  0  0  0
 38 60  1  0  0  0  0
 38 72  1  0  0  0  0
 38 81  2  0  0  0  0
 39 64  1  0  0  0  0
 39 75  1  0  0  0  0
 39 82  2  0  0  0  0
 40 69  1  0  0  0  0
 40 73  1  0  0  0  0
 40 83  2  0  0  0  0
 41 44  1  0  0  0  0
 42 51  1  0  0  0  0
 43 68  1  0  0  0  0
 44 46  1  0  0  0  0
 45 47  1  0  0  0  0
 45 48  1  0  0  0  0
 46 50  1  0  0  0  0
 47 52  1  0  0  0  0
 48 69  1  0  0  0  0
 49 52  1  0  0  0  0
 49 69  1  0  0  0  0
 50 74  1  0  0  0  0
 51 68  1  0  0  0  0
 52 67  1  0  0  0  0
 54 61  1  0  0  0  0
 55 64  1  0  0  0  0
 56 65  1  0  0  0  0
 57 65  1  0  0  0  0
 58 65  1  0  0  0  0
 59 77  1  0  0  0  0
 60 62  1  0  0  0  0
 61 76  1  0  0  0  0
 62 85  1  0  0  0  0
 63 65  1  0  0  0  0
 63 75  1  0  0  0  0
 64 77  1  0  0  0  0
 66 67  1  0  0  0  0
M  CHG  2  76   1  77   1
M  ISO  4  40 100  62 101  73 100  85 101
M  END
> <Batch ID>
0110

> <Smiles>
CCN=C([100NH:0][100C:0](=O)N1CCCC(n2nc(-c3ccc(Oc4ccc(F)cc4F)cc3)c(C(N)=O)c2N)C1)c1ccc(NC(=O)C[101CH2:1][101O:1]c2ccc3c(c2)CN(C(=O)C(NC(=O)C(C)NC)C(C)(C)C)C(C(=O)NC2CCCc4ccccc42)C3)cc1C

> <Shape>
0.244

> <Color>
0.069

> <Negative vol penalty>
0.000

$$$$

  -OEChem-04052301263D

 88 96  0     1  0  0  0  0  0999 V2000
  -15.3795  -26.4370   23.4774 C   0  0  0  0  0  0  0  0  0  0  0  0
  -16.3377  -25.7935   22.7008 C   0  0  0  0  0  0  0  0  0  0  0  0
  -22.2135  -14.3249   21.0487 C   0  0  0  0  0  0  0  0  0  0  0  0
  -24.1201  -13.3071   22.1286 C   0  0  0  0  0  0  0  0  0  0  0  0
  -15.6312  -27.7145   23.9760 C   0  0  0  0  0  0  0  0  0  0  0  0
  -17.5478  -26.4275   22.4215 C   0  0  0  0  0  0  0  0  0  0  0  0
  -23.0407  -23.7832   21.8375 C   0  0  0  0  0  0  0  0  0  0  0  0
  -21.4513  -13.1897   21.3245 C   0  0  0  0  0  0  0  0  0  0  0  0
  -23.3578  -12.1719   22.4044 C   0  0  0  0  0  0  0  0  0  0  0  0
  -23.7797  -23.3922   20.7218 C   0  0  0  0  0  0  0  0  0  0  0  0
  -22.2723   -9.4356   20.7416 C   0  0  0  0  0  0  0  0  0  0  0  0
  -22.8517   -8.1907   20.4966 C   0  0  0  0  0  0  0  0  0  0  0  0
  -29.5762  -20.8941   19.2106 C   0  0  0  0  0  0  0  0  0  0  0  0
  -24.9931  -25.4755   20.8029 C   0  0  0  0  0  0  0  0  0  0  0  0
  -29.1259  -21.2448   21.9414 C   0  0  0  0  0  0  0  0  0  0  0  0
  -22.5978   -7.6134   22.8289 C   0  0  0  0  0  0  0  0  0  0  0  0
  -23.5479  -14.3835   21.4507 C   0  0  0  0  0  0  0  0  0  0  0  0
  -29.8255  -19.8478   20.0986 C   0  0  0  0  0  0  0  0  0  0  0  0
  -24.4862  -16.6968   21.9762 C   0  0  0  0  0  0  0  0  0  0  0  0
  -16.8489  -28.3606   23.7107 C   0  0  0  0  0  0  0  0  0  0  0  0
  -23.2653  -25.0301   22.4387 C   0  0  0  0  0  0  0  0  0  0  0  0
  -17.8154  -27.7154   22.9159 C   0  0  0  0  0  0  0  0  0  0  0  0
  -24.2575  -25.8789   21.9277 C   0  0  0  0  0  0  0  0  0  0  0  0
  -29.6004  -20.0231   21.4639 C   0  0  0  0  0  0  0  0  0  0  0  0
  -22.0234  -12.1133   22.0024 C   0  0  0  0  0  0  0  0  0  0  0  0
  -24.7540  -24.2396   20.2025 C   0  0  0  0  0  0  0  0  0  0  0  0
  -21.8557   -9.7695   22.0303 C   0  0  0  0  0  0  0  0  0  0  0  0
  -29.1018  -22.1159   19.6880 C   0  0  0  0  0  0  0  0  0  0  0  0
  -28.8766  -22.2913   21.0534 C   0  0  0  0  0  0  0  0  0  0  0  0
  -23.0144   -7.2796   21.5402 C   0  0  0  0  0  0  0  0  0  0  0  0
  -22.0184   -8.8584   23.0739 C   0  0  0  0  0  0  0  0  0  0  0  0
  -24.3359  -15.5556   21.1656 C   0  0  0  0  0  0  0  0  0  0  0  0
  -25.3279  -17.5156   21.2638 C   0  0  0  0  0  0  0  0  0  0  0  0
  -30.3216  -18.5842   19.5677 C   0  0  0  0  0  0  0  0  0  0  0  0
  -23.9160  -16.9903   23.2586 C   0  0  0  0  0  0  0  0  0  0  0  0
  -29.9687  -18.1326   18.2022 C   0  0  0  0  0  0  0  0  0  0  0  0
  -21.5095  -27.6348   22.9247 C   0  0  0  0  0  0  0  0  0  0  0  0
  -24.1056  -28.5954   24.6158 C   0  0  0  0  0  0  0  0  0  0  0  0
  -29.6724  -19.0015   23.7608 C   0  0  0  0  0  0  0  0  0  0  0  0
  -27.4632  -28.3332   25.1677 C   0  0  0  0  0  0  0  0  0  0  0  0
  -17.0565  -29.7606   24.2320 C   0  0  0  0  0  0  0  0  0  0  0  0
  -22.4782  -25.4257   23.6579 C   0  0  0  0  0  0  0  0  0  0  0  0
  -24.5513  -27.2192   22.5487 C   0  0  0  0  0  0  0  0  0  0  0  0
  -18.5146  -30.2115   24.2026 C   0  0  0  0  0  0  0  0  0  0  0  0
  -26.9488  -17.2370   16.4892 C   0  0  0  0  0  0  0  0  0  0  0  0
  -19.1507  -29.8740   22.8579 C   0  0  0  0  0  0  0  0  0  0  0  0
  -26.0262  -16.7765   17.6173 C   0  0  0  0  0  0  0  0  0  0  0  0
  -28.4029  -16.8760   16.7747 C   0  0  0  0  0  0  0  0  0  0  0  0
  -27.9852  -16.9347   19.2182 C   0  0  0  0  0  0  0  0  0  0  0  0
  -19.1502  -28.3604   22.6117 C   0  0  1  0  0  0  0  0  0  0  0  0
  -22.4361  -26.9347   23.8781 C   0  0  1  0  0  0  0  0  0  0  0  0
  -26.5115  -17.3063   18.9784 C   0  0  2  0  0  0  0  0  0  0  0  0
  -30.0489  -17.6794   24.3811 C   0  0  0  0  0  0  0  0  0  0  0  0
  -29.3052  -29.2730   26.5894 C   0  0  0  0  0  0  0  0  0  0  0  0
  -24.1115  -31.1353   22.9249 C   0  0  0  0  0  0  0  0  0  0  0  0
  -26.4512  -31.5659   23.7051 C   0  0  0  0  0  0  0  0  0  0  0  0
  -24.5809  -31.4984   25.3544 C   0  0  0  0  0  0  0  0  0  0  0  0
  -28.0593  -25.6861   26.3494 C   0  0  0  0  0  0  0  0  0  0  0  0
  -28.2101  -23.5775   22.9394 C   0  0  0  0  0  0  0  0  0  0  0  0
  -27.1796  -24.1827   17.4349 C   0  0  0  0  0  0  0  0  0  0  0  0
  -26.4586  -24.7782   18.6340 C   0  0  0  0  0  0  0  0  0  1  0  0
  -27.8995  -22.8907   17.7880 C   0  0  0  0  0  0  0  0  0  0  0  0
  -25.3748  -29.3460   24.2918 C   0  0  1  0  0  0  0  0  0  0  0  0
  -28.2643  -28.1735   26.4472 C   0  0  2  0  0  0  0  0  0  0  0  0
  -25.1230  -30.8620   24.0559 C   0  0  0  0  0  0  0  0  0  0  0  0
  -25.0266  -15.6385   20.0254 N   0  0  0  0  0  0  0  0  0  0  0  0
  -31.0960  -17.7815   20.2433 N   0  0  0  0  0  0  0  0  0  0  0  0
  -25.6190  -16.8415   20.1144 N   0  0  0  0  0  0  0  0  0  0  0  0
  -28.8201  -17.3620   18.0884 N   0  0  0  0  0  0  0  0  0  0  0  0
  -23.7507  -27.5637   23.7353 N   0  0  0  0  0  0  0  0  0  0  0  0
  -25.8400  -18.7392   21.5146 N   0  0  0  0  0  0  0  0  0  0  0  0
  -23.0730  -16.0388   23.8486 N   0  0  0  0  0  0  0  0  0  0  0  0
  -29.8441  -18.9887   22.3716 N   0  0  0  0  0  0  0  0  0  0  0  0
  -20.2050  -27.7244   23.3715 N   0  0  0  0  0  0  0  0  0  0  0  0
  -26.3079  -29.0567   25.3753 N   0  0  0  0  0  0  0  0  0  0  0  0
  -28.9652  -26.8584   26.4588 N   0  3  0  0  0  0  0  0  0  0  0  0
  -24.1343  -18.0716   23.8559 O   0  0  0  0  0  0  0  0  0  0  0  0
  -30.7329  -18.4892   17.3148 O   0  0  0  0  0  0  0  0  0  0  0  0
  -21.9462  -28.0634   21.8629 O   0  0  0  0  0  0  0  0  0  0  0  0
  -23.4570  -28.9083   25.6173 O   0  0  0  0  0  0  0  0  0  0  0  0
  -29.2689  -19.9289   24.4552 O   0  0  0  0  0  0  0  0  0  0  0  0
  -27.8279  -27.8662   24.0908 O   0  0  0  0  0  0  0  0  0  0  0  0
  -21.2799  -11.0055   22.2718 O   0  0  0  0  0  0  0  0  0  0  0  0
  -28.4139  -23.4801   21.5312 O   0  0  0  0  0  0  0  0  0  0  0  0
  -25.4763  -23.8607   19.1132 O   0  0  0  0  0  0  0  0  0  1  0  0
  -28.8606  -23.1367   18.8057 O   0  0  0  0  0  0  0  0  0  0  0  0
  -23.5695   -6.0835   21.3044 F   0  0  0  0  0  0  0  0  0  0  0  0
  -21.6190   -9.1730   24.3138 F   0  0  0  0  0  0  0  0  0  0  0  0
  1  2  1  0  0  0  0
  1  5  2  0  0  0  0
  2  6  2  0  0  0  0
  3  8  2  0  0  0  0
  3 17  1  0  0  0  0
  4  9  1  0  0  0  0
  4 17  2  0  0  0  0
  5 20  1  0  0  0  0
  6 22  1  0  0  0  0
  7 10  2  0  0  0  0
  7 21  1  0  0  0  0
  8 25  1  0  0  0  0
  9 25  2  0  0  0  0
 10 26  1  0  0  0  0
 11 12  2  0  0  0  0
 11 27  1  0  0  0  0
 12 30  1  0  0  0  0
 13 18  2  0  0  0  0
 13 28  1  0  0  0  0
 14 23  1  0  0  0  0
 14 26  2  0  0  0  0
 15 24  2  0  0  0  0
 15 29  1  0  0  0  0
 16 30  2  0  0  0  0
 16 31  1  0  0  0  0
 17 32  1  0  0  0  0
 18 24  1  0  0  0  0
 18 34  1  0  0  0  0
 19 32  1  0  0  0  0
 19 33  2  0  0  0  0
 19 35  1  0  0  0  0
 20 22  2  0  0  0  0
 20 41  1  0  0  0  0
 21 23  2  0  0  0  0
 21 42  1  0  0  0  0
 22 50  1  0  0  0  0
 23 43  1  0  0  0  0
 24 73  1  0  0  0  0
 25 83  1  0  0  0  0
 26 85  1  0  0  0  0
 27 31  2  0  0  0  0
 27 83  1  0  0  0  0
 28 29  2  0  0  0  0
 28 86  1  0  0  0  0
 29 84  1  0  0  0  0
 30 87  1  0  0  0  0
 31 88  1  0  0  0  0
 32 66  2  0  0  0  0
 33 68  1  0  0  0  0
 33 71  1  0  0  0  0
 34 36  1  0  0  0  0
 34 67  2  0  0  0  0
 35 72  1  0  0  0  0
 35 77  2  0  0  0  0
 36 69  1  0  0  0  0
 36 78  2  0  0  0  0
 37 51  1  0  0  0  0
 37 74  1  0  0  0  0
 37 79  2  0  0  0  0
 38 63  1  0  0  0  0
 38 70  1  0  0  0  0
 38 80  2  0  0  0  0
 39 53  1  0  0  0  0
 39 73  1  0  0  0  0
 39 81  2  0  0  0  0
 40 64  1  0  0  0  0
 40 75  1  0  0  0  0
 40 82  2  0  0  0  0
 41 44  1  0  0  0  0
 42 51  1  0  0  0  0
 43 70  1  0  0  0  0
 44 46  1  0  0  0  0
 45 47  1  0  0  0  0
 45 48  1  0  0  0  0
 46 50  1  0  0  0  0
 47 52  1  0  0  0  0
 48 69  1  0  0  0  0
 49 52  1  0  0  0  0
 49 69  1  0  0  0  0
 50 74  1  0  0  0  0
 51 70  1  0  0  0  0
 52 68  1  0  0  0  0
 54 64  1  0  0  0  0
 55 65  1  0  0  0  0
 56 65  1  0  0  0  0
 57 65  1  0  0  0  0
 58 76  1  0  0  0  0
 59 84  1  0  0  0  0
 60 61  1  0  0  0  0
 60 62  1  0  0  0  0
 61 85  1  0  0  0  0
 62 86  1  0  0  0  0
 63 65  1  0  0  0  0
 63 75  1  0  0  0  0
 64 76  1  0  0  0  0
 66 68  1  0  0  0  0
M  CHG  1  76   1
M  ISO  4  34 100  36 100  61 101  85 101
M  END
> <Batch ID>
0110

> <Smiles>
CNC(C)C(=O)NC(C(=O)N1Cc2cc([101O:1][101CH2:1]CCOc3cc([100C:0](=N)[100C:0](=O)N4CCCC(n5nc(-c6ccc(Oc7ccc(F)cc7F)cc6)c(C(N)=O)c5N)C4)c(NC(C)=O)cc3OC)ccc2CC1C(=O)NC1CCCc2ccccc21)C(C)(C)C

> <Shape>
0.228

> <Color>
0.058

> <Negative vol penalty>
0.000

$$$$

  -OEChem-04052301263D

 88 96  0     1  0  0  0  0  0999 V2000
  -27.8885  -24.0570   17.8150 C   0  0  0  0  0  0  0  0  0  0  0  0
  -26.6683  -24.4432   18.3603 C   0  0  0  0  0  0  0  0  0  0  0  0
  -29.9166  -17.4868   23.2991 C   0  0  0  0  0  0  0  0  0  0  0  0
  -29.2310  -19.5142   22.1780 C   0  0  0  0  0  0  0  0  0  0  0  0
  -29.0792  -24.4852   18.4006 C   0  0  0  0  0  0  0  0  0  0  0  0
  -26.6381  -25.2572   19.4921 C   0  0  0  0  0  0  0  0  0  0  0  0
  -23.2603  -29.0094   19.0970 C   0  0  0  0  0  0  0  0  0  0  0  0
  -30.2718  -16.9281   22.0714 C   0  0  0  0  0  0  0  0  0  0  0  0
  -29.5863  -18.9555   20.9503 C   0  0  0  0  0  0  0  0  0  0  0  0
  -21.9204  -28.6844   19.3039 C   0  0  0  0  0  0  0  0  0  0  0  0
  -31.0235  -14.8346   19.1946 C   0  0  0  0  0  0  0  0  0  0  0  0
  -30.6310  -13.5205   18.9405 C   0  0  0  0  0  0  0  0  0  0  0  0
  -22.0642  -29.5478   21.5518 C   0  0  0  0  0  0  0  0  0  0  0  0
  -21.0151  -22.5230   25.7974 C   0  0  0  0  0  0  0  0  0  0  0  0
  -28.3157  -14.1636   19.1922 C   0  0  0  0  0  0  0  0  0  0  0  0
  -29.3961  -18.7799   23.3524 C   0  0  0  0  0  0  0  0  0  0  0  0
  -22.7264  -23.7812   24.6462 C   0  0  0  0  0  0  0  0  0  0  0  0
  -29.8487  -20.1110   25.4810 C   0  0  0  0  0  0  0  0  0  0  0  0
  -29.0635  -25.3127   19.5344 C   0  0  0  0  0  0  0  0  0  0  0  0
  -24.0164  -29.5971   20.1214 C   0  0  0  0  0  0  0  0  0  0  0  0
  -27.8297  -25.6958   20.0941 C   0  0  0  0  0  0  0  0  0  0  0  0
  -23.4128  -29.8817   21.3545 C   0  0  0  0  0  0  0  0  0  0  0  0
  -22.3629  -22.7777   25.5442 C   0  0  0  0  0  0  0  0  0  0  0  0
  -20.0307  -23.2718   25.1526 C   0  0  0  0  0  0  0  0  0  0  0  0
  -30.1068  -17.6624   20.8970 C   0  0  0  0  0  0  0  0  0  0  0  0
  -21.3229  -28.9509   20.5323 C   0  0  0  0  0  0  0  0  0  0  0  0
  -30.0622  -15.8132   19.4476 C   0  0  0  0  0  0  0  0  0  0  0  0
  -21.7419  -24.5301   24.0013 C   0  0  0  0  0  0  0  0  0  0  0  0
  -20.3941  -24.2754   24.2545 C   0  0  0  0  0  0  0  0  0  0  0  0
  -29.2771  -13.1850   18.9393 C   0  0  0  0  0  0  0  0  0  0  0  0
  -28.7083  -15.4777   19.4464 C   0  0  0  0  0  0  0  0  0  0  0  0
  -29.0284  -19.3574   24.6202 C   0  0  0  0  0  0  0  0  0  0  0  0
  -29.0358  -20.4243   26.5429 C   0  0  0  0  0  0  0  0  0  0  0  0
  -24.7156  -25.2158   24.6305 C   0  0  0  0  0  0  0  0  0  0  0  0
  -24.1351  -24.0558   24.3732 C   0  0  0  0  0  0  0  0  0  0  0  0
  -31.2226  -20.4936   25.3338 C   0  0  0  0  0  0  0  0  0  0  0  0
  -26.6064  -28.7577   21.7618 C   0  0  0  0  0  0  0  0  0  0  0  0
  -18.4587  -27.3355   22.0646 C   0  0  0  0  0  0  0  0  0  0  0  0
  -26.3259  -31.7497   22.9833 C   0  0  0  0  0  0  0  0  0  0  0  0
  -24.3164  -34.4197   23.6757 C   0  0  0  0  0  0  0  0  0  0  0  0
  -23.1144  -20.9695   27.1293 C   0  0  0  0  0  0  0  0  0  0  0  0
  -30.3765  -25.7116   20.1602 C   0  0  0  0  0  0  0  0  0  0  0  0
  -25.4534  -29.9662   19.8734 C   0  0  0  0  0  0  0  0  0  0  0  0
  -24.1754  -30.5300   22.4799 C   0  0  0  0  0  0  0  0  0  0  0  0
  -30.2563  -26.8792   21.1361 C   0  0  0  0  0  0  0  0  0  0  0  0
  -25.2442  -18.7871   28.9671 C   0  0  0  0  0  0  0  0  0  0  0  0
  -29.0776  -26.6664   22.0807 C   0  0  0  0  0  0  0  0  0  0  0  0
  -26.5331  -18.7590   28.1425 C   0  0  0  0  0  0  0  0  0  0  0  0
  -24.0035  -18.8520   28.0782 C   0  0  0  0  0  0  0  0  0  0  0  0
  -25.2930  -19.9100   26.2652 C   0  0  0  0  0  0  0  0  0  0  0  0
  -27.7556  -26.5983   21.3066 C   0  0  1  0  0  0  0  0  0  0  0  0
  -26.2682  -30.0910   21.1571 C   0  0  1  0  0  0  0  0  0  0  0  0
  -26.5720  -19.9101   27.1183 C   0  0  2  0  0  0  0  0  0  0  0  0
  -24.3642  -36.7049   24.7115 C   0  0  0  0  0  0  0  0  0  0  0  0
  -26.3909  -30.4869   25.7602 C   0  0  0  0  0  0  0  0  0  0  0  0
  -25.4968  -32.6361   26.6822 C   0  0  0  0  0  0  0  0  0  0  0  0
  -27.7154  -32.5970   25.5425 C   0  0  0  0  0  0  0  0  0  0  0  0
  -23.4947  -35.7118   21.1431 C   0  0  0  0  0  0  0  0  0  0  0  0
  -22.2225  -25.1403   21.7535 C   0  0  0  0  0  0  0  0  0  0  0  0
  -17.9473  -26.9151   23.4346 C   0  0  0  0  0  0  0  0  0  0  0  0
  -19.6292  -28.2994   22.0695 C   0  0  0  0  0  0  0  0  0  1  0  0
  -19.0005  -26.2024   24.2705 C   0  0  0  0  0  0  0  0  0  0  0  0
  -25.6095  -32.3596   24.1639 C   0  0  1  0  0  0  0  0  0  0  0  0
  -24.4940  -35.9062   23.4240 C   0  0  2  0  0  0  0  0  0  0  0  0
  -26.2890  -32.0059   25.5168 C   0  0  0  0  0  0  0  0  0  0  0  0
  -27.7895  -19.2012   25.0943 N   0  0  0  0  0  0  0  0  0  0  0  0
  -27.8253  -19.8610   26.2646 N   0  0  0  0  0  0  0  0  0  0  0  0
  -25.5793  -30.8663   22.1908 N   0  0  0  0  0  0  0  0  0  0  0  0
  -24.1089  -19.9688   27.1367 N   0  0  0  0  0  0  0  0  0  0  0  0
  -18.6702  -23.0033   25.4197 N   0  0  0  0  0  0  0  0  0  0  0  0
  -29.2456  -21.1239   27.6782 N   0  0  0  0  0  0  0  0  0  0  0  0
  -31.9094  -20.0878   24.1815 N   0  0  0  0  0  0  0  0  0  0  0  0
  -23.3379  -21.9979   26.2143 N   0  0  0  0  0  0  0  0  0  0  0  0
  -27.3249  -27.9260   20.9243 N   0  0  0  0  0  0  0  0  0  0  0  0
  -25.5238  -33.7909   23.8944 N   0  0  0  0  0  0  0  0  0  0  0  0
  -23.4662  -36.3950   22.4619 N   0  3  0  0  0  0  0  0  0  0  0  0
  -31.8280  -21.1613   26.2063 O   0  0  0  0  0  0  0  0  0  0  0  0
  -26.2437  -28.5030   22.9043 O   0  0  0  0  0  0  0  0  0  0  0  0
  -17.9636  -26.9240   21.0165 O   0  0  0  0  0  0  0  0  0  0  0  0
  -27.5024  -32.0515   22.7680 O   0  0  0  0  0  0  0  0  0  0  0  0
  -23.2162  -33.8719   23.6817 O   0  0  0  0  0  0  0  0  0  0  0  0
  -22.1504  -20.9322   27.8983 O   0  0  0  0  0  0  0  0  0  0  0  0
  -30.4536  -17.1176   19.6989 O   0  0  0  0  0  0  0  0  0  0  0  0
  -22.0806  -25.5166   23.1205 O   0  0  0  0  0  0  0  0  0  0  0  0
  -20.0154  -28.6340   20.7371 O   0  0  0  0  0  0  0  0  0  1  0  0
  -19.4314  -25.0142   23.6184 O   0  0  0  0  0  0  0  0  0  0  0  0
  -28.9001  -11.9233   18.6937 F   0  0  0  0  0  0  0  0  0  0  0  0
  -27.7802  -16.4137   19.6876 F   0  0  0  0  0  0  0  0  0  0  0  0
  1  2  1  0  0  0  0
  1  5  2  0  0  0  0
  2  6  2  0  0  0  0
  3  8  2  0  0  0  0
  3 16  1  0  0  0  0
  4  9  1  0  0  0  0
  4 16  2  0  0  0  0
  5 19  1  0  0  0  0
  6 21  1  0  0  0  0
  7 10  2  0  0  0  0
  7 20  1  0  0  0  0
  8 25  1  0  0  0  0
  9 25  2  0  0  0  0
 10 26  1  0  0  0  0
 11 12  2  0  0  0  0
 11 27  1  0  0  0  0
 12 30  1  0  0  0  0
 13 22  1  0  0  0  0
 13 26  2  0  0  0  0
 14 23  2  0  0  0  0
 14 24  1  0  0  0  0
 15 30  2  0  0  0  0
 15 31  1  0  0  0  0
 16 32  1  0  0  0  0
 17 23  1  0  0  0  0
 17 28  2  0  0  0  0
 17 35  1  0  0  0  0
 18 32  1  0  0  0  0
 18 33  2  0  0  0  0
 18 36  1  0  0  0  0
 19 21  2  0  0  0  0
 19 42  1  0  0  0  0
 20 22  2  0  0  0  0
 20 43  1  0  0  0  0
 21 51  1  0  0  0  0
 22 44  1  0  0  0  0
 23 73  1  0  0  0  0
 24 29  2  0  0  0  0
 24 70  1  0  0  0  0
 25 83  1  0  0  0  0
 26 85  1  0  0  0  0
 27 31  2  0  0  0  0
 27 83  1  0  0  0  0
 28 29  1  0  0  0  0
 28 84  1  0  0  0  0
 29 86  1  0  0  0  0
 30 87  1  0  0  0  0
 31 88  1  0  0  0  0
 32 66  2  0  0  0  0
 33 67  1  0  0  0  0
 33 71  1  0  0  0  0
 34 35  2  0  0  0  0
 36 72  1  0  0  0  0
 36 77  2  0  0  0  0
 37 52  1  0  0  0  0
 37 74  1  0  0  0  0
 37 78  2  0  0  0  0
 38 60  1  0  0  0  0
 38 61  1  0  0  0  0
 38 79  2  0  0  0  0
 39 63  1  0  0  0  0
 39 68  1  0  0  0  0
 39 80  2  0  0  0  0
 40 64  1  0  0  0  0
 40 75  1  0  0  0  0
 40 81  2  0  0  0  0
 41 69  1  0  0  0  0
 41 73  1  0  0  0  0
 41 82  2  0  0  0  0
 42 45  1  0  0  0  0
 43 52  1  0  0  0  0
 44 68  1  0  0  0  0
 45 47  1  0  0  0  0
 46 48  1  0  0  0  0
 46 49  1  0  0  0  0
 47 51  1  0  0  0  0
 48 53  1  0  0  0  0
 49 69  1  0  0  0  0
 50 53  1  0  0  0  0
 50 69  1  0  0  0  0
 51 74  1  0  0  0  0
 52 68  1  0  0  0  0
 53 67  1  0  0  0  0
 54 64  1  0  0  0  0
 55 65  1  0  0  0  0
 56 65  1  0  0  0  0
 57 65  1  0  0  0  0
 58 76  1  0  0  0  0
 59 84  1  0  0  0  0
 60 62  1  0  0  0  0
 61 85  1  0  0  0  0
 62 86  1  0  0  0  0
 63 65  1  0  0  0  0
 63 75  1  0  0  0  0
 64 76  1  0  0  0  0
 66 67  1  0  0  0  0
M  CHG  1  76   1
M  ISO  4  41 100  61 101  73 100  85 101
M  END
> <Batch ID>
0110

> <Smiles>
C=Cc1c([100NH:0][100C:0](=O)N2CCCC(n3nc(-c4ccc(Oc5ccc(F)cc5F)cc4)c(C(N)=O)c3N)C2)cc(N)c(OCCC(=O)[101CH2:1][101O:1]c2ccc3c(c2)CN(C(=O)C(NC(=O)C(C)NC)C(C)(C)C)C(C(=O)NC2CCCc4ccccc42)C3)c1OC

> <Shape>
0.260

> <Color>
0.056

> <Negative vol penalty>
0.000

$$$$

  -OEChem-04052301263D

 87 96  0     1  0  0  0  0  0999 V2000
  -25.2477  -35.9374   15.9234 C   0  0  0  0  0  0  0  0  0  0  0  0
  -25.5734  -34.5853   15.8915 C   0  0  0  0  0  0  0  0  0  0  0  0
  -23.6633   -9.3097   20.7751 C   0  0  0  0  0  0  0  0  0  0  0  0
  -23.2135  -11.2726   22.1099 C   0  0  0  0  0  0  0  0  0  0  0  0
  -25.3683  -36.6544   17.1131 C   0  0  0  0  0  0  0  0  0  0  0  0
  -26.0210  -33.9495   17.0490 C   0  0  0  0  0  0  0  0  0  0  0  0
  -24.9316  -28.1610   18.7260 C   0  0  0  0  0  0  0  0  0  0  0  0
  -30.3945  -19.9581   18.9102 C   0  0  0  0  0  0  0  0  0  0  0  0
  -30.3118  -18.5709   19.0300 C   0  0  0  0  0  0  0  0  0  0  0  0
  -22.8814   -8.5430   21.6390 C   0  0  0  0  0  0  0  0  0  0  0  0
  -22.4315  -10.5059   22.9738 C   0  0  0  0  0  0  0  0  0  0  0  0
  -25.6893  -26.9955   18.6205 C   0  0  0  0  0  0  0  0  0  0  0  0
  -19.5924   -7.9738   22.1786 C   0  0  0  0  0  0  0  0  0  0  0  0
  -18.6854   -7.0793   21.6104 C   0  0  0  0  0  0  0  0  0  0  0  0
  -26.4764  -27.3099   20.8789 C   0  0  0  0  0  0  0  0  0  0  0  0
  -28.1247  -18.6127   18.0042 C   0  0  0  0  0  0  0  0  0  0  0  0
  -19.7995   -5.2449   22.7200 C   0  0  0  0  0  0  0  0  0  0  0  0
  -23.8294  -10.6746   21.0106 C   0  0  0  0  0  0  0  0  0  0  0  0
  -24.2092  -12.1527   18.9665 C   0  0  0  0  0  0  0  0  0  0  0  0
  -25.8083  -36.0248   18.2881 C   0  0  0  0  0  0  0  0  0  0  0  0
  -24.9491  -28.9169   19.9069 C   0  0  0  0  0  0  0  0  0  0  0  0
  -26.1488  -34.6591   18.2552 C   0  0  0  0  0  0  0  0  0  0  0  0
  -25.7161  -28.4833   20.9978 C   0  0  0  0  0  0  0  0  0  0  0  0
  -29.3422  -20.6727   18.3376 C   0  0  0  0  0  0  0  0  0  0  0  0
  -29.1770  -17.8982   18.5769 C   0  0  0  0  0  0  0  0  0  0  0  0
  -28.2074  -19.9999   17.8846 C   0  0  0  0  0  0  0  0  0  0  0  0
  -22.2654   -9.1411   22.7383 C   0  0  0  0  0  0  0  0  0  0  0  0
  -26.4641  -26.5713   19.6960 C   0  0  0  0  0  0  0  0  0  0  0  0
  -20.6030   -7.5039   23.0174 C   0  0  0  0  0  0  0  0  0  0  0  0
  -18.7889   -5.7148   21.8811 C   0  0  0  0  0  0  0  0  0  0  0  0
  -20.7065   -6.1395   23.2881 C   0  0  0  0  0  0  0  0  0  0  0  0
  -24.6375  -11.4670   20.1189 C   0  0  0  0  0  0  0  0  0  0  0  0
  -25.3469  -12.7469   18.4777 C   0  0  0  0  0  0  0  0  0  0  0  0
  -28.9494  -24.3089   18.4332 C   0  0  0  0  0  0  0  0  0  0  0  0
  -28.1636  -25.3750   18.6231 C   0  0  0  0  0  0  0  0  0  1  0  0
  -22.8998  -12.2445   18.3895 C   0  0  0  0  0  0  0  0  0  0  0  0
  -29.6268  -23.0942   20.4060 C   0  0  0  0  0  0  0  0  0  0  0  0
  -25.8327  -31.8749   20.6639 C   0  0  0  0  0  0  0  0  0  0  0  0
  -24.5785  -31.0934   23.5516 C   0  0  0  0  0  0  0  0  0  0  0  0
  -23.7226  -28.6476   25.7724 C   0  0  0  0  0  0  0  0  0  0  0  0
  -30.0491  -15.6298   19.2405 C   0  0  0  0  0  0  0  0  0  0  0  0
  -25.9678  -36.8523   19.5390 C   0  0  0  0  0  0  0  0  0  0  0  0
  -24.1053  -30.1574   20.0141 C   0  0  0  0  0  0  0  0  0  0  0  0
  -25.7535  -29.2481   22.2948 C   0  0  0  0  0  0  0  0  0  0  0  0
  -30.0094  -24.2036   17.3815 C   0  0  0  0  0  0  0  0  0  0  0  0
  -26.0919  -36.0166   20.8104 C   0  0  0  0  0  0  0  0  0  0  0  0
  -30.2039  -12.1098   19.7529 C   0  0  0  0  0  0  0  0  0  0  0  0
  -27.0847  -34.8768   20.6052 C   0  0  0  0  0  0  0  0  0  0  0  0
  -28.7343  -11.6851   19.7990 C   0  0  0  0  0  0  0  0  0  0  0  0
  -30.0209  -22.7121   17.0567 C   0  0  0  0  0  0  0  0  0  0  0  0
  -30.4220  -13.4704   20.4123 C   0  0  0  0  0  0  0  0  0  0  0  0
  -28.0908  -14.1240   19.9569 C   0  0  0  0  0  0  0  0  0  0  0  0
  -26.6142  -33.9283   19.4960 C   0  0  1  0  0  0  0  0  0  0  0  0
  -28.8215  -22.9965   19.1490 C   0  0  2  0  0  0  0  0  0  0  0  0
  -24.5999  -31.1258   21.0842 C   0  0  1  0  0  0  0  0  0  0  0  0
  -27.8111  -12.7892   19.2472 C   0  0  2  0  0  0  0  0  0  0  0  0
  -28.8953  -22.8534   21.6988 C   0  0  0  0  0  0  0  0  0  0  0  0
  -22.7534  -28.3186   28.0636 C   0  0  0  0  0  0  0  0  0  0  0  0
  -27.2347  -31.9374   24.7936 C   0  0  0  0  0  0  0  0  0  0  0  0
  -26.5663  -30.7222   26.8780 C   0  0  0  0  0  0  0  0  0  0  0  0
  -25.2096  -32.6549   26.0738 C   0  0  0  0  0  0  0  0  0  0  0  0
  -21.4252  -27.1158   24.7073 C   0  0  0  0  0  0  0  0  0  0  0  0
  -25.1143  -30.4644   24.8150 C   0  0  1  0  0  0  0  0  0  0  0  0
  -22.4555  -28.4147   26.5754 C   0  0  2  0  0  0  0  0  0  0  0  0
  -26.0323  -31.4311   25.6151 C   0  0  0  0  0  0  0  0  0  0  0  0
  -25.9454  -11.6112   20.3485 N   0  0  0  0  0  0  0  0  0  0  0  0
  -26.3487  -12.3944   19.3335 N   0  0  0  0  0  0  0  0  0  0  0  0
  -29.4448  -22.0484   18.2281 N   0  0  3  0  0  0  0  0  0  0  0  0
  -24.9163  -30.4579   22.3483 N   0  0  0  0  0  0  0  0  0  0  0  0
  -29.5165  -14.4670   19.8363 N   0  0  0  0  0  0  0  0  0  0  0  0
  -27.1305  -20.7046   17.3012 N   0  0  0  0  0  0  0  0  0  0  0  0
  -25.5782  -13.5313   17.4036 N   0  0  0  0  0  0  0  0  0  0  0  0
  -21.8434  -11.5729   19.0197 N   0  0  0  0  0  0  0  0  0  0  0  0
  -29.0940  -16.4888   18.6978 N   0  0  0  0  0  0  0  0  0  0  0  0
  -25.5729  -33.0520   19.9883 N   0  0  0  0  0  0  0  0  0  0  0  0
  -23.9526  -29.9903   25.5594 N   0  0  0  0  0  0  0  0  0  0  0  0
  -21.7951  -27.1497   26.1457 N   0  3  0  0  0  0  0  0  0  0  0  0
  -22.6765  -12.8891   17.3368 O   0  0  0  0  0  0  0  0  0  0  0  0
  -30.8284  -23.3565   20.3838 O   0  0  0  0  0  0  0  0  0  0  0  0
  -26.9379  -31.4195   20.9340 O   0  0  0  0  0  0  0  0  0  0  0  0
  -23.8800  -32.1071   23.6299 O   0  0  0  0  0  0  0  0  0  0  0  0
  -24.4387  -27.7303   25.3770 O   0  0  0  0  0  0  0  0  0  0  0  0
  -31.2646  -15.8344   19.1895 O   0  0  0  0  0  0  0  0  0  0  0  0
  -21.5021   -8.3933   23.5814 O   0  0  0  0  0  0  0  0  0  0  0  0
  -27.2052  -25.4344   19.5955 O   0  0  0  0  0  0  0  0  0  1  0  0
  -17.9170   -4.8561   21.3367 F   0  0  0  0  0  0  0  0  0  0  0  0
  -21.6745   -5.6822   24.0942 F   0  0  0  0  0  0  0  0  0  0  0  0
  1  2  1  0  0  0  0
  1  5  2  0  0  0  0
  2  6  2  0  0  0  0
  3 10  2  0  0  0  0
  3 18  1  0  0  0  0
  4 11  1  0  0  0  0
  4 18  2  0  0  0  0
  5 20  1  0  0  0  0
  6 22  1  0  0  0  0
  7 12  2  0  0  0  0
  7 21  1  0  0  0  0
  8  9  2  0  0  0  0
  8 24  1  0  0  0  0
  9 25  1  0  0  0  0
 10 27  1  0  0  0  0
 11 27  2  0  0  0  0
 12 28  1  0  0  0  0
 13 14  2  0  0  0  0
 13 29  1  0  0  0  0
 14 30  1  0  0  0  0
 15 23  1  0  0  0  0
 15 28  2  0  0  0  0
 16 25  2  0  0  0  0
 16 26  1  0  0  0  0
 17 30  2  0  0  0  0
 17 31  1  0  0  0  0
 18 32  1  0  0  0  0
 19 32  1  0  0  0  0
 19 33  2  0  0  0  0
 19 36  1  0  0  0  0
 20 22  2  0  0  0  0
 20 42  1  0  0  0  0
 21 23  2  0  0  0  0
 21 43  1  0  0  0  0
 22 53  1  0  0  0  0
 23 44  1  0  0  0  0
 24 26  2  0  0  0  0
 24 68  1  0  0  0  0
 25 74  1  0  0  0  0
 26 71  1  0  0  0  0
 27 84  1  0  0  0  0
 28 85  1  0  0  0  0
 29 31  2  0  0  0  0
 29 84  1  0  0  0  0
 30 86  1  0  0  0  0
 31 87  1  0  0  0  0
 32 66  2  0  0  0  0
 33 67  1  0  0  0  0
 33 72  1  0  0  0  0
 34 35  2  0  0  0  0
 34 45  1  0  0  0  0
 34 54  1  0  0  0  0
 35 85  1  0  0  0  0
 36 73  1  0  0  0  0
 36 78  2  0  0  0  0
 37 54  1  0  0  0  0
 37 57  1  0  0  0  0
 37 79  2  0  0  0  0
 38 55  1  0  0  0  0
 38 75  1  0  0  0  0
 38 80  2  0  0  0  0
 39 63  1  0  0  0  0
 39 69  1  0  0  0  0
 39 81  2  0  0  0  0
 40 64  1  0  0  0  0
 40 76  1  0  0  0  0
 40 82  2  0  0  0  0
 41 70  1  0  0  0  0
 41 74  1  0  0  0  0
 41 83  2  0  0  0  0
 42 46  1  0  0  0  0
 43 55  1  0  0  0  0
 44 69  1  0  0  0  0
 45 50  1  0  0  0  0
 46 48  1  0  0  0  0
 47 49  1  0  0  0  0
 47 51  1  0  0  0  0
 48 53  1  0  0  0  0
 49 56  1  0  0  0  0
 50 68  1  0  0  0  0
 51 70  1  0  0  0  0
 52 56  1  0  0  0  0
 52 70  1  0  0  0  0
 53 75  1  0  0  0  0
 54 68  1  0  0  0  0
 55 69  1  0  0  0  0
 56 67  1  0  0  0  0
 58 64  1  0  0  0  0
 59 65  1  0  0  0  0
 60 65  1  0  0  0  0
 61 65  1  0  0  0  0
 62 77  1  0  0  0  0
 63 65  1  0  0  0  0
 63 76  1  0  0  0  0
 64 77  1  0  0  0  0
 66 67  1  0  0  0  0
M  CHG  1  77   1
M  ISO  4  35 101  41 100  74 100  85 101
M  END
> <Batch ID>
0110

> <Smiles>
CNC(C)C(=O)NC(C(=O)N1Cc2cc([101O:1][101CH:1]=C3CCN(c4ccc([100NH:0][100C:0](=O)N5CCCC(n6nc(-c7ccc(Oc8ccc(F)cc8F)cc7)c(C(N)=O)c6N)C5)cc4N)C3C(C)=O)ccc2CC1C(=O)NC1CCCc2ccccc21)C(C)(C)C

> <Shape>
0.280

> <Color>
0.104

> <Negative vol penalty>
0.000

$$$$

  -OEChem-04052301263D

 90 99  0     1  0  0  0  0  0999 V2000
  -18.8725  -31.8987   19.2653 C   0  0  0  0  0  0  0  0  0  0  0  0
  -19.9792  -31.1177   18.9483 C   0  0  0  0  0  0  0  0  0  0  0  0
  -23.2512  -10.4414   22.3041 C   0  0  0  0  0  0  0  0  0  0  0  0
  -23.4629   -9.7252   20.0064 C   0  0  0  0  0  0  0  0  0  0  0  0
  -18.5910  -32.1988   20.5974 C   0  0  0  0  0  0  0  0  0  0  0  0
  -20.8059  -30.6372   19.9633 C   0  0  0  0  0  0  0  0  0  0  0  0
  -23.7551  -25.2711   20.0790 C   0  0  0  0  0  0  0  0  0  0  0  0
  -22.4466   -9.3347   22.5749 C   0  0  0  0  0  0  0  0  0  0  0  0
  -22.6583   -8.6184   20.2772 C   0  0  0  0  0  0  0  0  0  0  0  0
  -25.0709  -24.9175   19.7837 C   0  0  0  0  0  0  0  0  0  0  0  0
  -19.2290   -8.4176   22.0947 C   0  0  0  0  0  0  0  0  0  0  0  0
  -18.0690   -8.6275   22.8403 C   0  0  0  0  0  0  0  0  0  0  0  0
  -25.6306  -25.0688   22.1253 C   0  0  0  0  0  0  0  0  0  0  0  0
  -30.8675  -19.1412   21.6848 C   0  0  0  0  0  0  0  0  0  0  0  0
  -18.8787   -7.1018   24.5296 C   0  0  0  0  0  0  0  0  0  0  0  0
  -23.7593  -10.6367   21.0198 C   0  0  0  0  0  0  0  0  0  0  0  0
  -30.2878  -16.8417   21.2839 C   0  0  0  0  0  0  0  0  0  0  0  0
  -24.2415  -13.1374   20.8733 C   0  0  0  0  0  0  0  0  0  0  0  0
  -19.4091  -31.7138   21.6299 C   0  0  0  0  0  0  0  0  0  0  0  0
  -23.3690  -25.5374   21.4005 C   0  0  0  0  0  0  0  0  0  0  0  0
  -20.5358  -30.9322   21.3105 C   0  0  0  0  0  0  0  0  0  0  0  0
  -24.3087  -25.4232   22.4350 C   0  0  0  0  0  0  0  0  0  0  0  0
  -30.9552  -17.7996   22.0392 C   0  0  0  0  0  0  0  0  0  0  0  0
  -22.1502   -8.4232   21.5615 C   0  0  0  0  0  0  0  0  0  0  0  0
  -26.0096  -24.8191   20.8066 C   0  0  0  0  0  0  0  0  0  0  0  0
  -20.2139   -7.5497   22.5665 C   0  0  0  0  0  0  0  0  0  0  0  0
  -17.8938   -7.9697   24.0577 C   0  0  0  0  0  0  0  0  0  0  0  0
  -20.0387   -6.8919   23.7840 C   0  0  0  0  0  0  0  0  0  0  0  0
  -24.5900  -11.7801   20.7392 C   0  0  0  0  0  0  0  0  0  0  0  0
  -30.1056  -19.4705   20.5753 C   0  0  0  0  0  0  0  0  0  0  0  0
  -29.5517  -17.2739   20.1925 C   0  0  0  0  0  0  0  0  0  0  0  0
  -25.3679  -13.8210   20.4853 C   0  0  0  0  0  0  0  0  0  0  0  0
  -28.7484  -22.8080   19.5928 C   0  0  0  0  0  0  0  0  0  0  0  0
  -28.8280  -21.5832   20.1671 C   0  0  0  0  0  0  0  0  0  0  0  0
  -30.0195  -23.4344   19.1004 C   0  0  0  0  0  0  0  0  0  0  0  0
  -30.3711  -15.4296   21.6410 C   0  0  0  0  0  0  0  0  0  0  0  0
  -23.0099  -13.7276   21.3097 C   0  0  0  0  0  0  0  0  0  0  0  0
  -30.9244  -14.4306   20.6980 C   0  0  0  0  0  0  0  0  0  0  0  0
  -22.2232  -28.0744   22.9349 C   0  0  0  0  0  0  0  0  0  0  0  0
  -21.9498  -25.9771   25.3943 C   0  0  0  0  0  0  0  0  0  0  0  0
  -23.9272  -23.3163   26.8181 C   0  0  0  0  0  0  0  0  0  0  0  0
  -19.0916  -32.1040   23.0518 C   0  0  0  0  0  0  0  0  0  0  0  0
  -21.9394  -25.8916   21.7057 C   0  0  0  0  0  0  0  0  0  0  0  0
  -23.9402  -25.6789   23.8728 C   0  0  0  0  0  0  0  0  0  0  0  0
  -31.3244  -22.8043   19.5196 C   0  0  0  0  0  0  0  0  0  0  0  0
  -19.8039  -31.2443   24.0928 C   0  0  0  0  0  0  0  0  0  0  0  0
  -29.5839  -12.2220   18.2117 C   0  0  0  0  0  0  0  0  0  0  0  0
  -21.2776  -31.0827   23.7339 C   0  0  0  0  0  0  0  0  0  0  0  0
  -28.1480  -11.9914   18.6815 C   0  0  0  0  0  0  0  0  0  0  0  0
  -31.2301  -21.2907   19.5128 C   0  0  0  0  0  0  0  0  0  0  0  0
  -30.5388  -12.3786   19.3908 C   0  0  0  0  0  0  0  0  0  0  0  0
  -28.7020  -13.2278   20.8239 C   0  0  0  0  0  0  0  0  0  0  0  0
  -21.4422  -30.3719   22.3851 C   0  0  1  0  0  0  0  0  0  0  0  0
  -21.7781  -26.6420   23.0241 C   0  0  1  0  0  0  0  0  0  0  0  0
  -27.7039  -13.0925   19.6608 C   0  0  2  0  0  0  0  0  0  0  0  0
  -31.7701  -17.4188   23.2318 C   0  0  0  0  0  0  0  0  0  0  0  0
  -27.6076  -20.9901   20.8452 C   0  0  0  0  0  0  0  0  0  0  0  0
  -23.2335  -21.2801   28.1105 C   0  0  0  0  0  0  0  0  0  0  0  0
  -22.4706  -27.7132   27.8488 C   0  0  0  0  0  0  0  0  0  0  0  0
  -23.4214  -25.6963   28.9874 C   0  0  0  0  0  0  0  0  0  0  0  0
  -21.0315  -25.7123   28.2727 C   0  0  0  0  0  0  0  0  0  0  0  0
  -28.6202  -16.4707   18.0216 C   0  0  0  0  0  0  0  0  0  0  0  0
  -25.3226  -21.5055   24.9385 C   0  0  0  0  0  0  0  0  0  0  0  0
  -27.5046  -23.6259   19.3934 C   0  0  0  0  0  0  0  0  0  1  0  0
  -22.8473  -25.5301   26.5229 C   0  0  1  0  0  0  0  0  0  0  0  0
  -23.6329  -21.8286   26.7495 C   0  0  2  0  0  0  0  0  0  0  0  0
  -22.4533  -26.1720   27.8831 C   0  0  0  0  0  0  0  0  0  0  0  0
  -25.8398  -11.6096   20.3001 N   0  0  0  0  0  0  0  0  0  0  0  0
  -29.4430  -18.5682   19.8174 N   0  0  0  0  0  0  0  0  0  0  0  0
  -29.9746  -14.9613   22.7907 N   0  0  0  0  0  0  0  0  0  0  0  0
  -26.2866  -12.8687   20.1549 N   0  0  0  0  0  0  0  0  0  0  0  0
  -30.0255  -20.8462   20.2254 N   0  0  0  0  0  0  0  0  0  0  0  0
  -30.0691  -13.4056   20.3185 N   0  0  0  0  0  0  0  0  0  0  0  0
  -22.5315  -26.0283   24.1196 N   0  0  0  0  0  0  0  0  0  0  0  0
  -25.6521  -15.1378   20.3979 N   0  0  0  0  0  0  0  0  0  0  0  0
  -21.9542  -12.8798   21.6717 N   0  0  0  0  0  0  0  0  0  0  0  0
  -28.8666  -16.3052   19.4166 N   0  0  0  0  0  0  0  0  0  0  0  0
  -21.2302  -28.9482   22.5348 N   0  0  0  0  0  0  0  0  0  0  0  0
  -22.8133  -24.0716   26.5183 N   0  0  0  0  0  0  0  0  0  0  0  0
  -24.8344  -21.0842   26.2769 N   0  3  0  0  0  0  0  0  0  0  0  0
  -30.0028  -24.4760   18.4463 O   0  0  0  0  0  0  0  0  0  0  0  0
  -22.8448  -14.9700   21.3611 O   0  0  0  0  0  0  0  0  0  0  0  0
  -32.0838  -14.6169   20.3527 O   0  0  0  0  0  0  0  0  0  0  0  0
  -23.3813  -28.3655   23.2100 O   0  0  0  0  0  0  0  0  0  0  0  0
  -20.7740  -26.2632   25.6337 O   0  0  0  0  0  0  0  0  0  0  0  0
  -25.0335  -23.7635   27.1123 O   0  0  0  0  0  0  0  0  0  0  0  0
  -21.3653   -7.3430   21.8255 O   0  0  0  0  0  0  0  0  0  0  0  0
  -27.2949  -24.4747   20.5211 O   0  0  0  0  0  0  0  0  0  1  0  0
  -16.7805   -8.1725   24.7743 F   0  0  0  0  0  0  0  0  0  0  0  0
  -20.9818   -6.0579   24.2430 F   0  0  0  0  0  0  0  0  0  0  0  0
  1  2  1  0  0  0  0
  1  5  2  0  0  0  0
  2  6  2  0  0  0  0
  3  8  2  0  0  0  0
  3 16  1  0  0  0  0
  4  9  1  0  0  0  0
  4 16  2  0  0  0  0
  5 19  1  0  0  0  0
  6 21  1  0  0  0  0
  7 10  2  0  0  0  0
  7 20  1  0  0  0  0
  8 24  1  0  0  0  0
  9 24  2  0  0  0  0
 10 25  1  0  0  0  0
 11 12  2  0  0  0  0
 11 26  1  0  0  0  0
 12 27  1  0  0  0  0
 13 22  1  0  0  0  0
 13 25  2  0  0  0  0
 14 23  2  0  0  0  0
 14 30  1  0  0  0  0
 15 27  2  0  0  0  0
 15 28  1  0  0  0  0
 16 29  1  0  0  0  0
 17 23  1  0  0  0  0
 17 31  2  0  0  0  0
 17 36  1  0  0  0  0
 18 29  1  0  0  0  0
 18 32  2  0  0  0  0
 18 37  1  0  0  0  0
 19 21  2  0  0  0  0
 19 42  1  0  0  0  0
 20 22  2  0  0  0  0
 20 43  1  0  0  0  0
 21 53  1  0  0  0  0
 22 44  1  0  0  0  0
 23 56  1  0  0  0  0
 24 87  1  0  0  0  0
 25 88  1  0  0  0  0
 26 28  2  0  0  0  0
 26 87  1  0  0  0  0
 27 89  1  0  0  0  0
 28 90  1  0  0  0  0
 29 68  2  0  0  0  0
 30 69  2  0  0  0  0
 30 72  1  0  0  0  0
 31 69  1  0  0  0  0
 31 77  1  0  0  0  0
 32 71  1  0  0  0  0
 32 75  1  0  0  0  0
 33 34  2  0  0  0  0
 33 35  1  0  0  0  0
 33 64  1  0  0  0  0
 34 57  1  0  0  0  0
 34 72  1  0  0  0  0
 35 45  1  0  0  0  0
 35 81  2  0  0  0  0
 36 38  1  0  0  0  0
 36 70  2  0  0  0  0
 37 76  1  0  0  0  0
 37 82  2  0  0  0  0
 38 73  1  0  0  0  0
 38 83  2  0  0  0  0
 39 54  1  0  0  0  0
 39 78  1  0  0  0  0
 39 84  2  0  0  0  0
 40 65  1  0  0  0  0
 40 74  1  0  0  0  0
 40 85  2  0  0  0  0
 41 66  1  0  0  0  0
 41 79  1  0  0  0  0
 41 86  2  0  0  0  0
 42 46  1  0  0  0  0
 43 54  1  0  0  0  0
 44 74  1  0  0  0  0
 45 50  1  0  0  0  0
 46 48  1  0  0  0  0
 47 49  1  0  0  0  0
 47 51  1  0  0  0  0
 48 53  1  0  0  0  0
 49 55  1  0  0  0  0
 50 72  1  0  0  0  0
 51 73  1  0  0  0  0
 52 55  1  0  0  0  0
 52 73  1  0  0  0  0
 53 78  1  0  0  0  0
 54 74  1  0  0  0  0
 55 71  1  0  0  0  0
 58 66  1  0  0  0  0
 59 67  1  0  0  0  0
 60 67  1  0  0  0  0
 61 67  1  0  0  0  0
 62 77  1  0  0  0  0
 63 80  1  0  0  0  0
 64 88  1  0  0  0  0
 65 67  1  0  0  0  0
 65 79  1  0  0  0  0
 66 80  1  0  0  0  0
 68 71  1  0  0  0  0
M  CHG  1  80   1
M  ISO  4  36 100  38 100  64 101  88 101
M  END
> <Batch ID>
0110

> <Smiles>
CNc1nc(N2CCC(=O)C([101CH2:1][101O:1]c3ccc4c(c3)CN(C(=O)C(NC(=O)C(C)NC)C(C)(C)C)C(C(=O)NC3CCCc5ccccc53)C4)=C2C)cc(C)c1[100C:0](=N)[100C:0](=O)N1CCCC(n2nc(-c3ccc(Oc4ccc(F)cc4F)cc3)c(C(N)=O)c2N)C1

> <Shape>
0.268

> <Color>
0.213

> <Negative vol penalty>
0.000

$$$$
