
  -OEChem-04052301283D

 83 91  0     1  0  0  0  0  0999 V2000
  -29.0375  -33.6401   23.6350 C   0  0  0  0  0  0  0  0  0  0  0  0
  -28.7551  -32.2963   23.8588 C   0  0  0  0  0  0  0  0  0  0  0  0
  -22.9870   -9.9352   19.9998 C   0  0  0  0  0  0  0  0  0  0  0  0
  -23.7682   -9.9624   22.2859 C   0  0  0  0  0  0  0  0  0  0  0  0
  -27.9959  -34.5521   23.4704 C   0  0  0  0  0  0  0  0  0  0  0  0
  -27.4307  -31.8641   23.9192 C   0  0  0  0  0  0  0  0  0  0  0  0
  -26.6559  -27.6040   21.2932 C   0  0  0  0  0  0  0  0  0  0  0  0
  -22.2143   -8.8076   20.2773 C   0  0  0  0  0  0  0  0  0  0  0  0
  -22.9953   -8.8349   22.5634 C   0  0  0  0  0  0  0  0  0  0  0  0
  -27.0653  -26.4090   21.8831 C   0  0  0  0  0  0  0  0  0  0  0  0
  -23.1900   -5.4967   22.0641 C   0  0  0  0  0  0  0  0  0  0  0  0
  -23.7839   -4.4679   22.7952 C   0  0  0  0  0  0  0  0  0  0  0  0
  -24.7911  -25.9694   22.5567 C   0  0  0  0  0  0  0  0  0  0  0  0
  -28.9162  -17.6820   21.8492 C   0  0  0  0  0  0  0  0  0  0  0  0
  -22.1038   -4.7189   24.5132 C   0  0  0  0  0  0  0  0  0  0  0  0
  -23.7641  -10.5126   21.0041 C   0  0  0  0  0  0  0  0  0  0  0  0
  -24.1737  -13.0248   20.8350 C   0  0  0  0  0  0  0  0  0  0  0  0
  -26.6582  -34.1292   23.5192 C   0  0  0  0  0  0  0  0  0  0  0  0
  -25.3106  -27.9966   21.3401 C   0  0  0  0  0  0  0  0  0  0  0  0
  -26.3702  -32.7716   23.7565 C   0  0  0  0  0  0  0  0  0  0  0  0
  -24.3667  -27.1686   21.9643 C   0  0  0  0  0  0  0  0  0  0  0  0
  -22.2184   -8.2575   21.5590 C   0  0  0  0  0  0  0  0  0  0  0  0
  -26.1334  -25.5929   22.5176 C   0  0  0  0  0  0  0  0  0  0  0  0
  -22.0531   -6.1367   22.5576 C   0  0  0  0  0  0  0  0  0  0  0  0
  -28.3867  -18.5489   20.8637 C   0  0  0  0  0  0  0  0  0  0  0  0
  -23.2408   -4.0789   24.0197 C   0  0  0  0  0  0  0  0  0  0  0  0
  -21.5100   -5.7477   23.7821 C   0  0  0  0  0  0  0  0  0  0  0  0
  -24.5630  -11.6770   20.7179 C   0  0  0  0  0  0  0  0  0  0  0  0
  -29.5284  -16.6566   21.1667 C   0  0  0  0  0  0  0  0  0  0  0  0
  -28.7133  -17.9917   19.6493 C   0  0  0  0  0  0  0  0  0  0  0  0
  -25.2825  -13.7373   20.4485 C   0  0  0  0  0  0  0  0  0  0  0  0
  -26.3119  -22.0622   23.1446 C   0  0  0  0  0  0  0  0  0  0  0  0
  -26.1720  -21.1202   22.2005 C   0  0  0  0  0  0  0  0  0  0  0  0
  -22.9218  -13.5828   21.2557 C   0  0  0  0  0  0  0  0  0  0  0  0
  -30.2269  -15.5046   21.6258 C   0  0  0  0  0  0  0  0  0  0  0  0
  -30.8168  -14.5127   20.6977 C   0  0  0  0  0  0  0  0  0  0  0  0
  -23.7355  -30.4622   22.5827 C   0  0  0  0  0  0  0  0  0  0  0  0
  -21.2124  -29.1256   21.0432 C   0  0  0  0  0  0  0  0  0  0  0  0
  -19.7855  -26.3293   19.7047 C   0  0  0  0  0  0  0  0  0  0  0  0
  -25.5656  -35.1598   23.3828 C   0  0  0  0  0  0  0  0  0  0  0  0
  -24.8806  -29.2757   20.6756 C   0  0  0  0  0  0  0  0  0  0  0  0
  -22.9071  -27.5349   22.0246 C   0  0  0  0  0  0  0  0  0  0  0  0
  -24.1941  -34.5581   23.0874 C   0  0  0  0  0  0  0  0  0  0  0  0
  -29.5619  -12.2399   18.2245 C   0  0  0  0  0  0  0  0  0  0  0  0
  -23.9183  -33.3779   24.0135 C   0  0  0  0  0  0  0  0  0  0  0  0
  -28.1296  -11.9719   18.6856 C   0  0  0  0  0  0  0  0  0  0  0  0
  -30.5022  -12.4367   19.4092 C   0  0  0  0  0  0  0  0  0  0  0  0
  -28.6299  -13.2461   20.8191 C   0  0  0  0  0  0  0  0  0  0  0  0
  -24.9468  -32.2600   23.8039 C   0  0  1  0  0  0  0  0  0  0  0  0
  -23.5709  -29.8267   21.2311 C   0  0  1  0  0  0  0  0  0  0  0  0
  -27.6455  -13.0695   19.6498 C   0  0  2  0  0  0  0  0  0  0  0  0
  -28.4634  -18.3898   18.2561 C   0  0  0  0  0  0  0  0  0  0  0  0
  -17.7015  -25.5413   18.5502 C   0  0  0  0  0  0  0  0  0  0  0  0
  -19.7212  -29.1775   23.7047 C   0  0  0  0  0  0  0  0  0  0  0  0
  -18.0765  -27.5579   22.7352 C   0  0  0  0  0  0  0  0  0  0  0  0
  -18.3398  -29.8222   21.7222 C   0  0  0  0  0  0  0  0  0  0  0  0
  -21.2908  -25.5206   17.2883 C   0  0  0  0  0  0  0  0  0  0  0  0
  -25.5787  -23.3636   23.1329 C   0  0  0  0  0  0  0  0  0  1  0  0
  -26.8962  -19.8139   22.2180 C   0  0  0  0  0  0  0  0  0  0  0  0
  -20.1631  -28.1007   21.4001 C   0  0  1  0  0  0  0  0  0  0  0  0
  -19.1100  -26.0848   18.3675 C   0  0  2  0  0  0  0  0  0  0  0  0
  -19.1029  -28.6583   22.3912 C   0  0  0  0  0  0  0  0  0  0  0  0
  -25.8208  -11.5389   20.2903 N   0  0  0  0  0  0  0  0  0  0  0  0
  -30.4203  -15.2058   22.9000 N   0  0  0  0  0  0  0  0  0  0  0  0
  -26.2315  -12.8091   20.1353 N   0  0  0  0  0  0  0  0  0  0  0  0
  -29.9951  -13.4590   20.3224 N   0  0  0  0  0  0  0  0  0  0  0  0
  -22.5371  -28.7985   21.3657 N   0  0  0  0  0  0  0  0  0  0  0  0
  -25.5286  -15.0609   20.3494 N   0  0  0  0  0  0  0  0  0  0  0  0
  -21.8886  -12.7081   21.6184 N   0  0  0  0  0  0  0  0  0  0  0  0
  -24.6387  -31.5077   22.6066 N   0  0  0  0  0  0  0  0  0  0  0  0
  -19.6088  -27.6269   20.1365 N   0  0  0  0  0  0  0  0  0  0  0  0
  -19.8920  -25.1030   17.5640 N   0  3  0  0  0  0  0  0  0  0  0  0
  -22.7198  -14.8203   21.2927 O   0  0  0  0  0  0  0  0  0  0  0  0
  -31.9730  -14.7295   20.3594 O   0  0  0  0  0  0  0  0  0  0  0  0
  -23.0897  -30.0364   23.5332 O   0  0  0  0  0  0  0  0  0  0  0  0
  -20.8702  -30.1747   20.4918 O   0  0  0  0  0  0  0  0  0  0  0  0
  -20.4046  -25.4556   20.3079 O   0  0  0  0  0  0  0  0  0  0  0  0
  -29.4094  -16.8379   19.8253 O   0  0  0  0  0  0  0  0  0  0  0  0
  -21.4642   -7.1574   21.8302 O   0  0  0  0  0  0  0  0  0  0  0  0
  -26.5304  -24.4262   23.0948 O   0  0  0  0  0  0  0  0  0  1  0  0
  -27.6868  -19.7141   21.0419 O   0  0  0  0  0  0  0  0  0  0  0  0
  -23.8103   -3.0899   24.7209 F   0  0  0  0  0  0  0  0  0  0  0  0
  -20.4172   -6.3581   24.2608 F   0  0  0  0  0  0  0  0  0  0  0  0
  1  2  1  0  0  0  0
  1  5  2  0  0  0  0
  2  6  2  0  0  0  0
  3  8  2  0  0  0  0
  3 16  1  0  0  0  0
  4  9  1  0  0  0  0
  4 16  2  0  0  0  0
  5 18  1  0  0  0  0
  6 20  1  0  0  0  0
  7 10  2  0  0  0  0
  7 19  1  0  0  0  0
  8 22  1  0  0  0  0
  9 22  2  0  0  0  0
 10 23  1  0  0  0  0
 11 12  2  0  0  0  0
 11 24  1  0  0  0  0
 12 26  1  0  0  0  0
 13 21  1  0  0  0  0
 13 23  2  0  0  0  0
 14 25  1  0  0  0  0
 14 29  2  0  0  0  0
 15 26  2  0  0  0  0
 15 27  1  0  0  0  0
 16 28  1  0  0  0  0
 17 28  1  0  0  0  0
 17 31  2  0  0  0  0
 17 34  1  0  0  0  0
 18 20  2  0  0  0  0
 18 40  1  0  0  0  0
 19 21  2  0  0  0  0
 19 41  1  0  0  0  0
 20 49  1  0  0  0  0
 21 42  1  0  0  0  0
 22 79  1  0  0  0  0
 23 80  1  0  0  0  0
 24 27  2  0  0  0  0
 24 79  1  0  0  0  0
 25 30  2  0  0  0  0
 25 81  1  0  0  0  0
 26 82  1  0  0  0  0
 27 83  1  0  0  0  0
 28 63  2  0  0  0  0
 29 35  1  0  0  0  0
 29 78  1  0  0  0  0
 30 52  1  0  0  0  0
 30 78  1  0  0  0  0
 31 65  1  0  0  0  0
 31 68  1  0  0  0  0
 32 33  2  0  0  0  0
 32 58  1  0  0  0  0
 33 59  1  0  0  0  0
 34 69  1  0  0  0  0
 34 73  2  0  0  0  0
 35 36  1  0  0  0  0
 35 64  2  0  0  0  0
 36 66  1  0  0  0  0
 36 74  2  0  0  0  0
 37 50  1  0  0  0  0
 37 70  1  0  0  0  0
 37 75  2  0  0  0  0
 38 60  1  0  0  0  0
 38 67  1  0  0  0  0
 38 76  2  0  0  0  0
 39 61  1  0  0  0  0
 39 71  1  0  0  0  0
 39 77  2  0  0  0  0
 40 43  1  0  0  0  0
 41 50  1  0  0  0  0
 42 67  1  0  0  0  0
 43 45  1  0  0  0  0
 44 46  1  0  0  0  0
 44 47  1  0  0  0  0
 45 49  1  0  0  0  0
 46 51  1  0  0  0  0
 47 66  1  0  0  0  0
 48 51  1  0  0  0  0
 48 66  1  0  0  0  0
 49 70  1  0  0  0  0
 50 67  1  0  0  0  0
 51 65  1  0  0  0  0
 53 61  1  0  0  0  0
 54 62  1  0  0  0  0
 55 62  1  0  0  0  0
 56 62  1  0  0  0  0
 57 72  1  0  0  0  0
 58 80  1  0  0  0  0
 59 81  1  0  0  0  0
 60 62  1  0  0  0  0
 60 71  1  0  0  0  0
 61 72  1  0  0  0  0
 63 65  1  0  0  0  0
M  CHG  1  72   1
M  ISO  4  35 100  36 100  58 101  80 101
M  END
> <Batch ID>
0111

> <Smiles>
CNC(C)C(=O)NC(C(=O)N1Cc2cc([101O:1][101CH2:1]C=CCOc3cc([100C:0](=N)[100C:0](=O)N4CCCC(n5nc(-c6ccc(Oc7ccc(F)cc7F)cc6)c(C(N)=O)c5N)C4)oc3C)ccc2CC1C(=O)NC1CCCc2ccccc21)C(C)(C)C

> <Shape>
0.362

> <Color>
0.201

> <Negative vol penalty>
0.000

$$$$

  -OEChem-04052301283D

 86 94  0     1  0  0  0  0  0999 V2000
  -16.8296  -29.1550   24.4668 C   0  0  0  0  0  0  0  0  0  0  0  0
  -17.1851  -28.2460   23.4755 C   0  0  0  0  0  0  0  0  0  0  0  0
  -24.6806   -8.8185   21.9219 C   0  0  0  0  0  0  0  0  0  0  0  0
  -23.2085  -10.1317   20.5270 C   0  0  0  0  0  0  0  0  0  0  0  0
  -17.5659  -30.3273   24.6325 C   0  0  0  0  0  0  0  0  0  0  0  0
  -18.2766  -28.5092   22.6487 C   0  0  0  0  0  0  0  0  0  0  0  0
  -22.1993  -24.4243   20.3180 C   0  0  0  0  0  0  0  0  0  0  0  0
  -23.7497   -7.7798   21.9265 C   0  0  0  0  0  0  0  0  0  0  0  0
  -22.2776   -9.0929   20.5316 C   0  0  0  0  0  0  0  0  0  0  0  0
  -22.2803  -23.8078   19.0701 C   0  0  0  0  0  0  0  0  0  0  0  0
  -20.8559   -7.0362   23.5068 C   0  0  0  0  0  0  0  0  0  0  0  0
  -20.5813   -6.4183   24.7268 C   0  0  0  0  0  0  0  0  0  0  0  0
  -23.8737  -25.4729   18.3577 C   0  0  0  0  0  0  0  0  0  0  0  0
  -26.3151  -20.6441   18.7900 C   0  0  0  0  0  0  0  0  0  0  0  0
  -24.2116  -19.5901   19.3391 C   0  0  0  0  0  0  0  0  0  0  0  0
  -21.3290   -4.3053   23.8250 C   0  0  0  0  0  0  0  0  0  0  0  0
  -24.4100   -9.9945   21.2222 C   0  0  0  0  0  0  0  0  0  0  0  0
  -26.2688  -18.7459   20.2838 C   0  0  0  0  0  0  0  0  0  0  0  0
  -26.4189  -11.2671   20.2987 C   0  0  0  0  0  0  0  0  0  0  0  0
  -18.6729  -30.6005   23.8136 C   0  0  0  0  0  0  0  0  0  0  0  0
  -22.9479  -25.5779   20.5919 C   0  0  0  0  0  0  0  0  0  0  0  0
  -19.0277  -29.6869   22.8027 C   0  0  0  0  0  0  0  0  0  0  0  0
  -23.8024  -26.1006   19.6107 C   0  0  0  0  0  0  0  0  0  0  0  0
  -26.9853  -19.7300   19.6028 C   0  0  0  0  0  0  0  0  0  0  0  0
  -24.9282  -20.5742   18.6582 C   0  0  0  0  0  0  0  0  0  0  0  0
  -22.5482   -7.9170   21.2313 C   0  0  0  0  0  0  0  0  0  0  0  0
  -23.1154  -24.3338   18.0887 C   0  0  0  0  0  0  0  0  0  0  0  0
  -21.3669   -6.2885   22.4458 C   0  0  0  0  0  0  0  0  0  0  0  0
  -20.8179   -5.0529   24.8860 C   0  0  0  0  0  0  0  0  0  0  0  0
  -24.8819  -18.6759   20.1519 C   0  0  0  0  0  0  0  0  0  0  0  0
  -21.6035   -4.9231   22.6049 C   0  0  0  0  0  0  0  0  0  0  0  0
  -25.3710  -11.0681   21.2175 C   0  0  0  0  0  0  0  0  0  0  0  0
  -27.0372  -12.4164   20.7267 C   0  0  0  0  0  0  0  0  0  0  0  0
  -26.9477  -17.7809   21.1385 C   0  0  0  0  0  0  0  0  0  0  0  0
  -26.7992  -10.4831   19.1601 C   0  0  0  0  0  0  0  0  0  0  0  0
  -26.6345  -17.6781   22.5823 C   0  0  0  0  0  0  0  0  0  0  0  0
  -22.2415  -28.5824   21.3521 C   0  0  0  0  0  0  0  0  0  0  0  0
  -25.4554  -28.8365   21.7109 C   0  0  0  0  0  0  0  0  0  0  0  0
  -28.5610  -27.6685   20.9126 C   0  0  0  0  0  0  0  0  0  0  0  0
  -19.4095  -31.9033   23.9995 C   0  0  0  0  0  0  0  0  0  0  0  0
  -22.8696  -26.2156   21.9519 C   0  0  0  0  0  0  0  0  0  0  0  0
  -24.6423  -27.3254   19.8613 C   0  0  0  0  0  0  0  0  0  0  0  0
  -20.7797  -31.9297   23.3270 C   0  0  0  0  0  0  0  0  0  0  0  0
  -26.5307  -15.0419   25.0105 C   0  0  0  0  0  0  0  0  0  0  0  0
  -20.6869  -31.3859   21.9049 C   0  0  0  0  0  0  0  0  0  0  0  0
  -26.2667  -13.7951   24.1670 C   0  0  0  0  0  0  0  0  0  0  0  0
  -25.8278  -16.2660   24.4327 C   0  0  0  0  0  0  0  0  0  0  0  0
  -25.9083  -15.2927   22.1535 C   0  0  0  0  0  0  0  0  0  0  0  0
  -20.2203  -29.9251   21.9022 C   0  0  1  0  0  0  0  0  0  0  0  0
  -23.2869  -27.6830   21.9487 C   0  0  1  0  0  0  0  0  0  0  0  0
  -26.6247  -14.0414   22.6905 C   0  0  2  0  0  0  0  0  0  0  0  0
  -29.1908  -19.2669   18.5037 C   0  0  0  0  0  0  0  0  0  0  0  0
  -30.9969  -28.1037   21.3306 C   0  0  0  0  0  0  0  0  0  0  0  0
  -25.3537  -31.2192   19.8077 C   0  0  0  0  0  0  0  0  0  0  0  0
  -27.8317  -31.0067   19.5206 C   0  0  0  0  0  0  0  0  0  0  0  0
  -26.8774  -31.5147   21.7687 C   0  0  0  0  0  0  0  0  0  0  0  0
  -22.6663  -22.0956   15.2339 C   0  0  0  0  0  0  0  0  0  0  0  0
  -20.9225  -22.9545   16.8126 C   0  0  0  0  0  0  0  0  0  0  0  0
  -28.9481  -24.9991   22.1306 C   0  0  0  0  0  0  0  0  0  0  0  0
  -28.4710  -19.8277   19.7263 C   0  0  0  0  0  0  0  0  0  0  0  0
  -22.8296  -21.4810   17.6584 C   0  0  0  0  0  0  0  0  0  0  0  0
  -26.6075  -29.1937   20.8032 C   0  0  1  0  0  0  0  0  0  0  0  0
  -29.7638  -27.3331   21.7760 C   0  0  2  0  0  0  0  0  0  0  0  0
  -26.6504  -30.7116   20.4694 C   0  0  0  0  0  0  0  0  0  0  0  0
  -22.3969  -22.5699   16.6644 C   0  0  0  0  0  0  0  0  0  1  0  0
  -25.3234  -12.0150   22.1583 N   0  0  0  0  0  0  0  0  0  0  0  0
  -27.8582  -16.9559   20.7010 N   0  0  0  0  0  0  0  0  0  0  0  0
  -26.3491  -12.8201   21.8329 N   0  0  0  0  0  0  0  0  0  0  0  0
  -26.1609  -16.4497   23.0215 N   0  0  0  0  0  0  0  0  0  0  0  0
  -24.5262  -27.9166   21.2047 N   0  0  0  0  0  0  0  0  0  0  0  0
  -28.0969  -13.1110   20.2609 N   0  0  0  0  0  0  0  0  0  0  0  0
  -26.0561   -9.3327   18.8626 N   0  0  0  0  0  0  0  0  0  0  0  0
  -24.2625  -21.4814   17.8514 N   0  0  0  0  0  0  0  0  0  0  0  0
  -21.3113  -29.0454   22.2630 N   0  0  0  0  0  0  0  0  0  0  0  0
  -27.8119  -28.6910   21.4553 N   0  0  0  0  0  0  0  0  0  0  0  0
  -30.0668  -25.8760   21.6987 N   0  3  0  0  0  0  0  0  0  0  0  0
  -27.7794  -10.7846   18.4377 O   0  0  0  0  0  0  0  0  0  0  0  0
  -26.8276  -18.6939   23.2375 O   0  0  0  0  0  0  0  0  0  0  0  0
  -22.2771  -28.8385   20.1543 O   0  0  0  0  0  0  0  0  0  0  0  0
  -25.3863  -29.3492   22.8308 O   0  0  0  0  0  0  0  0  0  0  0  0
  -28.3131  -27.0844   19.8600 O   0  0  0  0  0  0  0  0  0  0  0  0
  -21.6397   -6.9035   21.2354 O   0  0  0  0  0  0  0  0  0  0  0  0
  -23.1958  -23.7344   16.8697 O   0  0  0  0  0  0  0  0  0  1  0  0
  -20.5557   -4.4601   26.0581 F   0  0  0  0  0  0  0  0  0  0  0  0
  -24.1818  -17.7346   20.8012 F   0  0  0  0  0  0  0  0  0  0  0  0
  -22.0955   -4.1999   21.5897 F   0  0  0  0  0  0  0  0  0  0  0  0
  1  2  1  0  0  0  0
  1  5  2  0  0  0  0
  2  6  2  0  0  0  0
  3  8  2  0  0  0  0
  3 17  1  0  0  0  0
  4  9  1  0  0  0  0
  4 17  2  0  0  0  0
  5 20  1  0  0  0  0
  6 22  1  0  0  0  0
  7 10  2  0  0  0  0
  7 21  1  0  0  0  0
  8 26  1  0  0  0  0
  9 26  2  0  0  0  0
 10 27  1  0  0  0  0
 11 12  2  0  0  0  0
 11 28  1  0  0  0  0
 12 29  1  0  0  0  0
 13 23  1  0  0  0  0
 13 27  2  0  0  0  0
 14 24  1  0  0  0  0
 14 25  2  0  0  0  0
 15 25  1  0  0  0  0
 15 30  2  0  0  0  0
 16 29  2  0  0  0  0
 16 31  1  0  0  0  0
 17 32  1  0  0  0  0
 18 24  2  0  0  0  0
 18 30  1  0  0  0  0
 18 34  1  0  0  0  0
 19 32  1  0  0  0  0
 19 33  2  0  0  0  0
 19 35  1  0  0  0  0
 20 22  2  0  0  0  0
 20 40  1  0  0  0  0
 21 23  2  0  0  0  0
 21 41  1  0  0  0  0
 22 49  1  0  0  0  0
 23 42  1  0  0  0  0
 24 60  1  0  0  0  0
 25 73  1  0  0  0  0
 26 82  1  0  0  0  0
 27 83  1  0  0  0  0
 28 31  2  0  0  0  0
 28 82  1  0  0  0  0
 29 84  1  0  0  0  0
 30 85  1  0  0  0  0
 31 86  1  0  0  0  0
 32 66  2  0  0  0  0
 33 68  1  0  0  0  0
 33 71  1  0  0  0  0
 34 36  1  0  0  0  0
 34 67  2  0  0  0  0
 35 72  1  0  0  0  0
 35 77  2  0  0  0  0
 36 69  1  0  0  0  0
 36 78  2  0  0  0  0
 37 50  1  0  0  0  0
 37 74  1  0  0  0  0
 37 79  2  0  0  0  0
 38 62  1  0  0  0  0
 38 70  1  0  0  0  0
 38 80  2  0  0  0  0
 39 63  1  0  0  0  0
 39 75  1  0  0  0  0
 39 81  2  0  0  0  0
 40 43  1  0  0  0  0
 41 50  1  0  0  0  0
 42 70  1  0  0  0  0
 43 45  1  0  0  0  0
 44 46  1  0  0  0  0
 44 47  1  0  0  0  0
 45 49  1  0  0  0  0
 46 51  1  0  0  0  0
 47 69  1  0  0  0  0
 48 51  1  0  0  0  0
 48 69  1  0  0  0  0
 49 74  1  0  0  0  0
 50 70  1  0  0  0  0
 51 68  1  0  0  0  0
 52 60  1  0  0  0  0
 53 63  1  0  0  0  0
 54 64  1  0  0  0  0
 55 64  1  0  0  0  0
 56 64  1  0  0  0  0
 57 65  1  0  0  0  0
 58 65  1  0  0  0  0
 59 76  1  0  0  0  0
 61 65  1  0  0  0  0
 61 73  1  0  0  0  0
 62 64  1  0  0  0  0
 62 75  1  0  0  0  0
 63 76  1  0  0  0  0
 65 83  1  0  0  0  0
 66 68  1  0  0  0  0
M  CHG  1  76   1
M  ISO  4  34 100  36 100  65 101  83 101
M  END
> <Batch ID>
0111

> <Smiles>
CCc1cc(NC[101C:1](C)(C)[101O:1]c2ccc3c(c2)CN(C(=O)C(NC(=O)C(C)NC)C(C)(C)C)C(C(=O)NC2CCCc4ccccc42)C3)cc(F)c1[100C:0](=N)[100C:0](=O)N1CCCC(n2nc(-c3ccc(Oc4ccc(F)cc4F)cc3)c(C(N)=O)c2N)C1

> <Shape>
0.253

> <Color>
0.102

> <Negative vol penalty>
0.000

$$$$

  -OEChem-04052301283D

 87 95  0     1  0  0  0  0  0999 V2000
  -14.7488  -14.2272   18.5986 C   0  0  0  0  0  0  0  0  0  0  0  0
  -15.8983  -14.9086   18.9857 C   0  0  0  0  0  0  0  0  0  0  0  0
  -23.0537   -9.8900   19.9503 C   0  0  0  0  0  0  0  0  0  0  0  0
  -23.8685   -9.8701   22.2247 C   0  0  0  0  0  0  0  0  0  0  0  0
  -14.2989  -14.3134   17.2817 C   0  0  0  0  0  0  0  0  0  0  0  0
  -16.5993  -15.6756   18.0557 C   0  0  0  0  0  0  0  0  0  0  0  0
  -19.5933  -20.9126   19.1118 C   0  0  0  0  0  0  0  0  0  0  0  0
  -22.3133   -8.7358   20.2055 C   0  0  0  0  0  0  0  0  0  0  0  0
  -23.1280   -8.7159   22.4799 C   0  0  0  0  0  0  0  0  0  0  0  0
  -20.9410  -21.1949   19.3304 C   0  0  0  0  0  0  0  0  0  0  0  0
  -19.9133   -7.9186   23.1512 C   0  0  0  0  0  0  0  0  0  0  0  0
  -19.1847   -7.8675   24.3394 C   0  0  0  0  0  0  0  0  0  0  0  0
  -29.7755  -17.3440   19.9670 C   0  0  0  0  0  0  0  0  0  0  0  0
  -27.6951  -18.4084   21.4907 C   0  0  0  0  0  0  0  0  0  0  0  0
  -21.2021  -21.7289   16.9925 C   0  0  0  0  0  0  0  0  0  0  0  0
  -20.4386   -5.9193   25.0246 C   0  0  0  0  0  0  0  0  0  0  0  0
  -23.8314  -10.4571   20.9599 C   0  0  0  0  0  0  0  0  0  0  0  0
  -29.4314  -16.7566   21.1844 C   0  0  0  0  0  0  0  0  0  0  0  0
  -28.3912  -17.2887   21.9462 C   0  0  0  0  0  0  0  0  0  0  0  0
  -24.1765  -12.9827   20.8593 C   0  0  0  0  0  0  0  0  0  0  0  0
  -14.9893  -15.0896   16.3375 C   0  0  0  0  0  0  0  0  0  0  0  0
  -19.0415  -21.0260   17.8276 C   0  0  0  0  0  0  0  0  0  0  0  0
  -16.1590  -15.7711   16.7247 C   0  0  0  0  0  0  0  0  0  0  0  0
  -19.8465  -21.4499   16.7607 C   0  0  0  0  0  0  0  0  0  0  0  0
  -29.0794  -18.4637   19.5114 C   0  0  0  0  0  0  0  0  0  0  0  0
  -22.3504   -8.1488   21.4703 C   0  0  0  0  0  0  0  0  0  0  0  0
  -21.7463  -21.6004   18.2701 C   0  0  0  0  0  0  0  0  0  0  0  0
  -20.9046   -6.9701   22.8995 C   0  0  0  0  0  0  0  0  0  0  0  0
  -28.0392  -18.9958   20.2732 C   0  0  0  0  0  0  0  0  0  0  0  0
  -19.4473   -6.8679   25.2761 C   0  0  0  0  0  0  0  0  0  0  0  0
  -21.1673   -5.9705   23.8362 C   0  0  0  0  0  0  0  0  0  0  0  0
  -24.5970  -11.6491   20.6968 C   0  0  0  0  0  0  0  0  0  0  0  0
  -25.2614  -13.7337   20.4781 C   0  0  0  0  0  0  0  0  0  0  0  0
  -30.1780  -15.5893   21.6355 C   0  0  0  0  0  0  0  0  0  0  0  0
  -28.0089  -16.6990   23.2229 C   0  0  0  0  0  0  0  0  0  0  0  0
  -22.9177  -13.4967   21.3143 C   0  0  0  0  0  0  0  0  0  0  0  0
  -30.7780  -14.6400   20.6701 C   0  0  0  0  0  0  0  0  0  0  0  0
  -17.6745  -19.0080   15.7874 C   0  0  0  0  0  0  0  0  0  0  0  0
  -25.1851  -20.9677   19.2084 C   0  0  0  0  0  0  0  0  0  0  0  0
  -17.1290  -21.7131   14.0822 C   0  0  0  0  0  0  0  0  0  0  0  0
  -18.0273  -24.9318   13.3895 C   0  0  0  0  0  0  0  0  0  0  0  0
  -14.4912  -15.1142   14.9142 C   0  0  0  0  0  0  0  0  0  0  0  0
  -17.5797  -20.7436   17.6135 C   0  0  0  0  0  0  0  0  0  0  0  0
  -19.2979  -21.6069   15.3669 C   0  0  0  0  0  0  0  0  0  0  0  0
  -15.0813  -16.2497   14.0819 C   0  0  0  0  0  0  0  0  0  0  0  0
  -29.5421  -12.4097   18.1492 C   0  0  0  0  0  0  0  0  0  0  0  0
  -16.5906  -16.3331   14.2867 C   0  0  0  0  0  0  0  0  0  0  0  0
  -28.1241  -12.0925   18.6229 C   0  0  0  0  0  0  0  0  0  0  0  0
  -30.4952  -12.5953   19.3255 C   0  0  0  0  0  0  0  0  0  0  0  0
  -28.6251  -13.3160   20.7856 C   0  0  0  0  0  0  0  0  0  0  0  0
  -16.9328  -16.6333   15.7510 C   0  0  1  0  0  0  0  0  0  0  0  0
  -17.2439  -20.3968   16.1664 C   0  0  1  0  0  0  0  0  0  0  0  0
  -27.6277  -13.1490   19.6259 C   0  0  2  0  0  0  0  0  0  0  0  0
  -28.1040  -17.5686   24.4412 C   0  0  0  0  0  0  0  0  0  0  0  0
  -17.4185  -26.8746   11.9225 C   0  0  0  0  0  0  0  0  0  0  0  0
  -18.4680  -20.3382   11.7101 C   0  0  0  0  0  0  0  0  0  0  0  0
  -18.6864  -22.5824   10.6219 C   0  0  0  0  0  0  0  0  0  0  0  0
  -16.4254  -21.6606   11.1326 C   0  0  0  0  0  0  0  0  0  0  0  0
  -17.4065  -26.6467   15.7204 C   0  0  0  0  0  0  0  0  0  0  0  0
  -23.7165  -21.1597   19.5271 C   0  0  0  0  0  0  0  0  0  1  0  0
  -25.9898  -20.2020   20.2384 C   0  0  0  0  0  0  0  0  0  0  0  0
  -17.8856  -22.4819   13.0260 C   0  0  1  0  0  0  0  0  0  0  0  0
  -17.2064  -26.2032   13.2705 C   0  0  2  0  0  0  0  0  0  0  0  0
  -17.8774  -21.7611   11.6484 C   0  0  0  0  0  0  0  0  0  0  0  0
  -25.8512  -11.5551   20.2472 N   0  0  0  0  0  0  0  0  0  0  0  0
  -30.3677  -15.3061   22.8943 N   0  0  0  0  0  0  0  0  0  0  0  0
  -26.2281  -12.8391   20.1239 N   0  0  0  0  0  0  0  0  0  0  0  0
  -29.9770  -13.5775   20.2757 N   0  0  0  0  0  0  0  0  0  0  0  0
  -17.8642  -21.3129   15.2071 N   0  0  0  0  0  0  0  0  0  0  0  0
  -29.4375  -19.0480   18.2767 N   0  0  0  0  0  0  0  0  0  0  0  0
  -25.4733  -15.0654   20.4146 N   0  0  0  0  0  0  0  0  0  0  0  0
  -21.9120  -12.5861   21.6659 N   0  0  0  0  0  0  0  0  0  0  0  0
  -16.7258  -18.0359   16.0412 N   0  0  0  0  0  0  0  0  0  0  0  0
  -17.3074  -23.8211   13.0032 N   0  0  0  0  0  0  0  0  0  0  0  0
  -17.5871  -27.1677   14.3409 N   0  3  0  0  0  0  0  0  0  0  0  0
  -27.6193  -15.5411   23.3744 O   0  0  0  0  0  0  0  0  0  0  0  0
  -22.6859  -14.7271   21.3908 O   0  0  0  0  0  0  0  0  0  0  0  0
  -31.9233  -14.8955   20.3217 O   0  0  0  0  0  0  0  0  0  0  0  0
  -18.7846  -18.8317   15.2994 O   0  0  0  0  0  0  0  0  0  0  0  0
  -25.6925  -21.4069   18.1775 O   0  0  0  0  0  0  0  0  0  0  0  0
  -15.9283  -21.4825   13.9186 O   0  0  0  0  0  0  0  0  0  0  0  0
  -19.1918  -24.9251   13.7823 O   0  0  0  0  0  0  0  0  0  0  0  0
  -21.6277   -7.0226   21.7197 O   0  0  0  0  0  0  0  0  0  0  0  0
  -23.0622  -21.8759   18.4806 O   0  0  0  0  0  0  0  0  0  1  0  0
  -27.3407  -20.0982   19.8408 O   0  0  0  0  0  0  0  0  0  0  0  0
  -18.7485   -6.8198   26.4179 F   0  0  0  0  0  0  0  0  0  0  0  0
  -22.1192   -5.0571   23.6006 F   0  0  0  0  0  0  0  0  0  0  0  0
  1  2  1  0  0  0  0
  1  5  2  0  0  0  0
  2  6  2  0  0  0  0
  3  8  2  0  0  0  0
  3 17  1  0  0  0  0
  4  9  1  0  0  0  0
  4 17  2  0  0  0  0
  5 21  1  0  0  0  0
  6 23  1  0  0  0  0
  7 10  2  0  0  0  0
  7 22  1  0  0  0  0
  8 26  1  0  0  0  0
  9 26  2  0  0  0  0
 10 27  1  0  0  0  0
 11 12  2  0  0  0  0
 11 28  1  0  0  0  0
 12 30  1  0  0  0  0
 13 18  2  0  0  0  0
 13 25  1  0  0  0  0
 14 19  2  0  0  0  0
 14 29  1  0  0  0  0
 15 24  1  0  0  0  0
 15 27  2  0  0  0  0
 16 30  2  0  0  0  0
 16 31  1  0  0  0  0
 17 32  1  0  0  0  0
 18 19  1  0  0  0  0
 18 34  1  0  0  0  0
 19 35  1  0  0  0  0
 20 32  1  0  0  0  0
 20 33  2  0  0  0  0
 20 36  1  0  0  0  0
 21 23  2  0  0  0  0
 21 42  1  0  0  0  0
 22 24  2  0  0  0  0
 22 43  1  0  0  0  0
 23 51  1  0  0  0  0
 24 44  1  0  0  0  0
 25 29  2  0  0  0  0
 25 70  1  0  0  0  0
 26 83  1  0  0  0  0
 27 84  1  0  0  0  0
 28 31  2  0  0  0  0
 28 83  1  0  0  0  0
 29 85  1  0  0  0  0
 30 86  1  0  0  0  0
 31 87  1  0  0  0  0
 32 65  2  0  0  0  0
 33 67  1  0  0  0  0
 33 71  1  0  0  0  0
 34 37  1  0  0  0  0
 34 66  2  0  0  0  0
 35 54  1  0  0  0  0
 35 76  2  0  0  0  0
 36 72  1  0  0  0  0
 36 77  2  0  0  0  0
 37 68  1  0  0  0  0
 37 78  2  0  0  0  0
 38 52  1  0  0  0  0
 38 73  1  0  0  0  0
 38 79  2  0  0  0  0
 39 60  1  0  0  0  0
 39 61  1  0  0  0  0
 39 80  2  0  0  0  0
 40 62  1  0  0  0  0
 40 69  1  0  0  0  0
 40 81  2  0  0  0  0
 41 63  1  0  0  0  0
 41 74  1  0  0  0  0
 41 82  2  0  0  0  0
 42 45  1  0  0  0  0
 43 52  1  0  0  0  0
 44 69  1  0  0  0  0
 45 47  1  0  0  0  0
 46 48  1  0  0  0  0
 46 49  1  0  0  0  0
 47 51  1  0  0  0  0
 48 53  1  0  0  0  0
 49 68  1  0  0  0  0
 50 53  1  0  0  0  0
 50 68  1  0  0  0  0
 51 73  1  0  0  0  0
 52 69  1  0  0  0  0
 53 67  1  0  0  0  0
 55 63  1  0  0  0  0
 56 64  1  0  0  0  0
 57 64  1  0  0  0  0
 58 64  1  0  0  0  0
 59 75  1  0  0  0  0
 60 84  1  0  0  0  0
 61 85  1  0  0  0  0
 62 64  1  0  0  0  0
 62 74  1  0  0  0  0
 63 75  1  0  0  0  0
 65 67  1  0  0  0  0
M  CHG  1  75   1
M  ISO  4  34 100  37 100  60 101  84 101
M  END
> <Batch ID>
0111

> <Smiles>
CNC(C)C(=O)NC(C(=O)N1Cc2cc([101O:1][101CH2:1]C(=O)COc3cc(C(C)=O)c([100C:0](=N)[100C:0](=O)N4CCCC(n5nc(-c6ccc(Oc7ccc(F)cc7F)cc6)c(C(N)=O)c5N)C4)cc3N)ccc2CC1C(=O)NC1CCCc2ccccc21)C(C)(C)C

> <Shape>
0.198

> <Color>
0.175

> <Negative vol penalty>
0.000

$$$$

  -OEChem-04052301283D

 88 96  0     1  0  0  0  0  0999 V2000
  -30.0133  -10.4445   16.8383 C   0  0  0  0  0  0  0  0  0  0  0  0
  -29.3074  -11.3640   16.0691 C   0  0  0  0  0  0  0  0  0  0  0  0
  -25.9823  -30.0046   22.0312 C   0  0  0  0  0  0  0  0  0  0  0  0
  -26.1402  -29.2903   24.3338 C   0  0  0  0  0  0  0  0  0  0  0  0
  -30.1391  -10.6383   18.2133 C   0  0  0  0  0  0  0  0  0  0  0  0
  -28.7258  -12.4773   16.6747 C   0  0  0  0  0  0  0  0  0  0  0  0
  -28.1282  -18.0807   14.2767 C   0  0  0  0  0  0  0  0  0  0  0  0
  -26.9315  -30.9974   22.2741 C   0  0  0  0  0  0  0  0  0  0  0  0
  -27.0894  -30.2831   24.5767 C   0  0  0  0  0  0  0  0  0  0  0  0
  -27.0615  -18.7243   13.6510 C   0  0  0  0  0  0  0  0  0  0  0  0
  -29.0488  -33.9520   22.3792 C   0  0  0  0  0  0  0  0  0  0  0  0
  -28.7977  -35.2284   21.8760 C   0  0  0  0  0  0  0  0  0  0  0  0
  -20.5854  -23.7283   18.4982 C   0  0  0  0  0  0  0  0  0  0  0  0
  -18.7160  -23.2863   17.0330 C   0  0  0  0  0  0  0  0  0  0  0  0
  -26.4616  -19.7556   15.7477 C   0  0  0  0  0  0  0  0  0  0  0  0
  -26.7699  -35.3453   23.1842 C   0  0  0  0  0  0  0  0  0  0  0  0
  -25.5866  -29.1511   23.0611 C   0  0  0  0  0  0  0  0  0  0  0  0
  -19.2283  -23.8519   18.2006 C   0  0  0  0  0  0  0  0  0  0  0  0
  -21.4303  -23.0391   17.6282 C   0  0  0  0  0  0  0  0  0  0  0  0
  -24.8457  -26.8055   22.3851 C   0  0  0  0  0  0  0  0  0  0  0  0
  -29.5670  -11.7596   18.8346 C   0  0  0  0  0  0  0  0  0  0  0  0
  -28.3636  -18.2615   15.6473 C   0  0  0  0  0  0  0  0  0  0  0  0
  -28.8429  -12.6855   18.0595 C   0  0  0  0  0  0  0  0  0  0  0  0
  -27.5336  -19.1152   16.3879 C   0  0  0  0  0  0  0  0  0  0  0  0
  -19.5609  -22.5970   16.1630 C   0  0  0  0  0  0  0  0  0  0  0  0
  -27.4851  -31.1366   23.5469 C   0  0  0  0  0  0  0  0  0  0  0  0
  -26.2262  -19.5596   14.3871 C   0  0  0  0  0  0  0  0  0  0  0  0
  -28.1604  -33.3722   23.2849 C   0  0  0  0  0  0  0  0  0  0  0  0
  -20.9180  -22.4734   16.4606 C   0  0  0  0  0  0  0  0  0  0  0  0
  -27.6583  -35.9251   22.2785 C   0  0  0  0  0  0  0  0  0  0  0  0
  -27.0210  -34.0689   23.6874 C   0  0  0  0  0  0  0  0  0  0  0  0
  -24.6058  -28.1257   22.8109 C   0  0  0  0  0  0  0  0  0  0  0  0
  -23.5968  -26.2409   22.2965 C   0  0  0  0  0  0  0  0  0  0  0  0
  -22.8435  -22.9239   17.9639 C   0  0  0  0  0  0  0  0  0  0  0  0
  -18.3290  -24.5881   19.1259 C   0  0  0  0  0  0  0  0  0  0  0  0
  -26.0867  -26.1482   22.0956 C   0  0  0  0  0  0  0  0  0  0  0  0
  -23.7090  -23.9462   18.1495 C   0  0  0  0  0  0  0  0  0  0  0  0
  -28.4002  -16.3517   18.1880 C   0  0  0  0  0  0  0  0  0  0  0  0
  -29.4506  -19.0245   19.6962 C   0  0  0  0  0  0  0  0  0  0  0  0
  -29.6176  -22.4323   19.7718 C   0  0  0  0  0  0  0  0  0  0  0  0
  -18.2656  -26.4116   20.7975 C   0  0  0  0  0  0  0  0  0  0  0  0
  -29.6893  -11.9016   20.3311 C   0  0  0  0  0  0  0  0  0  0  0  0
  -29.5345  -17.5810   16.3017 C   0  0  0  0  0  0  0  0  0  0  0  0
  -27.7556  -19.3586   17.8575 C   0  0  0  0  0  0  0  0  0  0  0  0
  -29.3619  -13.3036   20.8386 C   0  0  0  0  0  0  0  0  0  0  0  0
  -19.0931  -27.9345   23.8786 C   0  0  0  0  0  0  0  0  0  0  0  0
  -28.0752  -13.8158   20.1994 C   0  0  0  0  0  0  0  0  0  0  0  0
  -20.6223  -28.0057   23.8470 C   0  0  0  0  0  0  0  0  0  0  0  0
  -18.4843  -28.1983   22.5021 C   0  0  0  0  0  0  0  0  0  0  0  0
  -20.5434  -27.4432   21.3850 C   0  0  0  0  0  0  0  0  0  0  0  0
  -28.2188  -13.9186   18.6761 C   0  0  1  0  0  0  0  0  0  0  0  0
  -29.3725  -17.4335   17.8115 C   0  0  1  0  0  0  0  0  0  0  0  0
  -21.2071  -27.1153   22.7323 C   0  0  1  0  0  0  0  0  0  0  0  0
  -25.1535  -23.6768   18.4763 C   0  0  0  0  0  0  0  0  0  0  0  0
  -23.3501  -25.4049   18.0724 C   0  0  0  0  0  0  0  0  0  0  0  0
  -30.3140  -24.7126   20.5544 C   0  0  0  0  0  0  0  0  0  0  0  0
  -27.1900  -18.6272   21.7066 C   0  0  0  0  0  0  0  0  0  0  0  0
  -27.5320  -20.9923   22.4533 C   0  0  0  0  0  0  0  0  0  0  0  0
  -29.3702  -19.3260   22.7130 C   0  0  0  0  0  0  0  0  0  0  0  0
  -32.0318  -22.4096   18.0601 C   0  0  0  0  0  0  0  0  0  0  0  0
  -23.2753  -21.6644   13.7478 C   0  0  0  0  0  0  0  0  0  0  0  0
  -24.3685  -21.0300   14.5933 C   0  0  0  0  0  0  0  0  0  1  0  0
  -22.3634  -22.5578   14.5740 C   0  0  0  0  0  0  0  0  0  0  0  0
  -28.7895  -20.1814   20.4058 C   0  0  1  0  0  0  0  0  0  0  0  0
  -30.7833  -23.3790   19.9941 C   0  0  2  0  0  0  0  0  0  0  0  0
  -28.2148  -19.7758   21.7924 C   0  0  0  0  0  0  0  0  0  0  0  0
  -23.3065  -28.3845   22.9809 N   0  0  0  0  0  0  0  0  0  0  0  0
  -22.7188  -27.2193   22.6601 N   0  0  0  0  0  0  0  0  0  0  0  0
  -28.9099  -18.6657   18.4534 N   0  0  0  0  0  0  0  0  0  0  0  0
  -19.0838  -27.3091   21.5056 N   0  0  0  0  0  0  0  0  0  0  0  0
  -19.0271  -22.0303   14.9847 N   0  0  0  0  0  0  0  0  0  0  0  0
  -23.1749  -25.0081   21.9437 N   0  0  0  0  0  0  0  0  0  0  0  0
  -27.2767  -26.8746   22.2386 N   0  0  0  0  0  0  0  0  0  0  0  0
  -18.9389  -25.5759   19.8995 N   0  0  0  0  0  0  0  0  0  0  0  0
  -28.9729  -15.1009   18.3183 N   0  0  0  0  0  0  0  0  0  0  0  0
  -29.7827  -21.2487   20.4596 N   0  0  0  0  0  0  0  0  0  0  0  0
  -31.4961  -23.6333   18.7102 N   0  3  0  0  0  0  0  0  0  0  0  0
  -17.1299  -24.3237   19.1309 O   0  0  0  0  0  0  0  0  0  0  0  0
  -26.1375  -24.9571   21.7055 O   0  0  0  0  0  0  0  0  0  0  0  0
  -27.2181  -16.6313   18.3497 O   0  0  0  0  0  0  0  0  0  0  0  0
  -30.4159  -18.4645   20.2219 O   0  0  0  0  0  0  0  0  0  0  0  0
  -28.6550  -22.7160   19.0623 O   0  0  0  0  0  0  0  0  0  0  0  0
  -17.0461  -26.3341   20.9767 O   0  0  0  0  0  0  0  0  0  0  0  0
  -28.4115  -32.1052   23.7842 O   0  0  0  0  0  0  0  0  0  0  0  0
  -25.1839  -20.1885   13.7789 O   0  0  0  0  0  0  0  0  0  1  0  0
  -21.7433  -21.7961   15.6011 O   0  0  0  0  0  0  0  0  0  0  0  0
  -27.4182  -37.1515   21.7963 F   0  0  0  0  0  0  0  0  0  0  0  0
  -26.1645  -33.5175   24.5581 F   0  0  0  0  0  0  0  0  0  0  0  0
  1  2  1  0  0  0  0
  1  5  2  0  0  0  0
  2  6  2  0  0  0  0
  3  8  2  0  0  0  0
  3 17  1  0  0  0  0
  4  9  1  0  0  0  0
  4 17  2  0  0  0  0
  5 21  1  0  0  0  0
  6 23  1  0  0  0  0
  7 10  2  0  0  0  0
  7 22  1  0  0  0  0
  8 26  1  0  0  0  0
  9 26  2  0  0  0  0
 10 27  1  0  0  0  0
 11 12  2  0  0  0  0
 11 28  1  0  0  0  0
 12 30  1  0  0  0  0
 13 18  2  0  0  0  0
 13 19  1  0  0  0  0
 14 18  1  0  0  0  0
 14 25  2  0  0  0  0
 15 24  1  0  0  0  0
 15 27  2  0  0  0  0
 16 30  2  0  0  0  0
 16 31  1  0  0  0  0
 17 32  1  0  0  0  0
 18 35  1  0  0  0  0
 19 29  2  0  0  0  0
 19 34  1  0  0  0  0
 20 32  1  0  0  0  0
 20 33  2  0  0  0  0
 20 36  1  0  0  0  0
 21 23  2  0  0  0  0
 21 42  1  0  0  0  0
 22 24  2  0  0  0  0
 22 43  1  0  0  0  0
 23 51  1  0  0  0  0
 24 44  1  0  0  0  0
 25 29  1  0  0  0  0
 25 71  1  0  0  0  0
 26 84  1  0  0  0  0
 27 85  1  0  0  0  0
 28 31  2  0  0  0  0
 28 84  1  0  0  0  0
 29 86  1  0  0  0  0
 30 87  1  0  0  0  0
 31 88  1  0  0  0  0
 32 67  2  0  0  0  0
 33 68  1  0  0  0  0
 33 72  1  0  0  0  0
 34 37  2  0  0  0  0
 35 74  1  0  0  0  0
 35 78  2  0  0  0  0
 36 73  1  0  0  0  0
 36 79  2  0  0  0  0
 37 54  1  0  0  0  0
 37 55  1  0  0  0  0
 38 52  1  0  0  0  0
 38 75  1  0  0  0  0
 38 80  2  0  0  0  0
 39 64  1  0  0  0  0
 39 69  1  0  0  0  0
 39 81  2  0  0  0  0
 40 65  1  0  0  0  0
 40 76  1  0  0  0  0
 40 82  2  0  0  0  0
 41 70  1  0  0  0  0
 41 74  1  0  0  0  0
 41 83  2  0  0  0  0
 42 45  1  0  0  0  0
 43 52  1  0  0  0  0
 44 69  1  0  0  0  0
 45 47  1  0  0  0  0
 46 48  1  0  0  0  0
 46 49  1  0  0  0  0
 47 51  1  0  0  0  0
 48 53  1  0  0  0  0
 49 70  1  0  0  0  0
 50 53  1  0  0  0  0
 50 70  1  0  0  0  0
 51 75  1  0  0  0  0
 52 69  1  0  0  0  0
 53 68  1  0  0  0  0
 56 65  1  0  0  0  0
 57 66  1  0  0  0  0
 58 66  1  0  0  0  0
 59 66  1  0  0  0  0
 60 77  1  0  0  0  0
 61 62  1  0  0  0  0
 61 63  1  0  0  0  0
 62 85  1  0  0  0  0
 63 86  1  0  0  0  0
 64 66  1  0  0  0  0
 64 76  1  0  0  0  0
 65 77  1  0  0  0  0
 67 68  1  0  0  0  0
M  CHG  1  77   1
M  ISO  4  41 100  62 101  74 100  85 101
M  END
> <Batch ID>
0111

> <Smiles>
CNC(C)C(=O)NC(C(=O)N1Cc2cc([101O:1][101CH2:1]CCOc3c(N)cc(C(=O)[100NH:0][100C:0](=O)N4CCCC(n5nc(-c6ccc(Oc7ccc(F)cc7F)cc6)c(C(N)=O)c5N)C4)cc3C=C(C)C)ccc2CC1C(=O)NC1CCCc2ccccc21)C(C)(C)C

> <Shape>
0.217

> <Color>
0.069

> <Negative vol penalty>
0.000

$$$$

  -OEChem-04052301283D

 87 96  0     1  0  0  0  0  0999 V2000
  -27.0240  -36.2170   20.9334 C   0  0  0  0  0  0  0  0  0  0  0  0
  -27.4550  -34.9024   21.0799 C   0  0  0  0  0  0  0  0  0  0  0  0
  -23.7530  -10.8919   23.2430 C   0  0  0  0  0  0  0  0  0  0  0  0
  -24.5163   -9.1676   21.7326 C   0  0  0  0  0  0  0  0  0  0  0  0
  -25.7517  -36.5849   21.3690 C   0  0  0  0  0  0  0  0  0  0  0  0
  -26.6142  -33.9551   21.6631 C   0  0  0  0  0  0  0  0  0  0  0  0
  -26.5566  -29.5784   19.1163 C   0  0  0  0  0  0  0  0  0  0  0  0
  -30.8025  -19.8731   19.8679 C   0  0  0  0  0  0  0  0  0  0  0  0
  -30.5627  -18.5177   19.6419 C   0  0  0  0  0  0  0  0  0  0  0  0
  -23.2841   -9.9150   24.1213 C   0  0  0  0  0  0  0  0  0  0  0  0
  -24.0474   -8.1907   22.6109 C   0  0  0  0  0  0  0  0  0  0  0  0
  -27.6397  -28.7201   19.3007 C   0  0  0  0  0  0  0  0  0  0  0  0
  -21.0799   -6.7902   23.4255 C   0  0  0  0  0  0  0  0  0  0  0  0
  -20.3616   -5.7237   22.8850 C   0  0  0  0  0  0  0  0  0  0  0  0
  -26.3310  -27.4109   20.8475 C   0  0  0  0  0  0  0  0  0  0  0  0
  -28.4224  -20.2836   19.9308 C   0  0  0  0  0  0  0  0  0  0  0  0
  -22.0083   -4.1789   23.7446 C   0  0  0  0  0  0  0  0  0  0  0  0
  -24.3691  -10.5182   22.0486 C   0  0  0  0  0  0  0  0  0  0  0  0
  -24.0992  -12.5331   20.5075 C   0  0  0  0  0  0  0  0  0  0  0  0
  -24.8912  -35.6395   21.9490 C   0  0  0  0  0  0  0  0  0  0  0  0
  -25.3541  -29.3654   19.8056 C   0  0  0  0  0  0  0  0  0  0  0  0
  -25.3297  -34.3110   22.1081 C   0  0  0  0  0  0  0  0  0  0  0  0
  -25.2333  -28.2665   20.6681 C   0  0  0  0  0  0  0  0  0  0  0  0
  -29.7323  -20.7561   20.0124 C   0  0  0  0  0  0  0  0  0  0  0  0
  -29.2528  -18.0453   19.5603 C   0  0  0  0  0  0  0  0  0  0  0  0
  -23.4313   -8.5644   23.8053 C   0  0  0  0  0  0  0  0  0  0  0  0
  -27.5279  -27.6378   20.1686 C   0  0  0  0  0  0  0  0  0  0  0  0
  -22.2625   -6.5511   24.1255 C   0  0  0  0  0  0  0  0  0  0  0  0
  -28.1827  -18.9282   19.7047 C   0  0  0  0  0  0  0  0  0  0  0  0
  -20.8257   -4.4181   23.0446 C   0  0  0  0  0  0  0  0  0  0  0  0
  -22.7267   -5.2454   24.2851 C   0  0  0  0  0  0  0  0  0  0  0  0
  -24.8531  -11.5269   21.1407 C   0  0  0  0  0  0  0  0  0  0  0  0
  -25.0154  -13.2265   19.7550 C   0  0  0  0  0  0  0  0  0  0  0  0
  -29.3898  -24.5634   20.1768 C   0  0  0  0  0  0  0  0  0  0  0  0
  -29.0765  -23.1441   19.7949 C   0  0  0  0  0  0  0  0  0  0  0  0
  -28.4185  -25.4790   20.0373 C   0  0  0  0  0  0  0  0  0  1  0  0
  -22.6962  -12.8159   20.5921 C   0  0  0  0  0  0  0  0  0  0  0  0
  -23.6632  -31.0180   21.9300 C   0  0  0  0  0  0  0  0  0  0  0  0
  -21.5185  -28.6215   21.5063 C   0  0  0  0  0  0  0  0  0  0  0  0
  -21.6155  -25.0315   21.1603 C   0  0  0  0  0  0  0  0  0  0  0  0
  -29.9849  -15.6675   19.1643 C   0  0  0  0  0  0  0  0  0  0  0  0
  -23.5427  -36.0949   22.4478 C   0  0  0  0  0  0  0  0  0  0  0  0
  -24.1863  -30.2849   19.5752 C   0  0  0  0  0  0  0  0  0  0  0  0
  -23.9575  -27.9822   21.4164 C   0  0  0  0  0  0  0  0  0  0  0  0
  -30.7340  -24.9247   20.7202 C   0  0  0  0  0  0  0  0  0  0  0  0
  -22.5723  -34.9470   22.7140 C   0  0  0  0  0  0  0  0  0  0  0  0
  -31.2353  -23.8241   21.6282 C   0  0  0  0  0  0  0  0  0  0  0  0
  -29.8289  -12.1532   18.6147 C   0  0  0  0  0  0  0  0  0  0  0  0
  -23.2613  -33.8374   23.5021 C   0  0  0  0  0  0  0  0  0  0  0  0
  -28.4585  -11.7597   19.1708 C   0  0  0  0  0  0  0  0  0  0  0  0
  -31.2757  -22.5176   20.8556 C   0  0  0  0  0  0  0  0  0  0  0  0
  -30.4862  -13.2505   19.4500 C   0  0  0  0  0  0  0  0  0  0  0  0
  -28.2886  -14.0506   20.2244 C   0  0  0  0  0  0  0  0  0  0  0  0
  -24.4374  -33.2491   22.7133 C   0  0  1  0  0  0  0  0  0  0  0  0
  -23.1787  -30.2695   20.7206 C   0  0  1  0  0  0  0  0  0  0  0  0
  -27.5591  -12.9940   19.3787 C   0  0  2  0  0  0  0  0  0  0  0  0
  -20.0378  -23.4608   20.0023 C   0  0  0  0  0  0  0  0  0  0  0  0
  -20.2298  -28.3479   24.2584 C   0  0  0  0  0  0  0  0  0  0  0  0
  -19.8865  -25.9147   23.7789 C   0  0  0  0  0  0  0  0  0  0  0  0
  -18.7782  -27.6340   22.3512 C   0  0  0  0  0  0  0  0  0  0  0  0
  -23.7865  -23.8841   19.5083 C   0  0  0  0  0  0  0  0  0  0  0  0
  -26.2796  -18.0685   20.8427 C   0  0  0  0  0  0  0  0  0  0  0  0
  -21.2735  -27.2794   22.1525 C   0  0  1  0  0  0  0  0  0  0  0  0
  -21.3441  -24.2324   19.8985 C   0  0  2  0  0  0  0  0  0  0  0  0
  -20.0680  -27.3055   23.1341 C   0  0  0  0  0  0  0  0  0  0  0  0
  -26.1485  -11.5732   20.8183 N   0  0  0  0  0  0  0  0  0  0  0  0
  -26.2156  -12.6169   19.9743 N   0  0  0  0  0  0  0  0  0  0  0  0
  -29.9815  -22.1630   20.2462 N   0  0  0  0  0  0  0  0  0  0  0  0
  -22.8460  -28.9137   21.1625 N   0  0  0  0  0  0  0  0  0  0  0  0
  -29.5777  -14.3892   19.6011 N   0  0  0  0  0  0  0  0  0  0  0  0
  -24.9035  -14.2919   18.9336 N   0  0  0  0  0  0  0  0  0  0  0  0
  -21.8328  -12.1925   19.6809 N   0  0  0  0  0  0  0  0  0  0  0  0
  -29.0254  -16.6659   19.3293 N   0  0  0  0  0  0  0  0  0  0  0  0
  -23.9578  -32.3463   21.6889 N   0  0  0  0  0  0  0  0  0  0  0  0
  -21.1354  -26.3203   21.0619 N   0  0  0  0  0  0  0  0  0  0  0  0
  -22.4464  -23.2597   19.6542 N   0  3  0  0  0  0  0  0  0  0  0  0
  -28.0855  -22.9237   19.0963 O   0  0  0  0  0  0  0  0  0  0  0  0
  -22.2240  -13.6108   21.4399 O   0  0  0  0  0  0  0  0  0  0  0  0
  -23.7610  -30.4339   23.0029 O   0  0  0  0  0  0  0  0  0  0  0  0
  -20.5660  -29.3797   21.3071 O   0  0  0  0  0  0  0  0  0  0  0  0
  -22.1922  -24.5584   22.1372 O   0  0  0  0  0  0  0  0  0  0  0  0
  -31.0923  -15.8569   18.6547 O   0  0  0  0  0  0  0  0  0  0  0  0
  -22.9741   -7.6109   24.6622 O   0  0  0  0  0  0  0  0  0  0  0  0
  -28.5838  -26.7989   20.3510 O   0  0  0  0  0  0  0  0  0  1  0  0
  -26.8950  -18.4876   19.6267 O   0  0  0  0  0  0  0  0  0  0  0  0
  -20.1350   -3.3939   22.5268 F   0  0  0  0  0  0  0  0  0  0  0  0
  -23.8615   -5.0094   24.9577 F   0  0  0  0  0  0  0  0  0  0  0  0
  1  2  1  0  0  0  0
  1  5  2  0  0  0  0
  2  6  2  0  0  0  0
  3 10  2  0  0  0  0
  3 18  1  0  0  0  0
  4 11  1  0  0  0  0
  4 18  2  0  0  0  0
  5 20  1  0  0  0  0
  6 22  1  0  0  0  0
  7 12  2  0  0  0  0
  7 21  1  0  0  0  0
  8  9  2  0  0  0  0
  8 24  1  0  0  0  0
  9 25  1  0  0  0  0
 10 26  1  0  0  0  0
 11 26  2  0  0  0  0
 12 27  1  0  0  0  0
 13 14  2  0  0  0  0
 13 28  1  0  0  0  0
 14 30  1  0  0  0  0
 15 23  1  0  0  0  0
 15 27  2  0  0  0  0
 16 24  2  0  0  0  0
 16 29  1  0  0  0  0
 17 30  2  0  0  0  0
 17 31  1  0  0  0  0
 18 32  1  0  0  0  0
 19 32  1  0  0  0  0
 19 33  2  0  0  0  0
 19 37  1  0  0  0  0
 20 22  2  0  0  0  0
 20 42  1  0  0  0  0
 21 23  2  0  0  0  0
 21 43  1  0  0  0  0
 22 54  1  0  0  0  0
 23 44  1  0  0  0  0
 24 68  1  0  0  0  0
 25 29  2  0  0  0  0
 25 73  1  0  0  0  0
 26 83  1  0  0  0  0
 27 84  1  0  0  0  0
 28 31  2  0  0  0  0
 28 83  1  0  0  0  0
 29 85  1  0  0  0  0
 30 86  1  0  0  0  0
 31 87  1  0  0  0  0
 32 66  2  0  0  0  0
 33 67  1  0  0  0  0
 33 71  1  0  0  0  0
 34 35  1  0  0  0  0
 34 36  2  0  0  0  0
 34 45  1  0  0  0  0
 35 68  1  0  0  0  0
 35 77  2  0  0  0  0
 36 84  1  0  0  0  0
 37 72  1  0  0  0  0
 37 78  2  0  0  0  0
 38 55  1  0  0  0  0
 38 74  1  0  0  0  0
 38 79  2  0  0  0  0
 39 63  1  0  0  0  0
 39 69  1  0  0  0  0
 39 80  2  0  0  0  0
 40 64  1  0  0  0  0
 40 75  1  0  0  0  0
 40 81  2  0  0  0  0
 41 70  1  0  0  0  0
 41 73  1  0  0  0  0
 41 82  2  0  0  0  0
 42 46  1  0  0  0  0
 43 55  1  0  0  0  0
 44 69  1  0  0  0  0
 45 47  1  0  0  0  0
 46 49  1  0  0  0  0
 47 51  1  0  0  0  0
 48 50  1  0  0  0  0
 48 52  1  0  0  0  0
 49 54  1  0  0  0  0
 50 56  1  0  0  0  0
 51 68  1  0  0  0  0
 52 70  1  0  0  0  0
 53 56  1  0  0  0  0
 53 70  1  0  0  0  0
 54 74  1  0  0  0  0
 55 69  1  0  0  0  0
 56 67  1  0  0  0  0
 57 64  1  0  0  0  0
 58 65  1  0  0  0  0
 59 65  1  0  0  0  0
 60 65  1  0  0  0  0
 61 76  1  0  0  0  0
 62 85  1  0  0  0  0
 63 65  1  0  0  0  0
 63 75  1  0  0  0  0
 64 76  1  0  0  0  0
 66 67  1  0  0  0  0
M  CHG  1  76   1
M  ISO  4  36 101  41 100  73 100  84 101
M  END
> <Batch ID>
0111

> <Smiles>
CNC(C)C(=O)NC(C(=O)N1Cc2cc([101O:1][101CH:1]=C3CCCN(c4ccc([100NH:0][100C:0](=O)N5CCCC(n6nc(-c7ccc(Oc8ccc(F)cc8F)cc7)c(C(N)=O)c6N)C5)c(OC)c4)C3=O)ccc2CC1C(=O)NC1CCCc2ccccc21)C(C)(C)C

> <Shape>
0.342

> <Color>
0.123

> <Negative vol penalty>
0.000

$$$$

  -OEChem-04052301283D

 87 95  0     1  0  0  0  0  0999 V2000
  -31.2450  -26.8614   21.3280 C   0  0  0  0  0  0  0  0  0  0  0  0
  -30.0301  -26.6275   20.6919 C   0  0  0  0  0  0  0  0  0  0  0  0
  -27.2003  -12.7436   23.0424 C   0  0  0  0  0  0  0  0  0  0  0  0
  -26.3076  -12.9989   20.8119 C   0  0  0  0  0  0  0  0  0  0  0  0
  -31.2648  -27.3966   22.6152 C   0  0  0  0  0  0  0  0  0  0  0  0
  -28.8342  -26.9278   21.3431 C   0  0  0  0  0  0  0  0  0  0  0  0
  -25.5363  -29.3267   18.3407 C   0  0  0  0  0  0  0  0  0  0  0  0
  -26.0732  -12.0083   23.4093 C   0  0  0  0  0  0  0  0  0  0  0  0
  -25.1805  -12.2636   21.1789 C   0  0  0  0  0  0  0  0  0  0  0  0
  -24.8321  -28.5512   17.4206 C   0  0  0  0  0  0  0  0  0  0  0  0
  -24.3626   -9.0141   21.6170 C   0  0  0  0  0  0  0  0  0  0  0  0
  -23.9188   -8.0281   20.7359 C   0  0  0  0  0  0  0  0  0  0  0  0
  -25.7291  -21.1993   17.4073 C   0  0  0  0  0  0  0  0  0  0  0  0
  -22.9223  -28.5478   18.8942 C   0  0  0  0  0  0  0  0  0  0  0  0
  -21.7922   -9.1583   20.5423 C   0  0  0  0  0  0  0  0  0  0  0  0
  -27.3174  -13.2390   21.7437 C   0  0  0  0  0  0  0  0  0  0  0  0
  -26.9621  -21.8322   17.5638 C   0  0  0  0  0  0  0  0  0  0  0  0
  -27.0216  -23.2188   17.7033 C   0  0  0  0  0  0  0  0  0  0  0  0
  -29.6831  -13.5016   20.8259 C   0  0  0  0  0  0  0  0  0  0  0  0
  -30.0688  -27.7127   23.2788 C   0  0  0  0  0  0  0  0  0  0  0  0
  -24.9415  -29.7100   19.5513 C   0  0  0  0  0  0  0  0  0  0  0  0
  -28.8380  -27.4665   22.6409 C   0  0  0  0  0  0  0  0  0  0  0  0
  -23.6201  -29.3303   19.8269 C   0  0  0  0  0  0  0  0  0  0  0  0
  -25.8480  -23.9725   17.6862 C   0  0  0  0  0  0  0  0  0  0  0  0
  -24.5554  -21.9530   17.3902 C   0  0  0  0  0  0  0  0  0  0  0  0
  -25.0633  -11.7683   22.4776 C   0  0  0  0  0  0  0  0  0  0  0  0
  -23.5259  -28.1592   17.6986 C   0  0  0  0  0  0  0  0  0  0  0  0
  -23.5211  -10.0721   21.9609 C   0  0  0  0  0  0  0  0  0  0  0  0
  -24.6149  -23.3396   17.5297 C   0  0  0  0  0  0  0  0  0  0  0  0
  -22.6336   -8.1002   20.1985 C   0  0  0  0  0  0  0  0  0  0  0  0
  -22.2360  -10.1442   21.4235 C   0  0  0  0  0  0  0  0  0  0  0  0
  -28.4812  -13.9991   21.3642 C   0  0  0  0  0  0  0  0  0  0  0  0
  -30.4636  -14.6164   20.6403 C   0  0  0  0  0  0  0  0  0  0  0  0
  -29.0240  -24.3523   16.8542 C   0  0  0  0  0  0  0  0  0  0  0  0
  -28.3118  -23.8839   17.8655 C   0  0  0  0  0  0  0  0  0  0  0  0
  -28.1633  -21.0043   17.5764 C   0  0  0  0  0  0  0  0  0  0  0  0
  -30.0604  -12.1524   20.5210 C   0  0  0  0  0  0  0  0  0  0  0  0
  -25.5662  -29.1836   22.6232 C   0  0  0  0  0  0  0  0  0  0  0  0
  -29.0658  -20.4092   19.8648 C   0  0  0  0  0  0  0  0  0  0  0  0
  -23.1424  -31.2914   23.0756 C   0  0  0  0  0  0  0  0  0  0  0  0
  -20.3223  -32.7705   21.8485 C   0  0  0  0  0  0  0  0  0  0  0  0
  -30.1394  -28.2454   24.6880 C   0  0  0  0  0  0  0  0  0  0  0  0
  -25.7052  -30.5690   20.5215 C   0  0  0  0  0  0  0  0  0  0  0  0
  -22.9291  -29.7327   21.1032 C   0  0  0  0  0  0  0  0  0  0  0  0
  -28.8375  -28.8853   25.1632 C   0  0  0  0  0  0  0  0  0  0  0  0
  -31.2083  -19.0060   22.3709 C   0  0  0  0  0  0  0  0  0  0  0  0
  -27.6483  -27.9934   24.8210 C   0  0  0  0  0  0  0  0  0  0  0  0
  -30.8409  -17.5227   22.3678 C   0  0  0  0  0  0  0  0  0  0  0  0
  -29.9909  -19.8834   22.0968 C   0  0  0  0  0  0  0  0  0  0  0  0
  -28.9005  -18.0606   20.8280 C   0  0  0  0  0  0  0  0  0  0  0  0
  -27.5202  -27.8023   23.3049 C   0  0  1  0  0  0  0  0  0  0  0  0
  -25.1790  -30.4698   21.9500 C   0  0  1  0  0  0  0  0  0  0  0  0
  -30.1079  -17.1376   21.0706 C   0  0  2  0  0  0  0  0  0  0  0  0
  -25.8900  -25.4624   17.8343 C   0  0  0  0  0  0  0  0  0  0  0  0
  -18.5383  -34.4246   22.4638 C   0  0  0  0  0  0  0  0  0  0  0  0
  -21.8267  -29.2018   24.8679 C   0  0  0  0  0  0  0  0  0  0  0  0
  -19.6858  -30.4853   24.6746 C   0  0  0  0  0  0  0  0  0  0  0  0
  -21.6846  -31.5478   25.7227 C   0  0  0  0  0  0  0  0  0  0  0  0
  -21.0501  -34.5638   19.6094 C   0  0  0  0  0  0  0  0  0  0  0  0
  -28.3631  -19.9092   18.6278 C   0  0  0  0  0  0  0  0  0  0  0  0
  -21.7085  -25.3056   16.4079 C   0  0  0  0  0  0  0  0  0  0  0  0
  -21.8547  -26.5086   17.3265 C   0  0  0  0  0  0  0  0  0  1  0  0
  -23.0181  -24.5494   16.2482 C   0  0  0  0  0  0  0  0  0  0  0  0
  -21.6438  -31.1821   23.2214 C   0  0  1  0  0  0  0  0  0  0  0  0
  -19.8893  -34.2245   21.7949 C   0  0  2  0  0  0  0  0  0  0  0  0
  -21.2236  -30.5949   24.5984 C   0  0  0  0  0  0  0  0  0  0  0  0
  -28.4925  -15.3266   21.5111 N   0  0  0  0  0  0  0  0  0  0  0  0
  -29.1106  -21.1621   16.6832 N   0  0  0  0  0  0  0  0  0  0  0  0
  -29.7111  -15.6727   21.0625 N   0  0  0  0  0  0  0  0  0  0  0  0
  -23.7197  -30.5674   22.0228 N   0  0  0  0  0  0  0  0  0  0  0  0
  -29.3095  -19.4714   20.8683 N   0  0  0  0  0  0  0  0  0  0  0  0
  -23.3143  -21.2982   17.2315 N   0  0  0  0  0  0  0  0  0  0  0  0
  -31.7133  -14.7864   20.1588 N   0  0  0  0  0  0  0  0  0  0  0  0
  -29.1383  -11.1275   20.7735 N   0  0  0  0  0  0  0  0  0  0  0  0
  -26.9303  -28.9750   22.6957 N   0  0  0  0  0  0  0  0  0  0  0  0
  -21.1093  -32.5123   22.9509 N   0  0  0  0  0  0  0  0  0  0  0  0
  -19.7858  -34.6823   20.3804 N   0  3  0  0  0  0  0  0  0  0  0  0
  -31.1880  -11.8624   20.0542 O   0  0  0  0  0  0  0  0  0  0  0  0
  -24.6922  -28.4364   23.0468 O   0  0  0  0  0  0  0  0  0  0  0  0
  -29.3904  -21.5976   19.9339 O   0  0  0  0  0  0  0  0  0  0  0  0
  -23.7766  -31.9989   23.8623 O   0  0  0  0  0  0  0  0  0  0  0  0
  -19.9921  -31.9454   20.9995 O   0  0  0  0  0  0  0  0  0  0  0  0
  -23.9635  -11.0507   22.8353 O   0  0  0  0  0  0  0  0  0  0  0  0
  -22.8366  -27.4017   16.8025 O   0  0  0  0  0  0  0  0  0  1  0  0
  -23.4613  -24.0796   17.5141 O   0  0  0  0  0  0  0  0  0  0  0  0
  -22.2081   -7.1541   19.3511 F   0  0  0  0  0  0  0  0  0  0  0  0
  -21.4235  -11.1590   21.7492 F   0  0  0  0  0  0  0  0  0  0  0  0
  1  2  1  0  0  0  0
  1  5  2  0  0  0  0
  2  6  2  0  0  0  0
  3  8  2  0  0  0  0
  3 16  1  0  0  0  0
  4  9  1  0  0  0  0
  4 16  2  0  0  0  0
  5 20  1  0  0  0  0
  6 22  1  0  0  0  0
  7 10  2  0  0  0  0
  7 21  1  0  0  0  0
  8 26  1  0  0  0  0
  9 26  2  0  0  0  0
 10 27  1  0  0  0  0
 11 12  2  0  0  0  0
 11 28  1  0  0  0  0
 12 30  1  0  0  0  0
 13 17  2  0  0  0  0
 13 25  1  0  0  0  0
 14 23  1  0  0  0  0
 14 27  2  0  0  0  0
 15 30  2  0  0  0  0
 15 31  1  0  0  0  0
 16 32  1  0  0  0  0
 17 18  1  0  0  0  0
 17 36  1  0  0  0  0
 18 24  2  0  0  0  0
 18 35  1  0  0  0  0
 19 32  1  0  0  0  0
 19 33  2  0  0  0  0
 19 37  1  0  0  0  0
 20 22  2  0  0  0  0
 20 42  1  0  0  0  0
 21 23  2  0  0  0  0
 21 43  1  0  0  0  0
 22 51  1  0  0  0  0
 23 44  1  0  0  0  0
 24 29  1  0  0  0  0
 24 54  1  0  0  0  0
 25 29  2  0  0  0  0
 25 72  1  0  0  0  0
 26 83  1  0  0  0  0
 27 84  1  0  0  0  0
 28 31  2  0  0  0  0
 28 83  1  0  0  0  0
 29 85  1  0  0  0  0
 30 86  1  0  0  0  0
 31 87  1  0  0  0  0
 32 67  2  0  0  0  0
 33 69  1  0  0  0  0
 33 73  1  0  0  0  0
 34 35  2  0  0  0  0
 36 60  1  0  0  0  0
 36 68  2  0  0  0  0
 37 74  1  0  0  0  0
 37 78  2  0  0  0  0
 38 52  1  0  0  0  0
 38 75  1  0  0  0  0
 38 79  2  0  0  0  0
 39 60  1  0  0  0  0
 39 71  1  0  0  0  0
 39 80  2  0  0  0  0
 40 64  1  0  0  0  0
 40 70  1  0  0  0  0
 40 81  2  0  0  0  0
 41 65  1  0  0  0  0
 41 76  1  0  0  0  0
 41 82  2  0  0  0  0
 42 45  1  0  0  0  0
 43 52  1  0  0  0  0
 44 70  1  0  0  0  0
 45 47  1  0  0  0  0
 46 48  1  0  0  0  0
 46 49  1  0  0  0  0
 47 51  1  0  0  0  0
 48 53  1  0  0  0  0
 49 71  1  0  0  0  0
 50 53  1  0  0  0  0
 50 71  1  0  0  0  0
 51 75  1  0  0  0  0
 52 70  1  0  0  0  0
 53 69  1  0  0  0  0
 55 65  1  0  0  0  0
 56 66  1  0  0  0  0
 57 66  1  0  0  0  0
 58 66  1  0  0  0  0
 59 77  1  0  0  0  0
 61 62  1  0  0  0  0
 61 63  1  0  0  0  0
 62 84  1  0  0  0  0
 63 85  1  0  0  0  0
 64 66  1  0  0  0  0
 64 76  1  0  0  0  0
 65 77  1  0  0  0  0
 67 69  1  0  0  0  0
M  CHG  1  77   1
M  ISO  4  39 100  60 100  62 101  84 101
M  END
> <Batch ID>
0111

> <Smiles>
C=Cc1c(C(=N)[100CH2:0][100C:0](=O)N2CCCC(n3nc(-c4ccc(Oc5ccc(F)cc5F)cc4)c(C(N)=O)c3N)C2)cc(N)c(OCC[101CH2:1][101O:1]c2ccc3c(c2)CN(C(=O)C(NC(=O)C(C)NC)C(C)(C)C)C(C(=O)NC2CCCc4ccccc42)C3)c1C

> <Shape>
0.233

> <Color>
0.077

> <Negative vol penalty>
0.000

$$$$

  -OEChem-04052301283D

 88 97  0     1  0  0  0  0  0999 V2000
  -21.6879  -12.0568   19.7777 C   0  0  0  0  0  0  0  0  0  0  0  0
  -21.5835  -13.3441   20.2949 C   0  0  0  0  0  0  0  0  0  0  0  0
  -29.9343  -27.6518   20.4237 C   0  0  0  0  0  0  0  0  0  0  0  0
  -28.4458  -26.4816   21.9244 C   0  0  0  0  0  0  0  0  0  0  0  0
  -22.9241  -11.4124   19.7590 C   0  0  0  0  0  0  0  0  0  0  0  0
  -22.7153  -13.9873   20.7947 C   0  0  0  0  0  0  0  0  0  0  0  0
  -23.0587  -18.7971   19.2477 C   0  0  0  0  0  0  0  0  0  0  0  0
  -31.0305  -27.0515   21.0429 C   0  0  0  0  0  0  0  0  0  0  0  0
  -29.5420  -25.8812   22.5435 C   0  0  0  0  0  0  0  0  0  0  0  0
  -22.2510  -19.7326   19.8928 C   0  0  0  0  0  0  0  0  0  0  0  0
  -32.8299  -27.4702   23.8733 C   0  0  0  0  0  0  0  0  0  0  0  0
  -33.9223  -28.2804   24.1832 C   0  0  0  0  0  0  0  0  0  0  0  0
  -24.1315  -20.4192   21.2387 C   0  0  0  0  0  0  0  0  0  0  0  0
  -17.9765  -26.9021   22.1722 C   0  0  0  0  0  0  0  0  0  0  0  0
  -19.2397  -28.9576   22.3000 C   0  0  0  0  0  0  0  0  0  0  0  0
  -35.3338  -26.9159   22.7750 C   0  0  0  0  0  0  0  0  0  0  0  0
  -28.6419  -27.3670   20.8645 C   0  0  0  0  0  0  0  0  0  0  0  0
  -27.1352  -27.8853   18.8723 C   0  0  0  0  0  0  0  0  0  0  0  0
  -24.0734  -12.0517   20.2500 C   0  0  0  0  0  0  0  0  0  0  0  0
  -24.4084  -18.6578   19.6014 C   0  0  0  0  0  0  0  0  0  0  0  0
  -23.9678  -13.3503   20.7838 C   0  0  0  0  0  0  0  0  0  0  0  0
  -24.9548  -19.4829   20.5948 C   0  0  0  0  0  0  0  0  0  0  0  0
  -20.3500  -26.8355   22.6181 C   0  0  0  0  0  0  0  0  0  0  0  0
  -19.1377  -26.1725   22.4268 C   0  0  0  0  0  0  0  0  0  0  0  0
  -18.0275  -28.2946   22.1087 C   0  0  0  0  0  0  0  0  0  0  0  0
  -20.4010  -28.2280   22.5547 C   0  0  0  0  0  0  0  0  0  0  0  0
  -30.8344  -26.1661   22.1028 C   0  0  0  0  0  0  0  0  0  0  0  0
  -22.7866  -20.5418   20.8905 C   0  0  0  0  0  0  0  0  0  0  0  0
  -32.9895  -26.3828   23.0143 C   0  0  0  0  0  0  0  0  0  0  0  0
  -35.1742  -28.0032   23.6340 C   0  0  0  0  0  0  0  0  0  0  0  0
  -34.2414  -26.1057   22.4652 C   0  0  0  0  0  0  0  0  0  0  0  0
  -27.5091  -27.9873   20.2257 C   0  0  0  0  0  0  0  0  0  0  0  0
  -25.9998  -28.6516   18.7711 C   0  0  0  0  0  0  0  0  0  0  0  0
  -19.9096  -22.5561   21.9376 C   0  0  0  0  0  0  0  0  0  0  0  0
  -19.7699  -23.8732   21.6506 C   0  0  0  0  0  0  0  0  0  0  0  0
  -19.3288  -22.0473   23.2254 C   0  0  0  0  0  0  0  0  0  0  0  0
  -27.7584  -27.1625   17.8023 C   0  0  0  0  0  0  0  0  0  0  0  0
  -26.1824  -16.3081   20.7997 C   0  0  0  0  0  0  0  0  0  0  0  0
  -28.6081  -18.3967   20.2744 C   0  0  0  0  0  0  0  0  0  0  0  0
  -29.6080  -21.6357   19.8795 C   0  0  0  0  0  0  0  0  0  0  0  0
  -21.8234  -30.3012   22.7134 C   0  0  0  0  0  0  0  0  0  0  0  0
  -25.3791  -11.2968   20.2522 C   0  0  0  0  0  0  0  0  0  0  0  0
  -25.2730  -17.6624   18.8775 C   0  0  0  0  0  0  0  0  0  0  0  0
  -26.4030  -19.3868   20.9974 C   0  0  0  0  0  0  0  0  0  0  0  0
  -18.7417  -23.0440   24.1953 C   0  0  0  0  0  0  0  0  0  0  0  0
  -26.5992  -12.1909   20.4574 C   0  0  0  0  0  0  0  0  0  0  0  0
  -23.8614  -32.4558   20.7433 C   0  0  0  0  0  0  0  0  0  0  0  0
  -26.3615  -13.1625   21.6091 C   0  0  0  0  0  0  0  0  0  0  0  0
  -24.9908  -31.5437   20.2588 C   0  0  0  0  0  0  0  0  0  0  0  0
  -18.1190  -24.2290   23.4782 C   0  0  0  0  0  0  0  0  0  0  0  0
  -23.4306  -32.1166   22.1692 C   0  0  0  0  0  0  0  0  0  0  0  0
  -24.2139  -29.7953   21.9101 C   0  0  0  0  0  0  0  0  0  0  0  0
  -25.1773  -14.0905   21.3125 C   0  0  1  0  0  0  0  0  0  0  0  0
  -26.5064  -17.2506   19.6752 C   0  0  1  0  0  0  0  0  0  0  0  0
  -24.6375  -30.0564   20.4554 C   0  0  2  0  0  0  0  0  0  0  0  0
  -21.5964  -26.0519   22.8915 C   0  0  0  0  0  0  0  0  0  0  0  0
  -20.2857  -24.4184   20.3329 C   0  0  0  0  0  0  0  0  0  0  0  0
  -31.1534  -23.5533   19.3979 C   0  0  0  0  0  0  0  0  0  0  0  0
  -29.3972  -18.0219   23.1979 C   0  0  0  0  0  0  0  0  0  0  0  0
  -30.7935  -20.0918   23.0139 C   0  0  0  0  0  0  0  0  0  0  0  0
  -31.3199  -18.1048   21.6007 C   0  0  0  0  0  0  0  0  0  0  0  0
  -29.0361  -21.5192   16.9781 C   0  0  0  0  0  0  0  0  0  0  0  0
  -20.6354  -21.5312   21.1127 C   0  0  0  0  0  0  0  0  0  1  0  0
  -29.2705  -19.4898   21.0777 C   0  0  1  0  0  0  0  0  0  0  0  0
  -30.5027  -22.2948   18.8453 C   0  0  2  0  0  0  0  0  0  0  0  0
  -30.1675  -18.9278   22.2166 C   0  0  0  0  0  0  0  0  0  0  0  0
  -26.6787  -28.7578   20.9334 N   0  0  0  0  0  0  0  0  0  0  0  0
  -25.7718  -29.1470   20.0212 N   0  0  0  0  0  0  0  0  0  0  0  0
  -19.0644  -24.7570   22.4883 N   0  0  0  0  0  0  0  0  0  0  0  0
  -27.2060  -18.3940   20.2647 N   0  0  0  0  0  0  0  0  0  0  0  0
  -23.1075  -30.6924   22.2788 N   0  0  0  0  0  0  0  0  0  0  0  0
  -16.8535  -29.0326   21.8516 N   0  0  0  0  0  0  0  0  0  0  0  0
  -25.1843  -28.9433   17.7356 N   0  0  0  0  0  0  0  0  0  0  0  0
  -27.3594  -25.8394   17.5685 N   0  0  0  0  0  0  0  0  0  0  0  0
  -21.6214  -28.9218   22.7469 N   0  0  0  0  0  0  0  0  0  0  0  0
  -25.5726  -15.1364   20.3936 N   0  0  0  0  0  0  0  0  0  0  0  0
  -29.9793  -20.3294   20.1180 N   0  0  0  0  0  0  0  0  0  0  0  0
  -29.7122  -22.6659   17.6377 N   0  3  0  0  0  0  0  0  0  0  0  0
  -19.3797  -20.8512   23.5112 O   0  0  0  0  0  0  0  0  0  0  0  0
  -28.6544  -27.6693   17.0856 O   0  0  0  0  0  0  0  0  0  0  0  0
  -26.4660  -16.6201   21.9503 O   0  0  0  0  0  0  0  0  0  0  0  0
  -29.3088  -17.5798   19.6717 O   0  0  0  0  0  0  0  0  0  0  0  0
  -28.6755  -22.2224   20.4244 O   0  0  0  0  0  0  0  0  0  0  0  0
  -20.9572  -31.1293   23.0063 O   0  0  0  0  0  0  0  0  0  0  0  0
  -31.9039  -25.5799   22.7070 O   0  0  0  0  0  0  0  0  0  0  0  0
  -22.0003  -21.4553   21.5222 O   0  0  0  0  0  0  0  0  0  1  0  0
  -36.2227  -28.7822   23.9305 F   0  0  0  0  0  0  0  0  0  0  0  0
  -34.4006  -25.0631   21.6384 F   0  0  0  0  0  0  0  0  0  0  0  0
  1  2  1  0  0  0  0
  1  5  2  0  0  0  0
  2  6  2  0  0  0  0
  3  8  2  0  0  0  0
  3 17  1  0  0  0  0
  4  9  1  0  0  0  0
  4 17  2  0  0  0  0
  5 19  1  0  0  0  0
  6 21  1  0  0  0  0
  7 10  2  0  0  0  0
  7 20  1  0  0  0  0
  8 27  1  0  0  0  0
  9 27  2  0  0  0  0
 10 28  1  0  0  0  0
 11 12  2  0  0  0  0
 11 29  1  0  0  0  0
 12 30  1  0  0  0  0
 13 22  1  0  0  0  0
 13 28  2  0  0  0  0
 14 24  1  0  0  0  0
 14 25  2  0  0  0  0
 15 25  1  0  0  0  0
 15 26  2  0  0  0  0
 16 30  2  0  0  0  0
 16 31  1  0  0  0  0
 17 32  1  0  0  0  0
 18 32  1  0  0  0  0
 18 33  2  0  0  0  0
 18 37  1  0  0  0  0
 19 21  2  0  0  0  0
 19 42  1  0  0  0  0
 20 22  2  0  0  0  0
 20 43  1  0  0  0  0
 21 53  1  0  0  0  0
 22 44  1  0  0  0  0
 23 24  2  0  0  0  0
 23 26  1  0  0  0  0
 23 56  1  0  0  0  0
 24 69  1  0  0  0  0
 25 72  1  0  0  0  0
 26 75  1  0  0  0  0
 27 85  1  0  0  0  0
 28 86  1  0  0  0  0
 29 31  2  0  0  0  0
 29 85  1  0  0  0  0
 30 87  1  0  0  0  0
 31 88  1  0  0  0  0
 32 67  2  0  0  0  0
 33 68  1  0  0  0  0
 33 73  1  0  0  0  0
 34 35  2  0  0  0  0
 34 36  1  0  0  0  0
 34 63  1  0  0  0  0
 35 57  1  0  0  0  0
 35 69  1  0  0  0  0
 36 45  1  0  0  0  0
 36 79  2  0  0  0  0
 37 74  1  0  0  0  0
 37 80  2  0  0  0  0
 38 54  1  0  0  0  0
 38 76  1  0  0  0  0
 38 81  2  0  0  0  0
 39 64  1  0  0  0  0
 39 70  1  0  0  0  0
 39 82  2  0  0  0  0
 40 65  1  0  0  0  0
 40 77  1  0  0  0  0
 40 83  2  0  0  0  0
 41 71  1  0  0  0  0
 41 75  1  0  0  0  0
 41 84  2  0  0  0  0
 42 46  1  0  0  0  0
 43 54  1  0  0  0  0
 44 70  1  0  0  0  0
 45 50  1  0  0  0  0
 46 48  1  0  0  0  0
 47 49  1  0  0  0  0
 47 51  1  0  0  0  0
 48 53  1  0  0  0  0
 49 55  1  0  0  0  0
 50 69  1  0  0  0  0
 51 71  1  0  0  0  0
 52 55  1  0  0  0  0
 52 71  1  0  0  0  0
 53 76  1  0  0  0  0
 54 70  1  0  0  0  0
 55 68  1  0  0  0  0
 58 65  1  0  0  0  0
 59 66  1  0  0  0  0
 60 66  1  0  0  0  0
 61 66  1  0  0  0  0
 62 78  1  0  0  0  0
 63 86  1  0  0  0  0
 64 66  1  0  0  0  0
 64 77  1  0  0  0  0
 65 78  1  0  0  0  0
 67 68  1  0  0  0  0
M  CHG  1  78   1
M  ISO  4  41 100  63 101  75 100  86 101
M  END
> <Batch ID>
0111

> <Smiles>
CNC(C)C(=O)NC(C(=O)N1Cc2cc([101O:1][101CH2:1]C3=C(C)N(c4cc(N)cc([100NH:0][100C:0](=O)N5CCCC(n6nc(-c7ccc(Oc8ccc(F)cc8F)cc7)c(C(N)=O)c6N)C5)c4C)CCC3=O)ccc2CC1C(=O)NC1CCCc2ccccc21)C(C)(C)C

> <Shape>
0.252

> <Color>
0.090

> <Negative vol penalty>
0.000

$$$$

  -OEChem-04052301283D

 83 91  0     1  0  0  0  0  0999 V2000
  -19.2998  -23.7087   23.8049 C   0  0  0  0  0  0  0  0  0  0  0  0
  -20.4935  -23.8093   23.0976 C   0  0  0  0  0  0  0  0  0  0  0  0
  -24.7663   -8.7814   21.2522 C   0  0  0  0  0  0  0  0  0  0  0  0
  -23.3150  -10.2336   19.9786 C   0  0  0  0  0  0  0  0  0  0  0  0
  -18.4943  -24.8341   23.9743 C   0  0  0  0  0  0  0  0  0  0  0  0
  -20.8818  -25.0352   22.5582 C   0  0  0  0  0  0  0  0  0  0  0  0
  -25.7718  -26.0597   23.3847 C   0  0  0  0  0  0  0  0  0  0  0  0
  -23.6800   -7.9598   21.5532 C   0  0  0  0  0  0  0  0  0  0  0  0
  -22.2287   -9.4119   20.2795 C   0  0  0  0  0  0  0  0  0  0  0  0
  -26.7036  -25.4152   22.5722 C   0  0  0  0  0  0  0  0  0  0  0  0
  -21.0671   -7.9718   23.6972 C   0  0  0  0  0  0  0  0  0  0  0  0
  -20.9293   -7.5381   25.0157 C   0  0  0  0  0  0  0  0  0  0  0  0
  -28.8109  -19.2118   18.4184 C   0  0  0  0  0  0  0  0  0  0  0  0
  -26.8959  -27.4061   21.2238 C   0  0  0  0  0  0  0  0  0  0  0  0
  -21.0846   -5.2430   24.2771 C   0  0  0  0  0  0  0  0  0  0  0  0
  -28.9943  -19.7825   16.1168 C   0  0  0  0  0  0  0  0  0  0  0  0
  -24.5837   -9.9184   20.4649 C   0  0  0  0  0  0  0  0  0  0  0  0
  -28.9180  -20.1921   17.4382 C   0  0  0  0  0  0  0  0  0  0  0  0
  -26.5704  -10.6630   19.0485 C   0  0  0  0  0  0  0  0  0  0  0  0
  -18.8776  -26.0764   23.4450 C   0  0  0  0  0  0  0  0  0  0  0  0
  -25.3863  -27.3809   23.1159 C   0  0  0  0  0  0  0  0  0  0  0  0
  -20.0800  -26.1779   22.7194 C   0  0  0  0  0  0  0  0  0  0  0  0
  -25.9610  -28.0660   22.0359 C   0  0  0  0  0  0  0  0  0  0  0  0
  -28.7838  -17.8706   18.0524 C   0  0  0  0  0  0  0  0  0  0  0  0
  -22.4113   -8.2750   21.0669 C   0  0  0  0  0  0  0  0  0  0  0  0
  -27.2636  -26.0874   21.4898 C   0  0  0  0  0  0  0  0  0  0  0  0
  -21.2136   -7.0411   22.6686 C   0  0  0  0  0  0  0  0  0  0  0  0
  -20.9381   -6.1738   25.3057 C   0  0  0  0  0  0  0  0  0  0  0  0
  -21.2224   -5.6768   22.9585 C   0  0  0  0  0  0  0  0  0  0  0  0
  -25.7053  -10.7678   20.1541 C   0  0  0  0  0  0  0  0  0  0  0  0
  -28.8659  -17.5649   16.7034 C   0  0  0  0  0  0  0  0  0  0  0  0
  -27.4609  -11.6962   19.2102 C   0  0  0  0  0  0  0  0  0  0  0  0
  -28.9494  -21.6219   17.7934 C   0  0  0  0  0  0  0  0  0  0  0  0
  -28.5097  -22.1277   18.9541 C   0  0  0  0  0  0  0  0  0  0  0  0
  -26.5691   -9.7165   17.9716 C   0  0  0  0  0  0  0  0  0  0  0  0
  -28.5772  -23.5954   19.2127 C   0  0  0  0  0  0  0  0  0  0  0  0
  -22.6489  -28.8094   22.3612 C   0  0  0  0  0  0  0  0  0  0  0  0
  -24.4212  -31.5080   22.6763 C   0  0  0  0  0  0  0  0  0  0  0  0
  -27.5036  -32.9719   22.6280 C   0  0  0  0  0  0  0  0  0  0  0  0
  -28.5840  -17.0154   20.4135 C   0  0  0  0  0  0  0  0  0  0  0  0
  -17.9509  -27.2544   23.6133 C   0  0  0  0  0  0  0  0  0  0  0  0
  -24.4000  -28.0709   24.0178 C   0  0  0  0  0  0  0  0  0  0  0  0
  -25.5960  -29.4920   21.7167 C   0  0  0  0  0  0  0  0  0  0  0  0
  -18.6171  -28.5986   23.3314 C   0  0  0  0  0  0  0  0  0  0  0  0
  -28.2648  -14.7652   23.1543 C   0  0  0  0  0  0  0  0  0  0  0  0
  -19.4237  -28.5340   22.0384 C   0  0  0  0  0  0  0  0  0  0  0  0
  -27.6416  -13.5160   22.5272 C   0  0  0  0  0  0  0  0  0  0  0  0
  -27.7154  -16.0471   22.5308 C   0  0  0  0  0  0  0  0  0  0  0  0
  -27.1776  -14.8620   20.4391 C   0  0  0  0  0  0  0  0  0  0  0  0
  -20.5475  -27.4956   22.1405 C   0  0  1  0  0  0  0  0  0  0  0  0
  -23.6965  -29.2461   23.3458 C   0  0  1  0  0  0  0  0  0  0  0  0
  -27.7476  -13.5446   20.9898 C   0  0  2  0  0  0  0  0  0  0  0  0
  -28.6306  -35.1995   22.8827 C   0  0  0  0  0  0  0  0  0  0  0  0
  -23.4907  -32.2959   19.8793 C   0  0  0  0  0  0  0  0  0  0  0  0
  -25.3407  -33.9815   19.8144 C   0  0  0  0  0  0  0  0  0  0  0  0
  -23.5400  -34.1740   21.5300 C   0  0  0  0  0  0  0  0  0  0  0  0
  -29.0669  -32.0441   24.9634 C   0  0  0  0  0  0  0  0  0  0  0  0
  -28.0504  -24.0452   20.5591 C   0  0  0  0  0  0  0  0  0  1  0  0
  -25.2703  -32.3437   21.7492 C   0  0  1  0  0  0  0  0  0  0  0  0
  -28.1778  -33.9323   23.5911 C   0  0  2  0  0  0  0  0  0  0  0  0
  -24.4161  -33.1713   20.7478 C   0  0  0  0  0  0  0  0  0  0  0  0
  -28.9709  -18.4895   15.7227 N   0  0  0  0  0  0  0  0  0  0  0  0
  -26.0181  -11.7870   20.9588 N   0  0  0  0  0  0  0  0  0  0  0  0
  -27.0897  -12.3320   20.3583 N   0  0  0  0  0  0  0  0  0  0  0  0
  -24.6224  -30.1214   22.6242 N   0  0  0  0  0  0  0  0  0  0  0  0
  -27.8533  -16.0047   21.0734 N   0  0  0  0  0  0  0  0  0  0  0  0
  -28.5174  -12.1136   18.4809 N   0  0  0  0  0  0  0  0  0  0  0  0
  -25.5838   -8.7198   17.9593 N   0  0  0  0  0  0  0  0  0  0  0  0
  -28.6748  -16.8523   19.0315 N   0  0  0  0  0  0  0  0  0  0  0  0
  -21.6542  -28.0227   22.9098 N   0  0  0  0  0  0  0  0  0  0  0  0
  -26.1364  -33.1489   22.6036 N   0  0  0  0  0  0  0  0  0  0  0  0
  -29.3701  -33.2901   24.2133 N   0  3  0  0  0  0  0  0  0  0  0  0
  -27.4265   -9.7435   17.0564 O   0  0  0  0  0  0  0  0  0  0  0  0
  -29.0306  -24.3831   18.3869 O   0  0  0  0  0  0  0  0  0  0  0  0
  -22.7358  -29.1615   21.1906 O   0  0  0  0  0  0  0  0  0  0  0  0
  -23.6143  -32.0654   23.4245 O   0  0  0  0  0  0  0  0  0  0  0  0
  -28.1278  -32.1497   21.9610 O   0  0  0  0  0  0  0  0  0  0  0  0
  -29.1148  -17.9415   21.0320 O   0  0  0  0  0  0  0  0  0  0  0  0
  -21.3512   -7.4733   21.3602 O   0  0  0  0  0  0  0  0  0  0  0  0
  -28.1728  -25.4604   20.6948 O   0  0  0  0  0  0  0  0  0  1  0  0
  -20.8072   -5.7575   26.5721 F   0  0  0  0  0  0  0  0  0  0  0  0
  -21.3640   -4.7780   21.9747 F   0  0  0  0  0  0  0  0  0  0  0  0
  -28.8411  -16.2766   16.3246 F   0  0  0  0  0  0  0  0  0  0  0  0
  1  2  1  0  0  0  0
  1  5  2  0  0  0  0
  2  6  2  0  0  0  0
  3  8  2  0  0  0  0
  3 17  1  0  0  0  0
  4  9  1  0  0  0  0
  4 17  2  0  0  0  0
  5 20  1  0  0  0  0
  6 22  1  0  0  0  0
  7 10  2  0  0  0  0
  7 21  1  0  0  0  0
  8 25  1  0  0  0  0
  9 25  2  0  0  0  0
 10 26  1  0  0  0  0
 11 12  2  0  0  0  0
 11 27  1  0  0  0  0
 12 28  1  0  0  0  0
 13 18  2  0  0  0  0
 13 24  1  0  0  0  0
 14 23  1  0  0  0  0
 14 26  2  0  0  0  0
 15 28  2  0  0  0  0
 15 29  1  0  0  0  0
 16 18  1  0  0  0  0
 16 62  2  0  0  0  0
 17 30  1  0  0  0  0
 18 33  1  0  0  0  0
 19 30  1  0  0  0  0
 19 32  2  0  0  0  0
 19 35  1  0  0  0  0
 20 22  2  0  0  0  0
 20 41  1  0  0  0  0
 21 23  2  0  0  0  0
 21 42  1  0  0  0  0
 22 50  1  0  0  0  0
 23 43  1  0  0  0  0
 24 31  2  0  0  0  0
 24 69  1  0  0  0  0
 25 79  1  0  0  0  0
 26 80  1  0  0  0  0
 27 29  2  0  0  0  0
 27 79  1  0  0  0  0
 28 81  1  0  0  0  0
 29 82  1  0  0  0  0
 30 63  2  0  0  0  0
 31 62  1  0  0  0  0
 31 83  1  0  0  0  0
 32 64  1  0  0  0  0
 32 67  1  0  0  0  0
 33 34  2  0  0  0  0
 34 36  1  0  0  0  0
 35 68  1  0  0  0  0
 35 73  2  0  0  0  0
 36 58  1  0  0  0  0
 36 74  2  0  0  0  0
 37 51  1  0  0  0  0
 37 70  1  0  0  0  0
 37 75  2  0  0  0  0
 38 59  1  0  0  0  0
 38 65  1  0  0  0  0
 38 76  2  0  0  0  0
 39 60  1  0  0  0  0
 39 71  1  0  0  0  0
 39 77  2  0  0  0  0
 40 66  1  0  0  0  0
 40 69  1  0  0  0  0
 40 78  2  0  0  0  0
 41 44  1  0  0  0  0
 42 51  1  0  0  0  0
 43 65  1  0  0  0  0
 44 46  1  0  0  0  0
 45 47  1  0  0  0  0
 45 48  1  0  0  0  0
 46 50  1  0  0  0  0
 47 52  1  0  0  0  0
 48 66  1  0  0  0  0
 49 52  1  0  0  0  0
 49 66  1  0  0  0  0
 50 70  1  0  0  0  0
 51 65  1  0  0  0  0
 52 64  1  0  0  0  0
 53 60  1  0  0  0  0
 54 61  1  0  0  0  0
 55 61  1  0  0  0  0
 56 61  1  0  0  0  0
 57 72  1  0  0  0  0
 58 80  1  0  0  0  0
 59 61  1  0  0  0  0
 59 71  1  0  0  0  0
 60 72  1  0  0  0  0
 63 64  1  0  0  0  0
M  CHG  1  72   1
M  ISO  4  40 100  58 101  69 100  80 101
M  END
> <Batch ID>
0111

> <Smiles>
CNC(C)C(=O)NC(C(=O)N1Cc2cc([101O:1][101CH2:1]C(=O)C=Cc3cnc(F)c([100NH:0][100C:0](=O)N4CCCC(n5nc(-c6ccc(Oc7ccc(F)cc7F)cc6)c(C(N)=O)c5N)C4)c3)ccc2CC1C(=O)NC1CCCc2ccccc21)C(C)(C)C

> <Shape>
0.274

> <Color>
0.088

> <Negative vol penalty>
0.000

$$$$

  -OEChem-04052301283D

 87 95  0     1  0  0  0  0  0999 V2000
  -28.0983  -24.2663   17.3885 C   0  0  0  0  0  0  0  0  0  0  0  0
  -26.9001  -24.5382   18.0411 C   0  0  0  0  0  0  0  0  0  0  0  0
  -25.7543  -16.4061   19.6010 C   0  0  0  0  0  0  0  0  0  0  0  0
  -23.8626  -15.0981   20.3410 C   0  0  0  0  0  0  0  0  0  0  0  0
  -29.2942  -24.7831   17.8852 C   0  0  0  0  0  0  0  0  0  0  0  0
  -26.8973  -25.3262   19.1915 C   0  0  0  0  0  0  0  0  0  0  0  0
  -23.1994  -28.7859   19.1673 C   0  0  0  0  0  0  0  0  0  0  0  0
  -26.3840  -15.2438   19.1560 C   0  0  0  0  0  0  0  0  0  0  0  0
  -24.4923  -13.9357   19.8959 C   0  0  0  0  0  0  0  0  0  0  0  0
  -21.9130  -28.3451   19.4748 C   0  0  0  0  0  0  0  0  0  0  0  0
  -28.1177  -12.6767   20.5083 C   0  0  0  0  0  0  0  0  0  0  0  0
  -29.4676  -12.5123   20.8186 C   0  0  0  0  0  0  0  0  0  0  0  0
  -20.4729  -22.9398   23.9138 C   0  0  0  0  0  0  0  0  0  0  0  0
  -18.3721  -21.9019   23.3255 C   0  0  0  0  0  0  0  0  0  0  0  0
  -22.1721  -29.1771   21.7242 C   0  0  0  0  0  0  0  0  0  0  0  0
  -29.9972  -12.4151   18.4633 C   0  0  0  0  0  0  0  0  0  0  0  0
  -24.4937  -16.3333   20.1936 C   0  0  0  0  0  0  0  0  0  0  0  0
  -19.5343  -21.9243   24.0964 C   0  0  0  0  0  0  0  0  0  0  0  0
  -22.9788  -18.3674   19.9194 C   0  0  0  0  0  0  0  0  0  0  0  0
  -29.3048  -25.5858   19.0368 C   0  0  0  0  0  0  0  0  0  0  0  0
  -23.9872  -29.4170   20.1407 C   0  0  0  0  0  0  0  0  0  0  0  0
  -28.0946  -25.8531   19.7048 C   0  0  0  0  0  0  0  0  0  0  0  0
  -23.4672  -29.6273   21.4258 C   0  0  0  0  0  0  0  0  0  0  0  0
  -20.2493  -23.9330   22.9603 C   0  0  0  0  0  0  0  0  0  0  0  0
  -25.7530  -14.0086   19.3034 C   0  0  0  0  0  0  0  0  0  0  0  0
  -21.4002  -28.5380   20.7542 C   0  0  0  0  0  0  0  0  0  0  0  0
  -27.7075  -12.7102   19.1755 C   0  0  0  0  0  0  0  0  0  0  0  0
  -18.1484  -22.8952   22.3719 C   0  0  0  0  0  0  0  0  0  0  0  0
  -19.0870  -23.9107   22.1894 C   0  0  0  0  0  0  0  0  0  0  0  0
  -30.4074  -12.3816   19.7962 C   0  0  0  0  0  0  0  0  0  0  0  0
  -28.6472  -12.5794   18.1530 C   0  0  0  0  0  0  0  0  0  0  0  0
  -23.8429  -17.5335   20.6540 C   0  0  0  0  0  0  0  0  0  0  0  0
  -22.6329  -19.3637   20.7992 C   0  0  0  0  0  0  0  0  0  0  0  0
  -19.7672  -20.8888   25.0908 C   0  0  0  0  0  0  0  0  0  0  0  0
  -22.5289  -18.2516   18.5630 C   0  0  0  0  0  0  0  0  0  0  0  0
  -20.9902  -20.8830   25.9260 C   0  0  0  0  0  0  0  0  0  0  0  0
  -26.7657  -28.7702   21.5426 C   0  0  0  0  0  0  0  0  0  0  0  0
  -26.3415  -31.7053   22.8570 C   0  0  0  0  0  0  0  0  0  0  0  0
  -24.1828  -34.1831   23.7775 C   0  0  0  0  0  0  0  0  0  0  0  0
  -30.6280  -26.0829   19.5629 C   0  0  0  0  0  0  0  0  0  0  0  0
  -25.3629  -29.9106   19.7854 C   0  0  0  0  0  0  0  0  0  0  0  0
  -24.2649  -30.3175   22.5008 C   0  0  0  0  0  0  0  0  0  0  0  0
  -30.4935  -27.2186   20.5741 C   0  0  0  0  0  0  0  0  0  0  0  0
  -24.5118  -20.5710   25.3283 C   0  0  0  0  0  0  0  0  0  0  0  0
  -29.4195  -26.8899   21.6063 C   0  0  0  0  0  0  0  0  0  0  0  0
  -24.5795  -19.7871   24.0181 C   0  0  0  0  0  0  0  0  0  0  0  0
  -23.3235  -20.1348   26.1792 C   0  0  0  0  0  0  0  0  0  0  0  0
  -22.0728  -19.4359   24.1554 C   0  0  0  0  0  0  0  0  0  0  0  0
  -28.0476  -26.7242   20.9414 C   0  0  1  0  0  0  0  0  0  0  0  0
  -26.2690  -30.0808   21.0009 C   0  0  1  0  0  0  0  0  0  0  0  0
  -23.2445  -19.8681   23.2566 C   0  0  2  0  0  0  0  0  0  0  0  0
  -24.1276  -36.4452   24.8625 C   0  0  0  0  0  0  0  0  0  0  0  0
  -26.7425  -30.4030   25.5870 C   0  0  0  0  0  0  0  0  0  0  0  0
  -25.7537  -32.4520   26.6321 C   0  0  0  0  0  0  0  0  0  0  0  0
  -27.8650  -32.6211   25.3143 C   0  0  0  0  0  0  0  0  0  0  0  0
  -23.0483  -35.4463   21.3534 C   0  0  0  0  0  0  0  0  0  0  0  0
  -17.0608  -22.1396   20.3966 C   0  0  0  0  0  0  0  0  0  0  0  0
  -21.2656  -25.0121   22.7792 C   0  0  0  0  0  0  0  0  0  0  0  0
  -18.0475  -27.0350   20.5373 C   0  0  0  0  0  0  0  0  0  0  0  0
  -19.4091  -27.4672   20.0161 C   0  0  0  0  0  0  0  0  0  1  0  0
  -18.1660  -26.0445   21.6851 C   0  0  0  0  0  0  0  0  0  0  0  0
  -25.6782  -32.2313   24.1069 C   0  0  1  0  0  0  0  0  0  0  0  0
  -24.2151  -35.6835   23.5491 C   0  0  2  0  0  0  0  0  0  0  0  0
  -26.4953  -31.9121   25.3906 C   0  0  0  0  0  0  0  0  0  0  0  0
  -24.0344  -17.9629   21.9042 N   0  0  0  0  0  0  0  0  0  0  0  0
  -18.9319  -19.9109   25.3162 N   0  0  0  0  0  0  0  0  0  0  0  0
  -22.0879  -24.8042   21.5816 N   0  0  0  0  0  0  0  0  0  0  0  0
  -23.2857  -19.0775   21.9619 N   0  0  0  0  0  0  0  0  0  0  0  0
  -22.0784  -20.1891   25.4158 N   0  0  0  0  0  0  0  0  0  0  0  0
  -25.6070  -30.7764   22.1064 N   0  0  0  0  0  0  0  0  0  0  0  0
  -21.8371  -20.4481   20.6839 N   0  0  0  0  0  0  0  0  0  0  0  0
  -22.9811  -17.1669   17.7993 N   0  0  0  0  0  0  0  0  0  0  0  0
  -27.4781  -28.0174   20.6287 N   0  0  0  0  0  0  0  0  0  0  0  0
  -25.4522  -33.6547   23.8810 N   0  0  0  0  0  0  0  0  0  0  0  0
  -23.0736  -36.1009   22.6868 N   0  3  0  0  0  0  0  0  0  0  0  0
  -21.7618  -19.0942   18.0384 O   0  0  0  0  0  0  0  0  0  0  0  0
  -20.9094  -21.4942   26.9835 O   0  0  0  0  0  0  0  0  0  0  0  0
  -26.5220  -28.4653   22.7042 O   0  0  0  0  0  0  0  0  0  0  0  0
  -27.4669  -32.1094   22.5538 O   0  0  0  0  0  0  0  0  0  0  0  0
  -23.1360  -33.5442   23.8598 O   0  0  0  0  0  0  0  0  0  0  0  0
  -23.2888  -24.6382   21.8475 O   0  0  0  0  0  0  0  0  0  0  0  0
  -26.3670  -12.8742   18.8690 O   0  0  0  0  0  0  0  0  0  0  0  0
  -17.0091  -22.8614   21.6255 O   0  0  0  0  0  0  0  0  0  0  0  0
  -20.1451  -28.1081   21.0572 O   0  0  0  0  0  0  0  0  0  1  0  0
  -18.8631  -24.8845   21.2512 O   0  0  0  0  0  0  0  0  0  0  0  0
  -31.7038  -12.2253   20.0943 F   0  0  0  0  0  0  0  0  0  0  0  0
  -28.2593  -12.6120   16.8707 F   0  0  0  0  0  0  0  0  0  0  0  0
  1  2  1  0  0  0  0
  1  5  2  0  0  0  0
  2  6  2  0  0  0  0
  3  8  2  0  0  0  0
  3 17  1  0  0  0  0
  4  9  1  0  0  0  0
  4 17  2  0  0  0  0
  5 20  1  0  0  0  0
  6 22  1  0  0  0  0
  7 10  2  0  0  0  0
  7 21  1  0  0  0  0
  8 25  1  0  0  0  0
  9 25  2  0  0  0  0
 10 26  1  0  0  0  0
 11 12  2  0  0  0  0
 11 27  1  0  0  0  0
 12 30  1  0  0  0  0
 13 18  1  0  0  0  0
 13 24  2  0  0  0  0
 14 18  2  0  0  0  0
 14 28  1  0  0  0  0
 15 23  1  0  0  0  0
 15 26  2  0  0  0  0
 16 30  2  0  0  0  0
 16 31  1  0  0  0  0
 17 32  1  0  0  0  0
 18 34  1  0  0  0  0
 19 32  1  0  0  0  0
 19 33  2  0  0  0  0
 19 35  1  0  0  0  0
 20 22  2  0  0  0  0
 20 40  1  0  0  0  0
 21 23  2  0  0  0  0
 21 41  1  0  0  0  0
 22 49  1  0  0  0  0
 23 42  1  0  0  0  0
 24 29  1  0  0  0  0
 24 58  1  0  0  0  0
 25 82  1  0  0  0  0
 26 84  1  0  0  0  0
 27 31  2  0  0  0  0
 27 82  1  0  0  0  0
 28 29  2  0  0  0  0
 28 83  1  0  0  0  0
 29 85  1  0  0  0  0
 30 86  1  0  0  0  0
 31 87  1  0  0  0  0
 32 65  2  0  0  0  0
 33 68  1  0  0  0  0
 33 71  1  0  0  0  0
 34 36  1  0  0  0  0
 34 66  2  0  0  0  0
 35 72  1  0  0  0  0
 35 76  2  0  0  0  0
 36 69  1  0  0  0  0
 36 77  2  0  0  0  0
 37 50  1  0  0  0  0
 37 73  1  0  0  0  0
 37 78  2  0  0  0  0
 38 62  1  0  0  0  0
 38 70  1  0  0  0  0
 38 79  2  0  0  0  0
 39 63  1  0  0  0  0
 39 74  1  0  0  0  0
 39 80  2  0  0  0  0
 40 43  1  0  0  0  0
 41 50  1  0  0  0  0
 42 70  1  0  0  0  0
 43 45  1  0  0  0  0
 44 46  1  0  0  0  0
 44 47  1  0  0  0  0
 45 49  1  0  0  0  0
 46 51  1  0  0  0  0
 47 69  1  0  0  0  0
 48 51  1  0  0  0  0
 48 69  1  0  0  0  0
 49 73  1  0  0  0  0
 50 70  1  0  0  0  0
 51 68  1  0  0  0  0
 52 63  1  0  0  0  0
 53 64  1  0  0  0  0
 54 64  1  0  0  0  0
 55 64  1  0  0  0  0
 56 75  1  0  0  0  0
 57 83  1  0  0  0  0
 58 67  1  0  0  0  0
 59 60  1  0  0  0  0
 59 61  1  0  0  0  0
 60 84  1  0  0  0  0
 61 85  1  0  0  0  0
 62 64  1  0  0  0  0
 62 74  1  0  0  0  0
 63 75  1  0  0  0  0
 65 68  1  0  0  0  0
 67 81  2  0  0  0  0
M  CHG  1  75   1
M  ISO  4  34 100  36 100  60 101  84 101
M  END
> <Batch ID>
0111

> <Smiles>
CNC(C)C(=O)NC(C(=O)N1Cc2cc([101O:1][101CH2:1]CCOc3c(C=NO)cc([100C:0](=N)[100C:0](=O)N4CCCC(n5nc(-c6ccc(Oc7ccc(F)cc7F)cc6)c(C(N)=O)c5N)C4)cc3OC)ccc2CC1C(=O)NC1CCCc2ccccc21)C(C)(C)C

> <Shape>
0.269

> <Color>
0.068

> <Negative vol penalty>
0.000

$$$$

  -OEChem-04052301283D

 88 96  0     1  0  0  0  0  0999 V2000
  -17.4966  -12.2782   23.0708 C   0  0  0  0  0  0  0  0  0  0  0  0
  -17.9147  -13.4380   22.4264 C   0  0  0  0  0  0  0  0  0  0  0  0
  -24.4267  -28.4436   22.0356 C   0  0  0  0  0  0  0  0  0  0  0  0
  -25.6228  -30.1129   20.7629 C   0  0  0  0  0  0  0  0  0  0  0  0
  -18.4143  -11.5102   23.7863 C   0  0  0  0  0  0  0  0  0  0  0  0
  -19.2506  -13.8312   22.4980 C   0  0  0  0  0  0  0  0  0  0  0  0
  -22.5052  -16.6255   18.1271 C   0  0  0  0  0  0  0  0  0  0  0  0
  -23.8487  -29.4487   22.8109 C   0  0  0  0  0  0  0  0  0  0  0  0
  -25.0447  -31.1181   21.5382 C   0  0  0  0  0  0  0  0  0  0  0  0
  -22.8400  -17.9625   17.9169 C   0  0  0  0  0  0  0  0  0  0  0  0
  -24.1628  -34.1033   23.4146 C   0  0  0  0  0  0  0  0  0  0  0  0
  -24.9929  -35.1253   23.8749 C   0  0  0  0  0  0  0  0  0  0  0  0
  -24.9602  -17.5967   19.0079 C   0  0  0  0  0  0  0  0  0  0  0  0
  -27.8301  -23.0277   21.9458 C   0  0  0  0  0  0  0  0  0  0  0  0
  -28.7298  -22.2864   19.8296 C   0  0  0  0  0  0  0  0  0  0  0  0
  -26.3342  -33.5022   25.0596 C   0  0  0  0  0  0  0  0  0  0  0  0
  -25.3138  -28.7757   21.0116 C   0  0  0  0  0  0  0  0  0  0  0  0
  -25.2448  -26.7924   19.4086 C   0  0  0  0  0  0  0  0  0  0  0  0
  -19.7641  -11.8889   23.8587 C   0  0  0  0  0  0  0  0  0  0  0  0
  -23.3923  -15.7653   18.7900 C   0  0  0  0  0  0  0  0  0  0  0  0
  -20.1870  -13.0683   23.2163 C   0  0  0  0  0  0  0  0  0  0  0  0
  -24.6353  -16.2486   19.2230 C   0  0  0  0  0  0  0  0  0  0  0  0
  -29.0518  -23.6251   22.2560 C   0  0  0  0  0  0  0  0  0  0  0  0
  -27.6691  -22.3583   20.7327 C   0  0  0  0  0  0  0  0  0  0  0  0
  -30.1125  -23.5533   21.3529 C   0  0  0  0  0  0  0  0  0  0  0  0
  -24.1577  -30.7860   22.5622 C   0  0  0  0  0  0  0  0  0  0  0  0
  -24.0665  -18.4490   18.3599 C   0  0  0  0  0  0  0  0  0  0  0  0
  -24.4183  -32.7807   23.7769 C   0  0  0  0  0  0  0  0  0  0  0  0
  -26.0787  -34.8248   24.6974 C   0  0  0  0  0  0  0  0  0  0  0  0
  -25.5040  -32.4802   24.5993 C   0  0  0  0  0  0  0  0  0  0  0  0
  -29.9515  -22.8839   20.1397 C   0  0  0  0  0  0  0  0  0  0  0  0
  -25.9117  -27.7377   20.2107 C   0  0  0  0  0  0  0  0  0  0  0  0
  -26.2517  -26.0366   18.8596 C   0  0  0  0  0  0  0  0  0  0  0  0
  -23.8407  -26.6134   19.1803 C   0  0  0  0  0  0  0  0  0  0  0  0
  -23.2894  -14.0764   21.4809 C   0  0  0  0  0  0  0  0  0  0  0  0
  -26.1350  -12.9390   20.4172 C   0  0  0  0  0  0  0  0  0  0  0  0
  -28.9011  -13.4128   18.4753 C   0  0  0  0  0  0  0  0  0  0  0  0
  -26.0990  -21.0424   19.2691 C   0  0  0  0  0  0  0  0  0  0  0  0
  -31.9561  -25.1968   20.9158 C   0  0  0  0  0  0  0  0  0  0  0  0
  -20.7097  -11.0520   24.6834 C   0  0  0  0  0  0  0  0  0  0  0  0
  -23.0273  -14.3193   18.9852 C   0  0  0  0  0  0  0  0  0  0  0  0
  -25.6315  -15.3612   19.9219 C   0  0  0  0  0  0  0  0  0  0  0  0
  -22.1820  -11.3370   24.3983 C   0  0  0  0  0  0  0  0  0  0  0  0
  -30.8434  -26.2576   17.5499 C   0  0  0  0  0  0  0  0  0  0  0  0
  -22.4385  -12.8404   24.3671 C   0  0  0  0  0  0  0  0  0  0  0  0
  -29.4219  -26.7557   17.8038 C   0  0  0  0  0  0  0  0  0  0  0  0
  -31.7303  -26.4246   18.7800 C   0  0  0  0  0  0  0  0  0  0  0  0
  -29.7499  -26.2769   20.2624 C   0  0  0  0  0  0  0  0  0  0  0  0
  -21.6326  -13.5144   23.2501 C   0  0  1  0  0  0  0  0  0  0  0  0
  -23.7924  -13.6589   20.1279 C   0  0  1  0  0  0  0  0  0  0  0  0
  -28.8258  -26.0822   19.0510 C   0  0  1  0  0  0  0  0  0  0  0  0
  -29.0792  -24.1228   26.0844 C   0  0  0  0  0  0  0  0  0  0  0  0
  -32.9464  -22.3455   22.1764 C   0  0  0  0  0  0  0  0  0  0  0  0
  -31.0743  -12.8667   17.3455 C   0  0  0  0  0  0  0  0  0  0  0  0
  -23.6665  -21.7002   19.3677 C   0  0  0  0  0  0  0  0  0  0  0  0
  -27.3198  -13.7376   23.1131 C   0  0  0  0  0  0  0  0  0  0  0  0
  -29.5979  -13.5234   22.0969 C   0  0  0  0  0  0  0  0  0  0  0  0
  -28.1059  -11.5295   22.2411 C   0  0  0  0  0  0  0  0  0  0  0  0
  -27.5224  -12.2530   16.1273 C   0  0  0  0  0  0  0  0  0  0  0  0
  -29.1915  -24.3346   23.5641 C   0  0  0  0  0  0  0  0  0  0  0  0
  -28.9040  -23.4082   24.7538 C   0  0  0  0  0  0  0  0  0  0  0  0
  -32.1933  -23.5441   22.7170 C   0  0  0  0  0  0  0  0  0  0  0  0
  -27.5779  -13.3545   20.5729 C   0  0  1  0  0  0  0  0  0  0  0  0
  -29.6043  -12.5026   17.4846 C   0  0  2  0  0  0  0  0  0  0  0  0
  -24.6562  -20.5458   19.3146 C   0  0  1  0  0  0  0  0  0  1  0  0
  -28.1310  -13.0537   21.9946 C   0  0  0  0  0  0  0  0  0  0  0  0
  -27.2395  -27.5973   20.1772 N   0  0  0  0  0  0  0  0  0  0  0  0
  -27.4152  -26.5549   19.3474 N   0  0  0  0  0  0  0  0  0  0  0  0
  -25.2258  -13.9565   20.0948 N   0  0  0  0  0  0  0  0  0  0  0  0
  -31.1224  -25.8312   19.9721 N   0  0  0  0  0  0  0  0  0  0  0  0
  -26.2465  -24.9860   18.0120 N   0  0  0  0  0  0  0  0  0  0  0  0
  -23.1290  -25.7576   20.0319 N   0  0  0  0  0  0  0  0  0  0  0  0
  -26.4298  -21.7511   20.4194 N   0  0  0  0  0  0  0  0  0  0  0  0
  -22.2622  -13.2899   21.9665 N   0  0  0  0  0  0  0  0  0  0  0  0
  -28.3104  -12.6978   19.4956 N   0  0  0  0  0  0  0  0  0  0  0  0
  -31.3706  -24.1748   21.6871 N   0  0  0  0  0  0  0  0  0  0  0  0
  -28.9654  -12.6061   16.1422 N   0  3  0  0  0  0  0  0  0  0  0  0
  -23.2384  -27.1824   18.2384 O   0  0  0  0  0  0  0  0  0  0  0  0
  -23.7967  -15.0398   22.0432 O   0  0  0  0  0  0  0  0  0  0  0  0
  -25.8270  -11.7542   20.5686 O   0  0  0  0  0  0  0  0  0  0  0  0
  -28.8812  -14.6361   18.3579 O   0  0  0  0  0  0  0  0  0  0  0  0
  -26.8269  -20.7961   18.3116 O   0  0  0  0  0  0  0  0  0  0  0  0
  -33.1267  -25.5531   21.0990 O   0  0  0  0  0  0  0  0  0  0  0  0
  -23.5936  -31.7671   23.3184 O   0  0  0  0  0  0  0  0  0  0  0  0
  -24.3956  -19.7537   18.1566 O   0  0  0  0  0  0  0  0  0  1  0  0
  -26.8767  -35.8062   25.1381 F   0  0  0  0  0  0  0  0  0  0  0  0
  -25.7552  -31.2114   24.9498 F   0  0  0  0  0  0  0  0  0  0  0  0
  -31.2377  -22.7679   18.9912 Cl  0  0  0  0  0  0  0  0  0  0  0  0
  1  2  1  0  0  0  0
  1  5  2  0  0  0  0
  2  6  2  0  0  0  0
  3  8  2  0  0  0  0
  3 17  1  0  0  0  0
  4  9  1  0  0  0  0
  4 17  2  0  0  0  0
  5 19  1  0  0  0  0
  6 21  1  0  0  0  0
  7 10  2  0  0  0  0
  7 20  1  0  0  0  0
  8 26  1  0  0  0  0
  9 26  2  0  0  0  0
 10 27  1  0  0  0  0
 11 12  2  0  0  0  0
 11 28  1  0  0  0  0
 12 29  1  0  0  0  0
 13 22  1  0  0  0  0
 13 27  2  0  0  0  0
 14 23  1  0  0  0  0
 14 24  2  0  0  0  0
 15 24  1  0  0  0  0
 15 31  2  0  0  0  0
 16 29  2  0  0  0  0
 16 30  1  0  0  0  0
 17 32  1  0  0  0  0
 18 32  1  0  0  0  0
 18 33  2  0  0  0  0
 18 34  1  0  0  0  0
 19 21  2  0  0  0  0
 19 40  1  0  0  0  0
 20 22  2  0  0  0  0
 20 41  1  0  0  0  0
 21 49  1  0  0  0  0
 22 42  1  0  0  0  0
 23 25  2  0  0  0  0
 23 60  1  0  0  0  0
 24 73  1  0  0  0  0
 25 31  1  0  0  0  0
 25 76  1  0  0  0  0
 26 84  1  0  0  0  0
 27 85  1  0  0  0  0
 28 30  2  0  0  0  0
 28 84  1  0  0  0  0
 29 86  1  0  0  0  0
 30 87  1  0  0  0  0
 31 88  1  0  0  0  0
 32 67  2  0  0  0  0
 33 68  1  0  0  0  0
 33 71  1  0  0  0  0
 34 72  1  0  0  0  0
 34 78  2  0  0  0  0
 35 50  1  0  0  0  0
 35 74  1  0  0  0  0
 35 79  2  0  0  0  0
 36 63  1  0  0  0  0
 36 69  1  0  0  0  0
 36 80  2  0  0  0  0
 37 64  1  0  0  0  0
 37 75  1  0  0  0  0
 37 81  2  0  0  0  0
 38 65  1  0  0  0  0
 38 73  1  0  0  0  0
 38 82  2  0  0  0  0
 39 70  1  0  0  0  0
 39 76  1  0  0  0  0
 39 83  2  0  0  0  0
 40 43  1  0  0  0  0
 41 50  1  0  0  0  0
 42 69  1  0  0  0  0
 43 45  1  0  0  0  0
 44 46  1  0  0  0  0
 44 47  1  0  0  0  0
 45 49  1  0  0  0  0
 46 51  1  0  0  0  0
 47 70  1  0  0  0  0
 48 51  1  0  0  0  0
 48 70  1  0  0  0  0
 49 74  1  0  0  0  0
 50 69  1  0  0  0  0
 51 68  1  0  0  0  0
 52 61  1  0  0  0  0
 53 62  1  0  0  0  0
 54 64  1  0  0  0  0
 55 65  1  0  0  0  0
 56 66  1  0  0  0  0
 57 66  1  0  0  0  0
 58 66  1  0  0  0  0
 59 77  1  0  0  0  0
 60 61  1  0  0  0  0
 62 76  1  0  0  0  0
 63 66  1  0  0  0  0
 63 75  1  0  0  0  0
 64 77  1  0  0  0  0
 65 85  1  0  0  0  0
 67 68  1  0  0  0  0
M  CHG  1  77   1
M  ISO  4  39 100  65 101  76 100  85 101
M  END
> <Batch ID>
0111

> <Smiles>
CCCc1cc(NC(=O)[101CH:1](C)[101O:1]c2ccc3c(c2)CN(C(=O)C(NC(=O)C(C)NC)C(C)(C)C)C(C(=O)NC2CCCc4ccccc42)C3)cc(Cl)c1[100N:0](CC)[100C:0](=O)N1CCCC(n2nc(-c3ccc(Oc4ccc(F)cc4F)cc3)c(C(N)=O)c2N)C1

> <Shape>
0.262

> <Color>
0.060

> <Negative vol penalty>
0.000

$$$$

  -OEChem-04052301283D

 84 93  0     1  0  0  0  0  0999 V2000
  -28.9411  -36.1636   20.5575 C   0  0  0  0  0  0  0  0  0  0  0  0
  -29.0939  -34.7873   20.6911 C   0  0  0  0  0  0  0  0  0  0  0  0
  -26.2413  -11.6052   21.0586 C   0  0  0  0  0  0  0  0  0  0  0  0
  -25.6236  -13.7047   20.0351 C   0  0  0  0  0  0  0  0  0  0  0  0
  -27.8717  -36.8085   21.1775 C   0  0  0  0  0  0  0  0  0  0  0  0
  -28.1781  -34.0553   21.4458 C   0  0  0  0  0  0  0  0  0  0  0  0
  -26.7395  -29.7806   19.1431 C   0  0  0  0  0  0  0  0  0  0  0  0
  -24.9263  -11.4277   21.4883 C   0  0  0  0  0  0  0  0  0  0  0  0
  -24.3085  -13.5272   20.4648 C   0  0  0  0  0  0  0  0  0  0  0  0
  -27.6250  -28.7046   19.1872 C   0  0  0  0  0  0  0  0  0  0  0  0
  -21.9838  -10.4280   20.1559 C   0  0  0  0  0  0  0  0  0  0  0  0
  -21.4084   -9.1697   19.9797 C   0  0  0  0  0  0  0  0  0  0  0  0
  -26.3433  -27.7313   20.9842 C   0  0  0  0  0  0  0  0  0  0  0  0
  -30.4842  -21.5190   20.1911 C   0  0  0  0  0  0  0  0  0  0  0  0
  -21.0769   -8.9871   22.3659 C   0  0  0  0  0  0  0  0  0  0  0  0
  -32.2207  -20.2339   21.8982 C   0  0  0  0  0  0  0  0  0  0  0  0
  -26.5901  -12.7437   20.3320 C   0  0  0  0  0  0  0  0  0  0  0  0
  -28.5105  -12.4998   18.6707 C   0  0  0  0  0  0  0  0  0  0  0  0
  -26.9368  -36.0826   21.9322 C   0  0  0  0  0  0  0  0  0  0  0  0
  -25.6537  -29.8455   20.0280 C   0  0  0  0  0  0  0  0  0  0  0  0
  -27.0959  -34.6912   22.0777 C   0  0  0  0  0  0  0  0  0  0  0  0
  -25.4441  -28.8079   20.9476 C   0  0  0  0  0  0  0  0  0  0  0  0
  -30.6519  -20.1409   20.0949 C   0  0  0  0  0  0  0  0  0  0  0  0
  -31.5285  -19.4872   20.9555 C   0  0  0  0  0  0  0  0  0  0  0  0
  -23.9599  -12.3887   21.1914 C   0  0  0  0  0  0  0  0  0  0  0  0
  -27.4286  -27.6811   20.1097 C   0  0  0  0  0  0  0  0  0  0  0  0
  -22.1057  -10.9660   21.4372 C   0  0  0  0  0  0  0  0  0  0  0  0
  -20.9550   -8.4492   21.0847 C   0  0  0  0  0  0  0  0  0  0  0  0
  -21.6523  -10.2455   22.5421 C   0  0  0  0  0  0  0  0  0  0  0  0
  -27.9485  -12.9279   19.8883 C   0  0  0  0  0  0  0  0  0  0  0  0
  -29.8183  -12.9151   18.7313 C   0  0  0  0  0  0  0  0  0  0  0  0
  -31.2027  -22.2143   21.1533 C   0  0  0  0  0  0  0  0  0  0  0  0
  -30.2905  -25.7550   21.1021 C   0  0  0  0  0  0  0  0  0  0  0  0
  -29.3787  -26.7253   20.9783 C   0  0  0  0  0  0  0  0  0  1  0  0
  -27.9045  -11.7903   17.5820 C   0  0  0  0  0  0  0  0  0  0  0  0
  -24.7470  -31.8495   22.3227 C   0  0  0  0  0  0  0  0  0  0  0  0
  -22.0920  -29.9862   22.3630 C   0  0  0  0  0  0  0  0  0  0  0  0
  -20.6675  -26.9578   21.6951 C   0  0  0  0  0  0  0  0  0  0  0  0
  -32.5709  -17.3153   21.6922 C   0  0  0  0  0  0  0  0  0  0  0  0
  -25.8239  -36.8303   22.6230 C   0  0  0  0  0  0  0  0  0  0  0  0
  -24.6924  -30.9998   19.9498 C   0  0  0  0  0  0  0  0  0  0  0  0
  -24.2822  -28.8202   21.9058 C   0  0  0  0  0  0  0  0  0  0  0  0
  -31.4944  -25.8136   21.9882 C   0  0  0  0  0  0  0  0  0  0  0  0
  -30.1972  -24.4009   20.4655 C   0  0  0  0  0  0  0  0  0  0  0  0
  -24.6861  -35.9289   23.0955 C   0  0  0  0  0  0  0  0  0  0  0  0
  -33.3125  -13.8376   21.8736 C   0  0  0  0  0  0  0  0  0  0  0  0
  -25.2400  -34.7003   23.8101 C   0  0  0  0  0  0  0  0  0  0  0  0
  -32.0748  -13.1710   21.2687 C   0  0  0  0  0  0  0  0  0  0  0  0
  -31.7102  -24.3506   22.3651 C   0  0  0  0  0  0  0  0  0  0  0  0
  -32.9470  -15.0729   22.6948 C   0  0  0  0  0  0  0  0  0  0  0  0
  -30.8846  -15.3973   21.3870 C   0  0  0  0  0  0  0  0  0  0  0  0
  -26.1092  -33.8590   22.8676 C   0  0  1  0  0  0  0  0  0  0  0  0
  -23.9139  -31.2178   21.2435 C   0  0  1  0  0  0  0  0  0  0  0  0
  -31.2083  -14.1858   20.4975 C   0  0  2  0  0  0  0  0  0  0  0  0
  -18.4896  -25.7236   21.8708 C   0  0  0  0  0  0  0  0  0  0  0  0
  -22.5340  -29.6384   25.3620 C   0  0  0  0  0  0  0  0  0  0  0  0
  -20.9558  -27.6958   25.2986 C   0  0  0  0  0  0  0  0  0  0  0  0
  -20.1485  -29.9766   24.6914 C   0  0  0  0  0  0  0  0  0  0  0  0
  -20.5181  -26.5689   18.7650 C   0  0  0  0  0  0  0  0  0  0  0  0
  -21.6735  -28.7373   23.1006 C   0  0  1  0  0  0  0  0  0  0  0  0
  -19.3773  -26.5858   20.9869 C   0  0  2  0  0  0  0  0  0  0  0  0
  -21.3511  -29.0125   24.5965 C   0  0  0  0  0  0  0  0  0  0  0  0
  -28.8273  -13.5660   20.6658 N   0  0  0  0  0  0  0  0  0  0  0  0
  -29.9549  -13.5419   19.9349 N   0  0  0  0  0  0  0  0  0  0  0  0
  -32.0403  -21.5598   21.9692 N   0  3  0  0  0  0  0  0  0  0  0  0
  -31.0772  -23.5823   21.2957 N   0  0  0  0  0  0  0  0  0  0  0  0
  -23.3736  -29.9734   21.7946 N   0  0  0  0  0  0  0  0  0  0  0  0
  -32.1299  -15.9909   21.8983 N   0  0  0  0  0  0  0  0  0  0  0  0
  -29.9241  -19.4258   19.1180 N   0  0  0  0  0  0  0  0  0  0  0  0
  -30.8532  -12.8016   17.8720 N   0  0  0  0  0  0  0  0  0  0  0  0
  -26.5511  -11.4407   17.6833 N   0  0  0  0  0  0  0  0  0  0  0  0
  -31.7278  -18.0857   20.8921 N   0  0  0  0  0  0  0  0  0  0  0  0
  -25.2786  -33.0773   21.9770 N   0  0  0  0  0  0  0  0  0  0  0  0
  -20.5625  -28.1696   22.3445 N   0  0  0  0  0  0  0  0  0  0  0  0
  -19.6720  -25.8298   19.7369 N   0  3  0  0  0  0  0  0  0  0  0  0
  -28.5486  -11.4614   16.5571 O   0  0  0  0  0  0  0  0  0  0  0  0
  -24.8951  -31.2670   23.3906 O   0  0  0  0  0  0  0  0  0  0  0  0
  -21.3078  -30.9354   22.2877 O   0  0  0  0  0  0  0  0  0  0  0  0
  -21.6671  -26.2430   21.6772 O   0  0  0  0  0  0  0  0  0  0  0  0
  -33.6327  -17.7270   22.1665 O   0  0  0  0  0  0  0  0  0  0  0  0
  -22.6764  -12.2158   21.6104 O   0  0  0  0  0  0  0  0  0  0  0  0
  -28.2918  -26.6301   20.1553 O   0  0  0  0  0  0  0  0  0  1  0  0
  -20.4011   -7.2415   20.9152 F   0  0  0  0  0  0  0  0  0  0  0  0
  -21.7657  -10.7576   23.7753 F   0  0  0  0  0  0  0  0  0  0  0  0
  1  2  1  0  0  0  0
  1  5  2  0  0  0  0
  2  6  2  0  0  0  0
  3  8  2  0  0  0  0
  3 17  1  0  0  0  0
  4  9  1  0  0  0  0
  4 17  2  0  0  0  0
  5 19  1  0  0  0  0
  6 21  1  0  0  0  0
  7 10  2  0  0  0  0
  7 20  1  0  0  0  0
  8 25  1  0  0  0  0
  9 25  2  0  0  0  0
 10 26  1  0  0  0  0
 11 12  2  0  0  0  0
 11 27  1  0  0  0  0
 12 28  1  0  0  0  0
 13 22  1  0  0  0  0
 13 26  2  0  0  0  0
 14 23  2  0  0  0  0
 14 32  1  0  0  0  0
 15 28  2  0  0  0  0
 15 29  1  0  0  0  0
 16 24  2  0  0  0  0
 16 65  1  0  0  0  0
 17 30  1  0  0  0  0
 18 30  1  0  0  0  0
 18 31  2  0  0  0  0
 18 35  1  0  0  0  0
 19 21  2  0  0  0  0
 19 40  1  0  0  0  0
 20 22  2  0  0  0  0
 20 41  1  0  0  0  0
 21 52  1  0  0  0  0
 22 42  1  0  0  0  0
 23 24  1  0  0  0  0
 23 69  1  0  0  0  0
 24 72  1  0  0  0  0
 25 81  1  0  0  0  0
 26 82  1  0  0  0  0
 27 29  2  0  0  0  0
 27 81  1  0  0  0  0
 28 83  1  0  0  0  0
 29 84  1  0  0  0  0
 30 63  2  0  0  0  0
 31 64  1  0  0  0  0
 31 70  1  0  0  0  0
 32 65  2  0  0  0  0
 32 66  1  0  0  0  0
 33 34  2  0  0  0  0
 33 43  1  0  0  0  0
 33 44  1  0  0  0  0
 34 82  1  0  0  0  0
 35 71  1  0  0  0  0
 35 76  2  0  0  0  0
 36 53  1  0  0  0  0
 36 73  1  0  0  0  0
 36 77  2  0  0  0  0
 37 60  1  0  0  0  0
 37 67  1  0  0  0  0
 37 78  2  0  0  0  0
 38 61  1  0  0  0  0
 38 74  1  0  0  0  0
 38 79  2  0  0  0  0
 39 68  1  0  0  0  0
 39 72  1  0  0  0  0
 39 80  2  0  0  0  0
 40 45  1  0  0  0  0
 41 53  1  0  0  0  0
 42 67  1  0  0  0  0
 43 49  1  0  0  0  0
 44 66  1  0  0  0  0
 45 47  1  0  0  0  0
 46 48  1  0  0  0  0
 46 50  1  0  0  0  0
 47 52  1  0  0  0  0
 48 54  1  0  0  0  0
 49 66  1  0  0  0  0
 50 68  1  0  0  0  0
 51 54  1  0  0  0  0
 51 68  1  0  0  0  0
 52 73  1  0  0  0  0
 53 67  1  0  0  0  0
 54 64  1  0  0  0  0
 55 61  1  0  0  0  0
 56 62  1  0  0  0  0
 57 62  1  0  0  0  0
 58 62  1  0  0  0  0
 59 75  1  0  0  0  0
 60 62  1  0  0  0  0
 60 74  1  0  0  0  0
 61 75  1  0  0  0  0
 63 64  1  0  0  0  0
M  CHG  2  65   1  75   1
M  ISO  4  34 101  39 100  72 100  82 101
M  END
> <Batch ID>
0111

> <Smiles>
CNC(C)C(=O)NC(C(=O)N1Cc2cc([101O:1][101CH:1]=C3CCN(c4cc(N)c([100NH:0][100C:0](=O)N5CCCC(n6nc(-c7ccc(Oc8ccc(F)cc8F)cc7)c(C(N)=O)c6N)C5)cn4)C3)ccc2CC1C(=O)NC1CCCc2ccccc21)C(C)(C)C

> <Shape>
0.324

> <Color>
0.090

> <Negative vol penalty>
0.000

$$$$

  -OEChem-04052301283D

 86 94  0     1  0  0  0  0  0999 V2000
  -16.6180  -29.4485   23.9275 C   0  0  0  0  0  0  0  0  0  0  0  0
  -17.0924  -28.6745   22.8734 C   0  0  0  0  0  0  0  0  0  0  0  0
  -26.1607  -11.7492   21.2617 C   0  0  0  0  0  0  0  0  0  0  0  0
  -25.3604  -12.6115   19.1515 C   0  0  0  0  0  0  0  0  0  0  0  0
  -17.3871  -30.5031   24.4177 C   0  0  0  0  0  0  0  0  0  0  0  0
  -18.3357  -28.9553   22.3080 C   0  0  0  0  0  0  0  0  0  0  0  0
  -21.1045  -24.7862   21.5346 C   0  0  0  0  0  0  0  0  0  0  0  0
  -24.9200  -11.1539   21.4891 C   0  0  0  0  0  0  0  0  0  0  0  0
  -24.1196  -12.0162   19.3788 C   0  0  0  0  0  0  0  0  0  0  0  0
  -20.7840  -24.0059   20.4246 C   0  0  0  0  0  0  0  0  0  0  0  0
  -22.0781   -9.1045   22.4579 C   0  0  0  0  0  0  0  0  0  0  0  0
  -22.0652   -7.7910   22.9271 C   0  0  0  0  0  0  0  0  0  0  0  0
  -24.9160  -19.2432   17.5000 C   0  0  0  0  0  0  0  0  0  0  0  0
  -26.5738  -20.5351   19.3344 C   0  0  0  0  0  0  0  0  0  0  0  0
  -22.6134  -24.9994   19.2057 C   0  0  0  0  0  0  0  0  0  0  0  0
  -23.2481   -7.0721   20.9470 C   0  0  0  0  0  0  0  0  0  0  0  0
  -26.3810  -12.4780   20.0929 C   0  0  0  0  0  0  0  0  0  0  0  0
  -26.2844  -18.9734   17.5138 C   0  0  0  0  0  0  0  0  0  0  0  0
  -27.1133  -19.6194   18.4311 C   0  0  0  0  0  0  0  0  0  0  0  0
  -28.7717  -12.5245   19.2042 C   0  0  0  0  0  0  0  0  0  0  0  0
  -18.6448  -30.7909   23.8645 C   0  0  0  0  0  0  0  0  0  0  0  0
  -22.1768  -25.6884   21.4848 C   0  0  0  0  0  0  0  0  0  0  0  0
  -19.1218  -30.0155   22.7904 C   0  0  0  0  0  0  0  0  0  0  0  0
  -22.9470  -25.7882   20.3173 C   0  0  0  0  0  0  0  0  0  0  0  0
  -23.8994  -11.2874   20.5477 C   0  0  0  0  0  0  0  0  0  0  0  0
  -21.5367  -24.1146   19.2589 C   0  0  0  0  0  0  0  0  0  0  0  0
  -22.6759   -9.4018   21.2332 C   0  0  0  0  0  0  0  0  0  0  0  0
  -25.2053  -20.8049   19.3206 C   0  0  0  0  0  0  0  0  0  0  0  0
  -24.3764  -20.1589   18.4033 C   0  0  0  0  0  0  0  0  0  0  0  0
  -22.6502   -6.7748   22.1717 C   0  0  0  0  0  0  0  0  0  0  0  0
  -23.2610   -8.3856   20.4778 C   0  0  0  0  0  0  0  0  0  0  0  0
  -27.6623  -13.0937   19.8577 C   0  0  0  0  0  0  0  0  0  0  0  0
  -29.7319  -13.5059   19.2400 C   0  0  0  0  0  0  0  0  0  0  0  0
  -26.7469  -18.1705   15.2430 C   0  0  0  0  0  0  0  0  0  0  0  0
  -26.8134  -18.0107   16.5560 C   0  0  0  0  0  0  0  0  0  0  0  0
  -28.5489  -19.3664   18.4766 C   0  0  0  0  0  0  0  0  0  0  0  0
  -28.9209  -11.2250   18.6171 C   0  0  0  0  0  0  0  0  0  0  0  0
  -29.3093  -19.4814   19.7423 C   0  0  0  0  0  0  0  0  0  0  0  0
  -22.4699  -28.8417   21.7584 C   0  0  0  0  0  0  0  0  0  0  0  0
  -25.6401  -28.1670   21.6275 C   0  0  0  0  0  0  0  0  0  0  0  0
  -28.1076  -26.0213   20.6508 C   0  0  0  0  0  0  0  0  0  0  0  0
  -19.4192  -31.9706   24.3967 C   0  0  0  0  0  0  0  0  0  0  0  0
  -22.5261  -26.5036   22.6997 C   0  0  0  0  0  0  0  0  0  0  0  0
  -24.1207  -26.7268   20.2193 C   0  0  0  0  0  0  0  0  0  0  0  0
  -20.8904  -31.9674   23.9893 C   0  0  0  0  0  0  0  0  0  0  0  0
  -31.1831  -17.2474   21.8292 C   0  0  0  0  0  0  0  0  0  0  0  0
  -21.0315  -31.6633   22.5012 C   0  0  0  0  0  0  0  0  0  0  0  0
  -30.5661  -15.8820   21.5281 C   0  0  0  0  0  0  0  0  0  0  0  0
  -30.1383  -18.3572   21.7714 C   0  0  0  0  0  0  0  0  0  0  0  0
  -28.7693  -17.0472   20.1719 C   0  0  0  0  0  0  0  0  0  0  0  0
  -20.4764  -30.2734   22.1670 C   0  0  1  0  0  0  0  0  0  0  0  0
  -23.3206  -27.7626   22.3663 C   0  0  1  0  0  0  0  0  0  0  0  0
  -29.7995  -15.9045   20.1938 C   0  0  2  0  0  0  0  0  0  0  0  0
  -30.4244  -25.0826   20.4301 C   0  0  0  0  0  0  0  0  0  0  0  0
  -25.8467  -30.1801   19.3439 C   0  0  0  0  0  0  0  0  0  0  0  0
  -28.0762  -29.1958   18.7706 C   0  0  0  0  0  0  0  0  0  0  0  0
  -27.7254  -30.2755   20.9919 C   0  0  0  0  0  0  0  0  0  0  0  0
  -27.8519  -24.4891   23.1699 C   0  0  0  0  0  0  0  0  0  0  0  0
  -25.6053  -22.3175   21.1116 C   0  0  0  0  0  0  0  0  0  0  0  0
  -20.9941  -21.1168   17.3018 C   0  0  0  0  0  0  0  0  0  0  0  0
  -20.6333  -22.0802   18.4215 C   0  0  0  0  0  0  0  0  0  1  0  0
  -22.4982  -20.9365   17.1691 C   0  0  0  0  0  0  0  0  0  0  0  0
  -26.6595  -28.0315   20.5223 C   0  0  1  0  0  0  0  0  0  0  0  0
  -29.3099  -25.4645   21.3917 C   0  0  2  0  0  0  0  0  0  0  0  0
  -27.0537  -29.4044   19.9081 C   0  0  0  0  0  0  0  0  0  0  0  0
  -27.8950  -14.3399   20.2781 N   0  0  0  0  0  0  0  0  0  0  0  0
  -29.2463  -19.0271   17.4290 N   0  0  0  0  0  0  0  0  0  0  0  0
  -29.1616  -14.5619   19.8879 N   0  0  0  0  0  0  0  0  0  0  0  0
  -29.4050  -18.3275   20.5075 N   0  0  0  0  0  0  0  0  0  0  0  0
  -24.4186  -27.5071   21.4318 N   0  0  0  0  0  0  0  0  0  0  0  0
  -31.0001  -13.5599   18.7803 N   0  0  0  0  0  0  0  0  0  0  0  0
  -27.8352  -10.3402   18.6682 N   0  0  0  0  0  0  0  0  0  0  0  0
  -21.4177  -29.2459   22.5577 N   0  0  0  0  0  0  0  0  0  0  0  0
  -27.7789  -27.2868   21.0887 N   0  0  0  0  0  0  0  0  0  0  0  0
  -28.9238  -24.2528   22.1688 N   0  3  0  0  0  0  0  0  0  0  0  0
  -29.9909  -10.8534   18.0781 O   0  0  0  0  0  0  0  0  0  0  0  0
  -29.7743  -20.5885   19.9795 O   0  0  0  0  0  0  0  0  0  0  0  0
  -22.7485  -29.2765   20.6471 O   0  0  0  0  0  0  0  0  0  0  0  0
  -25.9200  -28.8279   22.6307 O   0  0  0  0  0  0  0  0  0  0  0  0
  -27.5212  -25.3976   19.7690 O   0  0  0  0  0  0  0  0  0  0  0  0
  -22.6886  -10.7064   20.7691 O   0  0  0  0  0  0  0  0  0  0  0  0
  -24.6902  -21.7012   20.2077 O   0  0  0  0  0  0  0  0  0  0  0  0
  -21.2257  -23.3546   18.1737 O   0  0  0  0  0  0  0  0  0  1  0  0
  -23.0304  -20.4163   18.3798 O   0  0  0  0  0  0  0  0  0  0  0  0
  -22.6391   -5.5138   22.6231 F   0  0  0  0  0  0  0  0  0  0  0  0
  -23.8379   -8.6652   19.3010 F   0  0  0  0  0  0  0  0  0  0  0  0
  1  2  1  0  0  0  0
  1  5  2  0  0  0  0
  2  6  2  0  0  0  0
  3  8  2  0  0  0  0
  3 17  1  0  0  0  0
  4  9  1  0  0  0  0
  4 17  2  0  0  0  0
  5 21  1  0  0  0  0
  6 23  1  0  0  0  0
  7 10  2  0  0  0  0
  7 22  1  0  0  0  0
  8 25  1  0  0  0  0
  9 25  2  0  0  0  0
 10 26  1  0  0  0  0
 11 12  2  0  0  0  0
 11 27  1  0  0  0  0
 12 30  1  0  0  0  0
 13 18  1  0  0  0  0
 13 29  2  0  0  0  0
 14 19  1  0  0  0  0
 14 28  2  0  0  0  0
 15 24  1  0  0  0  0
 15 26  2  0  0  0  0
 16 30  2  0  0  0  0
 16 31  1  0  0  0  0
 17 32  1  0  0  0  0
 18 19  2  0  0  0  0
 18 35  1  0  0  0  0
 19 36  1  0  0  0  0
 20 32  1  0  0  0  0
 20 33  2  0  0  0  0
 20 37  1  0  0  0  0
 21 23  2  0  0  0  0
 21 42  1  0  0  0  0
 22 24  2  0  0  0  0
 22 43  1  0  0  0  0
 23 51  1  0  0  0  0
 24 44  1  0  0  0  0
 25 81  1  0  0  0  0
 26 83  1  0  0  0  0
 27 31  2  0  0  0  0
 27 81  1  0  0  0  0
 28 29  1  0  0  0  0
 28 82  1  0  0  0  0
 29 84  1  0  0  0  0
 30 85  1  0  0  0  0
 31 86  1  0  0  0  0
 32 66  2  0  0  0  0
 33 68  1  0  0  0  0
 33 71  1  0  0  0  0
 34 35  2  0  0  0  0
 36 38  1  0  0  0  0
 36 67  2  0  0  0  0
 37 72  1  0  0  0  0
 37 76  2  0  0  0  0
 38 69  1  0  0  0  0
 38 77  2  0  0  0  0
 39 52  1  0  0  0  0
 39 73  1  0  0  0  0
 39 78  2  0  0  0  0
 40 63  1  0  0  0  0
 40 70  1  0  0  0  0
 40 79  2  0  0  0  0
 41 64  1  0  0  0  0
 41 74  1  0  0  0  0
 41 80  2  0  0  0  0
 42 45  1  0  0  0  0
 43 52  1  0  0  0  0
 44 70  1  0  0  0  0
 45 47  1  0  0  0  0
 46 48  1  0  0  0  0
 46 49  1  0  0  0  0
 47 51  1  0  0  0  0
 48 53  1  0  0  0  0
 49 69  1  0  0  0  0
 50 53  1  0  0  0  0
 50 69  1  0  0  0  0
 51 73  1  0  0  0  0
 52 70  1  0  0  0  0
 53 68  1  0  0  0  0
 54 64  1  0  0  0  0
 55 65  1  0  0  0  0
 56 65  1  0  0  0  0
 57 65  1  0  0  0  0
 58 75  1  0  0  0  0
 59 82  1  0  0  0  0
 60 61  1  0  0  0  0
 60 62  1  0  0  0  0
 61 83  1  0  0  0  0
 62 84  1  0  0  0  0
 63 65  1  0  0  0  0
 63 74  1  0  0  0  0
 64 75  1  0  0  0  0
 66 68  1  0  0  0  0
M  CHG  1  75   1
M  ISO  4  36 100  38 100  61 101  83 101
M  END
> <Batch ID>
0111

> <Smiles>
C=Cc1cc(OCC[101CH2:1][101O:1]c2ccc3c(c2)CN(C(=O)C(NC(=O)C(C)NC)C(C)(C)C)C(C(=O)NC2CCCc4ccccc42)C3)c(OC)cc1[100C:0](=N)[100C:0](=O)N1CCCC(n2nc(-c3ccc(Oc4ccc(F)cc4F)cc3)c(C(N)=O)c2N)C1

> <Shape>
0.277

> <Color>
0.071

> <Negative vol penalty>
0.000

$$$$

  -OEChem-04052301282D

  0  0  0     0  0  0  0  0  0999 V2000
M  END
$$$$

  -OEChem-04052301283D

 83 91  0     1  0  0  0  0  0999 V2000
  -17.8396  -31.0463   22.4559 C   0  0  0  0  0  0  0  0  0  0  0  0
  -19.2187  -31.2070   22.3686 C   0  0  0  0  0  0  0  0  0  0  0  0
  -25.5629  -13.4685   21.5754 C   0  0  0  0  0  0  0  0  0  0  0  0
  -26.9362  -12.9885   19.6465 C   0  0  0  0  0  0  0  0  0  0  0  0
  -17.2981  -29.7773   22.6569 C   0  0  0  0  0  0  0  0  0  0  0  0
  -20.0573  -30.0989   22.4835 C   0  0  0  0  0  0  0  0  0  0  0  0
  -25.3591  -29.1755   19.5604 C   0  0  0  0  0  0  0  0  0  0  0  0
  -24.6116  -12.5528   21.1261 C   0  0  0  0  0  0  0  0  0  0  0  0
  -25.9848  -12.0728   19.1971 C   0  0  0  0  0  0  0  0  0  0  0  0
  -26.6867  -29.3557   19.9463 C   0  0  0  0  0  0  0  0  0  0  0  0
  -24.1991   -9.1968   21.1063 C   0  0  0  0  0  0  0  0  0  0  0  0
  -23.6640   -8.3079   22.0385 C   0  0  0  0  0  0  0  0  0  0  0  0
  -26.8218  -27.0237   20.5485 C   0  0  0  0  0  0  0  0  0  0  0  0
  -30.7134  -24.5582   19.0418 C   0  0  0  0  0  0  0  0  0  0  0  0
  -21.4545   -9.1843   21.6060 C   0  0  0  0  0  0  0  0  0  0  0  0
  -32.7635  -25.1974   18.3649 C   0  0  0  0  0  0  0  0  0  0  0  0
  -26.7252  -13.6865   20.8356 C   0  0  0  0  0  0  0  0  0  0  0  0
  -28.8045  -14.3748   22.1435 C   0  0  0  0  0  0  0  0  0  0  0  0
  -18.1300  -28.6517   22.7647 C   0  0  0  0  0  0  0  0  0  0  0  0
  -24.7486  -27.9184   19.6762 C   0  0  0  0  0  0  0  0  0  0  0  0
  -19.5265  -28.8138   22.6875 C   0  0  0  0  0  0  0  0  0  0  0  0
  -25.4871  -26.8296   20.1611 C   0  0  0  0  0  0  0  0  0  0  0  0
  -31.7010  -25.5670   19.1598 C   0  0  0  0  0  0  0  0  0  0  0  0
  -24.8225  -11.8549   19.9369 C   0  0  0  0  0  0  0  0  0  0  0  0
  -27.4174  -28.2804   20.4431 C   0  0  0  0  0  0  0  0  0  0  0  0
  -23.3619  -10.0796   20.4240 C   0  0  0  0  0  0  0  0  0  0  0  0
  -22.2917   -8.3016   22.2884 C   0  0  0  0  0  0  0  0  0  0  0  0
  -21.9896  -10.0733   20.6739 C   0  0  0  0  0  0  0  0  0  0  0  0
  -27.7081  -14.6327   21.2990 C   0  0  0  0  0  0  0  0  0  0  0  0
  -31.2025  -23.6026   18.1785 C   0  0  0  0  0  0  0  0  0  0  0  0
  -29.4254  -15.5921   22.2815 C   0  0  0  0  0  0  0  0  0  0  0  0
  -31.0935  -27.7613   19.3612 C   0  0  0  0  0  0  0  0  0  0  0  0
  -29.2242  -13.1447   22.7489 C   0  0  0  0  0  0  0  0  0  0  0  0
  -22.2771  -26.7669   21.3101 C   0  0  0  0  0  0  0  0  0  0  0  0
  -22.8832  -24.0883   19.5837 C   0  0  0  0  0  0  0  0  0  0  0  0
  -25.1322  -22.2295   17.8135 C   0  0  0  0  0  0  0  0  0  0  0  0
  -29.5854  -20.3451   18.7831 C   0  0  0  0  0  0  0  0  0  0  0  0
  -17.5009  -27.3067   23.0289 C   0  0  0  0  0  0  0  0  0  0  0  0
  -23.3238  -27.7345   19.2306 C   0  0  0  0  0  0  0  0  0  0  0  0
  -24.8842  -25.4551   20.2861 C   0  0  0  0  0  0  0  0  0  0  0  0
  -18.4403  -26.1326   22.7655 C   0  0  0  0  0  0  0  0  0  0  0  0
  -28.5091  -20.2895   22.2380 C   0  0  0  0  0  0  0  0  0  0  0  0
  -19.8066  -26.3910   23.3927 C   0  0  0  0  0  0  0  0  0  0  0  0
  -28.2865  -18.7929   22.4631 C   0  0  0  0  0  0  0  0  0  0  0  0
  -28.0828  -20.7067   20.8335 C   0  0  0  0  0  0  0  0  0  0  0  0
  -28.5174  -18.4435   19.9603 C   0  0  0  0  0  0  0  0  0  0  0  0
  -20.4678  -27.6327   22.7824 C   0  0  1  0  0  0  0  0  0  0  0  0
  -22.6477  -26.5276   19.8737 C   0  0  1  0  0  0  0  0  0  0  0  0
  -28.9501  -17.9547   21.3545 C   0  0  2  0  0  0  0  0  0  0  0  0
  -29.7630  -22.5157   16.4156 C   0  0  0  0  0  0  0  0  0  0  0  0
  -25.3449  -20.0692   16.5545 C   0  0  0  0  0  0  0  0  0  0  0  0
  -22.9990  -22.5637   22.2242 C   0  0  0  0  0  0  0  0  0  0  0  0
  -24.1263  -20.6863   21.0105 C   0  0  0  0  0  0  0  0  0  0  0  0
  -21.8105  -21.3652   20.3787 C   0  0  0  0  0  0  0  0  0  0  0  0
  -33.3146  -23.2846   16.8629 C   0  0  0  0  0  0  0  0  0  0  0  0
  -25.7933  -23.6301   15.2916 C   0  0  0  0  0  0  0  0  0  0  0  0
  -30.9269  -29.0585   20.1065 C   0  0  0  0  0  0  0  0  0  0  0  0
  -29.4611  -29.4570   20.1354 C   0  0  0  0  0  0  0  0  0  1  0  0
  -30.5849  -22.3457   17.7081 C   0  0  2  0  0  0  0  0  0  0  0  0
  -23.7514  -22.8680   19.7732 C   0  0  1  0  0  0  0  0  0  0  0  0
  -25.0355  -21.5550   16.4570 C   0  0  2  0  0  0  0  0  0  0  0  0
  -23.1828  -21.8970   20.8462 C   0  0  0  0  0  0  0  0  0  0  0  0
  -27.6339  -15.9133   20.9269 N   0  0  0  0  0  0  0  0  0  0  0  0
  -31.6057  -26.7278   19.9454 N   0  0  0  0  0  0  0  0  0  0  0  0
  -32.4495  -24.0016   17.7736 N   0  0  0  0  0  0  0  0  0  0  0  0
  -28.6915  -16.4710   21.5405 N   0  0  0  0  0  0  0  0  0  0  0  0
  -23.4859  -25.3273   19.8433 N   0  0  0  0  0  0  0  0  0  0  0  0
  -28.7643  -19.8829   19.8250 N   0  0  0  0  0  0  0  0  0  0  0  0
  -30.5220  -15.9858   22.9634 N   0  0  0  0  0  0  0  0  0  0  0  0
  -28.4723  -11.9880   22.5024 N   0  0  0  0  0  0  0  0  0  0  0  0
  -21.0236  -27.3221   21.4827 N   0  0  0  0  0  0  0  0  0  0  0  0
  -23.9105  -22.2710   18.4515 N   0  0  0  0  0  0  0  0  0  0  0  0
  -29.7627  -21.7219   18.7209 N   0  0  0  0  0  0  0  0  0  0  0  0
  -25.9971  -22.1735   15.5012 N   0  3  0  0  0  0  0  0  0  0  0  0
  -30.2267  -13.0769   23.4999 O   0  0  0  0  0  0  0  0  0  0  0  0
  -23.0693  -26.4685   22.1962 O   0  0  0  0  0  0  0  0  0  0  0  0
  -21.7154  -23.9479   19.2120 O   0  0  0  0  0  0  0  0  0  0  0  0
  -26.1868  -22.6717   18.2639 O   0  0  0  0  0  0  0  0  0  0  0  0
  -30.1256  -19.5862   17.9711 O   0  0  0  0  0  0  0  0  0  0  0  0
  -23.8945  -10.9611   19.4982 O   0  0  0  0  0  0  0  0  0  0  0  0
  -28.7131  -28.4536   20.8210 O   0  0  0  0  0  0  0  0  0  1  0  0
  -21.7779   -7.4468   23.1825 F   0  0  0  0  0  0  0  0  0  0  0  0
  -21.1801  -10.9182   20.0206 F   0  0  0  0  0  0  0  0  0  0  0  0
  1  2  1  0  0  0  0
  1  5  2  0  0  0  0
  2  6  2  0  0  0  0
  3  8  2  0  0  0  0
  3 17  1  0  0  0  0
  4  9  1  0  0  0  0
  4 17  2  0  0  0  0
  5 19  1  0  0  0  0
  6 21  1  0  0  0  0
  7 10  2  0  0  0  0
  7 20  1  0  0  0  0
  8 24  1  0  0  0  0
  9 24  2  0  0  0  0
 10 25  1  0  0  0  0
 11 12  2  0  0  0  0
 11 26  1  0  0  0  0
 12 27  1  0  0  0  0
 13 22  1  0  0  0  0
 13 25  2  0  0  0  0
 14 23  1  0  0  0  0
 14 30  2  0  0  0  0
 15 27  2  0  0  0  0
 15 28  1  0  0  0  0
 16 23  2  0  0  0  0
 16 65  1  0  0  0  0
 17 29  1  0  0  0  0
 18 29  1  0  0  0  0
 18 31  2  0  0  0  0
 18 33  1  0  0  0  0
 19 21  2  0  0  0  0
 19 38  1  0  0  0  0
 20 22  2  0  0  0  0
 20 39  1  0  0  0  0
 21 47  1  0  0  0  0
 22 40  1  0  0  0  0
 23 64  1  0  0  0  0
 24 80  1  0  0  0  0
 25 81  1  0  0  0  0
 26 28  2  0  0  0  0
 26 80  1  0  0  0  0
 27 82  1  0  0  0  0
 28 83  1  0  0  0  0
 29 63  2  0  0  0  0
 30 59  1  0  0  0  0
 30 65  1  0  0  0  0
 31 66  1  0  0  0  0
 31 69  1  0  0  0  0
 32 57  1  0  0  0  0
 32 64  2  0  0  0  0
 33 70  1  0  0  0  0
 33 75  2  0  0  0  0
 34 48  1  0  0  0  0
 34 71  1  0  0  0  0
 34 76  2  0  0  0  0
 35 60  1  0  0  0  0
 35 67  1  0  0  0  0
 35 77  2  0  0  0  0
 36 61  1  0  0  0  0
 36 72  1  0  0  0  0
 36 78  2  0  0  0  0
 37 68  1  0  0  0  0
 37 73  1  0  0  0  0
 37 79  2  0  0  0  0
 38 41  1  0  0  0  0
 39 48  1  0  0  0  0
 40 67  1  0  0  0  0
 41 43  1  0  0  0  0
 42 44  1  0  0  0  0
 42 45  1  0  0  0  0
 43 47  1  0  0  0  0
 44 49  1  0  0  0  0
 45 68  1  0  0  0  0
 46 49  1  0  0  0  0
 46 68  1  0  0  0  0
 47 71  1  0  0  0  0
 48 67  1  0  0  0  0
 49 66  1  0  0  0  0
 50 59  1  0  0  0  0
 51 61  1  0  0  0  0
 52 62  1  0  0  0  0
 53 62  1  0  0  0  0
 54 62  1  0  0  0  0
 55 65  1  0  0  0  0
 56 74  1  0  0  0  0
 57 58  1  0  0  0  0
 58 81  1  0  0  0  0
 59 73  1  0  0  0  0
 60 62  1  0  0  0  0
 60 72  1  0  0  0  0
 61 74  1  0  0  0  0
 63 66  1  0  0  0  0
M  CHG  1  74   1
M  ISO  4  37 100  58 101  73 100  81 101
M  END
> <Batch ID>
0111

> <Smiles>
CNC(C)C(=O)NC(C(=O)N1Cc2cc([101O:1][101CH2:1]C=CNc3cc(C(C)[100NH:0][100C:0](=O)N4CCCC(n5nc(-c6ccc(Oc7ccc(F)cc7F)cc6)c(C(N)=O)c5N)C4)n(C)c3)ccc2CC1C(=O)NC1CCCc2ccccc21)C(C)(C)C

> <Shape>
0.272

> <Color>
0.069

> <Negative vol penalty>
0.000

$$$$

  -OEChem-04052301283D

 90 99  0     1  0  0  0  0  0999 V2000
  -32.5611  -16.1263   21.9418 C   0  0  0  0  0  0  0  0  0  0  0  0
  -31.5589  -17.0378   21.6254 C   0  0  0  0  0  0  0  0  0  0  0  0
  -29.8404  -28.1936   21.7931 C   0  0  0  0  0  0  0  0  0  0  0  0
  -27.8039  -27.0213   21.2313 C   0  0  0  0  0  0  0  0  0  0  0  0
  -32.3505  -14.7628   21.7406 C   0  0  0  0  0  0  0  0  0  0  0  0
  -30.3459  -16.5864   21.1066 C   0  0  0  0  0  0  0  0  0  0  0  0
  -26.2851  -18.8369   23.3285 C   0  0  0  0  0  0  0  0  0  0  0  0
  -30.5695  -27.3068   21.0009 C   0  0  0  0  0  0  0  0  0  0  0  0
  -28.5330  -26.1344   20.4391 C   0  0  0  0  0  0  0  0  0  0  0  0
  -25.9475  -20.1312   22.9352 C   0  0  0  0  0  0  0  0  0  0  0  0
  -30.4983  -23.4219   20.8980 C   0  0  0  0  0  0  0  0  0  0  0  0
  -30.2136  -22.0617   21.0177 C   0  0  0  0  0  0  0  0  0  0  0  0
  -24.2608  -19.2367   21.4610 C   0  0  0  0  0  0  0  0  0  0  0  0
  -29.6185  -21.9804   18.6776 C   0  0  0  0  0  0  0  0  0  0  0  0
  -19.2315  -25.9892   22.9369 C   0  0  0  0  0  0  0  0  0  0  0  0
  -28.4576  -28.0509   21.9083 C   0  0  0  0  0  0  0  0  0  0  0  0
  -27.8563  -29.1952   24.1075 C   0  0  0  0  0  0  0  0  0  0  0  0
  -31.1307  -14.2936   21.2281 C   0  0  0  0  0  0  0  0  0  0  0  0
  -25.6192  -17.7300   22.7826 C   0  0  0  0  0  0  0  0  0  0  0  0
  -30.1193  -15.2154   20.8971 C   0  0  0  0  0  0  0  0  0  0  0  0
  -24.5886  -17.9298   21.8527 C   0  0  0  0  0  0  0  0  0  0  0  0
  -29.9158  -26.2772   20.3239 C   0  0  0  0  0  0  0  0  0  0  0  0
  -24.9368  -20.3311   21.9996 C   0  0  0  0  0  0  0  0  0  0  0  0
  -30.3431  -24.0614   19.6681 C   0  0  0  0  0  0  0  0  0  0  0  0
  -29.7738  -21.3409   19.9075 C   0  0  0  0  0  0  0  0  0  0  0  0
  -29.9032  -23.3406   18.5579 C   0  0  0  0  0  0  0  0  0  0  0  0
  -27.7040  -28.9664   22.7268 C   0  0  0  0  0  0  0  0  0  0  0  0
  -19.8414  -28.5264   22.3734 C   0  0  0  0  0  0  0  0  0  0  0  0
  -18.5306  -28.1080   22.4380 C   0  0  0  0  0  0  0  0  0  0  0  0
  -20.5423  -26.4074   22.8716 C   0  0  0  0  0  0  0  0  0  0  0  0
  -26.9119  -30.1474   24.4040 C   0  0  0  0  0  0  0  0  0  0  0  0
  -20.2226  -29.9164   22.0658 C   0  0  0  0  0  0  0  0  0  0  0  0
  -28.7698  -28.6003   25.0388 C   0  0  0  0  0  0  0  0  0  0  0  0
  -26.4289  -15.1503   21.0693 C   0  0  0  0  0  0  0  0  0  0  0  0
  -23.7933  -23.7567   22.3445 C   0  0  0  0  0  0  0  0  0  0  0  0
  -23.2302  -14.4267   21.6154 C   0  0  0  0  0  0  0  0  0  0  0  0
  -23.8175  -11.2447   20.5338 C   0  0  0  0  0  0  0  0  0  0  0  0
  -21.7436  -31.6071   21.7204 C   0  0  0  0  0  0  0  0  0  0  0  0
  -30.9669  -12.8144   20.9836 C   0  0  0  0  0  0  0  0  0  0  0  0
  -25.9781  -16.3431   23.2431 C   0  0  0  0  0  0  0  0  0  0  0  0
  -23.8416  -16.7757   21.2406 C   0  0  0  0  0  0  0  0  0  0  0  0
  -29.5153  -12.3876   20.7811 C   0  0  0  0  0  0  0  0  0  0  0  0
  -15.3089  -30.8667   21.8266 C   0  0  0  0  0  0  0  0  0  0  0  0
  -15.9280  -30.1173   20.6533 C   0  0  0  0  0  0  0  0  0  0  0  0
  -16.3499  -31.0878   22.9172 C   0  0  0  0  0  0  0  0  0  0  0  0
  -24.5149  -33.7936   22.4577 C   0  0  0  0  0  0  0  0  0  0  0  0
  -28.8124  -13.3301   19.8093 C   0  0  0  0  0  0  0  0  0  0  0  0
  -25.6686  -32.8211   22.7029 C   0  0  0  0  0  0  0  0  0  0  0  0
  -16.5662  -28.8022   21.0986 C   0  0  0  0  0  0  0  0  0  0  0  0
  -16.9805  -29.7699   23.3617 C   0  0  0  0  0  0  0  0  0  0  0  0
  -23.5660  -33.2766   21.3808 C   0  0  0  0  0  0  0  0  0  0  0  0
  -24.1826  -30.9319   21.9014 C   0  0  0  0  0  0  0  0  0  0  0  0
  -28.7807  -14.7626   20.3556 C   0  0  1  0  0  0  0  0  0  0  0  0
  -25.5385  -15.2460   22.2758 C   0  0  1  0  0  0  0  0  0  0  0  0
  -25.1441  -31.4059   23.0046 C   0  0  1  0  0  0  0  0  0  0  0  0
  -22.7367   -8.9851   20.3810 C   0  0  0  0  0  0  0  0  0  0  0  0
  -23.7090  -13.9996   24.5976 C   0  0  0  0  0  0  0  0  0  0  0  0
  -23.5319  -11.5340   24.2011 C   0  0  0  0  0  0  0  0  0  0  0  0
  -21.5800  -13.0144   23.7310 C   0  0  0  0  0  0  0  0  0  0  0  0
  -23.9984  -11.2296   17.5799 C   0  0  0  0  0  0  0  0  0  0  0  0
  -23.8997  -24.9344   23.3020 C   0  0  0  0  0  0  0  0  0  0  0  0
  -24.7866  -22.6342   22.5736 C   0  0  0  0  0  0  0  0  0  1  0  0
  -22.8866  -26.0320   23.0111 C   0  0  0  0  0  0  0  0  0  0  0  0
  -23.5829  -13.0773   22.1894 C   0  0  1  0  0  0  0  0  0  0  0  0
  -22.9936  -10.3055   19.6716 C   0  0  2  0  0  0  0  0  0  0  0  0
  -23.1200  -12.9219   23.6656 C   0  0  0  0  0  0  0  0  0  0  0  0
  -18.2021  -26.8320   22.7212 N   0  0  0  0  0  0  0  0  0  0  0  0
  -26.7387  -29.7129   22.1839 N   0  0  0  0  0  0  0  0  0  0  0  0
  -20.8708  -27.6835   22.5887 N   0  0  0  0  0  0  0  0  0  0  0  0
  -21.4601  -30.2868   22.0133 N   0  0  0  0  0  0  0  0  0  0  0  0
  -26.2758  -30.4201   23.2287 N   0  0  0  0  0  0  0  0  0  0  0  0
  -17.5041  -29.0313   22.2037 N   0  0  0  0  0  0  0  0  0  0  0  0
  -24.1701  -15.4514   21.7841 N   0  0  0  0  0  0  0  0  0  0  0  0
  -23.1154  -31.9178   21.6850 N   0  0  0  0  0  0  0  0  0  0  0  0
  -26.5717  -30.7696   25.5527 N   0  0  0  0  0  0  0  0  0  0  0  0
  -29.6736  -27.6388   24.5666 N   0  0  0  0  0  0  0  0  0  0  0  0
  -27.7540  -14.8952   21.3668 N   0  0  0  0  0  0  0  0  0  0  0  0
  -23.0191  -12.0864   21.2791 N   0  0  0  0  0  0  0  0  0  0  0  0
  -23.7026  -10.0212   18.3919 N   0  3  0  0  0  0  0  0  0  0  0  0
  -28.7732  -28.9002   26.2568 O   0  0  0  0  0  0  0  0  0  0  0  0
  -25.9489  -15.2955   19.9512 O   0  0  0  0  0  0  0  0  0  0  0  0
  -22.9584  -23.7080   21.4427 O   0  0  0  0  0  0  0  0  0  0  0  0
  -22.1484  -14.5728   21.0394 O   0  0  0  0  0  0  0  0  0  0  0  0
  -25.0464  -11.2304   20.5479 O   0  0  0  0  0  0  0  0  0  0  0  0
  -20.8830  -32.4621   21.4982 O   0  0  0  0  0  0  0  0  0  0  0  0
  -30.6269  -25.4117   19.5507 O   0  0  0  0  0  0  0  0  0  0  0  0
  -24.6049  -21.5934   21.6144 O   0  0  0  0  0  0  0  0  0  1  0  0
  -21.5622  -25.5207   23.0973 O   0  0  0  0  0  0  0  0  0  0  0  0
  -29.5019  -20.0344   20.0222 F   0  0  0  0  0  0  0  0  0  0  0  0
  -29.7533  -23.9492   17.3734 F   0  0  0  0  0  0  0  0  0  0  0  0
  1  2  1  0  0  0  0
  1  5  2  0  0  0  0
  2  6  2  0  0  0  0
  3  8  2  0  0  0  0
  3 16  1  0  0  0  0
  4  9  1  0  0  0  0
  4 16  2  0  0  0  0
  5 18  1  0  0  0  0
  6 20  1  0  0  0  0
  7 10  2  0  0  0  0
  7 19  1  0  0  0  0
  8 22  1  0  0  0  0
  9 22  2  0  0  0  0
 10 23  1  0  0  0  0
 11 12  2  0  0  0  0
 11 24  1  0  0  0  0
 12 25  1  0  0  0  0
 13 21  1  0  0  0  0
 13 23  2  0  0  0  0
 14 25  2  0  0  0  0
 14 26  1  0  0  0  0
 15 30  1  0  0  0  0
 15 67  2  0  0  0  0
 16 27  1  0  0  0  0
 17 27  1  0  0  0  0
 17 31  2  0  0  0  0
 17 33  1  0  0  0  0
 18 20  2  0  0  0  0
 18 39  1  0  0  0  0
 19 21  2  0  0  0  0
 19 40  1  0  0  0  0
 20 53  1  0  0  0  0
 21 41  1  0  0  0  0
 22 86  1  0  0  0  0
 23 87  1  0  0  0  0
 24 26  2  0  0  0  0
 24 86  1  0  0  0  0
 25 89  1  0  0  0  0
 26 90  1  0  0  0  0
 27 68  2  0  0  0  0
 28 29  2  0  0  0  0
 28 32  1  0  0  0  0
 28 69  1  0  0  0  0
 29 67  1  0  0  0  0
 29 72  1  0  0  0  0
 30 69  2  0  0  0  0
 30 88  1  0  0  0  0
 31 71  1  0  0  0  0
 31 75  1  0  0  0  0
 32 70  2  0  0  0  0
 33 76  1  0  0  0  0
 33 80  2  0  0  0  0
 34 54  1  0  0  0  0
 34 77  1  0  0  0  0
 34 81  2  0  0  0  0
 35 61  1  0  0  0  0
 35 62  1  0  0  0  0
 35 82  2  0  0  0  0
 36 64  1  0  0  0  0
 36 73  1  0  0  0  0
 36 83  2  0  0  0  0
 37 65  1  0  0  0  0
 37 78  1  0  0  0  0
 37 84  2  0  0  0  0
 38 70  1  0  0  0  0
 38 74  1  0  0  0  0
 38 85  2  0  0  0  0
 39 42  1  0  0  0  0
 40 54  1  0  0  0  0
 41 73  1  0  0  0  0
 42 47  1  0  0  0  0
 43 44  1  0  0  0  0
 43 45  1  0  0  0  0
 44 49  1  0  0  0  0
 45 50  1  0  0  0  0
 46 48  1  0  0  0  0
 46 51  1  0  0  0  0
 47 53  1  0  0  0  0
 48 55  1  0  0  0  0
 49 72  1  0  0  0  0
 50 72  1  0  0  0  0
 51 74  1  0  0  0  0
 52 55  1  0  0  0  0
 52 74  1  0  0  0  0
 53 77  1  0  0  0  0
 54 73  1  0  0  0  0
 55 71  1  0  0  0  0
 56 65  1  0  0  0  0
 57 66  1  0  0  0  0
 58 66  1  0  0  0  0
 59 66  1  0  0  0  0
 60 79  1  0  0  0  0
 61 63  1  0  0  0  0
 62 87  1  0  0  0  0
 63 88  1  0  0  0  0
 64 66  1  0  0  0  0
 64 78  1  0  0  0  0
 65 79  1  0  0  0  0
 68 71  1  0  0  0  0
M  CHG  1  79   1
M  ISO  4  38 100  62 101  70 100  87 101
M  END
> <Batch ID>
0111

> <Smiles>
CNC(C)C(=O)NC(C(=O)N1Cc2cc([101O:1][101CH2:1]C(=O)CCOc3cnc(N4CCCCC4)c(C=[100N:0][100C:0](=O)N4CCCC(n5nc(-c6ccc(Oc7ccc(F)cc7F)cc6)c(C(N)=O)c5N)C4)n3)ccc2CC1C(=O)NC1CCCc2ccccc21)C(C)(C)C

> <Shape>
0.311

> <Color>
0.075

> <Negative vol penalty>
0.000

$$$$

  -OEChem-04052301283D

 89 97  0     1  0  0  0  0  0999 V2000
  -24.8042  -20.5180   26.9338 C   0  0  0  0  0  0  0  0  0  0  0  0
  -25.4858  -20.8443   25.7657 C   0  0  0  0  0  0  0  0  0  0  0  0
  -22.9419  -10.1070   19.9218 C   0  0  0  0  0  0  0  0  0  0  0  0
  -23.9450   -9.7574   22.0917 C   0  0  0  0  0  0  0  0  0  0  0  0
  -23.5852  -21.1301   27.2223 C   0  0  0  0  0  0  0  0  0  0  0  0
  -24.9481  -21.7821   24.8849 C   0  0  0  0  0  0  0  0  0  0  0  0
  -28.3983  -25.1048   23.2412 C   0  0  0  0  0  0  0  0  0  0  0  0
  -22.1704   -8.9576   20.0933 C   0  0  0  0  0  0  0  0  0  0  0  0
  -23.1734   -8.6081   22.2633 C   0  0  0  0  0  0  0  0  0  0  0  0
  -29.2696  -24.6756   22.2411 C   0  0  0  0  0  0  0  0  0  0  0  0
  -21.2050   -5.7814   23.4266 C   0  0  0  0  0  0  0  0  0  0  0  0
  -20.5788   -5.5978   24.6593 C   0  0  0  0  0  0  0  0  0  0  0  0
  -29.9968  -17.2373   20.2824 C   0  0  0  0  0  0  0  0  0  0  0  0
  -28.1053  -18.1689   22.1090 C   0  0  0  0  0  0  0  0  0  0  0  0
  -27.9277  -25.8146   20.5915 C   0  0  0  0  0  0  0  0  0  0  0  0
  -19.3650   -7.6638   24.3505 C   0  0  0  0  0  0  0  0  0  0  0  0
  -23.8293  -10.5068   20.9210 C   0  0  0  0  0  0  0  0  0  0  0  0
  -29.7285  -16.5087   21.4411 C   0  0  0  0  0  0  0  0  0  0  0  0
  -28.7827  -16.9745   22.3544 C   0  0  0  0  0  0  0  0  0  0  0  0
  -24.2872  -13.0090   21.1134 C   0  0  0  0  0  0  0  0  0  0  0  0
  -23.0370  -22.0830   26.3493 C   0  0  0  0  0  0  0  0  0  0  0  0
  -27.2771  -25.8843   22.9222 C   0  0  0  0  0  0  0  0  0  0  0  0
  -23.7200  -22.4065   25.1614 C   0  0  0  0  0  0  0  0  0  0  0  0
  -27.0450  -26.2545   21.5898 C   0  0  0  0  0  0  0  0  0  0  0  0
  -22.2861   -8.2082   21.2640 C   0  0  0  0  0  0  0  0  0  0  0  0
  -29.0328  -25.0281   20.9157 C   0  0  0  0  0  0  0  0  0  0  0  0
  -20.9113   -6.9063   22.6558 C   0  0  0  0  0  0  0  0  0  0  0  0
  -28.3737  -18.8975   20.9503 C   0  0  0  0  0  0  0  0  0  0  0  0
  -29.3195  -18.4317   20.0370 C   0  0  0  0  0  0  0  0  0  0  0  0
  -19.6587   -6.5389   25.1213 C   0  0  0  0  0  0  0  0  0  0  0  0
  -19.9912   -7.8474   23.1177 C   0  0  0  0  0  0  0  0  0  0  0  0
  -24.6269  -11.6937   20.7442 C   0  0  0  0  0  0  0  0  0  0  0  0
  -25.3712  -13.7627   20.7347 C   0  0  0  0  0  0  0  0  0  0  0  0
  -30.4529  -15.2651   21.6698 C   0  0  0  0  0  0  0  0  0  0  0  0
  -28.4802  -16.2361   23.5738 C   0  0  0  0  0  0  0  0  0  0  0  0
  -23.0982  -13.5052   21.7425 C   0  0  0  0  0  0  0  0  0  0  0  0
  -30.9218  -14.4295   20.5406 C   0  0  0  0  0  0  0  0  0  0  0  0
  -24.1328  -25.5110   23.2004 C   0  0  0  0  0  0  0  0  0  0  0  0
  -24.0689  -28.5859   22.1695 C   0  0  0  0  0  0  0  0  0  0  0  0
  -25.6266  -31.1072   20.4773 C   0  0  0  0  0  0  0  0  0  0  0  0
  -21.6936  -22.6831   26.6805 C   0  0  0  0  0  0  0  0  0  0  0  0
  -26.3615  -26.3615   24.0159 C   0  0  0  0  0  0  0  0  0  0  0  0
  -25.8669  -27.1068   21.1973 C   0  0  0  0  0  0  0  0  0  0  0  0
  -21.3747  -23.9425   25.8790 C   0  0  0  0  0  0  0  0  0  0  0  0
  -29.3690  -12.5982   17.8776 C   0  0  0  0  0  0  0  0  0  0  0  0
  -21.6905  -23.7295   24.4019 C   0  0  0  0  0  0  0  0  0  0  0  0
  -27.9825  -12.2745   18.4332 C   0  0  0  0  0  0  0  0  0  0  0  0
  -30.4264  -12.5917   18.9768 C   0  0  0  0  0  0  0  0  0  0  0  0
  -28.7244  -13.1830   20.6803 C   0  0  0  0  0  0  0  0  0  0  0  0
  -23.1813  -23.4373   24.1931 C   0  0  1  0  0  0  0  0  0  0  0  0
  -24.9668  -26.7210   23.5132 C   0  0  1  0  0  0  0  0  0  0  0  0
  -27.6252  -13.2075   19.6039 C   0  0  2  0  0  0  0  0  0  0  0  0
  -28.7174  -16.9336   24.8802 C   0  0  0  0  0  0  0  0  0  0  0  0
  -25.3109  -33.4943   19.7705 C   0  0  0  0  0  0  0  0  0  0  0  0
  -22.1434  -27.6812   19.9824 C   0  0  0  0  0  0  0  0  0  0  0  0
  -22.6114  -29.8265   18.7796 C   0  0  0  0  0  0  0  0  0  0  0  0
  -21.5632  -29.8705   21.0428 C   0  0  0  0  0  0  0  0  0  0  0  0
  -27.9996  -31.9954   22.0066 C   0  0  0  0  0  0  0  0  0  0  0  0
  -26.7553  -20.4683   21.7046 C   0  0  0  0  0  0  0  0  0  0  0  0
  -30.1396  -21.9811   18.6710 C   0  0  0  0  0  0  0  0  0  0  0  0
  -30.1275  -23.3192   17.9319 C   0  0  0  0  0  0  0  0  0  0  0  0
  -30.9175  -20.8905   17.9363 C   0  0  0  0  0  0  0  0  0  0  0  0
  -29.3249  -24.4024   18.6399 C   0  0  0  0  0  0  0  0  0  1  0  0
  -30.9310  -19.5871   18.7239 C   0  0  0  0  0  0  0  0  0  0  0  0
  -24.0065  -29.2600   20.8202 C   0  0  1  0  0  0  0  0  0  0  0  0
  -25.8674  -32.5625   20.8358 C   0  0  2  0  0  0  0  0  0  0  0  0
  -22.6023  -29.1419   20.1631 C   0  0  0  0  0  0  0  0  0  0  0  0
  -25.8323  -11.6130   20.1746 N   0  0  0  0  0  0  0  0  0  0  0  0
  -30.7347  -14.8118   22.8597 N   0  0  0  0  0  0  0  0  0  0  0  0
  -26.2595  -12.8872   20.1828 N   0  0  0  0  0  0  0  0  0  0  0  0
  -30.0393  -13.4588   20.0878 N   0  0  0  0  0  0  0  0  0  0  0  0
  -24.9971  -27.5434   22.3020 N   0  0  0  0  0  0  0  0  0  0  0  0
  -25.6415  -15.0824   20.8230 N   0  0  0  0  0  0  0  0  0  0  0  0
  -22.0827  -12.5943   22.0643 N   0  0  0  0  0  0  0  0  0  0  0  0
  -23.9520  -24.6595   24.2737 N   0  0  0  0  0  0  0  0  0  0  0  0
  -24.4552  -30.6325   21.0284 N   0  0  0  0  0  0  0  0  0  0  0  0
  -27.3274  -32.8269   20.9752 N   0  3  0  0  0  0  0  0  0  0  0  0
  -28.0500  -15.0832   23.6098 O   0  0  0  0  0  0  0  0  0  0  0  0
  -22.9340  -14.7226   21.9963 O   0  0  0  0  0  0  0  0  0  0  0  0
  -32.0444  -14.6858   20.1255 O   0  0  0  0  0  0  0  0  0  0  0  0
  -23.6851  -25.3616   22.0695 O   0  0  0  0  0  0  0  0  0  0  0  0
  -23.3267  -28.9749   23.0747 O   0  0  0  0  0  0  0  0  0  0  0  0
  -26.3984  -30.4576   19.7752 O   0  0  0  0  0  0  0  0  0  0  0  0
  -21.5332   -7.0868   21.4318 O   0  0  0  0  0  0  0  0  0  0  0  0
  -27.7058  -20.0624   20.7217 O   0  0  0  0  0  0  0  0  0  0  0  0
  -29.8814  -24.6100   19.9374 O   0  0  0  0  0  0  0  0  0  1  0  0
  -29.5933  -19.1400   18.8957 O   0  0  0  0  0  0  0  0  0  0  0  0
  -19.0563   -6.3617   26.3044 F   0  0  0  0  0  0  0  0  0  0  0  0
  -19.7041   -8.9295   22.3812 F   0  0  0  0  0  0  0  0  0  0  0  0
  1  2  1  0  0  0  0
  1  5  2  0  0  0  0
  2  6  2  0  0  0  0
  3  8  2  0  0  0  0
  3 17  1  0  0  0  0
  4  9  1  0  0  0  0
  4 17  2  0  0  0  0
  5 21  1  0  0  0  0
  6 23  1  0  0  0  0
  7 10  2  0  0  0  0
  7 22  1  0  0  0  0
  8 25  1  0  0  0  0
  9 25  2  0  0  0  0
 10 26  1  0  0  0  0
 11 12  2  0  0  0  0
 11 27  1  0  0  0  0
 12 30  1  0  0  0  0
 13 18  2  0  0  0  0
 13 29  1  0  0  0  0
 14 19  2  0  0  0  0
 14 28  1  0  0  0  0
 15 24  1  0  0  0  0
 15 26  2  0  0  0  0
 16 30  2  0  0  0  0
 16 31  1  0  0  0  0
 17 32  1  0  0  0  0
 18 19  1  0  0  0  0
 18 34  1  0  0  0  0
 19 35  1  0  0  0  0
 20 32  1  0  0  0  0
 20 33  2  0  0  0  0
 20 36  1  0  0  0  0
 21 23  2  0  0  0  0
 21 41  1  0  0  0  0
 22 24  2  0  0  0  0
 22 42  1  0  0  0  0
 23 50  1  0  0  0  0
 24 43  1  0  0  0  0
 25 84  1  0  0  0  0
 26 86  1  0  0  0  0
 27 31  2  0  0  0  0
 27 84  1  0  0  0  0
 28 29  2  0  0  0  0
 28 85  1  0  0  0  0
 29 87  1  0  0  0  0
 30 88  1  0  0  0  0
 31 89  1  0  0  0  0
 32 68  2  0  0  0  0
 33 70  1  0  0  0  0
 33 73  1  0  0  0  0
 34 37  1  0  0  0  0
 34 69  2  0  0  0  0
 35 53  1  0  0  0  0
 35 78  2  0  0  0  0
 36 74  1  0  0  0  0
 36 79  2  0  0  0  0
 37 71  1  0  0  0  0
 37 80  2  0  0  0  0
 38 51  1  0  0  0  0
 38 75  1  0  0  0  0
 38 81  2  0  0  0  0
 39 65  1  0  0  0  0
 39 72  1  0  0  0  0
 39 82  2  0  0  0  0
 40 66  1  0  0  0  0
 40 76  1  0  0  0  0
 40 83  2  0  0  0  0
 41 44  1  0  0  0  0
 42 51  1  0  0  0  0
 43 72  1  0  0  0  0
 44 46  1  0  0  0  0
 45 47  1  0  0  0  0
 45 48  1  0  0  0  0
 46 50  1  0  0  0  0
 47 52  1  0  0  0  0
 48 71  1  0  0  0  0
 49 52  1  0  0  0  0
 49 71  1  0  0  0  0
 50 75  1  0  0  0  0
 51 72  1  0  0  0  0
 52 70  1  0  0  0  0
 54 66  1  0  0  0  0
 55 67  1  0  0  0  0
 56 67  1  0  0  0  0
 57 67  1  0  0  0  0
 58 77  1  0  0  0  0
 59 85  1  0  0  0  0
 60 61  1  0  0  0  0
 60 62  1  0  0  0  0
 61 63  1  0  0  0  0
 62 64  1  0  0  0  0
 63 86  1  0  0  0  0
 64 87  1  0  0  0  0
 65 67  1  0  0  0  0
 65 76  1  0  0  0  0
 66 77  1  0  0  0  0
 68 70  1  0  0  0  0
M  CHG  1  77   1
M  ISO  4  34 100  37 100  63 101  86 101
M  END
> <Batch ID>
0111

> <Smiles>
CNC(C)C(=O)NC(C(=O)N1Cc2cc([101O:1][101CH2:1]CCCCOc3cc([100C:0](=N)[100C:0](=O)N4CCCC(n5nc(-c6ccc(Oc7ccc(F)cc7F)cc6)c(C(N)=O)c5N)C4)c(C(C)=O)cc3OC)ccc2CC1C(=O)NC1CCCc2ccccc21)C(C)(C)C

> <Shape>
0.295

> <Color>
0.196

> <Negative vol penalty>
0.000

$$$$

  -OEChem-04052301283D

 85 93  0     1  0  0  0  0  0999 V2000
  -24.1729  -35.1124   19.7826 C   0  0  0  0  0  0  0  0  0  0  0  0
  -25.0179  -34.0394   20.0474 C   0  0  0  0  0  0  0  0  0  0  0  0
  -22.9032  -10.9538   22.8238 C   0  0  0  0  0  0  0  0  0  0  0  0
  -25.2373  -10.6939   22.2568 C   0  0  0  0  0  0  0  0  0  0  0  0
  -22.9147  -35.1714   20.3804 C   0  0  0  0  0  0  0  0  0  0  0  0
  -24.6056  -33.0253   20.9111 C   0  0  0  0  0  0  0  0  0  0  0  0
  -25.6389  -28.4044   19.1153 C   0  0  0  0  0  0  0  0  0  0  0  0
  -22.6721   -9.6211   22.4833 C   0  0  0  0  0  0  0  0  0  0  0  0
  -25.0062   -9.3611   21.9163 C   0  0  0  0  0  0  0  0  0  0  0  0
  -26.9543  -27.9566   19.2291 C   0  0  0  0  0  0  0  0  0  0  0  0
  -23.1361   -6.5768   23.8798 C   0  0  0  0  0  0  0  0  0  0  0  0
  -22.3597   -5.8109   24.7494 C   0  0  0  0  0  0  0  0  0  0  0  0
  -26.3391  -26.6613   21.1690 C   0  0  0  0  0  0  0  0  0  0  0  0
  -29.9353  -18.2708   20.6544 C   0  0  0  0  0  0  0  0  0  0  0  0
  -30.5643  -20.4995   21.3038 C   0  0  0  0  0  0  0  0  0  0  0  0
  -20.7631   -5.4193   22.9788 C   0  0  0  0  0  0  0  0  0  0  0  0
  -24.1859  -11.4902   22.7105 C   0  0  0  0  0  0  0  0  0  0  0  0
  -24.7884  -13.3716   24.3246 C   0  0  0  0  0  0  0  0  0  0  0  0
  -22.4829  -34.1526   21.2443 C   0  0  0  0  0  0  0  0  0  0  0  0
  -24.6645  -27.9920   20.0355 C   0  0  0  0  0  0  0  0  0  0  0  0
  -23.3409  -33.0714   21.5220 C   0  0  0  0  0  0  0  0  0  0  0  0
  -25.0115  -27.1034   21.0632 C   0  0  0  0  0  0  0  0  0  0  0  0
  -30.6367  -19.1246   21.4984 C   0  0  0  0  0  0  0  0  0  0  0  0
  -23.7235   -8.8247   22.0296 C   0  0  0  0  0  0  0  0  0  0  0  0
  -27.3052  -27.0872   20.2577 C   0  0  0  0  0  0  0  0  0  0  0  0
  -22.7260   -6.7641   22.5598 C   0  0  0  0  0  0  0  0  0  0  0  0
  -21.1732   -5.2321   24.2989 C   0  0  0  0  0  0  0  0  0  0  0  0
  -21.5396   -6.1853   22.1093 C   0  0  0  0  0  0  0  0  0  0  0  0
  -24.4252  -12.8671   23.0615 C   0  0  0  0  0  0  0  0  0  0  0  0
  -29.1820  -18.8373   19.6389 C   0  0  0  0  0  0  0  0  0  0  0  0
  -29.7830  -20.9662   20.2590 C   0  0  0  0  0  0  0  0  0  0  0  0
  -24.8943  -14.7278   24.1351 C   0  0  0  0  0  0  0  0  0  0  0  0
  -25.0104  -12.6764   25.5587 C   0  0  0  0  0  0  0  0  0  0  0  0
  -30.0165  -24.7207   20.3468 C   0  0  0  0  0  0  0  0  0  0  0  0
  -30.3503  -23.3346   20.8173 C   0  0  0  0  0  0  0  0  0  0  0  0
  -22.8116  -29.4695   22.1539 C   0  0  0  0  0  0  0  0  0  0  0  0
  -21.5147  -26.5161   22.4970 C   0  0  0  0  0  0  0  0  0  0  0  0
  -21.8858  -23.1366   22.1999 C   0  0  0  0  0  0  0  0  0  0  0  0
  -26.0129  -18.0961   19.3128 C   0  0  0  0  0  0  0  0  0  0  0  0
  -21.1330  -34.2838   21.9038 C   0  0  0  0  0  0  0  0  0  0  0  0
  -23.2442  -28.4631   19.8832 C   0  0  0  0  0  0  0  0  0  0  0  0
  -23.9985  -26.6148   22.0648 C   0  0  0  0  0  0  0  0  0  0  0  0
  -20.6238  -32.9803   22.5137 C   0  0  0  0  0  0  0  0  0  0  0  0
  -23.1611  -18.2782   21.4367 C   0  0  0  0  0  0  0  0  0  0  0  0
  -21.7252  -32.3038   23.3237 C   0  0  0  0  0  0  0  0  0  0  0  0
  -23.1945  -16.9576   22.2079 C   0  0  0  0  0  0  0  0  0  0  0  0
  -23.6314  -18.1016   19.9946 C   0  0  0  0  0  0  0  0  0  0  0  0
  -24.9842  -16.1385   20.6189 C   0  0  0  0  0  0  0  0  0  0  0  0
  -22.9198  -31.9395   22.4339 C   0  0  1  0  0  0  0  0  0  0  0  0
  -22.4461  -28.3843   21.1810 C   0  0  1  0  0  0  0  0  0  0  0  0
  -24.5717  -16.2766   22.0944 C   0  0  2  0  0  0  0  0  0  0  0  0
  -31.4631  -18.5683   22.6076 C   0  0  0  0  0  0  0  0  0  0  0  0
  -20.6666  -20.9788   22.5935 C   0  0  0  0  0  0  0  0  0  0  0  0
  -22.0267  -26.7763   25.4936 C   0  0  0  0  0  0  0  0  0  0  0  0
  -21.6919  -24.3033   25.6949 C   0  0  0  0  0  0  0  0  0  0  0  0
  -19.8247  -25.7520   24.8966 C   0  0  0  0  0  0  0  0  0  0  0  0
  -22.0061  -22.4112   19.3331 C   0  0  0  0  0  0  0  0  0  0  0  0
  -28.4168  -17.9512   18.7133 C   0  0  0  0  0  0  0  0  0  0  0  0
  -28.7851  -25.3547   20.9393 C   0  0  0  0  0  0  0  0  0  1  0  0
  -21.7964  -25.3201   23.3741 C   0  0  1  0  0  0  0  0  0  0  0  0
  -20.9891  -22.0746   21.5895 C   0  0  2  0  0  0  0  0  0  0  0  0
  -21.3547  -25.5485   24.8472 C   0  0  0  0  0  0  0  0  0  0  0  0
  -24.3080  -13.8248   22.1380 N   0  0  0  0  0  0  0  0  0  0  0  0
  -29.0875  -20.1677   19.4186 N   0  0  0  0  0  0  0  0  0  0  0  0
  -24.5992  -14.9448   22.8213 N   0  0  0  0  0  0  0  0  0  0  0  0
  -22.6242  -27.1087   21.8776 N   0  0  0  0  0  0  0  0  0  0  0  0
  -24.9438  -17.4518   19.9570 N   0  0  0  0  0  0  0  0  0  0  0  0
  -25.2100  -15.7440   24.9658 N   0  0  0  0  0  0  0  0  0  0  0  0
  -24.8590  -11.2832   25.5774 N   0  0  0  0  0  0  0  0  0  0  0  0
  -29.7163  -22.3662   20.0691 N   0  0  0  0  0  0  0  0  0  0  0  0
  -22.6315  -30.7488   21.6635 N   0  0  0  0  0  0  0  0  0  0  0  0
  -21.1552  -24.1800   22.7279 N   0  0  0  0  0  0  0  0  0  0  0  0
  -27.2236  -17.4143   19.3287 N   0  0  0  0  0  0  0  0  0  0  0  0
  -21.6536  -21.4508   20.4104 N   0  3  0  0  0  0  0  0  0  0  0  0
  -25.3174  -13.2748   26.6176 O   0  0  0  0  0  0  0  0  0  0  0  0
  -30.7488  -25.2251   19.5089 O   0  0  0  0  0  0  0  0  0  0  0  0
  -31.0915  -23.2488   21.7822 O   0  0  0  0  0  0  0  0  0  0  0  0
  -23.2248  -29.1685   23.2676 O   0  0  0  0  0  0  0  0  0  0  0  0
  -20.3523  -26.9056   22.3605 O   0  0  0  0  0  0  0  0  0  0  0  0
  -23.1116  -23.0476   22.2108 O   0  0  0  0  0  0  0  0  0  0  0  0
  -25.8985  -19.1997   18.7688 O   0  0  0  0  0  0  0  0  0  0  0  0
  -23.4984   -7.5241   21.6975 O   0  0  0  0  0  0  0  0  0  0  0  0
  -28.5886  -26.6490   20.3714 O   0  0  0  0  0  0  0  0  0  1  0  0
  -20.4285   -4.4954   25.1336 F   0  0  0  0  0  0  0  0  0  0  0  0
  -21.1411   -6.3606   20.8419 F   0  0  0  0  0  0  0  0  0  0  0  0
  1  2  1  0  0  0  0
  1  5  2  0  0  0  0
  2  6  2  0  0  0  0
  3  8  2  0  0  0  0
  3 17  1  0  0  0  0
  4  9  1  0  0  0  0
  4 17  2  0  0  0  0
  5 19  1  0  0  0  0
  6 21  1  0  0  0  0
  7 10  2  0  0  0  0
  7 20  1  0  0  0  0
  8 24  1  0  0  0  0
  9 24  2  0  0  0  0
 10 25  1  0  0  0  0
 11 12  2  0  0  0  0
 11 26  1  0  0  0  0
 12 27  1  0  0  0  0
 13 22  1  0  0  0  0
 13 25  2  0  0  0  0
 14 23  1  0  0  0  0
 14 30  2  0  0  0  0
 15 23  2  0  0  0  0
 15 31  1  0  0  0  0
 16 27  2  0  0  0  0
 16 28  1  0  0  0  0
 17 29  1  0  0  0  0
 18 29  1  0  0  0  0
 18 32  2  0  0  0  0
 18 33  1  0  0  0  0
 19 21  2  0  0  0  0
 19 40  1  0  0  0  0
 20 22  2  0  0  0  0
 20 41  1  0  0  0  0
 21 49  1  0  0  0  0
 22 42  1  0  0  0  0
 23 52  1  0  0  0  0
 24 82  1  0  0  0  0
 25 83  1  0  0  0  0
 26 28  2  0  0  0  0
 26 82  1  0  0  0  0
 27 84  1  0  0  0  0
 28 85  1  0  0  0  0
 29 63  2  0  0  0  0
 30 58  1  0  0  0  0
 30 64  1  0  0  0  0
 31 64  2  0  0  0  0
 31 70  1  0  0  0  0
 32 65  1  0  0  0  0
 32 68  1  0  0  0  0
 33 69  1  0  0  0  0
 33 75  2  0  0  0  0
 34 35  1  0  0  0  0
 34 59  1  0  0  0  0
 34 76  2  0  0  0  0
 35 70  1  0  0  0  0
 35 77  2  0  0  0  0
 36 50  1  0  0  0  0
 36 71  1  0  0  0  0
 36 78  2  0  0  0  0
 37 60  1  0  0  0  0
 37 66  1  0  0  0  0
 37 79  2  0  0  0  0
 38 61  1  0  0  0  0
 38 72  1  0  0  0  0
 38 80  2  0  0  0  0
 39 67  1  0  0  0  0
 39 73  1  0  0  0  0
 39 81  2  0  0  0  0
 40 43  1  0  0  0  0
 41 50  1  0  0  0  0
 42 66  1  0  0  0  0
 43 45  1  0  0  0  0
 44 46  1  0  0  0  0
 44 47  1  0  0  0  0
 45 49  1  0  0  0  0
 46 51  1  0  0  0  0
 47 67  1  0  0  0  0
 48 51  1  0  0  0  0
 48 67  1  0  0  0  0
 49 71  1  0  0  0  0
 50 66  1  0  0  0  0
 51 65  1  0  0  0  0
 53 61  1  0  0  0  0
 54 62  1  0  0  0  0
 55 62  1  0  0  0  0
 56 62  1  0  0  0  0
 57 74  1  0  0  0  0
 58 73  1  0  0  0  0
 59 83  1  0  0  0  0
 60 62  1  0  0  0  0
 60 72  1  0  0  0  0
 61 74  1  0  0  0  0
 63 65  1  0  0  0  0
M  CHG  1  74   1
M  ISO  4  39 100  59 101  73 100  83 101
M  END
> <Batch ID>
0111

> <Smiles>
CNC(C)C(=O)NC(C(=O)N1Cc2cc([101O:1][101CH2:1]C(=O)C(=O)Nc3cc(C)cc(C[100NH:0][100C:0](=O)N4CCCC(n5nc(-c6ccc(Oc7ccc(F)cc7F)cc6)c(C(N)=O)c5N)C4)n3)ccc2CC1C(=O)NC1CCCc2ccccc21)C(C)(C)C

> <Shape>
0.207

> <Color>
0.084

> <Negative vol penalty>
0.000

$$$$

  -OEChem-04052301283D

 85 93  0     1  0  0  0  0  0999 V2000
  -17.9819  -27.3063   19.2726 C   0  0  0  0  0  0  0  0  0  0  0  0
  -19.3643  -27.1520   19.2502 C   0  0  0  0  0  0  0  0  0  0  0  0
  -23.2904   -9.3911   20.6335 C   0  0  0  0  0  0  0  0  0  0  0  0
  -23.2662  -11.0266   22.4116 C   0  0  0  0  0  0  0  0  0  0  0  0
  -17.3534  -27.7828   20.4223 C   0  0  0  0  0  0  0  0  0  0  0  0
  -20.1192  -27.4753   20.3772 C   0  0  0  0  0  0  0  0  0  0  0  0
  -23.6197  -23.9739   21.4407 C   0  0  0  0  0  0  0  0  0  0  0  0
  -22.4334   -8.5753   21.3722 C   0  0  0  0  0  0  0  0  0  0  0  0
  -22.4092  -10.2108   23.1503 C   0  0  0  0  0  0  0  0  0  0  0  0
  -24.7814  -23.9802   20.6697 C   0  0  0  0  0  0  0  0  0  0  0  0
  -22.6669   -6.4195   23.9650 C   0  0  0  0  0  0  0  0  0  0  0  0
  -22.9677   -5.0593   24.0341 C   0  0  0  0  0  0  0  0  0  0  0  0
  -31.1236  -19.2996   20.4036 C   0  0  0  0  0  0  0  0  0  0  0  0
  -25.9407  -25.1431   22.4369 C   0  0  0  0  0  0  0  0  0  0  0  0
  -20.8410   -4.5371   23.0134 C   0  0  0  0  0  0  0  0  0  0  0  0
  -23.7069  -10.6167   21.1533 C   0  0  0  0  0  0  0  0  0  0  0  0
  -31.2508  -17.8808   20.3736 C   0  0  0  0  0  0  0  0  0  0  0  0
  -24.2302  -12.4585   19.4676 C   0  0  0  0  0  0  0  0  0  0  0  0
  -18.0999  -28.1030   21.5672 C   0  0  0  0  0  0  0  0  0  0  0  0
  -23.6069  -24.5628   22.7133 C   0  0  0  0  0  0  0  0  0  0  0  0
  -19.5002  -27.9579   21.5428 C   0  0  0  0  0  0  0  0  0  0  0  0
  -24.7783  -25.1407   23.2231 C   0  0  0  0  0  0  0  0  0  0  0  0
  -21.9927   -8.9851   22.6305 C   0  0  0  0  0  0  0  0  0  0  0  0
  -25.9413  -24.5674   21.1666 C   0  0  0  0  0  0  0  0  0  0  0  0
  -21.4531   -6.8386   23.4201 C   0  0  0  0  0  0  0  0  0  0  0  0
  -22.0548   -4.1181   23.5583 C   0  0  0  0  0  0  0  0  0  0  0  0
  -20.5402   -5.8974   22.9444 C   0  0  0  0  0  0  0  0  0  0  0  0
  -24.5926  -11.4596   20.3910 C   0  0  0  0  0  0  0  0  0  0  0  0
  -25.4268  -12.9633   19.0206 C   0  0  0  0  0  0  0  0  0  0  0  0
  -29.8851  -19.7175   19.9687 C   0  0  0  0  0  0  0  0  0  0  0  0
  -30.1044  -17.2682   19.9170 C   0  0  0  0  0  0  0  0  0  0  0  0
  -32.4131  -17.1713   20.7653 C   0  0  0  0  0  0  0  0  0  0  0  0
  -33.6671  -17.2610   20.2092 C   0  0  0  0  0  0  0  0  0  0  0  0
  -27.9401  -23.5242   20.5443 C   0  0  0  0  0  0  0  0  0  1  0  0
  -22.9284  -12.8913   19.0511 C   0  0  0  0  0  0  0  0  0  0  0  0
  -29.0887  -23.4137   19.8631 C   0  0  0  0  0  0  0  0  0  0  0  0
  -29.9654  -22.2248   20.1147 C   0  0  0  0  0  0  0  0  0  0  0  0
  -22.0237  -26.9706   24.0548 C   0  0  0  0  0  0  0  0  0  0  0  0
  -23.5179  -25.9422   26.7440 C   0  0  0  0  0  0  0  0  0  0  0  0
  -26.1471  -24.2728   28.1395 C   0  0  0  0  0  0  0  0  0  0  0  0
  -30.5976  -14.7983   19.9687 C   0  0  0  0  0  0  0  0  0  0  0  0
  -17.3809  -28.6594   22.7705 C   0  0  0  0  0  0  0  0  0  0  0  0
  -22.3530  -24.5240   23.5432 C   0  0  0  0  0  0  0  0  0  0  0  0
  -24.8224  -25.7682   24.5915 C   0  0  0  0  0  0  0  0  0  0  0  0
  -18.2149  -28.6243   24.0485 C   0  0  0  0  0  0  0  0  0  0  0  0
  -30.1571  -11.2787   19.6595 C   0  0  0  0  0  0  0  0  0  0  0  0
  -19.6225  -29.1482   23.7820 C   0  0  0  0  0  0  0  0  0  0  0  0
  -28.6404  -11.0942   19.7463 C   0  0  0  0  0  0  0  0  0  0  0  0
  -30.6469  -12.3914   20.5846 C   0  0  0  0  0  0  0  0  0  0  0  0
  -28.4462  -13.4960   20.5082 C   0  0  0  0  0  0  0  0  0  0  0  0
  -20.3509  -28.2743   22.7537 C   0  0  1  0  0  0  0  0  0  0  0  0
  -22.3132  -25.6074   24.6165 C   0  0  1  0  0  0  0  0  0  0  0  0
  -27.8978  -12.4298   19.5458 C   0  0  2  0  0  0  0  0  0  0  0  0
  -34.8650  -16.4843   20.6504 C   0  0  0  0  0  0  0  0  0  0  0  0
  -29.6110  -24.4290   18.8948 C   0  0  0  0  0  0  0  0  0  0  0  0
  -27.1165  -23.6316   30.3635 C   0  0  0  0  0  0  0  0  0  0  0  0
  -24.5276  -28.7963   27.1241 C   0  0  0  0  0  0  0  0  0  0  0  0
  -26.2085  -27.9104   28.7545 C   0  0  0  0  0  0  0  0  0  0  0  0
  -23.7705  -27.6692   29.2243 C   0  0  0  0  0  0  0  0  0  0  0  0
  -25.9025  -21.3842   27.5436 C   0  0  0  0  0  0  0  0  0  0  0  0
  -24.8316  -26.2497   27.4213 C   0  0  1  0  0  0  0  0  0  0  0  0
  -26.2052  -23.2096   29.2214 C   0  0  2  0  0  0  0  0  0  0  0  0
  -24.8335  -27.6464   28.1045 C   0  0  0  0  0  0  0  0  0  0  0  0
  -25.9159  -11.3356   20.5237 N   0  0  0  0  0  0  0  0  0  0  0  0
  -26.3955  -12.2632   19.6777 N   0  0  0  0  0  0  0  0  0  0  0  0
  -23.5693  -25.7108   25.3621 N   0  0  0  0  0  0  0  0  0  0  0  0
  -29.9014  -13.6270   20.3349 N   0  0  0  0  0  0  0  0  0  0  0  0
  -25.7344  -13.9333   18.1336 N   0  0  0  0  0  0  0  0  0  0  0  0
  -21.8057  -12.2658   19.6102 N   0  0  0  0  0  0  0  0  0  0  0  0
  -29.3392  -21.0178   19.8384 N   0  0  0  0  0  0  0  0  0  0  0  0
  -29.7810  -15.9021   19.7251 N   0  0  0  0  0  0  0  0  0  0  0  0
  -20.8252  -27.0549   23.3723 N   0  0  0  0  0  0  0  0  0  0  0  0
  -25.0916  -25.1392   28.3310 N   0  0  0  0  0  0  0  0  0  0  0  0
  -26.7175  -21.9274   28.6607 N   0  3  0  0  0  0  0  0  0  0  0  0
  -22.7656  -13.7945   18.1960 O   0  0  0  0  0  0  0  0  0  0  0  0
  -31.1248  -22.4047   20.4742 O   0  0  0  0  0  0  0  0  0  0  0  0
  -22.8275  -27.8791   24.2290 O   0  0  0  0  0  0  0  0  0  0  0  0
  -22.4852  -25.9015   27.4176 O   0  0  0  0  0  0  0  0  0  0  0  0
  -26.9591  -24.3313   27.2188 O   0  0  0  0  0  0  0  0  0  0  0  0
  -31.8257  -14.8135   19.8516 O   0  0  0  0  0  0  0  0  0  0  0  0
  -21.1563   -8.1895   23.3515 O   0  0  0  0  0  0  0  0  0  0  0  0
  -27.0763  -24.5755   20.4160 O   0  0  0  0  0  0  0  0  0  1  0  0
  -22.3445   -2.8119   23.6234 F   0  0  0  0  0  0  0  0  0  0  0  0
  -19.3730   -6.2940   22.4188 F   0  0  0  0  0  0  0  0  0  0  0  0
  -28.8819  -18.4020   19.5268 S   0  0  0  0  0  0  0  0  0  0  0  0
  1  2  1  0  0  0  0
  1  5  2  0  0  0  0
  2  6  2  0  0  0  0
  3  8  2  0  0  0  0
  3 16  1  0  0  0  0
  4  9  1  0  0  0  0
  4 16  2  0  0  0  0
  5 19  1  0  0  0  0
  6 21  1  0  0  0  0
  7 10  2  0  0  0  0
  7 20  1  0  0  0  0
  8 23  1  0  0  0  0
  9 23  2  0  0  0  0
 10 24  1  0  0  0  0
 11 12  2  0  0  0  0
 11 25  1  0  0  0  0
 12 26  1  0  0  0  0
 13 17  1  0  0  0  0
 13 30  2  0  0  0  0
 14 22  1  0  0  0  0
 14 24  2  0  0  0  0
 15 26  2  0  0  0  0
 15 27  1  0  0  0  0
 16 28  1  0  0  0  0
 17 31  2  0  0  0  0
 17 32  1  0  0  0  0
 18 28  1  0  0  0  0
 18 29  2  0  0  0  0
 18 35  1  0  0  0  0
 19 21  2  0  0  0  0
 19 42  1  0  0  0  0
 20 22  2  0  0  0  0
 20 43  1  0  0  0  0
 21 51  1  0  0  0  0
 22 44  1  0  0  0  0
 23 81  1  0  0  0  0
 24 82  1  0  0  0  0
 25 27  2  0  0  0  0
 25 81  1  0  0  0  0
 26 83  1  0  0  0  0
 27 84  1  0  0  0  0
 28 64  2  0  0  0  0
 29 65  1  0  0  0  0
 29 68  1  0  0  0  0
 30 70  1  0  0  0  0
 30 85  1  0  0  0  0
 31 71  1  0  0  0  0
 31 85  1  0  0  0  0
 32 33  2  0  0  0  0
 33 54  1  0  0  0  0
 34 36  2  0  0  0  0
 34 82  1  0  0  0  0
 35 69  1  0  0  0  0
 35 75  2  0  0  0  0
 36 37  1  0  0  0  0
 36 55  1  0  0  0  0
 37 70  1  0  0  0  0
 37 76  2  0  0  0  0
 38 52  1  0  0  0  0
 38 72  1  0  0  0  0
 38 77  2  0  0  0  0
 39 61  1  0  0  0  0
 39 66  1  0  0  0  0
 39 78  2  0  0  0  0
 40 62  1  0  0  0  0
 40 73  1  0  0  0  0
 40 79  2  0  0  0  0
 41 67  1  0  0  0  0
 41 71  1  0  0  0  0
 41 80  2  0  0  0  0
 42 45  1  0  0  0  0
 43 52  1  0  0  0  0
 44 66  1  0  0  0  0
 45 47  1  0  0  0  0
 46 48  1  0  0  0  0
 46 49  1  0  0  0  0
 47 51  1  0  0  0  0
 48 53  1  0  0  0  0
 49 67  1  0  0  0  0
 50 53  1  0  0  0  0
 50 67  1  0  0  0  0
 51 72  1  0  0  0  0
 52 66  1  0  0  0  0
 53 65  1  0  0  0  0
 56 62  1  0  0  0  0
 57 63  1  0  0  0  0
 58 63  1  0  0  0  0
 59 63  1  0  0  0  0
 60 74  1  0  0  0  0
 61 63  1  0  0  0  0
 61 73  1  0  0  0  0
 62 74  1  0  0  0  0
 64 65  1  0  0  0  0
M  CHG  1  74   1
M  ISO  4  34 101  41 100  71 100  82 101
M  END
> <Batch ID>
0111

> <Smiles>
CC=Cc1cc(NC(=O)C(C)=[101CH:1][101O:1]c2ccc3c(c2)CN(C(=O)C(NC(=O)C(C)NC)C(C)(C)C)C(C(=O)NC2CCCc4ccccc42)C3)sc1[100NH:0][100C:0](=O)N1CCCC(n2nc(-c3ccc(Oc4ccc(F)cc4F)cc3)c(C(N)=O)c2N)C1

> <Shape>
0.229

> <Color>
0.089

> <Negative vol penalty>
0.000

$$$$

  -OEChem-04052301283D

 85 93  0     1  0  0  0  0  0999 V2000
  -21.0471  -12.9414   19.8460 C   0  0  0  0  0  0  0  0  0  0  0  0
  -21.1881  -14.3250   19.8774 C   0  0  0  0  0  0  0  0  0  0  0  0
  -28.9869  -28.2568   19.4642 C   0  0  0  0  0  0  0  0  0  0  0  0
  -27.7018  -26.2576   19.8984 C   0  0  0  0  0  0  0  0  0  0  0  0
  -22.0691  -12.1265   20.3312 C   0  0  0  0  0  0  0  0  0  0  0  0
  -22.3509  -14.8947   20.3951 C   0  0  0  0  0  0  0  0  0  0  0  0
  -24.1298  -18.6497   17.5002 C   0  0  0  0  0  0  0  0  0  0  0  0
  -30.1573  -27.4985   19.4364 C   0  0  0  0  0  0  0  0  0  0  0  0
  -28.8722  -25.4992   19.8705 C   0  0  0  0  0  0  0  0  0  0  0  0
  -23.4907  -19.8850   17.5960 C   0  0  0  0  0  0  0  0  0  0  0  0
  -33.4416  -26.0381   18.8924 C   0  0  0  0  0  0  0  0  0  0  0  0
  -34.3512  -26.2868   17.8646 C   0  0  0  0  0  0  0  0  0  0  0  0
  -25.2451  -20.6732   19.0520 C   0  0  0  0  0  0  0  0  0  0  0  0
  -20.1639  -27.3106   21.6029 C   0  0  0  0  0  0  0  0  0  0  0  0
  -18.8961  -28.1139   23.4961 C   0  0  0  0  0  0  0  0  0  0  0  0
  -18.8968  -25.7595   22.9540 C   0  0  0  0  0  0  0  0  0  0  0  0
  -32.6653  -25.7097   16.2331 C   0  0  0  0  0  0  0  0  0  0  0  0
  -27.7592  -27.6364   19.6953 C   0  0  0  0  0  0  0  0  0  0  0  0
  -25.7080  -28.7243   18.6385 C   0  0  0  0  0  0  0  0  0  0  0  0
  -23.2490  -12.6862   20.8461 C   0  0  0  0  0  0  0  0  0  0  0  0
  -25.3278  -18.4128   18.1896 C   0  0  0  0  0  0  0  0  0  0  0  0
  -23.3891  -14.0865   20.8888 C   0  0  0  0  0  0  0  0  0  0  0  0
  -25.8988  -19.4348   18.9613 C   0  0  0  0  0  0  0  0  0  0  0  0
  -19.7410  -28.3631   22.4146 C   0  0  0  0  0  0  0  0  0  0  0  0
  -19.7418  -26.0087   21.8726 C   0  0  0  0  0  0  0  0  0  0  0  0
  -30.1000  -26.1197   19.6395 C   0  0  0  0  0  0  0  0  0  0  0  0
  -24.0467  -20.8960   18.3743 C   0  0  0  0  0  0  0  0  0  0  0  0
  -32.1439  -25.6251   18.5906 C   0  0  0  0  0  0  0  0  0  0  0  0
  -33.9630  -26.1226   16.5350 C   0  0  0  0  0  0  0  0  0  0  0  0
  -18.4740  -26.8120   23.7658 C   0  0  0  0  0  0  0  0  0  0  0  0
  -31.7557  -25.4610   17.2609 C   0  0  0  0  0  0  0  0  0  0  0  0
  -26.5499  -28.4192   19.7248 C   0  0  0  0  0  0  0  0  0  0  0  0
  -24.7049  -29.4868   19.1851 C   0  0  0  0  0  0  0  0  0  0  0  0
  -21.2605  -24.3722   21.4191 C   0  0  0  0  0  0  0  0  0  0  0  0
  -25.8225  -28.3516   17.2588 C   0  0  0  0  0  0  0  0  0  0  0  0
  -21.7752  -23.2367   20.5950 C   0  0  0  0  0  0  0  0  0  0  0  0
  -26.2428  -16.3959   20.4696 C   0  0  0  0  0  0  0  0  0  0  0  0
  -20.9816  -30.3445   23.2706 C   0  0  0  0  0  0  0  0  0  0  0  0
  -29.1662  -17.6752   19.8869 C   0  0  0  0  0  0  0  0  0  0  0  0
  -30.9956  -20.3058   18.7122 C   0  0  0  0  0  0  0  0  0  0  0  0
  -24.3064  -11.7659   21.4026 C   0  0  0  0  0  0  0  0  0  0  0  0
  -26.0188  -17.0837   18.0545 C   0  0  0  0  0  0  0  0  0  0  0  0
  -27.1938  -19.2379   19.7047 C   0  0  0  0  0  0  0  0  0  0  0  0
  -25.6632  -12.4399   21.5901 C   0  0  0  0  0  0  0  0  0  0  0  0
  -24.2944  -31.6264   23.7416 C   0  0  0  0  0  0  0  0  0  0  0  0
  -25.4969  -13.7936   22.2733 C   0  0  0  0  0  0  0  0  0  0  0  0
  -25.1129  -30.9087   22.6692 C   0  0  0  0  0  0  0  0  0  0  0  0
  -23.1965  -30.7272   24.3011 C   0  0  0  0  0  0  0  0  0  0  0  0
  -23.1002  -29.4452   22.1871 C   0  0  0  0  0  0  0  0  0  0  0  0
  -24.6457  -14.7415   21.4198 C   0  0  1  0  0  0  0  0  0  0  0  0
  -26.9669  -16.7828   19.2112 C   0  0  1  0  0  0  0  0  0  0  0  0
  -24.2009  -30.3287   21.5736 C   0  0  2  0  0  0  0  0  0  0  0  0
  -33.3638  -21.0755   18.4010 C   0  0  0  0  0  0  0  0  0  0  0  0
  -29.3620  -18.2719   22.8728 C   0  0  0  0  0  0  0  0  0  0  0  0
  -31.2435  -19.8434   22.3644 C   0  0  0  0  0  0  0  0  0  0  0  0
  -31.4723  -17.4155   21.8395 C   0  0  0  0  0  0  0  0  0  0  0  0
  -30.6716  -20.4928   15.7764 C   0  0  0  0  0  0  0  0  0  0  0  0
  -21.4388  -23.2950   19.1238 C   0  0  0  0  0  0  0  0  0  0  0  0
  -22.0024  -22.1109   18.3533 C   0  0  0  0  0  0  0  0  0  1  0  0
  -20.1937  -29.7550   22.1279 C   0  0  2  0  0  0  0  0  0  0  0  0
  -29.9453  -18.8509   20.4252 C   0  0  1  0  0  0  0  0  0  0  0  0
  -32.1793  -20.3658   17.7637 C   0  0  2  0  0  0  0  0  0  0  0  0
  -30.4804  -18.5988   21.8631 C   0  0  0  0  0  0  0  0  0  0  0  0
  -26.1192  -28.9452   20.8745 N   0  0  0  0  0  0  0  0  0  0  0  0
  -20.1679  -24.9484   21.0553 N   0  0  0  0  0  0  0  0  0  0  0  0
  -24.9958  -29.5884   20.5137 N   0  0  0  0  0  0  0  0  0  0  0  0
  -27.8281  -17.9188   19.5462 N   0  0  0  0  0  0  0  0  0  0  0  0
  -22.3660  -30.1783   23.2277 N   0  0  0  0  0  0  0  0  0  0  0  0
  -23.6112  -30.0735   18.6541 N   0  0  0  0  0  0  0  0  0  0  0  0
  -26.9147  -27.5654   16.8674 N   0  0  0  0  0  0  0  0  0  0  0  0
  -25.4312  -15.2859   20.3331 N   0  0  0  0  0  0  0  0  0  0  0  0
  -30.9849  -19.1361   19.4422 N   0  0  0  0  0  0  0  0  0  0  0  0
  -19.0795  -30.6963   21.7799 N   0  3  0  0  0  0  0  0  0  0  0  0
  -31.8087  -21.0957   16.5183 N   0  3  0  0  0  0  0  0  0  0  0  0
  -24.9899  -28.7190   16.3955 O   0  0  0  0  0  0  0  0  0  0  0  0
  -22.4326  -22.3748   21.1564 O   0  0  0  0  0  0  0  0  0  0  0  0
  -26.4093  -17.0548   21.4894 O   0  0  0  0  0  0  0  0  0  0  0  0
  -20.3829  -30.9372   24.1719 O   0  0  0  0  0  0  0  0  0  0  0  0
  -29.7263  -16.5828   19.7661 O   0  0  0  0  0  0  0  0  0  0  0  0
  -30.1657  -21.2081   18.7996 O   0  0  0  0  0  0  0  0  0  0  0  0
  -31.2418  -25.3794   19.6121 O   0  0  0  0  0  0  0  0  0  0  0  0
  -23.4246  -22.1025   18.4700 O   0  0  0  0  0  0  0  0  0  1  0  0
  -34.8361  -26.3630   15.5480 F   0  0  0  0  0  0  0  0  0  0  0  0
  -17.6638  -26.5724   24.8051 F   0  0  0  0  0  0  0  0  0  0  0  0
  -30.5100  -25.0656   16.9647 F   0  0  0  0  0  0  0  0  0  0  0  0
  1  2  1  0  0  0  0
  1  5  2  0  0  0  0
  2  6  2  0  0  0  0
  3  8  2  0  0  0  0
  3 18  1  0  0  0  0
  4  9  1  0  0  0  0
  4 18  2  0  0  0  0
  5 20  1  0  0  0  0
  6 22  1  0  0  0  0
  7 10  2  0  0  0  0
  7 21  1  0  0  0  0
  8 26  1  0  0  0  0
  9 26  2  0  0  0  0
 10 27  1  0  0  0  0
 11 12  2  0  0  0  0
 11 28  1  0  0  0  0
 12 29  1  0  0  0  0
 13 23  1  0  0  0  0
 13 27  2  0  0  0  0
 14 24  1  0  0  0  0
 14 25  2  0  0  0  0
 15 24  2  0  0  0  0
 15 30  1  0  0  0  0
 16 25  1  0  0  0  0
 16 30  2  0  0  0  0
 17 29  2  0  0  0  0
 17 31  1  0  0  0  0
 18 32  1  0  0  0  0
 19 32  1  0  0  0  0
 19 33  2  0  0  0  0
 19 35  1  0  0  0  0
 20 22  2  0  0  0  0
 20 41  1  0  0  0  0
 21 23  2  0  0  0  0
 21 42  1  0  0  0  0
 22 50  1  0  0  0  0
 23 43  1  0  0  0  0
 24 60  1  0  0  0  0
 25 65  1  0  0  0  0
 26 81  1  0  0  0  0
 27 82  1  0  0  0  0
 28 31  2  0  0  0  0
 28 81  1  0  0  0  0
 29 83  1  0  0  0  0
 30 84  1  0  0  0  0
 31 85  1  0  0  0  0
 32 64  2  0  0  0  0
 33 66  1  0  0  0  0
 33 69  1  0  0  0  0
 34 36  1  0  0  0  0
 34 65  2  0  0  0  0
 35 70  1  0  0  0  0
 35 75  2  0  0  0  0
 36 58  1  0  0  0  0
 36 76  2  0  0  0  0
 37 51  1  0  0  0  0
 37 71  1  0  0  0  0
 37 77  2  0  0  0  0
 38 60  1  0  0  0  0
 38 68  1  0  0  0  0
 38 78  2  0  0  0  0
 39 61  1  0  0  0  0
 39 67  1  0  0  0  0
 39 79  2  0  0  0  0
 40 62  1  0  0  0  0
 40 72  1  0  0  0  0
 40 80  2  0  0  0  0
 41 44  1  0  0  0  0
 42 51  1  0  0  0  0
 43 67  1  0  0  0  0
 44 46  1  0  0  0  0
 45 47  1  0  0  0  0
 45 48  1  0  0  0  0
 46 50  1  0  0  0  0
 47 52  1  0  0  0  0
 48 68  1  0  0  0  0
 49 52  1  0  0  0  0
 49 68  1  0  0  0  0
 50 71  1  0  0  0  0
 51 67  1  0  0  0  0
 52 66  1  0  0  0  0
 53 62  1  0  0  0  0
 54 63  1  0  0  0  0
 55 63  1  0  0  0  0
 56 63  1  0  0  0  0
 57 74  1  0  0  0  0
 58 59  1  0  0  0  0
 59 82  1  0  0  0  0
 60 73  1  0  0  0  0
 61 63  1  0  0  0  0
 61 72  1  0  0  0  0
 62 74  1  0  0  0  0
 64 66  1  0  0  0  0
M  CHG  2  73   1  74   1
M  ISO  4  38 100  59 101  60 100  82 101
M  END
> <Batch ID>
0111

> <Smiles>
CNC(C)C(=O)NC(C(=O)N1Cc2cc([101O:1][101CH2:1]CC(=O)CNc3cc(F)cc([100C:0](=N)[100C:0](=O)N4CCCC(n5nc(-c6ccc(Oc7ccc(F)cc7F)cc6)c(C(N)=O)c5N)C4)c3)ccc2CC1C(=O)NC1CCCc2ccccc21)C(C)(C)C

> <Shape>
0.237

> <Color>
0.064

> <Negative vol penalty>
0.000

$$$$

  -OEChem-04052301283D

 83 91  0     1  0  0  0  0  0999 V2000
  -33.3745  -29.9741   20.0569 C   0  0  0  0  0  0  0  0  0  0  0  0
  -32.5285  -28.8750   19.9475 C   0  0  0  0  0  0  0  0  0  0  0  0
  -23.8398   -9.1067   19.8695 C   0  0  0  0  0  0  0  0  0  0  0  0
  -24.2338   -9.3772   22.2377 C   0  0  0  0  0  0  0  0  0  0  0  0
  -33.0765  -30.9945   20.9590 C   0  0  0  0  0  0  0  0  0  0  0  0
  -31.3846  -28.7953   20.7409 C   0  0  0  0  0  0  0  0  0  0  0  0
  -27.3055  -27.3223   18.1263 C   0  0  0  0  0  0  0  0  0  0  0  0
  -23.6384   -7.7396   20.0590 C   0  0  0  0  0  0  0  0  0  0  0  0
  -24.0324   -8.0100   22.4274 C   0  0  0  0  0  0  0  0  0  0  0  0
  -27.1911  -25.9632   17.8373 C   0  0  0  0  0  0  0  0  0  0  0  0
  -21.4123   -5.8874   22.6509 C   0  0  0  0  0  0  0  0  0  0  0  0
  -20.6077   -5.4946   23.7205 C   0  0  0  0  0  0  0  0  0  0  0  0
  -25.6481  -25.7089   19.6741 C   0  0  0  0  0  0  0  0  0  0  0  0
  -30.5832  -18.7098   18.7766 C   0  0  0  0  0  0  0  0  0  0  0  0
  -22.4593   -4.2587   24.6594 C   0  0  0  0  0  0  0  0  0  0  0  0
  -24.1375   -9.9255   20.9588 C   0  0  0  0  0  0  0  0  0  0  0  0
  -23.3742  -12.3551   20.8093 C   0  0  0  0  0  0  0  0  0  0  0  0
  -31.9232  -30.9319   21.7570 C   0  0  0  0  0  0  0  0  0  0  0  0
  -26.5994  -27.8837   19.1999 C   0  0  0  0  0  0  0  0  0  0  0  0
  -31.0716  -29.8152   21.6555 C   0  0  0  0  0  0  0  0  0  0  0  0
  -25.7534  -27.0759   19.9730 C   0  0  0  0  0  0  0  0  0  0  0  0
  -31.2960  -17.5803   19.2728 C   0  0  0  0  0  0  0  0  0  0  0  0
  -23.7347   -7.1912   21.3380 C   0  0  0  0  0  0  0  0  0  0  0  0
  -26.3645  -25.1557   18.6131 C   0  0  0  0  0  0  0  0  0  0  0  0
  -22.7403   -5.4658   22.5855 C   0  0  0  0  0  0  0  0  0  0  0  0
  -21.1312   -4.6803   24.7247 C   0  0  0  0  0  0  0  0  0  0  0  0
  -23.2638   -4.6515   23.5898 C   0  0  0  0  0  0  0  0  0  0  0  0
  -24.3462  -11.3378   20.7635 C   0  0  0  0  0  0  0  0  0  0  0  0
  -30.5896  -16.9099   20.2471 C   0  0  0  0  0  0  0  0  0  0  0  0
  -24.0744  -13.5104   20.5617 C   0  0  0  0  0  0  0  0  0  0  0  0
  -29.3590  -18.8596   19.3904 C   0  0  0  0  0  0  0  0  0  0  0  0
  -27.3844  -21.7506   18.1259 C   0  0  0  0  0  0  0  0  0  0  0  0
  -27.3820  -23.0624   18.3821 C   0  0  0  0  0  0  0  0  0  1  0  0
  -21.9643  -12.2638   21.0537 C   0  0  0  0  0  0  0  0  0  0  0  0
  -27.4153  -29.3431   21.9032 C   0  0  0  0  0  0  0  0  0  0  0  0
  -24.2157  -29.8113   22.1597 C   0  0  0  0  0  0  0  0  0  0  0  0
  -29.7954  -14.8550   21.4206 C   0  0  0  0  0  0  0  0  0  0  0  0
  -21.0642  -28.8077   21.3185 C   0  0  0  0  0  0  0  0  0  0  0  0
  -31.6678  -32.0365   22.7516 C   0  0  0  0  0  0  0  0  0  0  0  0
  -26.7130  -29.3568   19.4820 C   0  0  0  0  0  0  0  0  0  0  0  0
  -24.9582  -27.6338   21.1241 C   0  0  0  0  0  0  0  0  0  0  0  0
  -30.2385  -32.0553   23.2873 C   0  0  0  0  0  0  0  0  0  0  0  0
  -27.9546  -15.1341   18.2964 C   0  0  0  0  0  0  0  0  0  0  0  0
  -29.8002  -30.6503   23.6882 C   0  0  0  0  0  0  0  0  0  0  0  0
  -26.7382  -14.2532   18.5786 C   0  0  0  0  0  0  0  0  0  0  0  0
  -29.2132  -14.5828   18.9612 C   0  0  0  0  0  0  0  0  0  0  0  0
  -27.8568  -13.4878   20.7177 C   0  0  0  0  0  0  0  0  0  0  0  0
  -29.8083  -29.7044   22.4812 C   0  0  1  0  0  0  0  0  0  0  0  0
  -26.3460  -29.7203   20.9174 C   0  0  1  0  0  0  0  0  0  0  0  0
  -26.5601  -14.0260   20.0900 C   0  0  2  0  0  0  0  0  0  0  0  0
  -32.6400  -17.1834   18.7896 C   0  0  0  0  0  0  0  0  0  0  0  0
  -18.6490  -29.3635   21.7122 C   0  0  0  0  0  0  0  0  0  0  0  0
  -31.8287  -16.0278   22.2488 C   0  0  0  0  0  0  0  0  0  0  0  0
  -24.3794  -28.5475   24.9320 C   0  0  0  0  0  0  0  0  0  0  0  0
  -21.8928  -28.2619   24.8723 C   0  0  0  0  0  0  0  0  0  0  0  0
  -22.8864  -30.5483   24.7841 C   0  0  0  0  0  0  0  0  0  0  0  0
  -20.5987  -29.3423   18.4451 C   0  0  0  0  0  0  0  0  0  0  0  0
  -28.6148  -20.9023   18.1660 C   0  0  0  0  0  0  0  0  0  0  0  0
  -23.0674  -29.0396   22.7635 C   0  0  1  0  0  0  0  0  0  0  0  0
  -19.8595  -29.5844   20.8186 C   0  0  2  0  0  0  0  0  0  0  0  0
  -30.9747  -15.6989   21.0070 C   0  0  2  0  0  0  0  0  0  0  0  0
  -23.0728  -29.0881   24.3176 C   0  0  0  0  0  0  0  0  0  0  0  0
  -25.5706  -11.8057   20.5069 N   0  0  0  0  0  0  0  0  0  0  0  0
  -25.3726  -13.1297   20.3891 N   0  0  0  0  0  0  0  0  0  0  0  0
  -25.1079  -29.0786   21.3640 N   0  0  0  0  0  0  0  0  0  0  0  0
  -28.9939  -14.3543   20.3944 N   0  0  0  0  0  0  0  0  0  0  0  0
  -23.7001  -14.8047   20.4769 N   0  0  0  0  0  0  0  0  0  0  0  0
  -21.4076  -10.9995   21.2900 N   0  0  0  0  0  0  0  0  0  0  0  0
  -28.4260  -19.8542   19.1376 N   0  0  0  0  0  0  0  0  0  0  0  0
  -28.6417  -29.9295   21.6549 N   0  0  0  0  0  0  0  0  0  0  0  0
  -21.8532  -29.5704   22.1534 N   0  0  0  0  0  0  0  0  0  0  0  0
  -19.5063  -29.1584   19.4349 N   0  3  0  0  0  0  0  0  0  0  0  0
  -21.2176  -13.2717   21.0462 O   0  0  0  0  0  0  0  0  0  0  0  0
  -27.1473  -28.5780   22.8221 O   0  0  0  0  0  0  0  0  0  0  0  0
  -24.3135  -31.0211   22.3798 O   0  0  0  0  0  0  0  0  0  0  0  0
  -29.5927  -14.6505   22.6202 O   0  0  0  0  0  0  0  0  0  0  0  0
  -21.2815  -27.6399   21.0031 O   0  0  0  0  0  0  0  0  0  0  0  0
  -31.7166  -14.7541   20.2075 O   0  0  0  0  0  0  0  0  0  0  0  0
  -23.5380   -5.8572   21.5234 O   0  0  0  0  0  0  0  0  0  0  0  0
  -26.2515  -23.8287   18.3336 O   0  0  0  0  0  0  0  0  0  1  0  0
  -20.3589   -4.3044   25.7526 F   0  0  0  0  0  0  0  0  0  0  0  0
  -24.5393   -4.2443   23.5330 F   0  0  0  0  0  0  0  0  0  0  0  0
  -29.0735  -17.6418   20.5599 S   0  0  0  0  0  0  0  0  0  0  0  0
  1  2  1  0  0  0  0
  1  5  2  0  0  0  0
  2  6  2  0  0  0  0
  3  8  2  0  0  0  0
  3 16  1  0  0  0  0
  4  9  1  0  0  0  0
  4 16  2  0  0  0  0
  5 18  1  0  0  0  0
  6 20  1  0  0  0  0
  7 10  2  0  0  0  0
  7 19  1  0  0  0  0
  8 23  1  0  0  0  0
  9 23  2  0  0  0  0
 10 24  1  0  0  0  0
 11 12  2  0  0  0  0
 11 25  1  0  0  0  0
 12 26  1  0  0  0  0
 13 21  1  0  0  0  0
 13 24  2  0  0  0  0
 14 22  1  0  0  0  0
 14 31  2  0  0  0  0
 15 26  2  0  0  0  0
 15 27  1  0  0  0  0
 16 28  1  0  0  0  0
 17 28  1  0  0  0  0
 17 30  2  0  0  0  0
 17 34  1  0  0  0  0
 18 20  2  0  0  0  0
 18 39  1  0  0  0  0
 19 21  2  0  0  0  0
 19 40  1  0  0  0  0
 20 48  1  0  0  0  0
 21 41  1  0  0  0  0
 22 29  2  0  0  0  0
 22 51  1  0  0  0  0
 23 79  1  0  0  0  0
 24 80  1  0  0  0  0
 25 27  2  0  0  0  0
 25 79  1  0  0  0  0
 26 81  1  0  0  0  0
 27 82  1  0  0  0  0
 28 63  2  0  0  0  0
 29 61  1  0  0  0  0
 29 83  1  0  0  0  0
 30 64  1  0  0  0  0
 30 67  1  0  0  0  0
 31 69  1  0  0  0  0
 31 83  1  0  0  0  0
 32 33  2  0  0  0  0
 32 58  1  0  0  0  0
 33 80  1  0  0  0  0
 34 68  1  0  0  0  0
 34 73  2  0  0  0  0
 35 49  1  0  0  0  0
 35 70  1  0  0  0  0
 35 74  2  0  0  0  0
 36 59  1  0  0  0  0
 36 65  1  0  0  0  0
 36 75  2  0  0  0  0
 37 61  1  0  0  0  0
 37 66  1  0  0  0  0
 37 76  2  0  0  0  0
 38 60  1  0  0  0  0
 38 71  1  0  0  0  0
 38 77  2  0  0  0  0
 39 42  1  0  0  0  0
 40 49  1  0  0  0  0
 41 65  1  0  0  0  0
 42 44  1  0  0  0  0
 43 45  1  0  0  0  0
 43 46  1  0  0  0  0
 44 48  1  0  0  0  0
 45 50  1  0  0  0  0
 46 66  1  0  0  0  0
 47 50  1  0  0  0  0
 47 66  1  0  0  0  0
 48 70  1  0  0  0  0
 49 65  1  0  0  0  0
 50 64  1  0  0  0  0
 52 60  1  0  0  0  0
 53 61  1  0  0  0  0
 54 62  1  0  0  0  0
 55 62  1  0  0  0  0
 56 62  1  0  0  0  0
 57 72  1  0  0  0  0
 58 69  1  0  0  0  0
 59 62  1  0  0  0  0
 59 71  1  0  0  0  0
 60 72  1  0  0  0  0
 61 78  1  0  0  0  0
 63 64  1  0  0  0  0
M  CHG  1  72   1
M  ISO  4  33 101  37 100  61 100  80 101
M  END
> <Batch ID>
0111

> <Smiles>
CNC(C)C(=O)NC(C(=O)N1Cc2cc([101O:1][101CH:1]=CCNc3cc(C)c([100C:0](C)(O)[100C:0](=O)N4CCCC(n5nc(-c6ccc(Oc7ccc(F)cc7F)cc6)c(C(N)=O)c5N)C4)s3)ccc2CC1C(=O)NC1CCCc2ccccc21)C(C)(C)C

> <Shape>
0.274

> <Color>
0.113

> <Negative vol penalty>
0.000

$$$$

  -OEChem-04052301283D

 87 95  0     1  0  0  0  0  0999 V2000
  -24.4687  -32.0384   14.1973 C   0  0  0  0  0  0  0  0  0  0  0  0
  -25.1449  -31.0535   14.9102 C   0  0  0  0  0  0  0  0  0  0  0  0
  -22.8467  -10.2480   22.0364 C   0  0  0  0  0  0  0  0  0  0  0  0
  -23.6490   -9.6139   19.8475 C   0  0  0  0  0  0  0  0  0  0  0  0
  -24.1823  -33.2620   14.8013 C   0  0  0  0  0  0  0  0  0  0  0  0
  -25.5362  -31.2921   16.2271 C   0  0  0  0  0  0  0  0  0  0  0  0
  -24.5368  -27.3843   19.2891 C   0  0  0  0  0  0  0  0  0  0  0  0
  -22.2369   -9.0012   22.1741 C   0  0  0  0  0  0  0  0  0  0  0  0
  -23.0392   -8.3669   19.9852 C   0  0  0  0  0  0  0  0  0  0  0  0
  -25.4057  -26.2953   19.2358 C   0  0  0  0  0  0  0  0  0  0  0  0
  -23.1707   -5.8422   22.9371 C   0  0  0  0  0  0  0  0  0  0  0  0
  -23.3290   -5.1738   24.1510 C   0  0  0  0  0  0  0  0  0  0  0  0
  -29.1994  -17.1551   19.1373 C   0  0  0  0  0  0  0  0  0  0  0  0
  -26.9636  -18.7451   18.6320 C   0  0  0  0  0  0  0  0  0  0  0  0
  -26.5159  -27.0916   21.2239 C   0  0  0  0  0  0  0  0  0  0  0  0
  -20.9339   -5.1821   24.4679 C   0  0  0  0  0  0  0  0  0  0  0  0
  -23.5527  -10.5544   20.8730 C   0  0  0  0  0  0  0  0  0  0  0  0
  -28.2818  -16.7769   18.1573 C   0  0  0  0  0  0  0  0  0  0  0  0
  -27.1639  -17.5719   17.9046 C   0  0  0  0  0  0  0  0  0  0  0  0
  -25.4918  -12.1953   21.1075 C   0  0  0  0  0  0  0  0  0  0  0  0
  -24.5618  -33.5121   16.1295 C   0  0  0  0  0  0  0  0  0  0  0  0
  -24.6581  -28.3426   20.3056 C   0  0  0  0  0  0  0  0  0  0  0  0
  -25.2559  -32.5207   16.8490 C   0  0  0  0  0  0  0  0  0  0  0  0
  -25.6457  -28.1905   21.2893 C   0  0  0  0  0  0  0  0  0  0  0  0
  -22.3331   -8.0606   21.1486 C   0  0  0  0  0  0  0  0  0  0  0  0
  -26.3973  -26.1503   20.2017 C   0  0  0  0  0  0  0  0  0  0  0  0
  -21.8940   -6.1807   22.4886 C   0  0  0  0  0  0  0  0  0  0  0  0
  -28.9992  -18.3283   19.8647 C   0  0  0  0  0  0  0  0  0  0  0  0
  -27.8812  -19.1233   19.6121 C   0  0  0  0  0  0  0  0  0  0  0  0
  -22.2106   -4.8437   24.9165 C   0  0  0  0  0  0  0  0  0  0  0  0
  -20.7756   -5.8507   23.2540 C   0  0  0  0  0  0  0  0  0  0  0  0
  -24.1824  -11.8425   20.7299 C   0  0  0  0  0  0  0  0  0  0  0  0
  -25.6032  -13.5203   20.7635 C   0  0  0  0  0  0  0  0  0  0  0  0
  -29.6177  -15.3194   16.7059 C   0  0  0  0  0  0  0  0  0  0  0  0
  -28.5232  -15.5451   17.4164 C   0  0  0  0  0  0  0  0  0  0  0  0
  -26.1805  -17.2106   16.8900 C   0  0  0  0  0  0  0  0  0  0  0  0
  -26.5160  -11.3966   21.7148 C   0  0  0  0  0  0  0  0  0  0  0  0
  -24.7575  -17.5969   17.0276 C   0  0  0  0  0  0  0  0  0  0  0  0
  -25.2796  -31.4588   20.3880 C   0  0  0  0  0  0  0  0  0  0  0  0
  -27.4217  -22.6745   20.2004 C   0  0  0  0  0  0  0  0  0  0  0  0
  -24.6367  -31.1074   23.5480 C   0  0  0  0  0  0  0  0  0  0  0  0
  -24.4792  -29.0422   26.2603 C   0  0  0  0  0  0  0  0  0  0  0  0
  -24.2720  -34.8675   16.7242 C   0  0  0  0  0  0  0  0  0  0  0  0
  -23.6960  -29.4973   20.3643 C   0  0  0  0  0  0  0  0  0  0  0  0
  -25.8049  -29.1807   22.4130 C   0  0  0  0  0  0  0  0  0  0  0  0
  -24.3905  -34.9029   18.2457 C   0  0  0  0  0  0  0  0  0  0  0  0
  -22.1043  -16.8658   19.3260 C   0  0  0  0  0  0  0  0  0  0  0  0
  -25.6722  -34.2103   18.6977 C   0  0  0  0  0  0  0  0  0  0  0  0
  -22.4975  -15.5040   19.8975 C   0  0  0  0  0  0  0  0  0  0  0  0
  -22.5190  -16.9986   17.8642 C   0  0  0  0  0  0  0  0  0  0  0  0
  -24.3733  -15.3862   18.1966 C   0  0  0  0  0  0  0  0  0  0  0  0
  -25.6749  -32.7327   18.2876 C   0  0  1  0  0  0  0  0  0  0  0  0
  -24.2385  -30.6878   21.1491 C   0  0  1  0  0  0  0  0  0  0  0  0
  -23.9953  -15.2253   19.6794 C   0  0  2  0  0  0  0  0  0  0  0  0
  -23.9581  -29.0506   28.7151 C   0  0  0  0  0  0  0  0  0  0  0  0
  -27.3372  -32.4099   24.1143 C   0  0  0  0  0  0  0  0  0  0  0  0
  -27.1864  -31.5413   26.4576 C   0  0  0  0  0  0  0  0  0  0  0  0
  -25.4828  -33.1578   25.6164 C   0  0  0  0  0  0  0  0  0  0  0  0
  -22.2452  -27.1327   25.9109 C   0  0  0  0  0  0  0  0  0  0  0  0
  -30.9911  -19.5095   20.4057 C   0  0  0  0  0  0  0  0  0  0  0  0
  -26.7443  -23.8805   19.5825 C   0  0  0  0  0  0  0  0  0  1  0  0
  -26.9860  -21.3259   19.6652 C   0  0  0  0  0  0  0  0  0  0  0  0
  -25.4518  -30.7742   24.7742 C   0  0  1  0  0  0  0  0  0  0  0  0
  -23.4045  -28.8433   27.3139 C   0  0  2  0  0  0  0  0  0  0  0  0
  -26.3631  -31.9530   25.2185 C   0  0  0  0  0  0  0  0  0  0  0  0
  -23.5099  -12.8613   20.1877 N   0  0  0  0  0  0  0  0  0  0  0  0
  -26.4807  -16.5388   15.8141 N   0  0  0  0  0  0  0  0  0  0  0  0
  -24.4004  -13.8673   20.2222 N   0  0  0  0  0  0  0  0  0  0  0  0
  -23.9371  -16.6925   17.6872 N   0  0  0  0  0  0  0  0  0  0  0  0
  -24.8440  -30.2960   22.4235 N   0  0  0  0  0  0  0  0  0  0  0  0
  -26.6117  -14.4109   20.8743 N   0  0  0  0  0  0  0  0  0  0  0  0
  -26.2344  -10.0539   22.0014 N   0  0  0  0  0  0  0  0  0  0  0  0
  -24.8367  -31.9594   19.1786 N   0  0  0  0  0  0  0  0  0  0  0  0
  -24.5004  -30.3384   25.7908 N   0  0  0  0  0  0  0  0  0  0  0  0
  -22.8446  -27.4648   27.2290 N   0  3  0  0  0  0  0  0  0  0  0  0
  -27.6419  -11.8642   22.0100 O   0  0  0  0  0  0  0  0  0  0  0  0
  -24.4554  -18.6789   16.5414 O   0  0  0  0  0  0  0  0  0  0  0  0
  -26.4012  -31.5912   20.8636 O   0  0  0  0  0  0  0  0  0  0  0  0
  -28.2723  -22.7837   21.0822 O   0  0  0  0  0  0  0  0  0  0  0  0
  -23.8401  -32.0484   23.5888 O   0  0  0  0  0  0  0  0  0  0  0  0
  -25.2276  -28.1389   25.8935 O   0  0  0  0  0  0  0  0  0  0  0  0
  -21.7384   -6.8437   21.2828 O   0  0  0  0  0  0  0  0  0  0  0  0
  -29.9020  -18.6871   20.8199 O   0  0  0  0  0  0  0  0  0  0  0  0
  -27.2471  -25.0887   20.1517 O   0  0  0  0  0  0  0  0  0  1  0  0
  -27.6728  -20.2818   20.3224 O   0  0  0  0  0  0  0  0  0  0  0  0
  -22.3626   -4.2004   26.0814 F   0  0  0  0  0  0  0  0  0  0  0  0
  -19.5464   -6.1722   22.8277 F   0  0  0  0  0  0  0  0  0  0  0  0
  1  2  1  0  0  0  0
  1  5  2  0  0  0  0
  2  6  2  0  0  0  0
  3  8  2  0  0  0  0
  3 17  1  0  0  0  0
  4  9  1  0  0  0  0
  4 17  2  0  0  0  0
  5 21  1  0  0  0  0
  6 23  1  0  0  0  0
  7 10  2  0  0  0  0
  7 22  1  0  0  0  0
  8 25  1  0  0  0  0
  9 25  2  0  0  0  0
 10 26  1  0  0  0  0
 11 12  2  0  0  0  0
 11 27  1  0  0  0  0
 12 30  1  0  0  0  0
 13 18  1  0  0  0  0
 13 28  2  0  0  0  0
 14 19  1  0  0  0  0
 14 29  2  0  0  0  0
 15 24  1  0  0  0  0
 15 26  2  0  0  0  0
 16 30  2  0  0  0  0
 16 31  1  0  0  0  0
 17 32  1  0  0  0  0
 18 19  2  0  0  0  0
 18 35  1  0  0  0  0
 19 36  1  0  0  0  0
 20 32  1  0  0  0  0
 20 33  2  0  0  0  0
 20 37  1  0  0  0  0
 21 23  2  0  0  0  0
 21 43  1  0  0  0  0
 22 24  2  0  0  0  0
 22 44  1  0  0  0  0
 23 52  1  0  0  0  0
 24 45  1  0  0  0  0
 25 82  1  0  0  0  0
 26 84  1  0  0  0  0
 27 31  2  0  0  0  0
 27 82  1  0  0  0  0
 28 29  1  0  0  0  0
 28 83  1  0  0  0  0
 29 85  1  0  0  0  0
 30 86  1  0  0  0  0
 31 87  1  0  0  0  0
 32 66  2  0  0  0  0
 33 68  1  0  0  0  0
 33 71  1  0  0  0  0
 34 35  2  0  0  0  0
 36 38  1  0  0  0  0
 36 67  2  0  0  0  0
 37 72  1  0  0  0  0
 37 76  2  0  0  0  0
 38 69  1  0  0  0  0
 38 77  2  0  0  0  0
 39 53  1  0  0  0  0
 39 73  1  0  0  0  0
 39 78  2  0  0  0  0
 40 61  1  0  0  0  0
 40 62  1  0  0  0  0
 40 79  2  0  0  0  0
 41 63  1  0  0  0  0
 41 70  1  0  0  0  0
 41 80  2  0  0  0  0
 42 64  1  0  0  0  0
 42 74  1  0  0  0  0
 42 81  2  0  0  0  0
 43 46  1  0  0  0  0
 44 53  1  0  0  0  0
 45 70  1  0  0  0  0
 46 48  1  0  0  0  0
 47 49  1  0  0  0  0
 47 50  1  0  0  0  0
 48 52  1  0  0  0  0
 49 54  1  0  0  0  0
 50 69  1  0  0  0  0
 51 54  1  0  0  0  0
 51 69  1  0  0  0  0
 52 73  1  0  0  0  0
 53 70  1  0  0  0  0
 54 68  1  0  0  0  0
 55 64  1  0  0  0  0
 56 65  1  0  0  0  0
 57 65  1  0  0  0  0
 58 65  1  0  0  0  0
 59 75  1  0  0  0  0
 60 83  1  0  0  0  0
 61 84  1  0  0  0  0
 62 85  1  0  0  0  0
 63 65  1  0  0  0  0
 63 74  1  0  0  0  0
 64 75  1  0  0  0  0
 66 68  1  0  0  0  0
M  CHG  1  75   1
M  ISO  4  36 100  38 100  61 101  84 101
M  END
> <Batch ID>
0111

> <Smiles>
C=Cc1cc(OC)c(OCC(=O)[101CH2:1][101O:1]c2ccc3c(c2)CN(C(=O)C(NC(=O)C(C)NC)C(C)(C)C)C(C(=O)NC2CCCc4ccccc42)C3)cc1[100C:0](=N)[100C:0](=O)N1CCCC(n2nc(-c3ccc(Oc4ccc(F)cc4F)cc3)c(C(N)=O)c2N)C1

> <Shape>
0.256

> <Color>
0.111

> <Negative vol penalty>
0.000

$$$$

  -OEChem-04052301283D

 89 98  0     1  0  0  0  0  0999 V2000
  -24.5752  -32.1200   14.0613 C   0  0  0  0  0  0  0  0  0  0  0  0
  -25.0193  -31.0212   14.7900 C   0  0  0  0  0  0  0  0  0  0  0  0
  -25.0214   -8.4419   20.9451 C   0  0  0  0  0  0  0  0  0  0  0  0
  -23.4298  -10.0790   20.1553 C   0  0  0  0  0  0  0  0  0  0  0  0
  -24.6016  -33.3912   14.6333 C   0  0  0  0  0  0  0  0  0  0  0  0
  -25.4913  -31.1933   16.0908 C   0  0  0  0  0  0  0  0  0  0  0  0
  -23.6825  -27.7097   19.2904 C   0  0  0  0  0  0  0  0  0  0  0  0
  -27.8511  -18.6470   19.8318 C   0  0  0  0  0  0  0  0  0  0  0  0
  -28.8509  -17.6779   19.7486 C   0  0  0  0  0  0  0  0  0  0  0  0
  -23.9765   -7.6741   21.4592 C   0  0  0  0  0  0  0  0  0  0  0  0
  -22.3849   -9.3111   20.6694 C   0  0  0  0  0  0  0  0  0  0  0  0
  -24.2686  -26.4452   19.2528 C   0  0  0  0  0  0  0  0  0  0  0  0
  -21.6589   -5.5130   20.2798 C   0  0  0  0  0  0  0  0  0  0  0  0
  -21.6866   -4.1388   20.0424 C   0  0  0  0  0  0  0  0  0  0  0  0
  -28.8318  -19.4833   21.8753 C   0  0  0  0  0  0  0  0  0  0  0  0
  -25.5885  -27.0059   21.1925 C   0  0  0  0  0  0  0  0  0  0  0  0
  -21.7298   -3.7285   22.4229 C   0  0  0  0  0  0  0  0  0  0  0  0
  -24.7480   -9.6444   20.2931 C   0  0  0  0  0  0  0  0  0  0  0  0
  -29.8315  -18.5141   21.7921 C   0  0  0  0  0  0  0  0  0  0  0  0
  -26.7659  -10.0528   18.7868 C   0  0  0  0  0  0  0  0  0  0  0  0
  -25.0651  -33.5776   15.9452 C   0  0  0  0  0  0  0  0  0  0  0  0
  -24.0536  -28.6372   20.2745 C   0  0  0  0  0  0  0  0  0  0  0  0
  -25.5252  -32.4684   16.6804 C   0  0  0  0  0  0  0  0  0  0  0  0
  -25.0038  -28.2806   21.2420 C   0  0  0  0  0  0  0  0  0  0  0  0
  -27.8416  -19.5497   20.8952 C   0  0  0  0  0  0  0  0  0  0  0  0
  -29.8411  -17.6115   20.7287 C   0  0  0  0  0  0  0  0  0  0  0  0
  -22.6583   -8.1087   21.3214 C   0  0  0  0  0  0  0  0  0  0  0  0
  -25.2239  -26.0942   20.2022 C   0  0  0  0  0  0  0  0  0  0  0  0
  -21.6667   -5.9950   21.5887 C   0  0  0  0  0  0  0  0  0  0  0  0
  -21.7220   -3.2465   21.1140 C   0  0  0  0  0  0  0  0  0  0  0  0
  -21.7022   -5.1027   22.6603 C   0  0  0  0  0  0  0  0  0  0  0  0
  -25.8269  -10.4383   19.7623 C   0  0  0  0  0  0  0  0  0  0  0  0
  -27.5721  -11.1539   18.6323 C   0  0  0  0  0  0  0  0  0  0  0  0
  -26.0894  -22.8077   21.3735 C   0  0  0  0  0  0  0  0  0  0  0  0
  -27.0418  -21.9248   20.9858 C   0  0  0  0  0  0  0  0  0  0  0  0
  -24.7770  -22.2641   21.8601 C   0  0  0  0  0  0  0  0  0  0  0  0
  -31.6393  -19.4965   23.1271 C   0  0  0  0  0  0  0  0  0  0  0  0
  -30.8493  -18.4749   22.8356 C   0  0  0  0  0  0  0  0  0  0  0  0
  -26.8974   -8.8105   18.0832 C   0  0  0  0  0  0  0  0  0  0  0  0
  -25.3938  -31.5194   20.2490 C   0  0  0  0  0  0  0  0  0  0  0  0
  -24.7718  -31.4085   23.4307 C   0  0  0  0  0  0  0  0  0  0  0  0
  -24.9885  -28.9608   26.0725 C   0  0  0  0  0  0  0  0  0  0  0  0
  -30.5327  -15.2247   20.6016 C   0  0  0  0  0  0  0  0  0  0  0  0
  -25.1190  -34.9774   16.5041 C   0  0  0  0  0  0  0  0  0  0  0  0
  -23.3926  -29.9876   20.3176 C   0  0  0  0  0  0  0  0  0  0  0  0
  -25.4221  -29.2327   22.3315 C   0  0  0  0  0  0  0  0  0  0  0  0
  -24.6319  -20.7705   22.0249 C   0  0  0  0  0  0  0  0  0  0  0  0
  -25.2835  -35.0217   18.0211 C   0  0  0  0  0  0  0  0  0  0  0  0
  -27.0518  -15.8888   20.3099 C   0  0  0  0  0  0  0  0  0  0  0  0
  -26.3777  -34.0573   18.4677 C   0  0  0  0  0  0  0  0  0  0  0  0
  -26.4942  -14.4862   20.0704 C   0  0  0  0  0  0  0  0  0  0  0  0
  -25.4542  -20.0084   21.0005 C   0  0  0  0  0  0  0  0  0  0  0  0
  -28.1855  -15.8867   21.3358 C   0  0  0  0  0  0  0  0  0  0  0  0
  -28.7215  -13.5352   20.7816 C   0  0  0  0  0  0  0  0  0  0  0  0
  -26.0211  -32.6112   18.1030 C   0  0  1  0  0  0  0  0  0  0  0  0
  -24.2213  -31.0353   21.0544 C   0  0  1  0  0  0  0  0  0  0  0  0
  -27.6188  -13.4987   19.7120 C   0  0  1  0  0  0  0  0  0  0  0  0
  -28.3585  -22.4297   20.4282 C   0  0  0  0  0  0  0  0  0  0  0  0
  -23.6960  -28.7521   28.2134 C   0  0  0  0  0  0  0  0  0  0  0  0
  -27.0962  -32.9664   24.6475 C   0  0  0  0  0  0  0  0  0  0  0  0
  -26.9015  -31.5277   26.6873 C   0  0  0  0  0  0  0  0  0  0  0  0
  -24.9982  -32.9904   26.0085 C   0  0  0  0  0  0  0  0  0  0  0  0
  -32.2259  -17.0127   20.2683 C   0  0  0  0  0  0  0  0  0  0  0  0
  -24.1522  -26.1948   25.4335 C   0  0  0  0  0  0  0  0  0  0  0  0
  -26.2175  -24.3043   21.4126 C   0  0  0  0  0  0  0  0  0  1  0  0
  -25.5183  -30.9228   24.6497 C   0  0  1  0  0  0  0  0  0  0  0  0
  -23.8296  -28.2768   26.7750 C   0  0  2  0  0  0  0  0  0  0  0  0
  -26.1327  -32.0901   25.4726 C   0  0  0  0  0  0  0  0  0  0  0  0
  -26.0180  -11.6867   20.1970 N   0  0  0  0  0  0  0  0  0  0  0  0
  -27.0863  -12.0952   19.4914 N   0  0  0  0  0  0  0  0  0  0  0  0
  -26.8237  -20.5346   20.9797 N   0  0  0  0  0  0  0  0  0  0  0  0
  -24.7517  -30.5435   22.3275 N   0  0  0  0  0  0  0  0  0  0  0  0
  -29.2141  -14.9014   20.9736 N   0  0  0  0  0  0  0  0  0  0  0  0
  -28.6423  -11.3991   17.8467 N   0  0  0  0  0  0  0  0  0  0  0  0
  -26.2127   -8.6538   16.8704 N   0  0  0  0  0  0  0  0  0  0  0  0
  -25.0487  -32.0802   19.0341 N   0  0  0  0  0  0  0  0  0  0  0  0
  -24.5810  -30.0924   25.3983 N   0  0  0  0  0  0  0  0  0  0  0  0
  -30.8625  -16.5970   20.6148 N   0  0  0  0  0  0  0  0  0  0  0  0
  -24.0286  -26.7999   26.7846 N   0  3  0  0  0  0  0  0  0  0  0  0
  -23.8574  -23.0207   22.1713 O   0  0  0  0  0  0  0  0  0  0  0  0
  -27.5882   -7.8613   18.5253 O   0  0  0  0  0  0  0  0  0  0  0  0
  -26.5274  -31.3948   20.6973 O   0  0  0  0  0  0  0  0  0  0  0  0
  -24.2207  -32.5118   23.4589 O   0  0  0  0  0  0  0  0  0  0  0  0
  -26.1408  -28.5359   26.1204 O   0  0  0  0  0  0  0  0  0  0  0  0
  -31.3592  -14.3532   20.3059 O   0  0  0  0  0  0  0  0  0  0  0  0
  -21.6384   -7.3596   21.8227 O   0  0  0  0  0  0  0  0  0  0  0  0
  -25.7980  -24.8609   20.1673 O   0  0  0  0  0  0  0  0  0  1  0  0
  -21.7470   -1.9268   20.8859 F   0  0  0  0  0  0  0  0  0  0  0  0
  -21.7087   -5.5598   23.9200 F   0  0  0  0  0  0  0  0  0  0  0  0
  1  2  1  0  0  0  0
  1  5  2  0  0  0  0
  2  6  2  0  0  0  0
  3 10  2  0  0  0  0
  3 18  1  0  0  0  0
  4 11  1  0  0  0  0
  4 18  2  0  0  0  0
  5 21  1  0  0  0  0
  6 23  1  0  0  0  0
  7 12  2  0  0  0  0
  7 22  1  0  0  0  0
  8  9  2  0  0  0  0
  8 25  1  0  0  0  0
  9 26  1  0  0  0  0
 10 27  1  0  0  0  0
 11 27  2  0  0  0  0
 12 28  1  0  0  0  0
 13 14  2  0  0  0  0
 13 29  1  0  0  0  0
 14 30  1  0  0  0  0
 15 19  1  0  0  0  0
 15 25  2  0  0  0  0
 16 24  1  0  0  0  0
 16 28  2  0  0  0  0
 17 30  2  0  0  0  0
 17 31  1  0  0  0  0
 18 32  1  0  0  0  0
 19 26  2  0  0  0  0
 19 38  1  0  0  0  0
 20 32  1  0  0  0  0
 20 33  2  0  0  0  0
 20 39  1  0  0  0  0
 21 23  2  0  0  0  0
 21 44  1  0  0  0  0
 22 24  2  0  0  0  0
 22 45  1  0  0  0  0
 23 55  1  0  0  0  0
 24 46  1  0  0  0  0
 25 71  1  0  0  0  0
 26 78  1  0  0  0  0
 27 86  1  0  0  0  0
 28 87  1  0  0  0  0
 29 31  2  0  0  0  0
 29 86  1  0  0  0  0
 30 88  1  0  0  0  0
 31 89  1  0  0  0  0
 32 69  2  0  0  0  0
 33 70  1  0  0  0  0
 33 74  1  0  0  0  0
 34 35  2  0  0  0  0
 34 36  1  0  0  0  0
 34 65  1  0  0  0  0
 35 58  1  0  0  0  0
 35 71  1  0  0  0  0
 36 47  1  0  0  0  0
 36 80  2  0  0  0  0
 37 38  2  0  0  0  0
 39 75  1  0  0  0  0
 39 81  2  0  0  0  0
 40 56  1  0  0  0  0
 40 76  1  0  0  0  0
 40 82  2  0  0  0  0
 41 66  1  0  0  0  0
 41 72  1  0  0  0  0
 41 83  2  0  0  0  0
 42 67  1  0  0  0  0
 42 77  1  0  0  0  0
 42 84  2  0  0  0  0
 43 73  1  0  0  0  0
 43 78  1  0  0  0  0
 43 85  2  0  0  0  0
 44 48  1  0  0  0  0
 45 56  1  0  0  0  0
 46 72  1  0  0  0  0
 47 52  1  0  0  0  0
 48 50  1  0  0  0  0
 49 51  1  0  0  0  0
 49 53  1  0  0  0  0
 50 55  1  0  0  0  0
 51 57  1  0  0  0  0
 52 71  1  0  0  0  0
 53 73  1  0  0  0  0
 54 57  1  0  0  0  0
 54 73  1  0  0  0  0
 55 76  1  0  0  0  0
 56 72  1  0  0  0  0
 57 70  1  0  0  0  0
 59 67  1  0  0  0  0
 60 68  1  0  0  0  0
 61 68  1  0  0  0  0
 62 68  1  0  0  0  0
 63 78  1  0  0  0  0
 64 79  1  0  0  0  0
 65 87  1  0  0  0  0
 66 68  1  0  0  0  0
 66 77  1  0  0  0  0
 67 79  1  0  0  0  0
 69 70  1  0  0  0  0
M  CHG  1  79   1
M  ISO  4  43 100  65 101  78 100  87 101
M  END
> <Batch ID>
0111

> <Smiles>
C=Cc1cc(N2CCC(=O)C([101CH2:1][101O:1]c3ccc4c(c3)CN(C(=O)C(NC(=O)C(C)NC)C(C)(C)C)C(C(=O)NC3CCCc5ccccc53)C4)=C2C)ccc1[100N:0](C)[100C:0](=O)N1CCCC(n2nc(-c3ccc(Oc4ccc(F)cc4F)cc3)c(C(N)=O)c2N)C1

> <Shape>
0.269

> <Color>
0.085

> <Negative vol penalty>
0.000

$$$$

  -OEChem-04052301283D

 85 93  0     1  0  0  0  0  0999 V2000
  -31.0607  -21.0646   17.2932 C   0  0  0  0  0  0  0  0  0  0  0  0
  -30.7462  -21.4044   18.6051 C   0  0  0  0  0  0  0  0  0  0  0  0
  -27.1725  -11.5549   22.1094 C   0  0  0  0  0  0  0  0  0  0  0  0
  -26.6501  -11.4831   19.7517 C   0  0  0  0  0  0  0  0  0  0  0  0
  -31.0464  -22.0416   16.2987 C   0  0  0  0  0  0  0  0  0  0  0  0
  -30.4182  -22.7218   18.9234 C   0  0  0  0  0  0  0  0  0  0  0  0
  -26.3733  -23.0388   21.9538 C   0  0  0  0  0  0  0  0  0  0  0  0
  -26.1636  -10.6252   22.3613 C   0  0  0  0  0  0  0  0  0  0  0  0
  -25.6412  -10.5534   20.0035 C   0  0  0  0  0  0  0  0  0  0  0  0
  -26.5690  -22.7681   23.3074 C   0  0  0  0  0  0  0  0  0  0  0  0
  -25.4074   -7.2376   20.6130 C   0  0  0  0  0  0  0  0  0  0  0  0
  -25.3245   -6.1292   19.7703 C   0  0  0  0  0  0  0  0  0  0  0  0
  -26.6361  -25.1356   23.7650 C   0  0  0  0  0  0  0  0  0  0  0  0
  -29.8848  -20.0831   25.3309 C   0  0  0  0  0  0  0  0  0  0  0  0
  -31.3607  -20.4026   27.2167 C   0  0  0  0  0  0  0  0  0  0  0  0
  -32.0229  -18.9601   25.3952 C   0  0  0  0  0  0  0  0  0  0  0  0
  -23.0857   -6.7791   19.1358 C   0  0  0  0  0  0  0  0  0  0  0  0
  -27.4157  -11.9839   20.8046 C   0  0  0  0  0  0  0  0  0  0  0  0
  -29.8082  -12.6759   20.2526 C   0  0  0  0  0  0  0  0  0  0  0  0
  -30.7086  -23.3697   16.6032 C   0  0  0  0  0  0  0  0  0  0  0  0
  -26.3183  -24.3621   21.4933 C   0  0  0  0  0  0  0  0  0  0  0  0
  -30.4006  -23.7178   17.9322 C   0  0  0  0  0  0  0  0  0  0  0  0
  -26.4370  -25.4205   22.4055 C   0  0  0  0  0  0  0  0  0  0  0  0
  -30.1560  -20.6704   26.5666 C   0  0  0  0  0  0  0  0  0  0  0  0
  -30.8182  -19.2279   24.7452 C   0  0  0  0  0  0  0  0  0  0  0  0
  -25.3980  -10.1244   21.3084 C   0  0  0  0  0  0  0  0  0  0  0  0
  -26.7034  -23.8166   24.2128 C   0  0  0  0  0  0  0  0  0  0  0  0
  -24.3294   -8.1167   20.7172 C   0  0  0  0  0  0  0  0  0  0  0  0
  -24.1637   -5.9000   19.0316 C   0  0  0  0  0  0  0  0  0  0  0  0
  -32.2942  -19.5474   26.6309 C   0  0  0  0  0  0  0  0  0  0  0  0
  -23.1686   -7.8875   19.9786 C   0  0  0  0  0  0  0  0  0  0  0  0
  -28.4574  -12.9446   20.5439 C   0  0  0  0  0  0  0  0  0  0  0  0
  -30.3771  -13.9151   20.0879 C   0  0  0  0  0  0  0  0  0  0  0  0
  -31.6798  -15.2626   24.2550 C   0  0  0  0  0  0  0  0  0  0  0  0
  -30.8751  -16.2759   23.9152 C   0  0  0  0  0  0  0  0  0  0  0  0
  -29.3325  -22.7833   26.8537 C   0  0  0  0  0  0  0  0  0  0  0  0
  -30.4880  -11.4184   20.1407 C   0  0  0  0  0  0  0  0  0  0  0  0
  -28.0496  -26.1108   19.4812 C   0  0  0  0  0  0  0  0  0  0  0  0
  -25.7226  -28.3096   20.0032 C   0  0  0  0  0  0  0  0  0  0  0  0
  -23.2611  -29.4929   22.0496 C   0  0  0  0  0  0  0  0  0  0  0  0
  -29.7254  -19.2655   22.5092 C   0  0  0  0  0  0  0  0  0  0  0  0
  -30.7528  -24.4005   15.5031 C   0  0  0  0  0  0  0  0  0  0  0  0
  -26.0799  -24.6374   20.0340 C   0  0  0  0  0  0  0  0  0  0  0  0
  -26.3650  -26.8589   21.9649 C   0  0  0  0  0  0  0  0  0  0  0  0
  -30.0297  -25.6981   15.8548 C   0  0  0  0  0  0  0  0  0  0  0  0
  -28.6820  -18.4370   19.0690 C   0  0  0  0  0  0  0  0  0  0  0  0
  -30.4199  -26.1642   17.2539 C   0  0  0  0  0  0  0  0  0  0  0  0
  -28.5825  -16.9128   19.1011 C   0  0  0  0  0  0  0  0  0  0  0  0
  -28.3894  -19.0530   20.4339 C   0  0  0  0  0  0  0  0  0  0  0  0
  -29.1367  -16.9815   21.5656 C   0  0  0  0  0  0  0  0  0  0  0  0
  -30.0155  -25.1310   18.3124 C   0  0  1  0  0  0  0  0  0  0  0  0
  -26.5545  -26.0213   19.6016 C   0  0  1  0  0  0  0  0  0  0  0  0
  -29.4683  -16.3285   20.2152 C   0  0  1  0  0  0  0  0  0  0  0  0
  -21.5574  -31.3270   22.2249 C   0  0  0  0  0  0  0  0  0  0  0  0
  -27.9281  -30.2843   20.7424 C   0  0  0  0  0  0  0  0  0  0  0  0
  -26.1802  -31.7351   21.7952 C   0  0  0  0  0  0  0  0  0  0  0  0
  -26.0879  -31.2487   19.3502 C   0  0  0  0  0  0  0  0  0  0  0  0
  -21.0183  -27.5626   22.1039 C   0  0  0  0  0  0  0  0  0  0  0  0
  -31.3030  -17.4318   23.0732 C   0  0  0  0  0  0  0  0  0  0  0  0
  -28.3737  -23.7997   27.4137 C   0  0  0  0  0  0  0  0  0  0  0  0
  -27.6484  -24.5088   26.2825 C   0  0  0  0  0  0  0  0  0  1  0  0
  -25.5078  -29.4228   21.0000 C   0  0  1  0  0  0  0  0  0  0  0  0
  -21.8266  -29.9019   21.7675 C   0  0  2  0  0  0  0  0  0  0  0  0
  -26.4293  -30.6457   20.7303 C   0  0  0  0  0  0  0  0  0  0  0  0
  -28.1845  -14.2519   20.5640 N   0  0  0  0  0  0  0  0  0  0  0  0
  -29.2160  -21.5317   27.1568 N   0  0  0  0  0  0  0  0  0  0  0  0
  -29.3717  -14.8157   20.2834 N   0  0  0  0  0  0  0  0  0  0  0  0
  -26.1368  -27.0767   20.5268 N   0  0  0  0  0  0  0  0  0  0  0  0
  -29.2123  -18.4482   21.4821 N   0  0  0  0  0  0  0  0  0  0  0  0
  -31.6343  -14.3114   19.7966 N   0  0  0  0  0  0  0  0  0  0  0  0
  -29.7533  -10.2417   20.3401 N   0  0  0  0  0  0  0  0  0  0  0  0
  -28.5963  -25.2139   18.5833 N   0  0  0  0  0  0  0  0  0  0  0  0
  -24.0820  -29.7304   20.9675 N   0  0  0  0  0  0  0  0  0  0  0  0
  -30.5376  -18.6194   23.4662 N   0  0  0  0  0  0  0  0  0  0  0  0
  -20.8804  -28.9942   22.4759 N   0  3  0  0  0  0  0  0  0  0  0  0
  -31.7143  -11.3412   19.8881 O   0  0  0  0  0  0  0  0  0  0  0  0
  -28.6616  -26.9336   20.1520 O   0  0  0  0  0  0  0  0  0  0  0  0
  -25.5230  -28.5239   18.8049 O   0  0  0  0  0  0  0  0  0  0  0  0
  -23.6183  -29.0143   23.1238 O   0  0  0  0  0  0  0  0  0  0  0  0
  -29.4997  -20.4808   22.5500 O   0  0  0  0  0  0  0  0  0  0  0  0
  -24.4136   -9.2171   21.5537 O   0  0  0  0  0  0  0  0  0  0  0  0
  -26.8952  -23.5551   25.5345 O   0  0  0  0  0  0  0  0  0  1  0  0
  -24.0848   -4.8364   18.2212 F   0  0  0  0  0  0  0  0  0  0  0  0
  -33.4510  -19.2903   27.2551 F   0  0  0  0  0  0  0  0  0  0  0  0
  -22.1302   -8.7292   20.0736 F   0  0  0  0  0  0  0  0  0  0  0  0
  1  2  1  0  0  0  0
  1  5  2  0  0  0  0
  2  6  2  0  0  0  0
  3  8  2  0  0  0  0
  3 18  1  0  0  0  0
  4  9  1  0  0  0  0
  4 18  2  0  0  0  0
  5 20  1  0  0  0  0
  6 22  1  0  0  0  0
  7 10  2  0  0  0  0
  7 21  1  0  0  0  0
  8 26  1  0  0  0  0
  9 26  2  0  0  0  0
 10 27  1  0  0  0  0
 11 12  2  0  0  0  0
 11 28  1  0  0  0  0
 12 29  1  0  0  0  0
 13 23  1  0  0  0  0
 13 27  2  0  0  0  0
 14 24  1  0  0  0  0
 14 25  2  0  0  0  0
 15 24  2  0  0  0  0
 15 30  1  0  0  0  0
 16 25  1  0  0  0  0
 16 30  2  0  0  0  0
 17 29  2  0  0  0  0
 17 31  1  0  0  0  0
 18 32  1  0  0  0  0
 19 32  1  0  0  0  0
 19 33  2  0  0  0  0
 19 37  1  0  0  0  0
 20 22  2  0  0  0  0
 20 42  1  0  0  0  0
 21 23  2  0  0  0  0
 21 43  1  0  0  0  0
 22 51  1  0  0  0  0
 23 44  1  0  0  0  0
 24 66  1  0  0  0  0
 25 74  1  0  0  0  0
 26 81  1  0  0  0  0
 27 82  1  0  0  0  0
 28 31  2  0  0  0  0
 28 81  1  0  0  0  0
 29 83  1  0  0  0  0
 30 84  1  0  0  0  0
 31 85  1  0  0  0  0
 32 65  2  0  0  0  0
 33 67  1  0  0  0  0
 33 70  1  0  0  0  0
 34 35  2  0  0  0  0
 35 59  1  0  0  0  0
 36 60  1  0  0  0  0
 36 66  2  0  0  0  0
 37 71  1  0  0  0  0
 37 76  2  0  0  0  0
 38 52  1  0  0  0  0
 38 72  1  0  0  0  0
 38 77  2  0  0  0  0
 39 62  1  0  0  0  0
 39 68  1  0  0  0  0
 39 78  2  0  0  0  0
 40 63  1  0  0  0  0
 40 73  1  0  0  0  0
 40 79  2  0  0  0  0
 41 69  1  0  0  0  0
 41 74  1  0  0  0  0
 41 80  2  0  0  0  0
 42 45  1  0  0  0  0
 43 52  1  0  0  0  0
 44 68  1  0  0  0  0
 45 47  1  0  0  0  0
 46 48  1  0  0  0  0
 46 49  1  0  0  0  0
 47 51  1  0  0  0  0
 48 53  1  0  0  0  0
 49 69  1  0  0  0  0
 50 53  1  0  0  0  0
 50 69  1  0  0  0  0
 51 72  1  0  0  0  0
 52 68  1  0  0  0  0
 53 67  1  0  0  0  0
 54 63  1  0  0  0  0
 55 64  1  0  0  0  0
 56 64  1  0  0  0  0
 57 64  1  0  0  0  0
 58 75  1  0  0  0  0
 59 74  1  0  0  0  0
 60 61  1  0  0  0  0
 61 82  1  0  0  0  0
 62 64  1  0  0  0  0
 62 73  1  0  0  0  0
 63 75  1  0  0  0  0
 65 67  1  0  0  0  0
M  CHG  1  75   1
M  ISO  4  41 100  61 101  74 100  82 101
M  END
> <Batch ID>
0111

> <Smiles>
C=CC[100N:0](c1cc(F)cc(NC=C[101CH2:1][101O:1]c2ccc3c(c2)CN(C(=O)C(NC(=O)C(C)NC)C(C)(C)C)C(C(=O)NC2CCCc4ccccc42)C3)c1)[100C:0](=O)N1CCCC(n2nc(-c3ccc(Oc4ccc(F)cc4F)cc3)c(C(N)=O)c2N)C1

> <Shape>
0.243

> <Color>
0.067

> <Negative vol penalty>
0.000

$$$$

  -OEChem-04052301283D

 87 95  0     1  0  0  0  0  0999 V2000
  -19.2320  -25.0197   25.0546 C   0  0  0  0  0  0  0  0  0  0  0  0
  -20.3580  -24.7115   24.2979 C   0  0  0  0  0  0  0  0  0  0  0  0
  -22.7632  -10.3466   20.1500 C   0  0  0  0  0  0  0  0  0  0  0  0
  -23.6770  -10.1923   22.3812 C   0  0  0  0  0  0  0  0  0  0  0  0
  -18.4450  -26.1194   24.7152 C   0  0  0  0  0  0  0  0  0  0  0  0
  -20.6971  -25.5024   23.2006 C   0  0  0  0  0  0  0  0  0  0  0  0
  -25.6415  -26.5848   23.0399 C   0  0  0  0  0  0  0  0  0  0  0  0
  -21.8978   -9.2895   20.4313 C   0  0  0  0  0  0  0  0  0  0  0  0
  -22.8115   -9.1351   22.6625 C   0  0  0  0  0  0  0  0  0  0  0  0
  -26.4971  -25.5866   22.5757 C   0  0  0  0  0  0  0  0  0  0  0  0
  -22.6366   -5.8203   22.0206 C   0  0  0  0  0  0  0  0  0  0  0  0
  -23.1653   -4.7056   22.6714 C   0  0  0  0  0  0  0  0  0  0  0  0
  -28.4963  -18.2047   21.5111 C   0  0  0  0  0  0  0  0  0  0  0  0
  -30.3607  -16.9004   19.8970 C   0  0  0  0  0  0  0  0  0  0  0  0
  -26.5691  -26.6607   20.4169 C   0  0  0  0  0  0  0  0  0  0  0  0
  -21.6240   -5.0428   24.5011 C   0  0  0  0  0  0  0  0  0  0  0  0
  -23.6528  -10.7980   21.1250 C   0  0  0  0  0  0  0  0  0  0  0  0
  -29.0654  -17.0035   21.9338 C   0  0  0  0  0  0  0  0  0  0  0  0
  -29.9977  -16.3514   21.1268 C   0  0  0  0  0  0  0  0  0  0  0  0
  -24.3046  -13.2625   21.0295 C   0  0  0  0  0  0  0  0  0  0  0  0
  -18.7801  -26.9298   23.6191 C   0  0  0  0  0  0  0  0  0  0  0  0
  -25.2340  -27.6242   22.1914 C   0  0  0  0  0  0  0  0  0  0  0  0
  -19.9131  -26.6132   22.8455 C   0  0  0  0  0  0  0  0  0  0  0  0
  -25.7104  -27.6723   20.8735 C   0  0  0  0  0  0  0  0  0  0  0  0
  -21.9219   -8.6838   21.6875 C   0  0  0  0  0  0  0  0  0  0  0  0
  -26.9587  -25.6229   21.2632 C   0  0  0  0  0  0  0  0  0  0  0  0
  -21.6017   -6.5464   22.6101 C   0  0  0  0  0  0  0  0  0  0  0  0
  -29.7915  -18.1017   19.4742 C   0  0  0  0  0  0  0  0  0  0  0  0
  -28.8593  -18.7538   20.2812 C   0  0  0  0  0  0  0  0  0  0  0  0
  -22.6590   -4.3168   23.9116 C   0  0  0  0  0  0  0  0  0  0  0  0
  -21.0954   -6.1576   23.8504 C   0  0  0  0  0  0  0  0  0  0  0  0
  -24.5475  -11.8896   20.8348 C   0  0  0  0  0  0  0  0  0  0  0  0
  -25.4551  -13.8788   20.6018 C   0  0  0  0  0  0  0  0  0  0  0  0
  -28.7978  -17.1113   24.3694 C   0  0  0  0  0  0  0  0  0  0  0  0
  -28.6630  -16.4592   23.2246 C   0  0  0  0  0  0  0  0  0  0  0  0
  -30.6142  -15.0932   21.5317 C   0  0  0  0  0  0  0  0  0  0  0  0
  -23.1428  -13.9218   21.5504 C   0  0  0  0  0  0  0  0  0  0  0  0
  -31.0445  -14.0912   20.5296 C   0  0  0  0  0  0  0  0  0  0  0  0
  -22.4406  -28.6239   21.0506 C   0  0  0  0  0  0  0  0  0  0  0  0
  -28.0286  -22.2764   20.3905 C   0  0  0  0  0  0  0  0  0  0  0  0
  -24.2346  -31.0551   19.8702 C   0  0  0  0  0  0  0  0  0  0  0  0
  -27.3008  -32.1748   18.8747 C   0  0  0  0  0  0  0  0  0  0  0  0
  -17.8723  -28.0803   23.2625 C   0  0  0  0  0  0  0  0  0  0  0  0
  -24.3320  -28.7080   22.7153 C   0  0  0  0  0  0  0  0  0  0  0  0
  -25.3188  -28.7778   19.9285 C   0  0  0  0  0  0  0  0  0  0  0  0
  -18.5111  -29.0876   22.3098 C   0  0  0  0  0  0  0  0  0  0  0  0
  -29.4213  -12.0688   18.0534 C   0  0  0  0  0  0  0  0  0  0  0  0
  -19.1994  -28.3675   21.1546 C   0  0  0  0  0  0  0  0  0  0  0  0
  -27.9991  -11.9229   18.5935 C   0  0  0  0  0  0  0  0  0  0  0  0
  -30.4452  -12.1175   19.1828 C   0  0  0  0  0  0  0  0  0  0  0  0
  -28.7514  -13.0428   20.7395 C   0  0  0  0  0  0  0  0  0  0  0  0
  -20.3275  -27.4617   21.6629 C   0  0  1  0  0  0  0  0  0  0  0  0
  -23.5718  -29.4378   21.6123 C   0  0  1  0  0  0  0  0  0  0  0  0
  -27.6867  -13.0179   19.6290 C   0  0  2  0  0  0  0  0  0  0  0  0
  -28.4466  -34.1938   17.9217 C   0  0  0  0  0  0  0  0  0  0  0  0
  -23.0589  -30.4242   17.1262 C   0  0  0  0  0  0  0  0  0  0  0  0
  -24.8963  -31.7831   16.1037 C   0  0  0  0  0  0  0  0  0  0  0  0
  -23.2555  -32.8636   17.6410 C   0  0  0  0  0  0  0  0  0  0  0  0
  -29.0656  -32.4318   21.2365 C   0  0  0  0  0  0  0  0  0  0  0  0
  -31.2653  -19.5219   18.2632 C   0  0  0  0  0  0  0  0  0  0  0  0
  -27.6589  -23.3536   21.3895 C   0  0  0  0  0  0  0  0  0  1  0  0
  -27.9093  -20.8491   20.8839 C   0  0  0  0  0  0  0  0  0  0  0  0
  -24.9980  -31.2970   18.5905 C   0  0  1  0  0  0  0  0  0  0  0  0
  -28.0584  -33.4517   19.1911 C   0  0  2  0  0  0  0  0  0  0  0  0
  -24.0582  -31.5699   17.3824 C   0  0  0  0  0  0  0  0  0  0  0  0
  -25.7572  -11.6475   20.3231 N   0  0  0  0  0  0  0  0  0  0  0  0
  -30.8262  -14.7719   22.7770 N   0  0  0  0  0  0  0  0  0  0  0  0
  -26.2848  -12.8766   20.1926 N   0  0  0  0  0  0  0  0  0  0  0  0
  -30.0994  -13.1422   20.1659 N   0  0  0  0  0  0  0  0  0  0  0  0
  -24.4300  -29.8107   20.4859 N   0  0  0  0  0  0  0  0  0  0  0  0
  -25.8279  -15.1748   20.5396 N   0  0  0  0  0  0  0  0  0  0  0  0
  -22.0494  -13.1378   21.9432 N   0  0  0  0  0  0  0  0  0  0  0  0
  -21.4985  -28.2473   21.9887 N   0  0  0  0  0  0  0  0  0  0  0  0
  -25.9369  -32.3772   18.8732 N   0  0  0  0  0  0  0  0  0  0  0  0
  -29.3011  -33.1414   19.9528 N   0  3  0  0  0  0  0  0  0  0  0  0
  -23.0700  -15.1702   21.6489 O   0  0  0  0  0  0  0  0  0  0  0  0
  -32.1947  -14.2079   20.1274 O   0  0  0  0  0  0  0  0  0  0  0  0
  -22.4230  -28.3585   19.8543 O   0  0  0  0  0  0  0  0  0  0  0  0
  -28.4030  -22.5442   19.2498 O   0  0  0  0  0  0  0  0  0  0  0  0
  -23.4976  -31.9406   20.3113 O   0  0  0  0  0  0  0  0  0  0  0  0
  -27.8629  -31.1057   18.6476 O   0  0  0  0  0  0  0  0  0  0  0  0
  -21.0774   -7.6524   21.9624 O   0  0  0  0  0  0  0  0  0  0  0  0
  -30.1540  -18.6279   18.2712 O   0  0  0  0  0  0  0  0  0  0  0  0
  -27.7933  -24.6495   20.8073 O   0  0  0  0  0  0  0  0  0  1  0  0
  -28.2910  -19.9379   19.8750 O   0  0  0  0  0  0  0  0  0  0  0  0
  -23.1657   -3.2454   24.5357 F   0  0  0  0  0  0  0  0  0  0  0  0
  -20.1004   -6.8504   24.4211 F   0  0  0  0  0  0  0  0  0  0  0  0
  1  2  1  0  0  0  0
  1  5  2  0  0  0  0
  2  6  2  0  0  0  0
  3  8  2  0  0  0  0
  3 17  1  0  0  0  0
  4  9  1  0  0  0  0
  4 17  2  0  0  0  0
  5 21  1  0  0  0  0
  6 23  1  0  0  0  0
  7 10  2  0  0  0  0
  7 22  1  0  0  0  0
  8 25  1  0  0  0  0
  9 25  2  0  0  0  0
 10 26  1  0  0  0  0
 11 12  2  0  0  0  0
 11 27  1  0  0  0  0
 12 30  1  0  0  0  0
 13 18  1  0  0  0  0
 13 29  2  0  0  0  0
 14 19  1  0  0  0  0
 14 28  2  0  0  0  0
 15 24  1  0  0  0  0
 15 26  2  0  0  0  0
 16 30  2  0  0  0  0
 16 31  1  0  0  0  0
 17 32  1  0  0  0  0
 18 19  2  0  0  0  0
 18 35  1  0  0  0  0
 19 36  1  0  0  0  0
 20 32  1  0  0  0  0
 20 33  2  0  0  0  0
 20 37  1  0  0  0  0
 21 23  2  0  0  0  0
 21 43  1  0  0  0  0
 22 24  2  0  0  0  0
 22 44  1  0  0  0  0
 23 52  1  0  0  0  0
 24 45  1  0  0  0  0
 25 82  1  0  0  0  0
 26 84  1  0  0  0  0
 27 31  2  0  0  0  0
 27 82  1  0  0  0  0
 28 29  1  0  0  0  0
 28 83  1  0  0  0  0
 29 85  1  0  0  0  0
 30 86  1  0  0  0  0
 31 87  1  0  0  0  0
 32 66  2  0  0  0  0
 33 68  1  0  0  0  0
 33 71  1  0  0  0  0
 34 35  2  0  0  0  0
 36 38  1  0  0  0  0
 36 67  2  0  0  0  0
 37 72  1  0  0  0  0
 37 76  2  0  0  0  0
 38 69  1  0  0  0  0
 38 77  2  0  0  0  0
 39 53  1  0  0  0  0
 39 73  1  0  0  0  0
 39 78  2  0  0  0  0
 40 61  1  0  0  0  0
 40 62  1  0  0  0  0
 40 79  2  0  0  0  0
 41 63  1  0  0  0  0
 41 70  1  0  0  0  0
 41 80  2  0  0  0  0
 42 64  1  0  0  0  0
 42 74  1  0  0  0  0
 42 81  2  0  0  0  0
 43 46  1  0  0  0  0
 44 53  1  0  0  0  0
 45 70  1  0  0  0  0
 46 48  1  0  0  0  0
 47 49  1  0  0  0  0
 47 50  1  0  0  0  0
 48 52  1  0  0  0  0
 49 54  1  0  0  0  0
 50 69  1  0  0  0  0
 51 54  1  0  0  0  0
 51 69  1  0  0  0  0
 52 73  1  0  0  0  0
 53 70  1  0  0  0  0
 54 68  1  0  0  0  0
 55 64  1  0  0  0  0
 56 65  1  0  0  0  0
 57 65  1  0  0  0  0
 58 65  1  0  0  0  0
 59 75  1  0  0  0  0
 60 83  1  0  0  0  0
 61 84  1  0  0  0  0
 62 85  1  0  0  0  0
 63 65  1  0  0  0  0
 63 74  1  0  0  0  0
 64 75  1  0  0  0  0
 66 68  1  0  0  0  0
M  CHG  1  75   1
M  ISO  4  36 100  38 100  61 101  84 101
M  END
> <Batch ID>
0111

> <Smiles>
C=Cc1cc(OCC(=O)[101CH2:1][101O:1]c2ccc3c(c2)CN(C(=O)C(NC(=O)C(C)NC)C(C)(C)C)C(C(=O)NC2CCCc4ccccc42)C3)c(OC)cc1[100C:0](=N)[100C:0](=O)N1CCCC(n2nc(-c3ccc(Oc4ccc(F)cc4F)cc3)c(C(N)=O)c2N)C1

> <Shape>
0.346

> <Color>
0.202

> <Negative vol penalty>
0.000

$$$$

  -OEChem-04052301283D

 85 93  0     1  0  0  0  0  0999 V2000
  -16.8210  -28.3971   23.9585 C   0  0  0  0  0  0  0  0  0  0  0  0
  -17.4859  -27.6615   22.9828 C   0  0  0  0  0  0  0  0  0  0  0  0
  -30.2684  -16.6370   19.0912 C   0  0  0  0  0  0  0  0  0  0  0  0
  -29.4727  -17.9068   20.9863 C   0  0  0  0  0  0  0  0  0  0  0  0
  -17.2788  -29.6677   24.3048 C   0  0  0  0  0  0  0  0  0  0  0  0
  -18.6085  -28.1965   22.3519 C   0  0  0  0  0  0  0  0  0  0  0  0
  -22.3945  -24.8560   21.9619 C   0  0  0  0  0  0  0  0  0  0  0  0
  -30.7292  -17.8120   18.4973 C   0  0  0  0  0  0  0  0  0  0  0  0
  -29.9335  -19.0818   20.3925 C   0  0  0  0  0  0  0  0  0  0  0  0
  -22.2956  -23.8960   20.9557 C   0  0  0  0  0  0  0  0  0  0  0  0
  -28.9210  -21.2120   17.9701 C   0  0  0  0  0  0  0  0  0  0  0  0
  -28.0742  -22.3203   17.9838 C   0  0  0  0  0  0  0  0  0  0  0  0
  -23.7917  -25.1939   19.5786 C   0  0  0  0  0  0  0  0  0  0  0  0
  -23.9529  -16.6073   22.4183 C   0  0  0  0  0  0  0  0  0  0  0  0
  -29.7285  -23.5689   19.2254 C   0  0  0  0  0  0  0  0  0  0  0  0
  -29.6401  -16.6844   20.3357 C   0  0  0  0  0  0  0  0  0  0  0  0
  -29.8747  -14.6213   21.8176 C   0  0  0  0  0  0  0  0  0  0  0  0
  -18.4133  -30.2147   23.6847 C   0  0  0  0  0  0  0  0  0  0  0  0
  -23.1856  -25.9994   21.7794 C   0  0  0  0  0  0  0  0  0  0  0  0
  -19.0812  -29.4761   22.6893 C   0  0  0  0  0  0  0  0  0  0  0  0
  -23.9011  -26.1656   20.5851 C   0  0  0  0  0  0  0  0  0  0  0  0
  -23.0013  -15.6950   21.9761 C   0  0  0  0  0  0  0  0  0  0  0  0
  -30.5617  -19.0344   19.1480 C   0  0  0  0  0  0  0  0  0  0  0  0
  -22.9919  -24.0663   19.7627 C   0  0  0  0  0  0  0  0  0  0  0  0
  -30.1715  -21.2821   18.5841 C   0  0  0  0  0  0  0  0  0  0  0  0
  -24.2170  -17.7471   21.6671 C   0  0  0  0  0  0  0  0  0  0  0  0
  -28.4779  -23.4988   18.6114 C   0  0  0  0  0  0  0  0  0  0  0  0
  -30.5753  -22.4606   19.2117 C   0  0  0  0  0  0  0  0  0  0  0  0
  -29.1635  -15.4710   20.9494 C   0  0  0  0  0  0  0  0  0  0  0  0
  -22.3466  -15.9666   20.7855 C   0  0  0  0  0  0  0  0  0  0  0  0
  -23.5080  -17.9267   20.4902 C   0  0  0  0  0  0  0  0  0  0  0  0
  -28.9872  -13.6173   22.1187 C   0  0  0  0  0  0  0  0  0  0  0  0
  -22.0022  -13.5000   24.8027 C   0  0  0  0  0  0  0  0  0  0  0  0
  -22.2630  -14.5806   24.0637 C   0  0  0  0  0  0  0  0  0  0  0  0
  -31.2176  -14.7299   22.3081 C   0  0  0  0  0  0  0  0  0  0  0  0
  -22.6218  -29.1264   21.6921 C   0  0  0  0  0  0  0  0  0  0  0  0
  -25.8568  -29.3107   21.5399 C   0  0  0  0  0  0  0  0  0  0  0  0
  -28.8099  -27.8027   20.7325 C   0  0  0  0  0  0  0  0  0  0  0  0
  -23.0864  -13.2415   22.2322 C   0  0  0  0  0  0  0  0  0  0  0  0
  -18.8426  -31.6113   24.0587 C   0  0  0  0  0  0  0  0  0  0  0  0
  -23.3030  -27.0125   22.8850 C   0  0  0  0  0  0  0  0  0  0  0  0
  -24.7800  -27.3654   20.3476 C   0  0  0  0  0  0  0  0  0  0  0  0
  -20.2608  -31.9534   23.6094 C   0  0  0  0  0  0  0  0  0  0  0  0
  -25.2399  -11.2579   20.3305 C   0  0  0  0  0  0  0  0  0  0  0  0
  -20.4789  -31.5286   22.1606 C   0  0  0  0  0  0  0  0  0  0  0  0
  -26.5606  -12.0269   20.3466 C   0  0  0  0  0  0  0  0  0  0  0  0
  -24.0555  -12.2079   20.1947 C   0  0  0  0  0  0  0  0  0  0  0  0
  -25.3166  -14.0375   21.2836 C   0  0  0  0  0  0  0  0  0  0  0  0
  -20.3171  -30.0122   22.0000 C   0  0  1  0  0  0  0  0  0  0  0  0
  -23.7306  -28.3906   22.3897 C   0  0  1  0  0  0  0  0  0  0  0  0
  -26.5490  -13.1220   21.4277 C   0  0  2  0  0  0  0  0  0  0  0  0
  -31.2844  -28.2170   20.6827 C   0  0  0  0  0  0  0  0  0  0  0  0
  -25.5164  -31.0292   19.0417 C   0  0  0  0  0  0  0  0  0  0  0  0
  -27.9284  -30.6155   18.5133 C   0  0  0  0  0  0  0  0  0  0  0  0
  -27.3002  -31.8110   20.6106 C   0  0  0  0  0  0  0  0  0  0  0  0
  -29.3350  -25.5943   22.6315 C   0  0  0  0  0  0  0  0  0  0  0  0
  -23.2809  -20.8477   18.1484 C   0  0  0  0  0  0  0  0  0  0  0  0
  -23.1064  -19.3749   18.4985 C   0  0  0  0  0  0  0  0  0  0  0  0
  -22.6676  -21.7824   19.1844 C   0  0  0  0  0  0  0  0  0  1  0  0
  -26.8756  -29.3255   20.4260 C   0  0  1  0  0  0  0  0  0  0  0  0
  -30.1172  -27.6757   21.4935 C   0  0  2  0  0  0  0  0  0  0  0  0
  -26.8871  -30.6735   19.6513 C   0  0  0  0  0  0  0  0  0  0  0  0
  -27.9200  -15.0440   20.7140 N   0  0  0  0  0  0  0  0  0  0  0  0
  -22.5763  -17.0629   20.0285 N   0  0  0  0  0  0  0  0  0  0  0  0
  -27.8430  -13.9149   21.4388 N   0  0  0  0  0  0  0  0  0  0  0  0
  -24.8572  -28.3312   21.4562 N   0  0  0  0  0  0  0  0  0  0  0  0
  -24.0830  -13.2356   21.2360 N   0  0  0  0  0  0  0  0  0  0  0  0
  -21.3749  -15.0418   20.3265 N   0  0  0  0  0  0  0  0  0  0  0  0
  -29.0817  -12.5176   22.8961 N   0  0  0  0  0  0  0  0  0  0  0  0
  -31.9919  -15.8241   21.8991 N   0  0  0  0  0  0  0  0  0  0  0  0
  -23.7701  -19.0633   19.7413 N   0  0  0  0  0  0  0  0  0  0  0  0
  -21.4995  -29.3248   22.4734 N   0  0  0  0  0  0  0  0  0  0  0  0
  -28.1536  -28.9765   21.0370 N   0  0  0  0  0  0  0  0  0  0  0  0
  -22.7251  -14.5086   22.7596 N   0  0  0  0  0  0  0  0  0  0  0  0
  -30.3918  -26.2470   21.8165 N   0  3  0  0  0  0  0  0  0  0  0  0
  -31.7216  -13.8729   23.0731 O   0  0  0  0  0  0  0  0  0  0  0  0
  -22.7738  -29.4887   20.5313 O   0  0  0  0  0  0  0  0  0  0  0  0
  -25.9488  -30.1333   22.4545 O   0  0  0  0  0  0  0  0  0  0  0  0
  -28.4125  -26.9479   19.9437 O   0  0  0  0  0  0  0  0  0  0  0  0
  -22.5396  -12.1981   22.6124 O   0  0  0  0  0  0  0  0  0  0  0  0
  -25.1464  -18.6397   22.0961 O   0  0  0  0  0  0  0  0  0  0  0  0
  -31.0114  -20.1812   18.5689 O   0  0  0  0  0  0  0  0  0  0  0  0
  -22.8965  -23.1312   18.7787 O   0  0  0  0  0  0  0  0  0  1  0  0
  -27.6653  -24.5635   18.6232 F   0  0  0  0  0  0  0  0  0  0  0  0
  -31.7760  -22.5343   19.8022 F   0  0  0  0  0  0  0  0  0  0  0  0
  1  2  1  0  0  0  0
  1  5  2  0  0  0  0
  2  6  2  0  0  0  0
  3  8  2  0  0  0  0
  3 16  1  0  0  0  0
  4  9  1  0  0  0  0
  4 16  2  0  0  0  0
  5 18  1  0  0  0  0
  6 20  1  0  0  0  0
  7 10  2  0  0  0  0
  7 19  1  0  0  0  0
  8 23  1  0  0  0  0
  9 23  2  0  0  0  0
 10 24  1  0  0  0  0
 11 12  2  0  0  0  0
 11 25  1  0  0  0  0
 12 27  1  0  0  0  0
 13 21  1  0  0  0  0
 13 24  2  0  0  0  0
 14 22  1  0  0  0  0
 14 26  2  0  0  0  0
 15 27  2  0  0  0  0
 15 28  1  0  0  0  0
 16 29  1  0  0  0  0
 17 29  1  0  0  0  0
 17 32  2  0  0  0  0
 17 35  1  0  0  0  0
 18 20  2  0  0  0  0
 18 40  1  0  0  0  0
 19 21  2  0  0  0  0
 19 41  1  0  0  0  0
 20 49  1  0  0  0  0
 21 42  1  0  0  0  0
 22 30  2  0  0  0  0
 22 74  1  0  0  0  0
 23 82  1  0  0  0  0
 24 83  1  0  0  0  0
 25 28  2  0  0  0  0
 25 82  1  0  0  0  0
 26 31  1  0  0  0  0
 26 81  1  0  0  0  0
 27 84  1  0  0  0  0
 28 85  1  0  0  0  0
 29 63  2  0  0  0  0
 30 64  1  0  0  0  0
 30 68  1  0  0  0  0
 31 64  2  0  0  0  0
 31 71  1  0  0  0  0
 32 65  1  0  0  0  0
 32 69  1  0  0  0  0
 33 34  2  0  0  0  0
 34 74  1  0  0  0  0
 35 70  1  0  0  0  0
 35 76  2  0  0  0  0
 36 50  1  0  0  0  0
 36 72  1  0  0  0  0
 36 77  2  0  0  0  0
 37 60  1  0  0  0  0
 37 66  1  0  0  0  0
 37 78  2  0  0  0  0
 38 61  1  0  0  0  0
 38 73  1  0  0  0  0
 38 79  2  0  0  0  0
 39 67  1  0  0  0  0
 39 74  1  0  0  0  0
 39 80  2  0  0  0  0
 40 43  1  0  0  0  0
 41 50  1  0  0  0  0
 42 66  1  0  0  0  0
 43 45  1  0  0  0  0
 44 46  1  0  0  0  0
 44 47  1  0  0  0  0
 45 49  1  0  0  0  0
 46 51  1  0  0  0  0
 47 67  1  0  0  0  0
 48 51  1  0  0  0  0
 48 67  1  0  0  0  0
 49 72  1  0  0  0  0
 50 66  1  0  0  0  0
 51 65  1  0  0  0  0
 52 61  1  0  0  0  0
 53 62  1  0  0  0  0
 54 62  1  0  0  0  0
 55 62  1  0  0  0  0
 56 75  1  0  0  0  0
 57 58  1  0  0  0  0
 57 59  1  0  0  0  0
 58 71  1  0  0  0  0
 59 83  1  0  0  0  0
 60 62  1  0  0  0  0
 60 73  1  0  0  0  0
 61 75  1  0  0  0  0
 63 65  1  0  0  0  0
M  CHG  1  75   1
M  ISO  4  39 100  59 101  74 100  83 101
M  END
> <Batch ID>
0111

> <Smiles>
C=C[100N:0](c1cc(O)c(NCC[101CH2:1][101O:1]c2ccc3c(c2)CN(C(=O)C(NC(=O)C(C)NC)C(C)(C)C)C(C(=O)NC2CCCc4ccccc42)C3)nc1N)[100C:0](=O)N1CCCC(n2nc(-c3ccc(Oc4ccc(F)cc4F)cc3)c(C(N)=O)c2N)C1

> <Shape>
0.251

> <Color>
0.072

> <Negative vol penalty>
0.000

$$$$

  -OEChem-04052301283D

 85 94  0     1  0  0  0  0  0999 V2000
  -28.9019  -38.1539   24.0700 C   0  0  0  0  0  0  0  0  0  0  0  0
  -29.2653  -36.9587   24.6822 C   0  0  0  0  0  0  0  0  0  0  0  0
  -23.2637   -9.3551   19.7686 C   0  0  0  0  0  0  0  0  0  0  0  0
  -24.4981   -8.9142   21.7981 C   0  0  0  0  0  0  0  0  0  0  0  0
  -27.5558  -38.4400   23.8461 C   0  0  0  0  0  0  0  0  0  0  0  0
  -28.2826  -36.0493   25.0719 C   0  0  0  0  0  0  0  0  0  0  0  0
  -28.2293  -29.3198   22.5025 C   0  0  0  0  0  0  0  0  0  0  0  0
  -22.2062   -8.5791   20.2432 C   0  0  0  0  0  0  0  0  0  0  0  0
  -23.4406   -8.1382   22.2727 C   0  0  0  0  0  0  0  0  0  0  0  0
  -28.2732  -27.9546   22.2190 C   0  0  0  0  0  0  0  0  0  0  0  0
  -22.2318   -5.0167   21.7976 C   0  0  0  0  0  0  0  0  0  0  0  0
  -22.5405   -3.7880   22.3811 C   0  0  0  0  0  0  0  0  0  0  0  0
  -26.2279  -27.6192   23.4649 C   0  0  0  0  0  0  0  0  0  0  0  0
  -24.5401  -20.3333   18.7771 C   0  0  0  0  0  0  0  0  0  0  0  0
  -24.4676  -17.9268   18.9771 C   0  0  0  0  0  0  0  0  0  0  0  0
  -26.1509  -19.1876   20.1662 C   0  0  0  0  0  0  0  0  0  0  0  0
  -21.5243   -4.5148   24.4490 C   0  0  0  0  0  0  0  0  0  0  0  0
  -24.4097   -9.5226   20.5461 C   0  0  0  0  0  0  0  0  0  0  0  0
  -26.2545  -10.1106   18.8852 C   0  0  0  0  0  0  0  0  0  0  0  0
  -26.5567  -37.5294   24.2245 C   0  0  0  0  0  0  0  0  0  0  0  0
  -27.1749  -29.8429   23.2562 C   0  0  0  0  0  0  0  0  0  0  0  0
  -26.9219  -36.3241   24.8541 C   0  0  0  0  0  0  0  0  0  0  0  0
  -26.1719  -28.9878   23.7415 C   0  0  0  0  0  0  0  0  0  0  0  0
  -23.9549  -19.1109   18.4474 C   0  0  0  0  0  0  0  0  0  0  0  0
  -25.6381  -20.3717   19.6365 C   0  0  0  0  0  0  0  0  0  0  0  0
  -25.5657  -17.9651   19.8366 C   0  0  0  0  0  0  0  0  0  0  0  0
  -22.2947   -7.9707   21.4953 C   0  0  0  0  0  0  0  0  0  0  0  0
  -27.2751  -27.1064   22.6992 C   0  0  0  0  0  0  0  0  0  0  0  0
  -21.5694   -5.9945   22.5398 C   0  0  0  0  0  0  0  0  0  0  0  0
  -22.1868   -3.5370   23.7068 C   0  0  0  0  0  0  0  0  0  0  0  0
  -21.2157   -5.7435   23.8655 C   0  0  0  0  0  0  0  0  0  0  0  0
  -25.5026  -10.3236   20.0561 C   0  0  0  0  0  0  0  0  0  0  0  0
  -27.1652  -11.1387   18.8702 C   0  0  0  0  0  0  0  0  0  0  0  0
  -27.3358  -24.1176   20.7058 C   0  0  0  0  0  0  0  0  0  0  0  0
  -27.2950  -25.3973   21.1019 C   0  0  0  0  0  0  0  0  0  1  0  0
  -26.1400   -9.0760   17.8993 C   0  0  0  0  0  0  0  0  0  0  0  0
  -25.5848  -32.8803   24.7799 C   0  0  0  0  0  0  0  0  0  0  0  0
  -23.3134  -31.1628   23.6392 C   0  0  0  0  0  0  0  0  0  0  0  0
  -21.1496  -29.1936   21.8847 C   0  0  0  0  0  0  0  0  0  0  0  0
  -27.1693  -16.6233   21.2416 C   0  0  0  0  0  0  0  0  0  0  0  0
  -25.1123  -37.9036   24.0046 C   0  0  0  0  0  0  0  0  0  0  0  0
  -27.1198  -31.2973   23.6378 C   0  0  0  0  0  0  0  0  0  0  0  0
  -25.0754  -29.5894   24.5774 C   0  0  0  0  0  0  0  0  0  0  0  0
  -27.3061  -23.7087   19.2606 C   0  0  0  0  0  0  0  0  0  0  0  0
  -27.3914  -22.9655   21.6686 C   0  0  0  0  0  0  0  0  0  0  0  0
  -24.1539  -36.7200   24.1083 C   0  0  0  0  0  0  0  0  0  0  0  0
  -29.5689  -14.0553   21.8113 C   0  0  0  0  0  0  0  0  0  0  0  0
  -24.4700  -35.8838   25.3442 C   0  0  0  0  0  0  0  0  0  0  0  0
  -28.8692  -12.7885   21.3136 C   0  0  0  0  0  0  0  0  0  0  0  0
  -26.1824  -22.7032   18.9975 C   0  0  0  0  0  0  0  0  0  0  0  0
  -26.2628  -21.9706   21.3917 C   0  0  0  0  0  0  0  0  0  0  0  0
  -28.5918  -15.0133   22.4904 C   0  0  0  0  0  0  0  0  0  0  0  0
  -26.7080  -14.0933   21.1965 C   0  0  0  0  0  0  0  0  0  0  0  0
  -25.8865  -35.3013   25.2687 C   0  0  1  0  0  0  0  0  0  0  0  0
  -25.6855  -31.8534   23.6905 C   0  0  1  0  0  0  0  0  0  0  0  0
  -27.6400  -13.1268   20.4475 C   0  0  2  0  0  0  0  0  0  0  0  0
  -22.7809  -19.0700   17.5286 C   0  0  0  0  0  0  0  0  0  0  0  0
  -18.7209  -28.9790   21.2910 C   0  0  0  0  0  0  0  0  0  0  0  0
  -22.7240  -30.1179   26.4436 C   0  0  0  0  0  0  0  0  0  0  0  0
  -20.6409  -29.0658   25.5369 C   0  0  0  0  0  0  0  0  0  0  0  0
  -20.9197  -31.5435   25.4605 C   0  0  0  0  0  0  0  0  0  0  0  0
  -21.7150  -29.4496   18.9910 C   0  0  0  0  0  0  0  0  0  0  0  0
  -22.2821  -30.0942   23.8999 C   0  0  1  0  0  0  0  0  0  0  0  0
  -20.0726  -29.5350   20.8709 C   0  0  2  0  0  0  0  0  0  0  0  0
  -21.6671  -30.1991   25.3241 C   0  0  0  0  0  0  0  0  0  0  0  0
  -25.9011  -11.4022   20.7358 N   0  0  0  0  0  0  0  0  0  0  0  0
  -26.9134  -11.8760   19.9896 N   0  0  0  0  0  0  0  0  0  0  0  0
  -26.2256  -21.5993   19.9673 N   0  0  0  0  0  0  0  0  0  0  0  0
  -24.6361  -30.8638   23.9879 N   0  0  0  0  0  0  0  0  0  0  0  0
  -27.4554  -15.2915   21.6095 N   0  0  0  0  0  0  0  0  0  0  0  0
  -28.1489  -11.4748   18.0089 N   0  0  0  0  0  0  0  0  0  0  0  0
  -25.1500   -8.0985   18.0684 N   0  0  0  0  0  0  0  0  0  0  0  0
  -26.0859  -16.7620   20.3747 N   0  0  0  0  0  0  0  0  0  0  0  0
  -25.9169  -34.1603   24.3788 N   0  0  0  0  0  0  0  0  0  0  0  0
  -21.3073  -30.1952   22.8192 N   0  0  0  0  0  0  0  0  0  0  0  0
  -20.4193  -28.9692   19.5365 N   0  3  0  0  0  0  0  0  0  0  0  0
  -26.9041   -9.0106   16.9065 O   0  0  0  0  0  0  0  0  0  0  0  0
  -25.2303  -32.5381   25.9019 O   0  0  0  0  0  0  0  0  0  0  0  0
  -22.9578  -32.2364   23.1451 O   0  0  0  0  0  0  0  0  0  0  0  0
  -21.7848  -28.1419   21.8533 O   0  0  0  0  0  0  0  0  0  0  0  0
  -27.8531  -17.5686   21.6429 O   0  0  0  0  0  0  0  0  0  0  0  0
  -21.2629   -7.2136   21.9588 O   0  0  0  0  0  0  0  0  0  0  0  0
  -27.3217  -25.7753   22.4150 O   0  0  0  0  0  0  0  0  0  1  0  0
  -22.4819   -2.3564   24.2666 F   0  0  0  0  0  0  0  0  0  0  0  0
  -20.5781   -6.6786   24.5832 F   0  0  0  0  0  0  0  0  0  0  0  0
  1  2  1  0  0  0  0
  1  5  2  0  0  0  0
  2  6  2  0  0  0  0
  3  8  2  0  0  0  0
  3 18  1  0  0  0  0
  4  9  1  0  0  0  0
  4 18  2  0  0  0  0
  5 20  1  0  0  0  0
  6 22  1  0  0  0  0
  7 10  2  0  0  0  0
  7 21  1  0  0  0  0
  8 27  1  0  0  0  0
  9 27  2  0  0  0  0
 10 28  1  0  0  0  0
 11 12  2  0  0  0  0
 11 29  1  0  0  0  0
 12 30  1  0  0  0  0
 13 23  1  0  0  0  0
 13 28  2  0  0  0  0
 14 24  2  0  0  0  0
 14 25  1  0  0  0  0
 15 24  1  0  0  0  0
 15 26  2  0  0  0  0
 16 25  2  0  0  0  0
 16 26  1  0  0  0  0
 17 30  2  0  0  0  0
 17 31  1  0  0  0  0
 18 32  1  0  0  0  0
 19 32  1  0  0  0  0
 19 33  2  0  0  0  0
 19 36  1  0  0  0  0
 20 22  2  0  0  0  0
 20 41  1  0  0  0  0
 21 23  2  0  0  0  0
 21 42  1  0  0  0  0
 22 54  1  0  0  0  0
 23 43  1  0  0  0  0
 24 57  1  0  0  0  0
 25 68  1  0  0  0  0
 26 73  1  0  0  0  0
 27 82  1  0  0  0  0
 28 83  1  0  0  0  0
 29 31  2  0  0  0  0
 29 82  1  0  0  0  0
 30 84  1  0  0  0  0
 31 85  1  0  0  0  0
 32 66  2  0  0  0  0
 33 67  1  0  0  0  0
 33 71  1  0  0  0  0
 34 35  2  0  0  0  0
 34 44  1  0  0  0  0
 34 45  1  0  0  0  0
 35 83  1  0  0  0  0
 36 72  1  0  0  0  0
 36 77  2  0  0  0  0
 37 55  1  0  0  0  0
 37 74  1  0  0  0  0
 37 78  2  0  0  0  0
 38 63  1  0  0  0  0
 38 69  1  0  0  0  0
 38 79  2  0  0  0  0
 39 64  1  0  0  0  0
 39 75  1  0  0  0  0
 39 80  2  0  0  0  0
 40 70  1  0  0  0  0
 40 73  1  0  0  0  0
 40 81  2  0  0  0  0
 41 46  1  0  0  0  0
 42 55  1  0  0  0  0
 43 69  1  0  0  0  0
 44 50  1  0  0  0  0
 45 51  1  0  0  0  0
 46 48  1  0  0  0  0
 47 49  1  0  0  0  0
 47 52  1  0  0  0  0
 48 54  1  0  0  0  0
 49 56  1  0  0  0  0
 50 68  1  0  0  0  0
 51 68  1  0  0  0  0
 52 70  1  0  0  0  0
 53 56  1  0  0  0  0
 53 70  1  0  0  0  0
 54 74  1  0  0  0  0
 55 69  1  0  0  0  0
 56 67  1  0  0  0  0
 58 64  1  0  0  0  0
 59 65  1  0  0  0  0
 60 65  1  0  0  0  0
 61 65  1  0  0  0  0
 62 76  1  0  0  0  0
 63 65  1  0  0  0  0
 63 75  1  0  0  0  0
 64 76  1  0  0  0  0
 66 67  1  0  0  0  0
M  CHG  1  76   1
M  ISO  4  35 101  40 100  73 100  83 101
M  END
> <Batch ID>
0111

> <Smiles>
CNC(C)C(=O)NC(C(=O)N1Cc2cc([101O:1][101CH:1]=C3CCN(c4cc(C)cc([100NH:0][100C:0](=O)N5CCCC(n6nc(-c7ccc(Oc8ccc(F)cc8F)cc7)c(C(N)=O)c6N)C5)c4)CC3)ccc2CC1C(=O)NC1CCCc2ccccc21)C(C)(C)C

> <Shape>
0.269

> <Color>
0.091

> <Negative vol penalty>
0.000

$$$$

  -OEChem-04052301283D

 88 97  0     1  0  0  0  0  0999 V2000
  -18.0698  -24.5091   23.7534 C   0  0  0  0  0  0  0  0  0  0  0  0
  -19.3901  -24.3461   23.3465 C   0  0  0  0  0  0  0  0  0  0  0  0
  -26.1835  -14.0320   21.6901 C   0  0  0  0  0  0  0  0  0  0  0  0
  -25.9633  -12.9688   19.5318 C   0  0  0  0  0  0  0  0  0  0  0  0
  -17.4536  -25.7541   23.6349 C   0  0  0  0  0  0  0  0  0  0  0  0
  -20.0947  -25.4279   22.8197 C   0  0  0  0  0  0  0  0  0  0  0  0
  -24.7789  -25.8004   24.7076 C   0  0  0  0  0  0  0  0  0  0  0  0
  -25.8012  -12.8446   22.3141 C   0  0  0  0  0  0  0  0  0  0  0  0
  -25.5810  -11.7813   20.1558 C   0  0  0  0  0  0  0  0  0  0  0  0
  -25.7426  -24.9327   24.1956 C   0  0  0  0  0  0  0  0  0  0  0  0
  -22.7930  -10.4974   21.5733 C   0  0  0  0  0  0  0  0  0  0  0  0
  -21.6985   -9.8117   21.0465 C   0  0  0  0  0  0  0  0  0  0  0  0
  -25.7627  -19.7161   20.1417 C   0  0  0  0  0  0  0  0  0  0  0  0
  -26.5718  -26.6997   22.7780 C   0  0  0  0  0  0  0  0  0  0  0  0
  -25.5491  -22.1108   19.9029 C   0  0  0  0  0  0  0  0  0  0  0  0
  -23.1013   -7.8880   20.6362 C   0  0  0  0  0  0  0  0  0  0  0  0
  -26.2645  -14.0942   20.2990 C   0  0  0  0  0  0  0  0  0  0  0  0
  -24.6022  -19.5375   19.3888 C   0  0  0  0  0  0  0  0  0  0  0  0
  -27.8731  -16.0143   19.8160 C   0  0  0  0  0  0  0  0  0  0  0  0
  -18.1541  -26.8541   23.1153 C   0  0  0  0  0  0  0  0  0  0  0  0
  -24.6973  -27.1234   24.2499 C   0  0  0  0  0  0  0  0  0  0  0  0
  -19.4869  -26.6886   22.6928 C   0  0  0  0  0  0  0  0  0  0  0  0
  -25.6078  -27.5829   23.2877 C   0  0  0  0  0  0  0  0  0  0  0  0
  -26.2361  -21.0028   20.3988 C   0  0  0  0  0  0  0  0  0  0  0  0
  -23.9151  -20.6455   18.8929 C   0  0  0  0  0  0  0  0  0  0  0  0
  -25.5000  -11.7192   21.5470 C   0  0  0  0  0  0  0  0  0  0  0  0
  -26.6374  -25.3815   23.2286 C   0  0  0  0  0  0  0  0  0  0  0  0
  -24.0416   -9.8785   21.6315 C   0  0  0  0  0  0  0  0  0  0  0  0
  -21.8527   -8.5070   20.5779 C   0  0  0  0  0  0  0  0  0  0  0  0
  -24.3885  -21.9322   19.1500 C   0  0  0  0  0  0  0  0  0  0  0  0
  -24.1958   -8.5737   21.1630 C   0  0  0  0  0  0  0  0  0  0  0  0
  -26.6589  -15.3207   19.6538 C   0  0  0  0  0  0  0  0  0  0  0  0
  -27.7569  -17.1072   18.9923 C   0  0  0  0  0  0  0  0  0  0  0  0
  -28.2219  -20.1645   21.7342 C   0  0  0  0  0  0  0  0  0  0  0  0
  -22.9427  -17.7349   19.4980 C   0  0  0  0  0  0  0  0  0  0  0  0
  -24.1382  -18.1773   19.1408 C   0  0  0  0  0  0  0  0  0  0  0  0
  -29.0049  -15.6988   20.6378 C   0  0  0  0  0  0  0  0  0  0  0  0
  -22.4861  -28.8460   22.7508 C   0  0  0  0  0  0  0  0  0  0  0  0
  -24.5824  -31.2675   23.2646 C   0  0  0  0  0  0  0  0  0  0  0  0
  -27.8034  -32.2385   23.8385 C   0  0  0  0  0  0  0  0  0  0  0  0
  -22.6694  -19.7870   16.8923 C   0  0  0  0  0  0  0  0  0  0  0  0
  -17.4310  -28.1689   22.9626 C   0  0  0  0  0  0  0  0  0  0  0  0
  -23.6692  -28.0545   24.8317 C   0  0  0  0  0  0  0  0  0  0  0  0
  -25.5751  -28.9998   22.7778 C   0  0  0  0  0  0  0  0  0  0  0  0
  -29.3808  -20.8257   22.4419 C   0  0  0  0  0  0  0  0  0  0  0  0
  -18.3652  -29.3558   22.7420 C   0  0  0  0  0  0  0  0  0  0  0  0
  -29.4243  -22.2125   21.8287 C   0  0  0  0  0  0  0  0  0  0  0  0
  -25.6116  -18.5977   14.9893 C   0  0  0  0  0  0  0  0  0  0  0  0
  -19.4162  -29.0194   21.6889 C   0  0  0  0  0  0  0  0  0  0  0  0
  -26.2682  -17.6159   15.9581 C   0  0  0  0  0  0  0  0  0  0  0  0
  -24.1038  -18.6839   15.2054 C   0  0  0  0  0  0  0  0  0  0  0  0
  -24.3793  -18.0371   17.5817 C   0  0  0  0  0  0  0  0  0  0  0  0
  -20.2922  -27.8442   22.1394 C   0  0  1  0  0  0  0  0  0  0  0  0
  -23.3471  -29.2341   23.9194 C   0  0  1  0  0  0  0  0  0  0  0  0
  -25.9040  -17.9624   17.4112 C   0  0  1  0  0  0  0  0  0  0  0  0
  -27.9665  -22.5052   21.4919 C   0  0  2  0  0  0  0  0  0  0  0  0
  -29.2127  -34.2870   24.1770 C   0  0  0  0  0  0  0  0  0  0  0  0
  -24.4494  -31.8505   20.2725 C   0  0  0  0  0  0  0  0  0  0  0  0
  -26.5300  -33.2213   20.5179 C   0  0  0  0  0  0  0  0  0  0  0  0
  -24.4532  -33.8814   21.7319 C   0  0  0  0  0  0  0  0  0  0  0  0
  -21.5559  -21.3101   18.4646 C   0  0  0  0  0  0  0  0  0  0  0  0
  -28.6223  -31.3692   26.5464 C   0  0  0  0  0  0  0  0  0  0  0  0
  -27.2469  -23.1493   22.6790 C   0  0  0  0  0  0  0  0  0  1  0  0
  -25.7481  -31.8519   22.5039 C   0  0  1  0  0  0  0  0  0  0  0  0
  -28.4015  -33.1940   24.8552 C   0  0  2  0  0  0  0  0  0  0  0  0
  -25.2948  -32.6740   21.2646 C   0  0  0  0  0  0  0  0  0  0  0  0
  -25.8320  -15.9226   18.7946 N   0  0  0  0  0  0  0  0  0  0  0  0
  -26.5279  -17.0059   18.4097 N   0  0  0  0  0  0  0  0  0  0  0  0
  -27.4276  -21.1863   21.1718 N   0  0  0  0  0  0  0  0  0  0  0  0
  -24.5475  -29.8701   23.3728 N   0  0  0  0  0  0  0  0  0  0  0  0
  -23.7706  -18.9546   16.6048 N   0  0  0  0  0  0  0  0  0  0  0  0
  -28.5872  -18.1354   18.7168 N   0  0  0  0  0  0  0  0  0  0  0  0
  -30.0249  -14.9061   20.0943 N   0  0  0  0  0  0  0  0  0  0  0  0
  -21.2735  -28.2869   23.1065 N   0  0  0  0  0  0  0  0  0  0  0  0
  -26.5277  -32.6136   23.4737 N   0  0  0  0  0  0  0  0  0  0  0  0
  -22.7127  -20.4901   18.1114 N   0  0  0  0  0  0  0  0  0  0  0  0
  -29.2956  -32.4587   25.7936 N   0  3  0  0  0  0  0  0  0  0  0  0
  -28.0679  -18.9517   21.7312 O   0  0  0  0  0  0  0  0  0  0  0  0
  -29.1008  -16.0942   21.8244 O   0  0  0  0  0  0  0  0  0  0  0  0
  -22.8913  -29.0407   21.6108 O   0  0  0  0  0  0  0  0  0  0  0  0
  -23.7378  -32.0236   23.7511 O   0  0  0  0  0  0  0  0  0  0  0  0
  -28.4088  -31.2594   23.4079 O   0  0  0  0  0  0  0  0  0  0  0  0
  -21.6884  -19.8570   16.1417 O   0  0  0  0  0  0  0  0  0  0  0  0
  -25.1271  -10.5603   22.1556 O   0  0  0  0  0  0  0  0  0  0  0  0
  -27.5786  -24.5364   22.7267 O   0  0  0  0  0  0  0  0  0  1  0  0
  -20.8012   -7.8481   20.0735 F   0  0  0  0  0  0  0  0  0  0  0  0
  -23.7378  -23.0056   18.6788 F   0  0  0  0  0  0  0  0  0  0  0  0
  -25.3927   -7.9734   21.2174 F   0  0  0  0  0  0  0  0  0  0  0  0
  1  2  1  0  0  0  0
  1  5  2  0  0  0  0
  2  6  2  0  0  0  0
  3  8  2  0  0  0  0
  3 17  1  0  0  0  0
  4  9  1  0  0  0  0
  4 17  2  0  0  0  0
  5 20  1  0  0  0  0
  6 22  1  0  0  0  0
  7 10  2  0  0  0  0
  7 21  1  0  0  0  0
  8 26  1  0  0  0  0
  9 26  2  0  0  0  0
 10 27  1  0  0  0  0
 11 12  2  0  0  0  0
 11 28  1  0  0  0  0
 12 29  1  0  0  0  0
 13 18  1  0  0  0  0
 13 24  2  0  0  0  0
 14 23  1  0  0  0  0
 14 27  2  0  0  0  0
 15 24  1  0  0  0  0
 15 30  2  0  0  0  0
 16 29  2  0  0  0  0
 16 31  1  0  0  0  0
 17 32  1  0  0  0  0
 18 25  2  0  0  0  0
 18 36  1  0  0  0  0
 19 32  1  0  0  0  0
 19 33  2  0  0  0  0
 19 37  1  0  0  0  0
 20 22  2  0  0  0  0
 20 42  1  0  0  0  0
 21 23  2  0  0  0  0
 21 43  1  0  0  0  0
 22 53  1  0  0  0  0
 23 44  1  0  0  0  0
 24 69  1  0  0  0  0
 25 30  1  0  0  0  0
 25 76  1  0  0  0  0
 26 84  1  0  0  0  0
 27 85  1  0  0  0  0
 28 31  2  0  0  0  0
 28 84  1  0  0  0  0
 29 86  1  0  0  0  0
 30 87  1  0  0  0  0
 31 88  1  0  0  0  0
 32 67  2  0  0  0  0
 33 68  1  0  0  0  0
 33 72  1  0  0  0  0
 34 45  1  0  0  0  0
 34 69  1  0  0  0  0
 34 78  2  0  0  0  0
 35 36  2  0  0  0  0
 37 73  1  0  0  0  0
 37 79  2  0  0  0  0
 38 54  1  0  0  0  0
 38 74  1  0  0  0  0
 38 80  2  0  0  0  0
 39 64  1  0  0  0  0
 39 70  1  0  0  0  0
 39 81  2  0  0  0  0
 40 65  1  0  0  0  0
 40 75  1  0  0  0  0
 40 82  2  0  0  0  0
 41 71  1  0  0  0  0
 41 76  1  0  0  0  0
 41 83  2  0  0  0  0
 42 46  1  0  0  0  0
 43 54  1  0  0  0  0
 44 70  1  0  0  0  0
 45 47  1  0  0  0  0
 46 49  1  0  0  0  0
 47 56  1  0  0  0  0
 48 50  1  0  0  0  0
 48 51  1  0  0  0  0
 49 53  1  0  0  0  0
 50 55  1  0  0  0  0
 51 71  1  0  0  0  0
 52 55  1  0  0  0  0
 52 71  1  0  0  0  0
 53 74  1  0  0  0  0
 54 70  1  0  0  0  0
 55 68  1  0  0  0  0
 56 63  1  0  0  0  0
 56 69  1  0  0  0  0
 57 65  1  0  0  0  0
 58 66  1  0  0  0  0
 59 66  1  0  0  0  0
 60 66  1  0  0  0  0
 61 76  1  0  0  0  0
 62 77  1  0  0  0  0
 63 85  1  0  0  0  0
 64 66  1  0  0  0  0
 64 75  1  0  0  0  0
 65 77  1  0  0  0  0
 67 68  1  0  0  0  0
M  CHG  1  77   1
M  ISO  4  41 100  63 101  76 100  85 101
M  END
> <Batch ID>
0111

> <Smiles>
C=Cc1cc(N2C(=O)CCC2[101CH2:1][101O:1]c2ccc3c(c2)CN(C(=O)C(NC(=O)C(C)NC)C(C)(C)C)C(C(=O)NC2CCCc4ccccc42)C3)cc(F)c1[100N:0](C)[100C:0](=O)N1CCCC(n2nc(-c3ccc(Oc4ccc(F)cc4F)cc3)c(C(N)=O)c2N)C1

> <Shape>
0.220

> <Color>
0.067

> <Negative vol penalty>
0.000

$$$$

  -OEChem-04052301283D

 87 96  0     1  0  0  0  0  0999 V2000
  -16.5567  -28.7487   24.1092 C   0  0  0  0  0  0  0  0  0  0  0  0
  -17.0979  -28.2908   22.9123 C   0  0  0  0  0  0  0  0  0  0  0  0
  -26.2664  -15.0188   21.9512 C   0  0  0  0  0  0  0  0  0  0  0  0
  -24.1944  -14.9442   20.7107 C   0  0  0  0  0  0  0  0  0  0  0  0
  -17.0630  -29.9030   24.7054 C   0  0  0  0  0  0  0  0  0  0  0  0
  -18.1451  -28.9875   22.3101 C   0  0  0  0  0  0  0  0  0  0  0  0
  -25.2409  -26.5012   20.1902 C   0  0  0  0  0  0  0  0  0  0  0  0
  -26.4684  -13.6626   21.6954 C   0  0  0  0  0  0  0  0  0  0  0  0
  -24.3965  -13.5879   20.4549 C   0  0  0  0  0  0  0  0  0  0  0  0
  -26.5793  -26.2186   19.9163 C   0  0  0  0  0  0  0  0  0  0  0  0
  -24.0345  -10.6601   22.1065 C   0  0  0  0  0  0  0  0  0  0  0  0
  -22.9488   -9.8005   22.2731 C   0  0  0  0  0  0  0  0  0  0  0  0
  -27.1490  -28.5456   20.2455 C   0  0  0  0  0  0  0  0  0  0  0  0
  -23.0983   -9.1612   19.9480 C   0  0  0  0  0  0  0  0  0  0  0  0
  -28.8571  -23.9298   17.5348 C   0  0  0  0  0  0  0  0  0  0  0  0
  -25.1293  -15.6596   21.4589 C   0  0  0  0  0  0  0  0  0  0  0  0
  -24.7975  -17.6789   22.9820 C   0  0  0  0  0  0  0  0  0  0  0  0
  -18.1232  -30.6088   24.1153 C   0  0  0  0  0  0  0  0  0  0  0  0
  -24.8535  -27.8058   20.5082 C   0  0  0  0  0  0  0  0  0  0  0  0
  -18.6651  -30.1530   22.8983 C   0  0  0  0  0  0  0  0  0  0  0  0
  -25.8119  -28.8324   20.5329 C   0  0  0  0  0  0  0  0  0  0  0  0
  -25.5335  -12.9471   20.9472 C   0  0  0  0  0  0  0  0  0  0  0  0
  -27.5309  -27.2384   19.9437 C   0  0  0  0  0  0  0  0  0  0  0  0
  -24.6521  -10.7704   20.8607 C   0  0  0  0  0  0  0  0  0  0  0  0
  -22.4807   -9.0510   21.1938 C   0  0  0  0  0  0  0  0  0  0  0  0
  -24.1841  -10.0210   19.7814 C   0  0  0  0  0  0  0  0  0  0  0  0
  -24.9198  -17.0604   21.7233 C   0  0  0  0  0  0  0  0  0  0  0  0
  -30.2478  -24.1181   17.6457 C   0  0  0  0  0  0  0  0  0  0  0  0
  -28.6118  -22.7682   18.2255 C   0  0  0  0  0  0  0  0  0  0  0  0
  -24.6127  -19.0092   22.6944 C   0  0  0  0  0  0  0  0  0  0  0  0
  -31.9999  -27.6581   18.5675 C   0  0  0  0  0  0  0  0  0  0  0  0
  -30.7221  -27.3864   18.2523 C   0  0  0  0  0  0  0  0  0  0  0  0
  -33.1638  -27.1210   17.8261 C   0  0  0  0  0  0  0  0  0  0  0  0
  -24.8467  -17.1026   24.2939 C   0  0  0  0  0  0  0  0  0  0  0  0
  -22.0637  -30.1315   21.4484 C   0  0  0  0  0  0  0  0  0  0  0  0
  -24.4969  -30.9302   23.1372 C   0  0  0  0  0  0  0  0  0  0  0  0
  -27.2695  -31.2197   25.1034 C   0  0  0  0  0  0  0  0  0  0  0  0
  -26.1236  -22.4254   18.0305 C   0  0  0  0  0  0  0  0  0  0  0  0
  -18.6055  -31.8777   24.7726 C   0  0  0  0  0  0  0  0  0  0  0  0
  -23.4131  -28.1674   20.7498 C   0  0  0  0  0  0  0  0  0  0  0  0
  -25.3437  -30.2273   20.8460 C   0  0  0  0  0  0  0  0  0  0  0  0
  -33.2576  -25.6265   17.6328 C   0  0  0  0  0  0  0  0  0  0  0  0
  -19.9655  -32.3485   24.2635 C   0  0  0  0  0  0  0  0  0  0  0  0
  -22.8429  -21.8979   19.3095 C   0  0  0  0  0  0  0  0  0  0  0  0
  -20.0110  -32.2999   22.7395 C   0  0  0  0  0  0  0  0  0  0  0  0
  -22.9934  -20.6574   20.1930 C   0  0  0  0  0  0  0  0  0  0  0  0
  -32.2746  -25.0986   16.6016 C   0  0  0  0  0  0  0  0  0  0  0  0
  -23.7156  -21.8125   18.0585 C   0  0  0  0  0  0  0  0  0  0  0  0
  -25.2851  -20.2898   19.1931 C   0  0  0  0  0  0  0  0  0  0  0  0
  -19.8181  -30.8675   22.2272 C   0  0  1  0  0  0  0  0  0  0  0  0
  -30.2432  -26.5518   17.0733 C   0  0  1  0  0  0  0  0  0  0  0  0
  -23.2372  -29.2693   21.8101 C   0  0  1  0  0  0  0  0  0  0  0  0
  -24.4745  -20.3587   20.4976 C   0  0  2  0  0  0  0  0  0  0  0  0
  -30.3998  -27.2958   15.7421 C   0  0  0  0  0  0  0  0  0  0  0  0
  -28.2075  -32.5697   26.9995 C   0  0  0  0  0  0  0  0  0  0  0  0
  -25.0439  -33.2377   21.2188 C   0  0  0  0  0  0  0  0  0  0  0  0
  -26.7519  -34.0874   22.8402 C   0  0  0  0  0  0  0  0  0  0  0  0
  -24.3568  -33.9345   23.5202 C   0  0  0  0  0  0  0  0  0  0  0  0
  -30.0915  -21.1668   19.4784 C   0  0  0  0  0  0  0  0  0  0  0  0
  -27.4927  -28.8359   26.8432 C   0  0  0  0  0  0  0  0  0  0  0  0
  -29.6174  -27.9899   19.0837 C   0  0  0  0  0  0  0  0  0  1  0  0
  -25.7111  -31.8146   23.2672 C   0  0  1  0  0  0  0  0  0  0  0  0
  -27.4304  -31.3219   26.6094 C   0  0  2  0  0  0  0  0  0  0  0  0
  -25.4678  -33.2421   22.7011 C   0  0  0  0  0  0  0  0  0  0  0  0
  -24.8208  -17.9265   20.7114 N   0  0  0  0  0  0  0  0  0  0  0  0
  -30.8441  -23.1536   18.3514 N   0  0  0  0  0  0  0  0  0  0  0  0
  -24.6343  -19.1029   21.3339 N   0  0  0  0  0  0  0  0  0  0  0  0
  -29.8232  -22.3479   18.6903 N   0  0  0  0  0  0  0  0  0  0  0  0
  -30.8836  -25.2197   17.0571 N   0  0  3  0  0  0  0  0  0  0  0  0
  -24.3737  -30.1953   21.9518 N   0  0  0  0  0  0  0  0  0  0  0  0
  -25.1055  -21.5317   18.4249 N   0  0  0  0  0  0  0  0  0  0  0  0
  -24.4354  -20.0962   23.4750 N   0  0  0  0  0  0  0  0  0  0  0  0
  -25.0437  -15.7197   24.4092 N   0  0  0  0  0  0  0  0  0  0  0  0
  -27.4010  -22.0718   18.4639 N   0  0  0  0  0  0  0  0  0  0  0  0
  -21.0408  -30.1080   22.3773 N   0  0  0  0  0  0  0  0  0  0  0  0
  -26.0874  -31.7868   24.6764 N   0  0  0  0  0  0  0  0  0  0  0  0
  -28.1578  -30.1320   27.1346 N   0  3  0  0  0  0  0  0  0  0  0  0
  -34.0584  -27.8825   17.4636 O   0  0  0  0  0  0  0  0  0  0  0  0
  -24.7033  -17.7910   25.3327 O   0  0  0  0  0  0  0  0  0  0  0  0
  -22.0840  -30.7727   20.4044 O   0  0  0  0  0  0  0  0  0  0  0  0
  -23.6755  -30.8944   24.0577 O   0  0  0  0  0  0  0  0  0  0  0  0
  -28.1102  -30.6930   24.3779 O   0  0  0  0  0  0  0  0  0  0  0  0
  -25.8766  -23.4447   17.3809 O   0  0  0  0  0  0  0  0  0  0  0  0
  -25.7304  -11.6238   20.6972 O   0  0  0  0  0  0  0  0  0  0  0  0
  -28.8365  -26.9548   19.6797 O   0  0  0  0  0  0  0  0  0  1  0  0
  -21.4391   -8.2243   21.3542 F   0  0  0  0  0  0  0  0  0  0  0  0
  -24.7741  -10.1218   18.5824 F   0  0  0  0  0  0  0  0  0  0  0  0
  1  2  1  0  0  0  0
  1  5  2  0  0  0  0
  2  6  2  0  0  0  0
  3  8  2  0  0  0  0
  3 16  1  0  0  0  0
  4  9  1  0  0  0  0
  4 16  2  0  0  0  0
  5 18  1  0  0  0  0
  6 20  1  0  0  0  0
  7 10  2  0  0  0  0
  7 19  1  0  0  0  0
  8 22  1  0  0  0  0
  9 22  2  0  0  0  0
 10 23  1  0  0  0  0
 11 12  2  0  0  0  0
 11 24  1  0  0  0  0
 12 25  1  0  0  0  0
 13 21  1  0  0  0  0
 13 23  2  0  0  0  0
 14 25  2  0  0  0  0
 14 26  1  0  0  0  0
 15 28  1  0  0  0  0
 15 29  2  0  0  0  0
 16 27  1  0  0  0  0
 17 27  1  0  0  0  0
 17 30  2  0  0  0  0
 17 34  1  0  0  0  0
 18 20  2  0  0  0  0
 18 39  1  0  0  0  0
 19 21  2  0  0  0  0
 19 40  1  0  0  0  0
 20 50  1  0  0  0  0
 21 41  1  0  0  0  0
 22 84  1  0  0  0  0
 23 85  1  0  0  0  0
 24 26  2  0  0  0  0
 24 84  1  0  0  0  0
 25 86  1  0  0  0  0
 26 87  1  0  0  0  0
 27 65  2  0  0  0  0
 28 66  2  0  0  0  0
 28 69  1  0  0  0  0
 29 68  1  0  0  0  0
 29 74  1  0  0  0  0
 30 67  1  0  0  0  0
 30 72  1  0  0  0  0
 31 32  2  0  0  0  0
 31 33  1  0  0  0  0
 32 51  1  0  0  0  0
 32 61  1  0  0  0  0
 33 42  1  0  0  0  0
 33 78  2  0  0  0  0
 34 73  1  0  0  0  0
 34 79  2  0  0  0  0
 35 52  1  0  0  0  0
 35 75  1  0  0  0  0
 35 80  2  0  0  0  0
 36 62  1  0  0  0  0
 36 70  1  0  0  0  0
 36 81  2  0  0  0  0
 37 63  1  0  0  0  0
 37 76  1  0  0  0  0
 37 82  2  0  0  0  0
 38 71  1  0  0  0  0
 38 74  1  0  0  0  0
 38 83  2  0  0  0  0
 39 43  1  0  0  0  0
 40 52  1  0  0  0  0
 41 70  1  0  0  0  0
 42 47  1  0  0  0  0
 43 45  1  0  0  0  0
 44 46  1  0  0  0  0
 44 48  1  0  0  0  0
 45 50  1  0  0  0  0
 46 53  1  0  0  0  0
 47 69  1  0  0  0  0
 48 71  1  0  0  0  0
 49 53  1  0  0  0  0
 49 71  1  0  0  0  0
 50 75  1  0  0  0  0
 51 54  1  0  0  0  0
 51 69  1  0  0  0  0
 52 70  1  0  0  0  0
 53 67  1  0  0  0  0
 55 63  1  0  0  0  0
 56 64  1  0  0  0  0
 57 64  1  0  0  0  0
 58 64  1  0  0  0  0
 59 68  1  0  0  0  0
 60 77  1  0  0  0  0
 61 85  1  0  0  0  0
 62 64  1  0  0  0  0
 62 76  1  0  0  0  0
 63 77  1  0  0  0  0
 65 67  1  0  0  0  0
 66 68  1  0  0  0  0
M  CHG  1  77   1
M  ISO  4  38 100  61 101  74 100  85 101
M  END
> <Batch ID>
0111

> <Smiles>
CNC(C)C(=O)NC(C(=O)N1Cc2cc([101O:1][101CH2:1]C3=C(C)N(c4cc([100NH:0][100C:0](=O)N5CCCC(n6nc(-c7ccc(Oc8ccc(F)cc8F)cc7)c(C(N)=O)c6N)C5)n(C)n4)CCC(=O)C3)ccc2CC1C(=O)NC1CCCc2ccccc21)C(C)(C)C

> <Shape>
0.280

> <Color>
0.092

> <Negative vol penalty>
0.000

$$$$

  -OEChem-04052301283D

 89 98  0     1  0  0  0  0  0999 V2000
  -26.7733  -36.6969   25.2987 C   0  0  0  0  0  0  0  0  0  0  0  0
  -27.1050  -36.2751   24.0152 C   0  0  0  0  0  0  0  0  0  0  0  0
  -25.6990  -12.2570   21.6373 C   0  0  0  0  0  0  0  0  0  0  0  0
  -25.1560  -13.0975   19.4383 C   0  0  0  0  0  0  0  0  0  0  0  0
  -26.5412  -35.7569   26.3019 C   0  0  0  0  0  0  0  0  0  0  0  0
  -27.2059  -34.9129   23.7344 C   0  0  0  0  0  0  0  0  0  0  0  0
  -26.1202  -30.2082   18.4426 C   0  0  0  0  0  0  0  0  0  0  0  0
  -24.9501  -11.1081   21.3832 C   0  0  0  0  0  0  0  0  0  0  0  0
  -24.4071  -11.9485   19.1841 C   0  0  0  0  0  0  0  0  0  0  0  0
  -26.7801  -29.1924   17.7523 C   0  0  0  0  0  0  0  0  0  0  0  0
  -24.9939   -8.7393   18.3024 C   0  0  0  0  0  0  0  0  0  0  0  0
  -25.1617   -8.1189   17.0644 C   0  0  0  0  0  0  0  0  0  0  0  0
  -26.2796  -27.6575   19.5448 C   0  0  0  0  0  0  0  0  0  0  0  0
  -28.7836  -24.1540   18.7568 C   0  0  0  0  0  0  0  0  0  0  0  0
  -28.4310  -23.7162   21.1065 C   0  0  0  0  0  0  0  0  0  0  0  0
  -22.8184   -8.4525   16.5797 C   0  0  0  0  0  0  0  0  0  0  0  0
  -25.8019  -13.2518   20.6649 C   0  0  0  0  0  0  0  0  0  0  0  0
  -27.9476  -14.5100   21.2313 C   0  0  0  0  0  0  0  0  0  0  0  0
  -26.6299  -34.3824   26.0309 C   0  0  0  0  0  0  0  0  0  0  0  0
  -25.5436  -29.9586   19.6962 C   0  0  0  0  0  0  0  0  0  0  0  0
  -26.9761  -33.9537   24.7353 C   0  0  0  0  0  0  0  0  0  0  0  0
  -25.6108  -28.6712   20.2478 C   0  0  0  0  0  0  0  0  0  0  0  0
  -29.6395  -25.2064   19.0814 C   0  0  0  0  0  0  0  0  0  0  0  0
  -28.1793  -23.4088   19.7694 C   0  0  0  0  0  0  0  0  0  0  0  0
  -24.3042  -10.9538   20.1566 C   0  0  0  0  0  0  0  0  0  0  0  0
  -26.8624  -27.9176   18.3047 C   0  0  0  0  0  0  0  0  0  0  0  0
  -23.7384   -9.2162   18.6791 C   0  0  0  0  0  0  0  0  0  0  0  0
  -29.8912  -25.5138   20.4184 C   0  0  0  0  0  0  0  0  0  0  0  0
  -24.0740   -7.9755   16.2031 C   0  0  0  0  0  0  0  0  0  0  0  0
  -29.2869  -24.7687   21.4311 C   0  0  0  0  0  0  0  0  0  0  0  0
  -22.6507   -9.0728   17.8177 C   0  0  0  0  0  0  0  0  0  0  0  0
  -26.5749  -14.4392   20.9271 C   0  0  0  0  0  0  0  0  0  0  0  0
  -28.1950  -15.8515   21.3912 C   0  0  0  0  0  0  0  0  0  0  0  0
  -31.5073  -26.6046   18.0887 C   0  0  0  0  0  0  0  0  0  0  0  0
  -26.2182  -22.6036   18.7252 C   0  0  0  0  0  0  0  0  0  0  0  0
  -28.9126  -13.4573   21.3580 C   0  0  0  0  0  0  0  0  0  0  0  0
  -26.0029  -31.0714   22.6381 C   0  0  0  0  0  0  0  0  0  0  0  0
  -23.3969  -29.2605   23.3104 C   0  0  0  0  0  0  0  0  0  0  0  0
  -21.4210  -26.6053   22.4783 C   0  0  0  0  0  0  0  0  0  0  0  0
  -27.7280  -21.0062   19.8206 C   0  0  0  0  0  0  0  0  0  0  0  0
  -26.4165  -33.4047   27.1594 C   0  0  0  0  0  0  0  0  0  0  0  0
  -24.8122  -31.0584   20.4159 C   0  0  0  0  0  0  0  0  0  0  0  0
  -24.9907  -28.3465   21.5814 C   0  0  0  0  0  0  0  0  0  0  0  0
  -31.7472  -27.2580   16.7482 C   0  0  0  0  0  0  0  0  0  0  0  0
  -26.1765  -31.9729   26.6877 C   0  0  0  0  0  0  0  0  0  0  0  0
  -30.7826  -26.5367   15.8261 C   0  0  0  0  0  0  0  0  0  0  0  0
  -25.0302  -19.7703   21.7668 C   0  0  0  0  0  0  0  0  0  0  0  0
  -27.1953  -31.5844   25.6209 C   0  0  0  0  0  0  0  0  0  0  0  0
  -25.3001  -18.2660   21.7383 C   0  0  0  0  0  0  0  0  0  0  0  0
  -25.3334  -20.4281   20.4208 C   0  0  0  0  0  0  0  0  0  0  0  0
  -26.9740  -18.6542   19.8861 C   0  0  0  0  0  0  0  0  0  0  0  0
  -27.0709  -32.4844   24.3855 C   0  0  1  0  0  0  0  0  0  0  0  0
  -24.7071  -30.8219   21.9194 C   0  0  1  0  0  0  0  0  0  0  0  0
  -26.7256  -17.9690   21.2394 C   0  0  2  0  0  0  0  0  0  0  0  0
  -29.6128  -26.1774   16.7355 C   0  0  2  0  0  0  0  0  0  0  0  0
  -19.3855  -25.3499   23.2386 C   0  0  0  0  0  0  0  0  0  0  0  0
  -25.0381  -27.9420   25.5190 C   0  0  0  0  0  0  0  0  0  0  0  0
  -23.3362  -26.1072   25.5924 C   0  0  0  0  0  0  0  0  0  0  0  0
  -22.6689  -28.4476   26.1402 C   0  0  0  0  0  0  0  0  0  0  0  0
  -19.9688  -27.2107   19.9716 C   0  0  0  0  0  0  0  0  0  0  0  0
  -30.1694  -27.5963   21.5326 C   0  0  0  0  0  0  0  0  0  0  0  0
  -28.5841  -27.3095   16.7809 C   0  0  0  0  0  0  0  0  0  1  0  0
  -23.1702  -27.8312   23.7400 C   0  0  1  0  0  0  0  0  0  0  0  0
  -19.9139  -26.4703   22.3565 C   0  0  2  0  0  0  0  0  0  0  0  0
  -23.5668  -27.5883   25.2236 C   0  0  0  0  0  0  0  0  0  0  0  0
  -25.9912  -15.6401   20.8952 N   0  0  0  0  0  0  0  0  0  0  0  0
  -27.0020  -16.4782   21.1815 N   0  0  0  0  0  0  0  0  0  0  0  0
  -30.2520  -25.9627   18.0308 N   0  0  0  0  0  0  0  0  0  0  0  0
  -24.2919  -29.4570   22.2492 N   0  0  0  0  0  0  0  0  0  0  0  0
  -26.6879  -20.0867   19.9710 N   0  0  0  0  0  0  0  0  0  0  0  0
  -29.3146  -16.5443   21.6894 N   0  0  0  0  0  0  0  0  0  0  0  0
  -29.6235  -13.0616   20.2168 N   0  0  0  0  0  0  0  0  0  0  0  0
  -25.9390  -32.0817   23.5787 N   0  0  0  0  0  0  0  0  0  0  0  0
  -21.7751  -27.5304   23.4375 N   0  0  0  0  0  0  0  0  0  0  0  0
  -27.3246  -22.3584   19.4461 N   0  0  0  0  0  0  0  0  0  0  0  0
  -25.7868  -23.7693   18.2588 N   0  3  0  0  0  0  0  0  0  0  0  0
  -19.5324  -26.1776   20.9459 N   0  3  0  0  0  0  0  0  0  0  0  0
  -32.3057  -26.6978   19.0099 O   0  0  0  0  0  0  0  0  0  0  0  0
  -29.1262  -12.8732   22.4474 O   0  0  0  0  0  0  0  0  0  0  0  0
  -26.9873  -30.3963   22.3609 O   0  0  0  0  0  0  0  0  0  0  0  0
  -22.7963  -30.1687   23.8902 O   0  0  0  0  0  0  0  0  0  0  0  0
  -22.2057  -25.9525   21.7938 O   0  0  0  0  0  0  0  0  0  0  0  0
  -28.9235  -20.7635   19.9591 O   0  0  0  0  0  0  0  0  0  0  0  0
  -23.5736   -9.8326   19.9081 O   0  0  0  0  0  0  0  0  0  0  0  0
  -30.7254  -26.5376   20.7560 O   0  0  0  0  0  0  0  0  0  0  0  0
  -27.5064  -26.9244   17.6333 O   0  0  0  0  0  0  0  0  0  1  0  0
  -24.2356   -7.3811   15.0136 F   0  0  0  0  0  0  0  0  0  0  0  0
  -29.5249  -25.0573   22.7181 F   0  0  0  0  0  0  0  0  0  0  0  0
  -21.4423   -9.5300   18.1735 F   0  0  0  0  0  0  0  0  0  0  0  0
  1  2  1  0  0  0  0
  1  5  2  0  0  0  0
  2  6  2  0  0  0  0
  3  8  2  0  0  0  0
  3 17  1  0  0  0  0
  4  9  1  0  0  0  0
  4 17  2  0  0  0  0
  5 19  1  0  0  0  0
  6 21  1  0  0  0  0
  7 10  2  0  0  0  0
  7 20  1  0  0  0  0
  8 25  1  0  0  0  0
  9 25  2  0  0  0  0
 10 26  1  0  0  0  0
 11 12  2  0  0  0  0
 11 27  1  0  0  0  0
 12 29  1  0  0  0  0
 13 22  1  0  0  0  0
 13 26  2  0  0  0  0
 14 23  1  0  0  0  0
 14 24  2  0  0  0  0
 15 24  1  0  0  0  0
 15 30  2  0  0  0  0
 16 29  2  0  0  0  0
 16 31  1  0  0  0  0
 17 32  1  0  0  0  0
 18 32  1  0  0  0  0
 18 33  2  0  0  0  0
 18 36  1  0  0  0  0
 19 21  2  0  0  0  0
 19 41  1  0  0  0  0
 20 22  2  0  0  0  0
 20 42  1  0  0  0  0
 21 52  1  0  0  0  0
 22 43  1  0  0  0  0
 23 28  2  0  0  0  0
 23 68  1  0  0  0  0
 24 75  1  0  0  0  0
 25 84  1  0  0  0  0
 26 86  1  0  0  0  0
 27 31  2  0  0  0  0
 27 84  1  0  0  0  0
 28 30  1  0  0  0  0
 28 85  1  0  0  0  0
 29 87  1  0  0  0  0
 30 88  1  0  0  0  0
 31 89  1  0  0  0  0
 32 66  2  0  0  0  0
 33 67  1  0  0  0  0
 33 71  1  0  0  0  0
 34 44  1  0  0  0  0
 34 68  1  0  0  0  0
 34 78  2  0  0  0  0
 35 75  1  0  0  0  0
 35 76  2  0  0  0  0
 36 72  1  0  0  0  0
 36 79  2  0  0  0  0
 37 53  1  0  0  0  0
 37 73  1  0  0  0  0
 37 80  2  0  0  0  0
 38 63  1  0  0  0  0
 38 69  1  0  0  0  0
 38 81  2  0  0  0  0
 39 64  1  0  0  0  0
 39 74  1  0  0  0  0
 39 82  2  0  0  0  0
 40 70  1  0  0  0  0
 40 75  1  0  0  0  0
 40 83  2  0  0  0  0
 41 45  1  0  0  0  0
 42 53  1  0  0  0  0
 43 69  1  0  0  0  0
 44 46  1  0  0  0  0
 45 48  1  0  0  0  0
 46 55  1  0  0  0  0
 47 49  1  0  0  0  0
 47 50  1  0  0  0  0
 48 52  1  0  0  0  0
 49 54  1  0  0  0  0
 50 70  1  0  0  0  0
 51 54  1  0  0  0  0
 51 70  1  0  0  0  0
 52 73  1  0  0  0  0
 53 69  1  0  0  0  0
 54 67  1  0  0  0  0
 55 62  1  0  0  0  0
 55 68  1  0  0  0  0
 56 64  1  0  0  0  0
 57 65  1  0  0  0  0
 58 65  1  0  0  0  0
 59 65  1  0  0  0  0
 60 77  1  0  0  0  0
 61 85  1  0  0  0  0
 62 86  1  0  0  0  0
 63 65  1  0  0  0  0
 63 74  1  0  0  0  0
 64 77  1  0  0  0  0
 66 67  1  0  0  0  0
M  CHG  2  76   1  77   1
M  ISO  4  40 100  62 101  75 100  86 101
M  END
> <Batch ID>
0111

> <Smiles>
CNC(C)C(=O)NC(C(=O)N1Cc2cc([101O:1][101CH2:1]C3CCC(=O)N3c3cc([100N:0](C=N)[100C:0](=O)N4CCCC(n5nc(-c6ccc(Oc7ccc(F)cc7F)cc6)c(C(N)=O)c5N)C4)cc(F)c3OC)ccc2CC1C(=O)NC1CCCc2ccccc21)C(C)(C)C

> <Shape>
0.291

> <Color>
0.056

> <Negative vol penalty>
0.000

$$$$

  -OEChem-04052301283D

 86 94  0     1  0  0  0  0  0999 V2000
  -27.4832  -24.2833   17.3275 C   0  0  0  0  0  0  0  0  0  0  0  0
  -26.2925  -24.6706   17.9338 C   0  0  0  0  0  0  0  0  0  0  0  0
  -27.0667  -17.6714   21.2000 C   0  0  0  0  0  0  0  0  0  0  0  0
  -26.3609  -19.9708   21.4279 C   0  0  0  0  0  0  0  0  0  0  0  0
  -28.7036  -24.6524   17.8916 C   0  0  0  0  0  0  0  0  0  0  0  0
  -26.3215  -25.4264   19.1053 C   0  0  0  0  0  0  0  0  0  0  0  0
  -23.0303  -29.2741   19.0168 C   0  0  0  0  0  0  0  0  0  0  0  0
  -28.2169  -18.0907   20.5314 C   0  0  0  0  0  0  0  0  0  0  0  0
  -27.5111  -20.3901   20.7594 C   0  0  0  0  0  0  0  0  0  0  0  0
  -21.6902  -28.9713   19.2540 C   0  0  0  0  0  0  0  0  0  0  0  0
  -31.2263  -19.4054   21.3364 C   0  0  0  0  0  0  0  0  0  0  0  0
  -32.4393  -18.8250   21.7068 C   0  0  0  0  0  0  0  0  0  0  0  0
  -21.9321  -29.7155   21.5358 C   0  0  0  0  0  0  0  0  0  0  0  0
  -32.7311  -17.9980   19.4555 C   0  0  0  0  0  0  0  0  0  0  0  0
  -26.1387  -18.6115   21.6481 C   0  0  0  0  0  0  0  0  0  0  0  0
  -24.7922  -17.9932   23.7248 C   0  0  0  0  0  0  0  0  0  0  0  0
  -28.7476  -25.4213   19.0653 C   0  0  0  0  0  0  0  0  0  0  0  0
  -23.8355  -29.7906   20.0422 C   0  0  0  0  0  0  0  0  0  0  0  0
  -27.5437  -25.8050   19.6864 C   0  0  0  0  0  0  0  0  0  0  0  0
  -23.2814  -30.0264   21.3084 C   0  0  0  0  0  0  0  0  0  0  0  0
  -20.3073  -24.1066   19.9513 C   0  0  0  0  0  0  0  0  0  0  0  0
  -28.4391  -19.4500   20.3112 C   0  0  0  0  0  0  0  0  0  0  0  0
  -21.1416  -29.1892   20.5144 C   0  0  0  0  0  0  0  0  0  0  0  0
  -30.7656  -19.2821   20.0255 C   0  0  0  0  0  0  0  0  0  0  0  0
  -20.3294  -22.8007   19.3818 C   0  0  0  0  0  0  0  0  0  0  0  0
  -33.1917  -18.1213   20.7664 C   0  0  0  0  0  0  0  0  0  0  0  0
  -31.5180  -18.5784   19.0851 C   0  0  0  0  0  0  0  0  0  0  0  0
  -24.9501  -18.1789   22.3383 C   0  0  0  0  0  0  0  0  0  0  0  0
  -19.4982  -21.9300   20.0514 C   0  0  0  0  0  0  0  0  0  0  0  0
  -19.4597  -24.1843   21.0345 C   0  0  0  0  0  0  0  0  0  0  0  0
  -23.4904  -17.5801   23.8698 C   0  0  0  0  0  0  0  0  0  0  0  0
  -18.6610  -26.3152   21.2495 C   0  0  0  0  0  0  0  0  0  0  0  0
  -25.7377  -18.1777   24.7867 C   0  0  0  0  0  0  0  0  0  0  0  0
  -19.2315  -20.4913   19.7847 C   0  0  0  0  0  0  0  0  0  0  0  0
  -26.4569  -28.8067   21.5469 C   0  0  0  0  0  0  0  0  0  0  0  0
  -26.2951  -31.7385   22.9255 C   0  0  0  0  0  0  0  0  0  0  0  0
  -24.3796  -34.4175   23.8205 C   0  0  0  0  0  0  0  0  0  0  0  0
  -18.6200  -18.4022   20.5454 C   0  0  0  0  0  0  0  0  0  0  0  0
  -30.0908  -25.7561   19.6639 C   0  0  0  0  0  0  0  0  0  0  0  0
  -25.2723  -30.1371   19.7629 C   0  0  0  0  0  0  0  0  0  0  0  0
  -24.0981  -30.5982   22.4374 C   0  0  0  0  0  0  0  0  0  0  0  0
  -30.0338  -26.8752   20.7006 C   0  0  0  0  0  0  0  0  0  0  0  0
  -20.0010  -15.2657   21.5530 C   0  0  0  0  0  0  0  0  0  0  0  0
  -28.8826  -26.6430   21.6740 C   0  0  0  0  0  0  0  0  0  0  0  0
  -21.4228  -15.6353   21.9807 C   0  0  0  0  0  0  0  0  0  0  0  0
  -19.5402  -16.0938   20.3563 C   0  0  0  0  0  0  0  0  0  0  0  0
  -21.0740  -17.9339   20.9801 C   0  0  0  0  0  0  0  0  0  0  0  0
  -27.5339  -26.6462   20.9443 C   0  0  1  0  0  0  0  0  0  0  0  0
  -26.1330  -30.1767   21.0218 C   0  0  1  0  0  0  0  0  0  0  0  0
  -21.5579  -17.1519   22.2124 C   0  0  2  0  0  0  0  0  0  0  0  0
  -21.1055  -25.2459   19.4347 C   0  0  0  0  0  0  0  0  0  0  0  0
  -19.3330  -20.0011   18.3533 C   0  0  0  0  0  0  0  0  0  0  0  0
  -23.0226  -21.5517   17.2426 C   0  0  0  0  0  0  0  0  0  0  0  0
  -24.5213  -36.6452   24.9670 C   0  0  0  0  0  0  0  0  0  0  0  0
  -26.4212  -30.3350   25.6319 C   0  0  0  0  0  0  0  0  0  0  0  0
  -25.6145  -32.4553   26.6909 C   0  0  0  0  0  0  0  0  0  0  0  0
  -27.7916  -32.4209   25.4737 C   0  0  0  0  0  0  0  0  0  0  0  0
  -23.5066  -35.8561   21.3860 C   0  0  0  0  0  0  0  0  0  0  0  0
  -18.2974  -27.5546   22.0225 C   0  0  0  0  0  0  0  0  0  0  0  0
  -22.3827  -21.9232   18.5633 C   0  0  0  0  0  0  0  0  0  0  0  0
  -19.4846  -28.5013   22.0754 C   0  0  0  0  0  0  0  0  0  1  0  0
  -25.6349  -32.3047   24.1595 C   0  0  1  0  0  0  0  0  0  0  0  0
  -24.5870  -35.9101   23.6374 C   0  0  2  0  0  0  0  0  0  0  0  0
  -26.3504  -31.8664   25.4684 C   0  0  0  0  0  0  0  0  0  0  0  0
  -23.8375  -17.9060   21.6515 N   0  0  0  0  0  0  0  0  0  0  0  0
  -19.1718  -25.2909   21.8509 N   0  0  0  0  0  0  0  0  0  0  0  0
  -18.9005  -19.7292   20.7860 N   0  0  0  0  0  0  0  0  0  0  0  0
  -22.9681  -17.5445   22.6104 N   0  0  0  0  0  0  0  0  0  0  0  0
  -25.4996  -30.9148   22.1165 N   0  0  0  0  0  0  0  0  0  0  0  0
  -19.7120  -17.5220   20.6198 N   0  0  0  0  0  0  0  0  0  0  0  0
  -22.7529  -17.2473   24.9505 N   0  0  0  0  0  0  0  0  0  0  0  0
  -27.0320  -18.6064   24.4619 N   0  0  0  0  0  0  0  0  0  0  0  0
  -27.1250  -28.0016   20.6441 N   0  0  0  0  0  0  0  0  0  0  0  0
  -25.5772  -33.7494   23.9651 N   0  0  0  0  0  0  0  0  0  0  0  0
  -23.5402  -36.4719   22.7376 N   0  3  0  0  0  0  0  0  0  0  0  0
  -25.4485  -17.9528   25.9864 O   0  0  0  0  0  0  0  0  0  0  0  0
  -26.1265  -28.5030   22.6872 O   0  0  0  0  0  0  0  0  0  0  0  0
  -27.4710  -32.0225   22.6845 O   0  0  0  0  0  0  0  0  0  0  0  0
  -23.2665  -33.8967   23.8377 O   0  0  0  0  0  0  0  0  0  0  0  0
  -17.4834  -18.0227   20.2597 O   0  0  0  0  0  0  0  0  0  0  0  0
  -29.5614  -19.8596   19.6591 O   0  0  0  0  0  0  0  0  0  0  0  0
  -19.8341  -28.8939   20.7488 O   0  0  0  0  0  0  0  0  0  1  0  0
  -21.0632  -22.4279   18.3174 O   0  0  0  0  0  0  0  0  0  0  0  0
  -34.3574  -17.5653   21.1219 F   0  0  0  0  0  0  0  0  0  0  0  0
  -31.0811  -18.4576   17.8240 F   0  0  0  0  0  0  0  0  0  0  0  0
  -18.6955  -22.6870   21.3610 S   0  0  0  0  0  0  0  0  0  0  0  0
  1  2  1  0  0  0  0
  1  5  2  0  0  0  0
  2  6  2  0  0  0  0
  3  8  2  0  0  0  0
  3 15  1  0  0  0  0
  4  9  1  0  0  0  0
  4 15  2  0  0  0  0
  5 17  1  0  0  0  0
  6 19  1  0  0  0  0
  7 10  2  0  0  0  0
  7 18  1  0  0  0  0
  8 22  1  0  0  0  0
  9 22  2  0  0  0  0
 10 23  1  0  0  0  0
 11 12  2  0  0  0  0
 11 24  1  0  0  0  0
 12 26  1  0  0  0  0
 13 20  1  0  0  0  0
 13 23  2  0  0  0  0
 14 26  2  0  0  0  0
 14 27  1  0  0  0  0
 15 28  1  0  0  0  0
 16 28  1  0  0  0  0
 16 31  2  0  0  0  0
 16 33  1  0  0  0  0
 17 19  2  0  0  0  0
 17 39  1  0  0  0  0
 18 20  2  0  0  0  0
 18 40  1  0  0  0  0
 19 48  1  0  0  0  0
 20 41  1  0  0  0  0
 21 25  1  0  0  0  0
 21 30  2  0  0  0  0
 21 51  1  0  0  0  0
 22 81  1  0  0  0  0
 23 82  1  0  0  0  0
 24 27  2  0  0  0  0
 24 81  1  0  0  0  0
 25 29  2  0  0  0  0
 25 83  1  0  0  0  0
 26 84  1  0  0  0  0
 27 85  1  0  0  0  0
 28 65  2  0  0  0  0
 29 34  1  0  0  0  0
 29 86  1  0  0  0  0
 30 66  1  0  0  0  0
 30 86  1  0  0  0  0
 31 68  1  0  0  0  0
 31 71  1  0  0  0  0
 32 59  1  0  0  0  0
 32 66  2  0  0  0  0
 33 72  1  0  0  0  0
 33 76  2  0  0  0  0
 34 52  1  0  0  0  0
 34 67  2  0  0  0  0
 35 49  1  0  0  0  0
 35 73  1  0  0  0  0
 35 77  2  0  0  0  0
 36 62  1  0  0  0  0
 36 69  1  0  0  0  0
 36 78  2  0  0  0  0
 37 63  1  0  0  0  0
 37 74  1  0  0  0  0
 37 79  2  0  0  0  0
 38 67  1  0  0  0  0
 38 70  1  0  0  0  0
 38 80  2  0  0  0  0
 39 42  1  0  0  0  0
 40 49  1  0  0  0  0
 41 69  1  0  0  0  0
 42 44  1  0  0  0  0
 43 45  1  0  0  0  0
 43 46  1  0  0  0  0
 44 48  1  0  0  0  0
 45 50  1  0  0  0  0
 46 70  1  0  0  0  0
 47 50  1  0  0  0  0
 47 70  1  0  0  0  0
 48 73  1  0  0  0  0
 49 69  1  0  0  0  0
 50 68  1  0  0  0  0
 53 60  1  0  0  0  0
 54 63  1  0  0  0  0
 55 64  1  0  0  0  0
 56 64  1  0  0  0  0
 57 64  1  0  0  0  0
 58 75  1  0  0  0  0
 59 61  1  0  0  0  0
 60 83  1  0  0  0  0
 61 82  1  0  0  0  0
 62 64  1  0  0  0  0
 62 74  1  0  0  0  0
 63 75  1  0  0  0  0
 65 68  1  0  0  0  0
M  CHG  1  75   1
M  ISO  4  38 100  61 101  67 100  82 101
M  END
> <Batch ID>
0111

> <Smiles>
C=C([100NH:0][100C:0](=O)N1CCCC(n2nc(-c3ccc(Oc4ccc(F)cc4F)cc3)c(C(N)=O)c2N)C1)c1sc(NC=C[101CH2:1][101O:1]c2ccc3c(c2)CN(C(=O)C(NC(=O)C(C)NC)C(C)(C)C)C(C(=O)NC2CCCc4ccccc42)C3)c(C)c1OCC

> <Shape>
0.225

> <Color>
0.062

> <Negative vol penalty>
0.000

$$$$

  -OEChem-04052301283D

 89 98  0     1  0  0  0  0  0999 V2000
  -26.3503  -35.3160   21.0115 C   0  0  0  0  0  0  0  0  0  0  0  0
  -26.7502  -33.9847   20.9551 C   0  0  0  0  0  0  0  0  0  0  0  0
  -26.7694  -12.1933   21.7778 C   0  0  0  0  0  0  0  0  0  0  0  0
  -25.8855  -13.9435   20.3661 C   0  0  0  0  0  0  0  0  0  0  0  0
  -25.2385  -35.6771   21.7714 C   0  0  0  0  0  0  0  0  0  0  0  0
  -26.0392  -33.0138   21.6596 C   0  0  0  0  0  0  0  0  0  0  0  0
  -25.0478  -27.2157   19.9554 C   0  0  0  0  0  0  0  0  0  0  0  0
  -25.5194  -11.5745   21.7932 C   0  0  0  0  0  0  0  0  0  0  0  0
  -24.6355  -13.3245   20.3814 C   0  0  0  0  0  0  0  0  0  0  0  0
  -25.6741  -26.0176   20.2963 C   0  0  0  0  0  0  0  0  0  0  0  0
  -23.6867   -9.6107   19.7394 C   0  0  0  0  0  0  0  0  0  0  0  0
  -23.6446   -8.2300   19.5461 C   0  0  0  0  0  0  0  0  0  0  0  0
  -31.1608  -21.7253   21.5706 C   0  0  0  0  0  0  0  0  0  0  0  0
  -23.9881  -25.6211   21.9754 C   0  0  0  0  0  0  0  0  0  0  0  0
  -29.0870  -23.0759   20.2829 C   0  0  0  0  0  0  0  0  0  0  0  0
  -22.6108   -7.9582   21.7128 C   0  0  0  0  0  0  0  0  0  0  0  0
  -26.9524  -13.3779   21.0643 C   0  0  0  0  0  0  0  0  0  0  0  0
  -31.4415  -22.8292   20.7654 C   0  0  0  0  0  0  0  0  0  0  0  0
  -29.2872  -13.8036   20.1288 C   0  0  0  0  0  0  0  0  0  0  0  0
  -24.5078  -34.7088   22.4778 C   0  0  0  0  0  0  0  0  0  0  0  0
  -23.8912  -27.6314   20.6305 C   0  0  0  0  0  0  0  0  0  0  0  0
  -24.9174  -33.3625   22.4307 C   0  0  0  0  0  0  0  0  0  0  0  0
  -23.3476  -26.8235   21.6394 C   0  0  0  0  0  0  0  0  0  0  0  0
  -28.8063  -21.9720   21.0881 C   0  0  0  0  0  0  0  0  0  0  0  0
  -29.8432  -21.2967   21.7319 C   0  0  0  0  0  0  0  0  0  0  0  0
  -30.4046  -23.5045   20.1216 C   0  0  0  0  0  0  0  0  0  0  0  0
  -24.4525  -12.1400   21.0950 C   0  0  0  0  0  0  0  0  0  0  0  0
  -25.1460  -25.2215   21.3084 C   0  0  0  0  0  0  0  0  0  0  0  0
  -23.1909  -10.1652   20.9195 C   0  0  0  0  0  0  0  0  0  0  0  0
  -23.1066   -7.4037   20.5328 C   0  0  0  0  0  0  0  0  0  0  0  0
  -22.6529   -9.3390   21.9061 C   0  0  0  0  0  0  0  0  0  0  0  0
  -28.2432  -14.0180   21.0485 C   0  0  0  0  0  0  0  0  0  0  0  0
  -30.2892  -14.6460   20.5443 C   0  0  0  0  0  0  0  0  0  0  0  0
  -26.5319  -20.4568   23.3586 C   0  0  0  0  0  0  0  0  0  0  0  0
  -32.8283  -23.2523   20.6175 C   0  0  0  0  0  0  0  0  0  0  0  0
  -29.3459  -12.9218   18.9997 C   0  0  0  0  0  0  0  0  0  0  0  0
  -23.1253  -30.1312   22.4383 C   0  0  0  0  0  0  0  0  0  0  0  0
  -20.1580  -28.8280   22.3007 C   0  0  0  0  0  0  0  0  0  0  0  0
  -18.2333  -26.0478   21.8392 C   0  0  0  0  0  0  0  0  0  0  0  0
  -30.3062  -19.7441   23.6610 C   0  0  0  0  0  0  0  0  0  0  0  0
  -23.3411  -35.1539   23.3236 C   0  0  0  0  0  0  0  0  0  0  0  0
  -23.2124  -28.9133   20.2326 C   0  0  0  0  0  0  0  0  0  0  0  0
  -22.0964  -27.2150   22.3808 C   0  0  0  0  0  0  0  0  0  0  0  0
  -26.1447  -20.9516   24.7307 C   0  0  0  0  0  0  0  0  0  0  0  0
  -22.4190  -34.0106   23.7395 C   0  0  0  0  0  0  0  0  0  0  0  0
  -26.8155  -22.3193   24.8182 C   0  0  0  0  0  0  0  0  0  0  0  0
  -32.0285  -16.7388   24.4851 C   0  0  0  0  0  0  0  0  0  0  0  0
  -23.2336  -32.8280   24.2542 C   0  0  0  0  0  0  0  0  0  0  0  0
  -31.3523  -15.6816   23.6091 C   0  0  0  0  0  0  0  0  0  0  0  0
  -31.0297  -17.7763   24.9948 C   0  0  0  0  0  0  0  0  0  0  0  0
  -29.5382  -17.3594   23.0789 C   0  0  0  0  0  0  0  0  0  0  0  0
  -24.1571  -32.2768   23.1611 C   0  0  1  0  0  0  0  0  0  0  0  0
  -22.3307  -29.4900   21.3360 C   0  0  1  0  0  0  0  0  0  0  0  0
  -30.5153  -16.3295   22.4887 C   0  0  2  0  0  0  0  0  0  0  0  0
  -26.8683  -22.8071   23.3736 C   0  0  2  0  0  0  0  0  0  0  0  0
  -15.8417  -25.2879   21.8242 C   0  0  0  0  0  0  0  0  0  0  0  0
  -20.1115  -28.9221   25.3501 C   0  0  0  0  0  0  0  0  0  0  0  0
  -18.1845  -27.3245   25.3006 C   0  0  0  0  0  0  0  0  0  0  0  0
  -17.9617  -29.5776   24.2533 C   0  0  0  0  0  0  0  0  0  0  0  0
  -18.3997  -25.1983   19.0091 C   0  0  0  0  0  0  0  0  0  0  0  0
  -27.3793  -21.5316   21.2421 C   0  0  0  0  0  0  0  0  0  0  0  0
  -25.6343  -23.6215   22.9988 C   0  0  0  0  0  0  0  0  0  1  0  0
  -19.3922  -27.8233   23.1272 C   0  0  1  0  0  0  0  0  0  0  0  0
  -17.0005  -25.8063   20.9868 C   0  0  2  0  0  0  0  0  0  0  0  0
  -18.9372  -28.4051   24.4953 C   0  0  0  0  0  0  0  0  0  0  0  0
  -28.5534  -14.9253   21.9783 N   0  0  0  0  0  0  0  0  0  0  0  0
  -29.8036  -15.2885   21.6450 N   0  0  0  0  0  0  0  0  0  0  0  0
  -26.9476  -21.5657   22.6246 N   0  0  0  0  0  0  0  0  0  0  0  0
  -21.4728  -28.4804   21.9596 N   0  0  0  0  0  0  0  0  0  0  0  0
  -30.2762  -18.3503   23.8779 N   0  0  0  0  0  0  0  0  0  0  0  0
  -30.6679  -24.6234   19.3003 N   0  0  0  0  0  0  0  0  0  0  0  0
  -31.5296  -14.8924   20.0720 N   0  0  0  0  0  0  0  0  0  0  0  0
  -33.3189  -24.1821   21.5275 N   0  0  0  0  0  0  0  0  0  0  0  0
  -28.2279  -12.1261   18.7146 N   0  0  0  0  0  0  0  0  0  0  0  0
  -29.5788  -20.1706   22.5503 N   0  0  0  0  0  0  0  0  0  0  0  0
  -23.4060  -31.4674   22.2256 N   0  0  0  0  0  0  0  0  0  0  0  0
  -18.2985  -27.3509   22.2852 N   0  0  0  0  0  0  0  0  0  0  0  0
  -17.2950  -24.8063   19.9218 N   0  3  0  0  0  0  0  0  0  0  0  0
  -26.4458  -19.2948   22.9903 O   0  0  0  0  0  0  0  0  0  0  0  0
  -33.5429  -22.8123   19.7021 O   0  0  0  0  0  0  0  0  0  0  0  0
  -30.3657  -12.8299   18.2752 O   0  0  0  0  0  0  0  0  0  0  0  0
  -23.4579  -29.4634   23.4105 O   0  0  0  0  0  0  0  0  0  0  0  0
  -19.6074  -29.8792   21.9638 O   0  0  0  0  0  0  0  0  0  0  0  0
  -19.0542  -25.1676   22.0877 O   0  0  0  0  0  0  0  0  0  0  0  0
  -30.9532  -20.5005   24.3898 O   0  0  0  0  0  0  0  0  0  0  0  0
  -23.2328  -11.5363   21.1096 O   0  0  0  0  0  0  0  0  0  0  0  0
  -25.7557  -24.0520   21.6437 O   0  0  0  0  0  0  0  0  0  1  0  0
  -23.0648   -6.0780   20.3463 F   0  0  0  0  0  0  0  0  0  0  0  0
  -22.1740   -9.8659   23.0413 F   0  0  0  0  0  0  0  0  0  0  0  0
  1  2  1  0  0  0  0
  1  5  2  0  0  0  0
  2  6  2  0  0  0  0
  3  8  2  0  0  0  0
  3 17  1  0  0  0  0
  4  9  1  0  0  0  0
  4 17  2  0  0  0  0
  5 20  1  0  0  0  0
  6 22  1  0  0  0  0
  7 10  2  0  0  0  0
  7 21  1  0  0  0  0
  8 27  1  0  0  0  0
  9 27  2  0  0  0  0
 10 28  1  0  0  0  0
 11 12  2  0  0  0  0
 11 29  1  0  0  0  0
 12 30  1  0  0  0  0
 13 18  2  0  0  0  0
 13 25  1  0  0  0  0
 14 23  1  0  0  0  0
 14 28  2  0  0  0  0
 15 24  1  0  0  0  0
 15 26  2  0  0  0  0
 16 30  2  0  0  0  0
 16 31  1  0  0  0  0
 17 32  1  0  0  0  0
 18 26  1  0  0  0  0
 18 35  1  0  0  0  0
 19 32  1  0  0  0  0
 19 33  2  0  0  0  0
 19 36  1  0  0  0  0
 20 22  2  0  0  0  0
 20 41  1  0  0  0  0
 21 23  2  0  0  0  0
 21 42  1  0  0  0  0
 22 52  1  0  0  0  0
 23 43  1  0  0  0  0
 24 25  2  0  0  0  0
 24 61  1  0  0  0  0
 25 75  1  0  0  0  0
 26 71  1  0  0  0  0
 27 86  1  0  0  0  0
 28 87  1  0  0  0  0
 29 31  2  0  0  0  0
 29 86  1  0  0  0  0
 30 88  1  0  0  0  0
 31 89  1  0  0  0  0
 32 66  2  0  0  0  0
 33 67  1  0  0  0  0
 33 72  1  0  0  0  0
 34 44  1  0  0  0  0
 34 68  1  0  0  0  0
 34 79  2  0  0  0  0
 35 73  1  0  0  0  0
 35 80  2  0  0  0  0
 36 74  1  0  0  0  0
 36 81  2  0  0  0  0
 37 53  1  0  0  0  0
 37 76  1  0  0  0  0
 37 82  2  0  0  0  0
 38 63  1  0  0  0  0
 38 69  1  0  0  0  0
 38 83  2  0  0  0  0
 39 64  1  0  0  0  0
 39 77  1  0  0  0  0
 39 84  2  0  0  0  0
 40 70  1  0  0  0  0
 40 75  1  0  0  0  0
 40 85  2  0  0  0  0
 41 45  1  0  0  0  0
 42 53  1  0  0  0  0
 43 69  1  0  0  0  0
 44 46  1  0  0  0  0
 45 48  1  0  0  0  0
 46 55  1  0  0  0  0
 47 49  1  0  0  0  0
 47 50  1  0  0  0  0
 48 52  1  0  0  0  0
 49 54  1  0  0  0  0
 50 70  1  0  0  0  0
 51 54  1  0  0  0  0
 51 70  1  0  0  0  0
 52 76  1  0  0  0  0
 53 69  1  0  0  0  0
 54 67  1  0  0  0  0
 55 62  1  0  0  0  0
 55 68  1  0  0  0  0
 56 64  1  0  0  0  0
 57 65  1  0  0  0  0
 58 65  1  0  0  0  0
 59 65  1  0  0  0  0
 60 78  1  0  0  0  0
 61 68  1  0  0  0  0
 62 87  1  0  0  0  0
 63 65  1  0  0  0  0
 63 77  1  0  0  0  0
 64 78  1  0  0  0  0
 66 67  1  0  0  0  0
M  CHG  1  78   1
M  ISO  4  40 100  62 101  75 100  87 101
M  END
> <Batch ID>
0111

> <Smiles>
CNC(C)C(=O)NC(C(=O)N1Cc2cc([101O:1][101CH2:1]C3CCC(=O)N3Cc3cc(N)c(C(N)=O)cc3[100NH:0][100C:0](=O)N3CCCC(n4nc(-c5ccc(Oc6ccc(F)cc6F)cc5)c(C(N)=O)c4N)C3)ccc2CC1C(=O)NC1CCCc2ccccc21)C(C)(C)C

> <Shape>
0.279

> <Color>
0.062

> <Negative vol penalty>
0.000

$$$$

  -OEChem-04052301283D

 85 94  0     1  0  0  0  0  0999 V2000
  -29.4044  -32.9913   26.5752 C   0  0  0  0  0  0  0  0  0  0  0  0
  -28.8177  -31.7763   26.2361 C   0  0  0  0  0  0  0  0  0  0  0  0
  -22.6562  -10.7082   21.4663 C   0  0  0  0  0  0  0  0  0  0  0  0
  -24.4738   -9.1187   21.5483 C   0  0  0  0  0  0  0  0  0  0  0  0
  -28.7124  -34.1824   26.3599 C   0  0  0  0  0  0  0  0  0  0  0  0
  -27.5380  -31.7517   25.6826 C   0  0  0  0  0  0  0  0  0  0  0  0
  -27.1947  -28.6148   21.7220 C   0  0  0  0  0  0  0  0  0  0  0  0
  -21.9536   -9.9533   22.4054 C   0  0  0  0  0  0  0  0  0  0  0  0
  -23.7712   -8.3638   22.4875 C   0  0  0  0  0  0  0  0  0  0  0  0
  -27.0944  -27.2515   21.9963 C   0  0  0  0  0  0  0  0  0  0  0  0
  -21.2282   -6.1359   22.4944 C   0  0  0  0  0  0  0  0  0  0  0  0
  -21.1866   -4.7533   22.3144 C   0  0  0  0  0  0  0  0  0  0  0  0
  -24.7105  -27.3621   21.6443 C   0  0  0  0  0  0  0  0  0  0  0  0
  -22.2603   -4.4422   24.4562 C   0  0  0  0  0  0  0  0  0  0  0  0
  -27.0800  -18.3069   21.9199 C   0  0  0  0  0  0  0  0  0  0  0  0
  -23.9163  -10.2909   21.0376 C   0  0  0  0  0  0  0  0  0  0  0  0
  -24.2360  -11.3896   18.7577 C   0  0  0  0  0  0  0  0  0  0  0  0
  -27.4275  -34.1730   25.7946 C   0  0  0  0  0  0  0  0  0  0  0  0
  -26.0502  -29.3655   21.4169 C   0  0  0  0  0  0  0  0  0  0  0  0
  -26.8277  -32.9437   25.4609 C   0  0  0  0  0  0  0  0  0  0  0  0
  -24.7992  -28.7342   21.3640 C   0  0  0  0  0  0  0  0  0  0  0  0
  -22.5111   -8.7812   22.9161 C   0  0  0  0  0  0  0  0  0  0  0  0
  -25.8518  -26.6256   21.9603 C   0  0  0  0  0  0  0  0  0  0  0  0
  -21.7860   -6.6716   23.6552 C   0  0  0  0  0  0  0  0  0  0  0  0
  -21.7026   -3.9065   23.2953 C   0  0  0  0  0  0  0  0  0  0  0  0
  -22.3020   -5.8248   24.6361 C   0  0  0  0  0  0  0  0  0  0  0  0
  -24.6423  -11.0700   20.0671 C   0  0  0  0  0  0  0  0  0  0  0  0
  -28.2561  -17.6442   21.5282 C   0  0  0  0  0  0  0  0  0  0  0  0
  -25.2683  -12.1411   18.2516 C   0  0  0  0  0  0  0  0  0  0  0  0
  -27.4903  -19.5947   22.1417 C   0  0  0  0  0  0  0  0  0  0  0  0
  -26.6586  -23.1620   22.8458 C   0  0  0  0  0  0  0  0  0  0  0  0
  -27.1444  -22.0780   22.1935 C   0  0  0  0  0  0  0  0  0  0  0  0
  -25.7605  -22.9328   24.0273 C   0  0  0  0  0  0  0  0  0  0  0  0
  -23.0329  -11.0388   18.0611 C   0  0  0  0  0  0  0  0  0  0  0  0
  -24.5685  -31.8398   22.7534 C   0  0  0  0  0  0  0  0  0  0  0  0
  -22.7378  -31.6888   20.0798 C   0  0  0  0  0  0  0  0  0  0  0  0
  -21.5338  -29.8138   17.4950 C   0  0  0  0  0  0  0  0  0  0  0  0
  -29.4602  -15.5565   20.7947 C   0  0  0  0  0  0  0  0  0  0  0  0
  -26.6996  -35.4829   25.6245 C   0  0  0  0  0  0  0  0  0  0  0  0
  -26.1787  -30.8296   21.0972 C   0  0  0  0  0  0  0  0  0  0  0  0
  -23.5429  -29.4911   21.0218 C   0  0  0  0  0  0  0  0  0  0  0  0
  -25.5555  -21.5183   24.5134 C   0  0  0  0  0  0  0  0  0  0  0  0
  -25.4981  -35.3949   24.6870 C   0  0  0  0  0  0  0  0  0  0  0  0
  -29.9997  -12.7597   18.6584 C   0  0  0  0  0  0  0  0  0  0  0  0
  -24.6497  -34.1717   25.0200 C   0  0  0  0  0  0  0  0  0  0  0  0
  -28.6483  -12.0414   18.6532 C   0  0  0  0  0  0  0  0  0  0  0  0
  -25.6048  -20.5179   23.3719 C   0  0  0  0  0  0  0  0  0  0  0  0
  -30.3204  -13.3548   20.0284 C   0  0  0  0  0  0  0  0  0  0  0  0
  -27.9248  -13.5039   20.5832 C   0  0  0  0  0  0  0  0  0  0  0  0
  -25.4513  -32.8775   24.8354 C   0  0  1  0  0  0  0  0  0  0  0  0
  -24.8795  -31.6023   21.3026 C   0  0  1  0  0  0  0  0  0  0  0  0
  -27.5284  -12.9438   19.2074 C   0  0  2  0  0  0  0  0  0  0  0  0
  -28.0035  -22.2619   20.9574 C   0  0  0  0  0  0  0  0  0  0  0  0
  -20.0289  -29.9561   15.4919 C   0  0  0  0  0  0  0  0  0  0  0  0
  -20.2976  -31.5776   21.9082 C   0  0  0  0  0  0  0  0  0  0  0  0
  -18.9555  -30.7765   19.9524 C   0  0  0  0  0  0  0  0  0  0  0  0
  -20.0241  -33.0297   19.8906 C   0  0  0  0  0  0  0  0  0  0  0  0
  -23.7470  -29.1628   15.6411 C   0  0  0  0  0  0  0  0  0  0  0  0
  -26.9591  -24.6019   22.5388 C   0  0  0  0  0  0  0  0  0  1  0  0
  -21.4708  -30.9659   19.6911 C   0  0  1  0  0  0  0  0  0  0  0  0
  -21.4550  -30.0867   16.0037 C   0  0  2  0  0  0  0  0  0  0  0  0
  -20.2102  -31.5733   20.3689 C   0  0  0  0  0  0  0  0  0  0  0  0
  -25.8395  -11.5768   20.3736 N   0  0  0  0  0  0  0  0  0  0  0  0
  -29.3148  -18.4587   21.5087 N   0  0  0  0  0  0  0  0  0  0  0  0
  -26.1943  -12.2224   19.2496 N   0  0  0  0  0  0  0  0  0  0  0  0
  -26.7987  -20.7626   22.5549 N   0  0  0  0  0  0  0  0  0  0  0  0
  -23.7195  -30.9219   20.7232 N   0  0  0  0  0  0  0  0  0  0  0  0
  -29.2169  -14.2011   20.4875 N   0  0  0  0  0  0  0  0  0  0  0  0
  -25.4652  -12.7335   17.0547 N   0  0  0  0  0  0  0  0  0  0  0  0
  -23.0132   -9.8503   17.3185 N   0  0  0  0  0  0  0  0  0  0  0  0
  -28.3291  -16.2703   21.1894 N   0  0  0  0  0  0  0  0  0  0  0  0
  -25.5485  -32.5391   23.4316 N   0  0  0  0  0  0  0  0  0  0  0  0
  -21.4274  -30.9737   18.2328 N   0  0  0  0  0  0  0  0  0  0  0  0
  -22.3130  -29.1253   15.2551 N   0  3  0  0  0  0  0  0  0  0  0  0
  -25.2464  -23.8800   24.6219 O   0  0  0  0  0  0  0  0  0  0  0  0
  -22.0111  -11.7660   18.0829 O   0  0  0  0  0  0  0  0  0  0  0  0
  -23.5167  -31.4209   23.2223 O   0  0  0  0  0  0  0  0  0  0  0  0
  -22.8552  -32.8880   19.8157 O   0  0  0  0  0  0  0  0  0  0  0  0
  -21.6719  -28.6841   17.9589 O   0  0  0  0  0  0  0  0  0  0  0  0
  -30.5837  -16.0547   20.6875 O   0  0  0  0  0  0  0  0  0  0  0  0
  -28.8221  -19.6980   21.8996 O   0  0  0  0  0  0  0  0  0  0  0  0
  -21.8259   -8.0444   23.8328 O   0  0  0  0  0  0  0  0  0  0  0  0
  -25.7511  -25.2952   22.2283 O   0  0  0  0  0  0  0  0  0  1  0  0
  -21.6611   -2.5788   23.1231 F   0  0  0  0  0  0  0  0  0  0  0  0
  -22.8381   -6.3336   25.7540 F   0  0  0  0  0  0  0  0  0  0  0  0
  1  2  1  0  0  0  0
  1  5  2  0  0  0  0
  2  6  2  0  0  0  0
  3  8  2  0  0  0  0
  3 16  1  0  0  0  0
  4  9  1  0  0  0  0
  4 16  2  0  0  0  0
  5 18  1  0  0  0  0
  6 20  1  0  0  0  0
  7 10  2  0  0  0  0
  7 19  1  0  0  0  0
  8 22  1  0  0  0  0
  9 22  2  0  0  0  0
 10 23  1  0  0  0  0
 11 12  2  0  0  0  0
 11 24  1  0  0  0  0
 12 25  1  0  0  0  0
 13 21  1  0  0  0  0
 13 23  2  0  0  0  0
 14 25  2  0  0  0  0
 14 26  1  0  0  0  0
 15 28  1  0  0  0  0
 15 30  2  0  0  0  0
 16 27  1  0  0  0  0
 17 27  1  0  0  0  0
 17 29  2  0  0  0  0
 17 34  1  0  0  0  0
 18 20  2  0  0  0  0
 18 39  1  0  0  0  0
 19 21  2  0  0  0  0
 19 40  1  0  0  0  0
 20 50  1  0  0  0  0
 21 41  1  0  0  0  0
 22 82  1  0  0  0  0
 23 83  1  0  0  0  0
 24 26  2  0  0  0  0
 24 82  1  0  0  0  0
 25 84  1  0  0  0  0
 26 85  1  0  0  0  0
 27 63  2  0  0  0  0
 28 64  2  0  0  0  0
 28 71  1  0  0  0  0
 29 65  1  0  0  0  0
 29 69  1  0  0  0  0
 30 66  1  0  0  0  0
 30 81  1  0  0  0  0
 31 32  2  0  0  0  0
 31 33  1  0  0  0  0
 31 59  1  0  0  0  0
 32 53  1  0  0  0  0
 32 66  1  0  0  0  0
 33 42  1  0  0  0  0
 33 75  2  0  0  0  0
 34 70  1  0  0  0  0
 34 76  2  0  0  0  0
 35 51  1  0  0  0  0
 35 72  1  0  0  0  0
 35 77  2  0  0  0  0
 36 60  1  0  0  0  0
 36 67  1  0  0  0  0
 36 78  2  0  0  0  0
 37 61  1  0  0  0  0
 37 73  1  0  0  0  0
 37 79  2  0  0  0  0
 38 68  1  0  0  0  0
 38 71  1  0  0  0  0
 38 80  2  0  0  0  0
 39 43  1  0  0  0  0
 40 51  1  0  0  0  0
 41 67  1  0  0  0  0
 42 47  1  0  0  0  0
 43 45  1  0  0  0  0
 44 46  1  0  0  0  0
 44 48  1  0  0  0  0
 45 50  1  0  0  0  0
 46 52  1  0  0  0  0
 47 66  1  0  0  0  0
 48 68  1  0  0  0  0
 49 52  1  0  0  0  0
 49 68  1  0  0  0  0
 50 72  1  0  0  0  0
 51 67  1  0  0  0  0
 52 65  1  0  0  0  0
 54 61  1  0  0  0  0
 55 62  1  0  0  0  0
 56 62  1  0  0  0  0
 57 62  1  0  0  0  0
 58 74  1  0  0  0  0
 59 83  1  0  0  0  0
 60 62  1  0  0  0  0
 60 73  1  0  0  0  0
 61 74  1  0  0  0  0
 63 65  1  0  0  0  0
 64 81  1  0  0  0  0
M  CHG  1  74   1
M  ISO  4  38 100  59 101  71 100  83 101
M  END
> <Batch ID>
0111

> <Smiles>
CNC(C)C(=O)NC(C(=O)N1Cc2cc([101O:1][101CH2:1]C3=C(C)N(c4cc([100NH:0][100C:0](=O)N5CCCC(n6nc(-c7ccc(Oc8ccc(F)cc8F)cc7)c(C(N)=O)c6N)C5)no4)CCC3=O)ccc2CC1C(=O)NC1CCCc2ccccc21)C(C)(C)C

> <Shape>
0.264

> <Color>
0.096

> <Negative vol penalty>
0.000

$$$$

  -OEChem-04052301283D

 81 89  0     1  0  0  0  0  0999 V2000
  -34.3029  -27.0144   19.2668 C   0  0  0  0  0  0  0  0  0  0  0  0
  -33.0223  -26.5497   19.5493 C   0  0  0  0  0  0  0  0  0  0  0  0
  -23.5257  -10.9486   19.5342 C   0  0  0  0  0  0  0  0  0  0  0  0
  -24.2708  -10.0014   21.6281 C   0  0  0  0  0  0  0  0  0  0  0  0
  -34.8444  -28.0598   20.0136 C   0  0  0  0  0  0  0  0  0  0  0  0
  -32.2830  -27.1296   20.5796 C   0  0  0  0  0  0  0  0  0  0  0  0
  -27.4800  -28.0337   19.2534 C   0  0  0  0  0  0  0  0  0  0  0  0
  -22.9772   -9.7182   19.1727 C   0  0  0  0  0  0  0  0  0  0  0  0
  -23.7222   -8.7709   21.2667 C   0  0  0  0  0  0  0  0  0  0  0  0
  -26.6059  -26.9475   19.2472 C   0  0  0  0  0  0  0  0  0  0  0  0
  -20.6640   -7.3349   21.1909 C   0  0  0  0  0  0  0  0  0  0  0  0
  -19.9215   -6.6503   22.1530 C   0  0  0  0  0  0  0  0  0  0  0  0
  -25.7521  -27.6299   21.3977 C   0  0  0  0  0  0  0  0  0  0  0  0
  -21.4579   -4.7909   22.0158 C   0  0  0  0  0  0  0  0  0  0  0  0
  -24.1726  -11.0902   20.7619 C   0  0  0  0  0  0  0  0  0  0  0  0
  -24.1028  -13.4038   21.8343 C   0  0  0  0  0  0  0  0  0  0  0  0
  -34.1076  -28.6592   21.0473 C   0  0  0  0  0  0  0  0  0  0  0  0
  -27.5044  -28.9214   20.3386 C   0  0  0  0  0  0  0  0  0  0  0  0
  -32.8157  -28.1831   21.3419 C   0  0  0  0  0  0  0  0  0  0  0  0
  -26.6256  -28.7280   21.4141 C   0  0  0  0  0  0  0  0  0  0  0  0
  -23.0754   -8.6293   20.0389 C   0  0  0  0  0  0  0  0  0  0  0  0
  -25.7439  -26.7438   20.3207 C   0  0  0  0  0  0  0  0  0  0  0  0
  -21.8035   -6.7474   20.6412 C   0  0  0  0  0  0  0  0  0  0  0  0
  -20.3184   -5.3784   22.5655 C   0  0  0  0  0  0  0  0  0  0  0  0
  -22.2004   -5.4754   21.0536 C   0  0  0  0  0  0  0  0  0  0  0  0
  -24.7399  -12.3609   21.1356 C   0  0  0  0  0  0  0  0  0  0  0  0
  -25.2629  -21.9377   20.1558 C   0  0  0  0  0  0  0  0  0  0  0  0
  -24.6064  -20.7325   20.1196 C   0  0  0  0  0  0  0  0  0  0  0  0
  -25.0604  -14.3831   21.9375 C   0  0  0  0  0  0  0  0  0  0  0  0
  -26.6690  -20.3300   20.0362 C   0  0  0  0  0  0  0  0  0  0  0  0
  -24.7055  -23.2983   20.2376 C   0  0  0  0  0  0  0  0  0  0  0  0
  -25.4241  -24.4280   20.2491 C   0  0  0  0  0  0  0  0  0  1  0  0
  -22.7651  -13.4806   22.3444 C   0  0  0  0  0  0  0  0  0  0  0  0
  -28.0002  -19.6746   19.9648 C   0  0  0  0  0  0  0  0  0  0  0  0
  -29.6870  -29.7841   22.4824 C   0  0  0  0  0  0  0  0  0  0  0  0
  -27.4136  -31.9253   23.3596 C   0  0  0  0  0  0  0  0  0  0  0  0
  -24.1087  -32.7726   23.4400 C   0  0  0  0  0  0  0  0  0  0  0  0
  -29.1213  -17.4760   19.7832 C   0  0  0  0  0  0  0  0  0  0  0  0
  -34.7532  -29.7548   21.8581 C   0  0  0  0  0  0  0  0  0  0  0  0
  -28.4344  -30.1034   20.3179 C   0  0  0  0  0  0  0  0  0  0  0  0
  -26.5984  -29.6637   22.5940 C   0  0  0  0  0  0  0  0  0  0  0  0
  -33.7601  -30.5646   22.6877 C   0  0  0  0  0  0  0  0  0  0  0  0
  -30.0242  -14.2592   20.9380 C   0  0  0  0  0  0  0  0  0  0  0  0
  -32.7976  -29.6373   23.4229 C   0  0  0  0  0  0  0  0  0  0  0  0
  -28.6781  -13.5637   21.1587 C   0  0  0  0  0  0  0  0  0  0  0  0
  -30.0019  -15.1600   19.7040 C   0  0  0  0  0  0  0  0  0  0  0  0
  -27.5627  -15.4367   19.8812 C   0  0  0  0  0  0  0  0  0  0  0  0
  -31.9730  -28.8028   22.4354 C   0  0  1  0  0  0  0  0  0  0  0  0
  -28.7346  -30.6519   21.7095 C   0  0  1  0  0  0  0  0  0  0  0  0
  -27.5122  -14.5728   21.1518 C   0  0  1  0  0  0  0  0  0  0  0  0
  -23.1624  -20.4533   20.1525 C   0  0  0  0  0  0  0  0  0  0  0  0
  -22.5539  -34.5647   24.2574 C   0  0  0  0  0  0  0  0  0  0  0  0
  -27.6880  -30.8615   26.2063 C   0  0  0  0  0  0  0  0  0  0  0  0
  -25.5133  -31.9731   26.7569 C   0  0  0  0  0  0  0  0  0  0  0  0
  -27.4674  -33.3470   26.0381 C   0  0  0  0  0  0  0  0  0  0  0  0
  -23.1863  -33.3860   20.6956 C   0  0  0  0  0  0  0  0  0  0  0  0
  -26.2606  -31.9215   24.3341 C   0  0  1  0  0  0  0  0  0  0  0  0
  -23.3912  -34.0640   23.0908 C   0  0  2  0  0  0  0  0  0  0  0  0
  -26.7339  -32.0069   25.8126 C   0  0  0  0  0  0  0  0  0  0  0  0
  -26.0044  -12.6505   20.8173 N   0  0  0  0  0  0  0  0  0  0  0  0
  -25.5127  -19.7061   20.0427 N   0  0  0  0  0  0  0  0  0  0  0  0
  -26.1695  -13.8866   21.3182 N   0  0  0  0  0  0  0  0  0  0  0  0
  -27.5310  -30.8011   22.5300 N   0  0  0  0  0  0  0  0  0  0  0  0
  -28.8753  -16.0919   19.7788 N   0  0  0  0  0  0  0  0  0  0  0  0
  -25.0534  -15.6118   22.4967 N   0  0  0  0  0  0  0  0  0  0  0  0
  -21.9125  -12.3850   22.1513 N   0  0  0  0  0  0  0  0  0  0  0  0
  -27.9828  -18.2811   19.9006 N   0  0  0  0  0  0  0  0  0  0  0  0
  -30.9093  -29.6009   21.8644 N   0  0  0  0  0  0  0  0  0  0  0  0
  -25.3774  -33.0085   23.9257 N   0  0  0  0  0  0  0  0  0  0  0  0
  -22.4911  -33.8565   21.9213 N   0  3  0  0  0  0  0  0  0  0  0  0
  -22.3333  -14.4972   22.9391 O   0  0  0  0  0  0  0  0  0  0  0  0
  -29.0094  -20.3732   19.9270 O   0  0  0  0  0  0  0  0  0  0  0  0
  -29.3392  -29.3165   23.5604 O   0  0  0  0  0  0  0  0  0  0  0  0
  -28.1777  -32.8933   23.3306 O   0  0  0  0  0  0  0  0  0  0  0  0
  -23.5938  -31.6655   23.2997 O   0  0  0  0  0  0  0  0  0  0  0  0
  -30.2588  -17.9536   19.7260 O   0  0  0  0  0  0  0  0  0  0  0  0
  -26.6009  -21.6879   20.1022 O   0  0  0  0  0  0  0  0  0  0  0  0
  -22.5400   -7.4286   19.6867 O   0  0  0  0  0  0  0  0  0  0  0  0
  -24.8902  -25.6841   20.3175 O   0  0  0  0  0  0  0  0  0  1  0  0
  -19.6062   -4.7218   23.4905 F   0  0  0  0  0  0  0  0  0  0  0  0
  -23.2949   -4.9063   20.5300 F   0  0  0  0  0  0  0  0  0  0  0  0
  1  2  1  0  0  0  0
  1  5  2  0  0  0  0
  2  6  2  0  0  0  0
  3  8  2  0  0  0  0
  3 15  1  0  0  0  0
  4  9  1  0  0  0  0
  4 15  2  0  0  0  0
  5 17  1  0  0  0  0
  6 19  1  0  0  0  0
  7 10  2  0  0  0  0
  7 18  1  0  0  0  0
  8 21  1  0  0  0  0
  9 21  2  0  0  0  0
 10 22  1  0  0  0  0
 11 12  2  0  0  0  0
 11 23  1  0  0  0  0
 12 24  1  0  0  0  0
 13 20  1  0  0  0  0
 13 22  2  0  0  0  0
 14 24  2  0  0  0  0
 14 25  1  0  0  0  0
 15 26  1  0  0  0  0
 16 26  1  0  0  0  0
 16 29  2  0  0  0  0
 16 33  1  0  0  0  0
 17 19  2  0  0  0  0
 17 39  1  0  0  0  0
 18 20  2  0  0  0  0
 18 40  1  0  0  0  0
 19 48  1  0  0  0  0
 20 41  1  0  0  0  0
 21 78  1  0  0  0  0
 22 79  1  0  0  0  0
 23 25  2  0  0  0  0
 23 78  1  0  0  0  0
 24 80  1  0  0  0  0
 25 81  1  0  0  0  0
 26 60  2  0  0  0  0
 27 28  2  0  0  0  0
 27 31  1  0  0  0  0
 27 77  1  0  0  0  0
 28 51  1  0  0  0  0
 28 61  1  0  0  0  0
 29 62  1  0  0  0  0
 29 65  1  0  0  0  0
 30 34  1  0  0  0  0
 30 61  2  0  0  0  0
 30 77  1  0  0  0  0
 31 32  2  0  0  0  0
 32 79  1  0  0  0  0
 33 66  1  0  0  0  0
 33 71  2  0  0  0  0
 34 67  1  0  0  0  0
 34 72  2  0  0  0  0
 35 49  1  0  0  0  0
 35 68  1  0  0  0  0
 35 73  2  0  0  0  0
 36 57  1  0  0  0  0
 36 63  1  0  0  0  0
 36 74  2  0  0  0  0
 37 58  1  0  0  0  0
 37 69  1  0  0  0  0
 37 75  2  0  0  0  0
 38 64  1  0  0  0  0
 38 67  1  0  0  0  0
 38 76  2  0  0  0  0
 39 42  1  0  0  0  0
 40 49  1  0  0  0  0
 41 63  1  0  0  0  0
 42 44  1  0  0  0  0
 43 45  1  0  0  0  0
 43 46  1  0  0  0  0
 44 48  1  0  0  0  0
 45 50  1  0  0  0  0
 46 64  1  0  0  0  0
 47 50  1  0  0  0  0
 47 64  1  0  0  0  0
 48 68  1  0  0  0  0
 49 63  1  0  0  0  0
 50 62  1  0  0  0  0
 52 58  1  0  0  0  0
 53 59  1  0  0  0  0
 54 59  1  0  0  0  0
 55 59  1  0  0  0  0
 56 70  1  0  0  0  0
 57 59  1  0  0  0  0
 57 69  1  0  0  0  0
 58 70  1  0  0  0  0
 60 62  1  0  0  0  0
M  CHG  1  70   1
M  ISO  4  32 101  38 100  67 100  79 101
M  END
> <Batch ID>
0111

> <Smiles>
CNC(C)C(=O)NC(C(=O)N1Cc2cc([101O:1][101CH:1]=Cc3oc(C(=O)[100NH:0][100C:0](=O)N4CCCC(n5nc(-c6ccc(Oc7ccc(F)cc7F)cc6)c(C(N)=O)c5N)C4)nc3C)ccc2CC1C(=O)NC1CCCc2ccccc21)C(C)(C)C

> <Shape>
0.248

> <Color>
0.111

> <Negative vol penalty>
0.000

$$$$

  -OEChem-04052301283D

 86 94  0     1  0  0  0  0  0999 V2000
  -19.8442  -29.4925   27.9918 C   0  0  0  0  0  0  0  0  0  0  0  0
  -20.3352  -28.2123   27.7561 C   0  0  0  0  0  0  0  0  0  0  0  0
  -23.3702   -9.8230   19.8490 C   0  0  0  0  0  0  0  0  0  0  0  0
  -23.8256   -9.9003   22.2204 C   0  0  0  0  0  0  0  0  0  0  0  0
  -19.8356  -30.4347   26.9640 C   0  0  0  0  0  0  0  0  0  0  0  0
  -20.8167  -27.8732   26.4922 C   0  0  0  0  0  0  0  0  0  0  0  0
  -25.4651  -24.0959   25.2153 C   0  0  0  0  0  0  0  0  0  0  0  0
  -22.6962   -8.6136   20.0178 C   0  0  0  0  0  0  0  0  0  0  0  0
  -23.1515   -8.6909   22.3893 C   0  0  0  0  0  0  0  0  0  0  0  0
  -25.5069  -22.7558   24.8328 C   0  0  0  0  0  0  0  0  0  0  0  0
  -19.9479   -7.6329   22.5849 C   0  0  0  0  0  0  0  0  0  0  0  0
  -19.0523   -7.5350   23.6497 C   0  0  0  0  0  0  0  0  0  0  0  0
  -30.0945  -15.2499   23.0089 C   0  0  0  0  0  0  0  0  0  0  0  0
  -25.6554  -23.4267   22.5204 C   0  0  0  0  0  0  0  0  0  0  0  0
  -29.3826  -14.8930   25.6826 C   0  0  0  0  0  0  0  0  0  0  0  0
  -20.3414   -5.7086   24.5660 C   0  0  0  0  0  0  0  0  0  0  0  0
  -23.9350  -10.4664   20.9503 C   0  0  0  0  0  0  0  0  0  0  0  0
  -30.2006  -13.9894   23.5965 C   0  0  0  0  0  0  0  0  0  0  0  0
  -24.0838  -13.0106   20.8396 C   0  0  0  0  0  0  0  0  0  0  0  0
  -20.3262  -30.1099   25.6895 C   0  0  0  0  0  0  0  0  0  0  0  0
  -25.5072  -25.1130   24.2508 C   0  0  0  0  0  0  0  0  0  0  0  0
  -20.8134  -28.8115   25.4461 C   0  0  0  0  0  0  0  0  0  0  0  0
  -25.6166  -24.7789   22.8934 C   0  0  0  0  0  0  0  0  0  0  0  0
  -29.8446  -13.8109   24.9334 C   0  0  0  0  0  0  0  0  0  0  0  0
  -22.5868   -8.0475   21.2880 C   0  0  0  0  0  0  0  0  0  0  0  0
  -25.5991  -22.4210   23.4851 C   0  0  0  0  0  0  0  0  0  0  0  0
  -21.0402   -6.7685   22.5105 C   0  0  0  0  0  0  0  0  0  0  0  0
  -29.6326  -16.3321   23.7581 C   0  0  0  0  0  0  0  0  0  0  0  0
  -29.2766  -16.1536   25.0949 C   0  0  0  0  0  0  0  0  0  0  0  0
  -19.2490   -6.5730   24.6403 C   0  0  0  0  0  0  0  0  0  0  0  0
  -21.2370   -5.8065   23.5011 C   0  0  0  0  0  0  0  0  0  0  0  0
  -24.6319  -11.7155   20.7764 C   0  0  0  0  0  0  0  0  0  0  0  0
  -25.1494  -13.8460   20.6086 C   0  0  0  0  0  0  0  0  0  0  0  0
  -26.8661  -19.4017   22.0124 C   0  0  0  0  0  0  0  0  0  0  0  0
  -28.1658  -19.0756   21.9596 C   0  0  0  0  0  0  0  0  0  0  0  0
  -30.6855  -12.8790   22.7866 C   0  0  0  0  0  0  0  0  0  0  0  0
  -22.7325  -13.4219   21.0852 C   0  0  0  0  0  0  0  0  0  0  0  0
  -31.0620  -13.0697   21.3671 C   0  0  0  0  0  0  0  0  0  0  0  0
  -23.5345  -27.4394   23.3566 C   0  0  0  0  0  0  0  0  0  0  0  0
  -26.0352  -28.3091   21.4824 C   0  0  0  0  0  0  0  0  0  0  0  0
  -28.8922  -27.3940   19.8554 C   0  0  0  0  0  0  0  0  0  0  0  0
  -20.2527  -31.1473   24.5972 C   0  0  0  0  0  0  0  0  0  0  0  0
  -25.4882  -26.5540   24.6814 C   0  0  0  0  0  0  0  0  0  0  0  0
  -25.6854  -25.8334   21.8202 C   0  0  0  0  0  0  0  0  0  0  0  0
  -21.1270  -30.8225   23.3888 C   0  0  0  0  0  0  0  0  0  0  0  0
  -29.3592  -14.0294   18.3610 C   0  0  0  0  0  0  0  0  0  0  0  0
  -20.9423  -29.3668   22.9721 C   0  0  0  0  0  0  0  0  0  0  0  0
  -27.9101  -13.6264   18.6320 C   0  0  0  0  0  0  0  0  0  0  0  0
  -30.3396  -13.0591   19.0119 C   0  0  0  0  0  0  0  0  0  0  0  0
  -28.6777  -12.4807   20.7589 C   0  0  0  0  0  0  0  0  0  0  0  0
  -21.3672  -28.4132   24.0953 C   0  0  1  0  0  0  0  0  0  0  0  0
  -25.0190  -27.5004   23.5807 C   0  0  1  0  0  0  0  0  0  0  0  0
  -27.6581  -13.4530   20.1404 C   0  0  2  0  0  0  0  0  0  0  0  0
  -30.6974  -28.3149   18.3754 C   0  0  0  0  0  0  0  0  0  0  0  0
  -24.1152  -28.2558   19.1116 C   0  0  0  0  0  0  0  0  0  0  0  0
  -26.1039  -28.2369   17.5908 C   0  0  0  0  0  0  0  0  0  0  0  0
  -25.7183  -30.1753   19.1128 C   0  0  0  0  0  0  0  0  0  0  0  0
  -30.9971  -26.7755   21.8419 C   0  0  0  0  0  0  0  0  0  0  0  0
  -27.4196  -17.4403   25.8378 C   0  0  0  0  0  0  0  0  0  0  0  0
  -26.3580  -20.8030   21.9159 C   0  0  0  0  0  0  0  0  0  1  0  0
  -28.6736  -17.6733   22.0443 C   0  0  0  0  0  0  0  0  0  0  0  0
  -26.4904  -27.9720   20.0831 C   0  0  1  0  0  0  0  0  0  0  0  0
  -30.2707  -28.0280   19.8066 C   0  0  2  0  0  0  0  0  0  0  0  0
  -25.6037  -28.6399   18.9944 C   0  0  0  0  0  0  0  0  0  0  0  0
  -25.9436  -11.7223   20.5248 N   0  0  0  0  0  0  0  0  0  0  0  0
  -30.8208  -11.6662   23.2464 N   0  0  0  0  0  0  0  0  0  0  0  0
  -26.2287  -13.0320   20.4278 N   0  0  0  0  0  0  0  0  0  0  0  0
  -30.0500  -12.8898   20.4344 N   0  0  0  0  0  0  0  0  0  0  0  0
  -25.6570  -27.2280   22.2912 N   0  0  0  0  0  0  0  0  0  0  0  0
  -29.9445  -12.5425   25.5473 N   0  0  0  0  0  0  0  0  0  0  0  0
  -25.2589  -15.1899   20.5445 N   0  0  0  0  0  0  0  0  0  0  0  0
  -21.7625  -12.4339   21.3029 N   0  0  0  0  0  0  0  0  0  0  0  0
  -22.8096  -28.3079   24.1502 N   0  0  0  0  0  0  0  0  0  0  0  0
  -27.9007  -28.3391   20.0130 N   0  0  0  0  0  0  0  0  0  0  0  0
  -31.2796  -27.1223   20.4252 N   0  3  0  0  0  0  0  0  0  0  0  0
  -22.3919  -14.6291   21.0946 O   0  0  0  0  0  0  0  0  0  0  0  0
  -32.2325  -13.3668   21.1672 O   0  0  0  0  0  0  0  0  0  0  0  0
  -23.0805  -26.6631   22.5242 O   0  0  0  0  0  0  0  0  0  0  0  0
  -26.0226  -29.4875   21.8469 O   0  0  0  0  0  0  0  0  0  0  0  0
  -28.7127  -26.1819   19.7594 O   0  0  0  0  0  0  0  0  0  0  0  0
  -21.9289   -6.8675   21.4531 O   0  0  0  0  0  0  0  0  0  0  0  0
  -28.8260  -17.2033   25.8371 O   0  0  0  0  0  0  0  0  0  0  0  0
  -25.6394  -21.1138   23.1090 O   0  0  0  0  0  0  0  0  0  1  0  0
  -29.5340  -17.5663   23.1697 O   0  0  0  0  0  0  0  0  0  0  0  0
  -18.3898   -6.4801   25.6636 F   0  0  0  0  0  0  0  0  0  0  0  0
  -22.2852   -4.9741   23.4358 F   0  0  0  0  0  0  0  0  0  0  0  0
  1  2  1  0  0  0  0
  1  5  2  0  0  0  0
  2  6  2  0  0  0  0
  3  8  2  0  0  0  0
  3 17  1  0  0  0  0
  4  9  1  0  0  0  0
  4 17  2  0  0  0  0
  5 20  1  0  0  0  0
  6 22  1  0  0  0  0
  7 10  2  0  0  0  0
  7 21  1  0  0  0  0
  8 25  1  0  0  0  0
  9 25  2  0  0  0  0
 10 26  1  0  0  0  0
 11 12  2  0  0  0  0
 11 27  1  0  0  0  0
 12 30  1  0  0  0  0
 13 18  2  0  0  0  0
 13 28  1  0  0  0  0
 14 23  1  0  0  0  0
 14 26  2  0  0  0  0
 15 24  2  0  0  0  0
 15 29  1  0  0  0  0
 16 30  2  0  0  0  0
 16 31  1  0  0  0  0
 17 32  1  0  0  0  0
 18 24  1  0  0  0  0
 18 36  1  0  0  0  0
 19 32  1  0  0  0  0
 19 33  2  0  0  0  0
 19 37  1  0  0  0  0
 20 22  2  0  0  0  0
 20 42  1  0  0  0  0
 21 23  2  0  0  0  0
 21 43  1  0  0  0  0
 22 51  1  0  0  0  0
 23 44  1  0  0  0  0
 24 70  1  0  0  0  0
 25 81  1  0  0  0  0
 26 83  1  0  0  0  0
 27 31  2  0  0  0  0
 27 81  1  0  0  0  0
 28 29  2  0  0  0  0
 28 84  1  0  0  0  0
 29 82  1  0  0  0  0
 30 85  1  0  0  0  0
 31 86  1  0  0  0  0
 32 65  2  0  0  0  0
 33 67  1  0  0  0  0
 33 71  1  0  0  0  0
 34 35  2  0  0  0  0
 34 60  1  0  0  0  0
 35 61  1  0  0  0  0
 36 38  1  0  0  0  0
 36 66  2  0  0  0  0
 37 72  1  0  0  0  0
 37 76  2  0  0  0  0
 38 68  1  0  0  0  0
 38 77  2  0  0  0  0
 39 52  1  0  0  0  0
 39 73  1  0  0  0  0
 39 78  2  0  0  0  0
 40 62  1  0  0  0  0
 40 69  1  0  0  0  0
 40 79  2  0  0  0  0
 41 63  1  0  0  0  0
 41 74  1  0  0  0  0
 41 80  2  0  0  0  0
 42 45  1  0  0  0  0
 43 52  1  0  0  0  0
 44 69  1  0  0  0  0
 45 47  1  0  0  0  0
 46 48  1  0  0  0  0
 46 49  1  0  0  0  0
 47 51  1  0  0  0  0
 48 53  1  0  0  0  0
 49 68  1  0  0  0  0
 50 53  1  0  0  0  0
 50 68  1  0  0  0  0
 51 73  1  0  0  0  0
 52 69  1  0  0  0  0
 53 67  1  0  0  0  0
 54 63  1  0  0  0  0
 55 64  1  0  0  0  0
 56 64  1  0  0  0  0
 57 64  1  0  0  0  0
 58 75  1  0  0  0  0
 59 82  1  0  0  0  0
 60 83  1  0  0  0  0
 61 84  1  0  0  0  0
 62 64  1  0  0  0  0
 62 74  1  0  0  0  0
 63 75  1  0  0  0  0
 65 67  1  0  0  0  0
M  CHG  1  75   1
M  ISO  4  36 100  38 100  60 101  83 101
M  END
> <Batch ID>
0111

> <Smiles>
CNC(C)C(=O)NC(C(=O)N1Cc2cc([101O:1][101CH2:1]C=CCOc3cc([100C:0](=N)[100C:0](=O)N4CCCC(n5nc(-c6ccc(Oc7ccc(F)cc7F)cc6)c(C(N)=O)c5N)C4)c(N)cc3OC)ccc2CC1C(=O)NC1CCCc2ccccc21)C(C)(C)C

> <Shape>
0.242

> <Color>
0.171

> <Negative vol penalty>
0.000

$$$$

  -OEChem-04052301283D

 86 94  0     1  0  0  0  0  0999 V2000
  -19.7793  -28.4507   22.8179 C   0  0  0  0  0  0  0  0  0  0  0  0
  -20.0753  -27.8641   21.5917 C   0  0  0  0  0  0  0  0  0  0  0  0
  -23.5415   -9.6919   19.7685 C   0  0  0  0  0  0  0  0  0  0  0  0
  -23.6270   -9.9387   22.1704 C   0  0  0  0  0  0  0  0  0  0  0  0
  -20.7422  -29.2169   23.4734 C   0  0  0  0  0  0  0  0  0  0  0  0
  -21.3341  -28.0443   21.0197 C   0  0  0  0  0  0  0  0  0  0  0  0
  -23.2646  -23.7404   19.1771 C   0  0  0  0  0  0  0  0  0  0  0  0
  -27.8896  -19.3136   14.5754 C   0  0  0  0  0  0  0  0  0  0  0  0
  -22.8663   -8.4805   19.9170 C   0  0  0  0  0  0  0  0  0  0  0  0
  -22.9518   -8.7273   22.3189 C   0  0  0  0  0  0  0  0  0  0  0  0
  -22.7772  -23.2989   17.9478 C   0  0  0  0  0  0  0  0  0  0  0  0
  -19.7161   -7.4501   20.5857 C   0  0  0  0  0  0  0  0  0  0  0  0
  -18.6066   -7.2223   19.7717 C   0  0  0  0  0  0  0  0  0  0  0  0
  -28.8601  -18.5897   15.2591 C   0  0  0  0  0  0  0  0  0  0  0  0
  -24.7266  -24.2075   16.8553 C   0  0  0  0  0  0  0  0  0  0  0  0
  -19.6887   -5.2723   18.8425 C   0  0  0  0  0  0  0  0  0  0  0  0
  -23.9219  -10.4211   20.8952 C   0  0  0  0  0  0  0  0  0  0  0  0
  -24.0507  -12.9551   20.6311 C   0  0  0  0  0  0  0  0  0  0  0  0
  -22.0167  -29.3985   22.9137 C   0  0  0  0  0  0  0  0  0  0  0  0
  -24.4835  -24.4295   19.2535 C   0  0  0  0  0  0  0  0  0  0  0  0
  -22.3146  -28.8147   21.6676 C   0  0  0  0  0  0  0  0  0  0  0  0
  -25.2285  -24.6544   18.0871 C   0  0  0  0  0  0  0  0  0  0  0  0
  -26.5536  -18.9416   14.6753 C   0  0  0  0  0  0  0  0  0  0  0  0
  -22.5715   -7.9981   21.1922 C   0  0  0  0  0  0  0  0  0  0  0  0
  -23.5068  -23.5349   16.7863 C   0  0  0  0  0  0  0  0  0  0  0  0
  -20.8120   -6.5890   20.5281 C   0  0  0  0  0  0  0  0  0  0  0  0
  -18.5929   -6.1334   18.9001 C   0  0  0  0  0  0  0  0  0  0  0  0
  -20.7983   -5.5001   19.6565 C   0  0  0  0  0  0  0  0  0  0  0  0
  -24.6198  -11.6723   20.7425 C   0  0  0  0  0  0  0  0  0  0  0  0
  -28.4460  -17.5106   16.0232 C   0  0  0  0  0  0  0  0  0  0  0  0
  -26.2428  -17.8466   15.4654 C   0  0  0  0  0  0  0  0  0  0  0  0
  -25.1274  -13.7988   20.5069 C   0  0  0  0  0  0  0  0  0  0  0  0
  -29.4307  -16.7092   16.7715 C   0  0  0  0  0  0  0  0  0  0  0  0
  -22.6721  -13.3488   20.6393 C   0  0  0  0  0  0  0  0  0  0  0  0
  -25.3607  -27.3391   20.1855 C   0  0  0  0  0  0  0  0  0  0  0  0
  -28.3474  -26.1696   19.7012 C   0  0  0  0  0  0  0  0  0  0  0  0
  -25.7396  -20.7803   13.1591 C   0  0  0  0  0  0  0  0  0  0  0  0
  -30.3503  -23.9035   18.1202 C   0  0  0  0  0  0  0  0  0  0  0  0
  -30.0538  -14.9932   18.1709 C   0  0  0  0  0  0  0  0  0  0  0  0
  -23.0091  -30.2742   23.6370 C   0  0  0  0  0  0  0  0  0  0  0  0
  -25.0085  -24.8758   20.5906 C   0  0  0  0  0  0  0  0  0  0  0  0
  -26.5525  -25.3718   18.1178 C   0  0  0  0  0  0  0  0  0  0  0  0
  -24.4434  -30.1067   23.1419 C   0  0  0  0  0  0  0  0  0  0  0  0
  -30.0676  -12.9707   21.1566 C   0  0  0  0  0  0  0  0  0  0  0  0
  -24.4877  -30.1265   21.6173 C   0  0  0  0  0  0  0  0  0  0  0  0
  -28.6095  -12.5301   21.2841 C   0  0  0  0  0  0  0  0  0  0  0  0
  -30.4972  -13.0694   19.6960 C   0  0  0  0  0  0  0  0  0  0  0  0
  -28.1615  -13.5170   18.9939 C   0  0  0  0  0  0  0  0  0  0  0  0
  -23.6771  -28.9665   21.0268 C   0  0  1  0  0  0  0  0  0  0  0  0
  -26.0129  -26.0194   20.4867 C   0  0  1  0  0  0  0  0  0  0  0  0
  -27.6834  -13.4366   20.4537 C   0  0  1  0  0  0  0  0  0  0  0  0
  -24.0336  -18.2879   16.5659 C   0  0  0  0  0  0  0  0  0  0  0  0
  -32.7539  -23.2181   17.8954 C   0  0  0  0  0  0  0  0  0  0  0  0
  -28.8634  -28.5786   17.9010 C   0  0  0  0  0  0  0  0  0  0  0  0
  -30.8573  -27.3760   16.9810 C   0  0  0  0  0  0  0  0  0  0  0  0
  -30.7691  -27.9707   19.4020 C   0  0  0  0  0  0  0  0  0  0  0  0
  -29.7988  -21.1971   19.1833 C   0  0  0  0  0  0  0  0  0  0  0  0
  -24.8249  -17.3982   15.6125 C   0  0  0  0  0  0  0  0  0  0  0  0
  -24.4034  -21.2595   12.6090 C   0  0  0  0  0  0  0  0  0  0  0  0
  -23.4268  -21.6640   13.7079 C   0  0  0  0  0  0  0  0  0  0  0  0
  -23.9979  -22.7642   14.5907 C   0  0  0  0  0  0  0  0  0  1  0  0
  -29.2955  -26.1115   18.5279 C   0  0  1  0  0  0  0  0  0  0  0  0
  -31.4477  -22.9931   18.6411 C   0  0  2  0  0  0  0  0  0  0  0  0
  -29.9205  -27.4974   18.2018 C   0  0  0  0  0  0  0  0  0  0  0  0
  -25.9544  -11.6943   20.6932 N   0  0  0  0  0  0  0  0  0  0  0  0
  -27.1578  -17.1190   16.1445 N   0  0  0  0  0  0  0  0  0  0  0  0
  -29.0762  -15.6985   17.4955 N   0  0  0  0  0  0  0  0  0  0  0  0
  -26.2329  -13.0011   20.5494 N   0  0  0  0  0  0  0  0  0  0  0  0
  -27.0204  -25.7941   19.4483 N   0  0  0  0  0  0  0  0  0  0  0  0
  -29.5752  -13.9111   18.9323 N   0  0  0  0  0  0  0  0  0  0  0  0
  -25.2269  -15.1378   20.3665 N   0  0  0  0  0  0  0  0  0  0  0  0
  -21.6940  -12.3543   20.7756 N   0  0  0  0  0  0  0  0  0  0  0  0
  -25.5596  -19.6714   13.9811 N   0  0  0  0  0  0  0  0  0  0  0  0
  -24.4222  -27.7295   21.1216 N   0  0  0  0  0  0  0  0  0  0  0  0
  -30.2724  -25.0749   18.8434 N   0  0  0  0  0  0  0  0  0  0  0  0
  -31.0552  -21.5644   18.4808 N   0  3  0  0  0  0  0  0  0  0  0  0
  -22.3175  -14.5454   20.5125 O   0  0  0  0  0  0  0  0  0  0  0  0
  -25.6861  -27.9581   19.1792 O   0  0  0  0  0  0  0  0  0  0  0  0
  -28.7702  -26.5279   20.8033 O   0  0  0  0  0  0  0  0  0  0  0  0
  -26.7962  -21.3373   12.8800 O   0  0  0  0  0  0  0  0  0  0  0  0
  -29.6363  -23.6069   17.1648 O   0  0  0  0  0  0  0  0  0  0  0  0
  -31.2556  -15.2658   18.1225 O   0  0  0  0  0  0  0  0  0  0  0  0
  -21.9125   -6.8161   21.3375 O   0  0  0  0  0  0  0  0  0  0  0  0
  -23.0330  -23.1056   15.5850 O   0  0  0  0  0  0  0  0  0  1  0  0
  -17.5267   -5.9138   18.1196 F   0  0  0  0  0  0  0  0  0  0  0  0
  -21.8477   -4.6688   19.5975 F   0  0  0  0  0  0  0  0  0  0  0  0
  1  2  1  0  0  0  0
  1  5  2  0  0  0  0
  2  6  2  0  0  0  0
  3  9  2  0  0  0  0
  3 17  1  0  0  0  0
  4 10  1  0  0  0  0
  4 17  2  0  0  0  0
  5 19  1  0  0  0  0
  6 21  1  0  0  0  0
  7 11  2  0  0  0  0
  7 20  1  0  0  0  0
  8 14  2  0  0  0  0
  8 23  1  0  0  0  0
  9 24  1  0  0  0  0
 10 24  2  0  0  0  0
 11 25  1  0  0  0  0
 12 13  2  0  0  0  0
 12 26  1  0  0  0  0
 13 27  1  0  0  0  0
 14 30  1  0  0  0  0
 15 22  1  0  0  0  0
 15 25  2  0  0  0  0
 16 27  2  0  0  0  0
 16 28  1  0  0  0  0
 17 29  1  0  0  0  0
 18 29  1  0  0  0  0
 18 32  2  0  0  0  0
 18 34  1  0  0  0  0
 19 21  2  0  0  0  0
 19 40  1  0  0  0  0
 20 22  2  0  0  0  0
 20 41  1  0  0  0  0
 21 49  1  0  0  0  0
 22 42  1  0  0  0  0
 23 31  2  0  0  0  0
 23 73  1  0  0  0  0
 24 83  1  0  0  0  0
 25 84  1  0  0  0  0
 26 28  2  0  0  0  0
 26 83  1  0  0  0  0
 27 85  1  0  0  0  0
 28 86  1  0  0  0  0
 29 65  2  0  0  0  0
 30 33  1  0  0  0  0
 30 66  2  0  0  0  0
 31 58  1  0  0  0  0
 31 66  1  0  0  0  0
 32 68  1  0  0  0  0
 32 71  1  0  0  0  0
 33 67  2  0  0  0  0
 34 72  1  0  0  0  0
 34 77  2  0  0  0  0
 35 50  1  0  0  0  0
 35 74  1  0  0  0  0
 35 78  2  0  0  0  0
 36 62  1  0  0  0  0
 36 69  1  0  0  0  0
 36 79  2  0  0  0  0
 37 59  1  0  0  0  0
 37 73  1  0  0  0  0
 37 80  2  0  0  0  0
 38 63  1  0  0  0  0
 38 75  1  0  0  0  0
 38 81  2  0  0  0  0
 39 67  1  0  0  0  0
 39 70  1  0  0  0  0
 39 82  2  0  0  0  0
 40 43  1  0  0  0  0
 41 50  1  0  0  0  0
 42 69  1  0  0  0  0
 43 45  1  0  0  0  0
 44 46  1  0  0  0  0
 44 47  1  0  0  0  0
 45 49  1  0  0  0  0
 46 51  1  0  0  0  0
 47 70  1  0  0  0  0
 48 51  1  0  0  0  0
 48 70  1  0  0  0  0
 49 74  1  0  0  0  0
 50 69  1  0  0  0  0
 51 68  1  0  0  0  0
 52 58  1  0  0  0  0
 53 63  1  0  0  0  0
 54 64  1  0  0  0  0
 55 64  1  0  0  0  0
 56 64  1  0  0  0  0
 57 76  1  0  0  0  0
 59 60  1  0  0  0  0
 60 61  1  0  0  0  0
 61 84  1  0  0  0  0
 62 64  1  0  0  0  0
 62 75  1  0  0  0  0
 63 76  1  0  0  0  0
 65 68  1  0  0  0  0
M  CHG  1  76   1
M  ISO  4  39 100  61 101  67 100  84 101
M  END
> <Batch ID>
0111

> <Smiles>
C=Cc1nc(C[100NH:0][100C:0](=O)N2CCCC(n3nc(-c4ccc(Oc5ccc(F)cc5F)cc4)c(C(N)=O)c3N)C2)ccc1NC(=O)CC[101CH2:1][101O:1]c1ccc2c(c1)CN(C(=O)C(NC(=O)C(C)NC)C(C)(C)C)C(C(=O)NC1CCCc3ccccc31)C2

> <Shape>
0.245

> <Color>
0.159

> <Negative vol penalty>
0.000

$$$$

  -OEChem-04052301283D

 85 93  0     1  0  0  0  0  0999 V2000
  -32.1345  -24.2042   19.7121 C   0  0  0  0  0  0  0  0  0  0  0  0
  -31.2291  -23.7492   20.6654 C   0  0  0  0  0  0  0  0  0  0  0  0
  -27.5432  -17.2476   19.0053 C   0  0  0  0  0  0  0  0  0  0  0  0
  -27.7317  -17.3510   21.4117 C   0  0  0  0  0  0  0  0  0  0  0  0
  -32.1498  -25.5517   19.3542 C   0  0  0  0  0  0  0  0  0  0  0  0
  -30.3393  -24.6417   21.2622 C   0  0  0  0  0  0  0  0  0  0  0  0
  -25.6286  -22.8022   21.5284 C   0  0  0  0  0  0  0  0  0  0  0  0
  -28.2231  -18.4609   18.8999 C   0  0  0  0  0  0  0  0  0  0  0  0
  -28.4117  -18.5644   21.3063 C   0  0  0  0  0  0  0  0  0  0  0  0
  -25.3630  -21.8753   22.5354 C   0  0  0  0  0  0  0  0  0  0  0  0
  -31.4222  -19.5450   19.0525 C   0  0  0  0  0  0  0  0  0  0  0  0
  -32.4310  -19.6416   18.0941 C   0  0  0  0  0  0  0  0  0  0  0  0
  -21.9723  -15.1000   25.1314 C   0  0  0  0  0  0  0  0  0  0  0  0
  -24.3613  -23.6190   23.8679 C   0  0  0  0  0  0  0  0  0  0  0  0
  -22.5809  -14.1705   27.6904 C   0  0  0  0  0  0  0  0  0  0  0  0
  -31.2383  -21.4479   17.0208 C   0  0  0  0  0  0  0  0  0  0  0  0
  -27.2974  -16.6927   20.2613 C   0  0  0  0  0  0  0  0  0  0  0  0
  -22.0578  -13.7290   25.3734 C   0  0  0  0  0  0  0  0  0  0  0  0
  -27.1555  -14.1485   20.3827 C   0  0  0  0  0  0  0  0  0  0  0  0
  -31.2532  -26.4593   19.9398 C   0  0  0  0  0  0  0  0  0  0  0  0
  -25.2718  -24.1489   21.6884 C   0  0  0  0  0  0  0  0  0  0  0  0
  -30.3436  -26.0028   20.9127 C   0  0  0  0  0  0  0  0  0  0  0  0
  -24.6212  -24.5605   22.8604 C   0  0  0  0  0  0  0  0  0  0  0  0
  -22.3620  -13.2642   26.6528 C   0  0  0  0  0  0  0  0  0  0  0  0
  -28.6574  -19.1193   20.0504 C   0  0  0  0  0  0  0  0  0  0  0  0
  -24.7319  -22.2841   23.7066 C   0  0  0  0  0  0  0  0  0  0  0  0
  -30.3214  -20.3998   18.9951 C   0  0  0  0  0  0  0  0  0  0  0  0
  -22.1912  -16.0064   26.1689 C   0  0  0  0  0  0  0  0  0  0  0  0
  -22.4954  -15.5416   27.4484 C   0  0  0  0  0  0  0  0  0  0  0  0
  -32.3391  -20.5930   17.0782 C   0  0  0  0  0  0  0  0  0  0  0  0
  -30.2295  -21.3512   17.9792 C   0  0  0  0  0  0  0  0  0  0  0  0
  -26.5946  -15.4396   20.3709 C   0  0  0  0  0  0  0  0  0  0  0  0
  -26.0770  -13.3067   20.5042 C   0  0  0  0  0  0  0  0  0  0  0  0
  -21.8226  -12.8081   24.2685 C   0  0  0  0  0  0  0  0  0  0  0  0
  -28.5286  -13.7461   20.2919 C   0  0  0  0  0  0  0  0  0  0  0  0
  -20.9087  -13.1582   23.1570 C   0  0  0  0  0  0  0  0  0  0  0  0
  -26.8691  -26.8948   21.7991 C   0  0  0  0  0  0  0  0  0  0  0  0
  -23.3046  -19.3389   25.2621 C   0  0  0  0  0  0  0  0  0  0  0  0
  -23.8897  -28.1764   21.8513 C   0  0  0  0  0  0  0  0  0  0  0  0
  -20.5762  -27.7773   22.5641 C   0  0  0  0  0  0  0  0  0  0  0  0
  -31.3393  -27.9151   19.5554 C   0  0  0  0  0  0  0  0  0  0  0  0
  -25.5412  -25.1311   20.5817 C   0  0  0  0  0  0  0  0  0  0  0  0
  -24.1995  -25.9907   23.0728 C   0  0  0  0  0  0  0  0  0  0  0  0
  -30.1112  -28.7259   19.9612 C   0  0  0  0  0  0  0  0  0  0  0  0
  -21.2357  -13.6763   19.6241 C   0  0  0  0  0  0  0  0  0  0  0  0
  -29.7179  -28.4143   21.4017 C   0  0  0  0  0  0  0  0  0  0  0  0
  -22.6956  -14.0987   19.4629 C   0  0  0  0  0  0  0  0  0  0  0  0
  -20.6477  -14.1889   20.9348 C   0  0  0  0  0  0  0  0  0  0  0  0
  -22.8926  -14.2062   21.9878 C   0  0  0  0  0  0  0  0  0  0  0  0
  -29.3458  -26.9355   21.5644 C   0  0  1  0  0  0  0  0  0  0  0  0
  -25.5967  -26.5767   21.0661 C   0  0  1  0  0  0  0  0  0  0  0  0
  -23.5292  -13.6833   20.6882 C   0  0  2  0  0  0  0  0  0  0  0  0
  -18.3927  -29.0139   22.5379 C   0  0  0  0  0  0  0  0  0  0  0  0
  -24.7234  -29.6966   24.3621 C   0  0  0  0  0  0  0  0  0  0  0  0
  -22.3009  -30.1381   24.8148 C   0  0  0  0  0  0  0  0  0  0  0  0
  -23.3626  -31.0278   22.7402 C   0  0  0  0  0  0  0  0  0  0  0  0
  -19.3835  -25.8654   20.6455 C   0  0  0  0  0  0  0  0  0  0  0  0
  -24.2373  -20.0323   24.2903 C   0  0  0  0  0  0  0  0  0  1  0  0
  -22.9901  -17.8892   24.9554 C   0  0  0  0  0  0  0  0  0  0  0  0
  -22.9049  -28.5488   22.9332 C   0  0  1  0  0  0  0  0  0  0  0  0
  -19.3276  -28.0986   21.7626 C   0  0  2  0  0  0  0  0  0  0  0  0
  -23.3325  -29.8262   23.7097 C   0  0  0  0  0  0  0  0  0  0  0  0
  -25.2631  -15.4243   20.4763 N   0  0  0  0  0  0  0  0  0  0  0  0
  -22.3900  -11.6371   24.1825 N   0  0  0  0  0  0  0  0  0  0  0  0
  -24.9785  -14.1133   20.5554 N   0  0  0  0  0  0  0  0  0  0  0  0
  -21.4818  -13.8082   22.0730 N   0  0  0  0  0  0  0  0  0  0  0  0
  -24.4906  -26.9147   21.9642 N   0  0  0  0  0  0  0  0  0  0  0  0
  -22.4533  -11.8798   26.9188 N   0  0  0  0  0  0  0  0  0  0  0  0
  -25.9708  -11.9626   20.5710 N   0  0  0  0  0  0  0  0  0  0  0  0
  -29.5096  -14.7399   20.1716 N   0  0  0  0  0  0  0  0  0  0  0  0
  -28.0143  -26.6902   21.0533 N   0  0  0  0  0  0  0  0  0  0  0  0
  -21.6034  -28.6529   22.2823 N   0  0  0  0  0  0  0  0  0  0  0  0
  -18.5902  -26.8474   21.4286 N   0  3  0  0  0  0  0  0  0  0  0  0
  -28.8742  -12.5402   20.3003 O   0  0  0  0  0  0  0  0  0  0  0  0
  -19.7386  -12.8353   23.3147 O   0  0  0  0  0  0  0  0  0  0  0  0
  -26.8159  -27.2975   22.9553 O   0  0  0  0  0  0  0  0  0  0  0  0
  -22.8317  -19.9175   26.2392 O   0  0  0  0  0  0  0  0  0  0  0  0
  -24.1121  -28.9727   20.9359 O   0  0  0  0  0  0  0  0  0  0  0  0
  -20.6333  -26.8452   23.3631 O   0  0  0  0  0  0  0  0  0  0  0  0
  -22.7131  -16.4171   28.4691 O   0  0  0  0  0  0  0  0  0  0  0  0
  -29.3211  -20.3031   19.9478 O   0  0  0  0  0  0  0  0  0  0  0  0
  -24.4720  -21.3816   24.6913 O   0  0  0  0  0  0  0  0  0  1  0  0
  -22.1054  -17.3553   25.9177 O   0  0  0  0  0  0  0  0  0  0  0  0
  -33.3086  -20.6867   16.1588 F   0  0  0  0  0  0  0  0  0  0  0  0
  -29.1749  -22.1760   17.9196 F   0  0  0  0  0  0  0  0  0  0  0  0
  1  2  1  0  0  0  0
  1  5  2  0  0  0  0
  2  6  2  0  0  0  0
  3  8  2  0  0  0  0
  3 17  1  0  0  0  0
  4  9  1  0  0  0  0
  4 17  2  0  0  0  0
  5 20  1  0  0  0  0
  6 22  1  0  0  0  0
  7 10  2  0  0  0  0
  7 21  1  0  0  0  0
  8 25  1  0  0  0  0
  9 25  2  0  0  0  0
 10 26  1  0  0  0  0
 11 12  2  0  0  0  0
 11 27  1  0  0  0  0
 12 30  1  0  0  0  0
 13 18  2  0  0  0  0
 13 28  1  0  0  0  0
 14 23  1  0  0  0  0
 14 26  2  0  0  0  0
 15 24  2  0  0  0  0
 15 29  1  0  0  0  0
 16 30  2  0  0  0  0
 16 31  1  0  0  0  0
 17 32  1  0  0  0  0
 18 24  1  0  0  0  0
 18 34  1  0  0  0  0
 19 32  1  0  0  0  0
 19 33  2  0  0  0  0
 19 35  1  0  0  0  0
 20 22  2  0  0  0  0
 20 41  1  0  0  0  0
 21 23  2  0  0  0  0
 21 42  1  0  0  0  0
 22 50  1  0  0  0  0
 23 43  1  0  0  0  0
 24 68  1  0  0  0  0
 25 81  1  0  0  0  0
 26 82  1  0  0  0  0
 27 31  2  0  0  0  0
 27 81  1  0  0  0  0
 28 29  2  0  0  0  0
 28 83  1  0  0  0  0
 29 80  1  0  0  0  0
 30 84  1  0  0  0  0
 31 85  1  0  0  0  0
 32 63  2  0  0  0  0
 33 65  1  0  0  0  0
 33 69  1  0  0  0  0
 34 36  1  0  0  0  0
 34 64  2  0  0  0  0
 35 70  1  0  0  0  0
 35 74  2  0  0  0  0
 36 66  1  0  0  0  0
 36 75  2  0  0  0  0
 37 51  1  0  0  0  0
 37 71  1  0  0  0  0
 37 76  2  0  0  0  0
 38 58  1  0  0  0  0
 38 59  1  0  0  0  0
 38 77  2  0  0  0  0
 39 60  1  0  0  0  0
 39 67  1  0  0  0  0
 39 78  2  0  0  0  0
 40 61  1  0  0  0  0
 40 72  1  0  0  0  0
 40 79  2  0  0  0  0
 41 44  1  0  0  0  0
 42 51  1  0  0  0  0
 43 67  1  0  0  0  0
 44 46  1  0  0  0  0
 45 47  1  0  0  0  0
 45 48  1  0  0  0  0
 46 50  1  0  0  0  0
 47 52  1  0  0  0  0
 48 66  1  0  0  0  0
 49 52  1  0  0  0  0
 49 66  1  0  0  0  0
 50 71  1  0  0  0  0
 51 67  1  0  0  0  0
 52 65  1  0  0  0  0
 53 61  1  0  0  0  0
 54 62  1  0  0  0  0
 55 62  1  0  0  0  0
 56 62  1  0  0  0  0
 57 73  1  0  0  0  0
 58 82  1  0  0  0  0
 59 83  1  0  0  0  0
 60 62  1  0  0  0  0
 60 72  1  0  0  0  0
 61 73  1  0  0  0  0
 63 65  1  0  0  0  0
M  CHG  1  73   1
M  ISO  4  34 100  36 100  58 101  82 101
M  END
> <Batch ID>
0111

> <Smiles>
CNC(C)C(=O)NC(C(=O)N1Cc2cc([101O:1][101CH2:1]C(=O)COc3cc([100C:0](=N)[100C:0](=O)N4CCCC(n5nc(-c6ccc(Oc7ccc(F)cc7F)cc6)c(C(N)=O)c5N)C4)c(N)cc3O)ccc2CC1C(=O)NC1CCCc2ccccc21)C(C)(C)C

> <Shape>
0.214

> <Color>
0.060

> <Negative vol penalty>
0.000

$$$$

  -OEChem-04052301283D

 87 96  0     1  0  0  0  0  0999 V2000
  -17.0184  -30.5564   24.1127 C   0  0  0  0  0  0  0  0  0  0  0  0
  -18.3156  -30.9913   24.3646 C   0  0  0  0  0  0  0  0  0  0  0  0
  -24.7305  -14.1031   19.8172 C   0  0  0  0  0  0  0  0  0  0  0  0
  -26.1859  -14.3556   21.7290 C   0  0  0  0  0  0  0  0  0  0  0  0
  -16.8042  -29.3150   23.5152 C   0  0  0  0  0  0  0  0  0  0  0  0
  -19.3995  -30.1844   24.0201 C   0  0  0  0  0  0  0  0  0  0  0  0
  -26.1827  -30.6143   21.7575 C   0  0  0  0  0  0  0  0  0  0  0  0
  -30.1838  -25.3543   22.2048 C   0  0  0  0  0  0  0  0  0  0  0  0
  -29.7653  -24.3501   21.3318 C   0  0  0  0  0  0  0  0  0  0  0  0
  -24.7646  -12.7176   19.9741 C   0  0  0  0  0  0  0  0  0  0  0  0
  -26.2200  -12.9700   21.8860 C   0  0  0  0  0  0  0  0  0  0  0  0
  -27.4573  -30.1509   22.0806 C   0  0  0  0  0  0  0  0  0  0  0  0
  -24.1778   -9.1319   20.0905 C   0  0  0  0  0  0  0  0  0  0  0  0
  -22.9712   -8.4385   19.9957 C   0  0  0  0  0  0  0  0  0  0  0  0
  -28.2678  -24.9283   23.6134 C   0  0  0  0  0  0  0  0  0  0  0  0
  -26.9694  -28.0600   20.9811 C   0  0  0  0  0  0  0  0  0  0  0  0
  -22.0979   -9.7036   21.8596 C   0  0  0  0  0  0  0  0  0  0  0  0
  -25.4411  -14.9222   20.6946 C   0  0  0  0  0  0  0  0  0  0  0  0
  -27.8492  -23.9241   22.7404 C   0  0  0  0  0  0  0  0  0  0  0  0
  -24.4910  -17.2527   21.1112 C   0  0  0  0  0  0  0  0  0  0  0  0
  -17.8863  -28.4967   23.1544 C   0  0  0  0  0  0  0  0  0  0  0  0
  -25.2865  -29.7986   21.0520 C   0  0  0  0  0  0  0  0  0  0  0  0
  -19.1996  -28.9303   23.4185 C   0  0  0  0  0  0  0  0  0  0  0  0
  -25.6849  -28.5163   20.6480 C   0  0  0  0  0  0  0  0  0  0  0  0
  -29.4351  -25.6433   23.3456 C   0  0  0  0  0  0  0  0  0  0  0  0
  -28.5980  -23.6351   21.5996 C   0  0  0  0  0  0  0  0  0  0  0  0
  -25.5094  -12.1510   21.0086 C   0  0  0  0  0  0  0  0  0  0  0  0
  -27.8498  -28.8725   21.6949 C   0  0  0  0  0  0  0  0  0  0  0  0
  -24.3445  -10.1110   21.0699 C   0  0  0  0  0  0  0  0  0  0  0  0
  -21.9312   -8.7244   20.8802 C   0  0  0  0  0  0  0  0  0  0  0  0
  -23.3045  -10.3969   21.9544 C   0  0  0  0  0  0  0  0  0  0  0  0
  -25.4067  -16.3535   20.5326 C   0  0  0  0  0  0  0  0  0  0  0  0
  -24.8832  -18.4859   20.6508 C   0  0  0  0  0  0  0  0  0  0  0  0
  -29.6358  -26.7177   25.6336 C   0  0  0  0  0  0  0  0  0  0  0  0
  -26.6242  -23.1975   23.0538 C   0  0  0  0  0  0  0  0  0  0  0  0
  -25.3999  -23.7453   23.2080 C   0  0  0  0  0  0  0  0  0  0  0  0
  -23.3848  -16.9962   21.9865 C   0  0  0  0  0  0  0  0  0  0  0  0
  -22.4317  -28.5447   21.6698 C   0  0  0  0  0  0  0  0  0  0  0  0
  -22.6059  -27.6048   18.5701 C   0  0  0  0  0  0  0  0  0  0  0  0
  -24.5613  -26.8572   15.8748 C   0  0  0  0  0  0  0  0  0  0  0  0
  -28.8481  -22.2293   19.5241 C   0  0  0  0  0  0  0  0  0  0  0  0
  -17.6038  -27.1423   22.5540 C   0  0  0  0  0  0  0  0  0  0  0  0
  -23.9246  -30.3232   20.6879 C   0  0  0  0  0  0  0  0  0  0  0  0
  -24.7675  -27.6088   19.8713 C   0  0  0  0  0  0  0  0  0  0  0  0
  -30.2873  -27.9730   26.1636 C   0  0  0  0  0  0  0  0  0  0  0  0
  -18.8178  -26.5105   21.8779 C   0  0  0  0  0  0  0  0  0  0  0  0
  -31.2741  -28.3461   25.0736 C   0  0  0  0  0  0  0  0  0  0  0  0
  -28.2052  -19.7530   17.0479 C   0  0  0  0  0  0  0  0  0  0  0  0
  -20.0476  -26.6260   22.7729 C   0  0  0  0  0  0  0  0  0  0  0  0
  -27.3445  -18.7218   17.7813 C   0  0  0  0  0  0  0  0  0  0  0  0
  -29.2776  -20.3476   17.9590 C   0  0  0  0  0  0  0  0  0  0  0  0
  -27.9189  -19.8705   19.9579 C   0  0  0  0  0  0  0  0  0  0  0  0
  -20.4020  -28.0945   23.0367 C   0  0  1  0  0  0  0  0  0  0  0  0
  -22.9114  -29.2160   20.4141 C   0  0  1  0  0  0  0  0  0  0  0  0
  -26.7830  -19.2912   19.0990 C   0  0  2  0  0  0  0  0  0  0  0  0
  -30.6062  -27.8506   23.7957 C   0  0  2  0  0  0  0  0  0  0  0  0
  -24.1716  -22.9612   23.5388 C   0  0  0  0  0  0  0  0  0  0  0  0
  -24.4190  -26.0829   13.4921 C   0  0  0  0  0  0  0  0  0  0  0  0
  -22.0348  -24.7652   19.5294 C   0  0  0  0  0  0  0  0  0  0  0  0
  -22.8349  -23.9288   17.3094 C   0  0  0  0  0  0  0  0  0  0  0  0
  -20.8380  -25.4186   17.4330 C   0  0  0  0  0  0  0  0  0  0  0  0
  -25.8382  -29.3319   14.8727 C   0  0  0  0  0  0  0  0  0  0  0  0
  -29.6857  -28.9215   23.2060 C   0  0  0  0  0  0  0  0  0  1  0  0
  -23.1354  -26.3882   17.8500 C   0  0  1  0  0  0  0  0  0  0  0  0
  -24.4790  -27.2856   14.4209 C   0  0  2  0  0  0  0  0  0  0  0  0
  -22.2276  -25.1413   18.0468 C   0  0  0  0  0  0  0  0  0  0  0  0
  -26.3123  -16.9634   19.7633 N   0  0  0  0  0  0  0  0  0  0  0  0
  -25.9675  -18.2591   19.8551 N   0  0  0  0  0  0  0  0  0  0  0  0
  -29.8657  -26.6738   24.2420 N   0  0  0  0  0  0  0  0  0  0  0  0
  -23.4439  -28.1648   19.5447 N   0  0  0  0  0  0  0  0  0  0  0  0
  -28.6716  -20.8711   19.1852 N   0  0  0  0  0  0  0  0  0  0  0  0
  -24.4028  -19.7312   20.8529 N   0  0  0  0  0  0  0  0  0  0  0  0
  -23.1221  -15.6713   22.3606 N   0  0  0  0  0  0  0  0  0  0  0  0
  -28.1987  -22.6206   20.6945 N   0  0  0  0  0  0  0  0  0  0  0  0
  -21.0728  -28.6665   21.8890 N   0  0  0  0  0  0  0  0  0  0  0  0
  -23.3136  -26.7837   16.4571 N   0  0  0  0  0  0  0  0  0  0  0  0
  -25.6693  -28.1039   14.0538 N   0  3  0  0  0  0  0  0  0  0  0  0
  -29.0144  -25.9523   26.3565 O   0  0  0  0  0  0  0  0  0  0  0  0
  -22.6412  -17.9130   22.4109 O   0  0  0  0  0  0  0  0  0  0  0  0
  -23.2347  -27.9584   22.3861 O   0  0  0  0  0  0  0  0  0  0  0  0
  -21.4930  -28.0464   18.2736 O   0  0  0  0  0  0  0  0  0  0  0  0
  -25.6257  -26.6086   16.4368 O   0  0  0  0  0  0  0  0  0  0  0  0
  -29.5027  -22.9959   18.8129 O   0  0  0  0  0  0  0  0  0  0  0  0
  -25.5427  -10.7990   21.1622 O   0  0  0  0  0  0  0  0  0  0  0  0
  -29.0931  -28.4175   22.0096 O   0  0  0  0  0  0  0  0  0  1  0  0
  -20.7721   -8.0596   20.7880 F   0  0  0  0  0  0  0  0  0  0  0  0
  -23.4583  -11.3373   22.8966 F   0  0  0  0  0  0  0  0  0  0  0  0
  1  2  1  0  0  0  0
  1  5  2  0  0  0  0
  2  6  2  0  0  0  0
  3 10  2  0  0  0  0
  3 18  1  0  0  0  0
  4 11  1  0  0  0  0
  4 18  2  0  0  0  0
  5 21  1  0  0  0  0
  6 23  1  0  0  0  0
  7 12  2  0  0  0  0
  7 22  1  0  0  0  0
  8  9  2  0  0  0  0
  8 25  1  0  0  0  0
  9 26  1  0  0  0  0
 10 27  1  0  0  0  0
 11 27  2  0  0  0  0
 12 28  1  0  0  0  0
 13 14  2  0  0  0  0
 13 29  1  0  0  0  0
 14 30  1  0  0  0  0
 15 19  1  0  0  0  0
 15 25  2  0  0  0  0
 16 24  1  0  0  0  0
 16 28  2  0  0  0  0
 17 30  2  0  0  0  0
 17 31  1  0  0  0  0
 18 32  1  0  0  0  0
 19 26  2  0  0  0  0
 19 35  1  0  0  0  0
 20 32  1  0  0  0  0
 20 33  2  0  0  0  0
 20 37  1  0  0  0  0
 21 23  2  0  0  0  0
 21 42  1  0  0  0  0
 22 24  2  0  0  0  0
 22 43  1  0  0  0  0
 23 53  1  0  0  0  0
 24 44  1  0  0  0  0
 25 69  1  0  0  0  0
 26 74  1  0  0  0  0
 27 84  1  0  0  0  0
 28 85  1  0  0  0  0
 29 31  2  0  0  0  0
 29 84  1  0  0  0  0
 30 86  1  0  0  0  0
 31 87  1  0  0  0  0
 32 67  2  0  0  0  0
 33 68  1  0  0  0  0
 33 72  1  0  0  0  0
 34 45  1  0  0  0  0
 34 69  1  0  0  0  0
 34 78  2  0  0  0  0
 35 36  2  0  0  0  0
 36 57  1  0  0  0  0
 37 73  1  0  0  0  0
 37 79  2  0  0  0  0
 38 54  1  0  0  0  0
 38 75  1  0  0  0  0
 38 80  2  0  0  0  0
 39 64  1  0  0  0  0
 39 70  1  0  0  0  0
 39 81  2  0  0  0  0
 40 65  1  0  0  0  0
 40 76  1  0  0  0  0
 40 82  2  0  0  0  0
 41 71  1  0  0  0  0
 41 74  1  0  0  0  0
 41 83  2  0  0  0  0
 42 46  1  0  0  0  0
 43 54  1  0  0  0  0
 44 70  1  0  0  0  0
 45 47  1  0  0  0  0
 46 49  1  0  0  0  0
 47 56  1  0  0  0  0
 48 50  1  0  0  0  0
 48 51  1  0  0  0  0
 49 53  1  0  0  0  0
 50 55  1  0  0  0  0
 51 71  1  0  0  0  0
 52 55  1  0  0  0  0
 52 71  1  0  0  0  0
 53 75  1  0  0  0  0
 54 70  1  0  0  0  0
 55 68  1  0  0  0  0
 56 63  1  0  0  0  0
 56 69  1  0  0  0  0
 58 65  1  0  0  0  0
 59 66  1  0  0  0  0
 60 66  1  0  0  0  0
 61 66  1  0  0  0  0
 62 77  1  0  0  0  0
 63 85  1  0  0  0  0
 64 66  1  0  0  0  0
 64 76  1  0  0  0  0
 65 77  1  0  0  0  0
 67 68  1  0  0  0  0
M  CHG  1  77   1
M  ISO  4  41 100  63 101  74 100  85 101
M  END
> <Batch ID>
0111

> <Smiles>
CC=Cc1cc(N2C(=O)CCC2[101CH2:1][101O:1]c2ccc3c(c2)CN(C(=O)C(NC(=O)C(C)NC)C(C)(C)C)C(C(=O)NC2CCCc4ccccc42)C3)ccc1[100NH:0][100C:0](=O)N1CCCC(n2nc(-c3ccc(Oc4ccc(F)cc4F)cc3)c(C(N)=O)c2N)C1

> <Shape>
0.243

> <Color>
0.093

> <Negative vol penalty>
0.000

$$$$

  -OEChem-04052301283D

 82 90  0     1  0  0  0  0  0999 V2000
  -21.6957  -12.0898   19.6446 C   0  0  0  0  0  0  0  0  0  0  0  0
  -21.6315  -13.3803   20.1602 C   0  0  0  0  0  0  0  0  0  0  0  0
  -26.1623  -25.9690   14.5469 C   0  0  0  0  0  0  0  0  0  0  0  0
  -28.4271  -25.4632   15.2191 C   0  0  0  0  0  0  0  0  0  0  0  0
  -22.9049  -11.3958   19.6546 C   0  0  0  0  0  0  0  0  0  0  0  0
  -22.7762  -13.9772   20.6872 C   0  0  0  0  0  0  0  0  0  0  0  0
  -23.3508  -18.7689   19.1527 C   0  0  0  0  0  0  0  0  0  0  0  0
  -26.5606  -25.9757   13.2101 C   0  0  0  0  0  0  0  0  0  0  0  0
  -28.8254  -25.4699   13.8823 C   0  0  0  0  0  0  0  0  0  0  0  0
  -22.5666  -19.7365   19.7793 C   0  0  0  0  0  0  0  0  0  0  0  0
  -26.9082  -25.7696    9.5974 C   0  0  0  0  0  0  0  0  0  0  0  0
  -26.1000  -25.1030    8.6766 C   0  0  0  0  0  0  0  0  0  0  0  0
  -24.4411  -20.3464   21.1699 C   0  0  0  0  0  0  0  0  0  0  0  0
  -18.8664  -25.8506   22.6341 C   0  0  0  0  0  0  0  0  0  0  0  0
  -26.4340  -23.0350    9.8804 C   0  0  0  0  0  0  0  0  0  0  0  0
  -27.0956  -25.7128   15.5514 C   0  0  0  0  0  0  0  0  0  0  0  0
  -26.2187  -24.6053   17.6756 C   0  0  0  0  0  0  0  0  0  0  0  0
  -24.0672  -11.9880   20.1732 C   0  0  0  0  0  0  0  0  0  0  0  0
  -24.6851  -18.5750   19.5382 C   0  0  0  0  0  0  0  0  0  0  0  0
  -24.0018  -13.2899   20.7054 C   0  0  0  0  0  0  0  0  0  0  0  0
  -25.2408  -19.3774   20.5449 C   0  0  0  0  0  0  0  0  0  0  0  0
  -27.8921  -25.7261   12.8778 C   0  0  0  0  0  0  0  0  0  0  0  0
  -23.1109  -20.5234   20.7901 C   0  0  0  0  0  0  0  0  0  0  0  0
  -27.4795  -25.0689   10.6597 C   0  0  0  0  0  0  0  0  0  0  0  0
  -19.3345  -27.1586   22.9047 C   0  0  0  0  0  0  0  0  0  0  0  0
  -25.8628  -23.7357    8.8181 C   0  0  0  0  0  0  0  0  0  0  0  0
  -27.2423  -23.7017   10.8012 C   0  0  0  0  0  0  0  0  0  0  0  0
  -26.6849  -25.7064   16.9325 C   0  0  0  0  0  0  0  0  0  0  0  0
  -20.6454  -27.1887   22.4894 C   0  0  0  0  0  0  0  0  0  0  0  0
  -19.9245  -25.1747   22.0726 C   0  0  0  0  0  0  0  0  0  0  0  0
  -25.9633  -25.1172   18.9242 C   0  0  0  0  0  0  0  0  0  0  0  0
  -21.6557  -28.2614   22.5096 C   0  0  0  0  0  0  0  0  0  0  0  0
  -21.1229  -23.4699   21.1327 C   0  0  0  0  0  0  0  0  0  0  0  0
  -26.0332  -23.2418   17.2731 C   0  0  0  0  0  0  0  0  0  0  0  0
  -26.3334  -16.1555   20.7761 C   0  0  0  0  0  0  0  0  0  0  0  0
  -28.8535  -18.1440   20.3101 C   0  0  0  0  0  0  0  0  0  0  0  0
  -29.9930  -21.3397   19.9417 C   0  0  0  0  0  0  0  0  0  0  0  0
  -23.7505  -29.1262   22.1154 C   0  0  0  0  0  0  0  0  0  0  0  0
  -25.3408  -11.1809   20.2055 C   0  0  0  0  0  0  0  0  0  0  0  0
  -25.5254  -17.5453   18.8340 C   0  0  0  0  0  0  0  0  0  0  0  0
  -26.6739  -19.2228   20.9816 C   0  0  0  0  0  0  0  0  0  0  0  0
  -26.5910  -12.0248   20.4403 C   0  0  0  0  0  0  0  0  0  0  0  0
  -27.1389  -29.5838   20.9692 C   0  0  0  0  0  0  0  0  0  0  0  0
  -26.3656  -13.0053   21.5869 C   0  0  0  0  0  0  0  0  0  0  0  0
  -27.2708  -28.5474   19.8534 C   0  0  0  0  0  0  0  0  0  0  0  0
  -25.7330  -30.1739   21.0221 C   0  0  0  0  0  0  0  0  0  0  0  0
  -24.7818  -28.1089   20.0325 C   0  0  0  0  0  0  0  0  0  0  0  0
  -25.2274  -13.9805   21.2631 C   0  0  1  0  0  0  0  0  0  0  0  0
  -26.7219  -17.0839   19.6604 C   0  0  1  0  0  0  0  0  0  0  0  0
  -26.1790  -27.4687   19.9689 C   0  0  1  0  0  0  0  0  0  0  0  0
  -31.6258  -23.1930   19.4984 C   0  0  0  0  0  0  0  0  0  0  0  0
  -29.5574  -17.7378   23.2511 C   0  0  0  0  0  0  0  0  0  0  0  0
  -31.0404  -19.7494   23.1019 C   0  0  0  0  0  0  0  0  0  0  0  0
  -31.5191  -17.7425   21.6999 C   0  0  0  0  0  0  0  0  0  0  0  0
  -29.4857  -21.2461   17.0274 C   0  0  0  0  0  0  0  0  0  0  0  0
  -17.2964  -27.9655   23.8272 C   0  0  0  0  0  0  0  0  0  0  0  0
  -21.3119  -22.0705   20.6285 C   0  0  0  0  0  0  0  0  0  1  0  0
  -29.5405  -19.2094   21.1297 C   0  0  1  0  0  0  0  0  0  0  0  0
  -30.9379  -21.9618   18.9294 C   0  0  2  0  0  0  0  0  0  0  0  0
  -30.3868  -18.6116   22.2890 C   0  0  0  0  0  0  0  0  0  0  0  0
  -26.7243  -26.8327   17.6492 N   0  0  0  0  0  0  0  0  0  0  0  0
  -19.9866  -23.8451   21.6223 N   0  0  0  0  0  0  0  0  0  0  0  0
  -22.8549  -28.0752   22.0639 N   0  0  0  0  0  0  0  0  0  0  0  0
  -26.2794  -26.4422   18.8558 N   0  0  0  0  0  0  0  0  0  0  0  0
  -27.4531  -18.1981   20.2672 N   0  0  0  0  0  0  0  0  0  0  0  0
  -24.7220  -29.1184   21.0978 N   0  0  0  0  0  0  0  0  0  0  0  0
  -25.5013  -24.5588   20.0631 N   0  0  0  0  0  0  0  0  0  0  0  0
  -26.3446  -22.8863   15.9537 N   0  0  0  0  0  0  0  0  0  0  0  0
  -25.6865  -15.0094   20.3548 N   0  0  0  0  0  0  0  0  0  0  0  0
  -30.3053  -20.0194   20.1877 N   0  0  0  0  0  0  0  0  0  0  0  0
  -30.1919  -22.3645   17.7037 N   0  3  0  0  0  0  0  0  0  0  0  0
  -25.5883  -22.3681   18.0556 O   0  0  0  0  0  0  0  0  0  0  0  0
  -26.6021  -16.4559   21.9333 O   0  0  0  0  0  0  0  0  0  0  0  0
  -29.5347  -17.2993   19.7234 O   0  0  0  0  0  0  0  0  0  0  0  0
  -29.0724  -21.9638   20.4648 O   0  0  0  0  0  0  0  0  0  0  0  0
  -23.7190  -30.0150   22.9699 O   0  0  0  0  0  0  0  0  0  0  0  0
  -21.0128  -25.9833   21.9808 O   0  0  0  0  0  0  0  0  0  0  0  0
  -28.2810  -25.7323   11.5735 O   0  0  0  0  0  0  0  0  0  0  0  0
  -18.6665  -28.1822   23.4533 O   0  0  0  0  0  0  0  0  0  0  0  0
  -22.3475  -21.4681   21.4038 O   0  0  0  0  0  0  0  0  0  1  0  0
  -25.0854  -23.0960    7.9346 F   0  0  0  0  0  0  0  0  0  0  0  0
  -27.7874  -23.0235   11.8204 F   0  0  0  0  0  0  0  0  0  0  0  0
  1  2  1  0  0  0  0
  1  5  2  0  0  0  0
  2  6  2  0  0  0  0
  3  8  2  0  0  0  0
  3 16  1  0  0  0  0
  4  9  1  0  0  0  0
  4 16  2  0  0  0  0
  5 18  1  0  0  0  0
  6 20  1  0  0  0  0
  7 10  2  0  0  0  0
  7 19  1  0  0  0  0
  8 22  1  0  0  0  0
  9 22  2  0  0  0  0
 10 23  1  0  0  0  0
 11 12  2  0  0  0  0
 11 24  1  0  0  0  0
 12 26  1  0  0  0  0
 13 21  1  0  0  0  0
 13 23  2  0  0  0  0
 14 25  1  0  0  0  0
 14 30  2  0  0  0  0
 15 26  2  0  0  0  0
 15 27  1  0  0  0  0
 16 28  1  0  0  0  0
 17 28  1  0  0  0  0
 17 31  2  0  0  0  0
 17 34  1  0  0  0  0
 18 20  2  0  0  0  0
 18 39  1  0  0  0  0
 19 21  2  0  0  0  0
 19 40  1  0  0  0  0
 20 48  1  0  0  0  0
 21 41  1  0  0  0  0
 22 78  1  0  0  0  0
 23 80  1  0  0  0  0
 24 27  2  0  0  0  0
 24 78  1  0  0  0  0
 25 29  2  0  0  0  0
 25 79  1  0  0  0  0
 26 81  1  0  0  0  0
 27 82  1  0  0  0  0
 28 61  2  0  0  0  0
 29 32  1  0  0  0  0
 29 77  1  0  0  0  0
 30 62  1  0  0  0  0
 30 77  1  0  0  0  0
 31 64  1  0  0  0  0
 31 67  1  0  0  0  0
 32 63  2  0  0  0  0
 33 57  1  0  0  0  0
 33 62  2  0  0  0  0
 34 68  1  0  0  0  0
 34 72  2  0  0  0  0
 35 49  1  0  0  0  0
 35 69  1  0  0  0  0
 35 73  2  0  0  0  0
 36 58  1  0  0  0  0
 36 65  1  0  0  0  0
 36 74  2  0  0  0  0
 37 59  1  0  0  0  0
 37 70  1  0  0  0  0
 37 75  2  0  0  0  0
 38 63  1  0  0  0  0
 38 66  1  0  0  0  0
 38 76  2  0  0  0  0
 39 42  1  0  0  0  0
 40 49  1  0  0  0  0
 41 65  1  0  0  0  0
 42 44  1  0  0  0  0
 43 45  1  0  0  0  0
 43 46  1  0  0  0  0
 44 48  1  0  0  0  0
 45 50  1  0  0  0  0
 46 66  1  0  0  0  0
 47 50  1  0  0  0  0
 47 66  1  0  0  0  0
 48 69  1  0  0  0  0
 49 65  1  0  0  0  0
 50 64  1  0  0  0  0
 51 59  1  0  0  0  0
 52 60  1  0  0  0  0
 53 60  1  0  0  0  0
 54 60  1  0  0  0  0
 55 71  1  0  0  0  0
 56 79  1  0  0  0  0
 57 80  1  0  0  0  0
 58 60  1  0  0  0  0
 58 70  1  0  0  0  0
 59 71  1  0  0  0  0
 61 64  1  0  0  0  0
M  CHG  1  71   1
M  ISO  4  38 100  57 101  63 100  80 101
M  END
> <Batch ID>
0111

> <Smiles>
CNC(C)C(=O)NC(C(=O)N1Cc2cc([101O:1][101CH:1]=CNc3cc(OC)c(C=[100N:0][100C:0](=O)N4CCCC(n5nc(-c6ccc(Oc7ccc(F)cc7F)cc6)c(C(N)=O)c5N)C4)o3)ccc2CC1C(=O)NC1CCCc2ccccc21)C(C)(C)C

> <Shape>
0.205

> <Color>
0.064

> <Negative vol penalty>
0.000

$$$$

  -OEChem-04052301283D

 89 98  0     1  0  0  0  0  0999 V2000
  -23.0269   -7.7492   20.6141 C   0  0  0  0  0  0  0  0  0  0  0  0
  -22.2837   -8.8566   20.2183 C   0  0  0  0  0  0  0  0  0  0  0  0
  -28.2959  -27.7229   19.1989 C   0  0  0  0  0  0  0  0  0  0  0  0
  -29.4315  -27.7643   21.3310 C   0  0  0  0  0  0  0  0  0  0  0  0
  -21.5074  -27.0967   24.3517 C   0  0  0  0  0  0  0  0  0  0  0  0
  -24.1519   -7.9180   21.4202 C   0  0  0  0  0  0  0  0  0  0  0  0
  -22.6645  -10.1335   20.6293 C   0  0  0  0  0  0  0  0  0  0  0  0
  -22.6711  -16.9435   18.4067 C   0  0  0  0  0  0  0  0  0  0  0  0
  -21.4145  -25.7091   24.2452 C   0  0  0  0  0  0  0  0  0  0  0  0
  -29.0311  -26.5967   18.8291 C   0  0  0  0  0  0  0  0  0  0  0  0
  -30.1668  -26.6380   20.9612 C   0  0  0  0  0  0  0  0  0  0  0  0
  -22.2774  -18.2136   18.8257 C   0  0  0  0  0  0  0  0  0  0  0  0
  -29.6822  -23.2985   20.7791 C   0  0  0  0  0  0  0  0  0  0  0  0
  -29.8143  -22.2756   21.7182 C   0  0  0  0  0  0  0  0  0  0  0  0
  -21.6591  -25.8767   21.8474 C   0  0  0  0  0  0  0  0  0  0  0  0
  -24.2845  -18.3918   20.1519 C   0  0  0  0  0  0  0  0  0  0  0  0
  -32.2158  -22.5345   21.6623 C   0  0  0  0  0  0  0  0  0  0  0  0
  -28.4961  -28.3067   20.4498 C   0  0  0  0  0  0  0  0  0  0  0  0
  -21.6761  -27.8744   23.2060 C   0  0  0  0  0  0  0  0  0  0  0  0
  -21.7520  -27.2644   21.9539 C   0  0  0  0  0  0  0  0  0  0  0  0
  -27.7141  -30.7204   20.1851 C   0  0  0  0  0  0  0  0  0  0  0  0
  -24.5522   -9.1985   21.8334 C   0  0  0  0  0  0  0  0  0  0  0  0
  -23.8713  -16.3826   18.8665 C   0  0  0  0  0  0  0  0  0  0  0  0
  -23.7951  -10.3195   21.4428 C   0  0  0  0  0  0  0  0  0  0  0  0
  -24.6925  -17.1155   19.7352 C   0  0  0  0  0  0  0  0  0  0  0  0
  -21.4904  -25.0991   22.9931 C   0  0  0  0  0  0  0  0  0  0  0  0
  -29.9666  -26.0543   19.7102 C   0  0  0  0  0  0  0  0  0  0  0  0
  -23.0827  -18.9368   19.7007 C   0  0  0  0  0  0  0  0  0  0  0  0
  -30.8169  -23.9393   20.2815 C   0  0  0  0  0  0  0  0  0  0  0  0
  -31.0811  -21.8936   22.1598 C   0  0  0  0  0  0  0  0  0  0  0  0
  -32.0836  -23.5574   20.7231 C   0  0  0  0  0  0  0  0  0  0  0  0
  -27.7374  -29.4704   20.8322 C   0  0  0  0  0  0  0  0  0  0  0  0
  -26.8464  -31.4781   20.9330 C   0  0  0  0  0  0  0  0  0  0  0  0
  -22.1407  -21.5673   21.9846 C   0  0  0  0  0  0  0  0  0  0  0  0
  -22.3901  -22.8487   22.3485 C   0  0  0  0  0  0  0  0  0  0  0  0
  -20.7354  -21.0550   22.1176 C   0  0  0  0  0  0  0  0  0  0  0  0
  -21.0472  -28.0719   19.7479 C   0  0  0  0  0  0  0  0  0  0  0  0
  -21.9280  -28.0463   20.7364 C   0  0  0  0  0  0  0  0  0  0  0  0
  -21.7687  -29.3216   23.3608 C   0  0  0  0  0  0  0  0  0  0  0  0
  -28.4143  -31.1576   19.0128 C   0  0  0  0  0  0  0  0  0  0  0  0
  -22.3328  -29.9283   24.5884 C   0  0  0  0  0  0  0  0  0  0  0  0
  -24.6378  -13.8089   20.5672 C   0  0  0  0  0  0  0  0  0  0  0  0
  -27.6681  -14.7151   19.8471 C   0  0  0  0  0  0  0  0  0  0  0  0
  -29.5211  -17.8058   19.6721 C   0  0  0  0  0  0  0  0  0  0  0  0
  -25.7481   -9.3268   22.7433 C   0  0  0  0  0  0  0  0  0  0  0  0
  -24.2948  -15.0224   18.3841 C   0  0  0  0  0  0  0  0  0  0  0  0
  -26.0003  -16.5665   20.2420 C   0  0  0  0  0  0  0  0  0  0  0  0
  -19.6490  -22.0250   22.5151 C   0  0  0  0  0  0  0  0  0  0  0  0
  -26.3005  -10.7475   22.8265 C   0  0  0  0  0  0  0  0  0  0  0  0
  -25.1676  -31.9776   25.3761 C   0  0  0  0  0  0  0  0  0  0  0  0
  -25.1683  -11.7495   23.0288 C   0  0  0  0  0  0  0  0  0  0  0  0
  -26.1605  -31.6504   24.2612 C   0  0  0  0  0  0  0  0  0  0  0  0
  -20.1715  -23.1051   23.4462 C   0  0  0  0  0  0  0  0  0  0  0  0
  -24.3356  -30.7578   25.7585 C   0  0  0  0  0  0  0  0  0  0  0  0
  -24.6065  -29.8040   23.4857 C   0  0  0  0  0  0  0  0  0  0  0  0
  -24.1906  -11.7230   21.8477 C   0  0  1  0  0  0  0  0  0  0  0  0
  -25.2869  -14.3387   19.3200 C   0  0  1  0  0  0  0  0  0  0  0  0
  -25.4459  -31.0189   23.0532 C   0  0  2  0  0  0  0  0  0  0  0  0
  -23.8060  -23.3890   22.2907 C   0  0  0  0  0  0  0  0  0  0  0  0
  -31.5306  -18.4281   18.3039 C   0  0  0  0  0  0  0  0  0  0  0  0
  -29.2497  -13.8759   22.3178 C   0  0  0  0  0  0  0  0  0  0  0  0
  -30.8095  -15.7852   21.8820 C   0  0  0  0  0  0  0  0  0  0  0  0
  -30.5823  -13.9543   20.2030 C   0  0  0  0  0  0  0  0  0  0  0  0
  -28.1443  -20.1510   18.5044 C   0  0  0  0  0  0  0  0  0  0  0  0
  -23.1271  -20.5909   21.4089 C   0  0  0  0  0  0  0  0  0  1  0  0
  -28.6966  -15.6137   20.4901 C   0  0  1  0  0  0  0  0  0  0  0  0
  -30.0156  -18.4991   18.4154 C   0  0  2  0  0  0  0  0  0  0  0  0
  -29.8066  -14.8119   21.2265 C   0  0  0  0  0  0  0  0  0  0  0  0
  -26.9472  -29.4321   21.9084 N   0  0  0  0  0  0  0  0  0  0  0  0
  -21.3715  -30.1628   22.4477 N   0  0  0  0  0  0  0  0  0  0  0  0
  -26.4195  -30.6675   21.9434 N   0  0  0  0  0  0  0  0  0  0  0  0
  -21.3959  -23.6875   22.8854 N   0  0  0  0  0  0  0  0  0  0  0  0
  -23.7008  -30.1619   24.5846 N   0  0  0  0  0  0  0  0  0  0  0  0
  -26.3677  -15.2298   19.7465 N   0  0  0  0  0  0  0  0  0  0  0  0
  -26.4146  -32.7520   20.8184 N   0  0  0  0  0  0  0  0  0  0  0  0
  -29.6786  -31.7422   19.1687 N   0  0  0  0  0  0  0  0  0  0  0  0
  -24.7431  -12.4394   20.7181 N   0  0  0  0  0  0  0  0  0  0  0  0
  -29.1926  -16.4882   19.4330 N   0  0  0  0  0  0  0  0  0  0  0  0
  -29.6115  -19.9335   18.4219 N   0  3  0  0  0  0  0  0  0  0  0  0
  -20.4636  -19.8837   21.8550 O   0  0  0  0  0  0  0  0  0  0  0  0
  -27.9261  -31.0484   17.8625 O   0  0  0  0  0  0  0  0  0  0  0  0
  -21.5271  -30.1597   25.4804 O   0  0  0  0  0  0  0  0  0  0  0  0
  -24.0838  -14.5854   21.3365 O   0  0  0  0  0  0  0  0  0  0  0  0
  -28.0075  -13.6004   19.4422 O   0  0  0  0  0  0  0  0  0  0  0  0
  -29.4384  -18.3752   20.7582 O   0  0  0  0  0  0  0  0  0  0  0  0
  -30.6840  -24.9552   19.3498 O   0  0  0  0  0  0  0  0  0  0  0  0
  -22.7004  -20.1765   20.1118 O   0  0  0  0  0  0  0  0  0  1  0  0
  -31.2077  -20.9124   23.0627 F   0  0  0  0  0  0  0  0  0  0  0  0
  -33.1773  -24.1701   20.2497 F   0  0  0  0  0  0  0  0  0  0  0  0
  1  2  1  0  0  0  0
  1  6  2  0  0  0  0
  2  7  2  0  0  0  0
  3 10  2  0  0  0  0
  3 18  1  0  0  0  0
  4 11  1  0  0  0  0
  4 18  2  0  0  0  0
  5  9  2  0  0  0  0
  5 19  1  0  0  0  0
  6 22  1  0  0  0  0
  7 24  1  0  0  0  0
  8 12  2  0  0  0  0
  8 23  1  0  0  0  0
  9 26  1  0  0  0  0
 10 27  1  0  0  0  0
 11 27  2  0  0  0  0
 12 28  1  0  0  0  0
 13 14  2  0  0  0  0
 13 29  1  0  0  0  0
 14 30  1  0  0  0  0
 15 20  1  0  0  0  0
 15 26  2  0  0  0  0
 16 25  1  0  0  0  0
 16 28  2  0  0  0  0
 17 30  2  0  0  0  0
 17 31  1  0  0  0  0
 18 32  1  0  0  0  0
 19 20  2  0  0  0  0
 19 39  1  0  0  0  0
 20 38  1  0  0  0  0
 21 32  1  0  0  0  0
 21 33  2  0  0  0  0
 21 40  1  0  0  0  0
 22 24  2  0  0  0  0
 22 45  1  0  0  0  0
 23 25  2  0  0  0  0
 23 46  1  0  0  0  0
 24 56  1  0  0  0  0
 25 47  1  0  0  0  0
 26 72  1  0  0  0  0
 27 86  1  0  0  0  0
 28 87  1  0  0  0  0
 29 31  2  0  0  0  0
 29 86  1  0  0  0  0
 30 88  1  0  0  0  0
 31 89  1  0  0  0  0
 32 69  2  0  0  0  0
 33 71  1  0  0  0  0
 33 75  1  0  0  0  0
 34 35  2  0  0  0  0
 34 36  1  0  0  0  0
 34 65  1  0  0  0  0
 35 59  1  0  0  0  0
 35 72  1  0  0  0  0
 36 48  1  0  0  0  0
 36 80  2  0  0  0  0
 37 38  2  0  0  0  0
 39 41  1  0  0  0  0
 39 70  2  0  0  0  0
 40 76  1  0  0  0  0
 40 81  2  0  0  0  0
 41 73  1  0  0  0  0
 41 82  2  0  0  0  0
 42 57  1  0  0  0  0
 42 77  1  0  0  0  0
 42 83  2  0  0  0  0
 43 66  1  0  0  0  0
 43 74  1  0  0  0  0
 43 84  2  0  0  0  0
 44 67  1  0  0  0  0
 44 78  1  0  0  0  0
 44 85  2  0  0  0  0
 45 49  1  0  0  0  0
 46 57  1  0  0  0  0
 47 74  1  0  0  0  0
 48 53  1  0  0  0  0
 49 51  1  0  0  0  0
 50 52  1  0  0  0  0
 50 54  1  0  0  0  0
 51 56  1  0  0  0  0
 52 58  1  0  0  0  0
 53 72  1  0  0  0  0
 54 73  1  0  0  0  0
 55 58  1  0  0  0  0
 55 73  1  0  0  0  0
 56 77  1  0  0  0  0
 57 74  1  0  0  0  0
 58 71  1  0  0  0  0
 60 67  1  0  0  0  0
 61 68  1  0  0  0  0
 62 68  1  0  0  0  0
 63 68  1  0  0  0  0
 64 79  1  0  0  0  0
 65 87  1  0  0  0  0
 66 68  1  0  0  0  0
 66 78  1  0  0  0  0
 67 79  1  0  0  0  0
 69 71  1  0  0  0  0
M  CHG  1  79   1
M  ISO  4  39 100  41 100  65 101  87 101
M  END
> <Batch ID>
0111

> <Smiles>
C=Cc1cc(N2CCC(=O)C([101CH2:1][101O:1]c3ccc4c(c3)CN(C(=O)C(NC(=O)C(C)NC)C(C)(C)C)C(C(=O)NC3CCCc5ccccc53)C4)=C2C)ccc1[100C:0](=N)[100C:0](=O)N1CCCC(n2nc(-c3ccc(Oc4ccc(F)cc4F)cc3)c(C(N)=O)c2N)C1

> <Shape>
0.273

> <Color>
0.045

> <Negative vol penalty>
0.000

$$$$

  -OEChem-04052301283D

 84 92  0     1  0  0  0  0  0999 V2000
  -25.3534  -18.2117   12.7557 C   0  0  0  0  0  0  0  0  0  0  0  0
  -25.8475  -18.7764   13.9272 C   0  0  0  0  0  0  0  0  0  0  0  0
  -31.4184  -18.9492   20.5110 C   0  0  0  0  0  0  0  0  0  0  0  0
  -22.9975   -9.8952   19.9838 C   0  0  0  0  0  0  0  0  0  0  0  0
  -23.7209   -9.9497   22.2883 C   0  0  0  0  0  0  0  0  0  0  0  0
  -25.7013  -18.7561   11.5201 C   0  0  0  0  0  0  0  0  0  0  0  0
  -26.6907  -19.8852   13.8638 C   0  0  0  0  0  0  0  0  0  0  0  0
  -25.4572  -23.4592   17.2327 C   0  0  0  0  0  0  0  0  0  0  0  0
  -31.2070  -17.5712   20.5569 C   0  0  0  0  0  0  0  0  0  0  0  0
  -30.6998  -19.7936   21.3573 C   0  0  0  0  0  0  0  0  0  0  0  0
  -22.2290   -8.7624   20.2518 C   0  0  0  0  0  0  0  0  0  0  0  0
  -22.9524   -8.8169   22.5563 C   0  0  0  0  0  0  0  0  0  0  0  0
  -25.8453  -23.2488   18.5551 C   0  0  0  0  0  0  0  0  0  0  0  0
  -23.1920   -5.4767   22.0914 C   0  0  0  0  0  0  0  0  0  0  0  0
  -23.7773   -4.4601   22.8461 C   0  0  0  0  0  0  0  0  0  0  0  0
  -27.7258  -24.7247   18.2317 C   0  0  0  0  0  0  0  0  0  0  0  0
  -22.0525   -4.7091   24.5194 C   0  0  0  0  0  0  0  0  0  0  0  0
  -23.7435  -10.4888   21.0020 C   0  0  0  0  0  0  0  0  0  0  0  0
  -24.1328  -13.0035   20.8212 C   0  0  0  0  0  0  0  0  0  0  0  0
  -26.5414  -19.8780   11.4419 C   0  0  0  0  0  0  0  0  0  0  0  0
  -26.2079  -24.2968   16.3953 C   0  0  0  0  0  0  0  0  0  0  0  0
  -27.0512  -20.4443   12.6259 C   0  0  0  0  0  0  0  0  0  0  0  0
  -27.3436  -24.9461   16.8998 C   0  0  0  0  0  0  0  0  0  0  0  0
  -30.2771  -17.0377   21.4492 C   0  0  0  0  0  0  0  0  0  0  0  0
  -29.7698  -19.2601   22.2495 C   0  0  0  0  0  0  0  0  0  0  0  0
  -29.5584  -17.8821   22.2955 C   0  0  0  0  0  0  0  0  0  0  0  0
  -22.2064   -8.2233   21.5381 C   0  0  0  0  0  0  0  0  0  0  0  0
  -26.9814  -23.8793   19.0540 C   0  0  0  0  0  0  0  0  0  0  0  0
  -22.0369   -6.1095   22.5508 C   0  0  0  0  0  0  0  0  0  0  0  0
  -23.2076   -4.0763   24.0600 C   0  0  0  0  0  0  0  0  0  0  0  0
  -21.4671   -5.7257   23.7647 C   0  0  0  0  0  0  0  0  0  0  0  0
  -24.5380  -11.6587   20.7257 C   0  0  0  0  0  0  0  0  0  0  0  0
  -25.2439  -13.7236   20.4562 C   0  0  0  0  0  0  0  0  0  0  0  0
  -22.8653  -13.5526   21.2056 C   0  0  0  0  0  0  0  0  0  0  0  0
  -27.8327  -23.8943   13.6931 C   0  0  0  0  0  0  0  0  0  0  0  0
  -28.0533  -22.0333   21.9877 C   0  0  0  0  0  0  0  0  0  0  0  0
  -28.1419  -27.1193   13.8554 C   0  0  0  0  0  0  0  0  0  0  0  0
  -28.1643  -29.9342   15.7848 C   0  0  0  0  0  0  0  0  0  0  0  0
  -30.7247  -14.6768   20.6927 C   0  0  0  0  0  0  0  0  0  0  0  0
  -26.9276  -20.4023   10.0815 C   0  0  0  0  0  0  0  0  0  0  0  0
  -25.7608  -24.5345   14.9789 C   0  0  0  0  0  0  0  0  0  0  0  0
  -28.1725  -25.8710   16.0477 C   0  0  0  0  0  0  0  0  0  0  0  0
  -27.5251  -21.8066   10.1171 C   0  0  0  0  0  0  0  0  0  0  0  0
  -29.6045  -12.2209   18.3708 C   0  0  0  0  0  0  0  0  0  0  0  0
  -28.5723  -21.9134   11.2211 C   0  0  0  0  0  0  0  0  0  0  0  0
  -28.1532  -11.9663   18.7843 C   0  0  0  0  0  0  0  0  0  0  0  0
  -30.5044  -12.4654   19.5808 C   0  0  0  0  0  0  0  0  0  0  0  0
  -28.5892  -13.2599   20.9112 C   0  0  0  0  0  0  0  0  0  0  0  0
  -27.9485  -21.6626   12.5993 C   0  0  1  0  0  0  0  0  0  0  0  0
  -26.8901  -25.0032   14.0666 C   0  0  1  0  0  0  0  0  0  0  0  0
  -27.6322  -13.0726   19.7226 C   0  0  2  0  0  0  0  0  0  0  0  0
  -28.4798  -32.4195   15.6395 C   0  0  0  0  0  0  0  0  0  0  0  0
  -31.1547  -26.7187   13.5863 C   0  0  0  0  0  0  0  0  0  0  0  0
  -31.4687  -29.0689   14.3900 C   0  0  0  0  0  0  0  0  0  0  0  0
  -30.2349  -28.6333   12.2662 C   0  0  0  0  0  0  0  0  0  0  0  0
  -29.5996  -20.4701   24.4099 C   0  0  0  0  0  0  0  0  0  0  0  0
  -25.4299  -30.4568   16.7892 C   0  0  0  0  0  0  0  0  0  0  0  0
  -27.8056  -20.7131   22.6862 C   0  0  0  0  0  0  0  0  0  0  0  0
  -27.0403  -22.4120   20.9248 C   0  0  0  0  0  0  0  0  0  1  0  0
  -29.1403  -28.0678   14.4739 C   0  0  1  0  0  0  0  0  0  0  0  0
  -27.4765  -31.2769   15.6156 C   0  0  2  0  0  0  0  0  0  0  0  0
  -30.4853  -28.1033   13.6949 C   0  0  0  0  0  0  0  0  0  0  0  0
  -25.8074  -11.5294   20.3308 N   0  0  0  0  0  0  0  0  0  0  0  0
  -26.2094  -12.8023   20.1749 N   0  0  0  0  0  0  0  0  0  0  0  0
  -27.6981  -26.0662   14.6677 N   0  0  0  0  0  0  0  0  0  0  0  0
  -29.9503  -13.5289   20.4215 N   0  0  0  0  0  0  0  0  0  0  0  0
  -28.6144  -17.3410   23.2012 N   0  0  0  0  0  0  0  0  0  0  0  0
  -25.4795  -15.0487   20.3517 N   0  0  0  0  0  0  0  0  0  0  0  0
  -21.8319  -12.6707   21.5501 N   0  0  0  0  0  0  0  0  0  0  0  0
  -30.0812  -15.6346   21.4758 N   0  0  0  0  0  0  0  0  0  0  0  0
  -27.2262  -22.8336   13.0479 N   0  0  0  0  0  0  0  0  0  0  0  0
  -28.4705  -29.3604   14.5690 N   0  0  0  0  0  0  0  0  0  0  0  0
  -29.0587  -20.1295   23.0913 N   0  0  3  0  0  0  0  0  0  0  0  0
  -26.4895  -31.4950   16.7107 N   0  3  0  0  0  0  0  0  0  0  0  0
  -22.6505  -14.7883   21.2267 O   0  0  0  0  0  0  0  0  0  0  0  0
  -29.0226  -23.9944   13.9687 O   0  0  0  0  0  0  0  0  0  0  0  0
  -29.0099  -22.7588   22.2562 O   0  0  0  0  0  0  0  0  0  0  0  0
  -27.7642  -27.3100   12.6967 O   0  0  0  0  0  0  0  0  0  0  0  0
  -28.4090  -29.4452   16.8855 O   0  0  0  0  0  0  0  0  0  0  0  0
  -31.8639  -14.8131   20.2393 O   0  0  0  0  0  0  0  0  0  0  0  0
  -21.4565   -7.1181   21.8000 O   0  0  0  0  0  0  0  0  0  0  0  0
  -27.3628  -23.6751   20.3443 O   0  0  0  0  0  0  0  0  0  1  0  0
  -23.7690   -3.0990   24.7839 F   0  0  0  0  0  0  0  0  0  0  0  0
  -20.3568   -6.3292   24.2106 F   0  0  0  0  0  0  0  0  0  0  0  0
  1  2  1  0  0  0  0
  1  6  2  0  0  0  0
  2  7  2  0  0  0  0
  3  9  1  0  0  0  0
  3 10  2  0  0  0  0
  4 11  2  0  0  0  0
  4 18  1  0  0  0  0
  5 12  1  0  0  0  0
  5 18  2  0  0  0  0
  6 20  1  0  0  0  0
  7 22  1  0  0  0  0
  8 13  2  0  0  0  0
  8 21  1  0  0  0  0
  9 24  2  0  0  0  0
 10 25  1  0  0  0  0
 11 27  1  0  0  0  0
 12 27  2  0  0  0  0
 13 28  1  0  0  0  0
 14 15  2  0  0  0  0
 14 29  1  0  0  0  0
 15 30  1  0  0  0  0
 16 23  1  0  0  0  0
 16 28  2  0  0  0  0
 17 30  2  0  0  0  0
 17 31  1  0  0  0  0
 18 32  1  0  0  0  0
 19 32  1  0  0  0  0
 19 33  2  0  0  0  0
 19 34  1  0  0  0  0
 20 22  2  0  0  0  0
 20 40  1  0  0  0  0
 21 23  2  0  0  0  0
 21 41  1  0  0  0  0
 22 49  1  0  0  0  0
 23 42  1  0  0  0  0
 24 26  1  0  0  0  0
 24 70  1  0  0  0  0
 25 26  2  0  0  0  0
 25 73  1  0  0  0  0
 26 67  1  0  0  0  0
 27 81  1  0  0  0  0
 28 82  1  0  0  0  0
 29 31  2  0  0  0  0
 29 81  1  0  0  0  0
 30 83  1  0  0  0  0
 31 84  1  0  0  0  0
 32 63  2  0  0  0  0
 33 64  1  0  0  0  0
 33 68  1  0  0  0  0
 34 69  1  0  0  0  0
 34 75  2  0  0  0  0
 35 50  1  0  0  0  0
 35 71  1  0  0  0  0
 35 76  2  0  0  0  0
 36 58  1  0  0  0  0
 36 59  1  0  0  0  0
 36 77  2  0  0  0  0
 37 60  1  0  0  0  0
 37 65  1  0  0  0  0
 37 78  2  0  0  0  0
 38 61  1  0  0  0  0
 38 72  1  0  0  0  0
 38 79  2  0  0  0  0
 39 66  1  0  0  0  0
 39 70  1  0  0  0  0
 39 80  2  0  0  0  0
 40 43  1  0  0  0  0
 41 50  1  0  0  0  0
 42 65  1  0  0  0  0
 43 45  1  0  0  0  0
 44 46  1  0  0  0  0
 44 47  1  0  0  0  0
 45 49  1  0  0  0  0
 46 51  1  0  0  0  0
 47 66  1  0  0  0  0
 48 51  1  0  0  0  0
 48 66  1  0  0  0  0
 49 71  1  0  0  0  0
 50 65  1  0  0  0  0
 51 64  1  0  0  0  0
 52 61  1  0  0  0  0
 53 62  1  0  0  0  0
 54 62  1  0  0  0  0
 55 62  1  0  0  0  0
 56 73  1  0  0  0  0
 57 74  1  0  0  0  0
 58 73  1  0  0  0  0
 59 82  1  0  0  0  0
 60 62  1  0  0  0  0
 60 72  1  0  0  0  0
 61 74  1  0  0  0  0
 63 64  1  0  0  0  0
M  CHG  1  74   1
M  ISO  4  39 100  59 101  70 100  82 101
M  END
> <Batch ID>
0111

> <Smiles>
CNC(C)C(=O)NC(C(=O)N1Cc2cc([101O:1][101CH2:1]C(=O)CN(C)c3cccc([100NH:0][100C:0](=O)N4CCCC(n5nc(-c6ccc(Oc7ccc(F)cc7F)cc6)c(C(N)=O)c5N)C4)c3N)ccc2CC1C(=O)NC1CCCc2ccccc21)C(C)(C)C

> <Shape>
0.199

> <Color>
0.194

> <Negative vol penalty>
0.000

$$$$

  -OEChem-04052301283D

 86 94  0     1  0  0  0  0  0999 V2000
  -30.3543  -25.0279   17.5550 C   0  0  0  0  0  0  0  0  0  0  0  0
  -28.9675  -25.0137   17.6653 C   0  0  0  0  0  0  0  0  0  0  0  0
  -26.4093  -15.0620   20.8483 C   0  0  0  0  0  0  0  0  0  0  0  0
  -24.1685  -14.9674   19.9499 C   0  0  0  0  0  0  0  0  0  0  0  0
  -31.1288  -25.5629   18.5835 C   0  0  0  0  0  0  0  0  0  0  0  0
  -28.3546  -25.5337   18.8048 C   0  0  0  0  0  0  0  0  0  0  0  0
  -22.9967  -28.4872   19.0800 C   0  0  0  0  0  0  0  0  0  0  0  0
  -26.1406  -13.9429   21.6363 C   0  0  0  0  0  0  0  0  0  0  0  0
  -23.8998  -13.8482   20.7379 C   0  0  0  0  0  0  0  0  0  0  0  0
  -21.7112  -28.0684   19.4203 C   0  0  0  0  0  0  0  0  0  0  0  0
  -24.5522  -10.5333   20.6583 C   0  0  0  0  0  0  0  0  0  0  0  0
  -23.8980   -9.4595   20.0546 C   0  0  0  0  0  0  0  0  0  0  0  0
  -19.9447  -21.7224   18.3084 C   0  0  0  0  0  0  0  0  0  0  0  0
  -22.0561  -28.8597   21.6728 C   0  0  0  0  0  0  0  0  0  0  0  0
  -20.4755  -23.6875   19.6098 C   0  0  0  0  0  0  0  0  0  0  0  0
  -22.0856   -9.6736   21.6378 C   0  0  0  0  0  0  0  0  0  0  0  0
  -25.4232  -15.5744   20.0052 C   0  0  0  0  0  0  0  0  0  0  0  0
  -18.5904  -22.0516   18.3635 C   0  0  0  0  0  0  0  0  0  0  0  0
  -26.2231  -16.7451   17.8845 C   0  0  0  0  0  0  0  0  0  0  0  0
  -30.5246  -26.0984   19.7319 C   0  0  0  0  0  0  0  0  0  0  0  0
  -23.8269  -29.0866   20.0381 C   0  0  0  0  0  0  0  0  0  0  0  0
  -29.1218  -26.0752   19.8502 C   0  0  0  0  0  0  0  0  0  0  0  0
  -23.3508  -29.2876   21.3415 C   0  0  0  0  0  0  0  0  0  0  0  0
  -19.1211  -24.0168   19.6649 C   0  0  0  0  0  0  0  0  0  0  0  0
  -20.8873  -22.5403   18.9316 C   0  0  0  0  0  0  0  0  0  0  0  0
  -24.8859  -13.3360   21.5811 C   0  0  0  0  0  0  0  0  0  0  0  0
  -21.2417  -28.2520   20.7176 C   0  0  0  0  0  0  0  0  0  0  0  0
  -23.9731  -11.1773   21.7519 C   0  0  0  0  0  0  0  0  0  0  0  0
  -18.1786  -23.1988   19.0417 C   0  0  0  0  0  0  0  0  0  0  0  0
  -22.6647   -9.0297   20.5443 C   0  0  0  0  0  0  0  0  0  0  0  0
  -22.7398  -10.7474   22.2415 C   0  0  0  0  0  0  0  0  0  0  0  0
  -25.6999  -16.7308   19.1914 C   0  0  0  0  0  0  0  0  0  0  0  0
  -26.2965  -18.0774   17.5587 C   0  0  0  0  0  0  0  0  0  0  0  0
  -19.0216  -25.2150   21.6088 C   0  0  0  0  0  0  0  0  0  0  0  0
  -17.6239  -21.1825   17.7062 C   0  0  0  0  0  0  0  0  0  0  0  0
  -26.6081  -15.6519   17.0405 C   0  0  0  0  0  0  0  0  0  0  0  0
  -26.6324  -28.3606   21.3443 C   0  0  0  0  0  0  0  0  0  0  0  0
  -26.3107  -31.2831   22.7147 C   0  0  0  0  0  0  0  0  0  0  0  0
  -24.2339  -33.7905   23.7379 C   0  0  0  0  0  0  0  0  0  0  0  0
  -23.3270  -22.9096   19.4392 C   0  0  0  0  0  0  0  0  0  0  0  0
  -31.4054  -26.6229   20.8381 C   0  0  0  0  0  0  0  0  0  0  0  0
  -25.2013  -29.5570   19.6482 C   0  0  0  0  0  0  0  0  0  0  0  0
  -24.1952  -29.9443   22.4018 C   0  0  0  0  0  0  0  0  0  0  0  0
  -30.6621  -27.4944   21.8472 C   0  0  0  0  0  0  0  0  0  0  0  0
  -26.8483  -22.3956   19.5543 C   0  0  0  0  0  0  0  0  0  0  0  0
  -29.3527  -26.8314   22.2628 C   0  0  0  0  0  0  0  0  0  0  0  0
  -27.0014  -20.8868   19.3492 C   0  0  0  0  0  0  0  0  0  0  0  0
  -25.6155  -22.7321   20.3913 C   0  0  0  0  0  0  0  0  0  0  0  0
  -24.5108  -20.6411   19.7008 C   0  0  0  0  0  0  0  0  0  0  0  0
  -28.4189  -26.6523   21.0597 C   0  0  1  0  0  0  0  0  0  0  0  0
  -26.1474  -29.6895   20.8377 C   0  0  1  0  0  0  0  0  0  0  0  0
  -25.7026  -20.2569   18.8089 C   0  0  2  0  0  0  0  0  0  0  0  0
  -18.3878  -25.9408   23.8758 C   0  0  0  0  0  0  0  0  0  0  0  0
  -24.2597  -36.0361   24.8576 C   0  0  0  0  0  0  0  0  0  0  0  0
  -26.7667  -29.9304   25.4114 C   0  0  0  0  0  0  0  0  0  0  0  0
  -25.8538  -31.9830   26.5168 C   0  0  0  0  0  0  0  0  0  0  0  0
  -27.9272  -32.1288   25.1375 C   0  0  0  0  0  0  0  0  0  0  0  0
  -23.0533  -35.1145   21.3689 C   0  0  0  0  0  0  0  0  0  0  0  0
  -19.7760  -27.4378   22.4042 C   0  0  0  0  0  0  0  0  0  1  0  0
  -18.6449  -26.4138   22.4504 C   0  0  1  0  0  0  0  0  0  0  0  0
  -25.6969  -31.8032   23.9921 C   0  0  1  0  0  0  0  0  0  0  0  0
  -24.2910  -35.2933   23.5310 C   0  0  2  0  0  0  0  0  0  0  0  0
  -26.5457  -31.4472   25.2452 C   0  0  0  0  0  0  0  0  0  0  0  0
  -25.4583  -17.9566   19.6635 N   0  0  0  0  0  0  0  0  0  0  0  0
  -18.7216  -25.1755   20.3514 N   0  0  0  0  0  0  0  0  0  0  0  0
  -25.8314  -18.7537   18.6479 N   0  0  0  0  0  0  0  0  0  0  0  0
  -25.5342  -30.3814   21.9732 N   0  0  0  0  0  0  0  0  0  0  0  0
  -24.4229  -22.1052   19.8170 N   0  0  0  0  0  0  0  0  0  0  0  0
  -26.7131  -18.7246   16.4496 N   0  0  0  0  0  0  0  0  0  0  0  0
  -17.0788  -20.1430   18.4523 N   0  0  0  0  0  0  0  0  0  0  0  0
  -26.4671  -14.3468   17.5316 N   0  0  0  0  0  0  0  0  0  0  0  0
  -22.2632  -22.2064   18.8750 N   0  0  0  0  0  0  0  0  0  0  0  0
  -27.7809  -27.9072   20.7239 N   0  0  0  0  0  0  0  0  0  0  0  0
  -25.4943  -33.2344   23.7945 N   0  0  0  0  0  0  0  0  0  0  0  0
  -23.1329  -35.7476   22.7104 N   0  3  0  0  0  0  0  0  0  0  0  0
  -17.3082  -21.3506   16.5164 O   0  0  0  0  0  0  0  0  0  0  0  0
  -27.0790  -15.8278   15.8912 O   0  0  0  0  0  0  0  0  0  0  0  0
  -26.0115  -27.7898   22.2333 O   0  0  0  0  0  0  0  0  0  0  0  0
  -27.4346  -31.6684   22.3831 O   0  0  0  0  0  0  0  0  0  0  0  0
  -23.1768  -33.1722   23.8427 O   0  0  0  0  0  0  0  0  0  0  0  0
  -23.3428  -24.1352   19.5791 O   0  0  0  0  0  0  0  0  0  0  0  0
  -16.8542  -23.5230   19.0970 O   0  0  0  0  0  0  0  0  0  0  0  0
  -24.6235  -12.2437   22.3497 O   0  0  0  0  0  0  0  0  0  0  0  0
  -19.9876  -27.8435   21.0526 O   0  0  0  0  0  0  0  0  0  1  0  0
  -22.0359   -7.9994   19.9634 F   0  0  0  0  0  0  0  0  0  0  0  0
  -22.1780  -11.3629   23.2910 F   0  0  0  0  0  0  0  0  0  0  0  0
  1  2  1  0  0  0  0
  1  5  2  0  0  0  0
  2  6  2  0  0  0  0
  3  8  2  0  0  0  0
  3 17  1  0  0  0  0
  4  9  1  0  0  0  0
  4 17  2  0  0  0  0
  5 20  1  0  0  0  0
  6 22  1  0  0  0  0
  7 10  2  0  0  0  0
  7 21  1  0  0  0  0
  8 26  1  0  0  0  0
  9 26  2  0  0  0  0
 10 27  1  0  0  0  0
 11 12  2  0  0  0  0
 11 28  1  0  0  0  0
 12 30  1  0  0  0  0
 13 18  2  0  0  0  0
 13 25  1  0  0  0  0
 14 23  1  0  0  0  0
 14 27  2  0  0  0  0
 15 24  1  0  0  0  0
 15 25  2  0  0  0  0
 16 30  2  0  0  0  0
 16 31  1  0  0  0  0
 17 32  1  0  0  0  0
 18 29  1  0  0  0  0
 18 35  1  0  0  0  0
 19 32  1  0  0  0  0
 19 33  2  0  0  0  0
 19 36  1  0  0  0  0
 20 22  2  0  0  0  0
 20 41  1  0  0  0  0
 21 23  2  0  0  0  0
 21 42  1  0  0  0  0
 22 50  1  0  0  0  0
 23 43  1  0  0  0  0
 24 29  2  0  0  0  0
 24 65  1  0  0  0  0
 25 72  1  0  0  0  0
 26 83  1  0  0  0  0
 27 84  1  0  0  0  0
 28 31  2  0  0  0  0
 28 83  1  0  0  0  0
 29 82  1  0  0  0  0
 30 85  1  0  0  0  0
 31 86  1  0  0  0  0
 32 64  2  0  0  0  0
 33 66  1  0  0  0  0
 33 69  1  0  0  0  0
 34 60  1  0  0  0  0
 34 65  2  0  0  0  0
 35 70  1  0  0  0  0
 35 76  2  0  0  0  0
 36 71  1  0  0  0  0
 36 77  2  0  0  0  0
 37 51  1  0  0  0  0
 37 73  1  0  0  0  0
 37 78  2  0  0  0  0
 38 61  1  0  0  0  0
 38 67  1  0  0  0  0
 38 79  2  0  0  0  0
 39 62  1  0  0  0  0
 39 74  1  0  0  0  0
 39 80  2  0  0  0  0
 40 68  1  0  0  0  0
 40 72  1  0  0  0  0
 40 81  2  0  0  0  0
 41 44  1  0  0  0  0
 42 51  1  0  0  0  0
 43 67  1  0  0  0  0
 44 46  1  0  0  0  0
 45 47  1  0  0  0  0
 45 48  1  0  0  0  0
 46 50  1  0  0  0  0
 47 52  1  0  0  0  0
 48 68  1  0  0  0  0
 49 52  1  0  0  0  0
 49 68  1  0  0  0  0
 50 73  1  0  0  0  0
 51 67  1  0  0  0  0
 52 66  1  0  0  0  0
 53 60  1  0  0  0  0
 54 62  1  0  0  0  0
 55 63  1  0  0  0  0
 56 63  1  0  0  0  0
 57 63  1  0  0  0  0
 58 75  1  0  0  0  0
 59 60  1  0  0  0  0
 59 84  1  0  0  0  0
 61 63  1  0  0  0  0
 61 74  1  0  0  0  0
 62 75  1  0  0  0  0
 64 66  1  0  0  0  0
M  CHG  1  75   1
M  ISO  4  40 100  59 101  72 100  84 101
M  END
> <Batch ID>
0111

> <Smiles>
CNC(C)C(=O)NC(C(=O)N1Cc2cc([101O:1][101CH2:1]C(C)=CNc3cc([100NH:0][100C:0](=O)N4CCCC(n5nc(-c6ccc(Oc7ccc(F)cc7F)cc6)c(C(N)=O)c5N)C4)cc(C(N)=O)c3O)ccc2CC1C(=O)NC1CCCc2ccccc21)C(C)(C)C

> <Shape>
0.273

> <Color>
0.054

> <Negative vol penalty>
0.000

$$$$

  -OEChem-04052301283D

 88 96  0     1  0  0  0  0  0999 V2000
  -29.8003  -34.7382   20.4184 C   0  0  0  0  0  0  0  0  0  0  0  0
  -29.7373  -33.3587   20.5873 C   0  0  0  0  0  0  0  0  0  0  0  0
  -22.8194  -10.9890   19.5176 C   0  0  0  0  0  0  0  0  0  0  0  0
  -23.3644  -10.1313   21.7096 C   0  0  0  0  0  0  0  0  0  0  0  0
  -28.8488  -35.5576   21.0242 C   0  0  0  0  0  0  0  0  0  0  0  0
  -28.7232  -32.7980   21.3630 C   0  0  0  0  0  0  0  0  0  0  0  0
  -26.6199  -28.7440   19.1753 C   0  0  0  0  0  0  0  0  0  0  0  0
  -21.8369  -10.0087   19.3783 C   0  0  0  0  0  0  0  0  0  0  0  0
  -22.3818   -9.1511   21.5703 C   0  0  0  0  0  0  0  0  0  0  0  0
  -27.3267  -27.5443   19.2450 C   0  0  0  0  0  0  0  0  0  0  0  0
  -22.0347   -6.1771   20.0001 C   0  0  0  0  0  0  0  0  0  0  0  0
  -22.3635   -4.8728   20.3693 C   0  0  0  0  0  0  0  0  0  0  0  0
  -25.9206  -26.8288   21.0698 C   0  0  0  0  0  0  0  0  0  0  0  0
  -29.5058  -18.4252   17.3287 C   0  0  0  0  0  0  0  0  0  0  0  0
  -30.3295  -19.1048   15.1616 C   0  0  0  0  0  0  0  0  0  0  0  0
  -30.3062  -16.7657   15.7658 C   0  0  0  0  0  0  0  0  0  0  0  0
  -20.5930   -4.8917   22.0131 C   0  0  0  0  0  0  0  0  0  0  0  0
  -23.5832  -11.0502   20.6832 C   0  0  0  0  0  0  0  0  0  0  0  0
  -24.4428  -13.3515   21.3709 C   0  0  0  0  0  0  0  0  0  0  0  0
  -27.8169  -35.0060   21.7998 C   0  0  0  0  0  0  0  0  0  0  0  0
  -25.5633  -29.0001   20.0610 C   0  0  0  0  0  0  0  0  0  0  0  0
  -27.7578  -33.6109   21.9808 C   0  0  0  0  0  0  0  0  0  0  0  0
  -25.2003  -28.0315   21.0076 C   0  0  0  0  0  0  0  0  0  0  0  0
  -29.7881  -19.4314   16.4049 C   0  0  0  0  0  0  0  0  0  0  0  0
  -29.7649  -17.0923   17.0091 C   0  0  0  0  0  0  0  0  0  0  0  0
  -21.6181   -9.0898   20.4047 C   0  0  0  0  0  0  0  0  0  0  0  0
  -26.9790  -26.5877   20.1942 C   0  0  0  0  0  0  0  0  0  0  0  0
  -20.9850   -6.8387   20.6374 C   0  0  0  0  0  0  0  0  0  0  0  0
  -30.5885  -17.7720   14.8420 C   0  0  0  0  0  0  0  0  0  0  0  0
  -21.6427   -4.2301   21.3758 C   0  0  0  0  0  0  0  0  0  0  0  0
  -20.2642   -6.1961   21.6439 C   0  0  0  0  0  0  0  0  0  0  0  0
  -24.5987  -12.0622   20.8275 C   0  0  0  0  0  0  0  0  0  0  0  0
  -25.6922  -13.9150   21.2817 C   0  0  0  0  0  0  0  0  0  0  0  0
  -26.4143  -17.5728   18.5910 C   0  0  0  0  0  0  0  0  0  0  0  0
  -27.1599  -16.4656   18.5017 C   0  0  0  0  0  0  0  0  0  0  0  0
  -23.2733  -13.9832   21.9084 C   0  0  0  0  0  0  0  0  0  0  0  0
  -24.9956  -31.1783   22.3053 C   0  0  0  0  0  0  0  0  0  0  0  0
  -22.0826  -29.7543   22.4004 C   0  0  0  0  0  0  0  0  0  0  0  0
  -28.9927  -21.2841   17.9139 C   0  0  0  0  0  0  0  0  0  0  0  0
  -20.1983  -26.9699   21.8146 C   0  0  0  0  0  0  0  0  0  0  0  0
  -30.2258  -14.8571   18.0024 C   0  0  0  0  0  0  0  0  0  0  0  0
  -26.8390  -35.9355   22.4738 C   0  0  0  0  0  0  0  0  0  0  0  0
  -24.7936  -30.2880   19.9552 C   0  0  0  0  0  0  0  0  0  0  0  0
  -24.0608  -28.2493   21.9681 C   0  0  0  0  0  0  0  0  0  0  0  0
  -25.5775  -35.2351   22.9723 C   0  0  0  0  0  0  0  0  0  0  0  0
  -30.1730  -11.8711   20.1684 C   0  0  0  0  0  0  0  0  0  0  0  0
  -25.9374  -33.9535   23.7171 C   0  0  0  0  0  0  0  0  0  0  0  0
  -28.6925  -11.7305   20.5183 C   0  0  0  0  0  0  0  0  0  0  0  0
  -30.3732  -12.5165   18.8004 C   0  0  0  0  0  0  0  0  0  0  0  0
  -28.2018  -13.6894   18.9993 C   0  0  0  0  0  0  0  0  0  0  0  0
  -26.6585  -32.9633   22.7945 C   0  0  1  0  0  0  0  0  0  0  0  0
  -24.0671  -30.6575   21.2449 C   0  0  1  0  0  0  0  0  0  0  0  0
  -27.9678  -13.0816   20.3906 C   0  0  1  0  0  0  0  0  0  0  0  0
  -17.8556  -26.0960   22.0278 C   0  0  0  0  0  0  0  0  0  0  0  0
  -22.4843  -29.4173   25.4063 C   0  0  0  0  0  0  0  0  0  0  0  0
  -20.6218  -27.7443   25.3972 C   0  0  0  0  0  0  0  0  0  0  0  0
  -20.1767  -30.1072   24.7331 C   0  0  0  0  0  0  0  0  0  0  0  0
  -19.9710  -26.5355   18.8960 C   0  0  0  0  0  0  0  0  0  0  0  0
  -31.3565  -16.0710   13.3679 C   0  0  0  0  0  0  0  0  0  0  0  0
  -28.5398  -16.3448   19.0578 C   0  0  0  0  0  0  0  0  0  0  0  0
  -28.8750  -22.8005   17.8475 C   0  0  0  0  0  0  0  0  0  0  0  0
  -28.2949  -23.4011   19.1233 C   0  0  0  0  0  0  0  0  0  0  0  0
  -28.2313  -24.9199   19.0514 C   0  0  0  0  0  0  0  0  0  1  0  0
  -21.4790  -28.6051   23.1712 C   0  0  1  0  0  0  0  0  0  0  0  0
  -18.8613  -26.7863   21.1196 C   0  0  2  0  0  0  0  0  0  0  0  0
  -21.2132  -28.9649   24.6602 C   0  0  0  0  0  0  0  0  0  0  0  0
  -25.8485  -11.8208   20.4229 N   0  0  0  0  0  0  0  0  0  0  0  0
  -26.4893  -12.9661   20.7121 N   0  0  0  0  0  0  0  0  0  0  0  0
  -23.3427  -29.5271   21.8293 N   0  0  0  0  0  0  0  0  0  0  0  0
  -29.6372  -13.7765   18.6896 N   0  0  0  0  0  0  0  0  0  0  0  0
  -26.1757  -15.1247   21.6356 N   0  0  0  0  0  0  0  0  0  0  0  0
  -22.0718  -13.2618   21.9240 N   0  0  0  0  0  0  0  0  0  0  0  0
  -29.5259  -20.7837   16.7294 N   0  0  0  0  0  0  0  0  0  0  0  0
  -25.7101  -32.2987   21.9265 N   0  0  0  0  0  0  0  0  0  0  0  0
  -20.2881  -28.1992   22.4328 N   0  0  0  0  0  0  0  0  0  0  0  0
  -29.4722  -16.0502   17.9647 N   0  0  0  0  0  0  0  0  0  0  0  0
  -19.0261  -25.9623   19.8888 N   0  3  0  0  0  0  0  0  0  0  0  0
  -23.2895  -15.1586   22.3463 O   0  0  0  0  0  0  0  0  0  0  0  0
  -25.0579  -30.6068   23.3875 O   0  0  0  0  0  0  0  0  0  0  0  0
  -21.4558  -30.8122   22.3025 O   0  0  0  0  0  0  0  0  0  0  0  0
  -28.6477  -20.6470   18.9035 O   0  0  0  0  0  0  0  0  0  0  0  0
  -21.0740  -26.1075   21.8128 O   0  0  0  0  0  0  0  0  0  0  0  0
  -31.3480  -14.7707   17.4896 O   0  0  0  0  0  0  0  0  0  0  0  0
  -20.6593   -8.1333   20.2692 O   0  0  0  0  0  0  0  0  0  0  0  0
  -31.1168  -17.4531   13.6288 O   0  0  0  0  0  0  0  0  0  0  0  0
  -27.6677  -25.4161   20.2649 O   0  0  0  0  0  0  0  0  0  1  0  0
  -21.9576   -2.9771   21.7292 F   0  0  0  0  0  0  0  0  0  0  0  0
  -19.2540   -6.8262   22.2590 F   0  0  0  0  0  0  0  0  0  0  0  0
  1  2  1  0  0  0  0
  1  5  2  0  0  0  0
  2  6  2  0  0  0  0
  3  8  2  0  0  0  0
  3 18  1  0  0  0  0
  4  9  1  0  0  0  0
  4 18  2  0  0  0  0
  5 20  1  0  0  0  0
  6 22  1  0  0  0  0
  7 10  2  0  0  0  0
  7 21  1  0  0  0  0
  8 26  1  0  0  0  0
  9 26  2  0  0  0  0
 10 27  1  0  0  0  0
 11 12  2  0  0  0  0
 11 28  1  0  0  0  0
 12 30  1  0  0  0  0
 13 23  1  0  0  0  0
 13 27  2  0  0  0  0
 14 24  2  0  0  0  0
 14 25  1  0  0  0  0
 15 24  1  0  0  0  0
 15 29  2  0  0  0  0
 16 25  2  0  0  0  0
 16 29  1  0  0  0  0
 17 30  2  0  0  0  0
 17 31  1  0  0  0  0
 18 32  1  0  0  0  0
 19 32  1  0  0  0  0
 19 33  2  0  0  0  0
 19 36  1  0  0  0  0
 20 22  2  0  0  0  0
 20 42  1  0  0  0  0
 21 23  2  0  0  0  0
 21 43  1  0  0  0  0
 22 51  1  0  0  0  0
 23 44  1  0  0  0  0
 24 73  1  0  0  0  0
 25 76  1  0  0  0  0
 26 84  1  0  0  0  0
 27 86  1  0  0  0  0
 28 31  2  0  0  0  0
 28 84  1  0  0  0  0
 29 85  1  0  0  0  0
 30 87  1  0  0  0  0
 31 88  1  0  0  0  0
 32 67  2  0  0  0  0
 33 68  1  0  0  0  0
 33 71  1  0  0  0  0
 34 35  2  0  0  0  0
 35 60  1  0  0  0  0
 36 72  1  0  0  0  0
 36 78  2  0  0  0  0
 37 52  1  0  0  0  0
 37 74  1  0  0  0  0
 37 79  2  0  0  0  0
 38 64  1  0  0  0  0
 38 69  1  0  0  0  0
 38 80  2  0  0  0  0
 39 61  1  0  0  0  0
 39 73  1  0  0  0  0
 39 81  2  0  0  0  0
 40 65  1  0  0  0  0
 40 75  1  0  0  0  0
 40 82  2  0  0  0  0
 41 70  1  0  0  0  0
 41 76  1  0  0  0  0
 41 83  2  0  0  0  0
 42 45  1  0  0  0  0
 43 52  1  0  0  0  0
 44 69  1  0  0  0  0
 45 47  1  0  0  0  0
 46 48  1  0  0  0  0
 46 49  1  0  0  0  0
 47 51  1  0  0  0  0
 48 53  1  0  0  0  0
 49 70  1  0  0  0  0
 50 53  1  0  0  0  0
 50 70  1  0  0  0  0
 51 74  1  0  0  0  0
 52 69  1  0  0  0  0
 53 68  1  0  0  0  0
 54 65  1  0  0  0  0
 55 66  1  0  0  0  0
 56 66  1  0  0  0  0
 57 66  1  0  0  0  0
 58 77  1  0  0  0  0
 59 85  1  0  0  0  0
 60 76  1  0  0  0  0
 61 62  1  0  0  0  0
 62 63  1  0  0  0  0
 63 86  1  0  0  0  0
 64 66  1  0  0  0  0
 64 75  1  0  0  0  0
 65 77  1  0  0  0  0
 67 68  1  0  0  0  0
M  CHG  1  77   1
M  ISO  4  41 100  63 101  76 100  86 101
M  END
> <Batch ID>
0111

> <Smiles>
C=CC[100N:0](c1cc(NC(=O)CC[101CH2:1][101O:1]c2ccc3c(c2)CN(C(=O)C(NC(=O)C(C)NC)C(C)(C)C)C(C(=O)NC2CCCc4ccccc42)C3)cc(OC)c1)[100C:0](=O)N1CCCC(n2nc(-c3ccc(Oc4ccc(F)cc4F)cc3)c(C(N)=O)c2N)C1

> <Shape>
0.309

> <Color>
0.113

> <Negative vol penalty>
0.000

$$$$

  -OEChem-04052301283D

 79 87  0     1  0  0  0  0  0999 V2000
  -17.4498  -32.4435   22.8790 C   0  0  0  0  0  0  0  0  0  0  0  0
  -18.7870  -32.8198   22.8028 C   0  0  0  0  0  0  0  0  0  0  0  0
  -27.8502  -17.7070   20.1923 C   0  0  0  0  0  0  0  0  0  0  0  0
  -29.3457  -18.0800   22.0528 C   0  0  0  0  0  0  0  0  0  0  0  0
  -17.1141  -31.1262   23.1886 C   0  0  0  0  0  0  0  0  0  0  0  0
  -19.7893  -31.8790   23.0372 C   0  0  0  0  0  0  0  0  0  0  0  0
  -26.4438  -30.1849   20.9966 C   0  0  0  0  0  0  0  0  0  0  0  0
  -27.8603  -16.3379   20.4586 C   0  0  0  0  0  0  0  0  0  0  0  0
  -29.3558  -16.7108   22.3191 C   0  0  0  0  0  0  0  0  0  0  0  0
  -27.6989  -29.9092   21.5374 C   0  0  0  0  0  0  0  0  0  0  0  0
  -29.9149  -13.7099   19.9137 C   0  0  0  0  0  0  0  0  0  0  0  0
  -30.0660  -12.8413   18.8329 C   0  0  0  0  0  0  0  0  0  0  0  0
  -27.0012  -27.6441   21.9862 C   0  0  0  0  0  0  0  0  0  0  0  0
  -27.9307  -11.8334   19.3445 C   0  0  0  0  0  0  0  0  0  0  0  0
  -28.5930  -18.5781   20.9893 C   0  0  0  0  0  0  0  0  0  0  0  0
  -27.6964  -20.9537   21.2350 C   0  0  0  0  0  0  0  0  0  0  0  0
  -18.1128  -30.1666   23.4175 C   0  0  0  0  0  0  0  0  0  0  0  0
  -25.4527  -29.1937   20.9564 C   0  0  0  0  0  0  0  0  0  0  0  0
  -19.4665  -30.5480   23.3515 C   0  0  0  0  0  0  0  0  0  0  0  0
  -25.7352  -27.9090   21.4421 C   0  0  0  0  0  0  0  0  0  0  0  0
  -28.6131  -15.8398   21.5220 C   0  0  0  0  0  0  0  0  0  0  0  0
  -27.9768  -28.6395   22.0349 C   0  0  0  0  0  0  0  0  0  0  0  0
  -28.7718  -13.6403   20.7100 C   0  0  0  0  0  0  0  0  0  0  0  0
  -29.0739  -11.9031   18.5482 C   0  0  0  0  0  0  0  0  0  0  0  0
  -27.7797  -12.7020   20.4254 C   0  0  0  0  0  0  0  0  0  0  0  0
  -28.5834  -19.9924   20.7144 C   0  0  0  0  0  0  0  0  0  0  0  0
  -28.1039  -22.1379   20.6711 C   0  0  0  0  0  0  0  0  0  0  0  0
  -33.2688  -26.4895   20.9820 C   0  0  0  0  0  0  0  0  0  0  0  0
  -26.6020  -20.7906   22.1468 C   0  0  0  0  0  0  0  0  0  0  0  0
  -33.0336  -24.7883   19.0951 C   0  0  0  0  0  0  0  0  0  0  0  0
  -22.5567  -28.8645   22.2247 C   0  0  0  0  0  0  0  0  0  0  0  0
  -22.4845  -26.1889   20.3922 C   0  0  0  0  0  0  0  0  0  0  0  0
  -24.2229  -23.7516   18.7538 C   0  0  0  0  0  0  0  0  0  0  0  0
  -30.1412  -27.8908   21.6314 C   0  0  0  0  0  0  0  0  0  1  0  0
  -17.7007  -28.7659   23.7954 C   0  0  0  0  0  0  0  0  0  0  0  0
  -24.1127  -29.4994   20.3454 C   0  0  0  0  0  0  0  0  0  0  0  0
  -24.7124  -26.8041   21.4037 C   0  0  0  0  0  0  0  0  0  0  0  0
  -18.8258  -27.7429   23.6615 C   0  0  0  0  0  0  0  0  0  0  0  0
  -30.7429  -23.3896   16.6935 C   0  0  0  0  0  0  0  0  0  0  0  0
  -20.1104  -28.2773   24.2870 C   0  0  0  0  0  0  0  0  0  0  0  0
  -29.8903  -22.4368   17.5303 C   0  0  0  0  0  0  0  0  0  0  0  0
  -32.1837  -23.4346   17.1926 C   0  0  0  0  0  0  0  0  0  0  0  0
  -31.4593  -22.8296   19.4820 C   0  0  0  0  0  0  0  0  0  0  0  0
  -31.7218  -25.2061   21.3717 C   0  0  0  0  0  0  0  0  0  0  0  0
  -20.5826  -29.5506   23.5748 C   0  0  1  0  0  0  0  0  0  0  0  0
  -23.0094  -28.5610   20.8245 C   0  0  1  0  0  0  0  0  0  0  0  0
  -29.9899  -22.7779   19.0277 C   0  0  2  0  0  0  0  0  0  0  0  0
  -33.0392  -25.0404   20.6111 C   0  0  2  0  0  0  0  0  0  0  0  0
  -23.8886  -21.6799   17.3777 C   0  0  0  0  0  0  0  0  0  0  0  0
  -21.7699  -24.6305   22.9163 C   0  0  0  0  0  0  0  0  0  0  0  0
  -22.3791  -22.5256   21.7053 C   0  0  0  0  0  0  0  0  0  0  0  0
  -20.5032  -23.9433   20.8723 C   0  0  0  0  0  0  0  0  0  0  0  0
  -25.6119  -24.9350   16.4238 C   0  0  0  0  0  0  0  0  0  0  0  0
  -31.4441  -27.6285   22.3279 C   0  0  0  0  0  0  0  0  0  0  0  0
  -22.8838  -24.7465   20.5900 C   0  0  1  0  0  0  0  0  0  0  0  0
  -24.0873  -23.1874   17.3511 C   0  0  2  0  0  0  0  0  0  0  0  0
  -21.9029  -23.9826   21.5236 C   0  0  0  0  0  0  0  0  0  0  0  0
  -29.4862  -20.5204   19.8836 N   0  0  0  0  0  0  0  0  0  0  0  0
  -29.1685  -21.8262   19.8777 N   0  0  0  0  0  0  0  0  0  0  0  0
  -32.1289  -26.5686   21.6050 N   0  0  0  0  0  0  0  0  0  0  0  0
  -32.2378  -23.7321   18.6249 N   0  0  0  0  0  0  0  0  0  0  0  0
  -23.4150  -27.1541   20.8024 N   0  0  0  0  0  0  0  0  0  0  0  0
  -27.6517  -23.4051   20.7815 N   0  0  0  0  0  0  0  0  0  0  0  0
  -26.3205  -19.5054   22.6297 N   0  0  0  0  0  0  0  0  0  0  0  0
  -21.2248  -29.2198   22.3208 N   0  0  0  0  0  0  0  0  0  0  0  0
  -23.0088  -24.1709   19.2553 N   0  0  0  0  0  0  0  0  0  0  0  0
  -34.2777  -27.2884   20.7262 N   0  3  0  0  0  0  0  0  0  0  0  0
  -33.9842  -24.1221   21.2564 N   0  3  0  0  0  0  0  0  0  0  0  0
  -25.3093  -23.4863   16.5521 N   0  3  0  0  0  0  0  0  0  0  0  0
  -25.8844  -21.7535   22.5094 O   0  0  0  0  0  0  0  0  0  0  0  0
  -33.7106  -25.5006   18.3383 O   0  0  0  0  0  0  0  0  0  0  0  0
  -23.3562  -28.7809   23.1497 O   0  0  0  0  0  0  0  0  0  0  0  0
  -21.3903  -26.4494   19.8857 O   0  0  0  0  0  0  0  0  0  0  0  0
  -25.2977  -23.8107   19.3470 O   0  0  0  0  0  0  0  0  0  0  0  0
  -29.9275  -27.7184   20.4389 O   0  0  0  0  0  0  0  0  0  0  0  0
  -28.6230  -14.5038   21.7823 O   0  0  0  0  0  0  0  0  0  0  0  0
  -29.2009  -28.3679   22.5639 O   0  0  0  0  0  0  0  0  0  1  0  0
  -29.2184  -11.0701   17.5093 F   0  0  0  0  0  0  0  0  0  0  0  0
  -26.6787  -12.6311   21.1861 F   0  0  0  0  0  0  0  0  0  0  0  0
  1  2  1  0  0  0  0
  1  5  2  0  0  0  0
  2  6  2  0  0  0  0
  3  8  2  0  0  0  0
  3 15  1  0  0  0  0
  4  9  1  0  0  0  0
  4 15  2  0  0  0  0
  5 17  1  0  0  0  0
  6 19  1  0  0  0  0
  7 10  2  0  0  0  0
  7 18  1  0  0  0  0
  8 21  1  0  0  0  0
  9 21  2  0  0  0  0
 10 22  1  0  0  0  0
 11 12  2  0  0  0  0
 11 23  1  0  0  0  0
 12 24  1  0  0  0  0
 13 20  1  0  0  0  0
 13 22  2  0  0  0  0
 14 24  2  0  0  0  0
 14 25  1  0  0  0  0
 15 26  1  0  0  0  0
 16 26  1  0  0  0  0
 16 27  2  0  0  0  0
 16 29  1  0  0  0  0
 17 19  2  0  0  0  0
 17 35  1  0  0  0  0
 18 20  2  0  0  0  0
 18 36  1  0  0  0  0
 19 45  1  0  0  0  0
 20 37  1  0  0  0  0
 21 76  1  0  0  0  0
 22 77  1  0  0  0  0
 23 25  2  0  0  0  0
 23 76  1  0  0  0  0
 24 78  1  0  0  0  0
 25 79  1  0  0  0  0
 26 58  2  0  0  0  0
 27 59  1  0  0  0  0
 27 63  1  0  0  0  0
 28 48  1  0  0  0  0
 28 60  1  0  0  0  0
 28 67  2  0  0  0  0
 29 64  1  0  0  0  0
 29 70  2  0  0  0  0
 30 48  1  0  0  0  0
 30 61  1  0  0  0  0
 30 71  2  0  0  0  0
 31 46  1  0  0  0  0
 31 65  1  0  0  0  0
 31 72  2  0  0  0  0
 32 55  1  0  0  0  0
 32 62  1  0  0  0  0
 32 73  2  0  0  0  0
 33 56  1  0  0  0  0
 33 66  1  0  0  0  0
 33 74  2  0  0  0  0
 34 54  1  0  0  0  0
 34 75  2  0  0  0  0
 34 77  1  0  0  0  0
 35 38  1  0  0  0  0
 36 46  1  0  0  0  0
 37 62  1  0  0  0  0
 38 40  1  0  0  0  0
 39 41  1  0  0  0  0
 39 42  1  0  0  0  0
 40 45  1  0  0  0  0
 41 47  1  0  0  0  0
 42 61  1  0  0  0  0
 43 47  1  0  0  0  0
 43 61  1  0  0  0  0
 44 48  1  0  0  0  0
 44 60  1  0  0  0  0
 45 65  1  0  0  0  0
 46 62  1  0  0  0  0
 47 59  1  0  0  0  0
 48 68  1  0  0  0  0
 49 56  1  0  0  0  0
 50 57  1  0  0  0  0
 51 57  1  0  0  0  0
 52 57  1  0  0  0  0
 53 69  1  0  0  0  0
 54 60  1  0  0  0  0
 55 57  1  0  0  0  0
 55 66  1  0  0  0  0
 56 69  1  0  0  0  0
 58 59  1  0  0  0  0
M  CHG  3  67   1  68   1  69   1
M  ISO  4  30 100  34 101  48 100  77 101
M  END
> <Batch ID>
0111

> <Smiles>
CNC(C)C(=O)NC(C(=O)N1Cc2cc([101O:1][101C:1](=O)CN3C[100C:0](N)([100C:0](=O)N4CCCC(n5nc(-c6ccc(Oc7ccc(F)cc7F)cc6)c(C(N)=O)c5N)C4)C3=N)ccc2CC1C(=O)NC1CCCc2ccccc21)C(C)(C)C

> <Shape>
0.239

> <Color>
0.080

> <Negative vol penalty>
0.000

$$$$

  -OEChem-04052301283D

 85 93  0     1  0  0  0  0  0999 V2000
  -24.8701  -20.4953   14.6355 C   0  0  0  0  0  0  0  0  0  0  0  0
  -25.9610  -19.9036   15.2642 C   0  0  0  0  0  0  0  0  0  0  0  0
  -24.0804  -28.7916   21.2592 C   0  0  0  0  0  0  0  0  0  0  0  0
  -25.0361  -27.5835   23.1205 C   0  0  0  0  0  0  0  0  0  0  0  0
  -23.6483  -20.5862   15.3011 C   0  0  0  0  0  0  0  0  0  0  0  0
  -25.8311  -19.4034   16.5593 C   0  0  0  0  0  0  0  0  0  0  0  0
  -28.6094  -14.4716   18.8969 C   0  0  0  0  0  0  0  0  0  0  0  0
  -22.8899  -28.9446   21.9698 C   0  0  0  0  0  0  0  0  0  0  0  0
  -23.8456  -27.7365   23.8311 C   0  0  0  0  0  0  0  0  0  0  0  0
  -29.7441  -14.3236   19.6933 C   0  0  0  0  0  0  0  0  0  0  0  0
  -19.4752  -29.3407   23.1559 C   0  0  0  0  0  0  0  0  0  0  0  0
  -18.2792  -29.0998   22.4799 C   0  0  0  0  0  0  0  0  0  0  0  0
  -28.3472  -14.2432   21.6583 C   0  0  0  0  0  0  0  0  0  0  0  0
  -30.2643  -20.0762   22.6845 C   0  0  0  0  0  0  0  0  0  0  0  0
  -29.7546  -20.0065   19.9426 C   0  0  0  0  0  0  0  0  0  0  0  0
  -18.9813  -26.8290   22.0469 C   0  0  0  0  0  0  0  0  0  0  0  0
  -25.1535  -28.1110   21.8345 C   0  0  0  0  0  0  0  0  0  0  0  0
  -27.4899  -28.8225   21.0978 C   0  0  0  0  0  0  0  0  0  0  0  0
  -23.5007  -20.0781   16.6014 C   0  0  0  0  0  0  0  0  0  0  0  0
  -27.3336  -14.5176   19.4773 C   0  0  0  0  0  0  0  0  0  0  0  0
  -24.6066  -19.4888   17.2434 C   0  0  0  0  0  0  0  0  0  0  0  0
  -27.1977  -14.3893   20.8669 C   0  0  0  0  0  0  0  0  0  0  0  0
  -30.2412  -18.8554   22.0104 C   0  0  0  0  0  0  0  0  0  0  0  0
  -29.7777  -21.2273   20.6169 C   0  0  0  0  0  0  0  0  0  0  0  0
  -22.7725  -28.4170   23.2557 C   0  0  0  0  0  0  0  0  0  0  0  0
  -29.6134  -14.2122   21.0744 C   0  0  0  0  0  0  0  0  0  0  0  0
  -20.4244  -28.3258   23.2774 C   0  0  0  0  0  0  0  0  0  0  0  0
  -29.9864  -18.8205   20.6394 C   0  0  0  0  0  0  0  0  0  0  0  0
  -18.0322  -27.8439   21.9254 C   0  0  0  0  0  0  0  0  0  0  0  0
  -30.0325  -21.2622   21.9878 C   0  0  0  0  0  0  0  0  0  0  0  0
  -20.1774  -27.0699   22.7229 C   0  0  0  0  0  0  0  0  0  0  0  0
  -26.3833  -27.9522   21.1008 C   0  0  0  0  0  0  0  0  0  0  0  0
  -28.3920  -28.2279   20.2497 C   0  0  0  0  0  0  0  0  0  0  0  0
  -31.7113  -17.2907   22.7947 C   0  0  0  0  0  0  0  0  0  0  0  0
  -27.6849  -30.0578   21.7989 C   0  0  0  0  0  0  0  0  0  0  0  0
  -25.0052  -16.6774   19.6078 C   0  0  0  0  0  0  0  0  0  0  0  0
  -23.3791  -14.2662   21.0446 C   0  0  0  0  0  0  0  0  0  0  0  0
  -23.4871  -11.3538   22.8203 C   0  0  0  0  0  0  0  0  0  0  0  0
  -29.2752  -22.5694   18.5450 C   0  0  0  0  0  0  0  0  0  0  0  0
  -22.1733  -20.2418   17.2984 C   0  0  0  0  0  0  0  0  0  0  0  0
  -26.1176  -14.6509   18.6021 C   0  0  0  0  0  0  0  0  0  0  0  0
  -25.8492  -14.4123   21.5373 C   0  0  0  0  0  0  0  0  0  0  0  0
  -22.0171  -19.3509   18.5281 C   0  0  0  0  0  0  0  0  0  0  0  0
  -28.6037  -25.3513   16.4268 C   0  0  0  0  0  0  0  0  0  0  0  0
  -23.2674  -19.4195   19.3992 C   0  0  0  0  0  0  0  0  0  0  0  0
  -28.0645  -26.4153   17.3856 C   0  0  0  0  0  0  0  0  0  0  0  0
  -28.1407  -23.9489   16.8173 C   0  0  0  0  0  0  0  0  0  0  0  0
  -27.8743  -24.6343   19.1686 C   0  0  0  0  0  0  0  0  0  0  0  0
  -24.4984  -18.9122   18.6384 C   0  0  1  0  0  0  0  0  0  0  0  0
  -24.9042  -15.2015   19.3449 C   0  0  1  0  0  0  0  0  0  0  0  0
  -28.3670  -26.0562   18.8537 C   0  0  2  0  0  0  0  0  0  0  0  0
  -21.9957   -9.6377   23.8823 C   0  0  0  0  0  0  0  0  0  0  0  0
  -22.8078  -16.1891   23.3437 C   0  0  0  0  0  0  0  0  0  0  0  0
  -22.1742  -14.2142   24.7459 C   0  0  0  0  0  0  0  0  0  0  0  0
  -20.8738  -14.7469   22.6849 C   0  0  0  0  0  0  0  0  0  0  0  0
  -24.5517   -9.1944   21.0991 C   0  0  0  0  0  0  0  0  0  0  0  0
  -29.6914  -17.6926   18.5665 C   0  0  0  0  0  0  0  0  0  0  0  0
  -32.0837  -16.0269   23.5208 C   0  0  0  0  0  0  0  0  0  0  0  0
  -32.7839  -15.0487   22.5854 C   0  0  0  0  0  0  0  0  0  0  0  0
  -31.9274  -14.6654   21.3844 C   0  0  0  0  0  0  0  0  0  1  0  0
  -23.2052  -13.7932   22.4676 C   0  0  1  0  0  0  0  0  0  0  0  0
  -22.7657  -10.0316   22.6314 C   0  0  2  0  0  0  0  0  0  0  0  0
  -22.2909  -14.7373   23.2984 C   0  0  0  0  0  0  0  0  0  0  0  0
  -26.5637  -26.8860   20.3168 N   0  0  0  0  0  0  0  0  0  0  0  0
  -30.4768  -17.6684   22.7241 N   0  0  0  0  0  0  0  0  0  0  0  0
  -27.7941  -27.0825   19.8131 N   0  0  0  0  0  0  0  0  0  0  0  0
  -24.6908  -14.5509   20.6393 N   0  0  0  0  0  0  0  0  0  0  0  0
  -28.4645  -23.6773   18.2196 N   0  0  0  0  0  0  0  0  0  0  0  0
  -29.6303  -28.5784   19.8423 N   0  0  0  0  0  0  0  0  0  0  0  0
  -26.6565  -30.5245   22.6289 N   0  0  0  0  0  0  0  0  0  0  0  0
  -29.5425  -22.4306   19.9066 N   0  0  0  0  0  0  0  0  0  0  0  0
  -24.5023  -17.4658   18.5904 N   0  0  0  0  0  0  0  0  0  0  0  0
  -22.7258  -12.4178   22.3848 N   0  0  0  0  0  0  0  0  0  0  0  0
  -23.7414   -8.9490   22.3198 N   0  3  0  0  0  0  0  0  0  0  0  0
  -28.7333  -30.7362   21.6797 O   0  0  0  0  0  0  0  0  0  0  0  0
  -25.5012  -17.0718   20.6567 O   0  0  0  0  0  0  0  0  0  0  0  0
  -22.3885  -14.3722   20.3172 O   0  0  0  0  0  0  0  0  0  0  0  0
  -24.6119  -11.4351   23.3089 O   0  0  0  0  0  0  0  0  0  0  0  0
  -29.7235  -21.8160   17.6769 O   0  0  0  0  0  0  0  0  0  0  0  0
  -21.6110  -28.5663   23.9495 O   0  0  0  0  0  0  0  0  0  0  0  0
  -29.9593  -17.6361   19.9661 O   0  0  0  0  0  0  0  0  0  0  0  0
  -30.7194  -14.0683   21.8541 O   0  0  0  0  0  0  0  0  0  1  0  0
  -16.8829  -27.6123   21.2777 F   0  0  0  0  0  0  0  0  0  0  0  0
  -30.0569  -22.4301   22.6458 F   0  0  0  0  0  0  0  0  0  0  0  0
  -21.0850  -26.0906   22.8374 F   0  0  0  0  0  0  0  0  0  0  0  0
  1  2  1  0  0  0  0
  1  5  2  0  0  0  0
  2  6  2  0  0  0  0
  3  8  2  0  0  0  0
  3 17  1  0  0  0  0
  4  9  1  0  0  0  0
  4 17  2  0  0  0  0
  5 19  1  0  0  0  0
  6 21  1  0  0  0  0
  7 10  2  0  0  0  0
  7 20  1  0  0  0  0
  8 25  1  0  0  0  0
  9 25  2  0  0  0  0
 10 26  1  0  0  0  0
 11 12  2  0  0  0  0
 11 27  1  0  0  0  0
 12 29  1  0  0  0  0
 13 22  1  0  0  0  0
 13 26  2  0  0  0  0
 14 23  1  0  0  0  0
 14 30  2  0  0  0  0
 15 24  2  0  0  0  0
 15 28  1  0  0  0  0
 16 29  2  0  0  0  0
 16 31  1  0  0  0  0
 17 32  1  0  0  0  0
 18 32  1  0  0  0  0
 18 33  2  0  0  0  0
 18 35  1  0  0  0  0
 19 21  2  0  0  0  0
 19 40  1  0  0  0  0
 20 22  2  0  0  0  0
 20 41  1  0  0  0  0
 21 49  1  0  0  0  0
 22 42  1  0  0  0  0
 23 28  2  0  0  0  0
 23 65  1  0  0  0  0
 24 30  1  0  0  0  0
 24 71  1  0  0  0  0
 25 80  1  0  0  0  0
 26 82  1  0  0  0  0
 27 31  2  0  0  0  0
 27 80  1  0  0  0  0
 28 81  1  0  0  0  0
 29 83  1  0  0  0  0
 30 84  1  0  0  0  0
 31 85  1  0  0  0  0
 32 64  2  0  0  0  0
 33 66  1  0  0  0  0
 33 69  1  0  0  0  0
 34 58  1  0  0  0  0
 34 65  2  0  0  0  0
 35 70  1  0  0  0  0
 35 75  2  0  0  0  0
 36 50  1  0  0  0  0
 36 72  1  0  0  0  0
 36 76  2  0  0  0  0
 37 61  1  0  0  0  0
 37 67  1  0  0  0  0
 37 77  2  0  0  0  0
 38 62  1  0  0  0  0
 38 73  1  0  0  0  0
 38 78  2  0  0  0  0
 39 68  1  0  0  0  0
 39 71  1  0  0  0  0
 39 79  2  0  0  0  0
 40 43  1  0  0  0  0
 41 50  1  0  0  0  0
 42 67  1  0  0  0  0
 43 45  1  0  0  0  0
 44 46  1  0  0  0  0
 44 47  1  0  0  0  0
 45 49  1  0  0  0  0
 46 51  1  0  0  0  0
 47 68  1  0  0  0  0
 48 51  1  0  0  0  0
 48 68  1  0  0  0  0
 49 72  1  0  0  0  0
 50 67  1  0  0  0  0
 51 66  1  0  0  0  0
 52 62  1  0  0  0  0
 53 63  1  0  0  0  0
 54 63  1  0  0  0  0
 55 63  1  0  0  0  0
 56 74  1  0  0  0  0
 57 81  1  0  0  0  0
 58 59  1  0  0  0  0
 59 60  1  0  0  0  0
 60 82  1  0  0  0  0
 61 63  1  0  0  0  0
 61 73  1  0  0  0  0
 62 74  1  0  0  0  0
 64 66  1  0  0  0  0
M  CHG  1  74   1
M  ISO  4  39 100  60 101  71 100  82 101
M  END
> <Batch ID>
0111

> <Smiles>
CNC(C)C(=O)NC(C(=O)N1Cc2cc([101O:1][101CH2:1]CC=CNc3cc(F)c([100NH:0][100C:0](=O)N4CCCC(n5nc(-c6ccc(Oc7ccc(F)cc7F)cc6)c(C(N)=O)c5N)C4)cc3OC)ccc2CC1C(=O)NC1CCCc2ccccc21)C(C)(C)C

> <Shape>
0.270

> <Color>
0.063

> <Negative vol penalty>
0.000

$$$$

  -OEChem-04052301283D

 86 94  0     1  0  0  0  0  0999 V2000
  -28.2914  -24.1211   18.3175 C   0  0  0  0  0  0  0  0  0  0  0  0
  -28.4237  -23.4006   19.5002 C   0  0  0  0  0  0  0  0  0  0  0  0
  -23.2827   -9.7893   19.9128 C   0  0  0  0  0  0  0  0  0  0  0  0
  -23.7358   -9.9303   22.2817 C   0  0  0  0  0  0  0  0  0  0  0  0
  -28.8174  -23.6129   17.1305 C   0  0  0  0  0  0  0  0  0  0  0  0
  -29.0811  -22.1709   19.4964 C   0  0  0  0  0  0  0  0  0  0  0  0
  -32.5670  -19.8458   23.9627 C   0  0  0  0  0  0  0  0  0  0  0  0
  -22.5614   -8.6137   20.1206 C   0  0  0  0  0  0  0  0  0  0  0  0
  -23.0144   -8.7547   22.4896 C   0  0  0  0  0  0  0  0  0  0  0  0
  -32.3037  -18.9229   24.9739 C   0  0  0  0  0  0  0  0  0  0  0  0
  -19.7714   -7.8302   22.7104 C   0  0  0  0  0  0  0  0  0  0  0  0
  -18.8704   -7.8042   23.7749 C   0  0  0  0  0  0  0  0  0  0  0  0
  -30.8771  -12.6132   25.1040 C   0  0  0  0  0  0  0  0  0  0  0  0
  -33.0025  -11.9892   26.0683 C   0  0  0  0  0  0  0  0  0  0  0  0
  -33.2131  -17.1635   23.5967 C   0  0  0  0  0  0  0  0  0  0  0  0
  -32.8036  -12.2987   23.6805 C   0  0  0  0  0  0  0  0  0  0  0  0
  -20.0849   -5.9613   24.7577 C   0  0  0  0  0  0  0  0  0  0  0  0
  -23.8700  -10.4476   20.9933 C   0  0  0  0  0  0  0  0  0  0  0  0
  -31.6518  -12.3020   26.2214 C   0  0  0  0  0  0  0  0  0  0  0  0
  -24.1188  -12.9787   20.7960 C   0  0  0  0  0  0  0  0  0  0  0  0
  -29.4900  -22.3809   17.1139 C   0  0  0  0  0  0  0  0  0  0  0  0
  -33.1463  -19.4320   22.7546 C   0  0  0  0  0  0  0  0  0  0  0  0
  -29.6153  -21.6451   18.3078 C   0  0  0  0  0  0  0  0  0  0  0  0
  -33.4851  -18.0836   22.5727 C   0  0  0  0  0  0  0  0  0  0  0  0
  -31.4529  -12.6115   23.8336 C   0  0  0  0  0  0  0  0  0  0  0  0
  -22.4272   -8.0964   21.4091 C   0  0  0  0  0  0  0  0  0  0  0  0
  -32.6241  -17.5810   24.7899 C   0  0  0  0  0  0  0  0  0  0  0  0
  -20.8291   -6.9217   22.6695 C   0  0  0  0  0  0  0  0  0  0  0  0
  -33.5785  -11.9876   24.7978 C   0  0  0  0  0  0  0  0  0  0  0  0
  -19.0272   -6.8698   24.7985 C   0  0  0  0  0  0  0  0  0  0  0  0
  -20.9859   -5.9873   23.6931 C   0  0  0  0  0  0  0  0  0  0  0  0
  -24.6157  -11.6617   20.7791 C   0  0  0  0  0  0  0  0  0  0  0  0
  -25.2168  -13.7633   20.5401 C   0  0  0  0  0  0  0  0  0  0  0  0
  -31.0452  -12.3047   27.5620 C   0  0  0  0  0  0  0  0  0  0  0  0
  -22.7841  -13.4508   21.0227 C   0  0  0  0  0  0  0  0  0  0  0  0
  -32.2374  -19.4508   19.7087 C   0  0  0  0  0  0  0  0  0  0  0  0
  -35.2665  -18.4059   19.2036 C   0  0  0  0  0  0  0  0  0  0  0  0
  -38.0345  -16.8383   20.4396 C   0  0  0  0  0  0  0  0  0  0  0  0
  -31.0814  -12.9723   21.3682 C   0  0  0  0  0  0  0  0  0  0  0  0
  -30.0003  -21.8501   15.7976 C   0  0  0  0  0  0  0  0  0  0  0  0
  -33.4486  -20.4444   21.6840 C   0  0  0  0  0  0  0  0  0  0  0  0
  -34.1271  -17.5916   21.3021 C   0  0  0  0  0  0  0  0  0  0  0  0
  -31.0105  -20.7156   15.9488 C   0  0  0  0  0  0  0  0  0  0  0  0
  -29.4413  -13.6720   18.2864 C   0  0  0  0  0  0  0  0  0  0  0  0
  -30.5125  -19.6888   16.9610 C   0  0  0  0  0  0  0  0  0  0  0  0
  -27.9716  -13.3616   18.5792 C   0  0  0  0  0  0  0  0  0  0  0  0
  -30.3793  -12.7002   19.0000 C   0  0  0  0  0  0  0  0  0  0  0  0
  -28.6900  -12.2641   20.7394 C   0  0  0  0  0  0  0  0  0  0  0  0
  -30.3434  -20.3191   18.3487 C   0  0  1  0  0  0  0  0  0  0  0  0
  -33.5691  -19.8267   20.2943 C   0  0  1  0  0  0  0  0  0  0  0  0
  -27.7088  -13.2565   20.0943 C   0  0  2  0  0  0  0  0  0  0  0  0
  -40.3394  -16.0984   19.7785 C   0  0  0  0  0  0  0  0  0  0  0  0
  -34.0680  -16.0706   17.6479 C   0  0  0  0  0  0  0  0  0  0  0  0
  -36.2741  -14.9022   17.8384 C   0  0  0  0  0  0  0  0  0  0  0  0
  -36.1147  -17.0708   16.6158 C   0  0  0  0  0  0  0  0  0  0  0  0
  -30.4561  -13.5266   29.6197 C   0  0  0  0  0  0  0  0  0  0  0  0
  -39.3000  -18.5552   22.4914 C   0  0  0  0  0  0  0  0  0  0  0  0
  -35.4203  -11.7000   23.3212 C   0  0  0  0  0  0  0  0  0  0  0  0
  -30.6581  -15.6213   27.0865 C   0  0  0  0  0  0  0  0  0  0  0  0
  -31.6542  -14.7513   27.8411 C   0  0  0  0  0  0  0  0  0  0  0  0
  -31.2558  -16.9462   26.6286 C   0  0  0  0  0  0  0  0  0  1  0  0
  -35.9338  -17.0534   19.1375 C   0  0  1  0  0  0  0  0  0  0  0  0
  -39.5058  -17.2098   20.3971 C   0  0  2  0  0  0  0  0  0  0  0  0
  -35.5838  -16.2829   17.8332 C   0  0  0  0  0  0  0  0  0  0  0  0
  -25.9272  -11.6085   20.5319 N   0  0  0  0  0  0  0  0  0  0  0  0
  -26.2637  -12.9020   20.3910 N   0  0  0  0  0  0  0  0  0  0  0  0
  -34.3970  -18.6189   20.2826 N   0  0  0  0  0  0  0  0  0  0  0  0
  -30.0744  -12.6561   20.4318 N   0  0  0  0  0  0  0  0  0  0  0  0
  -25.3791  -15.0989   20.4303 N   0  0  0  0  0  0  0  0  0  0  0  0
  -21.7756  -12.5096   21.2708 N   0  0  0  0  0  0  0  0  0  0  0  0
  -30.6659  -12.9282   22.6986 N   0  0  0  0  0  0  0  0  0  0  0  0
  -31.6290  -20.4668   18.9967 N   0  0  0  0  0  0  0  0  0  0  0  0
  -37.3606  -17.2925   19.3257 N   0  0  0  0  0  0  0  0  0  0  0  0
  -31.0724  -13.5162   28.2885 N   0  0  0  0  0  0  0  0  0  0  0  0
  -40.0147  -17.4684   21.7736 N   0  3  0  0  0  0  0  0  0  0  0  0
  -30.5503  -11.2426   27.9377 O   0  0  0  0  0  0  0  0  0  0  0  0
  -22.4912  -14.6700   20.9895 O   0  0  0  0  0  0  0  0  0  0  0  0
  -31.7954  -18.3221   19.8882 O   0  0  0  0  0  0  0  0  0  0  0  0
  -35.5134  -19.2451   18.3338 O   0  0  0  0  0  0  0  0  0  0  0  0
  -37.5339  -16.2051   21.3664 O   0  0  0  0  0  0  0  0  0  0  0  0
  -32.2205  -13.2875   21.0146 O   0  0  0  0  0  0  0  0  0  0  0  0
  -21.7232   -6.9494   21.6123 O   0  0  0  0  0  0  0  0  0  0  0  0
  -34.8964  -11.6828   24.6482 O   0  0  0  0  0  0  0  0  0  0  0  0
  -32.3675  -16.6779   25.7750 O   0  0  0  0  0  0  0  0  0  1  0  0
  -18.1628   -6.8459   25.8215 F   0  0  0  0  0  0  0  0  0  0  0  0
  -22.0007   -5.1128   23.6599 F   0  0  0  0  0  0  0  0  0  0  0  0
  1  2  1  0  0  0  0
  1  5  2  0  0  0  0
  2  6  2  0  0  0  0
  3  8  2  0  0  0  0
  3 18  1  0  0  0  0
  4  9  1  0  0  0  0
  4 18  2  0  0  0  0
  5 21  1  0  0  0  0
  6 23  1  0  0  0  0
  7 10  2  0  0  0  0
  7 22  1  0  0  0  0
  8 26  1  0  0  0  0
  9 26  2  0  0  0  0
 10 27  1  0  0  0  0
 11 12  2  0  0  0  0
 11 28  1  0  0  0  0
 12 30  1  0  0  0  0
 13 19  1  0  0  0  0
 13 25  2  0  0  0  0
 14 19  2  0  0  0  0
 14 29  1  0  0  0  0
 15 24  1  0  0  0  0
 15 27  2  0  0  0  0
 16 25  1  0  0  0  0
 16 29  2  0  0  0  0
 17 30  2  0  0  0  0
 17 31  1  0  0  0  0
 18 32  1  0  0  0  0
 19 34  1  0  0  0  0
 20 32  1  0  0  0  0
 20 33  2  0  0  0  0
 20 35  1  0  0  0  0
 21 23  2  0  0  0  0
 21 40  1  0  0  0  0
 22 24  2  0  0  0  0
 22 41  1  0  0  0  0
 23 49  1  0  0  0  0
 24 42  1  0  0  0  0
 25 71  1  0  0  0  0
 26 82  1  0  0  0  0
 27 84  1  0  0  0  0
 28 31  2  0  0  0  0
 28 82  1  0  0  0  0
 29 83  1  0  0  0  0
 30 85  1  0  0  0  0
 31 86  1  0  0  0  0
 32 65  2  0  0  0  0
 33 66  1  0  0  0  0
 33 69  1  0  0  0  0
 34 74  1  0  0  0  0
 34 76  2  0  0  0  0
 35 70  1  0  0  0  0
 35 77  2  0  0  0  0
 36 50  1  0  0  0  0
 36 72  1  0  0  0  0
 36 78  2  0  0  0  0
 37 62  1  0  0  0  0
 37 67  1  0  0  0  0
 37 79  2  0  0  0  0
 38 63  1  0  0  0  0
 38 73  1  0  0  0  0
 38 80  2  0  0  0  0
 39 68  1  0  0  0  0
 39 71  1  0  0  0  0
 39 81  2  0  0  0  0
 40 43  1  0  0  0  0
 41 50  1  0  0  0  0
 42 67  1  0  0  0  0
 43 45  1  0  0  0  0
 44 46  1  0  0  0  0
 44 47  1  0  0  0  0
 45 49  1  0  0  0  0
 46 51  1  0  0  0  0
 47 68  1  0  0  0  0
 48 51  1  0  0  0  0
 48 68  1  0  0  0  0
 49 72  1  0  0  0  0
 50 67  1  0  0  0  0
 51 66  1  0  0  0  0
 52 63  1  0  0  0  0
 53 64  1  0  0  0  0
 54 64  1  0  0  0  0
 55 64  1  0  0  0  0
 56 74  1  0  0  0  0
 57 75  1  0  0  0  0
 58 83  1  0  0  0  0
 59 60  1  0  0  0  0
 59 61  1  0  0  0  0
 60 74  1  0  0  0  0
 61 84  1  0  0  0  0
 62 64  1  0  0  0  0
 62 73  1  0  0  0  0
 63 75  1  0  0  0  0
 65 66  1  0  0  0  0
M  CHG  1  75   1
M  ISO  4  39 100  61 101  71 100  84 101
M  END
> <Batch ID>
0111

> <Smiles>
CNC(C)C(=O)NC(C(=O)N1Cc2cc([101O:1][101CH2:1]CCN(C)C(=O)c3cc([100NH:0][100C:0](=O)N4CCCC(n5nc(-c6ccc(Oc7ccc(F)cc7F)cc6)c(C(N)=O)c5N)C4)cc(OC)c3)ccc2CC1C(=O)NC1CCCc2ccccc21)C(C)(C)C

> <Shape>
0.163

> <Color>
0.176

> <Negative vol penalty>
0.000

$$$$

  -OEChem-04052301283D

 91 99  0     1  0  0  0  0  0999 V2000
  -18.5597  -31.9051   16.5034 C   0  0  0  0  0  0  0  0  0  0  0  0
  -19.6229  -31.0086   16.4687 C   0  0  0  0  0  0  0  0  0  0  0  0
  -23.0737  -13.3942   21.9834 C   0  0  0  0  0  0  0  0  0  0  0  0
  -22.5941  -11.9213   20.1293 C   0  0  0  0  0  0  0  0  0  0  0  0
  -18.7074  -33.1356   17.1420 C   0  0  0  0  0  0  0  0  0  0  0  0
  -20.8350  -31.3427   17.0718 C   0  0  0  0  0  0  0  0  0  0  0  0
  -24.7003  -27.5417   19.9210 C   0  0  0  0  0  0  0  0  0  0  0  0
  -21.7067  -13.5606   22.2048 C   0  0  0  0  0  0  0  0  0  0  0  0
  -21.2270  -12.0877   20.3508 C   0  0  0  0  0  0  0  0  0  0  0  0
  -25.8715  -26.9099   19.5054 C   0  0  0  0  0  0  0  0  0  0  0  0
  -19.1880  -11.8277   23.6492 C   0  0  0  0  0  0  0  0  0  0  0  0
  -18.7304  -11.7510   24.9646 C   0  0  0  0  0  0  0  0  0  0  0  0
  -31.5129  -19.2065   21.4853 C   0  0  0  0  0  0  0  0  0  0  0  0
  -27.1725  -28.6835   20.4960 C   0  0  0  0  0  0  0  0  0  0  0  0
  -30.7418  -20.5853   19.6573 C   0  0  0  0  0  0  0  0  0  0  0  0
  -17.8864  -14.0090   24.8026 C   0  0  0  0  0  0  0  0  0  0  0  0
  -23.5174  -12.5745   20.9456 C   0  0  0  0  0  0  0  0  0  0  0  0
  -31.9857  -20.3423   22.1426 C   0  0  0  0  0  0  0  0  0  0  0  0
  -25.7688  -11.4219   21.2776 C   0  0  0  0  0  0  0  0  0  0  0  0
  -19.9188  -33.4809   17.7616 C   0  0  0  0  0  0  0  0  0  0  0  0
  -24.7560  -28.7567   20.6189 C   0  0  0  0  0  0  0  0  0  0  0  0
  -20.9995  -32.5795   17.7182 C   0  0  0  0  0  0  0  0  0  0  0  0
  -26.0005  -29.3274   20.9216 C   0  0  0  0  0  0  0  0  0  0  0  0
  -30.8910  -19.3280   20.2426 C   0  0  0  0  0  0  0  0  0  0  0  0
  -20.7833  -12.9074   21.3885 C   0  0  0  0  0  0  0  0  0  0  0  0
  -27.1078  -27.4823   19.7903 C   0  0  0  0  0  0  0  0  0  0  0  0
  -18.9950  -12.9951   22.9105 C   0  0  0  0  0  0  0  0  0  0  0  0
  -31.2146  -21.7211   20.3146 C   0  0  0  0  0  0  0  0  0  0  0  0
  -31.8365  -21.5996   21.5573 C   0  0  0  0  0  0  0  0  0  0  0  0
  -18.0795  -12.8416   25.5413 C   0  0  0  0  0  0  0  0  0  0  0  0
  -18.3441  -14.0857   23.4872 C   0  0  0  0  0  0  0  0  0  0  0  0
  -24.9295  -12.4026   20.7160 C   0  0  0  0  0  0  0  0  0  0  0  0
  -27.0078  -11.6854   20.7467 C   0  0  0  0  0  0  0  0  0  0  0  0
  -32.6312  -20.1876   23.4395 C   0  0  0  0  0  0  0  0  0  0  0  0
  -32.3453  -19.2371   24.3560 C   0  0  0  0  0  0  0  0  0  0  0  0
  -25.4565  -10.3670   22.1971 C   0  0  0  0  0  0  0  0  0  0  0  0
  -23.7133  -31.7088   20.0698 C   0  0  0  0  0  0  0  0  0  0  0  0
  -29.6176  -24.8758   19.5462 C   0  0  0  0  0  0  0  0  0  0  0  0
  -24.7713  -32.2266   23.0922 C   0  0  0  0  0  0  0  0  0  0  0  0
  -31.4314  -17.4826   18.6234 C   0  0  0  0  0  0  0  0  0  0  0  0
  -26.8512  -31.2964   25.6329 C   0  0  0  0  0  0  0  0  0  0  0  0
  -30.9965  -15.1331   19.4205 C   0  0  0  0  0  0  0  0  0  0  0  0
  -20.0461  -34.8420   18.3988 C   0  0  0  0  0  0  0  0  0  0  0  0
  -23.4843  -29.4119   21.0836 C   0  0  0  0  0  0  0  0  0  0  0  0
  -26.1154  -30.6201   21.6857 C   0  0  0  0  0  0  0  0  0  0  0  0
  -21.2432  -34.9653   19.3380 C   0  0  0  0  0  0  0  0  0  0  0  0
  -28.4015  -14.7661   16.9892 C   0  0  0  0  0  0  0  0  0  0  0  0
  -22.4954  -34.3887   18.6851 C   0  0  0  0  0  0  0  0  0  0  0  0
  -27.3258  -14.0389   17.7971 C   0  0  0  0  0  0  0  0  0  0  0  0
  -29.1253  -15.8162   17.8301 C   0  0  0  0  0  0  0  0  0  0  0  0
  -28.6307  -14.5567   19.9016 C   0  0  0  0  0  0  0  0  0  0  0  0
  -22.3221  -32.8954   18.3824 C   0  0  1  0  0  0  0  0  0  0  0  0
  -23.6416  -30.9077   21.3390 C   0  0  1  0  0  0  0  0  0  0  0  0
  -27.9048  -13.4623   19.1022 C   0  0  1  0  0  0  0  0  0  0  0  0
  -33.0284  -19.1221   25.6800 C   0  0  0  0  0  0  0  0  0  0  0  0
  -27.5172  -31.9336   27.9670 C   0  0  0  0  0  0  0  0  0  0  0  0
  -26.4028  -34.5567   21.9880 C   0  0  0  0  0  0  0  0  0  0  0  0
  -27.7343  -34.5382   24.1082 C   0  0  0  0  0  0  0  0  0  0  0  0
  -25.2860  -35.0109   24.1791 C   0  0  0  0  0  0  0  0  0  0  0  0
  -33.2502  -15.8843   18.9154 C   0  0  0  0  0  0  0  0  0  0  0  0
  -25.9659  -28.6905   26.7212 C   0  0  0  0  0  0  0  0  0  0  0  0
  -31.3869  -23.3840   23.0638 C   0  0  0  0  0  0  0  0  0  0  0  0
  -30.3809  -18.1005   19.5320 C   0  0  0  0  0  0  0  0  0  0  0  0
  -28.2412  -25.4531   19.2866 C   0  0  0  0  0  0  0  0  0  1  0  0
  -29.7291  -23.3678   19.4557 C   0  0  0  0  0  0  0  0  0  0  0  0
  -26.0808  -32.6576   23.7073 C   0  0  1  0  0  0  0  0  0  0  0  0
  -26.5970  -31.0752   27.1131 C   0  0  2  0  0  0  0  0  0  0  0  0
  -26.3741  -34.1675   23.4796 C   0  0  0  0  0  0  0  0  0  0  0  0
  -25.5803  -13.2276   19.8915 N   0  0  0  0  0  0  0  0  0  0  0  0
  -26.8418  -12.7660   19.9313 N   0  0  0  0  0  0  0  0  0  0  0  0
  -24.8433  -31.2257   22.1130 N   0  0  0  0  0  0  0  0  0  0  0  0
  -29.6380  -15.2184   19.0705 N   0  0  0  0  0  0  0  0  0  0  0  0
  -28.2123  -11.0959   20.9025 N   0  0  0  0  0  0  0  0  0  0  0  0
  -24.1338  -10.2386   22.6422 N   0  0  0  0  0  0  0  0  0  0  0  0
  -22.4824  -32.1131   19.5894 N   0  0  0  0  0  0  0  0  0  0  0  0
  -26.0208  -32.2658   25.1113 N   0  0  0  0  0  0  0  0  0  0  0  0
  -31.8199  -16.1528   18.8982 N   0  0  0  0  0  0  0  0  0  0  0  0
  -26.8227  -29.6459   27.4695 N   0  3  0  0  0  0  0  0  0  0  0  0
  -26.3279   -9.5723   22.6243 O   0  0  0  0  0  0  0  0  0  0  0  0
  -24.8047  -31.9440   19.5646 O   0  0  0  0  0  0  0  0  0  0  0  0
  -30.5843  -25.5875   19.8145 O   0  0  0  0  0  0  0  0  0  0  0  0
  -23.7225  -32.7535   23.4717 O   0  0  0  0  0  0  0  0  0  0  0  0
  -31.9396  -18.1667   17.7294 O   0  0  0  0  0  0  0  0  0  0  0  0
  -27.7040  -30.6744   25.0033 O   0  0  0  0  0  0  0  0  0  0  0  0
  -31.4652  -14.2293   20.1199 O   0  0  0  0  0  0  0  0  0  0  0  0
  -19.4492  -13.0694   21.6045 O   0  0  0  0  0  0  0  0  0  0  0  0
  -32.2945  -22.7195   22.1889 O   0  0  0  0  0  0  0  0  0  0  0  0
  -28.2644  -26.8617   19.3810 O   0  0  0  0  0  0  0  0  0  1  0  0
  -31.0624  -22.9427   19.7313 O   0  0  0  0  0  0  0  0  0  0  0  0
  -17.6387  -12.7673   26.8040 F   0  0  0  0  0  0  0  0  0  0  0  0
  -18.1547  -15.2095   22.7821 F   0  0  0  0  0  0  0  0  0  0  0  0
  1  2  1  0  0  0  0
  1  5  2  0  0  0  0
  2  6  2  0  0  0  0
  3  8  2  0  0  0  0
  3 17  1  0  0  0  0
  4  9  1  0  0  0  0
  4 17  2  0  0  0  0
  5 20  1  0  0  0  0
  6 22  1  0  0  0  0
  7 10  2  0  0  0  0
  7 21  1  0  0  0  0
  8 25  1  0  0  0  0
  9 25  2  0  0  0  0
 10 26  1  0  0  0  0
 11 12  2  0  0  0  0
 11 27  1  0  0  0  0
 12 30  1  0  0  0  0
 13 18  1  0  0  0  0
 13 24  2  0  0  0  0
 14 23  1  0  0  0  0
 14 26  2  0  0  0  0
 15 24  1  0  0  0  0
 15 28  2  0  0  0  0
 16 30  2  0  0  0  0
 16 31  1  0  0  0  0
 17 32  1  0  0  0  0
 18 29  2  0  0  0  0
 18 34  1  0  0  0  0
 19 32  1  0  0  0  0
 19 33  2  0  0  0  0
 19 36  1  0  0  0  0
 20 22  2  0  0  0  0
 20 43  1  0  0  0  0
 21 23  2  0  0  0  0
 21 44  1  0  0  0  0
 22 52  1  0  0  0  0
 23 45  1  0  0  0  0
 24 63  1  0  0  0  0
 25 86  1  0  0  0  0
 26 88  1  0  0  0  0
 27 31  2  0  0  0  0
 27 86  1  0  0  0  0
 28 29  1  0  0  0  0
 28 89  1  0  0  0  0
 29 87  1  0  0  0  0
 30 90  1  0  0  0  0
 31 91  1  0  0  0  0
 32 69  2  0  0  0  0
 33 70  1  0  0  0  0
 33 73  1  0  0  0  0
 34 35  2  0  0  0  0
 35 55  1  0  0  0  0
 36 74  1  0  0  0  0
 36 79  2  0  0  0  0
 37 53  1  0  0  0  0
 37 75  1  0  0  0  0
 37 80  2  0  0  0  0
 38 64  1  0  0  0  0
 38 65  1  0  0  0  0
 38 81  2  0  0  0  0
 39 66  1  0  0  0  0
 39 71  1  0  0  0  0
 39 82  2  0  0  0  0
 40 63  1  0  0  0  0
 40 77  1  0  0  0  0
 40 83  2  0  0  0  0
 41 67  1  0  0  0  0
 41 76  1  0  0  0  0
 41 84  2  0  0  0  0
 42 72  1  0  0  0  0
 42 77  1  0  0  0  0
 42 85  2  0  0  0  0
 43 46  1  0  0  0  0
 44 53  1  0  0  0  0
 45 71  1  0  0  0  0
 46 48  1  0  0  0  0
 47 49  1  0  0  0  0
 47 50  1  0  0  0  0
 48 52  1  0  0  0  0
 49 54  1  0  0  0  0
 50 72  1  0  0  0  0
 51 54  1  0  0  0  0
 51 72  1  0  0  0  0
 52 75  1  0  0  0  0
 53 71  1  0  0  0  0
 54 70  1  0  0  0  0
 56 67  1  0  0  0  0
 57 68  1  0  0  0  0
 58 68  1  0  0  0  0
 59 68  1  0  0  0  0
 60 77  1  0  0  0  0
 61 78  1  0  0  0  0
 62 87  1  0  0  0  0
 64 88  1  0  0  0  0
 65 89  1  0  0  0  0
 66 68  1  0  0  0  0
 66 76  1  0  0  0  0
 67 78  1  0  0  0  0
 69 70  1  0  0  0  0
M  CHG  1  78   1
M  ISO  4  42 100  64 101  77 100  88 101
M  END
> <Batch ID>
0111

> <Smiles>
CC=Cc1cc(CC(=O)[100N:0](C)[100C:0](=O)N2CCCC(n3nc(-c4ccc(Oc5ccc(F)cc5F)cc4)c(C(N)=O)c3N)C2)cc(OCC(=O)[101CH2:1][101O:1]c2ccc3c(c2)CN(C(=O)C(NC(=O)C(C)NC)C(C)(C)C)C(C(=O)NC2CCCc4ccccc42)C3)c1OC

> <Shape>
0.256

> <Color>
0.099

> <Negative vol penalty>
0.000

$$$$

  -OEChem-04052301283D

 83 91  0     1  0  0  0  0  0999 V2000
  -23.8926  -35.5908   23.2248 C   0  0  0  0  0  0  0  0  0  0  0  0
  -24.7500  -34.6098   22.7369 C   0  0  0  0  0  0  0  0  0  0  0  0
  -24.3873  -13.5891   21.2488 C   0  0  0  0  0  0  0  0  0  0  0  0
  -26.5207  -13.2438   20.1687 C   0  0  0  0  0  0  0  0  0  0  0  0
  -22.7948  -35.2302   24.0051 C   0  0  0  0  0  0  0  0  0  0  0  0
  -24.5106  -33.2677   23.0299 C   0  0  0  0  0  0  0  0  0  0  0  0
  -25.0253  -30.2731   18.9787 C   0  0  0  0  0  0  0  0  0  0  0  0
  -23.9558  -12.3427   20.7951 C   0  0  0  0  0  0  0  0  0  0  0  0
  -26.0892  -11.9973   19.7150 C   0  0  0  0  0  0  0  0  0  0  0  0
  -26.3236  -29.9487   18.5875 C   0  0  0  0  0  0  0  0  0  0  0  0
  -22.4214   -9.0968   20.2250 C   0  0  0  0  0  0  0  0  0  0  0  0
  -21.7566   -8.2712   21.1316 C   0  0  0  0  0  0  0  0  0  0  0  0
  -30.6606  -22.6954   19.8476 C   0  0  0  0  0  0  0  0  0  0  0  0
  -26.1122  -27.8092   19.6816 C   0  0  0  0  0  0  0  0  0  0  0  0
  -23.7046   -8.2721   22.5608 C   0  0  0  0  0  0  0  0  0  0  0  0
  -31.8219  -20.6207   19.9078 C   0  0  0  0  0  0  0  0  0  0  0  0
  -25.6697  -14.0397   20.9356 C   0  0  0  0  0  0  0  0  0  0  0  0
  -31.8184  -23.3218   20.2953 C   0  0  0  0  0  0  0  0  0  0  0  0
  -26.7751  -15.6100   22.6148 C   0  0  0  0  0  0  0  0  0  0  0  0
  -22.5364  -33.8823   24.2997 C   0  0  0  0  0  0  0  0  0  0  0  0
  -24.2634  -29.3708   19.7349 C   0  0  0  0  0  0  0  0  0  0  0  0
  -23.4091  -32.8889   23.8159 C   0  0  0  0  0  0  0  0  0  0  0  0
  -24.8036  -28.1235   20.0790 C   0  0  0  0  0  0  0  0  0  0  0  0
  -30.6540  -21.3195   19.6476 C   0  0  0  0  0  0  0  0  0  0  0  0
  -24.8068  -11.5468   20.0282 C   0  0  0  0  0  0  0  0  0  0  0  0
  -26.8683  -28.7177   18.9415 C   0  0  0  0  0  0  0  0  0  0  0  0
  -23.7278   -9.5100   20.4862 C   0  0  0  0  0  0  0  0  0  0  0  0
  -22.3981   -7.8588   22.2995 C   0  0  0  0  0  0  0  0  0  0  0  0
  -24.3694   -9.0977   21.6541 C   0  0  0  0  0  0  0  0  0  0  0  0
  -26.1158  -15.3274   21.4035 C   0  0  0  0  0  0  0  0  0  0  0  0
  -32.9341  -22.5334   20.5266 C   0  0  0  0  0  0  0  0  0  0  0  0
  -26.9807  -16.9677   22.5851 C   0  0  0  0  0  0  0  0  0  0  0  0
  -31.8157  -24.7797   20.5039 C   0  0  0  0  0  0  0  0  0  0  0  0
  -27.1666  -14.7245   23.6723 C   0  0  0  0  0  0  0  0  0  0  0  0
  -22.9459  -29.4211   22.6272 C   0  0  0  0  0  0  0  0  0  0  0  0
  -21.6862  -26.5873   21.6760 C   0  0  0  0  0  0  0  0  0  0  0  0
  -21.9066  -23.8556   19.6423 C   0  0  0  0  0  0  0  0  0  0  0  0
  -28.2531  -21.2217   18.8912 C   0  0  0  0  0  0  0  0  0  0  0  0
  -21.3641  -33.5449   25.1866 C   0  0  0  0  0  0  0  0  0  0  0  0
  -22.8549  -29.7250   20.1261 C   0  0  0  0  0  0  0  0  0  0  0  0
  -24.0197  -27.1115   20.8725 C   0  0  0  0  0  0  0  0  0  0  0  0
  -20.9687  -32.0712   25.1391 C   0  0  0  0  0  0  0  0  0  0  0  0
  -24.9465  -20.7474   20.1235 C   0  0  0  0  0  0  0  0  0  0  0  0
  -22.2032  -31.1832   25.2589 C   0  0  0  0  0  0  0  0  0  0  0  0
  -24.9737  -19.3293   20.6982 C   0  0  0  0  0  0  0  0  0  0  0  0
  -25.7944  -20.8629   18.8580 C   0  0  0  0  0  0  0  0  0  0  0  0
  -27.2054  -18.9721   19.5672 C   0  0  0  0  0  0  0  0  0  0  0  0
  -23.1688  -31.4204   24.0915 C   0  0  1  0  0  0  0  0  0  0  0  0
  -22.3542  -28.9380   21.3333 C   0  0  1  0  0  0  0  0  0  0  0  0
  -26.4179  -18.8221   20.8791 C   0  0  2  0  0  0  0  0  0  0  0  0
  -20.7518  -21.6895   19.1211 C   0  0  0  0  0  0  0  0  0  0  0  0
  -22.8390  -25.3630   24.2221 C   0  0  0  0  0  0  0  0  0  0  0  0
  -22.4988  -23.1007   23.2050 C   0  0  0  0  0  0  0  0  0  0  0  0
  -20.5370  -24.5796   23.6374 C   0  0  0  0  0  0  0  0  0  0  0  0
  -21.3884  -24.6710   16.8449 C   0  0  0  0  0  0  0  0  0  0  0  0
  -30.3543  -27.8454   19.2886 C   0  0  0  0  0  0  0  0  0  0  0  0
  -31.2255  -26.9748   20.1830 C   0  0  0  0  0  0  0  0  0  0  0  0
  -28.8701  -27.5255   19.4183 C   0  0  0  0  0  0  0  0  0  1  0  0
  -22.1230  -25.1442   21.7511 C   0  0  1  0  0  0  0  0  0  0  0  0
  -20.8751  -23.1639   18.7694 C   0  0  2  0  0  0  0  0  0  0  0  0
  -22.0152  -24.5665   23.1906 C   0  0  0  0  0  0  0  0  0  0  0  0
  -32.9659  -21.1943   20.3436 N   0  0  0  0  0  0  0  0  0  0  0  0
  -25.9158  -16.4179   20.6586 N   0  0  0  0  0  0  0  0  0  0  0  0
  -31.0687  -25.5679   19.8111 N   0  0  0  0  0  0  0  0  0  0  0  0
  -26.4524  -17.3990   21.4039 N   0  0  0  0  0  0  0  0  0  0  0  0
  -22.6492  -27.5069   21.2370 N   0  0  0  0  0  0  0  0  0  0  0  0
  -27.1503  -20.3682   19.1061 N   0  0  0  0  0  0  0  0  0  0  0  0
  -34.1183  -23.1647   20.9834 N   0  0  0  0  0  0  0  0  0  0  0  0
  -27.5600  -17.8228   23.4544 N   0  0  0  0  0  0  0  0  0  0  0  0
  -26.8785  -13.3592   23.5415 N   0  0  0  0  0  0  0  0  0  0  0  0
  -29.4901  -20.6523   19.1917 N   0  0  0  0  0  0  0  0  0  0  0  0
  -22.6937  -30.7523   22.8988 N   0  0  0  0  0  0  0  0  0  0  0  0
  -21.3315  -24.4259   20.7581 N   0  0  0  0  0  0  0  0  0  0  0  0
  -21.2549  -23.2741   17.3325 N   0  3  0  0  0  0  0  0  0  0  0  0
  -27.7398  -15.1344   24.7101 O   0  0  0  0  0  0  0  0  0  0  0  0
  -23.5829  -28.6434   23.3280 O   0  0  0  0  0  0  0  0  0  0  0  0
  -20.5310  -26.8865   21.9884 O   0  0  0  0  0  0  0  0  0  0  0  0
  -23.1034  -23.8838   19.3641 O   0  0  0  0  0  0  0  0  0  0  0  0
  -28.1087  -22.3819   18.4974 O   0  0  0  0  0  0  0  0  0  0  0  0
  -24.3862  -10.3303   19.5855 O   0  0  0  0  0  0  0  0  0  0  0  0
  -28.1355  -28.3988   18.5615 O   0  0  0  0  0  0  0  0  0  1  0  0
  -21.7591   -7.0672   23.1708 F   0  0  0  0  0  0  0  0  0  0  0  0
  -25.6240   -9.4924   21.9111 F   0  0  0  0  0  0  0  0  0  0  0  0
  1  2  1  0  0  0  0
  1  5  2  0  0  0  0
  2  6  2  0  0  0  0
  3  8  2  0  0  0  0
  3 17  1  0  0  0  0
  4  9  1  0  0  0  0
  4 17  2  0  0  0  0
  5 20  1  0  0  0  0
  6 22  1  0  0  0  0
  7 10  2  0  0  0  0
  7 21  1  0  0  0  0
  8 25  1  0  0  0  0
  9 25  2  0  0  0  0
 10 26  1  0  0  0  0
 11 12  2  0  0  0  0
 11 27  1  0  0  0  0
 12 28  1  0  0  0  0
 13 18  1  0  0  0  0
 13 24  2  0  0  0  0
 14 23  1  0  0  0  0
 14 26  2  0  0  0  0
 15 28  2  0  0  0  0
 15 29  1  0  0  0  0
 16 24  1  0  0  0  0
 16 62  2  0  0  0  0
 17 30  1  0  0  0  0
 18 31  2  0  0  0  0
 18 33  1  0  0  0  0
 19 30  1  0  0  0  0
 19 32  2  0  0  0  0
 19 34  1  0  0  0  0
 20 22  2  0  0  0  0
 20 39  1  0  0  0  0
 21 23  2  0  0  0  0
 21 40  1  0  0  0  0
 22 48  1  0  0  0  0
 23 41  1  0  0  0  0
 24 71  1  0  0  0  0
 25 80  1  0  0  0  0
 26 81  1  0  0  0  0
 27 29  2  0  0  0  0
 27 80  1  0  0  0  0
 28 82  1  0  0  0  0
 29 83  1  0  0  0  0
 30 63  2  0  0  0  0
 31 62  1  0  0  0  0
 31 68  1  0  0  0  0
 32 65  1  0  0  0  0
 32 69  1  0  0  0  0
 33 64  2  0  0  0  0
 34 70  1  0  0  0  0
 34 75  2  0  0  0  0
 35 49  1  0  0  0  0
 35 72  1  0  0  0  0
 35 76  2  0  0  0  0
 36 59  1  0  0  0  0
 36 66  1  0  0  0  0
 36 77  2  0  0  0  0
 37 60  1  0  0  0  0
 37 73  1  0  0  0  0
 37 78  2  0  0  0  0
 38 67  1  0  0  0  0
 38 71  1  0  0  0  0
 38 79  2  0  0  0  0
 39 42  1  0  0  0  0
 40 49  1  0  0  0  0
 41 66  1  0  0  0  0
 42 44  1  0  0  0  0
 43 45  1  0  0  0  0
 43 46  1  0  0  0  0
 44 48  1  0  0  0  0
 45 50  1  0  0  0  0
 46 67  1  0  0  0  0
 47 50  1  0  0  0  0
 47 67  1  0  0  0  0
 48 72  1  0  0  0  0
 49 66  1  0  0  0  0
 50 65  1  0  0  0  0
 51 60  1  0  0  0  0
 52 61  1  0  0  0  0
 53 61  1  0  0  0  0
 54 61  1  0  0  0  0
 55 74  1  0  0  0  0
 56 57  1  0  0  0  0
 56 58  1  0  0  0  0
 57 64  1  0  0  0  0
 58 81  1  0  0  0  0
 59 61  1  0  0  0  0
 59 73  1  0  0  0  0
 60 74  1  0  0  0  0
 63 65  1  0  0  0  0
M  CHG  1  74   1
M  ISO  4  38 100  58 101  71 100  81 101
M  END
> <Batch ID>
0111

> <Smiles>
CNC(C)C(=O)NC(C(=O)N1Cc2cc([101O:1][101CH2:1]CCN=Cc3cc([100NH:0][100C:0](=O)N4CCCC(n5nc(-c6ccc(Oc7ccc(F)cc7F)cc6)c(C(N)=O)c5N)C4)cnc3N)ccc2CC1C(=O)NC1CCCc2ccccc21)C(C)(C)C

> <Shape>
0.221

> <Color>
0.075

> <Negative vol penalty>
0.000

$$$$

  -OEChem-04052301283D

 84 92  0     1  0  0  0  0  0999 V2000
  -32.0249  -28.2818   14.3133 C   0  0  0  0  0  0  0  0  0  0  0  0
  -31.4928  -27.2224   15.0414 C   0  0  0  0  0  0  0  0  0  0  0  0
  -22.8802  -10.4395   20.4636 C   0  0  0  0  0  0  0  0  0  0  0  0
  -24.2447   -9.3351   22.1236 C   0  0  0  0  0  0  0  0  0  0  0  0
  -30.7734  -16.5835   21.2960 C   0  0  0  0  0  0  0  0  0  0  0  0
  -32.1032  -29.5503   14.8865 C   0  0  0  0  0  0  0  0  0  0  0  0
  -31.0398  -27.4308   16.3436 C   0  0  0  0  0  0  0  0  0  0  0  0
  -26.2931  -24.6880   19.0734 C   0  0  0  0  0  0  0  0  0  0  0  0
  -30.2303  -17.8341   21.5900 C   0  0  0  0  0  0  0  0  0  0  0  0
  -22.0091   -9.3501   20.4548 C   0  0  0  0  0  0  0  0  0  0  0  0
  -23.3735   -8.2458   22.1149 C   0  0  0  0  0  0  0  0  0  0  0  0
  -26.2121  -23.6097   19.9534 C   0  0  0  0  0  0  0  0  0  0  0  0
  -19.4969   -8.1541   22.3761 C   0  0  0  0  0  0  0  0  0  0  0  0
  -18.1278   -8.4186   22.4086 C   0  0  0  0  0  0  0  0  0  0  0  0
  -26.1647  -25.1415   21.8164 C   0  0  0  0  0  0  0  0  0  0  0  0
  -29.4350  -16.9905   23.7096 C   0  0  0  0  0  0  0  0  0  0  0  0
  -17.8576   -7.2804   20.2947 C   0  0  0  0  0  0  0  0  0  0  0  0
  -23.9980  -10.4320   21.2980 C   0  0  0  0  0  0  0  0  0  0  0  0
  -30.6472  -15.5362   22.2088 C   0  0  0  0  0  0  0  0  0  0  0  0
  -24.8246  -12.6983   22.1275 C   0  0  0  0  0  0  0  0  0  0  0  0
  -31.6420  -29.7765   16.1929 C   0  0  0  0  0  0  0  0  0  0  0  0
  -26.3216  -26.0030   19.5596 C   0  0  0  0  0  0  0  0  0  0  0  0
  -31.1133  -28.7033   16.9353 C   0  0  0  0  0  0  0  0  0  0  0  0
  -26.2435  -26.2348   20.9403 C   0  0  0  0  0  0  0  0  0  0  0  0
  -29.5611  -18.0377   22.7968 C   0  0  0  0  0  0  0  0  0  0  0  0
  -29.9780  -15.7398   23.4156 C   0  0  0  0  0  0  0  0  0  0  0  0
  -22.2557   -8.2533   21.2805 C   0  0  0  0  0  0  0  0  0  0  0  0
  -26.1508  -23.8362   21.3253 C   0  0  0  0  0  0  0  0  0  0  0  0
  -20.0465   -7.4528   21.3028 C   0  0  0  0  0  0  0  0  0  0  0  0
  -17.3081   -7.9818   21.3680 C   0  0  0  0  0  0  0  0  0  0  0  0
  -19.2268   -7.0159   20.2622 C   0  0  0  0  0  0  0  0  0  0  0  0
  -24.8985  -11.5567   21.3070 C   0  0  0  0  0  0  0  0  0  0  0  0
  -25.9023  -13.4621   21.7510 C   0  0  0  0  0  0  0  0  0  0  0  0
  -27.7985  -19.4790   22.7083 C   0  0  0  0  0  0  0  0  0  0  0  0
  -31.2252  -14.2416   21.8713 C   0  0  0  0  0  0  0  0  0  0  0  0
  -23.8675  -13.0379   23.1395 C   0  0  0  0  0  0  0  0  0  0  0  0
  -27.1533  -20.7976   22.9867 C   0  0  0  0  0  0  0  0  0  0  0  0
  -31.3362  -13.7924   20.4644 C   0  0  0  0  0  0  0  0  0  0  0  0
  -28.4105  -28.3956   19.4359 C   0  0  0  0  0  0  0  0  0  0  0  0
  -26.0073  -30.0512   20.8523 C   0  0  0  0  0  0  0  0  0  0  0  0
  -23.1714  -29.9879   22.7498 C   0  0  0  0  0  0  0  0  0  0  0  0
  -31.7909  -31.1548   16.7869 C   0  0  0  0  0  0  0  0  0  0  0  0
  -26.3822  -27.1562   18.5958 C   0  0  0  0  0  0  0  0  0  0  0  0
  -26.2502  -27.6282   21.5121 C   0  0  0  0  0  0  0  0  0  0  0  0
  -30.9443  -31.3735   18.0382 C   0  0  0  0  0  0  0  0  0  0  0  0
  -29.0393  -13.0376   17.8165 C   0  0  0  0  0  0  0  0  0  0  0  0
  -31.0862  -30.1916   18.9920 C   0  0  0  0  0  0  0  0  0  0  0  0
  -27.7633  -12.6412   18.5583 C   0  0  0  0  0  0  0  0  0  0  0  0
  -30.2865  -12.6033   18.5796 C   0  0  0  0  0  0  0  0  0  0  0  0
  -29.0629  -12.7148   20.7334 C   0  0  0  0  0  0  0  0  0  0  0  0
  -30.5886  -28.8951   18.3417 C   0  0  1  0  0  0  0  0  0  0  0  0
  -26.9230  -28.4351   19.2277 C   0  0  1  0  0  0  0  0  0  0  0  0
  -27.7823  -13.1614   20.0067 C   0  0  2  0  0  0  0  0  0  0  0  0
  -21.4521  -31.5022   23.7736 C   0  0  0  0  0  0  0  0  0  0  0  0
  -27.9997  -30.8412   23.0239 C   0  0  0  0  0  0  0  0  0  0  0  0
  -26.0622  -31.5173   24.4581 C   0  0  0  0  0  0  0  0  0  0  0  0
  -26.4726  -32.6808   22.2900 C   0  0  0  0  0  0  0  0  0  0  0  0
  -20.9809  -28.7410   21.1988 C   0  0  0  0  0  0  0  0  0  0  0  0
  -26.6884  -21.5644   21.7792 C   0  0  0  0  0  0  0  0  0  1  0  0
  -25.5851  -30.3135   22.2777 C   0  0  1  0  0  0  0  0  0  0  0  0
  -21.8208  -30.6558   22.5652 C   0  0  2  0  0  0  0  0  0  0  0  0
  -26.5317  -31.3118   23.0021 C   0  0  0  0  0  0  0  0  0  0  0  0
  -25.9407  -11.5884   20.4722 N   0  0  0  0  0  0  0  0  0  0  0  0
  -31.6774  -13.4071   22.7655 N   0  0  0  0  0  0  0  0  0  0  0  0
  -29.0142  -19.2977   23.0924 N   0  0  0  0  0  0  0  0  0  0  0  0
  -26.5315  -12.7591   20.7661 N   0  0  0  0  0  0  0  0  0  0  0  0
  -30.2555  -13.0828   19.9599 N   0  0  0  0  0  0  0  0  0  0  0  0
  -26.3171  -28.7224   20.5294 N   0  0  0  0  0  0  0  0  0  0  0  0
  -29.8391  -14.6920   24.3531 N   0  0  0  0  0  0  0  0  0  0  0  0
  -26.3636  -14.6597   22.1697 N   0  0  0  0  0  0  0  0  0  0  0  0
  -22.8231  -12.1401   23.3996 N   0  0  0  0  0  0  0  0  0  0  0  0
  -29.1422  -28.8463   18.3539 N   0  0  0  0  0  0  0  0  0  0  0  0
  -24.1931  -30.7461   22.2181 N   0  0  0  0  0  0  0  0  0  0  0  0
  -20.7581  -29.6296   22.3682 N   0  3  0  0  0  0  0  0  0  0  0  0
  -23.9269  -14.1134   23.7824 O   0  0  0  0  0  0  0  0  0  0  0  0
  -27.0369  -21.1498   24.1498 O   0  0  0  0  0  0  0  0  0  0  0  0
  -32.3757  -14.0966   19.8941 O   0  0  0  0  0  0  0  0  0  0  0  0
  -28.8610  -27.9879   20.5001 O   0  0  0  0  0  0  0  0  0  0  0  0
  -26.0535  -30.9895   20.0529 O   0  0  0  0  0  0  0  0  0  0  0  0
  -23.3071  -28.9040   23.3130 O   0  0  0  0  0  0  0  0  0  0  0  0
  -21.4058   -7.1902   21.2724 O   0  0  0  0  0  0  0  0  0  0  0  0
  -26.0724  -22.7855   22.1865 O   0  0  0  0  0  0  0  0  0  1  0  0
  -15.9931   -8.2345   21.4001 F   0  0  0  0  0  0  0  0  0  0  0  0
  -19.7488   -6.3406   19.2291 F   0  0  0  0  0  0  0  0  0  0  0  0
  1  2  1  0  0  0  0
  1  6  2  0  0  0  0
  2  7  2  0  0  0  0
  3 10  2  0  0  0  0
  3 18  1  0  0  0  0
  4 11  1  0  0  0  0
  4 18  2  0  0  0  0
  5  9  2  0  0  0  0
  5 19  1  0  0  0  0
  6 21  1  0  0  0  0
  7 23  1  0  0  0  0
  8 12  2  0  0  0  0
  8 22  1  0  0  0  0
  9 25  1  0  0  0  0
 10 27  1  0  0  0  0
 11 27  2  0  0  0  0
 12 28  1  0  0  0  0
 13 14  2  0  0  0  0
 13 29  1  0  0  0  0
 14 30  1  0  0  0  0
 15 24  1  0  0  0  0
 15 28  2  0  0  0  0
 16 25  2  0  0  0  0
 16 26  1  0  0  0  0
 17 30  2  0  0  0  0
 17 31  1  0  0  0  0
 18 32  1  0  0  0  0
 19 26  2  0  0  0  0
 19 35  1  0  0  0  0
 20 32  1  0  0  0  0
 20 33  2  0  0  0  0
 20 36  1  0  0  0  0
 21 23  2  0  0  0  0
 21 42  1  0  0  0  0
 22 24  2  0  0  0  0
 22 43  1  0  0  0  0
 23 51  1  0  0  0  0
 24 44  1  0  0  0  0
 25 65  1  0  0  0  0
 26 69  1  0  0  0  0
 27 81  1  0  0  0  0
 28 82  1  0  0  0  0
 29 31  2  0  0  0  0
 29 81  1  0  0  0  0
 30 83  1  0  0  0  0
 31 84  1  0  0  0  0
 32 63  2  0  0  0  0
 33 66  1  0  0  0  0
 33 70  1  0  0  0  0
 34 37  1  0  0  0  0
 34 65  2  0  0  0  0
 35 38  1  0  0  0  0
 35 64  2  0  0  0  0
 36 71  1  0  0  0  0
 36 75  2  0  0  0  0
 37 59  1  0  0  0  0
 37 76  2  0  0  0  0
 38 67  1  0  0  0  0
 38 77  2  0  0  0  0
 39 52  1  0  0  0  0
 39 72  1  0  0  0  0
 39 78  2  0  0  0  0
 40 60  1  0  0  0  0
 40 68  1  0  0  0  0
 40 79  2  0  0  0  0
 41 61  1  0  0  0  0
 41 73  1  0  0  0  0
 41 80  2  0  0  0  0
 42 45  1  0  0  0  0
 43 52  1  0  0  0  0
 44 68  1  0  0  0  0
 45 47  1  0  0  0  0
 46 48  1  0  0  0  0
 46 49  1  0  0  0  0
 47 51  1  0  0  0  0
 48 53  1  0  0  0  0
 49 67  1  0  0  0  0
 50 53  1  0  0  0  0
 50 67  1  0  0  0  0
 51 72  1  0  0  0  0
 52 68  1  0  0  0  0
 53 66  1  0  0  0  0
 54 61  1  0  0  0  0
 55 62  1  0  0  0  0
 56 62  1  0  0  0  0
 57 62  1  0  0  0  0
 58 74  1  0  0  0  0
 59 82  1  0  0  0  0
 60 62  1  0  0  0  0
 60 73  1  0  0  0  0
 61 74  1  0  0  0  0
 63 66  1  0  0  0  0
M  CHG  1  74   1
M  ISO  4  35 100  38 100  59 101  82 101
M  END
> <Batch ID>
0111

> <Smiles>
CNC(C)C(=O)NC(C(=O)N1Cc2cc([101O:1][101CH2:1]C(=O)C=Nc3ccc([100C:0](=N)[100C:0](=O)N4CCCC(n5nc(-c6ccc(Oc7ccc(F)cc7F)cc6)c(C(N)=O)c5N)C4)c(N)c3)ccc2CC1C(=O)NC1CCCc2ccccc21)C(C)(C)C

> <Shape>
0.255

> <Color>
0.134

> <Negative vol penalty>
0.000

$$$$

  -OEChem-04052301282D

  0  0  0     0  0  0  0  0  0999 V2000
M  END
$$$$

  -OEChem-04052301283D

 90 98  0     1  0  0  0  0  0999 V2000
  -32.7641  -15.8187   21.5314 C   0  0  0  0  0  0  0  0  0  0  0  0
  -31.7964  -16.7977   21.7324 C   0  0  0  0  0  0  0  0  0  0  0  0
  -29.6532  -23.8559   20.5937 C   0  0  0  0  0  0  0  0  0  0  0  0
  -27.7279  -23.6101   19.1550 C   0  0  0  0  0  0  0  0  0  0  0  0
  -32.4424  -14.6549   20.8342 C   0  0  0  0  0  0  0  0  0  0  0  0
  -30.5066  -16.6140   21.2353 C   0  0  0  0  0  0  0  0  0  0  0  0
  -25.2709  -18.4897   23.7996 C   0  0  0  0  0  0  0  0  0  0  0  0
  -29.8512  -22.4755   20.5647 C   0  0  0  0  0  0  0  0  0  0  0  0
  -27.9259  -22.2296   19.1259 C   0  0  0  0  0  0  0  0  0  0  0  0
  -24.4587  -19.5994   23.5697 C   0  0  0  0  0  0  0  0  0  0  0  0
  -29.9508  -20.0383   17.5390 C   0  0  0  0  0  0  0  0  0  0  0  0
  -29.8603  -19.3980   16.3031 C   0  0  0  0  0  0  0  0  0  0  0  0
  -18.7057  -26.7708   23.1208 C   0  0  0  0  0  0  0  0  0  0  0  0
  -23.0611  -18.2689   22.1220 C   0  0  0  0  0  0  0  0  0  0  0  0
  -20.8527  -27.1177   22.0684 C   0  0  0  0  0  0  0  0  0  0  0  0
  -28.0479  -18.0376   17.1407 C   0  0  0  0  0  0  0  0  0  0  0  0
  -28.5915  -24.4232   19.8889 C   0  0  0  0  0  0  0  0  0  0  0  0
  -18.3939  -28.1166   22.9282 C   0  0  0  0  0  0  0  0  0  0  0  0
  -28.9240  -26.8042   19.0357 C   0  0  0  0  0  0  0  0  0  0  0  0
  -31.1455  -14.4525   20.3367 C   0  0  0  0  0  0  0  0  0  0  0  0
  -24.9901  -17.2621   23.1827 C   0  0  0  0  0  0  0  0  0  0  0  0
  -30.1676  -15.4470   20.5296 C   0  0  0  0  0  0  0  0  0  0  0  0
  -23.8699  -17.1446   22.3477 C   0  0  0  0  0  0  0  0  0  0  0  0
  -20.5408  -28.4635   21.8758 C   0  0  0  0  0  0  0  0  0  0  0  0
  -19.3113  -28.9630   22.3057 C   0  0  0  0  0  0  0  0  0  0  0  0
  -28.9876  -21.6623   19.8307 C   0  0  0  0  0  0  0  0  0  0  0  0
  -23.3553  -19.4898   22.7286 C   0  0  0  0  0  0  0  0  0  0  0  0
  -29.0900  -19.6782   18.5758 C   0  0  0  0  0  0  0  0  0  0  0  0
  -19.9352  -26.2713   22.6909 C   0  0  0  0  0  0  0  0  0  0  0  0
  -28.9088  -18.3977   16.1039 C   0  0  0  0  0  0  0  0  0  0  0  0
  -28.1385  -18.6779   18.3766 C   0  0  0  0  0  0  0  0  0  0  0  0
  -28.3861  -25.8490   19.9190 C   0  0  0  0  0  0  0  0  0  0  0  0
  -28.4323  -28.0046   19.4871 C   0  0  0  0  0  0  0  0  0  0  0  0
  -13.4483  -28.1788   23.0981 C   0  0  0  0  0  0  0  0  0  0  0  0
  -17.0988  -28.6002   23.3923 C   0  0  0  0  0  0  0  0  0  0  0  0
  -14.6398  -28.6421   23.4922 C   0  0  0  0  0  0  0  0  0  0  0  0
  -15.8965  -28.1307   22.9927 C   0  0  0  0  0  0  0  0  0  0  0  0
  -29.7905  -26.6226   17.9079 C   0  0  0  0  0  0  0  0  0  0  0  0
  -26.5219  -15.3820   21.1278 C   0  0  0  0  0  0  0  0  0  0  0  0
  -20.8116  -22.8586   21.8153 C   0  0  0  0  0  0  0  0  0  0  0  0
  -24.0403  -13.3767   21.7132 C   0  0  0  0  0  0  0  0  0  0  0  0
  -20.8038  -12.9907   22.7246 C   0  0  0  0  0  0  0  0  0  0  0  0
  -23.5641  -29.4899   22.6409 C   0  0  0  0  0  0  0  0  0  0  0  0
  -30.8577  -13.1994   19.5483 C   0  0  0  0  0  0  0  0  0  0  0  0
  -25.8606  -16.0677   23.4620 C   0  0  0  0  0  0  0  0  0  0  0  0
  -23.5134  -15.8438   21.6773 C   0  0  0  0  0  0  0  0  0  0  0  0
  -29.3675  -12.9152   19.3787 C   0  0  0  0  0  0  0  0  0  0  0  0
  -26.9538  -30.1805   23.4834 C   0  0  0  0  0  0  0  0  0  0  0  0
  -28.6271  -14.1809   18.9581 C   0  0  0  0  0  0  0  0  0  0  0  0
  -27.7538  -29.2349   22.5858 C   0  0  0  0  0  0  0  0  0  0  0  0
  -25.6561  -29.5367   23.9667 C   0  0  0  0  0  0  0  0  0  0  0  0
  -25.5949  -28.0545   21.9987 C   0  0  0  0  0  0  0  0  0  0  0  0
  -28.7507  -15.2733   20.0272 C   0  0  1  0  0  0  0  0  0  0  0  0
  -25.7768  -15.0001   22.3755 C   0  0  1  0  0  0  0  0  0  0  0  0
  -26.8851  -28.6795   21.4411 C   0  0  2  0  0  0  0  0  0  0  0  0
  -21.3695  -29.3927   19.6823 C   0  0  0  0  0  0  0  0  0  0  0  0
  -19.0414  -11.2364   23.0620 C   0  0  0  0  0  0  0  0  0  0  0  0
  -23.6020  -13.2402   18.6967 C   0  0  0  0  0  0  0  0  0  0  0  0
  -21.3286  -12.2899   19.1403 C   0  0  0  0  0  0  0  0  0  0  0  0
  -23.3626  -11.0531   19.8857 C   0  0  0  0  0  0  0  0  0  0  0  0
  -20.6026  -13.5840   25.6170 C   0  0  0  0  0  0  0  0  0  0  0  0
  -21.6878  -22.0950   20.8333 C   0  0  0  0  0  0  0  0  0  0  0  0
  -21.1032  -24.3416   21.9375 C   0  0  0  0  0  0  0  0  0  0  0  0
  -21.9080  -20.6438   21.2353 C   0  0  0  0  0  0  0  0  0  1  0  0
  -21.5444  -29.3452   21.2060 C   0  0  2  0  0  0  0  0  0  0  0  0
  -22.6758  -13.1585   21.1053 C   0  0  1  0  0  0  0  0  0  0  0  0
  -20.1645  -12.0302   23.7111 C   0  0  2  0  0  0  0  0  0  0  0  0
  -22.7498  -12.4606   19.7179 C   0  0  0  0  0  0  0  0  0  0  0  0
  -27.6122  -26.3955   20.8604 N   0  0  0  0  0  0  0  0  0  0  0  0
  -27.6602  -27.7071   20.5713 N   0  0  0  0  0  0  0  0  0  0  0  0
  -24.3988  -14.7063   21.9768 N   0  0  0  0  0  0  0  0  0  0  0  0
  -24.8782  -29.0322   22.8326 N   0  0  0  0  0  0  0  0  0  0  0  0
  -19.0038  -30.3303   22.1065 N   0  0  0  0  0  0  0  0  0  0  0  0
  -28.5895  -29.2750   19.0585 N   0  0  0  0  0  0  0  0  0  0  0  0
  -30.2004  -25.3224   17.5828 N   0  0  0  0  0  0  0  0  0  0  0  0
  -27.8516  -15.0060   21.1293 N   0  0  0  0  0  0  0  0  0  0  0  0
  -21.8975  -12.4289   22.1005 N   0  0  0  0  0  0  0  0  0  0  0  0
  -22.8996  -28.9662   21.5387 N   0  0  0  0  0  0  0  0  0  0  0  0
  -19.6022  -12.7775   24.8714 N   0  3  0  0  0  0  0  0  0  0  0  0
  -30.2026  -27.5865   17.2191 O   0  0  0  0  0  0  0  0  0  0  0  0
  -25.9336  -15.9727   20.2297 O   0  0  0  0  0  0  0  0  0  0  0  0
  -19.9213  -22.3180   22.4694 O   0  0  0  0  0  0  0  0  0  0  0  0
  -24.7587  -12.4028   21.9521 O   0  0  0  0  0  0  0  0  0  0  0  0
  -20.3736  -14.1244   22.5246 O   0  0  0  0  0  0  0  0  0  0  0  0
  -23.0251  -30.3089   23.3930 O   0  0  0  0  0  0  0  0  0  0  0  0
  -29.1806  -20.3153   19.8020 O   0  0  0  0  0  0  0  0  0  0  0  0
  -20.2437  -24.9451   22.8812 O   0  0  0  0  0  0  0  0  0  0  0  0
  -22.5613  -20.5715   22.5020 O   0  0  0  0  0  0  0  0  0  1  0  0
  -28.8209  -17.7840   14.9166 F   0  0  0  0  0  0  0  0  0  0  0  0
  -27.3079  -18.3284   19.3685 F   0  0  0  0  0  0  0  0  0  0  0  0
  1  2  1  0  0  0  0
  1  5  2  0  0  0  0
  2  6  2  0  0  0  0
  3  8  2  0  0  0  0
  3 17  1  0  0  0  0
  4  9  1  0  0  0  0
  4 17  2  0  0  0  0
  5 20  1  0  0  0  0
  6 22  1  0  0  0  0
  7 10  2  0  0  0  0
  7 21  1  0  0  0  0
  8 26  1  0  0  0  0
  9 26  2  0  0  0  0
 10 27  1  0  0  0  0
 11 12  2  0  0  0  0
 11 28  1  0  0  0  0
 12 30  1  0  0  0  0
 13 18  1  0  0  0  0
 13 29  2  0  0  0  0
 14 23  1  0  0  0  0
 14 27  2  0  0  0  0
 15 24  2  0  0  0  0
 15 29  1  0  0  0  0
 16 30  2  0  0  0  0
 16 31  1  0  0  0  0
 17 32  1  0  0  0  0
 18 25  2  0  0  0  0
 18 35  1  0  0  0  0
 19 32  1  0  0  0  0
 19 33  2  0  0  0  0
 19 38  1  0  0  0  0
 20 22  2  0  0  0  0
 20 44  1  0  0  0  0
 21 23  2  0  0  0  0
 21 45  1  0  0  0  0
 22 53  1  0  0  0  0
 23 46  1  0  0  0  0
 24 25  1  0  0  0  0
 24 65  1  0  0  0  0
 25 73  1  0  0  0  0
 26 86  1  0  0  0  0
 27 88  1  0  0  0  0
 28 31  2  0  0  0  0
 28 86  1  0  0  0  0
 29 87  1  0  0  0  0
 30 89  1  0  0  0  0
 31 90  1  0  0  0  0
 32 69  2  0  0  0  0
 33 70  1  0  0  0  0
 33 74  1  0  0  0  0
 34 36  2  0  0  0  0
 35 37  2  0  0  0  0
 36 37  1  0  0  0  0
 38 75  1  0  0  0  0
 38 80  2  0  0  0  0
 39 54  1  0  0  0  0
 39 76  1  0  0  0  0
 39 81  2  0  0  0  0
 40 62  1  0  0  0  0
 40 63  1  0  0  0  0
 40 82  2  0  0  0  0
 41 66  1  0  0  0  0
 41 71  1  0  0  0  0
 41 83  2  0  0  0  0
 42 67  1  0  0  0  0
 42 77  1  0  0  0  0
 42 84  2  0  0  0  0
 43 72  1  0  0  0  0
 43 78  1  0  0  0  0
 43 85  2  0  0  0  0
 44 47  1  0  0  0  0
 45 54  1  0  0  0  0
 46 71  1  0  0  0  0
 47 49  1  0  0  0  0
 48 50  1  0  0  0  0
 48 51  1  0  0  0  0
 49 53  1  0  0  0  0
 50 55  1  0  0  0  0
 51 72  1  0  0  0  0
 52 55  1  0  0  0  0
 52 72  1  0  0  0  0
 53 76  1  0  0  0  0
 54 71  1  0  0  0  0
 55 70  1  0  0  0  0
 56 65  1  0  0  0  0
 57 67  1  0  0  0  0
 58 68  1  0  0  0  0
 59 68  1  0  0  0  0
 60 68  1  0  0  0  0
 61 79  1  0  0  0  0
 62 64  1  0  0  0  0
 63 87  1  0  0  0  0
 64 88  1  0  0  0  0
 65 78  1  0  0  0  0
 66 68  1  0  0  0  0
 66 77  1  0  0  0  0
 67 79  1  0  0  0  0
 69 70  1  0  0  0  0
M  CHG  1  79   1
M  ISO  4  43 100  64 101  78 100  88 101
M  END
> <Batch ID>
0111

> <Smiles>
C=CC=Cc1cc(OCC(=O)C[101CH2:1][101O:1]c2ccc3c(c2)CN(C(=O)C(NC(=O)C(C)NC)C(C)(C)C)C(C(=O)NC2CCCc4ccccc42)C3)cc(C(C)[100NH:0][100C:0](=O)N2CCCC(n3nc(-c4ccc(Oc5ccc(F)cc5F)cc4)c(C(N)=O)c3N)C2)c1N

> <Shape>
0.270

> <Color>
0.065

> <Negative vol penalty>
0.000

$$$$

  -OEChem-04052301283D

 88 96  0     1  0  0  0  0  0999 V2000
  -20.5410  -25.1642   25.3832 C   0  0  0  0  0  0  0  0  0  0  0  0
  -21.6015  -25.0796   24.4868 C   0  0  0  0  0  0  0  0  0  0  0  0
  -23.1255  -10.6117   20.9499 C   0  0  0  0  0  0  0  0  0  0  0  0
  -24.6804   -9.0602   21.9559 C   0  0  0  0  0  0  0  0  0  0  0  0
  -19.4650  -26.0079   25.1107 C   0  0  0  0  0  0  0  0  0  0  0  0
  -21.5860  -25.8378   23.3166 C   0  0  0  0  0  0  0  0  0  0  0  0
  -26.0338  -28.0757   22.3928 C   0  0  0  0  0  0  0  0  0  0  0  0
  -22.1566   -9.6094   20.9018 C   0  0  0  0  0  0  0  0  0  0  0  0
  -23.7115   -8.0579   21.9079 C   0  0  0  0  0  0  0  0  0  0  0  0
  -27.0468  -27.2819   21.8565 C   0  0  0  0  0  0  0  0  0  0  0  0
  -20.9752   -7.1543   23.6733 C   0  0  0  0  0  0  0  0  0  0  0  0
  -20.8070   -6.3626   24.8092 C   0  0  0  0  0  0  0  0  0  0  0  0
  -30.9820  -20.4258   16.4088 C   0  0  0  0  0  0  0  0  0  0  0  0
  -26.5673  -28.1630   19.6626 C   0  0  0  0  0  0  0  0  0  0  0  0
  -32.7667  -21.9454   15.8232 C   0  0  0  0  0  0  0  0  0  0  0  0
  -21.3626   -4.3958   23.5206 C   0  0  0  0  0  0  0  0  0  0  0  0
  -24.3875  -10.3370   21.4769 C   0  0  0  0  0  0  0  0  0  0  0  0
  -31.8299  -19.3420   16.1807 C   0  0  0  0  0  0  0  0  0  0  0  0
  -25.6194  -12.2824   22.5749 C   0  0  0  0  0  0  0  0  0  0  0  0
  -19.4408  -26.7841   23.9413 C   0  0  0  0  0  0  0  0  0  0  0  0
  -25.2715  -28.9124   21.5650 C   0  0  0  0  0  0  0  0  0  0  0  0
  -20.5080  -26.6917   23.0276 C   0  0  0  0  0  0  0  0  0  0  0  0
  -25.5470  -28.9683   20.1913 C   0  0  0  0  0  0  0  0  0  0  0  0
  -33.6146  -20.8615   15.5952 C   0  0  0  0  0  0  0  0  0  0  0  0
  -31.4504  -21.7275   16.2300 C   0  0  0  0  0  0  0  0  0  0  0  0
  -33.1462  -19.5599   15.7740 C   0  0  0  0  0  0  0  0  0  0  0  0
  -22.4495   -8.3326   21.3808 C   0  0  0  0  0  0  0  0  0  0  0  0
  -27.3117  -27.3233   20.4908 C   0  0  0  0  0  0  0  0  0  0  0  0
  -21.3369   -6.5669   22.4609 C   0  0  0  0  0  0  0  0  0  0  0  0
  -21.0008   -4.9833   24.7329 C   0  0  0  0  0  0  0  0  0  0  0  0
  -21.5307   -5.1877   22.3846 C   0  0  0  0  0  0  0  0  0  0  0  0
  -25.3889  -11.3718   21.5264 C   0  0  0  0  0  0  0  0  0  0  0  0
  -26.6704  -13.0508   22.1376 C   0  0  0  0  0  0  0  0  0  0  0  0
  -31.3015  -17.9806   16.3777 C   0  0  0  0  0  0  0  0  0  0  0  0
  -24.9439  -12.4211   23.8320 C   0  0  0  0  0  0  0  0  0  0  0  0
  -22.1936  -29.1056   20.7950 C   0  0  0  0  0  0  0  0  0  0  0  0
  -28.7909  -24.7623   18.4052 C   0  0  0  0  0  0  0  0  0  0  0  0
  -23.1485  -31.7971   19.2566 C   0  0  0  0  0  0  0  0  0  0  0  0
  -29.2646  -22.7914   16.8736 C   0  0  0  0  0  0  0  0  0  0  0  0
  -25.6785  -33.5458   17.7775 C   0  0  0  0  0  0  0  0  0  0  0  0
  -29.0155  -16.0474   18.1839 C   0  0  0  0  0  0  0  0  0  0  0  0
  -18.2339  -27.6460   23.6670 C   0  0  0  0  0  0  0  0  0  0  0  0
  -24.2002  -29.7824   22.1632 C   0  0  0  0  0  0  0  0  0  0  0  0
  -24.7709  -29.8649   19.2628 C   0  0  0  0  0  0  0  0  0  0  0  0
  -18.4698  -28.6982   22.5864 C   0  0  0  0  0  0  0  0  0  0  0  0
  -29.7723  -12.4680   18.1980 C   0  0  0  0  0  0  0  0  0  0  0  0
  -19.1633  -28.0765   21.3783 C   0  0  0  0  0  0  0  0  0  0  0  0
  -28.6893  -11.9377   19.1354 C   0  0  0  0  0  0  0  0  0  0  0  0
  -29.2654  -13.6318   17.3481 C   0  0  0  0  0  0  0  0  0  0  0  0
  -27.6032  -14.2210   19.0801 C   0  0  0  0  0  0  0  0  0  0  0  0
  -20.5393  -27.5170   21.7595 C   0  0  1  0  0  0  0  0  0  0  0  0
  -23.1451  -30.2134   21.1490 C   0  0  1  0  0  0  0  0  0  0  0  0
  -28.0900  -13.0739   19.9807 C   0  0  1  0  0  0  0  0  0  0  0  0
  -35.0190  -21.1265   15.1580 C   0  0  0  0  0  0  0  0  0  0  0  0
  -26.1451  -35.6993   16.5765 C   0  0  0  0  0  0  0  0  0  0  0  0
  -21.8279  -30.6789   16.7435 C   0  0  0  0  0  0  0  0  0  0  0  0
  -23.1154  -32.3573   15.4044 C   0  0  0  0  0  0  0  0  0  0  0  0
  -21.4666  -33.1261   17.1111 C   0  0  0  0  0  0  0  0  0  0  0  0
  -27.6095  -34.4151   19.8449 C   0  0  0  0  0  0  0  0  0  0  0  0
  -28.6717  -24.1804   17.0119 C   0  0  0  0  0  0  0  0  0  0  0  0
  -28.1326  -26.1107   18.6168 C   0  0  0  0  0  0  0  0  0  1  0  0
  -23.6552  -32.1133   17.8701 C   0  0  1  0  0  0  0  0  0  0  0  0
  -26.1232  -34.9901   17.9216 C   0  0  2  0  0  0  0  0  0  0  0  0
  -22.5298  -32.0505   16.7992 C   0  0  0  0  0  0  0  0  0  0  0  0
  -26.2261  -11.5445   20.5001 N   0  0  0  0  0  0  0  0  0  0  0  0
  -30.3721  -17.7257   17.2404 N   0  0  0  0  0  0  0  0  0  0  0  0
  -26.9928  -12.5726   20.9016 N   0  0  0  0  0  0  0  0  0  0  0  0
  -23.7293  -30.6917   19.8944 N   0  0  0  0  0  0  0  0  0  0  0  0
  -28.6749  -14.6834   18.1899 N   0  0  0  0  0  0  0  0  0  0  0  0
  -34.0080  -18.4625   15.5416 N   0  0  0  0  0  0  0  0  0  0  0  0
  -27.3410  -14.0822   22.6934 N   0  0  0  0  0  0  0  0  0  0  0  0
  -23.8854  -11.5492   24.1215 N   0  0  0  0  0  0  0  0  0  0  0  0
  -30.5901  -22.8277   16.4608 N   0  0  0  0  0  0  0  0  0  0  0  0
  -21.5057  -28.5880   21.8759 N   0  0  0  0  0  0  0  0  0  0  0  0
  -24.3192  -33.4090   17.9639 N   0  0  0  0  0  0  0  0  0  0  0  0
  -30.0061  -16.4205   17.2888 N   0  0  0  0  0  0  0  0  0  0  0  0
  -27.4913  -35.0546   18.5092 N   0  3  0  0  0  0  0  0  0  0  0  0
  -25.2585  -13.3031   24.6666 O   0  0  0  0  0  0  0  0  0  0  0  0
  -22.0901  -28.7482   19.6275 O   0  0  0  0  0  0  0  0  0  0  0  0
  -29.3908  -24.1820   19.3090 O   0  0  0  0  0  0  0  0  0  0  0  0
  -22.2748  -32.5090   19.7581 O   0  0  0  0  0  0  0  0  0  0  0  0
  -28.5901  -21.8013   17.1440 O   0  0  0  0  0  0  0  0  0  0  0  0
  -26.4584  -32.6311   17.5212 O   0  0  0  0  0  0  0  0  0  0  0  0
  -28.4715  -16.8743   18.9248 O   0  0  0  0  0  0  0  0  0  0  0  0
  -21.5042   -7.3544   21.3342 O   0  0  0  0  0  0  0  0  0  0  0  0
  -28.2994  -26.5490   19.9646 O   0  0  0  0  0  0  0  0  0  1  0  0
  -20.8408   -4.2233   25.8242 F   0  0  0  0  0  0  0  0  0  0  0  0
  -21.8795   -4.6177   21.2230 F   0  0  0  0  0  0  0  0  0  0  0  0
  1  2  1  0  0  0  0
  1  5  2  0  0  0  0
  2  6  2  0  0  0  0
  3  8  2  0  0  0  0
  3 17  1  0  0  0  0
  4  9  1  0  0  0  0
  4 17  2  0  0  0  0
  5 20  1  0  0  0  0
  6 22  1  0  0  0  0
  7 10  2  0  0  0  0
  7 21  1  0  0  0  0
  8 27  1  0  0  0  0
  9 27  2  0  0  0  0
 10 28  1  0  0  0  0
 11 12  2  0  0  0  0
 11 29  1  0  0  0  0
 12 30  1  0  0  0  0
 13 18  1  0  0  0  0
 13 25  2  0  0  0  0
 14 23  1  0  0  0  0
 14 28  2  0  0  0  0
 15 24  2  0  0  0  0
 15 25  1  0  0  0  0
 16 30  2  0  0  0  0
 16 31  1  0  0  0  0
 17 32  1  0  0  0  0
 18 26  2  0  0  0  0
 18 34  1  0  0  0  0
 19 32  1  0  0  0  0
 19 33  2  0  0  0  0
 19 35  1  0  0  0  0
 20 22  2  0  0  0  0
 20 42  1  0  0  0  0
 21 23  2  0  0  0  0
 21 43  1  0  0  0  0
 22 51  1  0  0  0  0
 23 44  1  0  0  0  0
 24 26  1  0  0  0  0
 24 54  1  0  0  0  0
 25 73  1  0  0  0  0
 26 70  1  0  0  0  0
 27 85  1  0  0  0  0
 28 86  1  0  0  0  0
 29 31  2  0  0  0  0
 29 85  1  0  0  0  0
 30 87  1  0  0  0  0
 31 88  1  0  0  0  0
 32 65  2  0  0  0  0
 33 67  1  0  0  0  0
 33 71  1  0  0  0  0
 34 66  2  0  0  0  0
 35 72  1  0  0  0  0
 35 78  2  0  0  0  0
 36 52  1  0  0  0  0
 36 74  1  0  0  0  0
 36 79  2  0  0  0  0
 37 60  1  0  0  0  0
 37 61  1  0  0  0  0
 37 80  2  0  0  0  0
 38 62  1  0  0  0  0
 38 68  1  0  0  0  0
 38 81  2  0  0  0  0
 39 60  1  0  0  0  0
 39 73  1  0  0  0  0
 39 82  2  0  0  0  0
 40 63  1  0  0  0  0
 40 75  1  0  0  0  0
 40 83  2  0  0  0  0
 41 69  1  0  0  0  0
 41 76  1  0  0  0  0
 41 84  2  0  0  0  0
 42 45  1  0  0  0  0
 43 52  1  0  0  0  0
 44 68  1  0  0  0  0
 45 47  1  0  0  0  0
 46 48  1  0  0  0  0
 46 49  1  0  0  0  0
 47 51  1  0  0  0  0
 48 53  1  0  0  0  0
 49 69  1  0  0  0  0
 50 53  1  0  0  0  0
 50 69  1  0  0  0  0
 51 74  1  0  0  0  0
 52 68  1  0  0  0  0
 53 67  1  0  0  0  0
 55 63  1  0  0  0  0
 56 64  1  0  0  0  0
 57 64  1  0  0  0  0
 58 64  1  0  0  0  0
 59 77  1  0  0  0  0
 61 86  1  0  0  0  0
 62 64  1  0  0  0  0
 62 75  1  0  0  0  0
 63 77  1  0  0  0  0
 65 67  1  0  0  0  0
 66 76  1  0  0  0  0
M  CHG  1  77   1
M  ISO  4  41 100  61 101  76 100  86 101
M  END
> <Batch ID>
0111

> <Smiles>
CNC(C)C(=O)NC(C(=O)N1Cc2cc([101O:1][101CH2:1]C(=O)CC(=O)Nc3cc(C)c(N)c(C=N[100NH:0][100C:0](=O)N4CCCC(n5nc(-c6ccc(Oc7ccc(F)cc7F)cc6)c(C(N)=O)c5N)C4)c3)ccc2CC1C(=O)NC1CCCc2ccccc21)C(C)(C)C

> <Shape>
0.257

> <Color>
0.136

> <Negative vol penalty>
0.000

$$$$

  -OEChem-04052301283D

 86 94  0     1  0  0  0  0  0999 V2000
  -24.3937  -37.3664   20.4904 C   0  0  0  0  0  0  0  0  0  0  0  0
  -25.2372  -36.3050   20.1785 C   0  0  0  0  0  0  0  0  0  0  0  0
  -25.3746   -9.9473   22.8472 C   0  0  0  0  0  0  0  0  0  0  0  0
  -23.8601   -9.2734   21.0896 C   0  0  0  0  0  0  0  0  0  0  0  0
  -23.5285  -37.2710   21.5795 C   0  0  0  0  0  0  0  0  0  0  0  0
  -25.2166  -35.1477   20.9563 C   0  0  0  0  0  0  0  0  0  0  0  0
  -26.0617  -29.3981   19.0242 C   0  0  0  0  0  0  0  0  0  0  0  0
  -25.2534   -8.6880   23.4345 C   0  0  0  0  0  0  0  0  0  0  0  0
  -23.7389   -8.0141   21.6769 C   0  0  0  0  0  0  0  0  0  0  0  0
  -27.1747  -28.5586   19.0362 C   0  0  0  0  0  0  0  0  0  0  0  0
  -22.0673   -6.6228   24.2655 C   0  0  0  0  0  0  0  0  0  0  0  0
  -20.7871   -6.0806   24.3777 C   0  0  0  0  0  0  0  0  0  0  0  0
  -26.3926  -27.5610   21.0886 C   0  0  0  0  0  0  0  0  0  0  0  0
  -21.4654   -4.1987   23.0229 C   0  0  0  0  0  0  0  0  0  0  0  0
  -24.6779  -10.2401   21.6747 C   0  0  0  0  0  0  0  0  0  0  0  0
  -25.7446  -11.9418   20.1019 C   0  0  0  0  0  0  0  0  0  0  0  0
  -23.4904  -36.1082   22.3652 C   0  0  0  0  0  0  0  0  0  0  0  0
  -25.1098  -29.3328   20.0518 C   0  0  0  0  0  0  0  0  0  0  0  0
  -24.3510  -35.0372   22.0577 C   0  0  0  0  0  0  0  0  0  0  0  0
  -25.2671  -28.3990   21.0859 C   0  0  0  0  0  0  0  0  0  0  0  0
  -24.4356   -7.7214   22.8494 C   0  0  0  0  0  0  0  0  0  0  0  0
  -27.3418  -27.6418   20.0700 C   0  0  0  0  0  0  0  0  0  0  0  0
  -23.0466   -5.9530   23.5319 C   0  0  0  0  0  0  0  0  0  0  0  0
  -20.4861   -4.8685   23.7565 C   0  0  0  0  0  0  0  0  0  0  0  0
  -22.7456   -4.7410   22.9107 C   0  0  0  0  0  0  0  0  0  0  0  0
  -24.8023  -11.5410   21.0679 C   0  0  0  0  0  0  0  0  0  0  0  0
  -27.5909  -19.3068   20.4750 C   0  0  0  0  0  0  0  0  0  0  0  0
  -25.4439  -13.2590   19.8548 C   0  0  0  0  0  0  0  0  0  0  0  0
  -28.4506  -20.3113   20.0824 C   0  0  0  0  0  0  0  0  0  0  0  0
  -29.4099  -18.1065   20.2285 C   0  0  0  0  0  0  0  0  0  0  0  0
  -26.7975  -11.1907   19.4832 C   0  0  0  0  0  0  0  0  0  0  0  0
  -26.1561  -19.5150   20.7989 C   0  0  0  0  0  0  0  0  0  0  0  0
  -24.0473  -31.3601   22.2574 C   0  0  0  0  0  0  0  0  0  0  0  0
  -21.9339  -28.9768   22.8704 C   0  0  0  0  0  0  0  0  0  0  0  0
  -29.2285  -22.6295   19.4797 C   0  0  0  0  0  0  0  0  0  0  0  0
  -21.1936  -25.6491   22.7116 C   0  0  0  0  0  0  0  0  0  0  0  0
  -24.1074  -18.3572   21.5642 C   0  0  0  0  0  0  0  0  0  0  0  0
  -22.5720  -36.0699   23.5610 C   0  0  0  0  0  0  0  0  0  0  0  0
  -23.9009  -30.2269   20.0101 C   0  0  0  0  0  0  0  0  0  0  0  0
  -24.2633  -28.2752   22.2020 C   0  0  0  0  0  0  0  0  0  0  0  0
  -22.3444  -34.6635   24.1093 C   0  0  0  0  0  0  0  0  0  0  0  0
  -21.4507  -16.0467   21.2466 C   0  0  0  0  0  0  0  0  0  0  0  0
  -23.6693  -33.9175   24.2320 C   0  0  0  0  0  0  0  0  0  0  0  0
  -22.1609  -14.7000   21.0840 C   0  0  0  0  0  0  0  0  0  0  0  0
  -22.1770  -16.9551   22.2377 C   0  0  0  0  0  0  0  0  0  0  0  0
  -24.3124  -15.8085   21.8093 C   0  0  0  0  0  0  0  0  0  0  0  0
  -24.3402  -33.7557   22.8626 C   0  0  1  0  0  0  0  0  0  0  0  0
  -23.2598  -30.4290   21.3796 C   0  0  1  0  0  0  0  0  0  0  0  0
  -23.6588  -14.8848   20.7687 C   0  0  1  0  0  0  0  0  0  0  0  0
  -19.4081  -23.9967   23.3272 C   0  0  0  0  0  0  0  0  0  0  0  0
  -22.8143  -29.1164   25.7885 C   0  0  0  0  0  0  0  0  0  0  0  0
  -21.7444  -26.8811   26.1456 C   0  0  0  0  0  0  0  0  0  0  0  0
  -20.3522  -28.8321   25.4541 C   0  0  0  0  0  0  0  0  0  0  0  0
  -29.8637  -15.6731   20.5423 C   0  0  0  0  0  0  0  0  0  0  0  0
  -20.7778  -24.8704   19.8868 C   0  0  0  0  0  0  0  0  0  0  0  0
  -28.6164  -24.0204   19.3892 C   0  0  0  0  0  0  0  0  0  0  0  0
  -29.6233  -25.0779   18.9503 C   0  0  0  0  0  0  0  0  0  0  0  0
  -28.9777  -26.4499   18.8213 C   0  0  0  0  0  0  0  0  0  1  0  0
  -21.9172  -27.7696   23.7767 C   0  0  1  0  0  0  0  0  0  0  0  0
  -19.9502  -24.9151   22.2430 C   0  0  2  0  0  0  0  0  0  0  0  0
  -21.7271  -28.1532   25.2714 C   0  0  0  0  0  0  0  0  0  0  0  0
  -23.9657  -12.5240   21.4112 N   0  0  0  0  0  0  0  0  0  0  0  0
  -28.1391  -18.0418   20.5589 N   0  0  0  0  0  0  0  0  0  0  0  0
  -24.3814  -13.5556   20.6568 N   0  0  0  0  0  0  0  0  0  0  0  0
  -23.1015  -29.1757   22.1201 N   0  0  0  0  0  0  0  0  0  0  0  0
  -23.5863  -17.0863   21.8637 N   0  0  0  0  0  0  0  0  0  0  0  0
  -25.9874  -14.1809   19.0319 N   0  0  0  0  0  0  0  0  0  0  0  0
  -26.9672   -9.8493   19.8523 N   0  0  0  0  0  0  0  0  0  0  0  0
  -28.2729  -21.7010   19.8830 N   0  0  0  0  0  0  0  0  0  0  0  0
  -30.2504  -17.0382   20.2045 N   0  0  0  0  0  0  0  0  0  0  0  0
  -25.4520  -18.3715   21.1768 N   0  0  0  0  0  0  0  0  0  0  0  0
  -23.7078  -32.6917   22.1125 N   0  0  0  0  0  0  0  0  0  0  0  0
  -20.8867  -26.8798   23.2524 N   0  0  0  0  0  0  0  0  0  0  0  0
  -20.2576  -24.0913   21.0397 N   0  3  0  0  0  0  0  0  0  0  0  0
  -27.5755  -11.6987   18.6404 O   0  0  0  0  0  0  0  0  0  0  0  0
  -25.6923  -20.6512   20.7566 O   0  0  0  0  0  0  0  0  0  0  0  0
  -24.8988  -30.9040   23.0114 O   0  0  0  0  0  0  0  0  0  0  0  0
  -20.9445  -29.7121   22.8244 O   0  0  0  0  0  0  0  0  0  0  0  0
  -30.4087  -22.4193   19.2203 O   0  0  0  0  0  0  0  0  0  0  0  0
  -22.3237  -25.1764   22.6116 O   0  0  0  0  0  0  0  0  0  0  0  0
  -23.4249  -19.3858   21.6012 O   0  0  0  0  0  0  0  0  0  0  0  0
  -24.3173   -6.4923   23.4221 O   0  0  0  0  0  0  0  0  0  0  0  0
  -28.4276  -26.8217   20.0845 O   0  0  0  0  0  0  0  0  0  1  0  0
  -19.2571   -4.3471   23.8656 F   0  0  0  0  0  0  0  0  0  0  0  0
  -23.6826   -4.0923   22.2056 F   0  0  0  0  0  0  0  0  0  0  0  0
  -30.0118  -19.6571   19.8064 S   0  0  0  0  0  0  0  0  0  0  0  0
  1  2  1  0  0  0  0
  1  5  2  0  0  0  0
  2  6  2  0  0  0  0
  3  8  2  0  0  0  0
  3 15  1  0  0  0  0
  4  9  1  0  0  0  0
  4 15  2  0  0  0  0
  5 17  1  0  0  0  0
  6 19  1  0  0  0  0
  7 10  2  0  0  0  0
  7 18  1  0  0  0  0
  8 21  1  0  0  0  0
  9 21  2  0  0  0  0
 10 22  1  0  0  0  0
 11 12  2  0  0  0  0
 11 23  1  0  0  0  0
 12 24  1  0  0  0  0
 13 20  1  0  0  0  0
 13 22  2  0  0  0  0
 14 24  2  0  0  0  0
 14 25  1  0  0  0  0
 15 26  1  0  0  0  0
 16 26  1  0  0  0  0
 16 28  2  0  0  0  0
 16 31  1  0  0  0  0
 17 19  2  0  0  0  0
 17 38  1  0  0  0  0
 18 20  2  0  0  0  0
 18 39  1  0  0  0  0
 19 47  1  0  0  0  0
 20 40  1  0  0  0  0
 21 82  1  0  0  0  0
 22 83  1  0  0  0  0
 23 25  2  0  0  0  0
 23 82  1  0  0  0  0
 24 84  1  0  0  0  0
 25 85  1  0  0  0  0
 26 62  2  0  0  0  0
 27 29  2  0  0  0  0
 27 32  1  0  0  0  0
 27 63  1  0  0  0  0
 28 64  1  0  0  0  0
 28 67  1  0  0  0  0
 29 69  1  0  0  0  0
 29 86  1  0  0  0  0
 30 63  2  0  0  0  0
 30 70  1  0  0  0  0
 30 86  1  0  0  0  0
 31 68  1  0  0  0  0
 31 75  2  0  0  0  0
 32 71  1  0  0  0  0
 32 76  2  0  0  0  0
 33 48  1  0  0  0  0
 33 72  1  0  0  0  0
 33 77  2  0  0  0  0
 34 59  1  0  0  0  0
 34 65  1  0  0  0  0
 34 78  2  0  0  0  0
 35 56  1  0  0  0  0
 35 69  1  0  0  0  0
 35 79  2  0  0  0  0
 36 60  1  0  0  0  0
 36 73  1  0  0  0  0
 36 80  2  0  0  0  0
 37 66  1  0  0  0  0
 37 71  1  0  0  0  0
 37 81  2  0  0  0  0
 38 41  1  0  0  0  0
 39 48  1  0  0  0  0
 40 65  1  0  0  0  0
 41 43  1  0  0  0  0
 42 44  1  0  0  0  0
 42 45  1  0  0  0  0
 43 47  1  0  0  0  0
 44 49  1  0  0  0  0
 45 66  1  0  0  0  0
 46 49  1  0  0  0  0
 46 66  1  0  0  0  0
 47 72  1  0  0  0  0
 48 65  1  0  0  0  0
 49 64  1  0  0  0  0
 50 60  1  0  0  0  0
 51 61  1  0  0  0  0
 52 61  1  0  0  0  0
 53 61  1  0  0  0  0
 54 70  1  0  0  0  0
 55 74  1  0  0  0  0
 56 57  1  0  0  0  0
 57 58  1  0  0  0  0
 58 83  1  0  0  0  0
 59 61  1  0  0  0  0
 59 73  1  0  0  0  0
 60 74  1  0  0  0  0
 62 64  1  0  0  0  0
M  CHG  1  74   1
M  ISO  4  37 100  58 101  71 100  83 101
M  END
> <Batch ID>
0111

> <Smiles>
CNc1nc(C(=O)[100NH:0][100C:0](=O)N2CCCC(n3nc(-c4ccc(Oc5ccc(F)cc5F)cc4)c(C(N)=O)c3N)C2)c(NC(=O)CC[101CH2:1][101O:1]c2ccc3c(c2)CN(C(=O)C(NC(=O)C(C)NC)C(C)(C)C)C(C(=O)NC2CCCc4ccccc42)C3)s1

> <Shape>
0.303

> <Color>
0.079

> <Negative vol penalty>
0.000

$$$$

  -OEChem-04052301283D

 85 93  0     1  0  0  0  0  0999 V2000
  -26.9068  -17.9780   16.8373 C   0  0  0  0  0  0  0  0  0  0  0  0
  -26.5852  -19.2544   16.3870 C   0  0  0  0  0  0  0  0  0  0  0  0
  -23.1483  -13.9359   21.3731 C   0  0  0  0  0  0  0  0  0  0  0  0
  -25.0287  -14.9316   22.5176 C   0  0  0  0  0  0  0  0  0  0  0  0
  -27.0769  -17.7435   18.2011 C   0  0  0  0  0  0  0  0  0  0  0  0
  -26.4324  -20.2968   17.3004 C   0  0  0  0  0  0  0  0  0  0  0  0
  -27.4306  -27.3629   17.9256 C   0  0  0  0  0  0  0  0  0  0  0  0
  -23.9902  -12.9607   20.8383 C   0  0  0  0  0  0  0  0  0  0  0  0
  -25.8705  -13.9564   21.9829 C   0  0  0  0  0  0  0  0  0  0  0  0
  -26.7432  -28.5197   18.2903 C   0  0  0  0  0  0  0  0  0  0  0  0
  -28.5782  -11.9430   20.6322 C   0  0  0  0  0  0  0  0  0  0  0  0
  -29.8013  -12.3596   20.1067 C   0  0  0  0  0  0  0  0  0  0  0  0
  -27.1390  -28.0145   20.6157 C   0  0  0  0  0  0  0  0  0  0  0  0
  -20.9431  -27.1368   23.0872 C   0  0  0  0  0  0  0  0  0  0  0  0
  -18.8453  -26.0564   22.5689 C   0  0  0  0  0  0  0  0  0  0  0  0
  -19.2889  -28.2872   21.7541 C   0  0  0  0  0  0  0  0  0  0  0  0
  -28.6408  -13.7573   18.5140 C   0  0  0  0  0  0  0  0  0  0  0  0
  -23.6676  -14.9214   22.2127 C   0  0  0  0  0  0  0  0  0  0  0  0
  -22.0911  -15.8686   23.9805 C   0  0  0  0  0  0  0  0  0  0  0  0
  -26.9357  -18.7857   19.1309 C   0  0  0  0  0  0  0  0  0  0  0  0
  -27.9689  -26.5161   18.9052 C   0  0  0  0  0  0  0  0  0  0  0  0
  -26.5995  -20.0758   18.6781 C   0  0  0  0  0  0  0  0  0  0  0  0
  -27.8351  -26.8489   20.2607 C   0  0  0  0  0  0  0  0  0  0  0  0
  -20.0960  -26.0331   23.1861 C   0  0  0  0  0  0  0  0  0  0  0  0
  -20.5396  -28.2639   22.3712 C   0  0  0  0  0  0  0  0  0  0  0  0
  -25.3513  -12.9709   21.1433 C   0  0  0  0  0  0  0  0  0  0  0  0
  -26.5947  -28.8441   19.6356 C   0  0  0  0  0  0  0  0  0  0  0  0
  -27.3864  -12.4334   20.0985 C   0  0  0  0  0  0  0  0  0  0  0  0
  -29.8326  -13.2668   19.0476 C   0  0  0  0  0  0  0  0  0  0  0  0
  -18.4417  -27.1834   21.8529 C   0  0  0  0  0  0  0  0  0  0  0  0
  -27.4177  -13.3406   19.0394 C   0  0  0  0  0  0  0  0  0  0  0  0
  -22.7986  -15.9293   22.7649 C   0  0  0  0  0  0  0  0  0  0  0  0
  -21.4187  -17.0644   24.0465 C   0  0  0  0  0  0  0  0  0  0  0  0
  -22.0458  -14.8246   24.9622 C   0  0  0  0  0  0  0  0  0  0  0  0
  -27.4941  -23.4926   19.7635 C   0  0  0  0  0  0  0  0  0  0  0  0
  -30.0055  -24.0660   21.7349 C   0  0  0  0  0  0  0  0  0  0  0  0
  -22.6696  -29.5305   22.8198 C   0  0  0  0  0  0  0  0  0  0  0  0
  -31.8840  -26.3439   23.4464 C   0  0  0  0  0  0  0  0  0  0  0  0
  -21.3541  -22.5169   23.5851 C   0  0  0  0  0  0  0  0  0  0  0  0
  -27.0828  -18.4736   20.5991 C   0  0  0  0  0  0  0  0  0  0  0  0
  -28.7308  -25.2860   18.4945 C   0  0  0  0  0  0  0  0  0  0  0  0
  -28.4118  -25.9838   21.3504 C   0  0  0  0  0  0  0  0  0  0  0  0
  -27.2717  -19.7134   21.4694 C   0  0  0  0  0  0  0  0  0  0  0  0
  -20.7256  -20.6520   20.5479 C   0  0  0  0  0  0  0  0  0  0  0  0
  -26.2606  -20.7908   21.0905 C   0  0  0  0  0  0  0  0  0  0  0  0
  -21.1546  -19.2431   20.9618 C   0  0  0  0  0  0  0  0  0  0  0  0
  -21.6359  -21.7104   21.1638 C   0  0  0  0  0  0  0  0  0  0  0  0
  -22.1712  -20.2357   23.0645 C   0  0  0  0  0  0  0  0  0  0  0  0
  -26.4498  -21.2378   19.6359 C   0  0  1  0  0  0  0  0  0  0  0  0
  -28.7932  -24.2277   19.5916 C   0  0  1  0  0  0  0  0  0  0  0  0
  -21.2762  -19.1214   22.4924 C   0  0  2  0  0  0  0  0  0  0  0  0
  -33.8473  -26.5083   25.0007 C   0  0  0  0  0  0  0  0  0  0  0  0
  -28.2624  -23.0803   24.0371 C   0  0  0  0  0  0  0  0  0  0  0  0
  -29.8826  -24.1391   25.6252 C   0  0  0  0  0  0  0  0  0  0  0  0
  -30.6370  -22.2998   24.1182 C   0  0  0  0  0  0  0  0  0  0  0  0
  -33.4144  -27.9949   21.5253 C   0  0  0  0  0  0  0  0  0  0  0  0
  -20.5273  -24.8276   23.9510 C   0  0  0  0  0  0  0  0  0  0  0  0
  -23.2477  -30.8949   22.4705 C   0  0  0  0  0  0  0  0  0  0  0  0
  -24.0379  -30.8816   21.1665 C   0  0  0  0  0  0  0  0  0  0  0  0
  -25.2386  -29.9502   21.2461 C   0  0  0  0  0  0  0  0  0  1  0  0
  -30.1618  -24.5841   23.1442 C   0  0  1  0  0  0  0  0  0  0  0  0
  -33.3863  -26.5350   23.5518 C   0  0  2  0  0  0  0  0  0  0  0  0
  -29.7233  -23.5413   24.2109 C   0  0  0  0  0  0  0  0  0  0  0  0
  -22.5945  -17.0731   22.1061 N   0  0  0  0  0  0  0  0  0  0  0  0
  -21.7511  -17.7422   22.9106 N   0  0  0  0  0  0  0  0  0  0  0  0
  -29.1427  -24.7883   20.8984 N   0  0  0  0  0  0  0  0  0  0  0  0
  -21.6935  -21.5505   22.6237 N   0  0  0  0  0  0  0  0  0  0  0  0
  -20.5814  -17.5917   24.9649 N   0  0  0  0  0  0  0  0  0  0  0  0
  -22.7970  -13.6629   24.7372 N   0  0  0  0  0  0  0  0  0  0  0  0
  -21.3987  -29.3840   22.2710 N   0  0  0  0  0  0  0  0  0  0  0  0
  -27.5807  -22.1341   19.5256 N   0  0  0  0  0  0  0  0  0  0  0  0
  -31.5490  -25.0183   23.2680 N   0  0  0  0  0  0  0  0  0  0  0  0
  -20.9174  -23.7375   23.0848 N   0  0  0  0  0  0  0  0  0  0  0  0
  -33.7853  -27.8413   22.9556 N   0  3  0  0  0  0  0  0  0  0  0  0
  -21.3467  -14.9123   26.0000 O   0  0  0  0  0  0  0  0  0  0  0  0
  -26.4881  -24.1117   20.0893 O   0  0  0  0  0  0  0  0  0  0  0  0
  -30.6315  -23.0618   21.3868 O   0  0  0  0  0  0  0  0  0  0  0  0
  -23.2876  -28.7152   23.4963 O   0  0  0  0  0  0  0  0  0  0  0  0
  -31.0871  -27.2768   23.5192 O   0  0  0  0  0  0  0  0  0  0  0  0
  -21.4295  -22.3058   24.8004 O   0  0  0  0  0  0  0  0  0  0  0  0
  -26.1730  -12.0194   20.6218 O   0  0  0  0  0  0  0  0  0  0  0  0
  -25.9236  -29.9723   19.9944 O   0  0  0  0  0  0  0  0  0  1  0  0
  -31.0072  -13.6680   18.5441 F   0  0  0  0  0  0  0  0  0  0  0  0
  -17.2407  -27.2056   21.2603 F   0  0  0  0  0  0  0  0  0  0  0  0
  -26.2761  -13.8162   18.5234 F   0  0  0  0  0  0  0  0  0  0  0  0
  1  2  1  0  0  0  0
  1  5  2  0  0  0  0
  2  6  2  0  0  0  0
  3  8  2  0  0  0  0
  3 18  1  0  0  0  0
  4  9  1  0  0  0  0
  4 18  2  0  0  0  0
  5 20  1  0  0  0  0
  6 22  1  0  0  0  0
  7 10  2  0  0  0  0
  7 21  1  0  0  0  0
  8 26  1  0  0  0  0
  9 26  2  0  0  0  0
 10 27  1  0  0  0  0
 11 12  2  0  0  0  0
 11 28  1  0  0  0  0
 12 29  1  0  0  0  0
 13 23  1  0  0  0  0
 13 27  2  0  0  0  0
 14 24  1  0  0  0  0
 14 25  2  0  0  0  0
 15 24  2  0  0  0  0
 15 30  1  0  0  0  0
 16 25  1  0  0  0  0
 16 30  2  0  0  0  0
 17 29  2  0  0  0  0
 17 31  1  0  0  0  0
 18 32  1  0  0  0  0
 19 32  1  0  0  0  0
 19 33  2  0  0  0  0
 19 34  1  0  0  0  0
 20 22  2  0  0  0  0
 20 40  1  0  0  0  0
 21 23  2  0  0  0  0
 21 41  1  0  0  0  0
 22 49  1  0  0  0  0
 23 42  1  0  0  0  0
 24 57  1  0  0  0  0
 25 70  1  0  0  0  0
 26 81  1  0  0  0  0
 27 82  1  0  0  0  0
 28 31  2  0  0  0  0
 28 81  1  0  0  0  0
 29 83  1  0  0  0  0
 30 84  1  0  0  0  0
 31 85  1  0  0  0  0
 32 64  2  0  0  0  0
 33 65  1  0  0  0  0
 33 68  1  0  0  0  0
 34 69  1  0  0  0  0
 34 75  2  0  0  0  0
 35 50  1  0  0  0  0
 35 71  1  0  0  0  0
 35 76  2  0  0  0  0
 36 61  1  0  0  0  0
 36 66  1  0  0  0  0
 36 77  2  0  0  0  0
 37 58  1  0  0  0  0
 37 70  1  0  0  0  0
 37 78  2  0  0  0  0
 38 62  1  0  0  0  0
 38 72  1  0  0  0  0
 38 79  2  0  0  0  0
 39 67  1  0  0  0  0
 39 73  1  0  0  0  0
 39 80  2  0  0  0  0
 40 43  1  0  0  0  0
 41 50  1  0  0  0  0
 42 66  1  0  0  0  0
 43 45  1  0  0  0  0
 44 46  1  0  0  0  0
 44 47  1  0  0  0  0
 45 49  1  0  0  0  0
 46 51  1  0  0  0  0
 47 67  1  0  0  0  0
 48 51  1  0  0  0  0
 48 67  1  0  0  0  0
 49 71  1  0  0  0  0
 50 66  1  0  0  0  0
 51 65  1  0  0  0  0
 52 62  1  0  0  0  0
 53 63  1  0  0  0  0
 54 63  1  0  0  0  0
 55 63  1  0  0  0  0
 56 74  1  0  0  0  0
 57 73  1  0  0  0  0
 58 59  1  0  0  0  0
 59 60  1  0  0  0  0
 60 82  1  0  0  0  0
 61 63  1  0  0  0  0
 61 72  1  0  0  0  0
 62 74  1  0  0  0  0
 64 65  1  0  0  0  0
M  CHG  1  74   1
M  ISO  4  39 100  60 101  73 100  82 101
M  END
> <Batch ID>
0111

> <Smiles>
CNC(C)C(=O)NC(C(=O)N1Cc2cc([101O:1][101CH2:1]CCC(=O)Nc3cc(F)cc(C[100NH:0][100C:0](=O)N4CCCC(n5nc(-c6ccc(Oc7ccc(F)cc7F)cc6)c(C(N)=O)c5N)C4)c3)ccc2CC1C(=O)NC1CCCc2ccccc21)C(C)(C)C

> <Shape>
0.202

> <Color>
0.085

> <Negative vol penalty>
0.000

$$$$

  -OEChem-04052301283D

 83 91  0     1  0  0  0  0  0999 V2000
  -28.8521  -11.4241   19.4794 C   0  0  0  0  0  0  0  0  0  0  0  0
  -28.9361  -12.7773   19.1676 C   0  0  0  0  0  0  0  0  0  0  0  0
  -21.1689  -25.9005   17.8213 C   0  0  0  0  0  0  0  0  0  0  0  0
  -22.4275  -24.5177   19.3514 C   0  0  0  0  0  0  0  0  0  0  0  0
  -27.6625  -10.8982   19.9817 C   0  0  0  0  0  0  0  0  0  0  0  0
  -27.8301  -13.6052   19.3569 C   0  0  0  0  0  0  0  0  0  0  0  0
  -29.0462  -17.9966   21.5664 C   0  0  0  0  0  0  0  0  0  0  0  0
  -21.0258  -24.8146   16.9577 C   0  0  0  0  0  0  0  0  0  0  0  0
  -22.2843  -23.4318   18.4878 C   0  0  0  0  0  0  0  0  0  0  0  0
  -29.6309  -18.9737   20.7620 C   0  0  0  0  0  0  0  0  0  0  0  0
  -23.6952  -22.3254   15.6214 C   0  0  0  0  0  0  0  0  0  0  0  0
  -24.8241  -21.5470   15.3664 C   0  0  0  0  0  0  0  0  0  0  0  0
  -27.4981  -20.0848   20.5719 C   0  0  0  0  0  0  0  0  0  0  0  0
  -23.6909  -19.6102   16.2618 C   0  0  0  0  0  0  0  0  0  0  0  0
  -29.3881  -28.2327   20.6207 C   0  0  0  0  0  0  0  0  0  0  0  0
  -21.8698  -25.7521   19.0182 C   0  0  0  0  0  0  0  0  0  0  0  0
  -28.4194  -27.9661   21.5666 C   0  0  0  0  0  0  0  0  0  0  0  0
  -21.1553  -27.2467   20.9581 C   0  0  0  0  0  0  0  0  0  0  0  0
  -26.5444  -11.7220   20.1863 C   0  0  0  0  0  0  0  0  0  0  0  0
  -27.6785  -18.0504   21.8712 C   0  0  0  0  0  0  0  0  0  0  0  0
  -26.6241  -13.0896   19.8611 C   0  0  0  0  0  0  0  0  0  0  0  0
  -26.8990  -19.1086   21.3825 C   0  0  0  0  0  0  0  0  0  0  0  0
  -21.5834  -23.5802   17.2909 C   0  0  0  0  0  0  0  0  0  0  0  0
  -28.8562  -20.0164   20.2622 C   0  0  0  0  0  0  0  0  0  0  0  0
  -22.5641  -21.7463   16.1967 C   0  0  0  0  0  0  0  0  0  0  0  0
  -24.8220  -20.1894   15.6866 C   0  0  0  0  0  0  0  0  0  0  0  0
  -22.5619  -20.3887   16.5169 C   0  0  0  0  0  0  0  0  0  0  0  0
  -22.0185  -26.8736   19.9105 C   0  0  0  0  0  0  0  0  0  0  0  0
  -28.2191  -26.6319   21.8563 C   0  0  0  0  0  0  0  0  0  0  0  0
  -21.7348  -28.3692   21.4972 C   0  0  0  0  0  0  0  0  0  0  0  0
  -29.8231  -26.0159   20.3682 C   0  0  0  0  0  0  0  0  0  0  0  0
  -27.6825  -29.0508   22.1951 C   0  0  0  0  0  0  0  0  0  0  0  0
  -19.9384  -26.6334   21.4040 C   0  0  0  0  0  0  0  0  0  0  0  0
  -27.4205  -30.3209   21.4800 C   0  0  0  0  0  0  0  0  0  0  0  0
  -25.1810  -16.1637   21.3172 C   0  0  0  0  0  0  0  0  0  0  0  0
  -23.6429  -18.2961   23.2171 C   0  0  0  0  0  0  0  0  0  0  0  0
  -23.4985  -21.4543   24.5021 C   0  0  0  0  0  0  0  0  0  0  0  0
  -25.2655  -11.0988   20.6870 C   0  0  0  0  0  0  0  0  0  0  0  0
  -27.0685  -17.0033   22.7623 C   0  0  0  0  0  0  0  0  0  0  0  0
  -25.4306  -19.2231   21.6972 C   0  0  0  0  0  0  0  0  0  0  0  0
  -24.2561  -12.1171   21.2109 C   0  0  0  0  0  0  0  0  0  0  0  0
  -24.5095  -32.0831   20.3497 C   0  0  0  0  0  0  0  0  0  0  0  0
  -24.1208  -13.2839   20.2378 C   0  0  0  0  0  0  0  0  0  0  0  0
  -23.4739  -30.9740   20.1676 C   0  0  0  0  0  0  0  0  0  0  0  0
  -25.9140  -31.5973   20.0068 C   0  0  0  0  0  0  0  0  0  0  0  0
  -25.2994  -29.2669   20.5902 C   0  0  0  0  0  0  0  0  0  0  0  0
  -25.4538  -14.0246   20.0759 C   0  0  1  0  0  0  0  0  0  0  0  0
  -25.5587  -16.8745   22.5860 C   0  0  1  0  0  0  0  0  0  0  0  0
  -23.8722  -29.7122   20.9536 C   0  0  2  0  0  0  0  0  0  0  0  0
  -22.1045  -22.9116   25.9956 C   0  0  0  0  0  0  0  0  0  0  0  0
  -21.5850  -18.6096   20.9862 C   0  0  0  0  0  0  0  0  0  0  0  0
  -20.7967  -20.7071   22.1031 C   0  0  0  0  0  0  0  0  0  0  0  0
  -20.6193  -18.5210   23.2914 C   0  0  0  0  0  0  0  0  0  0  0  0
  -25.7333  -21.8429   26.4031 C   0  0  0  0  0  0  0  0  0  0  0  0
  -31.0873  -22.7136   19.3353 C   0  0  0  0  0  0  0  0  0  0  0  0
  -30.8013  -21.2668   19.7060 C   0  0  0  0  0  0  0  0  0  1  0  0
  -30.2399  -23.6856   20.1411 C   0  0  0  0  0  0  0  0  0  0  0  0
  -22.8922  -19.5856   22.9874 C   0  0  1  0  0  0  0  0  0  0  0  0
  -23.2856  -21.9567   25.9187 C   0  0  2  0  0  0  0  0  0  0  0  0
  -21.5005  -19.3529   22.3343 C   0  0  0  0  0  0  0  0  0  0  0  0
  -30.1117  -27.2785   19.9992 N   0  0  0  0  0  0  0  0  0  0  0  0
  -23.0665  -27.6927   19.7894 N   0  0  0  0  0  0  0  0  0  0  0  0
  -28.9055  -25.6270   21.2738 N   0  0  0  0  0  0  0  0  0  0  0  0
  -27.2065  -28.9849   23.4093 N   0  0  0  0  0  0  0  0  0  0  0  0
  -22.8656  -28.5918   20.7679 N   0  0  0  0  0  0  0  0  0  0  0  0
  -26.2462  -30.3789   20.7425 N   0  0  0  0  0  0  0  0  0  0  0  0
  -24.8791  -18.1714   22.5674 N   0  0  0  0  0  0  0  0  0  0  0  0
  -27.2383  -26.2931   22.8214 N   0  0  0  0  0  0  0  0  0  0  0  0
  -21.3822  -29.1778   22.5191 N   0  0  0  0  0  0  0  0  0  0  0  0
  -19.4855  -25.4861   20.7385 N   0  0  0  0  0  0  0  0  0  0  0  0
  -25.6952  -14.8852   21.2141 N   0  0  0  0  0  0  0  0  0  0  0  0
  -22.8407  -20.2634   24.2782 N   0  0  0  0  0  0  0  0  0  0  0  0
  -24.5003  -22.6716   26.4029 N   0  3  0  0  0  0  0  0  0  0  0  0
  -19.2639  -27.0988   22.3537 O   0  0  0  0  0  0  0  0  0  0  0  0
  -28.2730  -31.1886   21.6164 O   0  0  0  0  0  0  0  0  0  0  0  0
  -24.4741  -16.7325   20.4935 O   0  0  0  0  0  0  0  0  0  0  0  0
  -23.1538  -17.4342   23.9517 O   0  0  0  0  0  0  0  0  0  0  0  0
  -24.1773  -22.0599   23.6756 O   0  0  0  0  0  0  0  0  0  0  0  0
  -21.4437  -22.5203   16.4485 O   0  0  0  0  0  0  0  0  0  0  0  0
  -29.4243  -20.9711   19.4762 O   0  0  0  0  0  0  0  0  0  1  0  0
  -30.5395  -25.0205   19.7562 O   0  0  0  0  0  0  0  0  0  0  0  0
  -25.9057  -19.4416   15.4402 F   0  0  0  0  0  0  0  0  0  0  0  0
  -21.4779  -19.8265   17.0686 F   0  0  0  0  0  0  0  0  0  0  0  0
  1  2  1  0  0  0  0
  1  5  2  0  0  0  0
  2  6  2  0  0  0  0
  3  8  2  0  0  0  0
  3 16  1  0  0  0  0
  4  9  1  0  0  0  0
  4 16  2  0  0  0  0
  5 19  1  0  0  0  0
  6 21  1  0  0  0  0
  7 10  2  0  0  0  0
  7 20  1  0  0  0  0
  8 23  1  0  0  0  0
  9 23  2  0  0  0  0
 10 24  1  0  0  0  0
 11 12  2  0  0  0  0
 11 25  1  0  0  0  0
 12 26  1  0  0  0  0
 13 22  1  0  0  0  0
 13 24  2  0  0  0  0
 14 26  2  0  0  0  0
 14 27  1  0  0  0  0
 15 17  1  0  0  0  0
 15 61  2  0  0  0  0
 16 28  1  0  0  0  0
 17 29  2  0  0  0  0
 17 32  1  0  0  0  0
 18 28  1  0  0  0  0
 18 30  2  0  0  0  0
 18 33  1  0  0  0  0
 19 21  2  0  0  0  0
 19 38  1  0  0  0  0
 20 22  2  0  0  0  0
 20 39  1  0  0  0  0
 21 47  1  0  0  0  0
 22 40  1  0  0  0  0
 23 79  1  0  0  0  0
 24 80  1  0  0  0  0
 25 27  2  0  0  0  0
 25 79  1  0  0  0  0
 26 82  1  0  0  0  0
 27 83  1  0  0  0  0
 28 62  2  0  0  0  0
 29 63  1  0  0  0  0
 29 68  1  0  0  0  0
 30 65  1  0  0  0  0
 30 69  1  0  0  0  0
 31 61  1  0  0  0  0
 31 63  2  0  0  0  0
 31 81  1  0  0  0  0
 32 34  1  0  0  0  0
 32 64  2  0  0  0  0
 33 70  1  0  0  0  0
 33 74  2  0  0  0  0
 34 66  1  0  0  0  0
 34 75  2  0  0  0  0
 35 48  1  0  0  0  0
 35 71  1  0  0  0  0
 35 76  2  0  0  0  0
 36 58  1  0  0  0  0
 36 67  1  0  0  0  0
 36 77  2  0  0  0  0
 37 59  1  0  0  0  0
 37 72  1  0  0  0  0
 37 78  2  0  0  0  0
 38 41  1  0  0  0  0
 39 48  1  0  0  0  0
 40 67  1  0  0  0  0
 41 43  1  0  0  0  0
 42 44  1  0  0  0  0
 42 45  1  0  0  0  0
 43 47  1  0  0  0  0
 44 49  1  0  0  0  0
 45 66  1  0  0  0  0
 46 49  1  0  0  0  0
 46 66  1  0  0  0  0
 47 71  1  0  0  0  0
 48 67  1  0  0  0  0
 49 65  1  0  0  0  0
 50 59  1  0  0  0  0
 51 60  1  0  0  0  0
 52 60  1  0  0  0  0
 53 60  1  0  0  0  0
 54 73  1  0  0  0  0
 55 56  1  0  0  0  0
 55 57  1  0  0  0  0
 56 80  1  0  0  0  0
 57 81  1  0  0  0  0
 58 60  1  0  0  0  0
 58 72  1  0  0  0  0
 59 73  1  0  0  0  0
 62 65  1  0  0  0  0
M  CHG  1  73   1
M  ISO  4  32 100  34 100  56 101  80 101
M  END
> <Batch ID>
0111

> <Smiles>
CNC(C)C(=O)NC(C(=O)N1Cc2cc([101O:1][101CH2:1]CCOc3ncc([100C:0](=N)[100C:0](=O)N4CCCC(n5nc(-c6ccc(Oc7ccc(F)cc7F)cc6)c(C(N)=O)c5N)C4)c(N)n3)ccc2CC1C(=O)NC1CCCc2ccccc21)C(C)(C)C

> <Shape>
0.216

> <Color>
0.081

> <Negative vol penalty>
0.000

$$$$

  -OEChem-04052301283D

 87 95  0     1  0  0  0  0  0999 V2000
  -22.2287   -8.0286   20.7863 C   0  0  0  0  0  0  0  0  0  0  0  0
  -22.2461   -9.3565   21.2009 C   0  0  0  0  0  0  0  0  0  0  0  0
  -24.7376  -31.9770   23.6011 C   0  0  0  0  0  0  0  0  0  0  0  0
  -24.3283  -33.1916   21.5531 C   0  0  0  0  0  0  0  0  0  0  0  0
  -23.4223   -7.3150   20.6867 C   0  0  0  0  0  0  0  0  0  0  0  0
  -23.4571   -9.9712   21.5172 C   0  0  0  0  0  0  0  0  0  0  0  0
  -23.8526  -14.6165   19.5400 C   0  0  0  0  0  0  0  0  0  0  0  0
  -24.4426  -33.1229   24.3397 C   0  0  0  0  0  0  0  0  0  0  0  0
  -24.0333  -34.3375   22.2917 C   0  0  0  0  0  0  0  0  0  0  0  0
  -23.1697  -15.6447   20.1883 C   0  0  0  0  0  0  0  0  0  0  0  0
  -23.5223  -37.6802   23.6241 C   0  0  0  0  0  0  0  0  0  0  0  0
  -24.0762  -38.8871   23.1974 C   0  0  0  0  0  0  0  0  0  0  0  0
  -25.9977  -23.5957   20.5071 C   0  0  0  0  0  0  0  0  0  0  0  0
  -25.2223  -16.3263   21.2566 C   0  0  0  0  0  0  0  0  0  0  0  0
  -26.1922  -20.9298   21.3057 C   0  0  0  0  0  0  0  0  0  0  0  0
  -26.2933  -37.9720   23.4875 C   0  0  0  0  0  0  0  0  0  0  0  0
  -24.6805  -32.0114   22.2078 C   0  0  0  0  0  0  0  0  0  0  0  0
  -27.2198  -22.9290   20.4200 C   0  0  0  0  0  0  0  0  0  0  0  0
  -24.0856  -29.8278   21.0306 C   0  0  0  0  0  0  0  0  0  0  0  0
  -24.6495   -7.9241   20.9926 C   0  0  0  0  0  0  0  0  0  0  0  0
  -25.2257  -14.4285   19.7540 C   0  0  0  0  0  0  0  0  0  0  0  0
  -24.6681   -9.2646   21.4229 C   0  0  0  0  0  0  0  0  0  0  0  0
  -25.9209  -15.2966   20.6079 C   0  0  0  0  0  0  0  0  0  0  0  0
  -24.9701  -21.5966   21.3928 C   0  0  0  0  0  0  0  0  0  0  0  0
  -24.0904  -34.3031   23.6850 C   0  0  0  0  0  0  0  0  0  0  0  0
  -23.8540  -16.4980   21.0490 C   0  0  0  0  0  0  0  0  0  0  0  0
  -24.3538  -36.6192   23.9827 C   0  0  0  0  0  0  0  0  0  0  0  0
  -24.8729  -22.9295   20.9936 C   0  0  0  0  0  0  0  0  0  0  0  0
  -27.3171  -21.5960   20.8193 C   0  0  0  0  0  0  0  0  0  0  0  0
  -25.4617  -39.0330   23.1290 C   0  0  0  0  0  0  0  0  0  0  0  0
  -25.7393  -36.7651   23.9143 C   0  0  0  0  0  0  0  0  0  0  0  0
  -24.9856  -30.8282   21.4442 C   0  0  0  0  0  0  0  0  0  0  0  0
  -24.8635  -28.9297   20.3415 C   0  0  0  0  0  0  0  0  0  0  0  0
  -23.1309  -20.2966   21.0027 C   0  0  0  0  0  0  0  0  0  0  0  0
  -28.4057  -23.6578   19.9010 C   0  0  0  0  0  0  0  0  0  0  0  0
  -22.6728  -29.7200   21.2496 C   0  0  0  0  0  0  0  0  0  0  0  0
  -27.0097  -12.0827   20.9450 C   0  0  0  0  0  0  0  0  0  0  0  0
  -29.4572  -13.9811   19.9817 C   0  0  0  0  0  0  0  0  0  0  0  0
  -30.5601  -17.1163   19.2065 C   0  0  0  0  0  0  0  0  0  0  0  0
  -29.4625  -25.8919   19.7764 C   0  0  0  0  0  0  0  0  0  0  0  0
  -25.9091   -7.0982   20.9154 C   0  0  0  0  0  0  0  0  0  0  0  0
  -25.9531  -13.3312   19.0264 C   0  0  0  0  0  0  0  0  0  0  0  0
  -27.3992  -15.1497   20.8558 C   0  0  0  0  0  0  0  0  0  0  0  0
  -27.1863   -7.9343   20.9090 C   0  0  0  0  0  0  0  0  0  0  0  0
  -29.6576  -29.2668   18.7423 C   0  0  0  0  0  0  0  0  0  0  0  0
  -27.1284   -9.0056   21.9934 C   0  0  0  0  0  0  0  0  0  0  0  0
  -28.3816  -29.8932   19.3113 C   0  0  0  0  0  0  0  0  0  0  0  0
  -30.2597  -28.2380   19.6983 C   0  0  0  0  0  0  0  0  0  0  0  0
  -28.0619  -27.8243   20.7261 C   0  0  0  0  0  0  0  0  0  0  0  0
  -25.9642   -9.9736   21.7510 C   0  0  1  0  0  0  0  0  0  0  0  0
  -27.2483  -12.9136   19.7160 C   0  0  1  0  0  0  0  0  0  0  0  0
  -27.3786  -28.8157   19.7704 C   0  0  1  0  0  0  0  0  0  0  0  0
  -32.6192  -18.3591   18.4903 C   0  0  0  0  0  0  0  0  0  0  0  0
  -30.5558  -13.7931   22.8220 C   0  0  0  0  0  0  0  0  0  0  0  0
  -32.0199  -15.7587   22.3113 C   0  0  0  0  0  0  0  0  0  0  0  0
  -32.2854  -13.6396   21.0223 C   0  0  0  0  0  0  0  0  0  0  0  0
  -29.2860  -18.0099   16.6892 C   0  0  0  0  0  0  0  0  0  0  0  0
  -23.4096  -24.2861   22.2875 C   0  0  0  0  0  0  0  0  0  0  0  0
  -29.3539  -20.9836   21.8831 C   0  0  0  0  0  0  0  0  0  0  0  0
  -21.9096  -19.5184   21.4134 C   0  0  0  0  0  0  0  0  0  0  0  0
  -22.0620  -18.0611   21.0111 C   0  0  0  0  0  0  0  0  0  1  0  0
  -30.2587  -15.0943   20.6119 C   0  0  1  0  0  0  0  0  0  0  0  0
  -31.3617  -17.6395   18.0282 C   0  0  2  0  0  0  0  0  0  0  0  0
  -31.2517  -14.5733   21.6889 C   0  0  0  0  0  0  0  0  0  0  0  0
  -26.2393  -30.5885   21.0509 N   0  0  0  0  0  0  0  0  0  0  0  0
  -23.8456  -20.9138   21.8860 N   0  0  0  0  0  0  0  0  0  0  0  0
  -26.1328  -29.4272   20.3830 N   0  0  0  0  0  0  0  0  0  0  0  0
  -28.0647  -14.0579   20.1261 N   0  0  0  0  0  0  0  0  0  0  0  0
  -29.2495  -27.2485   20.0774 N   0  0  0  0  0  0  0  0  0  0  0  0
  -24.5788  -27.7709   19.7102 N   0  0  0  0  0  0  0  0  0  0  0  0
  -22.0306  -30.7305   21.9782 N   0  0  0  0  0  0  0  0  0  0  0  0
  -28.4204  -25.0321   20.1409 N   0  0  0  0  0  0  0  0  0  0  0  0
  -26.3019  -10.9195   20.7090 N   0  0  0  0  0  0  0  0  0  0  0  0
  -30.8930  -15.8137   19.5125 N   0  0  0  0  0  0  0  0  0  0  0  0
  -30.5426  -18.5922   17.2267 N   0  3  0  0  0  0  0  0  0  0  0  0
  -29.2985  -23.0263   19.3426 O   0  0  0  0  0  0  0  0  0  0  0  0
  -22.0026  -28.7478   20.8262 O   0  0  0  0  0  0  0  0  0  0  0  0
  -27.4373  -12.4676   22.0269 O   0  0  0  0  0  0  0  0  0  0  0  0
  -30.0445  -13.0804   19.3771 O   0  0  0  0  0  0  0  0  0  0  0  0
  -29.7251  -17.7965   19.7987 O   0  0  0  0  0  0  0  0  0  0  0  0
  -30.4756  -25.4859   19.1985 O   0  0  0  0  0  0  0  0  0  0  0  0
  -23.8023  -35.4214   24.4055 O   0  0  0  0  0  0  0  0  0  0  0  0
  -23.6864  -23.5954   21.0710 O   0  0  0  0  0  0  0  0  0  0  0  0
  -28.5019  -20.9271   20.7411 O   0  0  0  0  0  0  0  0  0  0  0  0
  -23.1897  -17.5020   21.6835 O   0  0  0  0  0  0  0  0  0  1  0  0
  -25.9935  -40.1915   22.7177 F   0  0  0  0  0  0  0  0  0  0  0  0
  -26.5433  -35.7490   24.2563 F   0  0  0  0  0  0  0  0  0  0  0  0
  1  2  1  0  0  0  0
  1  5  2  0  0  0  0
  2  6  2  0  0  0  0
  3  8  2  0  0  0  0
  3 17  1  0  0  0  0
  4  9  1  0  0  0  0
  4 17  2  0  0  0  0
  5 20  1  0  0  0  0
  6 22  1  0  0  0  0
  7 10  2  0  0  0  0
  7 21  1  0  0  0  0
  8 25  1  0  0  0  0
  9 25  2  0  0  0  0
 10 26  1  0  0  0  0
 11 12  2  0  0  0  0
 11 27  1  0  0  0  0
 12 30  1  0  0  0  0
 13 18  2  0  0  0  0
 13 28  1  0  0  0  0
 14 23  1  0  0  0  0
 14 26  2  0  0  0  0
 15 24  1  0  0  0  0
 15 29  2  0  0  0  0
 16 30  2  0  0  0  0
 16 31  1  0  0  0  0
 17 32  1  0  0  0  0
 18 29  1  0  0  0  0
 18 35  1  0  0  0  0
 19 32  1  0  0  0  0
 19 33  2  0  0  0  0
 19 36  1  0  0  0  0
 20 22  2  0  0  0  0
 20 41  1  0  0  0  0
 21 23  2  0  0  0  0
 21 42  1  0  0  0  0
 22 50  1  0  0  0  0
 23 43  1  0  0  0  0
 24 28  2  0  0  0  0
 24 66  1  0  0  0  0
 25 82  1  0  0  0  0
 26 85  1  0  0  0  0
 27 31  2  0  0  0  0
 27 82  1  0  0  0  0
 28 83  1  0  0  0  0
 29 84  1  0  0  0  0
 30 86  1  0  0  0  0
 31 87  1  0  0  0  0
 32 65  2  0  0  0  0
 33 67  1  0  0  0  0
 33 70  1  0  0  0  0
 34 60  1  0  0  0  0
 34 66  2  0  0  0  0
 35 72  1  0  0  0  0
 35 76  2  0  0  0  0
 36 71  1  0  0  0  0
 36 77  2  0  0  0  0
 37 51  1  0  0  0  0
 37 73  1  0  0  0  0
 37 78  2  0  0  0  0
 38 62  1  0  0  0  0
 38 68  1  0  0  0  0
 38 79  2  0  0  0  0
 39 63  1  0  0  0  0
 39 74  1  0  0  0  0
 39 80  2  0  0  0  0
 40 69  1  0  0  0  0
 40 72  1  0  0  0  0
 40 81  2  0  0  0  0
 41 44  1  0  0  0  0
 42 51  1  0  0  0  0
 43 68  1  0  0  0  0
 44 46  1  0  0  0  0
 45 47  1  0  0  0  0
 45 48  1  0  0  0  0
 46 50  1  0  0  0  0
 47 52  1  0  0  0  0
 48 69  1  0  0  0  0
 49 52  1  0  0  0  0
 49 69  1  0  0  0  0
 50 73  1  0  0  0  0
 51 68  1  0  0  0  0
 52 67  1  0  0  0  0
 53 63  1  0  0  0  0
 54 64  1  0  0  0  0
 55 64  1  0  0  0  0
 56 64  1  0  0  0  0
 57 75  1  0  0  0  0
 58 83  1  0  0  0  0
 59 84  1  0  0  0  0
 60 61  1  0  0  0  0
 61 85  1  0  0  0  0
 62 64  1  0  0  0  0
 62 74  1  0  0  0  0
 63 75  1  0  0  0  0
 65 67  1  0  0  0  0
M  CHG  1  75   1
M  ISO  4  40 100  61 101  72 100  85 101
M  END
> <Batch ID>
0111

> <Smiles>
CNC(C)C(=O)NC(C(=O)N1Cc2cc([101O:1][101CH2:1]C=CNc3cc(OC)c(C(=O)[100NH:0][100C:0](=O)N4CCCC(n5nc(-c6ccc(Oc7ccc(F)cc7F)cc6)c(C(N)=O)c5N)C4)cc3OC)ccc2CC1C(=O)NC1CCCc2ccccc21)C(C)(C)C

> <Shape>
0.310

> <Color>
0.072

> <Negative vol penalty>
0.000

$$$$

  -OEChem-04052301283D

 88 96  0     1  0  0  0  0  0999 V2000
  -26.1887   -9.2011   21.9459 C   0  0  0  0  0  0  0  0  0  0  0  0
  -26.4437  -10.4573   21.4054 C   0  0  0  0  0  0  0  0  0  0  0  0
  -20.0661  -28.4747   23.3632 C   0  0  0  0  0  0  0  0  0  0  0  0
  -20.9809  -26.5358   22.2491 C   0  0  0  0  0  0  0  0  0  0  0  0
  -27.8052  -25.9414   17.1768 C   0  0  0  0  0  0  0  0  0  0  0  0
  -24.8750   -8.7994   22.1840 C   0  0  0  0  0  0  0  0  0  0  0  0
  -25.3849  -11.3123   21.1015 C   0  0  0  0  0  0  0  0  0  0  0  0
  -26.2240  -16.0651   22.6351 C   0  0  0  0  0  0  0  0  0  0  0  0
  -18.8367  -28.2507   22.7436 C   0  0  0  0  0  0  0  0  0  0  0  0
  -19.7514  -26.3118   21.6296 C   0  0  0  0  0  0  0  0  0  0  0  0
  -28.0033  -24.6149   17.5598 C   0  0  0  0  0  0  0  0  0  0  0  0
  -27.0710  -16.8470   21.8510 C   0  0  0  0  0  0  0  0  0  0  0  0
  -16.7510  -25.0196   20.0341 C   0  0  0  0  0  0  0  0  0  0  0  0
  -16.2633  -23.7130   20.0126 C   0  0  0  0  0  0  0  0  0  0  0  0
  -25.1515  -17.9040   20.8423 C   0  0  0  0  0  0  0  0  0  0  0  0
  -16.2660  -23.6724   22.4283 C   0  0  0  0  0  0  0  0  0  0  0  0
  -21.1382  -27.6173   23.1159 C   0  0  0  0  0  0  0  0  0  0  0  0
  -28.2272  -26.9781   18.0093 C   0  0  0  0  0  0  0  0  0  0  0  0
  -22.8416  -27.3404   24.9947 C   0  0  0  0  0  0  0  0  0  0  0  0
  -23.8000   -9.6537   21.8918 C   0  0  0  0  0  0  0  0  0  0  0  0
  -24.8319  -16.1892   22.5207 C   0  0  0  0  0  0  0  0  0  0  0  0
  -24.0554  -10.9212   21.3345 C   0  0  0  0  0  0  0  0  0  0  0  0
  -24.2890  -17.1243   21.6280 C   0  0  0  0  0  0  0  0  0  0  0  0
  -28.8471  -26.6883   19.2247 C   0  0  0  0  0  0  0  0  0  0  0  0
  -18.6793  -27.1692   21.8768 C   0  0  0  0  0  0  0  0  0  0  0  0
  -26.5348  -17.7646   20.9523 C   0  0  0  0  0  0  0  0  0  0  0  0
  -28.6233  -24.3250   18.7752 C   0  0  0  0  0  0  0  0  0  0  0  0
  -16.9963  -25.6526   21.2526 C   0  0  0  0  0  0  0  0  0  0  0  0
  -29.0452  -25.3617   19.6077 C   0  0  0  0  0  0  0  0  0  0  0  0
  -16.0207  -23.0394   21.2097 C   0  0  0  0  0  0  0  0  0  0  0  0
  -16.7538  -24.9790   22.4497 C   0  0  0  0  0  0  0  0  0  0  0  0
  -22.4087  -27.8485   23.7552 C   0  0  0  0  0  0  0  0  0  0  0  0
  -24.1084  -27.8477   25.1501 C   0  0  0  0  0  0  0  0  0  0  0  0
  -26.8042  -28.8685   17.3636 C   0  0  0  0  0  0  0  0  0  0  0  0
  -28.0048  -28.3524   17.5786 C   0  0  0  0  0  0  0  0  0  0  0  0
  -22.1596  -26.4861   25.9224 C   0  0  0  0  0  0  0  0  0  0  0  0
  -22.4686  -14.2412   21.6702 C   0  0  0  0  0  0  0  0  0  0  0  0
  -28.0370  -20.7906   19.6514 C   0  0  0  0  0  0  0  0  0  0  0  0
  -20.6063  -16.7349   22.5841 C   0  0  0  0  0  0  0  0  0  0  0  0
  -20.3173  -20.0942   23.1122 C   0  0  0  0  0  0  0  0  0  0  0  0
  -28.2517  -29.7324   21.2601 C   0  0  0  0  0  0  0  0  0  0  0  0
  -22.3947   -9.1571   22.1224 C   0  0  0  0  0  0  0  0  0  0  0  0
  -23.9321  -15.3573   23.3930 C   0  0  0  0  0  0  0  0  0  0  0  0
  -22.8016  -17.3104   21.4819 C   0  0  0  0  0  0  0  0  0  0  0  0
  -21.3481  -10.2684   22.1214 C   0  0  0  0  0  0  0  0  0  0  0  0
  -26.8154  -31.5993   23.9299 C   0  0  0  0  0  0  0  0  0  0  0  0
  -21.5640  -11.2039   20.9360 C   0  0  0  0  0  0  0  0  0  0  0  0
  -25.5622  -30.8039   24.2998 C   0  0  0  0  0  0  0  0  0  0  0  0
  -27.0757  -31.5751   22.4254 C   0  0  0  0  0  0  0  0  0  0  0  0
  -25.8798  -29.4322   22.1983 C   0  0  0  0  0  0  0  0  0  0  0  0
  -22.9349  -11.8867   21.0146 C   0  0  1  0  0  0  0  0  0  0  0  0
  -22.5252  -15.2021   22.8239 C   0  0  1  0  0  0  0  0  0  0  0  0
  -25.6073  -29.3809   23.7114 C   0  0  2  0  0  0  0  0  0  0  0  0
  -29.6566  -24.5964   23.1409 C   0  0  0  0  0  0  0  0  0  0  0  0
  -18.6619  -21.8414   23.8221 C   0  0  0  0  0  0  0  0  0  0  0  0
  -19.2722  -16.5806   19.8444 C   0  0  0  0  0  0  0  0  0  0  0  0
  -18.3435  -18.8709   20.2449 C   0  0  0  0  0  0  0  0  0  0  0  0
  -17.7018  -16.9863   21.7480 C   0  0  0  0  0  0  0  0  0  0  0  0
  -21.9580  -20.8641   25.4519 C   0  0  0  0  0  0  0  0  0  0  0  0
  -29.3040  -27.7893   20.1305 C   0  0  0  0  0  0  0  0  0  0  0  0
  -26.8841  -19.8204   19.8089 C   0  0  0  0  0  0  0  0  0  1  0  0
  -27.6604  -22.2075   19.2698 C   0  0  0  0  0  0  0  0  0  0  0  0
  -28.8058  -24.9305   21.9342 C   0  0  0  0  0  0  0  0  0  0  0  0
  -20.0342  -17.9507   21.8958 C   0  0  1  0  0  0  0  0  0  0  0  0
  -19.7533  -20.8857   24.2783 C   0  0  2  0  0  0  0  0  0  0  0  0
  -18.8660  -17.5925   20.9344 C   0  0  0  0  0  0  0  0  0  0  0  0
  -23.3259  -28.6197   23.1653 N   0  0  0  0  0  0  0  0  0  0  0  0
  -24.3478  -28.5999   24.0379 N   0  0  0  0  0  0  0  0  0  0  0  0
  -21.9633  -16.4693   22.3522 N   0  0  0  0  0  0  0  0  0  0  0  0
  -27.1081  -30.1966   21.9307 N   0  0  0  0  0  0  0  0  0  0  0  0
  -25.0298  -27.7194   26.1284 N   0  0  0  0  0  0  0  0  0  0  0  0
  -20.8633  -26.0567   25.6068 N   0  0  0  0  0  0  0  0  0  0  0  0
  -22.9069  -12.9671   21.9771 N   0  0  0  0  0  0  0  0  0  0  0  0
  -19.6712  -18.8863   22.9547 N   0  0  0  0  0  0  0  0  0  0  0  0
  -28.2022  -28.4122   20.8296 N   0  0  0  0  0  0  0  0  0  0  0  0
  -20.8300  -21.6804   24.9340 N   0  3  0  0  0  0  0  0  0  0  0  0
  -22.6779  -26.1277   27.0071 O   0  0  0  0  0  0  0  0  0  0  0  0
  -22.0562  -14.6267   20.5825 O   0  0  0  0  0  0  0  0  0  0  0  0
  -29.2062  -20.4488   19.8223 O   0  0  0  0  0  0  0  0  0  0  0  0
  -19.8778  -16.0504   23.3069 O   0  0  0  0  0  0  0  0  0  0  0  0
  -21.2364  -20.5078   22.4089 O   0  0  0  0  0  0  0  0  0  0  0  0
  -29.2455  -30.4403   21.0645 O   0  0  0  0  0  0  0  0  0  0  0  0
  -17.4797  -26.9502   21.2722 O   0  0  0  0  0  0  0  0  0  0  0  0
  -27.3593  -18.5286   20.1852 O   0  0  0  0  0  0  0  0  0  1  0  0
  -28.8128  -23.0130   19.1396 O   0  0  0  0  0  0  0  0  0  0  0  0
  -29.6507  -25.0708   20.7948 O   0  0  0  0  0  0  0  0  0  0  0  0
  -15.5509  -21.7852   21.1890 F   0  0  0  0  0  0  0  0  0  0  0  0
  -16.9864  -25.5824   23.6235 F   0  0  0  0  0  0  0  0  0  0  0  0
  1  2  1  0  0  0  0
  1  6  2  0  0  0  0
  2  7  2  0  0  0  0
  3  9  2  0  0  0  0
  3 17  1  0  0  0  0
  4 10  1  0  0  0  0
  4 17  2  0  0  0  0
  5 11  2  0  0  0  0
  5 18  1  0  0  0  0
  6 20  1  0  0  0  0
  7 22  1  0  0  0  0
  8 12  2  0  0  0  0
  8 21  1  0  0  0  0
  9 25  1  0  0  0  0
 10 25  2  0  0  0  0
 11 27  1  0  0  0  0
 12 26  1  0  0  0  0
 13 14  2  0  0  0  0
 13 28  1  0  0  0  0
 14 30  1  0  0  0  0
 15 23  1  0  0  0  0
 15 26  2  0  0  0  0
 16 30  2  0  0  0  0
 16 31  1  0  0  0  0
 17 32  1  0  0  0  0
 18 24  2  0  0  0  0
 18 35  1  0  0  0  0
 19 32  1  0  0  0  0
 19 33  2  0  0  0  0
 19 36  1  0  0  0  0
 20 22  2  0  0  0  0
 20 42  1  0  0  0  0
 21 23  2  0  0  0  0
 21 43  1  0  0  0  0
 22 51  1  0  0  0  0
 23 44  1  0  0  0  0
 24 29  1  0  0  0  0
 24 60  1  0  0  0  0
 25 83  1  0  0  0  0
 26 84  1  0  0  0  0
 27 29  2  0  0  0  0
 27 85  1  0  0  0  0
 28 31  2  0  0  0  0
 28 83  1  0  0  0  0
 29 86  1  0  0  0  0
 30 87  1  0  0  0  0
 31 88  1  0  0  0  0
 32 67  2  0  0  0  0
 33 68  1  0  0  0  0
 33 71  1  0  0  0  0
 34 35  2  0  0  0  0
 36 72  1  0  0  0  0
 36 77  2  0  0  0  0
 37 52  1  0  0  0  0
 37 73  1  0  0  0  0
 37 78  2  0  0  0  0
 38 61  1  0  0  0  0
 38 62  1  0  0  0  0
 38 79  2  0  0  0  0
 39 64  1  0  0  0  0
 39 69  1  0  0  0  0
 39 80  2  0  0  0  0
 40 65  1  0  0  0  0
 40 74  1  0  0  0  0
 40 81  2  0  0  0  0
 41 70  1  0  0  0  0
 41 75  1  0  0  0  0
 41 82  2  0  0  0  0
 42 45  1  0  0  0  0
 43 52  1  0  0  0  0
 44 69  1  0  0  0  0
 45 47  1  0  0  0  0
 46 48  1  0  0  0  0
 46 49  1  0  0  0  0
 47 51  1  0  0  0  0
 48 53  1  0  0  0  0
 49 70  1  0  0  0  0
 50 53  1  0  0  0  0
 50 70  1  0  0  0  0
 51 73  1  0  0  0  0
 52 69  1  0  0  0  0
 53 68  1  0  0  0  0
 54 63  1  0  0  0  0
 55 65  1  0  0  0  0
 56 66  1  0  0  0  0
 57 66  1  0  0  0  0
 58 66  1  0  0  0  0
 59 76  1  0  0  0  0
 60 75  1  0  0  0  0
 61 84  1  0  0  0  0
 62 85  1  0  0  0  0
 63 86  1  0  0  0  0
 64 66  1  0  0  0  0
 64 74  1  0  0  0  0
 65 76  1  0  0  0  0
 67 68  1  0  0  0  0
M  CHG  1  76   1
M  ISO  4  41 100  61 101  75 100  84 101
M  END
> <Batch ID>
0111

> <Smiles>
C=Cc1ccc(OCC(=O)[101CH2:1][101O:1]c2ccc3c(c2)CN(C(=O)C(NC(=O)C(C)NC)C(C)(C)C)C(C(=O)NC2CCCc4ccccc42)C3)c(OCC)c1C[100NH:0][100C:0](=O)N1CCCC(n2nc(-c3ccc(Oc4ccc(F)cc4F)cc3)c(C(N)=O)c2N)C1

> <Shape>
0.201

> <Color>
0.095

> <Negative vol penalty>
0.000

$$$$

  -OEChem-04052301283D

 91100  0     1  0  0  0  0  0999 V2000
  -25.4032  -32.3599   21.7121 C   0  0  0  0  0  0  0  0  0  0  0  0
  -24.9987  -31.3712   20.8209 C   0  0  0  0  0  0  0  0  0  0  0  0
  -23.1972   -9.8164   19.9236 C   0  0  0  0  0  0  0  0  0  0  0  0
  -23.5647   -9.9888   22.3053 C   0  0  0  0  0  0  0  0  0  0  0  0
  -27.0202  -17.0286   16.0312 C   0  0  0  0  0  0  0  0  0  0  0  0
  -26.7424  -32.7442   21.7643 C   0  0  0  0  0  0  0  0  0  0  0  0
  -25.9331  -30.7669   19.9806 C   0  0  0  0  0  0  0  0  0  0  0  0
  -25.4219  -25.6481   19.8118 C   0  0  0  0  0  0  0  0  0  0  0  0
  -26.0624  -17.8778   15.4770 C   0  0  0  0  0  0  0  0  0  0  0  0
  -22.4314   -8.6680   20.1248 C   0  0  0  0  0  0  0  0  0  0  0  0
  -22.7989   -8.8404   22.5065 C   0  0  0  0  0  0  0  0  0  0  0  0
  -24.4013  -25.1097   19.0293 C   0  0  0  0  0  0  0  0  0  0  0  0
  -23.2053   -5.4952   22.2324 C   0  0  0  0  0  0  0  0  0  0  0  0
  -23.7009   -4.5314   23.1104 C   0  0  0  0  0  0  0  0  0  0  0  0
  -25.9838  -24.7053   17.2544 C   0  0  0  0  0  0  0  0  0  0  0  0
  -21.7379   -4.7840   24.4959 C   0  0  0  0  0  0  0  0  0  0  0  0
  -23.7639  -10.4767   21.0138 C   0  0  0  0  0  0  0  0  0  0  0  0
  -28.2841  -17.5209   16.3566 C   0  0  0  0  0  0  0  0  0  0  0  0
  -24.1005  -12.9946   20.7805 C   0  0  0  0  0  0  0  0  0  0  0  0
  -27.6953  -32.1375   20.9310 C   0  0  0  0  0  0  0  0  0  0  0  0
  -26.7316  -25.7290   19.3172 C   0  0  0  0  0  0  0  0  0  0  0  0
  -27.2861  -31.1444   20.0207 C   0  0  0  0  0  0  0  0  0  0  0  0
  -27.0200  -25.2407   18.0345 C   0  0  0  0  0  0  0  0  0  0  0  0
  -27.6325  -19.7115   15.5735 C   0  0  0  0  0  0  0  0  0  0  0  0
  -26.3685  -19.2192   15.2481 C   0  0  0  0  0  0  0  0  0  0  0  0
  -28.5903  -18.8624   16.1277 C   0  0  0  0  0  0  0  0  0  0  0  0
  -22.2322   -8.1801   21.4163 C   0  0  0  0  0  0  0  0  0  0  0  0
  -24.6818  -24.6403   17.7496 C   0  0  0  0  0  0  0  0  0  0  0  0
  -21.9759   -6.1035   22.4862 C   0  0  0  0  0  0  0  0  0  0  0  0
  -22.9672   -4.1758   24.2421 C   0  0  0  0  0  0  0  0  0  0  0  0
  -21.2422   -5.7479   23.6179 C   0  0  0  0  0  0  0  0  0  0  0  0
  -24.5555  -11.6627   20.8065 C   0  0  0  0  0  0  0  0  0  0  0  0
  -25.2318  -13.7395   20.5529 C   0  0  0  0  0  0  0  0  0  0  0  0
  -29.2712  -16.5954   16.9405 C   0  0  0  0  0  0  0  0  0  0  0  0
  -24.2974  -20.1785   15.3703 C   0  0  0  0  0  0  0  0  0  0  0  0
  -22.7739  -13.5123   20.9472 C   0  0  0  0  0  0  0  0  0  0  0  0
  -28.8432  -28.0582   18.7156 C   0  0  0  0  0  0  0  0  0  0  0  0
  -30.7796  -25.4290   18.0904 C   0  0  0  0  0  0  0  0  0  0  0  0
  -33.4972  -27.4917   18.0997 C   0  0  0  0  0  0  0  0  0  0  0  0
  -29.9670  -14.5420   17.7091 C   0  0  0  0  0  0  0  0  0  0  0  0
  -29.1232  -32.6195   20.9901 C   0  0  0  0  0  0  0  0  0  0  0  0
  -27.8243  -26.2858   20.1892 C   0  0  0  0  0  0  0  0  0  0  0  0
  -28.4094  -25.3014   17.4597 C   0  0  0  0  0  0  0  0  0  0  0  0
  -30.1157  -31.6662   20.3296 C   0  0  0  0  0  0  0  0  0  0  0  0
  -30.1138  -12.4461   20.6401 C   0  0  0  0  0  0  0  0  0  0  0  0
  -32.0390  -20.1706   16.0609 C   0  0  0  0  0  0  0  0  0  0  0  0
  -29.5958  -31.2128   18.9691 C   0  0  0  0  0  0  0  0  0  0  0  0
  -28.6431  -12.1373   20.9199 C   0  0  0  0  0  0  0  0  0  0  0  0
  -31.8596  -19.9481   17.5499 C   0  0  0  0  0  0  0  0  0  0  0  0
  -30.9307  -19.3208   15.4592 C   0  0  0  0  0  0  0  0  0  0  0  0
  -30.3902  -12.5449   19.1429 C   0  0  0  0  0  0  0  0  0  0  0  0
  -28.0447  -13.2230   18.7102 C   0  0  0  0  0  0  0  0  0  0  0  0
  -28.2742  -30.4480   19.1104 C   0  0  1  0  0  0  0  0  0  0  0  0
  -29.0552  -26.7421   19.4086 C   0  0  1  0  0  0  0  0  0  0  0  0
  -27.7218  -13.1469   20.2122 C   0  0  1  0  0  0  0  0  0  0  0  0
  -30.3198  -19.9072   17.7425 C   0  0  0  0  0  0  0  0  0  0  0  0
  -27.9551  -21.1523   15.3254 C   0  0  0  0  0  0  0  0  0  0  0  0
  -30.0218  -19.0034   18.9434 C   0  0  0  0  0  0  0  0  0  0  0  0
  -29.8013  -21.3363   17.9596 C   0  0  0  0  0  0  0  0  0  0  0  0
  -36.0058  -27.4449   18.0543 C   0  0  0  0  0  0  0  0  0  0  0  0
  -30.8141  -24.6019   21.0264 C   0  0  0  0  0  0  0  0  0  0  0  0
  -33.1544  -25.4790   21.1730 C   0  0  0  0  0  0  0  0  0  0  0  0
  -32.6275  -23.5869   19.6351 C   0  0  0  0  0  0  0  0  0  0  0  0
  -33.5948  -28.9982   15.5542 C   0  0  0  0  0  0  0  0  0  0  0  0
  -23.1719  -21.0386   14.8640 C   0  0  0  0  0  0  0  0  0  0  0  0
  -22.8699  -22.1690   15.8405 C   0  0  0  0  0  0  0  0  0  0  0  0
  -24.0561  -23.1036   16.0457 C   0  0  0  0  0  0  0  0  0  1  0  0
  -31.8347  -25.9158   19.0521 C   0  0  1  0  0  0  0  0  0  0  0  0
  -34.7355  -27.5305   17.2225 C   0  0  2  0  0  0  0  0  0  0  0  0
  -32.0864  -24.9127   20.2131 C   0  0  0  0  0  0  0  0  0  0  0  0
  -25.8731  -11.5639   20.6109 N   0  0  0  0  0  0  0  0  0  0  0  0
  -25.3897  -20.0577   14.6891 N   0  0  0  0  0  0  0  0  0  0  0  0
  -28.9926  -15.3518   17.1576 N   0  0  0  0  0  0  0  0  0  0  0  0
  -26.2557  -12.8433   20.4597 N   0  0  0  0  0  0  0  0  0  0  0  0
  -29.8451  -19.3518   16.4505 N   0  0  3  0  0  0  0  0  0  0  0  0
  -29.4530  -25.7738   18.3788 N   0  0  0  0  0  0  0  0  0  0  0  0
  -29.4741  -13.4878   18.4999 N   0  0  0  0  0  0  0  0  0  0  0  0
  -25.4407  -15.0671   20.4252 N   0  0  0  0  0  0  0  0  0  0  0  0
  -21.7273  -12.6080   21.1734 N   0  0  0  0  0  0  0  0  0  0  0  0
  -28.5186  -29.0967   19.5674 N   0  0  0  0  0  0  0  0  0  0  0  0
  -33.0164  -26.2079   18.2480 N   0  0  0  0  0  0  0  0  0  0  0  0
  -34.7734  -28.7955   16.4356 N   0  3  0  0  0  0  0  0  0  0  0  0
  -22.5215  -14.7393   20.8808 O   0  0  0  0  0  0  0  0  0  0  0  0
  -28.9665  -28.1268   17.4983 O   0  0  0  0  0  0  0  0  0  0  0  0
  -31.1189  -24.7549   17.1138 O   0  0  0  0  0  0  0  0  0  0  0  0
  -33.0076  -28.4989   18.6060 O   0  0  0  0  0  0  0  0  0  0  0  0
  -31.1768  -14.7049   17.5332 O   0  0  0  0  0  0  0  0  0  0  0  0
  -21.4848   -7.0597   21.6131 O   0  0  0  0  0  0  0  0  0  0  0  0
  -23.6876  -24.1138   16.9838 O   0  0  0  0  0  0  0  0  0  1  0  0
  -23.4426   -3.2490   25.0844 F   0  0  0  0  0  0  0  0  0  0  0  0
  -20.0600   -6.3280   23.8663 F   0  0  0  0  0  0  0  0  0  0  0  0
  1  2  1  0  0  0  0
  1  6  2  0  0  0  0
  2  7  2  0  0  0  0
  3 10  2  0  0  0  0
  3 17  1  0  0  0  0
  4 11  1  0  0  0  0
  4 17  2  0  0  0  0
  5  9  2  0  0  0  0
  5 18  1  0  0  0  0
  6 20  1  0  0  0  0
  7 22  1  0  0  0  0
  8 12  2  0  0  0  0
  8 21  1  0  0  0  0
  9 25  1  0  0  0  0
 10 27  1  0  0  0  0
 11 27  2  0  0  0  0
 12 28  1  0  0  0  0
 13 14  2  0  0  0  0
 13 29  1  0  0  0  0
 14 30  1  0  0  0  0
 15 23  1  0  0  0  0
 15 28  2  0  0  0  0
 16 30  2  0  0  0  0
 16 31  1  0  0  0  0
 17 32  1  0  0  0  0
 18 26  2  0  0  0  0
 18 34  1  0  0  0  0
 19 32  1  0  0  0  0
 19 33  2  0  0  0  0
 19 36  1  0  0  0  0
 20 22  2  0  0  0  0
 20 41  1  0  0  0  0
 21 23  2  0  0  0  0
 21 42  1  0  0  0  0
 22 53  1  0  0  0  0
 23 43  1  0  0  0  0
 24 25  2  0  0  0  0
 24 26  1  0  0  0  0
 24 57  1  0  0  0  0
 25 72  1  0  0  0  0
 26 75  1  0  0  0  0
 27 88  1  0  0  0  0
 28 89  1  0  0  0  0
 29 31  2  0  0  0  0
 29 88  1  0  0  0  0
 30 90  1  0  0  0  0
 31 91  1  0  0  0  0
 32 71  2  0  0  0  0
 33 74  1  0  0  0  0
 33 78  1  0  0  0  0
 34 73  2  0  0  0  0
 35 65  1  0  0  0  0
 35 72  2  0  0  0  0
 36 79  1  0  0  0  0
 36 83  2  0  0  0  0
 37 54  1  0  0  0  0
 37 80  1  0  0  0  0
 37 84  2  0  0  0  0
 38 68  1  0  0  0  0
 38 76  1  0  0  0  0
 38 85  2  0  0  0  0
 39 69  1  0  0  0  0
 39 81  1  0  0  0  0
 39 86  2  0  0  0  0
 40 73  1  0  0  0  0
 40 77  1  0  0  0  0
 40 87  2  0  0  0  0
 41 44  1  0  0  0  0
 42 54  1  0  0  0  0
 43 76  1  0  0  0  0
 44 47  1  0  0  0  0
 45 48  1  0  0  0  0
 45 51  1  0  0  0  0
 46 49  1  0  0  0  0
 46 50  1  0  0  0  0
 47 53  1  0  0  0  0
 48 55  1  0  0  0  0
 49 56  1  0  0  0  0
 50 75  1  0  0  0  0
 51 77  1  0  0  0  0
 52 55  1  0  0  0  0
 52 77  1  0  0  0  0
 53 80  1  0  0  0  0
 54 76  1  0  0  0  0
 55 74  1  0  0  0  0
 56 58  1  0  0  0  0
 56 59  1  0  0  0  0
 56 75  1  0  0  0  0
 60 69  1  0  0  0  0
 61 70  1  0  0  0  0
 62 70  1  0  0  0  0
 63 70  1  0  0  0  0
 64 82  1  0  0  0  0
 65 66  1  0  0  0  0
 66 67  1  0  0  0  0
 67 89  1  0  0  0  0
 68 70  1  0  0  0  0
 68 81  1  0  0  0  0
 69 82  1  0  0  0  0
 71 74  1  0  0  0  0
M  CHG  1  82   1
M  ISO  4  40 100  67 101  73 100  89 101
M  END
> <Batch ID>
0111

> <Smiles>
CNC(C)C(=O)NC(C(=O)N1Cc2cc([101O:1][101CH2:1]CCC=Nc3ccc(C=[100N:0][100C:0](=O)N4CCCC(n5nc(-c6ccc(Oc7ccc(F)cc7F)cc6)c(C(N)=O)c5N)C4)c(N4CCCC4(C)C)c3C)ccc2CC1C(=O)NC1CCCc2ccccc21)C(C)(C)C

> <Shape>
0.225

> <Color>
0.175

> <Negative vol penalty>
0.000

$$$$

  -OEChem-04052301283D

 83 91  0     1  0  0  0  0  0999 V2000
  -16.7141  -30.3368   23.0804 C   0  0  0  0  0  0  0  0  0  0  0  0
  -17.8973  -30.9507   22.6824 C   0  0  0  0  0  0  0  0  0  0  0  0
  -25.8307  -15.5951   21.8631 C   0  0  0  0  0  0  0  0  0  0  0  0
  -25.5033  -16.5432   19.6652 C   0  0  0  0  0  0  0  0  0  0  0  0
  -16.7510  -29.0829   23.6888 C   0  0  0  0  0  0  0  0  0  0  0  0
  -19.1184  -30.3114   22.8934 C   0  0  0  0  0  0  0  0  0  0  0  0
  -25.6223  -29.5946   19.9775 C   0  0  0  0  0  0  0  0  0  0  0  0
  -24.5474  -15.0503   21.8193 C   0  0  0  0  0  0  0  0  0  0  0  0
  -24.2200  -15.9983   19.6213 C   0  0  0  0  0  0  0  0  0  0  0  0
  -26.9710  -29.7093   20.3115 C   0  0  0  0  0  0  0  0  0  0  0  0
  -21.4918  -13.1063   22.1352 C   0  0  0  0  0  0  0  0  0  0  0  0
  -21.3343  -11.7837   22.5492 C   0  0  0  0  0  0  0  0  0  0  0  0
  -26.9071  -27.5097   21.2999 C   0  0  0  0  0  0  0  0  0  0  0  0
  -22.8612  -11.0612   20.8218 C   0  0  0  0  0  0  0  0  0  0  0  0
  -29.1196  -24.6769   16.6685 C   0  0  0  0  0  0  0  0  0  0  0  0
  -26.3086  -16.3416   20.7861 C   0  0  0  0  0  0  0  0  0  0  0  0
  -28.8289  -16.3033   20.3932 C   0  0  0  0  0  0  0  0  0  0  0  0
  -17.9725  -28.4236   23.8986 C   0  0  0  0  0  0  0  0  0  0  0  0
  -24.9019  -28.4391   20.3124 C   0  0  0  0  0  0  0  0  0  0  0  0
  -19.1719  -29.0480   23.5063 C   0  0  0  0  0  0  0  0  0  0  0  0
  -25.5500  -27.3818   20.9667 C   0  0  0  0  0  0  0  0  0  0  0  0
  -29.7006  -25.9065   16.9029 C   0  0  0  0  0  0  0  0  0  0  0  0
  -23.7421  -15.2518   20.6984 C   0  0  0  0  0  0  0  0  0  0  0  0
  -27.6129  -28.6680   20.9754 C   0  0  0  0  0  0  0  0  0  0  0  0
  -22.3340  -13.4065   21.0644 C   0  0  0  0  0  0  0  0  0  0  0  0
  -22.0190  -10.7611   21.8925 C   0  0  0  0  0  0  0  0  0  0  0  0
  -23.0187  -12.3839   20.4078 C   0  0  0  0  0  0  0  0  0  0  0  0
  -27.6340  -16.9051   20.8310 C   0  0  0  0  0  0  0  0  0  0  0  0
  -30.1352  -26.1250   18.1943 C   0  0  0  0  0  0  0  0  0  0  0  0
  -29.7998  -17.2398   20.6517 C   0  0  0  0  0  0  0  0  0  0  0  0
  -29.4335  -24.0595   18.8335 C   0  0  0  0  0  0  0  0  0  0  0  0
  -29.0422  -15.0131   19.8054 C   0  0  0  0  0  0  0  0  0  0  0  0
  -30.7833  -27.4096   18.5916 C   0  0  0  0  0  0  0  0  0  0  0  0
  -22.3810  -27.8204   22.1471 C   0  0  0  0  0  0  0  0  0  0  0  0
  -22.6893  -24.8441   20.8944 C   0  0  0  0  0  0  0  0  0  0  0  0
  -24.7073  -22.5077   19.4400 C   0  0  0  0  0  0  0  0  0  0  0  0
  -29.6930  -23.1905   21.1838 C   0  0  0  0  0  0  0  0  0  0  0  0
  -17.9659  -27.0899   24.6030 C   0  0  0  0  0  0  0  0  0  0  0  0
  -23.4544  -28.3199   19.9213 C   0  0  0  0  0  0  0  0  0  0  0  0
  -24.8266  -26.1119   21.3307 C   0  0  0  0  0  0  0  0  0  0  0  0
  -19.2720  -26.3144   24.4510 C   0  0  0  0  0  0  0  0  0  0  0  0
  -30.8198  -20.8544   23.6231 C   0  0  0  0  0  0  0  0  0  0  0  0
  -20.4673  -27.2260   24.7097 C   0  0  0  0  0  0  0  0  0  0  0  0
  -30.2445  -19.5207   23.1407 C   0  0  0  0  0  0  0  0  0  0  0  0
  -29.8580  -22.0131   23.3659 C   0  0  0  0  0  0  0  0  0  0  0  0
  -28.8076  -20.7963   21.4990 C   0  0  0  0  0  0  0  0  0  0  0  0
  -20.5142  -28.3754   23.6957 C   0  0  1  0  0  0  0  0  0  0  0  0
  -22.6879  -27.3086   20.7682 C   0  0  1  0  0  0  0  0  0  0  0  0
  -29.7677  -19.6088   21.6777 C   0  0  2  0  0  0  0  0  0  0  0  0
  -24.6849  -20.1561   18.5643 C   0  0  0  0  0  0  0  0  0  0  0  0
  -22.7372  -23.7813   23.7542 C   0  0  0  0  0  0  0  0  0  0  0  0
  -23.6524  -21.6275   22.8644 C   0  0  0  0  0  0  0  0  0  0  0  0
  -21.3925  -22.4086   22.1535 C   0  0  0  0  0  0  0  0  0  0  0  0
  -25.4247  -23.3944   16.7091 C   0  0  0  0  0  0  0  0  0  0  0  0
  -31.2385  -27.5831   20.0327 C   0  0  0  0  0  0  0  0  0  0  0  0
  -31.1708  -29.0392   20.4887 C   0  0  0  0  0  0  0  0  0  0  0  0
  -29.7471  -29.5753   20.4482 C   0  0  0  0  0  0  0  0  0  1  0  0
  -23.4462  -23.5957   21.2785 C   0  0  1  0  0  0  0  0  0  0  0  0
  -24.5113  -21.6270   18.2192 C   0  0  2  0  0  0  0  0  0  0  0  0
  -22.8205  -22.8779   22.5076 C   0  0  0  0  0  0  0  0  0  0  0  0
  -28.9694  -23.7263   17.6140 N   0  0  0  0  0  0  0  0  0  0  0  0
  -27.8258  -18.1292   21.3300 N   0  0  0  0  0  0  0  0  0  0  0  0
  -30.0169  -25.2202   19.1882 N   0  0  0  0  0  0  0  0  0  0  0  0
  -29.1526  -18.3041   21.2073 N   0  0  0  0  0  0  0  0  0  0  0  0
  -23.4108  -26.0457   20.9325 N   0  0  0  0  0  0  0  0  0  0  0  0
  -29.4526  -22.0362   21.9588 N   0  0  0  0  0  0  0  0  0  0  0  0
  -29.8303  -26.8569   15.8827 N   0  0  0  0  0  0  0  0  0  0  0  0
  -31.1354  -17.2485   20.4557 N   0  0  0  0  0  0  0  0  0  0  0  0
  -27.9349  -14.1765   19.6102 N   0  0  0  0  0  0  0  0  0  0  0  0
  -29.2943  -23.0840   19.8518 N   0  0  0  0  0  0  0  0  0  0  0  0
  -21.0307  -27.9091   22.4267 N   0  0  0  0  0  0  0  0  0  0  0  0
  -23.5129  -22.7725   20.0759 N   0  0  0  0  0  0  0  0  0  0  0  0
  -25.4990  -21.9812   17.1609 N   0  3  0  0  0  0  0  0  0  0  0  0
  -30.1833  -14.6075   19.4784 O   0  0  0  0  0  0  0  0  0  0  0  0
  -30.9332  -28.2916   17.7490 O   0  0  0  0  0  0  0  0  0  0  0  0
  -23.3012  -28.1117   22.9021 O   0  0  0  0  0  0  0  0  0  0  0  0
  -21.5037  -24.7554   20.5657 O   0  0  0  0  0  0  0  0  0  0  0  0
  -25.8103  -22.9165   19.7962 O   0  0  0  0  0  0  0  0  0  0  0  0
  -30.2390  -24.1893   21.6594 O   0  0  0  0  0  0  0  0  0  0  0  0
  -22.4899  -14.7202   20.6551 O   0  0  0  0  0  0  0  0  0  0  0  0
  -28.9291  -28.7777   21.3031 O   0  0  0  0  0  0  0  0  0  1  0  0
  -21.8689   -9.4912   22.2912 F   0  0  0  0  0  0  0  0  0  0  0  0
  -23.8300  -12.6662   19.3792 F   0  0  0  0  0  0  0  0  0  0  0  0
  1  2  1  0  0  0  0
  1  5  2  0  0  0  0
  2  6  2  0  0  0  0
  3  8  2  0  0  0  0
  3 16  1  0  0  0  0
  4  9  1  0  0  0  0
  4 16  2  0  0  0  0
  5 18  1  0  0  0  0
  6 20  1  0  0  0  0
  7 10  2  0  0  0  0
  7 19  1  0  0  0  0
  8 23  1  0  0  0  0
  9 23  2  0  0  0  0
 10 24  1  0  0  0  0
 11 12  2  0  0  0  0
 11 25  1  0  0  0  0
 12 26  1  0  0  0  0
 13 21  1  0  0  0  0
 13 24  2  0  0  0  0
 14 26  2  0  0  0  0
 14 27  1  0  0  0  0
 15 22  1  0  0  0  0
 15 61  2  0  0  0  0
 16 28  1  0  0  0  0
 17 28  1  0  0  0  0
 17 30  2  0  0  0  0
 17 32  1  0  0  0  0
 18 20  2  0  0  0  0
 18 38  1  0  0  0  0
 19 21  2  0  0  0  0
 19 39  1  0  0  0  0
 20 47  1  0  0  0  0
 21 40  1  0  0  0  0
 22 29  2  0  0  0  0
 22 67  1  0  0  0  0
 23 80  1  0  0  0  0
 24 81  1  0  0  0  0
 25 27  2  0  0  0  0
 25 80  1  0  0  0  0
 26 82  1  0  0  0  0
 27 83  1  0  0  0  0
 28 62  2  0  0  0  0
 29 33  1  0  0  0  0
 29 63  1  0  0  0  0
 30 64  1  0  0  0  0
 30 68  1  0  0  0  0
 31 61  1  0  0  0  0
 31 63  2  0  0  0  0
 31 70  1  0  0  0  0
 32 69  1  0  0  0  0
 32 74  2  0  0  0  0
 33 55  1  0  0  0  0
 33 75  2  0  0  0  0
 34 48  1  0  0  0  0
 34 71  1  0  0  0  0
 34 76  2  0  0  0  0
 35 58  1  0  0  0  0
 35 65  1  0  0  0  0
 35 77  2  0  0  0  0
 36 59  1  0  0  0  0
 36 72  1  0  0  0  0
 36 78  2  0  0  0  0
 37 66  1  0  0  0  0
 37 70  1  0  0  0  0
 37 79  2  0  0  0  0
 38 41  1  0  0  0  0
 39 48  1  0  0  0  0
 40 65  1  0  0  0  0
 41 43  1  0  0  0  0
 42 44  1  0  0  0  0
 42 45  1  0  0  0  0
 43 47  1  0  0  0  0
 44 49  1  0  0  0  0
 45 66  1  0  0  0  0
 46 49  1  0  0  0  0
 46 66  1  0  0  0  0
 47 71  1  0  0  0  0
 48 65  1  0  0  0  0
 49 64  1  0  0  0  0
 50 59  1  0  0  0  0
 51 60  1  0  0  0  0
 52 60  1  0  0  0  0
 53 60  1  0  0  0  0
 54 73  1  0  0  0  0
 55 56  1  0  0  0  0
 56 57  1  0  0  0  0
 57 81  1  0  0  0  0
 58 60  1  0  0  0  0
 58 72  1  0  0  0  0
 59 73  1  0  0  0  0
 62 64  1  0  0  0  0
M  CHG  1  73   1
M  ISO  4  37 100  57 101  70 100  81 101
M  END
> <Batch ID>
0111

> <Smiles>
CNC(C)C(=O)NC(C(=O)N1Cc2cc([101O:1][101CH2:1]CCC(=O)c3nc([100NH:0][100C:0](=O)N4CCCC(n5nc(-c6ccc(Oc7ccc(F)cc7F)cc6)c(C(N)=O)c5N)C4)ncc3N)ccc2CC1C(=O)NC1CCCc2ccccc21)C(C)(C)C

> <Shape>
0.252

> <Color>
0.079

> <Negative vol penalty>
0.000

$$$$

  -OEChem-04052301283D

 83 91  0     1  0  0  0  0  0999 V2000
  -31.6400  -19.0965   23.9172 C   0  0  0  0  0  0  0  0  0  0  0  0
  -30.3988  -19.7066   24.0669 C   0  0  0  0  0  0  0  0  0  0  0  0
  -29.7152  -28.0388   20.8638 C   0  0  0  0  0  0  0  0  0  0  0  0
  -27.9815  -27.3502   19.3285 C   0  0  0  0  0  0  0  0  0  0  0  0
  -31.7954  -18.0481   23.0112 C   0  0  0  0  0  0  0  0  0  0  0  0
  -29.3124  -19.2695   23.3099 C   0  0  0  0  0  0  0  0  0  0  0  0
  -23.4476  -19.0674   25.0621 C   0  0  0  0  0  0  0  0  0  0  0  0
  -30.3975  -26.8452   20.6287 C   0  0  0  0  0  0  0  0  0  0  0  0
  -28.6638  -26.1565   19.0934 C   0  0  0  0  0  0  0  0  0  0  0  0
  -22.3728  -19.9278   24.8423 C   0  0  0  0  0  0  0  0  0  0  0  0
  -29.0920  -23.1842   20.6466 C   0  0  0  0  0  0  0  0  0  0  0  0
  -28.3496  -22.0034   20.6422 C   0  0  0  0  0  0  0  0  0  0  0  0
  -21.6733  -18.5676   22.9769 C   0  0  0  0  0  0  0  0  0  0  0  0
  -18.5425  -28.5344   23.2400 C   0  0  0  0  0  0  0  0  0  0  0  0
  -29.0236  -21.5882   18.3595 C   0  0  0  0  0  0  0  0  0  0  0  0
  -28.5071  -28.2913   20.2137 C   0  0  0  0  0  0  0  0  0  0  0  0
  -27.9415  -30.7361   19.7545 C   0  0  0  0  0  0  0  0  0  0  0  0
  -30.7080  -17.5915   22.2497 C   0  0  0  0  0  0  0  0  0  0  0  0
  -23.6499  -17.9548   24.2327 C   0  0  0  0  0  0  0  0  0  0  0  0
  -29.4536  -18.2150   22.3920 C   0  0  0  0  0  0  0  0  0  0  0  0
  -22.7499  -17.6932   23.1898 C   0  0  0  0  0  0  0  0  0  0  0  0
  -18.2520  -27.1439   23.3507 C   0  0  0  0  0  0  0  0  0  0  0  0
  -29.8718  -25.9040   19.7435 C   0  0  0  0  0  0  0  0  0  0  0  0
  -21.4871  -19.6796   23.7978 C   0  0  0  0  0  0  0  0  0  0  0  0
  -29.8002  -23.5671   19.5075 C   0  0  0  0  0  0  0  0  0  0  0  0
  -28.3154  -21.2053   19.4986 C   0  0  0  0  0  0  0  0  0  0  0  0
  -29.7660  -22.7691   18.3639 C   0  0  0  0  0  0  0  0  0  0  0  0
  -27.8015  -29.5239   20.4566 C   0  0  0  0  0  0  0  0  0  0  0  0
  -19.5872  -28.7776   22.3758 C   0  0  0  0  0  0  0  0  0  0  0  0
  -27.0584  -31.5914   20.3668 C   0  0  0  0  0  0  0  0  0  0  0  0
  -19.0858  -26.3772   22.5665 C   0  0  0  0  0  0  0  0  0  0  0  0
  -28.7936  -31.0599   18.6478 C   0  0  0  0  0  0  0  0  0  0  0  0
  -25.9608  -17.0165   22.2623 C   0  0  0  0  0  0  0  0  0  0  0  0
  -19.7944  -22.7889   23.0411 C   0  0  0  0  0  0  0  0  0  0  0  0
  -24.1648  -14.3225   22.0651 C   0  0  0  0  0  0  0  0  0  0  0  0
  -21.0980  -12.8563   22.3690 C   0  0  0  0  0  0  0  0  0  0  0  0
  -22.0431  -30.7065   23.5156 C   0  0  0  0  0  0  0  0  0  0  0  0
  -30.9358  -16.4865   21.2489 C   0  0  0  0  0  0  0  0  0  0  0  0
  -24.7988  -17.0214   24.4996 C   0  0  0  0  0  0  0  0  0  0  0  0
  -22.9112  -16.5011   22.2835 C   0  0  0  0  0  0  0  0  0  0  0  0
  -29.6459  -15.8350   20.7569 C   0  0  0  0  0  0  0  0  0  0  0  0
  -24.9703  -32.4250   24.5901 C   0  0  0  0  0  0  0  0  0  0  0  0
  -28.6172  -16.8993   20.3882 C   0  0  0  0  0  0  0  0  0  0  0  0
  -26.0405  -31.9857   23.5892 C   0  0  0  0  0  0  0  0  0  0  0  0
  -24.0019  -31.2899   24.9153 C   0  0  0  0  0  0  0  0  0  0  0  0
  -24.4424  -30.2182   22.7402 C   0  0  0  0  0  0  0  0  0  0  0  0
  -28.2454  -17.7527   21.6068 C   0  0  1  0  0  0  0  0  0  0  0  0
  -25.2029  -16.2059   23.2753 C   0  0  1  0  0  0  0  0  0  0  0  0
  -25.4093  -31.3452   22.3384 C   0  0  2  0  0  0  0  0  0  0  0  0
  -17.1761  -26.5971   24.2113 C   0  0  0  0  0  0  0  0  0  0  0  0
  -19.9355  -10.6480   22.1055 C   0  0  0  0  0  0  0  0  0  0  0  0
  -24.2186  -14.6586   19.0329 C   0  0  0  0  0  0  0  0  0  0  0  0
  -22.3120  -13.0423   18.8897 C   0  0  0  0  0  0  0  0  0  0  0  0
  -24.5028  -12.3042   19.8267 C   0  0  0  0  0  0  0  0  0  0  0  0
  -20.3188  -12.7946   25.2235 C   0  0  0  0  0  0  0  0  0  0  0  0
  -20.1849  -30.0763   21.9960 C   0  0  0  0  0  0  0  0  0  0  0  0
  -20.6151  -21.8875   23.9407 C   0  0  0  0  0  0  0  0  0  1  0  0
  -19.9113  -24.2749   23.3112 C   0  0  0  0  0  0  0  0  0  0  0  0
  -23.0343  -13.8536   21.1812 C   0  0  1  0  0  0  0  0  0  0  0  0
  -20.6552  -11.5823   23.0657 C   0  0  2  0  0  0  0  0  0  0  0  0
  -23.5147  -13.4883   19.7483 C   0  0  0  0  0  0  0  0  0  0  0  0
  -26.9005  -29.5985   21.4397 N   0  0  0  0  0  0  0  0  0  0  0  0
  -26.4664  -30.8679   21.3599 N   0  0  0  0  0  0  0  0  0  0  0  0
  -24.0537  -15.6214   22.5810 N   0  0  0  0  0  0  0  0  0  0  0  0
  -23.4372  -30.7271   23.6864 N   0  0  0  0  0  0  0  0  0  0  0  0
  -26.7382  -32.8844   20.1473 N   0  0  0  0  0  0  0  0  0  0  0  0
  -29.6389  -30.0632   18.1414 N   0  0  0  0  0  0  0  0  0  0  0  0
  -27.3276  -17.0351   22.4653 N   0  0  0  0  0  0  0  0  0  0  0  0
  -22.3882  -12.7560   21.8928 N   0  0  0  0  0  0  0  0  0  0  0  0
  -21.5915  -30.1617   22.3198 N   0  0  0  0  0  0  0  0  0  0  0  0
  -19.7322  -11.9015   24.1913 N   0  3  0  0  0  0  0  0  0  0  0  0
  -28.8169  -32.2040   18.1340 O   0  0  0  0  0  0  0  0  0  0  0  0
  -25.3510  -17.5819   21.3622 O   0  0  0  0  0  0  0  0  0  0  0  0
  -19.0772  -22.3416   22.1474 O   0  0  0  0  0  0  0  0  0  0  0  0
  -25.1080  -13.5616   22.2952 O   0  0  0  0  0  0  0  0  0  0  0  0
  -20.3708  -13.8405   22.2551 O   0  0  0  0  0  0  0  0  0  0  0  0
  -21.2591  -31.1462   24.3636 O   0  0  0  0  0  0  0  0  0  0  0  0
  -30.5375  -24.7393   19.5137 O   0  0  0  0  0  0  0  0  0  0  0  0
  -20.4376  -20.5181   23.5806 O   0  0  0  0  0  0  0  0  0  1  0  0
  -19.0954  -25.0099   22.4236 O   0  0  0  0  0  0  0  0  0  0  0  0
  -27.6036  -20.0706   19.4950 F   0  0  0  0  0  0  0  0  0  0  0  0
  -30.4452  -23.1311   17.2670 F   0  0  0  0  0  0  0  0  0  0  0  0
  -20.2132  -27.3331   21.7019 S   0  0  0  0  0  0  0  0  0  0  0  0
  1  2  1  0  0  0  0
  1  5  2  0  0  0  0
  2  6  2  0  0  0  0
  3  8  2  0  0  0  0
  3 16  1  0  0  0  0
  4  9  1  0  0  0  0
  4 16  2  0  0  0  0
  5 18  1  0  0  0  0
  6 20  1  0  0  0  0
  7 10  2  0  0  0  0
  7 19  1  0  0  0  0
  8 23  1  0  0  0  0
  9 23  2  0  0  0  0
 10 24  1  0  0  0  0
 11 12  2  0  0  0  0
 11 25  1  0  0  0  0
 12 26  1  0  0  0  0
 13 21  1  0  0  0  0
 13 24  2  0  0  0  0
 14 22  1  0  0  0  0
 14 29  2  0  0  0  0
 15 26  2  0  0  0  0
 15 27  1  0  0  0  0
 16 28  1  0  0  0  0
 17 28  1  0  0  0  0
 17 30  2  0  0  0  0
 17 32  1  0  0  0  0
 18 20  2  0  0  0  0
 18 38  1  0  0  0  0
 19 21  2  0  0  0  0
 19 39  1  0  0  0  0
 20 47  1  0  0  0  0
 21 40  1  0  0  0  0
 22 31  2  0  0  0  0
 22 50  1  0  0  0  0
 23 78  1  0  0  0  0
 24 79  1  0  0  0  0
 25 27  2  0  0  0  0
 25 78  1  0  0  0  0
 26 81  1  0  0  0  0
 27 82  1  0  0  0  0
 28 62  2  0  0  0  0
 29 56  1  0  0  0  0
 29 83  1  0  0  0  0
 30 63  1  0  0  0  0
 30 66  1  0  0  0  0
 31 80  1  0  0  0  0
 31 83  1  0  0  0  0
 32 67  1  0  0  0  0
 32 72  2  0  0  0  0
 33 48  1  0  0  0  0
 33 68  1  0  0  0  0
 33 73  2  0  0  0  0
 34 57  1  0  0  0  0
 34 58  1  0  0  0  0
 34 74  2  0  0  0  0
 35 59  1  0  0  0  0
 35 64  1  0  0  0  0
 35 75  2  0  0  0  0
 36 60  1  0  0  0  0
 36 69  1  0  0  0  0
 36 76  2  0  0  0  0
 37 65  1  0  0  0  0
 37 70  1  0  0  0  0
 37 77  2  0  0  0  0
 38 41  1  0  0  0  0
 39 48  1  0  0  0  0
 40 64  1  0  0  0  0
 41 43  1  0  0  0  0
 42 44  1  0  0  0  0
 42 45  1  0  0  0  0
 43 47  1  0  0  0  0
 44 49  1  0  0  0  0
 45 65  1  0  0  0  0
 46 49  1  0  0  0  0
 46 65  1  0  0  0  0
 47 68  1  0  0  0  0
 48 64  1  0  0  0  0
 49 63  1  0  0  0  0
 51 60  1  0  0  0  0
 52 61  1  0  0  0  0
 53 61  1  0  0  0  0
 54 61  1  0  0  0  0
 55 71  1  0  0  0  0
 56 70  1  0  0  0  0
 57 79  1  0  0  0  0
 58 80  1  0  0  0  0
 59 61  1  0  0  0  0
 59 69  1  0  0  0  0
 60 71  1  0  0  0  0
 62 63  1  0  0  0  0
M  CHG  1  71   1
M  ISO  4  37 100  57 101  70 100  79 101
M  END
> <Batch ID>
0111

> <Smiles>
CNC(C)C(=O)NC(C(=O)N1Cc2cc([101O:1][101CH2:1]C(=O)COc3sc(C[100NH:0][100C:0](=O)N4CCCC(n5nc(-c6ccc(Oc7ccc(F)cc7F)cc6)c(C(N)=O)c5N)C4)cc3C)ccc2CC1C(=O)NC1CCCc2ccccc21)C(C)(C)C

> <Shape>
0.248

> <Color>
0.057

> <Negative vol penalty>
0.000

$$$$

  -OEChem-04052301283D

 88 96  0     1  0  0  0  0  0999 V2000
  -19.2761  -24.7078   22.1948 C   0  0  0  0  0  0  0  0  0  0  0  0
  -20.6585  -24.5864   22.0967 C   0  0  0  0  0  0  0  0  0  0  0  0
  -23.9245  -13.3437   20.4775 C   0  0  0  0  0  0  0  0  0  0  0  0
  -26.0241  -13.6167   21.6411 C   0  0  0  0  0  0  0  0  0  0  0  0
  -18.6644  -25.9321   21.9290 C   0  0  0  0  0  0  0  0  0  0  0  0
  -21.4299  -25.6891   21.7316 C   0  0  0  0  0  0  0  0  0  0  0  0
  -27.0580  -27.0642   23.7163 C   0  0  0  0  0  0  0  0  0  0  0  0
  -24.2710  -12.0304   20.1604 C   0  0  0  0  0  0  0  0  0  0  0  0
  -26.3706  -12.3033   21.3240 C   0  0  0  0  0  0  0  0  0  0  0  0
  -28.3223  -26.8654   23.1633 C   0  0  0  0  0  0  0  0  0  0  0  0
  -24.4466   -8.4903   19.3530 C   0  0  0  0  0  0  0  0  0  0  0  0
  -23.4748   -7.5042   19.5225 C   0  0  0  0  0  0  0  0  0  0  0  0
  -28.2824  -29.1099   22.2802 C   0  0  0  0  0  0  0  0  0  0  0  0
  -30.1384  -22.9932   16.6002 C   0  0  0  0  0  0  0  0  0  0  0  0
  -23.3455   -8.0364   21.8757 C   0  0  0  0  0  0  0  0  0  0  0  0
  -24.8011  -14.1369   21.2179 C   0  0  0  0  0  0  0  0  0  0  0  0
  -23.7529  -15.9389   22.6882 C   0  0  0  0  0  0  0  0  0  0  0  0
  -19.4296  -27.0529   21.5698 C   0  0  0  0  0  0  0  0  0  0  0  0
  -26.3907  -28.2857   23.5459 C   0  0  0  0  0  0  0  0  0  0  0  0
  -20.8278  -26.9292   21.4594 C   0  0  0  0  0  0  0  0  0  0  0  0
  -27.0108  -29.3226   22.8342 C   0  0  0  0  0  0  0  0  0  0  0  0
  -28.9492  -22.4601   17.0972 C   0  0  0  0  0  0  0  0  0  0  0  0
  -29.1831  -23.8000   19.0940 C   0  0  0  0  0  0  0  0  0  0  0  0
  -30.3724  -24.3330   18.5969 C   0  0  0  0  0  0  0  0  0  0  0  0
  -28.4715  -22.8635   18.3441 C   0  0  0  0  0  0  0  0  0  0  0  0
  -25.4940  -11.5101   20.5837 C   0  0  0  0  0  0  0  0  0  0  0  0
  -28.9335  -27.8873   22.4427 C   0  0  0  0  0  0  0  0  0  0  0  0
  -24.8680   -9.2494   20.4447 C   0  0  0  0  0  0  0  0  0  0  0  0
  -30.8501  -23.9296   17.3500 C   0  0  0  0  0  0  0  0  0  0  0  0
  -22.9242   -7.2772   20.7839 C   0  0  0  0  0  0  0  0  0  0  0  0
  -24.3174   -9.0224   21.7061 C   0  0  0  0  0  0  0  0  0  0  0  0
  -24.4439  -15.4939   21.5453 C   0  0  0  0  0  0  0  0  0  0  0  0
  -23.6655  -17.3003   22.5282 C   0  0  0  0  0  0  0  0  0  0  0  0
  -25.8783  -24.2453   18.5230 C   0  0  0  0  0  0  0  0  0  0  0  0
  -26.1440  -23.1033   19.1611 C   0  0  0  0  0  0  0  0  0  0  0  0
  -30.7836  -26.5152   19.1385 C   0  0  0  0  0  0  0  0  0  0  0  0
  -23.2363  -15.1888   23.7955 C   0  0  0  0  0  0  0  0  0  0  0  0
  -23.6691  -29.1820   22.1698 C   0  0  0  0  0  0  0  0  0  0  0  0
  -24.4161  -32.0609   23.4644 C   0  0  0  0  0  0  0  0  0  0  0  0
  -26.8248  -34.1644   24.6562 C   0  0  0  0  0  0  0  0  0  0  0  0
  -27.1998  -20.9332   19.2129 C   0  0  0  0  0  0  0  0  0  0  0  0
  -18.7193  -28.3433   21.2460 C   0  0  0  0  0  0  0  0  0  0  0  0
  -25.0387  -28.4936   24.1714 C   0  0  0  0  0  0  0  0  0  0  0  0
  -26.3453  -30.6597   22.6399 C   0  0  0  0  0  0  0  0  0  0  0  0
  -19.6422  -29.5592   21.2299 C   0  0  0  0  0  0  0  0  0  0  0  0
  -23.4775  -20.6815   19.1603 C   0  0  0  0  0  0  0  0  0  0  0  0
  -20.9131  -29.2543   20.4432 C   0  0  0  0  0  0  0  0  0  0  0  0
  -23.2632  -19.3205   19.8209 C   0  0  0  0  0  0  0  0  0  0  0  0
  -24.7992  -20.7258   18.4026 C   0  0  0  0  0  0  0  0  0  0  0  0
  -25.7816  -19.0239   19.9077 C   0  0  0  0  0  0  0  0  0  0  0  0
  -21.7010  -28.1088   21.0902 C   0  0  1  0  0  0  0  0  0  0  0  0
  -24.2327  -29.6003   23.4984 C   0  0  1  0  0  0  0  0  0  0  0  0
  -24.4663  -18.9389   20.7002 C   0  0  2  0  0  0  0  0  0  0  0  0
  -28.2104  -21.4577   16.2709 C   0  0  0  0  0  0  0  0  0  0  0  0
  -28.6741  -24.2360   20.4331 C   0  0  0  0  0  0  0  0  0  0  0  0
  -32.2008  -28.5133   18.8805 C   0  0  0  0  0  0  0  0  0  0  0  0
  -27.1350  -36.4648   25.6100 C   0  0  0  0  0  0  0  0  0  0  0  0
  -24.0949  -33.2577   20.6761 C   0  0  0  0  0  0  0  0  0  0  0  0
  -25.3137  -35.2900   21.4839 C   0  0  0  0  0  0  0  0  0  0  0  0
  -23.1395  -34.6462   22.5238 C   0  0  0  0  0  0  0  0  0  0  0  0
  -27.8927  -33.0920   27.1995 C   0  0  0  0  0  0  0  0  0  0  0  0
  -33.2136  -23.7439   17.1624 C   0  0  0  0  0  0  0  0  0  0  0  0
  -30.4693  -28.4108   20.7040 C   0  0  0  0  0  0  0  0  0  1  0  0
  -31.4909  -27.6204   19.8906 C   0  0  1  0  0  0  0  0  0  0  0  0
  -25.2019  -33.2666   23.0086 C   0  0  1  0  0  0  0  0  0  0  0  0
  -26.8985  -34.9957   25.9243 C   0  0  2  0  0  0  0  0  0  0  0  0
  -24.4495  -34.0894   21.9249 C   0  0  0  0  0  0  0  0  0  0  0  0
  -24.7721  -16.4916   20.7201 N   0  0  0  0  0  0  0  0  0  0  0  0
  -31.0935  -25.2770   19.3469 N   0  0  0  0  0  0  0  0  0  0  0  0
  -24.2851  -17.5771   21.3451 N   0  0  0  0  0  0  0  0  0  0  0  0
  -25.0212  -30.8119   23.2653 N   0  0  0  0  0  0  0  0  0  0  0  0
  -25.9255  -20.3303   19.2607 N   0  0  0  0  0  0  0  0  0  0  0  0
  -23.1199  -18.2756   23.2855 N   0  0  0  0  0  0  0  0  0  0  0  0
  -23.4130  -13.7985   23.8013 N   0  0  0  0  0  0  0  0  0  0  0  0
  -22.4254  -28.5851   22.2490 N   0  0  0  0  0  0  0  0  0  0  0  0
  -25.5266  -34.0218   24.2139 N   0  0  0  0  0  0  0  0  0  0  0  0
  -27.2367  -22.3073   18.8586 N   0  0  0  0  0  0  0  0  0  0  0  0
  -28.0097  -34.5164   26.7940 N   0  3  0  0  0  0  0  0  0  0  0  0
  -22.6213  -15.7334   24.7435 O   0  0  0  0  0  0  0  0  0  0  0  0
  -24.3142  -29.3870   21.1483 O   0  0  0  0  0  0  0  0  0  0  0  0
  -23.3093  -32.2219   23.9847 O   0  0  0  0  0  0  0  0  0  0  0  0
  -27.8196  -33.6922   24.1105 O   0  0  0  0  0  0  0  0  0  0  0  0
  -28.2282  -20.3029   19.4911 O   0  0  0  0  0  0  0  0  0  0  0  0
  -25.8323  -10.2285   20.2746 O   0  0  0  0  0  0  0  0  0  0  0  0
  -32.0094  -24.4399   16.8475 O   0  0  0  0  0  0  0  0  0  0  0  0
  -30.1672  -27.6956   21.9013 O   0  0  0  0  0  0  0  0  0  1  0  0
  -21.9899   -6.3313   20.9463 F   0  0  0  0  0  0  0  0  0  0  0  0
  -24.7173   -9.7493   22.7585 F   0  0  0  0  0  0  0  0  0  0  0  0
  1  2  1  0  0  0  0
  1  5  2  0  0  0  0
  2  6  2  0  0  0  0
  3  8  2  0  0  0  0
  3 16  1  0  0  0  0
  4  9  1  0  0  0  0
  4 16  2  0  0  0  0
  5 18  1  0  0  0  0
  6 20  1  0  0  0  0
  7 10  2  0  0  0  0
  7 19  1  0  0  0  0
  8 26  1  0  0  0  0
  9 26  2  0  0  0  0
 10 27  1  0  0  0  0
 11 12  2  0  0  0  0
 11 28  1  0  0  0  0
 12 30  1  0  0  0  0
 13 21  1  0  0  0  0
 13 27  2  0  0  0  0
 14 22  2  0  0  0  0
 14 29  1  0  0  0  0
 15 30  2  0  0  0  0
 15 31  1  0  0  0  0
 16 32  1  0  0  0  0
 17 32  1  0  0  0  0
 17 33  2  0  0  0  0
 17 37  1  0  0  0  0
 18 20  2  0  0  0  0
 18 42  1  0  0  0  0
 19 21  2  0  0  0  0
 19 43  1  0  0  0  0
 20 51  1  0  0  0  0
 21 44  1  0  0  0  0
 22 25  1  0  0  0  0
 22 54  1  0  0  0  0
 23 24  1  0  0  0  0
 23 25  2  0  0  0  0
 23 55  1  0  0  0  0
 24 29  2  0  0  0  0
 24 69  1  0  0  0  0
 25 77  1  0  0  0  0
 26 84  1  0  0  0  0
 27 86  1  0  0  0  0
 28 31  2  0  0  0  0
 28 84  1  0  0  0  0
 29 85  1  0  0  0  0
 30 87  1  0  0  0  0
 31 88  1  0  0  0  0
 32 68  2  0  0  0  0
 33 70  1  0  0  0  0
 33 73  1  0  0  0  0
 34 35  2  0  0  0  0
 35 77  1  0  0  0  0
 36 64  1  0  0  0  0
 36 69  2  0  0  0  0
 37 74  1  0  0  0  0
 37 79  2  0  0  0  0
 38 52  1  0  0  0  0
 38 75  1  0  0  0  0
 38 80  2  0  0  0  0
 39 65  1  0  0  0  0
 39 71  1  0  0  0  0
 39 81  2  0  0  0  0
 40 66  1  0  0  0  0
 40 76  1  0  0  0  0
 40 82  2  0  0  0  0
 41 72  1  0  0  0  0
 41 77  1  0  0  0  0
 41 83  2  0  0  0  0
 42 45  1  0  0  0  0
 43 52  1  0  0  0  0
 44 71  1  0  0  0  0
 45 47  1  0  0  0  0
 46 48  1  0  0  0  0
 46 49  1  0  0  0  0
 47 51  1  0  0  0  0
 48 53  1  0  0  0  0
 49 72  1  0  0  0  0
 50 53  1  0  0  0  0
 50 72  1  0  0  0  0
 51 75  1  0  0  0  0
 52 71  1  0  0  0  0
 53 70  1  0  0  0  0
 56 64  1  0  0  0  0
 57 66  1  0  0  0  0
 58 67  1  0  0  0  0
 59 67  1  0  0  0  0
 60 67  1  0  0  0  0
 61 78  1  0  0  0  0
 62 85  1  0  0  0  0
 63 64  1  0  0  0  0
 63 86  1  0  0  0  0
 65 67  1  0  0  0  0
 65 76  1  0  0  0  0
 66 78  1  0  0  0  0
 68 70  1  0  0  0  0
M  CHG  1  78   1
M  ISO  4  41 100  63 101  77 100  86 101
M  END
> <Batch ID>
0111

> <Smiles>
C=C[100N:0](c1c(C)cc(OC)c(NC=C(C)[101CH2:1][101O:1]c2ccc3c(c2)CN(C(=O)C(NC(=O)C(C)NC)C(C)(C)C)C(C(=O)NC2CCCc4ccccc42)C3)c1C)[100C:0](=O)N1CCCC(n2nc(-c3ccc(Oc4ccc(F)cc4F)cc3)c(C(N)=O)c2N)C1

> <Shape>
0.254

> <Color>
0.089

> <Negative vol penalty>
0.000

$$$$

  -OEChem-04052301283D

 90 99  0     1  0  0  0  0  0999 V2000
  -28.9841  -30.2935   27.2390 C   0  0  0  0  0  0  0  0  0  0  0  0
  -28.8372  -29.5359   26.0814 C   0  0  0  0  0  0  0  0  0  0  0  0
  -24.5377   -8.1126   20.4715 C   0  0  0  0  0  0  0  0  0  0  0  0
  -23.3272  -10.1798   20.7856 C   0  0  0  0  0  0  0  0  0  0  0  0
  -27.8575  -30.7877   27.8950 C   0  0  0  0  0  0  0  0  0  0  0  0
  -27.5633  -29.2712   25.5798 C   0  0  0  0  0  0  0  0  0  0  0  0
  -27.2768  -29.9192   20.5655 C   0  0  0  0  0  0  0  0  0  0  0  0
  -30.1851  -20.8965   19.7589 C   0  0  0  0  0  0  0  0  0  0  0  0
  -30.2890  -19.6155   20.3009 C   0  0  0  0  0  0  0  0  0  0  0  0
  -23.4324   -7.3957   20.9295 C   0  0  0  0  0  0  0  0  0  0  0  0
  -22.2218   -9.4629   21.2436 C   0  0  0  0  0  0  0  0  0  0  0  0
  -27.7961  -28.9053   19.7618 C   0  0  0  0  0  0  0  0  0  0  0  0
  -22.0145   -6.6357   23.9021 C   0  0  0  0  0  0  0  0  0  0  0  0
  -22.2429   -5.6099   24.8192 C   0  0  0  0  0  0  0  0  0  0  0  0
  -25.5673  -28.0532   19.4070 C   0  0  0  0  0  0  0  0  0  0  0  0
  -27.9772  -20.3678   18.9324 C   0  0  0  0  0  0  0  0  0  0  0  0
  -21.2845   -4.0169   23.2762 C   0  0  0  0  0  0  0  0  0  0  0  0
  -24.4852   -9.5047   20.3996 C   0  0  0  0  0  0  0  0  0  0  0  0
  -26.2443  -10.1436   18.6661 C   0  0  0  0  0  0  0  0  0  0  0  0
  -26.5696  -30.5370   27.3958 C   0  0  0  0  0  0  0  0  0  0  0  0
  -25.8976  -30.0014   20.8053 C   0  0  0  0  0  0  0  0  0  0  0  0
  -26.4183  -29.7614   26.2305 C   0  0  0  0  0  0  0  0  0  0  0  0
  -25.0328  -29.0707   20.2120 C   0  0  0  0  0  0  0  0  0  0  0  0
  -29.0291  -21.2727   19.0747 C   0  0  0  0  0  0  0  0  0  0  0  0
  -29.2371  -18.7106   20.1586 C   0  0  0  0  0  0  0  0  0  0  0  0
  -22.2744   -8.0708   21.3155 C   0  0  0  0  0  0  0  0  0  0  0  0
  -26.9417  -27.9704   19.1847 C   0  0  0  0  0  0  0  0  0  0  0  0
  -21.4210   -6.3521   22.6720 C   0  0  0  0  0  0  0  0  0  0  0  0
  -21.8780   -4.3005   24.5062 C   0  0  0  0  0  0  0  0  0  0  0  0
  -28.0812  -19.0867   19.4744 C   0  0  0  0  0  0  0  0  0  0  0  0
  -21.0560   -5.0427   22.3591 C   0  0  0  0  0  0  0  0  0  0  0  0
  -25.6269  -10.2459   19.9271 C   0  0  0  0  0  0  0  0  0  0  0  0
  -27.2749  -11.0502   18.7138 C   0  0  0  0  0  0  0  0  0  0  0  0
  -27.6808  -24.6099   18.0883 C   0  0  0  0  0  0  0  0  0  0  0  0
  -27.9385  -23.5269   18.8635 C   0  0  0  0  0  0  0  0  0  0  0  0
  -28.4115  -24.7298   16.7782 C   0  0  0  0  0  0  0  0  0  0  0  0
  -25.9373  -23.6724   20.1939 C   0  0  0  0  0  0  0  0  0  0  0  0
  -30.2859  -18.0288   22.8234 C   0  0  0  0  0  0  0  0  0  0  0  0
  -27.2358  -23.3621   20.1279 C   0  0  0  0  0  0  0  0  0  0  0  0
  -30.1003  -17.1262   21.8577 C   0  0  0  0  0  0  0  0  0  0  0  0
  -25.9155   -9.3041   17.5512 C   0  0  0  0  0  0  0  0  0  0  0  0
  -24.0559  -29.8278   23.3902 C   0  0  0  0  0  0  0  0  0  0  0  0
  -21.7111  -30.6264   21.2958 C   0  0  0  0  0  0  0  0  0  0  0  0
  -20.7752  -29.7383   17.9264 C   0  0  0  0  0  0  0  0  0  0  0  0
  -28.8053  -16.2842   20.0028 C   0  0  0  0  0  0  0  0  0  0  0  0
  -25.3796  -31.0524   28.1657 C   0  0  0  0  0  0  0  0  0  0  0  0
  -25.3505  -31.1170   21.6530 C   0  0  0  0  0  0  0  0  0  0  0  0
  -23.5424  -29.1271   20.4217 C   0  0  0  0  0  0  0  0  0  0  0  0
  -29.3370  -23.6138   16.3582 C   0  0  0  0  0  0  0  0  0  0  0  0
  -24.0826  -31.0427   27.3607 C   0  0  0  0  0  0  0  0  0  0  0  0
  -29.2320  -13.6287   22.5888 C   0  0  0  0  0  0  0  0  0  0  0  0
  -23.9129  -29.7102   26.6379 C   0  0  0  0  0  0  0  0  0  0  0  0
  -28.3279  -12.5283   22.0355 C   0  0  0  0  0  0  0  0  0  0  0  0
  -29.9687  -22.9253   17.5547 C   0  0  0  0  0  0  0  0  0  0  0  0
  -28.7202  -15.0111   22.2015 C   0  0  0  0  0  0  0  0  0  0  0  0
  -27.6433  -14.1019   20.1665 C   0  0  0  0  0  0  0  0  0  0  0  0
  -25.0543  -29.4738   25.6415 C   0  0  1  0  0  0  0  0  0  0  0  0
  -23.9815  -30.8000   22.2469 C   0  0  1  0  0  0  0  0  0  0  0  0
  -28.1321  -12.6866   20.5180 C   0  0  2  0  0  0  0  0  0  0  0  0
  -19.5110  -31.0345   16.1888 C   0  0  0  0  0  0  0  0  0  0  0  0
  -19.2722  -29.1547   22.3893 C   0  0  0  0  0  0  0  0  0  0  0  0
  -18.4178  -28.9712   20.0431 C   0  0  0  0  0  0  0  0  0  0  0  0
  -18.7444  -31.2175   21.0775 C   0  0  0  0  0  0  0  0  0  0  0  0
  -22.9542  -29.4337   15.9469 C   0  0  0  0  0  0  0  0  0  0  0  0
  -26.7330  -25.7434   18.3765 C   0  0  0  0  0  0  0  0  0  1  0  0
  -20.7663  -29.8572   20.4043 C   0  0  1  0  0  0  0  0  0  0  0  0
  -20.8836  -30.6153   16.6920 C   0  0  2  0  0  0  0  0  0  0  0  0
  -19.3258  -29.7899   20.9855 C   0  0  0  0  0  0  0  0  0  0  0  0
  -26.2162  -11.1463   20.7182 N   0  0  0  0  0  0  0  0  0  0  0  0
  -27.2148  -11.6180   19.9524 N   0  0  0  0  0  0  0  0  0  0  0  0
  -28.9231  -22.5777   18.5232 N   0  0  0  0  0  0  0  0  0  0  0  0
  -23.0564  -30.2328   21.2637 N   0  0  0  0  0  0  0  0  0  0  0  0
  -28.5172  -15.1229   20.7497 N   0  0  0  0  0  0  0  0  0  0  0  0
  -28.2178  -11.4090   17.8167 N   0  0  0  0  0  0  0  0  0  0  0  0
  -24.8258   -8.4308   17.6709 N   0  0  0  0  0  0  0  0  0  0  0  0
  -24.8464  -30.2539   24.4404 N   0  0  0  0  0  0  0  0  0  0  0  0
  -20.8509  -30.4787   19.0871 N   0  0  0  0  0  0  0  0  0  0  0  0
  -29.3484  -17.3807   20.7223 N   0  0  0  0  0  0  0  0  0  0  0  0
  -21.5825  -29.8846   15.5972 N   0  3  0  0  0  0  0  0  0  0  0  0
  -28.2131  -25.6883   16.0316 O   0  0  0  0  0  0  0  0  0  0  0  0
  -26.5787   -9.3159   16.4866 O   0  0  0  0  0  0  0  0  0  0  0  0
  -23.4404  -28.7702   23.3250 O   0  0  0  0  0  0  0  0  0  0  0  0
  -21.2728  -31.5475   21.9895 O   0  0  0  0  0  0  0  0  0  0  0  0
  -20.6337  -28.5189   17.8668 O   0  0  0  0  0  0  0  0  0  0  0  0
  -28.6185  -16.3339   18.7801 O   0  0  0  0  0  0  0  0  0  0  0  0
  -21.1955   -7.3715   21.7623 O   0  0  0  0  0  0  0  0  0  0  0  0
  -27.4460  -26.9793   18.4003 O   0  0  0  0  0  0  0  0  0  1  0  0
  -22.0989   -3.3152   25.3864 F   0  0  0  0  0  0  0  0  0  0  0  0
  -27.0642  -18.2248   19.3313 F   0  0  0  0  0  0  0  0  0  0  0  0
  -20.4866   -4.7640   21.1784 F   0  0  0  0  0  0  0  0  0  0  0  0
  1  2  1  0  0  0  0
  1  5  2  0  0  0  0
  2  6  2  0  0  0  0
  3 10  2  0  0  0  0
  3 18  1  0  0  0  0
  4 11  1  0  0  0  0
  4 18  2  0  0  0  0
  5 20  1  0  0  0  0
  6 22  1  0  0  0  0
  7 12  2  0  0  0  0
  7 21  1  0  0  0  0
  8  9  2  0  0  0  0
  8 24  1  0  0  0  0
  9 25  1  0  0  0  0
 10 26  1  0  0  0  0
 11 26  2  0  0  0  0
 12 27  1  0  0  0  0
 13 14  2  0  0  0  0
 13 28  1  0  0  0  0
 14 29  1  0  0  0  0
 15 23  1  0  0  0  0
 15 27  2  0  0  0  0
 16 24  2  0  0  0  0
 16 30  1  0  0  0  0
 17 29  2  0  0  0  0
 17 31  1  0  0  0  0
 18 32  1  0  0  0  0
 19 32  1  0  0  0  0
 19 33  2  0  0  0  0
 19 41  1  0  0  0  0
 20 22  2  0  0  0  0
 20 46  1  0  0  0  0
 21 23  2  0  0  0  0
 21 47  1  0  0  0  0
 22 57  1  0  0  0  0
 23 48  1  0  0  0  0
 24 71  1  0  0  0  0
 25 30  2  0  0  0  0
 25 78  1  0  0  0  0
 26 86  1  0  0  0  0
 27 87  1  0  0  0  0
 28 31  2  0  0  0  0
 28 86  1  0  0  0  0
 29 88  1  0  0  0  0
 30 89  1  0  0  0  0
 31 90  1  0  0  0  0
 32 69  2  0  0  0  0
 33 70  1  0  0  0  0
 33 74  1  0  0  0  0
 34 35  2  0  0  0  0
 34 36  1  0  0  0  0
 34 65  1  0  0  0  0
 35 39  1  0  0  0  0
 35 71  1  0  0  0  0
 36 49  1  0  0  0  0
 36 80  2  0  0  0  0
 37 39  2  0  0  0  0
 38 40  2  0  0  0  0
 40 78  1  0  0  0  0
 41 75  1  0  0  0  0
 41 81  2  0  0  0  0
 42 58  1  0  0  0  0
 42 76  1  0  0  0  0
 42 82  2  0  0  0  0
 43 66  1  0  0  0  0
 43 72  1  0  0  0  0
 43 83  2  0  0  0  0
 44 67  1  0  0  0  0
 44 77  1  0  0  0  0
 44 84  2  0  0  0  0
 45 73  1  0  0  0  0
 45 78  1  0  0  0  0
 45 85  2  0  0  0  0
 46 50  1  0  0  0  0
 47 58  1  0  0  0  0
 48 72  1  0  0  0  0
 49 54  1  0  0  0  0
 50 52  1  0  0  0  0
 51 53  1  0  0  0  0
 51 55  1  0  0  0  0
 52 57  1  0  0  0  0
 53 59  1  0  0  0  0
 54 71  1  0  0  0  0
 55 73  1  0  0  0  0
 56 59  1  0  0  0  0
 56 73  1  0  0  0  0
 57 76  1  0  0  0  0
 58 72  1  0  0  0  0
 59 70  1  0  0  0  0
 60 67  1  0  0  0  0
 61 68  1  0  0  0  0
 62 68  1  0  0  0  0
 63 68  1  0  0  0  0
 64 79  1  0  0  0  0
 65 87  1  0  0  0  0
 66 68  1  0  0  0  0
 66 77  1  0  0  0  0
 67 79  1  0  0  0  0
 69 70  1  0  0  0  0
M  CHG  1  79   1
M  ISO  4  45 100  65 101  78 100  87 101
M  END
> <Batch ID>
0111

> <Smiles>
C=CC1=C([101CH2:1][101O:1]c2ccc3c(c2)CN(C(=O)C(NC(=O)C(C)NC)C(C)(C)C)C(C(=O)NC2CCCc4ccccc42)C3)C(=O)CCN1c1ccc([100N:0](C=C)[100C:0](=O)N2CCCC(n3nc(-c4ccc(Oc5ccc(F)cc5F)cc4)c(C(N)=O)c3N)C2)c(F)c1

> <Shape>
0.297

> <Color>
0.107

> <Negative vol penalty>
0.000

$$$$

  -OEChem-04052301283D

 86 94  0     1  0  0  0  0  0999 V2000
  -27.3131  -23.6743   17.7594 C   0  0  0  0  0  0  0  0  0  0  0  0
  -26.1371  -24.1255   18.3500 C   0  0  0  0  0  0  0  0  0  0  0  0
  -27.2910  -14.8611   21.0327 C   0  0  0  0  0  0  0  0  0  0  0  0
  -25.5645  -14.9067   19.3432 C   0  0  0  0  0  0  0  0  0  0  0  0
  -28.5468  -24.0541   18.2863 C   0  0  0  0  0  0  0  0  0  0  0  0
  -26.1942  -24.9560   19.4688 C   0  0  0  0  0  0  0  0  0  0  0  0
  -22.9809  -28.8577   19.1579 C   0  0  0  0  0  0  0  0  0  0  0  0
  -27.0950  -13.4898   21.1961 C   0  0  0  0  0  0  0  0  0  0  0  0
  -25.3685  -13.5353   19.5066 C   0  0  0  0  0  0  0  0  0  0  0  0
  -21.6376  -28.5992   19.4272 C   0  0  0  0  0  0  0  0  0  0  0  0
  -24.1637  -10.1138   19.7338 C   0  0  0  0  0  0  0  0  0  0  0  0
  -22.8501   -9.6515   19.8130 C   0  0  0  0  0  0  0  0  0  0  0  0
  -21.9193  -29.4867   21.6526 C   0  0  0  0  0  0  0  0  0  0  0  0
  -22.4856  -11.0219   21.7691 C   0  0  0  0  0  0  0  0  0  0  0  0
  -19.0104  -23.2127   18.1582 C   0  0  0  0  0  0  0  0  0  0  0  0
  -26.5257  -15.5696   20.1063 C   0  0  0  0  0  0  0  0  0  0  0  0
  -27.6154  -17.6183   19.0467 C   0  0  0  0  0  0  0  0  0  0  0  0
  -28.6191  -24.8974   19.4062 C   0  0  0  0  0  0  0  0  0  0  0  0
  -23.8075  -29.4235   20.1393 C   0  0  0  0  0  0  0  0  0  0  0  0
  -27.4300  -25.3463   20.0120 C   0  0  0  0  0  0  0  0  0  0  0  0
  -23.2721  -29.7537   21.3924 C   0  0  0  0  0  0  0  0  0  0  0  0
  -21.1314  -22.1790   19.5287 C   0  0  0  0  0  0  0  0  0  0  0  0
  -26.1338  -12.8269   20.4330 C   0  0  0  0  0  0  0  0  0  0  0  0
  -21.1073  -28.9111   20.6757 C   0  0  0  0  0  0  0  0  0  0  0  0
  -24.6383  -11.0301   20.6724 C   0  0  0  0  0  0  0  0  0  0  0  0
  -19.0754  -23.4269   19.5256 C   0  0  0  0  0  0  0  0  0  0  0  0
  -22.0110  -10.1056   20.8306 C   0  0  0  0  0  0  0  0  0  0  0  0
  -23.7993  -11.4842   21.6900 C   0  0  0  0  0  0  0  0  0  0  0  0
  -20.1594  -22.8969   20.2165 C   0  0  0  0  0  0  0  0  0  0  0  0
  -26.7273  -16.9863   19.9375 C   0  0  0  0  0  0  0  0  0  0  0  0
  -20.9743  -22.0204   18.1613 C   0  0  0  0  0  0  0  0  0  0  0  0
  -27.4297  -18.9606   19.2714 C   0  0  0  0  0  0  0  0  0  0  0  0
  -21.6451  -20.6380   16.2497 C   0  0  0  0  0  0  0  0  0  0  0  0
  -21.9473  -21.2810   17.3674 C   0  0  0  0  0  0  0  0  0  0  0  0
  -28.5266  -17.0436   18.1006 C   0  0  0  0  0  0  0  0  0  0  0  0
  -26.4245  -28.4859   21.6807 C   0  0  0  0  0  0  0  0  0  0  0  0
  -18.1118  -26.9263   21.1138 C   0  0  0  0  0  0  0  0  0  0  0  0
  -26.3372  -31.5048   22.8644 C   0  0  0  0  0  0  0  0  0  0  0  0
  -24.4863  -34.2764   23.5988 C   0  0  0  0  0  0  0  0  0  0  0  0
  -22.8381  -22.1495   21.3815 C   0  0  0  0  0  0  0  0  0  0  0  0
  -29.9752  -25.2426   19.9687 C   0  0  0  0  0  0  0  0  0  0  0  0
  -25.2479  -29.7207   19.8241 C   0  0  0  0  0  0  0  0  0  0  0  0
  -24.1124  -30.3812   22.4734 C   0  0  0  0  0  0  0  0  0  0  0  0
  -29.9522  -26.4284   20.9298 C   0  0  0  0  0  0  0  0  0  0  0  0
  -26.1414  -22.0395   22.7057 C   0  0  0  0  0  0  0  0  0  0  0  0
  -28.8071  -26.2849   21.9273 C   0  0  0  0  0  0  0  0  0  0  0  0
  -26.7493  -20.7921   22.0603 C   0  0  0  0  0  0  0  0  0  0  0  0
  -24.6636  -21.8425   23.0393 C   0  0  0  0  0  0  0  0  0  0  0  0
  -24.4380  -20.1384   21.2746 C   0  0  0  0  0  0  0  0  0  0  0  0
  -27.4509  -26.2684   21.2118 C   0  0  1  0  0  0  0  0  0  0  0  0
  -26.1228  -29.8250   21.0695 C   0  0  1  0  0  0  0  0  0  0  0  0
  -25.9086  -20.3113   20.8612 C   0  0  2  0  0  0  0  0  0  0  0  0
  -24.6856  -36.5713   24.5945 C   0  0  0  0  0  0  0  0  0  0  0  0
  -26.4641  -30.2799   25.6561 C   0  0  0  0  0  0  0  0  0  0  0  0
  -25.7122  -32.4818   26.5805 C   0  0  0  0  0  0  0  0  0  0  0  0
  -27.8748  -32.3218   25.3476 C   0  0  0  0  0  0  0  0  0  0  0  0
  -23.6163  -35.5699   21.0831 C   0  0  0  0  0  0  0  0  0  0  0  0
  -16.9728  -26.2699   20.3477 C   0  0  0  0  0  0  0  0  0  0  0  0
  -19.1963  -27.5571   20.2623 C   0  0  0  0  0  0  0  0  0  1  0  0
  -17.4403  -25.1510   19.4283 C   0  0  0  0  0  0  0  0  0  0  0  0
  -25.7021  -32.1646   24.0645 C   0  0  1  0  0  0  0  0  0  0  0  0
  -24.7219  -35.7491   23.3156 C   0  0  2  0  0  0  0  0  0  0  0  0
  -26.4227  -31.7985   25.3927 C   0  0  0  0  0  0  0  0  0  0  0  0
  -19.9352  -22.5206   17.4557 N   0  0  0  0  0  0  0  0  0  0  0  0
  -26.0294  -17.8554   20.6734 N   0  0  0  0  0  0  0  0  0  0  0  0
  -26.4790  -19.0474   20.2454 N   0  0  0  0  0  0  0  0  0  0  0  0
  -25.5165  -30.6466   22.1190 N   0  0  0  0  0  0  0  0  0  0  0  0
  -23.9296  -21.3911   21.8551 N   0  0  0  0  0  0  0  0  0  0  0  0
  -27.9886  -20.0631   18.7288 N   0  0  0  0  0  0  0  0  0  0  0  0
  -28.5910  -15.6473   17.9983 N   0  0  0  0  0  0  0  0  0  0  0  0
  -22.2383  -21.6400   20.2303 N   0  0  0  0  0  0  0  0  0  0  0  0
  -27.0663  -27.6094   20.8267 N   0  0  0  0  0  0  0  0  0  0  0  0
  -25.6716  -33.5944   23.7757 N   0  0  0  0  0  0  0  0  0  0  0  0
  -23.6771  -36.2723   22.3907 N   0  3  0  0  0  0  0  0  0  0  0  0
  -29.2738  -17.7471   17.3793 O   0  0  0  0  0  0  0  0  0  0  0  0
  -26.1004  -28.2649   22.8417 O   0  0  0  0  0  0  0  0  0  0  0  0
  -18.1574  -26.9511   22.3427 O   0  0  0  0  0  0  0  0  0  0  0  0
  -27.5160  -31.7477   22.5940 O   0  0  0  0  0  0  0  0  0  0  0  0
  -23.3631  -33.7814   23.6609 O   0  0  0  0  0  0  0  0  0  0  0  0
  -22.4802  -23.1901   21.9393 O   0  0  0  0  0  0  0  0  0  0  0  0
  -25.9425  -11.4887   20.5920 O   0  0  0  0  0  0  0  0  0  0  0  0
  -19.7966  -28.6593   20.9414 O   0  0  0  0  0  0  0  0  0  1  0  0
  -18.1013  -24.1377   20.1760 O   0  0  0  0  0  0  0  0  0  0  0  0
  -20.7491   -9.6627   20.9055 F   0  0  0  0  0  0  0  0  0  0  0  0
  -24.2492  -12.3653   22.5938 F   0  0  0  0  0  0  0  0  0  0  0  0
  -20.2609  -23.0805   21.5412 F   0  0  0  0  0  0  0  0  0  0  0  0
  1  2  1  0  0  0  0
  1  5  2  0  0  0  0
  2  6  2  0  0  0  0
  3  8  2  0  0  0  0
  3 16  1  0  0  0  0
  4  9  1  0  0  0  0
  4 16  2  0  0  0  0
  5 18  1  0  0  0  0
  6 20  1  0  0  0  0
  7 10  2  0  0  0  0
  7 19  1  0  0  0  0
  8 23  1  0  0  0  0
  9 23  2  0  0  0  0
 10 24  1  0  0  0  0
 11 12  2  0  0  0  0
 11 25  1  0  0  0  0
 12 27  1  0  0  0  0
 13 21  1  0  0  0  0
 13 24  2  0  0  0  0
 14 27  2  0  0  0  0
 14 28  1  0  0  0  0
 15 26  1  0  0  0  0
 15 64  2  0  0  0  0
 16 30  1  0  0  0  0
 17 30  1  0  0  0  0
 17 32  2  0  0  0  0
 17 35  1  0  0  0  0
 18 20  2  0  0  0  0
 18 41  1  0  0  0  0
 19 21  2  0  0  0  0
 19 42  1  0  0  0  0
 20 50  1  0  0  0  0
 21 43  1  0  0  0  0
 22 29  1  0  0  0  0
 22 31  2  0  0  0  0
 22 71  1  0  0  0  0
 23 81  1  0  0  0  0
 24 82  1  0  0  0  0
 25 28  2  0  0  0  0
 25 81  1  0  0  0  0
 26 29  2  0  0  0  0
 26 83  1  0  0  0  0
 27 84  1  0  0  0  0
 28 85  1  0  0  0  0
 29 86  1  0  0  0  0
 30 65  2  0  0  0  0
 31 34  1  0  0  0  0
 31 64  1  0  0  0  0
 32 66  1  0  0  0  0
 32 69  1  0  0  0  0
 33 34  2  0  0  0  0
 35 70  1  0  0  0  0
 35 75  2  0  0  0  0
 36 51  1  0  0  0  0
 36 72  1  0  0  0  0
 36 76  2  0  0  0  0
 37 58  1  0  0  0  0
 37 59  1  0  0  0  0
 37 77  2  0  0  0  0
 38 61  1  0  0  0  0
 38 67  1  0  0  0  0
 38 78  2  0  0  0  0
 39 62  1  0  0  0  0
 39 73  1  0  0  0  0
 39 79  2  0  0  0  0
 40 68  1  0  0  0  0
 40 71  1  0  0  0  0
 40 80  2  0  0  0  0
 41 44  1  0  0  0  0
 42 51  1  0  0  0  0
 43 67  1  0  0  0  0
 44 46  1  0  0  0  0
 45 47  1  0  0  0  0
 45 48  1  0  0  0  0
 46 50  1  0  0  0  0
 47 52  1  0  0  0  0
 48 68  1  0  0  0  0
 49 52  1  0  0  0  0
 49 68  1  0  0  0  0
 50 72  1  0  0  0  0
 51 67  1  0  0  0  0
 52 66  1  0  0  0  0
 53 62  1  0  0  0  0
 54 63  1  0  0  0  0
 55 63  1  0  0  0  0
 56 63  1  0  0  0  0
 57 74  1  0  0  0  0
 58 60  1  0  0  0  0
 59 82  1  0  0  0  0
 60 83  1  0  0  0  0
 61 63  1  0  0  0  0
 61 73  1  0  0  0  0
 62 74  1  0  0  0  0
 65 66  1  0  0  0  0
M  CHG  1  74   1
M  ISO  4  40 100  59 101  71 100  82 101
M  END
> <Batch ID>
0111

> <Smiles>
C=Cc1ncc(OCCC(=O)[101CH2:1][101O:1]c2ccc3c(c2)CN(C(=O)C(NC(=O)C(C)NC)C(C)(C)C)C(C(=O)NC2CCCc4ccccc42)C3)c(F)c1[100NH:0][100C:0](=O)N1CCCC(n2nc(-c3ccc(Oc4ccc(F)cc4F)cc3)c(C(N)=O)c2N)C1

> <Shape>
0.272

> <Color>
0.069

> <Negative vol penalty>
0.000

$$$$

  -OEChem-04052301283D

 86 94  0     1  0  0  0  0  0999 V2000
  -25.9535  -22.9559   24.9091 C   0  0  0  0  0  0  0  0  0  0  0  0
  -26.7504  -24.0834   24.7459 C   0  0  0  0  0  0  0  0  0  0  0  0
  -25.9899  -13.5659   22.0326 C   0  0  0  0  0  0  0  0  0  0  0  0
  -25.3228  -14.6761   19.9932 C   0  0  0  0  0  0  0  0  0  0  0  0
  -24.6378  -22.9648   24.4509 C   0  0  0  0  0  0  0  0  0  0  0  0
  -26.2282  -25.2242   24.1352 C   0  0  0  0  0  0  0  0  0  0  0  0
  -29.0523  -29.2526   24.1390 C   0  0  0  0  0  0  0  0  0  0  0  0
  -24.8590  -12.7528   21.9600 C   0  0  0  0  0  0  0  0  0  0  0  0
  -24.1918  -13.8629   19.9205 C   0  0  0  0  0  0  0  0  0  0  0  0
  -30.1923  -29.3746   23.3457 C   0  0  0  0  0  0  0  0  0  0  0  0
  -22.3359  -10.1404   22.1171 C   0  0  0  0  0  0  0  0  0  0  0  0
  -22.5016   -8.7762   22.3561 C   0  0  0  0  0  0  0  0  0  0  0  0
  -28.9750  -30.7985   21.8259 C   0  0  0  0  0  0  0  0  0  0  0  0
  -32.0252  -25.7667   20.2725 C   0  0  0  0  0  0  0  0  0  0  0  0
  -24.0385   -8.6373   20.4970 C   0  0  0  0  0  0  0  0  0  0  0  0
  -26.2218  -14.5277   21.0492 C   0  0  0  0  0  0  0  0  0  0  0  0
  -28.6581  -15.1127   20.5697 C   0  0  0  0  0  0  0  0  0  0  0  0
  -24.1039  -24.1023   23.8232 C   0  0  0  0  0  0  0  0  0  0  0  0
  -27.8600  -29.8948   23.7753 C   0  0  0  0  0  0  0  0  0  0  0  0
  -24.8953  -25.2611   23.6876 C   0  0  0  0  0  0  0  0  0  0  0  0
  -27.8220  -30.6851   22.6176 C   0  0  0  0  0  0  0  0  0  0  0  0
  -31.7722  -24.5751   20.9519 C   0  0  0  0  0  0  0  0  0  0  0  0
  -29.3991  -24.8970   20.6327 C   0  0  0  0  0  0  0  0  0  0  0  0
  -30.4591  -24.1402   21.1320 C   0  0  0  0  0  0  0  0  0  0  0  0
  -29.6521  -26.0886   19.9533 C   0  0  0  0  0  0  0  0  0  0  0  0
  -23.9600  -12.9012   20.9039 C   0  0  0  0  0  0  0  0  0  0  0  0
  -30.1530  -30.1453   22.1875 C   0  0  0  0  0  0  0  0  0  0  0  0
  -23.0214  -10.7530   21.0680 C   0  0  0  0  0  0  0  0  0  0  0  0
  -30.9651  -26.5235   19.7732 C   0  0  0  0  0  0  0  0  0  0  0  0
  -23.3529   -8.0247   21.5461 C   0  0  0  0  0  0  0  0  0  0  0  0
  -23.8727  -10.0015   20.2581 C   0  0  0  0  0  0  0  0  0  0  0  0
  -27.3896  -15.3684   21.1240 C   0  0  0  0  0  0  0  0  0  0  0  0
  -29.4118  -16.2069   20.9177 C   0  0  0  0  0  0  0  0  0  0  0  0
  -30.6931  -23.7081   24.0345 C   0  0  0  0  0  0  0  0  0  0  0  0
  -30.5965  -22.7111   23.1522 C   0  0  0  0  0  0  0  0  0  0  0  0
  -29.1143  -13.9868   19.8081 C   0  0  0  0  0  0  0  0  0  0  0  0
  -24.9298  -28.9234   23.0177 C   0  0  0  0  0  0  0  0  0  0  0  0
  -24.2940  -32.1043   23.0272 C   0  0  0  0  0  0  0  0  0  0  0  0
  -25.4682  -35.2944   22.7246 C   0  0  0  0  0  0  0  0  0  0  0  0
  -29.6683  -21.8009   21.1182 C   0  0  0  0  0  0  0  0  0  0  0  0
  -22.6712  -24.0600   23.3533 C   0  0  0  0  0  0  0  0  0  0  0  0
  -26.6465  -29.7749   24.6559 C   0  0  0  0  0  0  0  0  0  0  0  0
  -26.5724  -31.4113   22.1939 C   0  0  0  0  0  0  0  0  0  0  0  0
  -22.3487  -25.1447   22.3307 C   0  0  0  0  0  0  0  0  0  0  0  0
  -28.4743  -19.9751   24.1452 C   0  0  0  0  0  0  0  0  0  0  0  0
  -22.8331  -26.4956   22.8356 C   0  0  0  0  0  0  0  0  0  0  0  0
  -28.1385  -18.6072   23.5529 C   0  0  0  0  0  0  0  0  0  0  0  0
  -28.2745  -21.0851   23.1201 C   0  0  0  0  0  0  0  0  0  0  0  0
  -28.7159  -19.5176   21.2560 C   0  0  0  0  0  0  0  0  0  0  0  0
  -24.3583  -26.5027   22.9989 C   0  0  1  0  0  0  0  0  0  0  0  0
  -25.3417  -30.0548   23.9166 C   0  0  1  0  0  0  0  0  0  0  0  0
  -28.9208  -18.3629   22.2512 C   0  0  2  0  0  0  0  0  0  0  0  0
  -32.9287  -23.7864   21.4750 C   0  0  0  0  0  0  0  0  0  0  0  0
  -27.9883  -24.4315   20.8257 C   0  0  0  0  0  0  0  0  0  0  0  0
  -24.7040  -37.6846   22.7412 C   0  0  0  0  0  0  0  0  0  0  0  0
  -23.1616  -31.7593   20.2150 C   0  0  0  0  0  0  0  0  0  0  0  0
  -23.3021  -34.2425   19.9290 C   0  0  0  0  0  0  0  0  0  0  0  0
  -21.8323  -33.2735   21.6963 C   0  0  0  0  0  0  0  0  0  0  0  0
  -27.1635  -35.9416   25.0626 C   0  0  0  0  0  0  0  0  0  0  0  0
  -32.2321  -29.8800   19.2348 C   0  0  0  0  0  0  0  0  0  0  0  0
  -31.0609  -30.4600   20.0120 C   0  0  0  0  0  0  0  0  0  1  0  0
  -32.4093  -28.3929   19.4985 C   0  0  0  0  0  0  0  0  0  0  0  0
  -24.3417  -33.2071   21.9974 C   0  0  1  0  0  0  0  0  0  0  0  0
  -25.2477  -36.5336   23.5733 C   0  0  2  0  0  0  0  0  0  0  0  0
  -23.1826  -33.1055   20.9661 C   0  0  0  0  0  0  0  0  0  0  0  0
  -27.3367  -16.5335   21.7750 N   0  0  0  0  0  0  0  0  0  0  0  0
  -28.5814  -17.0196   21.6319 N   0  0  0  0  0  0  0  0  0  0  0  0
  -25.4103  -31.2579   23.0848 N   0  0  0  0  0  0  0  0  0  0  0  0
  -29.0117  -20.8104   21.8782 N   0  0  0  0  0  0  0  0  0  0  0  0
  -28.5822  -26.8609   19.4445 N   0  0  0  0  0  0  0  0  0  0  0  0
  -30.6973  -16.5434   20.6795 N   0  0  0  0  0  0  0  0  0  0  0  0
  -28.2096  -12.9503   19.5407 N   0  0  0  0  0  0  0  0  0  0  0  0
  -24.7552  -27.7193   23.6728 N   0  0  0  0  0  0  0  0  0  0  0  0
  -24.3699  -34.4609   22.7429 N   0  0  0  0  0  0  0  0  0  0  0  0
  -30.1995  -22.9025   21.8388 N   0  0  0  0  0  0  0  0  0  0  0  0
  -26.5293  -36.9690   24.1970 N   0  3  0  0  0  0  0  0  0  0  0  0
  -30.2939  -13.8948   19.3915 O   0  0  0  0  0  0  0  0  0  0  0  0
  -24.7799  -29.1282   21.8189 O   0  0  0  0  0  0  0  0  0  0  0  0
  -23.3060  -32.0022   23.7586 O   0  0  0  0  0  0  0  0  0  0  0  0
  -26.5090  -35.0884   22.1043 O   0  0  0  0  0  0  0  0  0  0  0  0
  -29.7968  -21.7003   19.8912 O   0  0  0  0  0  0  0  0  0  0  0  0
  -22.8564  -12.1077   20.8326 O   0  0  0  0  0  0  0  0  0  0  0  0
  -31.2641  -30.2655   21.4110 O   0  0  0  0  0  0  0  0  0  1  0  0
  -31.2369  -27.6908   19.1082 O   0  0  0  0  0  0  0  0  0  0  0  0
  -23.5132   -6.7149   21.7766 F   0  0  0  0  0  0  0  0  0  0  0  0
  -24.5349  -10.5847   19.2495 F   0  0  0  0  0  0  0  0  0  0  0  0
  1  2  1  0  0  0  0
  1  5  2  0  0  0  0
  2  6  2  0  0  0  0
  3  8  2  0  0  0  0
  3 16  1  0  0  0  0
  4  9  1  0  0  0  0
  4 16  2  0  0  0  0
  5 18  1  0  0  0  0
  6 20  1  0  0  0  0
  7 10  2  0  0  0  0
  7 19  1  0  0  0  0
  8 26  1  0  0  0  0
  9 26  2  0  0  0  0
 10 27  1  0  0  0  0
 11 12  2  0  0  0  0
 11 28  1  0  0  0  0
 12 30  1  0  0  0  0
 13 21  1  0  0  0  0
 13 27  2  0  0  0  0
 14 22  2  0  0  0  0
 14 29  1  0  0  0  0
 15 30  2  0  0  0  0
 15 31  1  0  0  0  0
 16 32  1  0  0  0  0
 17 32  1  0  0  0  0
 17 33  2  0  0  0  0
 17 36  1  0  0  0  0
 18 20  2  0  0  0  0
 18 41  1  0  0  0  0
 19 21  2  0  0  0  0
 19 42  1  0  0  0  0
 20 50  1  0  0  0  0
 21 43  1  0  0  0  0
 22 24  1  0  0  0  0
 22 53  1  0  0  0  0
 23 24  2  0  0  0  0
 23 25  1  0  0  0  0
 23 54  1  0  0  0  0
 24 75  1  0  0  0  0
 25 29  2  0  0  0  0
 25 70  1  0  0  0  0
 26 82  1  0  0  0  0
 27 83  1  0  0  0  0
 28 31  2  0  0  0  0
 28 82  1  0  0  0  0
 29 84  1  0  0  0  0
 30 85  1  0  0  0  0
 31 86  1  0  0  0  0
 32 66  2  0  0  0  0
 33 67  1  0  0  0  0
 33 71  1  0  0  0  0
 34 35  2  0  0  0  0
 35 75  1  0  0  0  0
 36 72  1  0  0  0  0
 36 77  2  0  0  0  0
 37 51  1  0  0  0  0
 37 73  1  0  0  0  0
 37 78  2  0  0  0  0
 38 63  1  0  0  0  0
 38 68  1  0  0  0  0
 38 79  2  0  0  0  0
 39 64  1  0  0  0  0
 39 74  1  0  0  0  0
 39 80  2  0  0  0  0
 40 69  1  0  0  0  0
 40 75  1  0  0  0  0
 40 81  2  0  0  0  0
 41 44  1  0  0  0  0
 42 51  1  0  0  0  0
 43 68  1  0  0  0  0
 44 46  1  0  0  0  0
 45 47  1  0  0  0  0
 45 48  1  0  0  0  0
 46 50  1  0  0  0  0
 47 52  1  0  0  0  0
 48 69  1  0  0  0  0
 49 52  1  0  0  0  0
 49 69  1  0  0  0  0
 50 73  1  0  0  0  0
 51 68  1  0  0  0  0
 52 67  1  0  0  0  0
 55 64  1  0  0  0  0
 56 65  1  0  0  0  0
 57 65  1  0  0  0  0
 58 65  1  0  0  0  0
 59 76  1  0  0  0  0
 60 61  1  0  0  0  0
 60 62  1  0  0  0  0
 61 83  1  0  0  0  0
 62 84  1  0  0  0  0
 63 65  1  0  0  0  0
 63 74  1  0  0  0  0
 64 76  1  0  0  0  0
 66 67  1  0  0  0  0
M  CHG  1  76   1
M  ISO  4  40 100  61 101  75 100  83 101
M  END
> <Batch ID>
0111

> <Smiles>
C=C[100N:0](c1c(C)cc(OCC[101CH2:1][101O:1]c2ccc3c(c2)CN(C(=O)C(NC(=O)C(C)NC)C(C)(C)C)C(C(=O)NC2CCCc4ccccc42)C3)c(N)c1C)[100C:0](=O)N1CCCC(n2nc(-c3ccc(Oc4ccc(F)cc4F)cc3)c(C(N)=O)c2N)C1

> <Shape>
0.255

> <Color>
0.114

> <Negative vol penalty>
0.000

$$$$

  -OEChem-04052301283D

 85 94  0     1  0  0  0  0  0999 V2000
  -30.0104  -38.9477   18.6845 C   0  0  0  0  0  0  0  0  0  0  0  0
  -30.7608  -37.8150   18.9831 C   0  0  0  0  0  0  0  0  0  0  0  0
  -23.8355   -8.9794   21.8705 C   0  0  0  0  0  0  0  0  0  0  0  0
  -23.9895  -11.0980   23.0216 C   0  0  0  0  0  0  0  0  0  0  0  0
  -28.8790  -39.2522   19.4403 C   0  0  0  0  0  0  0  0  0  0  0  0
  -30.3808  -36.9865   20.0384 C   0  0  0  0  0  0  0  0  0  0  0  0
  -28.9023  -30.0226   18.9391 C   0  0  0  0  0  0  0  0  0  0  0  0
  -23.2443   -8.4097   22.9980 C   0  0  0  0  0  0  0  0  0  0  0  0
  -23.3982  -10.5282   24.1492 C   0  0  0  0  0  0  0  0  0  0  0  0
  -28.8076  -28.6339   18.8458 C   0  0  0  0  0  0  0  0  0  0  0  0
  -20.1912   -8.3535   24.4501 C   0  0  0  0  0  0  0  0  0  0  0  0
  -19.0705   -7.5460   24.2563 C   0  0  0  0  0  0  0  0  0  0  0  0
  -28.2382  -28.5042   21.1925 C   0  0  0  0  0  0  0  0  0  0  0  0
  -27.4631  -19.6250   21.1779 C   0  0  0  0  0  0  0  0  0  0  0  0
  -20.2410   -5.6822   25.2531 C   0  0  0  0  0  0  0  0  0  0  0  0
  -29.7375  -18.2943   20.3795 C   0  0  0  0  0  0  0  0  0  0  0  0
  -24.2082  -10.3236   21.8823 C   0  0  0  0  0  0  0  0  0  0  0  0
  -24.2668  -11.0145   19.4273 C   0  0  0  0  0  0  0  0  0  0  0  0
  -28.4794  -38.4218   20.4993 C   0  0  0  0  0  0  0  0  0  0  0  0
  -28.6499  -30.6594   20.1574 C   0  0  0  0  0  0  0  0  0  0  0  0
  -29.2437  -37.2809   20.8099 C   0  0  0  0  0  0  0  0  0  0  0  0
  -28.3193  -29.8959   21.2891 C   0  0  0  0  0  0  0  0  0  0  0  0
  -27.4440  -18.2388   21.0566 C   0  0  0  0  0  0  0  0  0  0  0  0
  -28.5910  -17.5621   20.6534 C   0  0  0  0  0  0  0  0  0  0  0  0
  -23.0256   -9.1841   24.1374 C   0  0  0  0  0  0  0  0  0  0  0  0
  -28.4766  -27.8766   19.9697 C   0  0  0  0  0  0  0  0  0  0  0  0
  -21.3369   -7.8253   25.0453 C   0  0  0  0  0  0  0  0  0  0  0  0
  -19.0954   -6.2104   24.6579 C   0  0  0  0  0  0  0  0  0  0  0  0
  -21.3618   -6.4897   25.4469 C   0  0  0  0  0  0  0  0  0  0  0  0
  -24.8195  -10.9126   20.7180 C   0  0  0  0  0  0  0  0  0  0  0  0
  -25.2354  -11.6486   18.6881 C   0  0  0  0  0  0  0  0  0  0  0  0
  -28.6381  -20.3050   20.8909 C   0  0  0  0  0  0  0  0  0  0  0  0
  -28.8776  -24.5426   21.0980 C   0  0  0  0  0  0  0  0  0  0  0  0
  -29.2089  -25.7607   20.6478 C   0  0  0  0  0  0  0  0  0  1  0  0
  -22.9919  -10.5754   18.9401 C   0  0  0  0  0  0  0  0  0  0  0  0
  -28.4208  -33.8957   22.0414 C   0  0  0  0  0  0  0  0  0  0  0  0
  -26.0947  -32.1403   22.9996 C   0  0  0  0  0  0  0  0  0  0  0  0
  -23.4295  -30.0645   23.4741 C   0  0  0  0  0  0  0  0  0  0  0  0
  -29.6930  -15.3588   20.1264 C   0  0  0  0  0  0  0  0  0  0  0  0
  -27.2761  -38.8175   21.3178 C   0  0  0  0  0  0  0  0  0  0  0  0
  -28.8004  -32.1477   20.3189 C   0  0  0  0  0  0  0  0  0  0  0  0
  -28.0902  -30.6210   22.5870 C   0  0  0  0  0  0  0  0  0  0  0  0
  -29.7918  -23.7112   21.9522 C   0  0  0  0  0  0  0  0  0  0  0  0
  -27.5693  -23.8793   20.7732 C   0  0  0  0  0  0  0  0  0  0  0  0
  -26.7279  -37.6847   22.1818 C   0  0  0  0  0  0  0  0  0  0  0  0
  -29.9828  -12.2310   18.4502 C   0  0  0  0  0  0  0  0  0  0  0  0
  -27.8617  -36.9781   22.9180 C   0  0  0  0  0  0  0  0  0  0  0  0
  -28.6390  -11.5497   18.7189 C   0  0  0  0  0  0  0  0  0  0  0  0
  -30.0029  -22.3237   21.3412 C   0  0  0  0  0  0  0  0  0  0  0  0
  -27.7981  -22.4946   20.1644 C   0  0  0  0  0  0  0  0  0  0  0  0
  -30.4582  -13.0423   19.6541 C   0  0  0  0  0  0  0  0  0  0  0  0
  -28.1416  -13.3315   20.4408 C   0  0  0  0  0  0  0  0  0  0  0  0
  -28.8496  -36.3442   21.9312 C   0  0  1  0  0  0  0  0  0  0  0  0
  -27.7852  -32.7534   21.3047 C   0  0  1  0  0  0  0  0  0  0  0  0
  -27.5904  -12.5553   19.2337 C   0  0  2  0  0  0  0  0  0  0  0  0
  -21.2941  -29.8671   24.7774 C   0  0  0  0  0  0  0  0  0  0  0  0
  -27.6906  -31.4273   25.4993 C   0  0  0  0  0  0  0  0  0  0  0  0
  -25.6272  -30.3523   26.4239 C   0  0  0  0  0  0  0  0  0  0  0  0
  -25.6414  -32.7964   25.9247 C   0  0  0  0  0  0  0  0  0  0  0  0
  -21.7957  -29.9848   21.0077 C   0  0  0  0  0  0  0  0  0  0  0  0
  -25.5983  -31.1413   24.0139 C   0  0  1  0  0  0  0  0  0  0  0  0
  -21.9346  -30.3289   23.4777 C   0  0  2  0  0  0  0  0  0  0  0  0
  -26.1500  -31.4211   25.4404 C   0  0  0  0  0  0  0  0  0  0  0  0
  -26.0443  -11.4395   20.7976 N   0  0  0  0  0  0  0  0  0  0  0  0
  -26.2692  -11.8786   19.5475 N   0  0  0  0  0  0  0  0  0  0  0  0
  -29.7283  -19.6285   20.5045 N   0  3  0  0  0  0  0  0  0  0  0  0
  -28.7179  -21.6994   20.9951 N   0  0  0  0  0  0  0  0  0  0  0  0
  -27.2973  -31.8375   22.3497 N   0  0  0  0  0  0  0  0  0  0  0  0
  -29.4150  -13.9762   20.0835 N   0  0  0  0  0  0  0  0  0  0  0  0
  -26.2516  -17.5391   21.3469 N   0  0  0  0  0  0  0  0  0  0  0  0
  -25.2951  -12.0261   17.3934 N   0  0  0  0  0  0  0  0  0  0  0  0
  -22.1173   -9.9419   19.8335 N   0  0  0  0  0  0  0  0  0  0  0  0
  -28.6149  -16.1518   20.5183 N   0  0  0  0  0  0  0  0  0  0  0  0
  -28.3095  -35.1127   21.3963 N   0  0  0  0  0  0  0  0  0  0  0  0
  -24.1423  -31.1562   23.9229 N   0  0  0  0  0  0  0  0  0  0  0  0
  -21.2787  -29.6099   22.3491 N   0  3  0  0  0  0  0  0  0  0  0  0
  -22.6452  -10.7253   17.7439 O   0  0  0  0  0  0  0  0  0  0  0  0
  -28.9707  -33.6898   23.1169 O   0  0  0  0  0  0  0  0  0  0  0  0
  -25.4389  -33.1649   22.7912 O   0  0  0  0  0  0  0  0  0  0  0  0
  -23.9159  -28.9952   23.1131 O   0  0  0  0  0  0  0  0  0  0  0  0
  -30.7974  -15.8088   19.8106 O   0  0  0  0  0  0  0  0  0  0  0  0
  -22.4485   -8.6285   25.2377 O   0  0  0  0  0  0  0  0  0  0  0  0
  -28.3815  -26.5217   19.8705 O   0  0  0  0  0  0  0  0  0  1  0  0
  -18.0185   -5.4355   24.4731 F   0  0  0  0  0  0  0  0  0  0  0  0
  -22.4591   -5.9770   26.0203 F   0  0  0  0  0  0  0  0  0  0  0  0
  1  2  1  0  0  0  0
  1  5  2  0  0  0  0
  2  6  2  0  0  0  0
  3  8  2  0  0  0  0
  3 17  1  0  0  0  0
  4  9  1  0  0  0  0
  4 17  2  0  0  0  0
  5 19  1  0  0  0  0
  6 21  1  0  0  0  0
  7 10  2  0  0  0  0
  7 20  1  0  0  0  0
  8 25  1  0  0  0  0
  9 25  2  0  0  0  0
 10 26  1  0  0  0  0
 11 12  2  0  0  0  0
 11 27  1  0  0  0  0
 12 28  1  0  0  0  0
 13 22  1  0  0  0  0
 13 26  2  0  0  0  0
 14 23  2  0  0  0  0
 14 32  1  0  0  0  0
 15 28  2  0  0  0  0
 15 29  1  0  0  0  0
 16 24  2  0  0  0  0
 16 66  1  0  0  0  0
 17 30  1  0  0  0  0
 18 30  1  0  0  0  0
 18 31  2  0  0  0  0
 18 35  1  0  0  0  0
 19 21  2  0  0  0  0
 19 40  1  0  0  0  0
 20 22  2  0  0  0  0
 20 41  1  0  0  0  0
 21 53  1  0  0  0  0
 22 42  1  0  0  0  0
 23 24  1  0  0  0  0
 23 70  1  0  0  0  0
 24 73  1  0  0  0  0
 25 82  1  0  0  0  0
 26 83  1  0  0  0  0
 27 29  2  0  0  0  0
 27 82  1  0  0  0  0
 28 84  1  0  0  0  0
 29 85  1  0  0  0  0
 30 64  2  0  0  0  0
 31 65  1  0  0  0  0
 31 71  1  0  0  0  0
 32 66  2  0  0  0  0
 32 67  1  0  0  0  0
 33 34  2  0  0  0  0
 33 43  1  0  0  0  0
 33 44  1  0  0  0  0
 34 83  1  0  0  0  0
 35 72  1  0  0  0  0
 35 77  2  0  0  0  0
 36 54  1  0  0  0  0
 36 74  1  0  0  0  0
 36 78  2  0  0  0  0
 37 61  1  0  0  0  0
 37 68  1  0  0  0  0
 37 79  2  0  0  0  0
 38 62  1  0  0  0  0
 38 75  1  0  0  0  0
 38 80  2  0  0  0  0
 39 69  1  0  0  0  0
 39 73  1  0  0  0  0
 39 81  2  0  0  0  0
 40 45  1  0  0  0  0
 41 54  1  0  0  0  0
 42 68  1  0  0  0  0
 43 49  1  0  0  0  0
 44 50  1  0  0  0  0
 45 47  1  0  0  0  0
 46 48  1  0  0  0  0
 46 51  1  0  0  0  0
 47 53  1  0  0  0  0
 48 55  1  0  0  0  0
 49 67  1  0  0  0  0
 50 67  1  0  0  0  0
 51 69  1  0  0  0  0
 52 55  1  0  0  0  0
 52 69  1  0  0  0  0
 53 74  1  0  0  0  0
 54 68  1  0  0  0  0
 55 65  1  0  0  0  0
 56 62  1  0  0  0  0
 57 63  1  0  0  0  0
 58 63  1  0  0  0  0
 59 63  1  0  0  0  0
 60 76  1  0  0  0  0
 61 63  1  0  0  0  0
 61 75  1  0  0  0  0
 62 76  1  0  0  0  0
 64 65  1  0  0  0  0
M  CHG  2  66   1  76   1
M  ISO  4  34 101  39 100  73 100  83 101
M  END
> <Batch ID>
0111

> <Smiles>
CNC(C)C(=O)NC(C(=O)N1Cc2cc([101O:1][101CH:1]=C3CCN(c4cc(N)c([100NH:0][100C:0](=O)N5CCCC(n6nc(-c7ccc(Oc8ccc(F)cc8F)cc7)c(C(N)=O)c6N)C5)cn4)CC3)ccc2CC1C(=O)NC1CCCc2ccccc21)C(C)(C)C

> <Shape>
0.275

> <Color>
0.104

> <Negative vol penalty>
0.000

$$$$

  -OEChem-04052301283D

 82 90  0     1  0  0  0  0  0999 V2000
  -17.0052  -31.8202   22.9873 C   0  0  0  0  0  0  0  0  0  0  0  0
  -18.1032  -32.0916   22.1774 C   0  0  0  0  0  0  0  0  0  0  0  0
  -26.1269  -12.5259   19.6950 C   0  0  0  0  0  0  0  0  0  0  0  0
  -25.7015  -13.9311   21.6137 C   0  0  0  0  0  0  0  0  0  0  0  0
  -17.1428  -30.9712   24.0847 C   0  0  0  0  0  0  0  0  0  0  0  0
  -19.3399  -31.5151   22.4651 C   0  0  0  0  0  0  0  0  0  0  0  0
  -25.2320  -29.0371   19.2311 C   0  0  0  0  0  0  0  0  0  0  0  0
  -25.5495  -11.4439   20.3593 C   0  0  0  0  0  0  0  0  0  0  0  0
  -25.1240  -12.8491   22.2781 C   0  0  0  0  0  0  0  0  0  0  0  0
  -26.6187  -29.1769   19.2648 C   0  0  0  0  0  0  0  0  0  0  0  0
  -22.4370  -10.3212   21.0555 C   0  0  0  0  0  0  0  0  0  0  0  0
  -21.5409   -9.5256   20.3418 C   0  0  0  0  0  0  0  0  0  0  0  0
  -26.7196  -27.6633   21.1405 C   0  0  0  0  0  0  0  0  0  0  0  0
  -22.9627   -7.6049   20.6978 C   0  0  0  0  0  0  0  0  0  0  0  0
  -31.7543  -23.9054   18.6278 C   0  0  0  0  0  0  0  0  0  0  0  0
  -26.2029  -13.7696   20.3222 C   0  0  0  0  0  0  0  0  0  0  0  0
  -26.1500  -15.8221   18.8083 C   0  0  0  0  0  0  0  0  0  0  0  0
  -18.3794  -30.3764   24.3804 C   0  0  0  0  0  0  0  0  0  0  0  0
  -24.5765  -28.2165   20.1603 C   0  0  0  0  0  0  0  0  0  0  0  0
  -19.4944  -30.6585   23.5682 C   0  0  0  0  0  0  0  0  0  0  0  0
  -25.3247  -27.5128   21.1148 C   0  0  0  0  0  0  0  0  0  0  0  0
  -30.5977  -24.6494   18.5137 C   0  0  0  0  0  0  0  0  0  0  0  0
  -25.0480  -11.6055   21.6509 C   0  0  0  0  0  0  0  0  0  0  0  0
  -27.3625  -28.4922   20.2214 C   0  0  0  0  0  0  0  0  0  0  0  0
  -23.5960   -9.7588   21.5904 C   0  0  0  0  0  0  0  0  0  0  0  0
  -21.8037   -8.1674   20.1630 C   0  0  0  0  0  0  0  0  0  0  0  0
  -23.8588   -8.4006   21.4115 C   0  0  0  0  0  0  0  0  0  0  0  0
  -26.7998  -14.8876   19.6366 C   0  0  0  0  0  0  0  0  0  0  0  0
  -29.4201  -23.9550   18.7019 C   0  0  0  0  0  0  0  0  0  0  0  0
  -27.1476  -16.6759   18.4054 C   0  0  0  0  0  0  0  0  0  0  0  0
  -30.5593  -22.0220   19.0661 C   0  0  0  0  0  0  0  0  0  0  0  0
  -30.7063  -26.8114   19.2480 C   0  0  0  0  0  0  0  0  0  0  0  0
  -24.7681  -15.9107   18.4364 C   0  0  0  0  0  0  0  0  0  0  0  0
  -22.4121  -28.6925   22.4390 C   0  0  0  0  0  0  0  0  0  0  0  0
  -22.4852  -25.4560   22.6429 C   0  0  0  0  0  0  0  0  0  0  0  0
  -24.2090  -22.5580   22.1165 C   0  0  0  0  0  0  0  0  0  0  0  0
  -31.6347  -19.7856   19.5003 C   0  0  0  0  0  0  0  0  0  0  0  0
  -18.4906  -29.5029   25.6048 C   0  0  0  0  0  0  0  0  0  0  0  0
  -23.0825  -28.0555   20.0936 C   0  0  0  0  0  0  0  0  0  0  0  0
  -24.6708  -26.6035   22.1218 C   0  0  0  0  0  0  0  0  0  0  0  0
  -19.7469  -28.6360   25.6226 C   0  0  0  0  0  0  0  0  0  0  0  0
  -32.1751  -16.3222   18.8757 C   0  0  0  0  0  0  0  0  0  0  0  0
  -20.9727  -29.4648   25.2522 C   0  0  0  0  0  0  0  0  0  0  0  0
  -30.7714  -15.7171   18.9499 C   0  0  0  0  0  0  0  0  0  0  0  0
  -32.3640  -17.4433   19.8961 C   0  0  0  0  0  0  0  0  0  0  0  0
  -29.9426  -17.8959   19.9261 C   0  0  0  0  0  0  0  0  0  0  0  0
  -20.8465  -30.0326   23.8333 C   0  0  1  0  0  0  0  0  0  0  0  0
  -22.4716  -27.5957   21.4138 C   0  0  1  0  0  0  0  0  0  0  0  0
  -29.6834  -16.8062   18.8730 C   0  0  2  0  0  0  0  0  0  0  0  0
  -24.0247  -20.0737   22.4186 C   0  0  0  0  0  0  0  0  0  0  0  0
  -23.0272  -25.7812   25.6279 C   0  0  0  0  0  0  0  0  0  0  0  0
  -23.7645  -23.3892   25.6837 C   0  0  0  0  0  0  0  0  0  0  0  0
  -21.4184  -23.9549   25.0527 C   0  0  0  0  0  0  0  0  0  0  0  0
  -24.4422  -22.0701   19.2067 C   0  0  0  0  0  0  0  0  0  0  0  0
  -30.7769  -28.3035   19.0629 C   0  0  0  0  0  0  0  0  0  0  0  0
  -29.3755  -28.8888   19.0188 C   0  0  0  0  0  0  0  0  0  1  0  0
  -23.2925  -24.4523   23.4303 C   0  0  1  0  0  0  0  0  0  0  0  0
  -23.7994  -21.2447   21.4748 C   0  0  2  0  0  0  0  0  0  0  0  0
  -22.8881  -24.4130   24.9310 C   0  0  0  0  0  0  0  0  0  0  0  0
  -31.7719  -22.5849   18.9041 N   0  0  0  0  0  0  0  0  0  0  0  0
  -28.1090  -15.1249   19.7537 N   0  0  0  0  0  0  0  0  0  0  0  0
  -29.3639  -22.6361   18.9804 N   0  0  0  0  0  0  0  0  0  0  0  0
  -30.6461  -26.0235   18.2245 N   0  0  0  0  0  0  0  0  0  0  0  0
  -28.2899  -16.2183   18.9936 N   0  0  0  0  0  0  0  0  0  0  0  0
  -23.2070  -26.4840   22.0200 N   0  0  0  0  0  0  0  0  0  0  0  0
  -31.2996  -18.4401   19.7612 N   0  0  0  0  0  0  0  0  0  0  0  0
  -28.1985  -24.6651   18.5958 N   0  0  0  0  0  0  0  0  0  0  0  0
  -27.1504  -17.7657   17.6087 N   0  0  0  0  0  0  0  0  0  0  0  0
  -23.8780  -14.9524   18.9400 N   0  0  0  0  0  0  0  0  0  0  0  0
  -30.5384  -20.6360   19.3597 N   0  0  0  0  0  0  0  0  0  0  0  0
  -21.1317  -29.0080   22.8517 N   0  0  0  0  0  0  0  0  0  0  0  0
  -23.1450  -23.1766   22.7380 N   0  0  0  0  0  0  0  0  0  0  0  0
  -24.5886  -21.0063   20.2333 N   0  3  0  0  0  0  0  0  0  0  0  0
  -24.3385  -16.8033   17.6669 O   0  0  0  0  0  0  0  0  0  0  0  0
  -23.4511  -29.2130   22.8280 O   0  0  0  0  0  0  0  0  0  0  0  0
  -21.2601  -25.3283   22.5769 O   0  0  0  0  0  0  0  0  0  0  0  0
  -25.3589  -22.9900   22.0740 O   0  0  0  0  0  0  0  0  0  0  0  0
  -32.8070  -20.1511   19.3814 O   0  0  0  0  0  0  0  0  0  0  0  0
  -24.4843  -10.5499   22.2994 O   0  0  0  0  0  0  0  0  0  0  0  0
  -28.7161  -28.6273   20.2570 O   0  0  0  0  0  0  0  0  0  1  0  0
  -20.9422   -7.4031   19.4789 F   0  0  0  0  0  0  0  0  0  0  0  0
  -24.9700   -7.8544   21.9240 F   0  0  0  0  0  0  0  0  0  0  0  0
  1  2  1  0  0  0  0
  1  5  2  0  0  0  0
  2  6  2  0  0  0  0
  3  8  2  0  0  0  0
  3 16  1  0  0  0  0
  4  9  1  0  0  0  0
  4 16  2  0  0  0  0
  5 18  1  0  0  0  0
  6 20  1  0  0  0  0
  7 10  2  0  0  0  0
  7 19  1  0  0  0  0
  8 23  1  0  0  0  0
  9 23  2  0  0  0  0
 10 24  1  0  0  0  0
 11 12  2  0  0  0  0
 11 25  1  0  0  0  0
 12 26  1  0  0  0  0
 13 21  1  0  0  0  0
 13 24  2  0  0  0  0
 14 26  2  0  0  0  0
 14 27  1  0  0  0  0
 15 22  1  0  0  0  0
 15 60  2  0  0  0  0
 16 28  1  0  0  0  0
 17 28  1  0  0  0  0
 17 30  2  0  0  0  0
 17 33  1  0  0  0  0
 18 20  2  0  0  0  0
 18 38  1  0  0  0  0
 19 21  2  0  0  0  0
 19 39  1  0  0  0  0
 20 47  1  0  0  0  0
 21 40  1  0  0  0  0
 22 29  2  0  0  0  0
 22 63  1  0  0  0  0
 23 79  1  0  0  0  0
 24 80  1  0  0  0  0
 25 27  2  0  0  0  0
 25 79  1  0  0  0  0
 26 81  1  0  0  0  0
 27 82  1  0  0  0  0
 28 61  2  0  0  0  0
 29 62  1  0  0  0  0
 29 67  1  0  0  0  0
 30 64  1  0  0  0  0
 30 68  1  0  0  0  0
 31 60  1  0  0  0  0
 31 62  2  0  0  0  0
 31 70  1  0  0  0  0
 32 55  1  0  0  0  0
 32 63  2  0  0  0  0
 33 69  1  0  0  0  0
 33 74  2  0  0  0  0
 34 48  1  0  0  0  0
 34 71  1  0  0  0  0
 34 75  2  0  0  0  0
 35 57  1  0  0  0  0
 35 65  1  0  0  0  0
 35 76  2  0  0  0  0
 36 58  1  0  0  0  0
 36 72  1  0  0  0  0
 36 77  2  0  0  0  0
 37 66  1  0  0  0  0
 37 70  1  0  0  0  0
 37 78  2  0  0  0  0
 38 41  1  0  0  0  0
 39 48  1  0  0  0  0
 40 65  1  0  0  0  0
 41 43  1  0  0  0  0
 42 44  1  0  0  0  0
 42 45  1  0  0  0  0
 43 47  1  0  0  0  0
 44 49  1  0  0  0  0
 45 66  1  0  0  0  0
 46 49  1  0  0  0  0
 46 66  1  0  0  0  0
 47 71  1  0  0  0  0
 48 65  1  0  0  0  0
 49 64  1  0  0  0  0
 50 58  1  0  0  0  0
 51 59  1  0  0  0  0
 52 59  1  0  0  0  0
 53 59  1  0  0  0  0
 54 73  1  0  0  0  0
 55 56  1  0  0  0  0
 56 80  1  0  0  0  0
 57 59  1  0  0  0  0
 57 72  1  0  0  0  0
 58 73  1  0  0  0  0
 61 64  1  0  0  0  0
M  CHG  1  73   1
M  ISO  4  37 100  56 101  70 100  80 101
M  END
> <Batch ID>
0111

> <Smiles>
CNC(C)C(=O)NC(C(=O)N1Cc2cc([101O:1][101CH2:1]C=CNc3cnc([100NH:0][100C:0](=O)N4CCCC(n5nc(-c6ccc(Oc7ccc(F)cc7F)cc6)c(C(N)=O)c5N)C4)nc3N)ccc2CC1C(=O)NC1CCCc2ccccc21)C(C)(C)C

> <Shape>
0.228

> <Color>
0.088

> <Negative vol penalty>
0.000

$$$$

  -OEChem-04052301283D

 86 94  0     1  0  0  0  0  0999 V2000
  -23.6982   -7.9755   21.7323 C   0  0  0  0  0  0  0  0  0  0  0  0
  -24.4526   -8.9980   21.1661 C   0  0  0  0  0  0  0  0  0  0  0  0
  -20.1846  -26.5513   21.1628 C   0  0  0  0  0  0  0  0  0  0  0  0
  -21.3851  -26.1129   23.2131 C   0  0  0  0  0  0  0  0  0  0  0  0
  -22.3487   -8.1814   22.0160 C   0  0  0  0  0  0  0  0  0  0  0  0
  -23.8577  -10.2268   20.8822 C   0  0  0  0  0  0  0  0  0  0  0  0
  -26.7196  -14.1492   22.3206 C   0  0  0  0  0  0  0  0  0  0  0  0
  -18.9933  -26.1673   21.7782 C   0  0  0  0  0  0  0  0  0  0  0  0
  -20.1937  -25.7289   23.8285 C   0  0  0  0  0  0  0  0  0  0  0  0
  -27.7944  -14.4881   21.4998 C   0  0  0  0  0  0  0  0  0  0  0  0
  -15.5800  -25.6465   22.9155 C   0  0  0  0  0  0  0  0  0  0  0  0
  -14.4578  -26.4500   22.7141 C   0  0  0  0  0  0  0  0  0  0  0  0
  -27.9168  -19.8546   23.3389 C   0  0  0  0  0  0  0  0  0  0  0  0
  -26.4874  -16.2713   20.5348 C   0  0  0  0  0  0  0  0  0  0  0  0
  -29.9429  -20.5292   21.5438 C   0  0  0  0  0  0  0  0  0  0  0  0
  -15.6188  -28.3210   23.7083 C   0  0  0  0  0  0  0  0  0  0  0  0
  -21.3806  -26.5241   21.8802 C   0  0  0  0  0  0  0  0  0  0  0  0
  -28.0776  -21.1798   22.9346 C   0  0  0  0  0  0  0  0  0  0  0  0
  -23.1660  -28.2133   21.1971 C   0  0  0  0  0  0  0  0  0  0  0  0
  -21.7393   -9.4165   21.7444 C   0  0  0  0  0  0  0  0  0  0  0  0
  -25.5149  -14.8631   22.2468 C   0  0  0  0  0  0  0  0  0  0  0  0
  -22.4985  -10.4490   21.1613 C   0  0  0  0  0  0  0  0  0  0  0  0
  -25.3997  -15.9411   21.3576 C   0  0  0  0  0  0  0  0  0  0  0  0
  -29.0906  -21.5172   22.0371 C   0  0  0  0  0  0  0  0  0  0  0  0
  -18.9978  -25.7561   23.1110 C   0  0  0  0  0  0  0  0  0  0  0  0
  -27.6775  -15.5474   20.6046 C   0  0  0  0  0  0  0  0  0  0  0  0
  -16.7217  -26.1803   23.5134 C   0  0  0  0  0  0  0  0  0  0  0  0
  -28.7692  -18.8666   22.8457 C   0  0  0  0  0  0  0  0  0  0  0  0
  -29.7822  -19.2040   21.9481 C   0  0  0  0  0  0  0  0  0  0  0  0
  -14.4771  -27.7872   23.1104 C   0  0  0  0  0  0  0  0  0  0  0  0
  -16.7411  -27.5175   23.9097 C   0  0  0  0  0  0  0  0  0  0  0  0
  -22.6117  -26.9201   21.2449 C   0  0  0  0  0  0  0  0  0  0  0  0
  -24.3301  -28.0617   20.4841 C   0  0  0  0  0  0  0  0  0  0  0  0
  -27.4200  -22.8938   24.5610 C   0  0  0  0  0  0  0  0  0  0  0  0
  -27.1716  -22.1888   23.4675 C   0  0  0  0  0  0  0  0  0  0  0  0
  -22.6727  -29.4416   21.7480 C   0  0  0  0  0  0  0  0  0  0  0  0
  -22.5146  -14.1287   21.4969 C   0  0  0  0  0  0  0  0  0  0  0  0
  -21.9450  -17.1825   22.4309 C   0  0  0  0  0  0  0  0  0  0  0  0
  -23.1541  -20.3363   22.9188 C   0  0  0  0  0  0  0  0  0  0  0  0
  -27.9562  -23.3910   19.5426 C   0  0  0  0  0  0  0  0  0  0  0  0
  -20.2661   -9.5764   22.0248 C   0  0  0  0  0  0  0  0  0  0  0  0
  -24.3740  -14.5021   23.1580 C   0  0  0  0  0  0  0  0  0  0  0  0
  -24.1348  -16.7521   21.2541 C   0  0  0  0  0  0  0  0  0  0  0  0
  -19.8032  -11.0310   22.0395 C   0  0  0  0  0  0  0  0  0  0  0  0
  -26.3051  -25.3517   17.0715 C   0  0  0  0  0  0  0  0  0  0  0  0
  -20.3621  -11.7813   20.8347 C   0  0  0  0  0  0  0  0  0  0  0  0
  -25.2213  -26.0927   17.8566 C   0  0  0  0  0  0  0  0  0  0  0  0
  -26.5169  -23.9352   17.6013 C   0  0  0  0  0  0  0  0  0  0  0  0
  -25.7037  -24.5902   19.8336 C   0  0  0  0  0  0  0  0  0  0  0  0
  -21.8952  -11.8041   20.8617 C   0  0  1  0  0  0  0  0  0  0  0  0
  -23.0198  -14.9705   22.6344 C   0  0  1  0  0  0  0  0  0  0  0  0
  -25.4933  -26.0424   19.3721 C   0  0  2  0  0  0  0  0  0  0  0  0
  -23.1658  -22.7398   23.6400 C   0  0  0  0  0  0  0  0  0  0  0  0
  -20.5837  -17.6205   19.7355 C   0  0  0  0  0  0  0  0  0  0  0  0
  -20.7501  -20.0871   20.1309 C   0  0  0  0  0  0  0  0  0  0  0  0
  -19.4080  -18.6651   21.6800 C   0  0  0  0  0  0  0  0  0  0  0  0
  -24.0491  -19.6329   25.6506 C   0  0  0  0  0  0  0  0  0  0  0  0
  -27.5436  -17.3151   24.1672 C   0  0  0  0  0  0  0  0  0  0  0  0
  -29.2922  -22.9269   21.5819 C   0  0  0  0  0  0  0  0  0  0  0  0
  -31.0179  -16.6254   19.7153 C   0  0  0  0  0  0  0  0  0  0  0  0
  -30.0355  -15.6261   20.3058 C   0  0  0  0  0  0  0  0  0  1  0  0
  -30.6384  -18.0601   20.0470 C   0  0  0  0  0  0  0  0  0  0  0  0
  -21.9317  -18.5261   21.7427 C   0  0  1  0  0  0  0  0  0  0  0  0
  -23.0272  -21.2938   24.0899 C   0  0  2  0  0  0  0  0  0  0  0  0
  -20.6917  -18.7084   20.8226 C   0  0  0  0  0  0  0  0  0  0  0  0
  -23.3619  -26.0138   20.6125 N   0  0  0  0  0  0  0  0  0  0  0  0
  -24.3994  -26.7386   20.1605 N   0  0  0  0  0  0  0  0  0  0  0  0
  -23.0452  -16.3562   22.1616 N   0  0  0  0  0  0  0  0  0  0  0  0
  -26.7717  -23.9577   19.0436 N   0  0  0  0  0  0  0  0  0  0  0  0
  -25.2909  -28.9325   20.1086 N   0  0  0  0  0  0  0  0  0  0  0  0
  -21.4609  -29.4192   22.4518 N   0  0  0  0  0  0  0  0  0  0  0  0
  -22.3694  -12.7903   21.8087 N   0  0  0  0  0  0  0  0  0  0  0  0
  -22.0446  -19.5265   22.7985 N   0  0  0  0  0  0  0  0  0  0  0  0
  -28.1223  -23.4603   20.9204 N   0  0  0  0  0  0  0  0  0  0  0  0
  -24.0824  -21.0140   25.1044 N   0  3  0  0  0  0  0  0  0  0  0  0
  -23.2801  -30.5299   21.6059 O   0  0  0  0  0  0  0  0  0  0  0  0
  -22.2730  -14.6547   20.4168 O   0  0  0  0  0  0  0  0  0  0  0  0
  -21.0170  -16.8802   23.1853 O   0  0  0  0  0  0  0  0  0  0  0  0
  -24.1374  -20.3119   22.1819 O   0  0  0  0  0  0  0  0  0  0  0  0
  -28.8054  -22.8671   18.8136 O   0  0  0  0  0  0  0  0  0  0  0  0
  -17.8354  -25.3815   23.7120 O   0  0  0  0  0  0  0  0  0  0  0  0
  -28.6024  -17.5758   23.2479 O   0  0  0  0  0  0  0  0  0  0  0  0
  -28.7248  -15.8798   19.8018 O   0  0  0  0  0  0  0  0  0  1  0  0
  -30.6259  -18.2422   21.4564 O   0  0  0  0  0  0  0  0  0  0  0  0
  -13.3999  -28.5590   22.9156 F   0  0  0  0  0  0  0  0  0  0  0  0
  -17.8354  -28.0362   24.4835 F   0  0  0  0  0  0  0  0  0  0  0  0
  1  2  1  0  0  0  0
  1  5  2  0  0  0  0
  2  6  2  0  0  0  0
  3  8  2  0  0  0  0
  3 17  1  0  0  0  0
  4  9  1  0  0  0  0
  4 17  2  0  0  0  0
  5 20  1  0  0  0  0
  6 22  1  0  0  0  0
  7 10  2  0  0  0  0
  7 21  1  0  0  0  0
  8 25  1  0  0  0  0
  9 25  2  0  0  0  0
 10 26  1  0  0  0  0
 11 12  2  0  0  0  0
 11 27  1  0  0  0  0
 12 30  1  0  0  0  0
 13 18  1  0  0  0  0
 13 28  2  0  0  0  0
 14 23  1  0  0  0  0
 14 26  2  0  0  0  0
 15 24  1  0  0  0  0
 15 29  2  0  0  0  0
 16 30  2  0  0  0  0
 16 31  1  0  0  0  0
 17 32  1  0  0  0  0
 18 24  2  0  0  0  0
 18 35  1  0  0  0  0
 19 32  1  0  0  0  0
 19 33  2  0  0  0  0
 19 36  1  0  0  0  0
 20 22  2  0  0  0  0
 20 41  1  0  0  0  0
 21 23  2  0  0  0  0
 21 42  1  0  0  0  0
 22 50  1  0  0  0  0
 23 43  1  0  0  0  0
 24 59  1  0  0  0  0
 25 81  1  0  0  0  0
 26 83  1  0  0  0  0
 27 31  2  0  0  0  0
 27 81  1  0  0  0  0
 28 29  1  0  0  0  0
 28 82  1  0  0  0  0
 29 84  1  0  0  0  0
 30 85  1  0  0  0  0
 31 86  1  0  0  0  0
 32 66  2  0  0  0  0
 33 67  1  0  0  0  0
 33 70  1  0  0  0  0
 34 35  2  0  0  0  0
 36 71  1  0  0  0  0
 36 76  2  0  0  0  0
 37 51  1  0  0  0  0
 37 72  1  0  0  0  0
 37 77  2  0  0  0  0
 38 63  1  0  0  0  0
 38 68  1  0  0  0  0
 38 78  2  0  0  0  0
 39 64  1  0  0  0  0
 39 73  1  0  0  0  0
 39 79  2  0  0  0  0
 40 69  1  0  0  0  0
 40 74  1  0  0  0  0
 40 80  2  0  0  0  0
 41 44  1  0  0  0  0
 42 51  1  0  0  0  0
 43 68  1  0  0  0  0
 44 46  1  0  0  0  0
 45 47  1  0  0  0  0
 45 48  1  0  0  0  0
 46 50  1  0  0  0  0
 47 52  1  0  0  0  0
 48 69  1  0  0  0  0
 49 52  1  0  0  0  0
 49 69  1  0  0  0  0
 50 72  1  0  0  0  0
 51 68  1  0  0  0  0
 52 67  1  0  0  0  0
 53 64  1  0  0  0  0
 54 65  1  0  0  0  0
 55 65  1  0  0  0  0
 56 65  1  0  0  0  0
 57 75  1  0  0  0  0
 58 82  1  0  0  0  0
 59 74  1  0  0  0  0
 60 61  1  0  0  0  0
 60 62  1  0  0  0  0
 61 83  1  0  0  0  0
 62 84  1  0  0  0  0
 63 65  1  0  0  0  0
 63 73  1  0  0  0  0
 64 75  1  0  0  0  0
 66 67  1  0  0  0  0
M  CHG  1  75   1
M  ISO  4  40 100  61 101  74 100  83 101
M  END
> <Batch ID>
0111

> <Smiles>
C=Cc1cc(OC)c(OCC[101CH2:1][101O:1]c2ccc3c(c2)CN(C(=O)C(NC(=O)C(C)NC)C(C)(C)C)C(C(=O)NC2CCCc4ccccc42)C3)cc1C[100NH:0][100C:0](=O)N1CCCC(n2nc(-c3ccc(Oc4ccc(F)cc4F)cc3)c(C(N)=O)c2N)C1

> <Shape>
0.198

> <Color>
0.092

> <Negative vol penalty>
0.000

$$$$

  -OEChem-04052301283D

 82 90  0     1  0  0  0  0  0999 V2000
  -28.6665  -24.5574   17.3338 C   0  0  0  0  0  0  0  0  0  0  0  0
  -27.4483  -24.7455   17.9788 C   0  0  0  0  0  0  0  0  0  0  0  0
  -26.3262  -13.1662   19.4475 C   0  0  0  0  0  0  0  0  0  0  0  0
  -23.9813  -13.4489   19.9563 C   0  0  0  0  0  0  0  0  0  0  0  0
  -29.8240  -25.1395   17.8490 C   0  0  0  0  0  0  0  0  0  0  0  0
  -27.3871  -25.5149   19.1401 C   0  0  0  0  0  0  0  0  0  0  0  0
  -23.4833  -28.7407   19.1297 C   0  0  0  0  0  0  0  0  0  0  0  0
  -26.3726  -12.0493   20.2817 C   0  0  0  0  0  0  0  0  0  0  0  0
  -24.0277  -12.3319   20.7905 C   0  0  0  0  0  0  0  0  0  0  0  0
  -22.2239  -28.2171   19.4188 C   0  0  0  0  0  0  0  0  0  0  0  0
  -24.0082   -8.9696   20.4518 C   0  0  0  0  0  0  0  0  0  0  0  0
  -22.9735   -8.0402   20.3461 C   0  0  0  0  0  0  0  0  0  0  0  0
  -22.4120  -29.0304   21.6821 C   0  0  0  0  0  0  0  0  0  0  0  0
  -21.5362  -23.0112   20.4070 C   0  0  0  0  0  0  0  0  0  0  0  0
  -22.4044   -8.4101   22.6648 C   0  0  0  0  0  0  0  0  0  0  0  0
  -25.1305  -13.8661   19.2848 C   0  0  0  0  0  0  0  0  0  0  0  0
  -24.7859  -15.0423   17.0476 C   0  0  0  0  0  0  0  0  0  0  0  0
  -29.7753  -25.9244   19.0118 C   0  0  0  0  0  0  0  0  0  0  0  0
  -24.2224  -29.4047   20.1193 C   0  0  0  0  0  0  0  0  0  0  0  0
  -28.5452  -26.1070   19.6721 C   0  0  0  0  0  0  0  0  0  0  0  0
  -23.6794  -29.5638   21.4022 C   0  0  0  0  0  0  0  0  0  0  0  0
  -20.1483  -23.1521   20.6459 C   0  0  0  0  0  0  0  0  0  0  0  0
  -25.2234  -11.6321   20.9532 C   0  0  0  0  0  0  0  0  0  0  0  0
  -21.6893  -28.3594   20.6959 C   0  0  0  0  0  0  0  0  0  0  0  0
  -24.2411   -9.6192   21.6640 C   0  0  0  0  0  0  0  0  0  0  0  0
  -22.1716   -7.7605   21.4526 C   0  0  0  0  0  0  0  0  0  0  0  0
  -23.4392   -9.3394   22.7705 C   0  0  0  0  0  0  0  0  0  0  0  0
  -25.0821  -15.0202   18.4236 C   0  0  0  0  0  0  0  0  0  0  0  0
  -19.6181  -21.8849   20.5757 C   0  0  0  0  0  0  0  0  0  0  0  0
  -24.8694  -16.3684   16.6996 C   0  0  0  0  0  0  0  0  0  0  0  0
  -21.7552  -21.6679   20.2081 C   0  0  0  0  0  0  0  0  0  0  0  0
  -19.8474  -25.0045   21.9507 C   0  0  0  0  0  0  0  0  0  0  0  0
  -24.4641  -13.9608   16.1629 C   0  0  0  0  0  0  0  0  0  0  0  0
  -27.0234  -28.9096   21.5381 C   0  0  0  0  0  0  0  0  0  0  0  0
  -26.4079  -31.7935   22.8896 C   0  0  0  0  0  0  0  0  0  0  0  0
  -24.0927  -34.1200   23.8245 C   0  0  0  0  0  0  0  0  0  0  0  0
  -24.2284  -21.4461   19.7836 C   0  0  0  0  0  0  0  0  0  0  0  0
  -31.0607  -26.4942   19.5573 C   0  0  0  0  0  0  0  0  0  0  0  0
  -25.5680  -29.9871   19.7840 C   0  0  0  0  0  0  0  0  0  0  0  0
  -24.4238  -30.2859   22.4944 C   0  0  0  0  0  0  0  0  0  0  0  0
  -30.8478  -27.6045   20.5831 C   0  0  0  0  0  0  0  0  0  0  0  0
  -27.0913  -20.4293   17.9269 C   0  0  0  0  0  0  0  0  0  0  0  0
  -29.7873  -27.1954   21.6004 C   0  0  0  0  0  0  0  0  0  0  0  0
  -26.8710  -18.9300   17.7131 C   0  0  0  0  0  0  0  0  0  0  0  0
  -26.6003  -20.8845   19.3000 C   0  0  0  0  0  0  0  0  0  0  0  0
  -24.9932  -19.0201   19.4021 C   0  0  0  0  0  0  0  0  0  0  0  0
  -28.4341  -26.9554   20.9203 C   0  0  1  0  0  0  0  0  0  0  0  0
  -26.4515  -30.1949   21.0102 C   0  0  1  0  0  0  0  0  0  0  0  0
  -25.4128  -18.5270   18.0077 C   0  0  2  0  0  0  0  0  0  0  0  0
  -18.2569  -21.3503   20.7284 C   0  0  0  0  0  0  0  0  0  0  0  0
  -18.5517  -26.1527   23.7030 C   0  0  0  0  0  0  0  0  0  0  0  0
  -23.8889  -36.3583   24.9407 C   0  0  0  0  0  0  0  0  0  0  0  0
  -26.8650  -30.4785   25.6047 C   0  0  0  0  0  0  0  0  0  0  0  0
  -25.7429  -32.4472   26.6692 C   0  0  0  0  0  0  0  0  0  0  0  0
  -27.8510  -32.7652   25.3739 C   0  0  0  0  0  0  0  0  0  0  0  0
  -22.9033  -35.3465   21.4079 C   0  0  0  0  0  0  0  0  0  0  0  0
  -20.2290  -27.4247   22.3238 C   0  0  0  0  0  0  0  0  0  1  0  0
  -19.1850  -26.3111   22.3263 C   0  0  1  0  0  0  0  0  0  0  0  0
  -25.7027  -32.2593   24.1405 C   0  0  1  0  0  0  0  0  0  0  0  0
  -24.0345  -35.6228   23.6176 C   0  0  2  0  0  0  0  0  0  0  0  0
  -26.5270  -31.9722   25.4273 C   0  0  0  0  0  0  0  0  0  0  0  0
  -25.3350  -16.2357   18.9162 N   0  0  0  0  0  0  0  0  0  0  0  0
  -19.4631  -24.3513   20.9027 N   0  0  0  0  0  0  0  0  0  0  0  0
  -25.1980  -17.0340   17.8438 N   0  0  0  0  0  0  0  0  0  0  0  0
  -25.7385  -30.8322   22.1191 N   0  0  0  0  0  0  0  0  0  0  0  0
  -25.2105  -20.4715   19.5071 N   0  0  0  0  0  0  0  0  0  0  0  0
  -24.6931  -17.0183   15.5296 N   0  0  0  0  0  0  0  0  0  0  0  0
  -24.4214  -12.6608   16.6849 N   0  0  0  0  0  0  0  0  0  0  0  0
  -22.9377  -20.9387   19.9293 N   0  0  0  0  0  0  0  0  0  0  0  0
  -27.7886  -28.2155   20.6204 N   0  0  0  0  0  0  0  0  0  0  0  0
  -25.3913  -33.6693   23.9326 N   0  0  0  0  0  0  0  0  0  0  0  0
  -22.8768  -35.9818   22.7505 N   0  3  0  0  0  0  0  0  0  0  0  0
  -24.2376  -14.1400   14.9422 O   0  0  0  0  0  0  0  0  0  0  0  0
  -26.7890  -28.5733   22.6930 O   0  0  0  0  0  0  0  0  0  0  0  0
  -27.5087  -32.2704   22.6028 O   0  0  0  0  0  0  0  0  0  0  0  0
  -23.0867  -33.4169   23.8879 O   0  0  0  0  0  0  0  0  0  0  0  0
  -24.5071  -22.6456   19.8570 O   0  0  0  0  0  0  0  0  0  0  0  0
  -20.5910  -20.9744   20.3094 O   0  0  0  0  0  0  0  0  0  0  0  0
  -25.2683  -10.5422   21.7672 O   0  0  0  0  0  0  0  0  0  0  0  0
  -20.4606  -27.8487   20.9810 O   0  0  0  0  0  0  0  0  0  1  0  0
  -21.1770   -6.8691   21.3505 F   0  0  0  0  0  0  0  0  0  0  0  0
  -23.6574   -9.9612   23.9374 F   0  0  0  0  0  0  0  0  0  0  0  0
  1  2  1  0  0  0  0
  1  5  2  0  0  0  0
  2  6  2  0  0  0  0
  3  8  2  0  0  0  0
  3 16  1  0  0  0  0
  4  9  1  0  0  0  0
  4 16  2  0  0  0  0
  5 18  1  0  0  0  0
  6 20  1  0  0  0  0
  7 10  2  0  0  0  0
  7 19  1  0  0  0  0
  8 23  1  0  0  0  0
  9 23  2  0  0  0  0
 10 24  1  0  0  0  0
 11 12  2  0  0  0  0
 11 25  1  0  0  0  0
 12 26  1  0  0  0  0
 13 21  1  0  0  0  0
 13 24  2  0  0  0  0
 14 22  1  0  0  0  0
 14 31  2  0  0  0  0
 15 26  2  0  0  0  0
 15 27  1  0  0  0  0
 16 28  1  0  0  0  0
 17 28  1  0  0  0  0
 17 30  2  0  0  0  0
 17 33  1  0  0  0  0
 18 20  2  0  0  0  0
 18 38  1  0  0  0  0
 19 21  2  0  0  0  0
 19 39  1  0  0  0  0
 20 47  1  0  0  0  0
 21 40  1  0  0  0  0
 22 29  2  0  0  0  0
 22 63  1  0  0  0  0
 23 79  1  0  0  0  0
 24 80  1  0  0  0  0
 25 27  2  0  0  0  0
 25 79  1  0  0  0  0
 26 81  1  0  0  0  0
 27 82  1  0  0  0  0
 28 62  2  0  0  0  0
 29 50  1  0  0  0  0
 29 78  1  0  0  0  0
 30 64  1  0  0  0  0
 30 67  1  0  0  0  0
 31 69  1  0  0  0  0
 31 78  1  0  0  0  0
 32 58  1  0  0  0  0
 32 63  2  0  0  0  0
 33 68  1  0  0  0  0
 33 73  2  0  0  0  0
 34 48  1  0  0  0  0
 34 70  1  0  0  0  0
 34 74  2  0  0  0  0
 35 59  1  0  0  0  0
 35 65  1  0  0  0  0
 35 75  2  0  0  0  0
 36 60  1  0  0  0  0
 36 71  1  0  0  0  0
 36 76  2  0  0  0  0
 37 66  1  0  0  0  0
 37 69  1  0  0  0  0
 37 77  2  0  0  0  0
 38 41  1  0  0  0  0
 39 48  1  0  0  0  0
 40 65  1  0  0  0  0
 41 43  1  0  0  0  0
 42 44  1  0  0  0  0
 42 45  1  0  0  0  0
 43 47  1  0  0  0  0
 44 49  1  0  0  0  0
 45 66  1  0  0  0  0
 46 49  1  0  0  0  0
 46 66  1  0  0  0  0
 47 70  1  0  0  0  0
 48 65  1  0  0  0  0
 49 64  1  0  0  0  0
 51 58  1  0  0  0  0
 52 60  1  0  0  0  0
 53 61  1  0  0  0  0
 54 61  1  0  0  0  0
 55 61  1  0  0  0  0
 56 72  1  0  0  0  0
 57 58  1  0  0  0  0
 57 80  1  0  0  0  0
 59 61  1  0  0  0  0
 59 71  1  0  0  0  0
 60 72  1  0  0  0  0
 62 64  1  0  0  0  0
M  CHG  1  72   1
M  ISO  4  37 100  57 101  69 100  80 101
M  END
> <Batch ID>
0111

> <Smiles>
CNC(C)C(=O)NC(C(=O)N1Cc2cc([101O:1][101CH2:1]C(C)=CNc3cc([100NH:0][100C:0](=O)N4CCCC(n5nc(-c6ccc(Oc7ccc(F)cc7F)cc6)c(C(N)=O)c5N)C4)oc3C)ccc2CC1C(=O)NC1CCCc2ccccc21)C(C)(C)C

> <Shape>
0.280

> <Color>
0.077

> <Negative vol penalty>
0.000

$$$$

  -OEChem-04052301283D

 82 91  0     1  0  0  0  0  0999 V2000
  -26.2799  -35.0624   22.0429 C   0  0  0  0  0  0  0  0  0  0  0  0
  -27.2859  -34.1930   22.4520 C   0  0  0  0  0  0  0  0  0  0  0  0
  -22.6697  -10.1746   20.1596 C   0  0  0  0  0  0  0  0  0  0  0  0
  -24.3292   -9.3801   21.7254 C   0  0  0  0  0  0  0  0  0  0  0  0
  -25.1373  -34.5611   21.4207 C   0  0  0  0  0  0  0  0  0  0  0  0
  -27.1495  -32.8216   22.2401 C   0  0  0  0  0  0  0  0  0  0  0  0
  -31.0417  -26.9773   20.8217 C   0  0  0  0  0  0  0  0  0  0  0  0
  -21.9365   -9.0020   20.3417 C   0  0  0  0  0  0  0  0  0  0  0  0
  -23.5960   -8.2076   21.9076 C   0  0  0  0  0  0  0  0  0  0  0  0
  -31.2551  -25.6840   21.2965 C   0  0  0  0  0  0  0  0  0  0  0  0
  -20.8563   -7.2266   23.6258 C   0  0  0  0  0  0  0  0  0  0  0  0
  -20.6774   -6.7723   24.9324 C   0  0  0  0  0  0  0  0  0  0  0  0
  -29.2732  -24.9391   20.1405 C   0  0  0  0  0  0  0  0  0  0  0  0
  -31.8385  -17.4267   21.9002 C   0  0  0  0  0  0  0  0  0  0  0  0
  -21.7994   -4.7083   24.3685 C   0  0  0  0  0  0  0  0  0  0  0  0
  -23.8661  -10.3636   20.8514 C   0  0  0  0  0  0  0  0  0  0  0  0
  -24.1987  -12.8920   20.9174 C   0  0  0  0  0  0  0  0  0  0  0  0
  -24.9912  -33.1837   21.1923 C   0  0  0  0  0  0  0  0  0  0  0  0
  -29.9346  -27.2640   20.0102 C   0  0  0  0  0  0  0  0  0  0  0  0
  -26.0034  -32.3012   21.6155 C   0  0  0  0  0  0  0  0  0  0  0  0
  -29.0495  -26.2363   19.6546 C   0  0  0  0  0  0  0  0  0  0  0  0
  -31.9532  -18.6388   22.6536 C   0  0  0  0  0  0  0  0  0  0  0  0
  -22.3996   -8.0185   21.2157 C   0  0  0  0  0  0  0  0  0  0  0  0
  -30.3692  -24.6652   20.9583 C   0  0  0  0  0  0  0  0  0  0  0  0
  -21.5067   -6.4216   22.6905 C   0  0  0  0  0  0  0  0  0  0  0  0
  -21.1489   -5.5132   25.3037 C   0  0  0  0  0  0  0  0  0  0  0  0
  -21.9783   -5.1625   23.0618 C   0  0  0  0  0  0  0  0  0  0  0  0
  -24.6242  -11.5744   20.6632 C   0  0  0  0  0  0  0  0  0  0  0  0
  -30.8190  -18.8589   23.4100 C   0  0  0  0  0  0  0  0  0  0  0  0
  -25.2773  -13.6723   20.5797 C   0  0  0  0  0  0  0  0  0  0  0  0
  -30.6368  -16.7872   22.1096 C   0  0  0  0  0  0  0  0  0  0  0  0
  -32.8418  -21.0002   22.3839 C   0  0  0  0  0  0  0  0  0  0  0  0
  -31.7670  -21.7509   22.7021 C   0  0  0  0  0  0  0  0  0  0  0  0
  -22.9408  -13.3680   21.4144 C   0  0  0  0  0  0  0  0  0  0  0  0
  -27.3897  -29.1503   20.2726 C   0  0  0  0  0  0  0  0  0  0  0  0
  -26.8596  -28.2063   17.2148 C   0  0  0  0  0  0  0  0  0  0  0  0
  -27.3570  -25.8715   14.7760 C   0  0  0  0  0  0  0  0  0  0  0  0
  -30.7442  -14.7258   20.6655 C   0  0  0  0  0  0  0  0  0  0  0  0
  -33.1403  -19.5491   22.6523 C   0  0  0  0  0  0  0  0  0  0  0  0
  -23.7170  -32.6841   20.5586 C   0  0  0  0  0  0  0  0  0  0  0  0
  -29.7333  -28.6587   19.4842 C   0  0  0  0  0  0  0  0  0  0  0  0
  -27.8569  -26.4878   18.7697 C   0  0  0  0  0  0  0  0  0  0  0  0
  -30.5883  -20.0350   24.2988 C   0  0  0  0  0  0  0  0  0  0  0  0
  -30.5371  -21.3356   23.4915 C   0  0  0  0  0  0  0  0  0  0  0  0
  -23.8177  -31.2542   20.0338 C   0  0  0  0  0  0  0  0  0  0  0  0
  -29.5612  -12.4983   18.1524 C   0  0  0  0  0  0  0  0  0  0  0  0
  -24.4733  -30.3493   21.0722 C   0  0  0  0  0  0  0  0  0  0  0  0
  -28.1363  -12.1677   18.6025 C   0  0  0  0  0  0  0  0  0  0  0  0
  -30.5130  -12.6372   19.3392 C   0  0  0  0  0  0  0  0  0  0  0  0
  -28.6487  -13.2435   20.8312 C   0  0  0  0  0  0  0  0  0  0  0  0
  -25.9032  -30.8095   21.3809 C   0  0  1  0  0  0  0  0  0  0  0  0
  -28.2886  -28.9446   19.0863 C   0  0  1  0  0  0  0  0  0  0  0  0
  -27.6398  -13.1579   19.6742 C   0  0  2  0  0  0  0  0  0  0  0  0
  -26.7673  -25.3570   12.3917 C   0  0  0  0  0  0  0  0  0  0  0  0
  -24.0585  -27.3715   18.0904 C   0  0  0  0  0  0  0  0  0  0  0  0
  -23.8739  -26.0335   15.9823 C   0  0  0  0  0  0  0  0  0  0  0  0
  -24.1604  -28.5088   15.8654 C   0  0  0  0  0  0  0  0  0  0  0  0
  -30.1967  -25.9127   13.9430 C   0  0  0  0  0  0  0  0  0  0  0  0
  -31.7182  -23.1914   22.2484 C   0  0  0  0  0  0  0  0  0  1  0  0
  -26.1165  -27.0662   16.5615 C   0  0  1  0  0  0  0  0  0  0  0  0
  -27.7787  -26.0058   13.3239 C   0  0  2  0  0  0  0  0  0  0  0  0
  -24.5736  -27.2403   16.6432 C   0  0  0  0  0  0  0  0  0  0  0  0
  -25.8756  -11.5170   20.1997 N   0  0  0  0  0  0  0  0  0  0  0  0
  -26.2456  -12.8084   20.1599 N   0  0  0  0  0  0  0  0  0  0  0  0
  -27.6995  -27.8693   18.2857 N   0  0  0  0  0  0  0  0  0  0  0  0
  -29.9796  -13.5942   20.3110 N   0  0  0  0  0  0  0  0  0  0  0  0
  -25.4826  -15.0064   20.6039 N   0  0  0  0  0  0  0  0  0  0  0  0
  -22.7781  -13.5039   22.7998 N   0  0  0  0  0  0  0  0  0  0  0  0
  -30.1208  -15.5816   21.5731 N   0  0  0  0  0  0  0  0  0  0  0  0
  -26.8046  -30.4011   20.3249 N   0  0  0  0  0  0  0  0  0  0  0  0
  -26.6354  -26.9666   15.2017 N   0  0  0  0  0  0  0  0  0  0  0  0
  -29.1022  -25.3563   13.1066 N   0  3  0  0  0  0  0  0  0  0  0  0
  -21.9839  -13.6483   20.6534 O   0  0  0  0  0  0  0  0  0  0  0  0
  -27.2370  -28.2411   21.0799 O   0  0  0  0  0  0  0  0  0  0  0  0
  -26.7062  -29.3527   16.7860 O   0  0  0  0  0  0  0  0  0  0  0  0
  -27.6364  -24.8913   15.4628 O   0  0  0  0  0  0  0  0  0  0  0  0
  -31.8577  -14.9355   20.1776 O   0  0  0  0  0  0  0  0  0  0  0  0
  -21.6843   -6.8744   21.3939 O   0  0  0  0  0  0  0  0  0  0  0  0
  -30.5747  -23.4020   21.4210 O   0  0  0  0  0  0  0  0  0  1  0  0
  -20.9784   -5.0777   26.5589 F   0  0  0  0  0  0  0  0  0  0  0  0
  -22.6050   -4.3852   22.1680 F   0  0  0  0  0  0  0  0  0  0  0  0
  -29.6457  -17.6374   23.2123 S   0  0  0  0  0  0  0  0  0  0  0  0
  1  2  1  0  0  0  0
  1  5  2  0  0  0  0
  2  6  2  0  0  0  0
  3  8  2  0  0  0  0
  3 16  1  0  0  0  0
  4  9  1  0  0  0  0
  4 16  2  0  0  0  0
  5 18  1  0  0  0  0
  6 20  1  0  0  0  0
  7 10  2  0  0  0  0
  7 19  1  0  0  0  0
  8 23  1  0  0  0  0
  9 23  2  0  0  0  0
 10 24  1  0  0  0  0
 11 12  2  0  0  0  0
 11 25  1  0  0  0  0
 12 26  1  0  0  0  0
 13 21  1  0  0  0  0
 13 24  2  0  0  0  0
 14 22  1  0  0  0  0
 14 31  2  0  0  0  0
 15 26  2  0  0  0  0
 15 27  1  0  0  0  0
 16 28  1  0  0  0  0
 17 28  1  0  0  0  0
 17 30  2  0  0  0  0
 17 34  1  0  0  0  0
 18 20  2  0  0  0  0
 18 40  1  0  0  0  0
 19 21  2  0  0  0  0
 19 41  1  0  0  0  0
 20 51  1  0  0  0  0
 21 42  1  0  0  0  0
 22 29  2  0  0  0  0
 22 39  1  0  0  0  0
 23 78  1  0  0  0  0
 24 79  1  0  0  0  0
 25 27  2  0  0  0  0
 25 78  1  0  0  0  0
 26 80  1  0  0  0  0
 27 81  1  0  0  0  0
 28 63  2  0  0  0  0
 29 43  1  0  0  0  0
 29 82  1  0  0  0  0
 30 64  1  0  0  0  0
 30 67  1  0  0  0  0
 31 69  1  0  0  0  0
 31 82  1  0  0  0  0
 32 33  2  0  0  0  0
 32 39  1  0  0  0  0
 33 44  1  0  0  0  0
 33 59  1  0  0  0  0
 34 68  1  0  0  0  0
 34 73  2  0  0  0  0
 35 52  1  0  0  0  0
 35 70  1  0  0  0  0
 35 74  2  0  0  0  0
 36 60  1  0  0  0  0
 36 65  1  0  0  0  0
 36 75  2  0  0  0  0
 37 61  1  0  0  0  0
 37 71  1  0  0  0  0
 37 76  2  0  0  0  0
 38 66  1  0  0  0  0
 38 69  1  0  0  0  0
 38 77  2  0  0  0  0
 40 45  1  0  0  0  0
 41 52  1  0  0  0  0
 42 65  1  0  0  0  0
 43 44  1  0  0  0  0
 45 47  1  0  0  0  0
 46 48  1  0  0  0  0
 46 49  1  0  0  0  0
 47 51  1  0  0  0  0
 48 53  1  0  0  0  0
 49 66  1  0  0  0  0
 50 53  1  0  0  0  0
 50 66  1  0  0  0  0
 51 70  1  0  0  0  0
 52 65  1  0  0  0  0
 53 64  1  0  0  0  0
 54 61  1  0  0  0  0
 55 62  1  0  0  0  0
 56 62  1  0  0  0  0
 57 62  1  0  0  0  0
 58 72  1  0  0  0  0
 59 79  1  0  0  0  0
 60 62  1  0  0  0  0
 60 71  1  0  0  0  0
 61 72  1  0  0  0  0
 63 64  1  0  0  0  0
M  CHG  1  72   1
M  ISO  4  38 100  59 101  69 100  79 101
M  END
> <Batch ID>
0111

> <Smiles>
CNC(C)C(=O)NC(C(=O)N1Cc2cc([101O:1][101CH2:1]C3=CCc4cc([100NH:0][100C:0](=O)N5CCCC(n6nc(-c7ccc(Oc8ccc(F)cc8F)cc7)c(C(N)=O)c6N)C5)sc4CC3)ccc2CC1C(=O)NC1CCCc2ccccc21)C(C)(C)C

> <Shape>
0.298

> <Color>
0.185

> <Negative vol penalty>
0.000

$$$$

  -OEChem-04052301283D

 85 93  0     1  0  0  0  0  0999 V2000
  -18.7142  -27.3356   18.9165 C   0  0  0  0  0  0  0  0  0  0  0  0
  -20.0964  -27.4910   18.9473 C   0  0  0  0  0  0  0  0  0  0  0  0
  -26.6418  -12.3789   20.8184 C   0  0  0  0  0  0  0  0  0  0  0  0
  -25.8117  -14.5800   20.2678 C   0  0  0  0  0  0  0  0  0  0  0  0
  -17.9830  -27.3738   20.1030 C   0  0  0  0  0  0  0  0  0  0  0  0
  -20.7480  -27.6860   20.1646 C   0  0  0  0  0  0  0  0  0  0  0  0
  -24.9305  -24.8648   20.6031 C   0  0  0  0  0  0  0  0  0  0  0  0
  -25.3532  -11.8608   20.6901 C   0  0  0  0  0  0  0  0  0  0  0  0
  -24.5230  -14.0619   20.1394 C   0  0  0  0  0  0  0  0  0  0  0  0
  -26.0695  -25.3060   19.9310 C   0  0  0  0  0  0  0  0  0  0  0  0
  -20.9540  -13.3855   20.0187 C   0  0  0  0  0  0  0  0  0  0  0  0
  -19.9075  -14.0976   20.6048 C   0  0  0  0  0  0  0  0  0  0  0  0
  -26.9210  -26.2274   21.9914 C   0  0  0  0  0  0  0  0  0  0  0  0
  -30.4351  -24.1530   21.4365 C   0  0  0  0  0  0  0  0  0  0  0  0
  -30.0550  -21.6385   20.2897 C   0  0  0  0  0  0  0  0  0  0  0  0
  -20.9484  -13.8446   22.7704 C   0  0  0  0  0  0  0  0  0  0  0  0
  -26.8711  -13.7386   20.6073 C   0  0  0  0  0  0  0  0  0  0  0  0
  -29.3443  -13.9058   20.0049 C   0  0  0  0  0  0  0  0  0  0  0  0
  -18.6270  -27.5598   21.3364 C   0  0  0  0  0  0  0  0  0  0  0  0
  -24.7729  -25.1115   21.9745 C   0  0  0  0  0  0  0  0  0  0  0  0
  -20.0245  -27.7282   21.3686 C   0  0  0  0  0  0  0  0  0  0  0  0
  -25.7803  -25.7860   22.6791 C   0  0  0  0  0  0  0  0  0  0  0  0
  -30.0535  -23.0736   22.2332 C   0  0  0  0  0  0  0  0  0  0  0  0
  -30.6266  -23.9752   20.0663 C   0  0  0  0  0  0  0  0  0  0  0  0
  -29.8635  -21.8163   21.6599 C   0  0  0  0  0  0  0  0  0  0  0  0
  -24.2938  -12.7022   20.3505 C   0  0  0  0  0  0  0  0  0  0  0  0
  -27.0636  -25.9900   20.6245 C   0  0  0  0  0  0  0  0  0  0  0  0
  -21.9976  -12.9030   20.8084 C   0  0  0  0  0  0  0  0  0  0  0  0
  -19.9047  -14.3271   21.9806 C   0  0  0  0  0  0  0  0  0  0  0  0
  -30.4365  -22.7179   19.4929 C   0  0  0  0  0  0  0  0  0  0  0  0
  -21.9948  -13.1325   22.1843 C   0  0  0  0  0  0  0  0  0  0  0  0
  -28.2019  -14.2745   20.7404 C   0  0  0  0  0  0  0  0  0  0  0  0
  -30.3463  -14.7005   20.5058 C   0  0  0  0  0  0  0  0  0  0  0  0
  -27.1270  -21.0750   22.1761 C   0  0  0  0  0  0  0  0  0  0  0  0
  -28.1357  -20.3667   22.6887 C   0  0  0  0  0  0  0  0  0  0  0  0
  -29.4869  -12.9321   18.9622 C   0  0  0  0  0  0  0  0  0  0  0  0
  -22.6779  -26.7267   23.7369 C   0  0  0  0  0  0  0  0  0  0  0  0
  -30.1098  -25.8158   18.7099 C   0  0  0  0  0  0  0  0  0  0  0  0
  -24.3354  -25.4230   26.2018 C   0  0  0  0  0  0  0  0  0  0  0  0
  -27.2560  -24.0686   27.3343 C   0  0  0  0  0  0  0  0  0  0  0  0
  -30.4643  -19.9711   23.1852 C   0  0  0  0  0  0  0  0  0  0  0  0
  -17.7891  -27.6413   22.5878 C   0  0  0  0  0  0  0  0  0  0  0  0
  -23.5506  -24.6056   22.6904 C   0  0  0  0  0  0  0  0  0  0  0  0
  -25.6686  -26.0584   24.1562 C   0  0  0  0  0  0  0  0  0  0  0  0
  -18.5963  -27.4775   23.8730 C   0  0  0  0  0  0  0  0  0  0  0  0
  -31.7019  -16.9746   24.4804 C   0  0  0  0  0  0  0  0  0  0  0  0
  -19.8542  -28.3393   23.8269 C   0  0  0  0  0  0  0  0  0  0  0  0
  -31.0552  -15.9000   23.6068 C   0  0  0  0  0  0  0  0  0  0  0  0
  -30.7153  -18.0947   24.7899 C   0  0  0  0  0  0  0  0  0  0  0  0
  -29.4781  -17.6715   22.6890 C   0  0  0  0  0  0  0  0  0  0  0  0
  -20.7701  -27.9170   22.6718 C   0  0  1  0  0  0  0  0  0  0  0  0
  -23.2585  -25.3628   23.9822 C   0  0  1  0  0  0  0  0  0  0  0  0
  -30.4379  -16.5165   22.3392 C   0  0  2  0  0  0  0  0  0  0  0  0
  -29.8551  -23.2925   23.6982 C   0  0  0  0  0  0  0  0  0  0  0  0
  -30.5933  -26.9846   17.8844 C   0  0  0  0  0  0  0  0  0  0  0  0
  -28.3204  -23.1314   29.4046 C   0  0  0  0  0  0  0  0  0  0  0  0
  -24.6782  -28.2483   27.3017 C   0  0  0  0  0  0  0  0  0  0  0  0
  -26.4970  -27.3755   28.7843 C   0  0  0  0  0  0  0  0  0  0  0  0
  -24.1696  -26.5115   29.0277 C   0  0  0  0  0  0  0  0  0  0  0  0
  -27.6689  -21.4267   26.0661 C   0  0  0  0  0  0  0  0  0  0  0  0
  -28.6088  -25.6553   18.8479 C   0  0  0  0  0  0  0  0  0  1  0  0
  -25.5400  -25.8315   27.0148 C   0  0  1  0  0  0  0  0  0  0  0  0
  -27.5386  -22.8132   28.1396 C   0  0  2  0  0  0  0  0  0  0  0  0
  -25.2227  -26.9884   28.0039 C   0  0  0  0  0  0  0  0  0  0  0  0
  -28.4538  -15.2290   21.6401 N   0  0  0  0  0  0  0  0  0  0  0  0
  -31.0097  -25.0618   19.2664 N   0  0  0  0  0  0  0  0  0  0  0  0
  -29.7660  -15.4668   21.4734 N   0  0  0  0  0  0  0  0  0  0  0  0
  -24.4518  -25.5493   24.8102 N   0  0  0  0  0  0  0  0  0  0  0  0
  -30.1477  -18.6505   23.5610 N   0  0  0  0  0  0  0  0  0  0  0  0
  -31.6585  -14.8114   20.2087 N   0  0  0  0  0  0  0  0  0  0  0  0
  -29.2903  -13.3400   17.6358 N   0  0  0  0  0  0  0  0  0  0  0  0
  -21.4981  -26.7149   23.0176 N   0  0  0  0  0  0  0  0  0  0  0  0
  -26.0317  -24.6162   27.6548 N   0  0  0  0  0  0  0  0  0  0  0  0
  -29.4667  -20.6828   22.4695 N   0  0  0  0  0  0  0  0  0  0  0  0
  -28.3301  -21.8451   27.3289 N   0  3  0  0  0  0  0  0  0  0  0  0
  -29.7638  -11.7322   19.2009 O   0  0  0  0  0  0  0  0  0  0  0  0
  -23.2567  -27.7165   24.1695 O   0  0  0  0  0  0  0  0  0  0  0  0
  -23.3308  -25.0004   26.7796 O   0  0  0  0  0  0  0  0  0  0  0  0
  -28.0442  -24.5206   26.5067 O   0  0  0  0  0  0  0  0  0  0  0  0
  -31.5479  -20.4906   23.4823 O   0  0  0  0  0  0  0  0  0  0  0  0
  -23.0362  -12.1969   20.2249 O   0  0  0  0  0  0  0  0  0  0  0  0
  -28.1761  -26.4223   19.9708 O   0  0  0  0  0  0  0  0  0  1  0  0
  -18.9005  -15.0122   22.5431 F   0  0  0  0  0  0  0  0  0  0  0  0
  -30.6192  -22.5379   18.1773 F   0  0  0  0  0  0  0  0  0  0  0  0
  -22.9953  -12.6724   22.9479 F   0  0  0  0  0  0  0  0  0  0  0  0
  1  2  1  0  0  0  0
  1  5  2  0  0  0  0
  2  6  2  0  0  0  0
  3  8  2  0  0  0  0
  3 17  1  0  0  0  0
  4  9  1  0  0  0  0
  4 17  2  0  0  0  0
  5 19  1  0  0  0  0
  6 21  1  0  0  0  0
  7 10  2  0  0  0  0
  7 20  1  0  0  0  0
  8 26  1  0  0  0  0
  9 26  2  0  0  0  0
 10 27  1  0  0  0  0
 11 12  2  0  0  0  0
 11 28  1  0  0  0  0
 12 29  1  0  0  0  0
 13 22  1  0  0  0  0
 13 27  2  0  0  0  0
 14 23  1  0  0  0  0
 14 24  2  0  0  0  0
 15 25  1  0  0  0  0
 15 30  2  0  0  0  0
 16 29  2  0  0  0  0
 16 31  1  0  0  0  0
 17 32  1  0  0  0  0
 18 32  1  0  0  0  0
 18 33  2  0  0  0  0
 18 36  1  0  0  0  0
 19 21  2  0  0  0  0
 19 42  1  0  0  0  0
 20 22  2  0  0  0  0
 20 43  1  0  0  0  0
 21 51  1  0  0  0  0
 22 44  1  0  0  0  0
 23 25  2  0  0  0  0
 23 54  1  0  0  0  0
 24 30  1  0  0  0  0
 24 66  1  0  0  0  0
 25 74  1  0  0  0  0
 26 81  1  0  0  0  0
 27 82  1  0  0  0  0
 28 31  2  0  0  0  0
 28 81  1  0  0  0  0
 29 83  1  0  0  0  0
 30 84  1  0  0  0  0
 31 85  1  0  0  0  0
 32 65  2  0  0  0  0
 33 67  1  0  0  0  0
 33 70  1  0  0  0  0
 34 35  2  0  0  0  0
 35 74  1  0  0  0  0
 36 71  1  0  0  0  0
 36 76  2  0  0  0  0
 37 52  1  0  0  0  0
 37 72  1  0  0  0  0
 37 77  2  0  0  0  0
 38 55  1  0  0  0  0
 38 61  1  0  0  0  0
 38 66  2  0  0  0  0
 39 62  1  0  0  0  0
 39 68  1  0  0  0  0
 39 78  2  0  0  0  0
 40 63  1  0  0  0  0
 40 73  1  0  0  0  0
 40 79  2  0  0  0  0
 41 69  1  0  0  0  0
 41 74  1  0  0  0  0
 41 80  2  0  0  0  0
 42 45  1  0  0  0  0
 43 52  1  0  0  0  0
 44 68  1  0  0  0  0
 45 47  1  0  0  0  0
 46 48  1  0  0  0  0
 46 49  1  0  0  0  0
 47 51  1  0  0  0  0
 48 53  1  0  0  0  0
 49 69  1  0  0  0  0
 50 53  1  0  0  0  0
 50 69  1  0  0  0  0
 51 72  1  0  0  0  0
 52 68  1  0  0  0  0
 53 67  1  0  0  0  0
 56 63  1  0  0  0  0
 57 64  1  0  0  0  0
 58 64  1  0  0  0  0
 59 64  1  0  0  0  0
 60 75  1  0  0  0  0
 61 82  1  0  0  0  0
 62 64  1  0  0  0  0
 62 73  1  0  0  0  0
 63 75  1  0  0  0  0
 65 67  1  0  0  0  0
M  CHG  1  75   1
M  ISO  4  41 100  61 101  74 100  82 101
M  END
> <Batch ID>
0111

> <Smiles>
C=C[100N:0](c1cc(F)c(N=C(C)[101CH2:1][101O:1]c2ccc3c(c2)CN(C(=O)C(NC(=O)C(C)NC)C(C)(C)C)C(C(=O)NC2CCCc4ccccc42)C3)cc1C)[100C:0](=O)N1CCCC(n2nc(-c3ccc(Oc4ccc(F)cc4F)cc3)c(C(N)=O)c2N)C1

> <Shape>
0.218

> <Color>
0.089

> <Negative vol penalty>
0.000

$$$$

  -OEChem-04052301283D

 85 93  0     1  0  0  0  0  0999 V2000
  -16.2429  -25.9545   23.0168 C   0  0  0  0  0  0  0  0  0  0  0  0
  -17.0858  -24.9273   22.6049 C   0  0  0  0  0  0  0  0  0  0  0  0
  -29.7822  -19.5218   18.7327 C   0  0  0  0  0  0  0  0  0  0  0  0
  -27.7326  -19.6004   20.0095 C   0  0  0  0  0  0  0  0  0  0  0  0
  -16.7354  -27.2533   23.1362 C   0  0  0  0  0  0  0  0  0  0  0  0
  -18.4217  -25.1986   22.3111 C   0  0  0  0  0  0  0  0  0  0  0  0
  -21.5821  -21.7797   24.3030 C   0  0  0  0  0  0  0  0  0  0  0  0
  -29.7393  -20.9074   18.5786 C   0  0  0  0  0  0  0  0  0  0  0  0
  -27.6898  -20.9860   19.8554 C   0  0  0  0  0  0  0  0  0  0  0  0
  -21.6934  -20.5559   23.6446 C   0  0  0  0  0  0  0  0  0  0  0  0
  -30.4678  -23.6431   20.4274 C   0  0  0  0  0  0  0  0  0  0  0  0
  -31.6499  -24.3549   20.6314 C   0  0  0  0  0  0  0  0  0  0  0  0
  -23.7422  -21.3035   22.6139 C   0  0  0  0  0  0  0  0  0  0  0  0
  -31.5463  -25.1773   18.3620 C   0  0  0  0  0  0  0  0  0  0  0  0
  -28.7788  -18.8682   19.4482 C   0  0  0  0  0  0  0  0  0  0  0  0
  -29.4411  -16.7153   20.6456 C   0  0  0  0  0  0  0  0  0  0  0  0
  -18.0803  -27.5390   22.8530 C   0  0  0  0  0  0  0  0  0  0  0  0
  -22.5459  -22.7804   24.1130 C   0  0  0  0  0  0  0  0  0  0  0  0
  -18.9324  -26.5028   22.4255 C   0  0  0  0  0  0  0  0  0  0  0  0
  -23.6423  -22.5383   23.2730 C   0  0  0  0  0  0  0  0  0  0  0  0
  -28.6931  -21.6395   19.1399 C   0  0  0  0  0  0  0  0  0  0  0  0
  -22.7720  -20.3187   22.7976 C   0  0  0  0  0  0  0  0  0  0  0  0
  -29.8250  -23.6983   19.1906 C   0  0  0  0  0  0  0  0  0  0  0  0
  -32.1891  -25.1220   19.5988 C   0  0  0  0  0  0  0  0  0  0  0  0
  -30.3643  -24.4654   18.1580 C   0  0  0  0  0  0  0  0  0  0  0  0
  -28.8222  -17.4368   19.6073 C   0  0  0  0  0  0  0  0  0  0  0  0
  -29.1993  -15.3982   20.3400 C   0  0  0  0  0  0  0  0  0  0  0  0
  -24.5343  -14.2830   23.6491 C   0  0  0  0  0  0  0  0  0  0  0  0
  -24.9126  -14.9581   22.5502 C   0  0  0  0  0  0  0  0  0  0  0  0
  -25.2609  -12.8230   21.3600 C   0  0  0  0  0  0  0  0  0  0  0  0
  -25.2864  -14.1735   21.3697 C   0  0  0  0  0  0  0  0  0  0  0  0
  -24.8300  -12.1086   22.6145 C   0  0  0  0  0  0  0  0  0  0  0  0
  -24.9241  -16.3919   22.6091 C   0  0  0  0  0  0  0  0  0  0  0  0
  -24.1867  -17.1708   21.8056 C   0  0  0  0  0  0  0  0  0  0  0  0
  -30.1694  -17.1929   21.7845 C   0  0  0  0  0  0  0  0  0  0  0  0
  -22.5092  -25.7382   22.9496 C   0  0  0  0  0  0  0  0  0  0  0  0
  -25.5918  -25.7565   23.9593 C   0  0  0  0  0  0  0  0  0  0  0  0
  -28.3890  -23.9725   24.7592 C   0  0  0  0  0  0  0  0  0  0  0  0
  -24.7236  -12.3879   17.8927 C   0  0  0  0  0  0  0  0  0  0  0  0
  -18.5554  -28.9670   22.9510 C   0  0  0  0  0  0  0  0  0  0  0  0
  -22.4256  -24.0853   24.8514 C   0  0  0  0  0  0  0  0  0  0  0  0
  -24.7147  -23.5722   23.0509 C   0  0  0  0  0  0  0  0  0  0  0  0
  -20.0756  -29.1025   22.9814 C   0  0  0  0  0  0  0  0  0  0  0  0
  -27.9957  -12.9187   16.2457 C   0  0  0  0  0  0  0  0  0  0  0  0
  -20.7105  -28.2365   21.8981 C   0  0  0  0  0  0  0  0  0  0  0  0
  -28.5590  -14.1199   17.0033 C   0  0  0  0  0  0  0  0  0  0  0  0
  -26.4701  -12.9211   16.2324 C   0  0  0  0  0  0  0  0  0  0  0  0
  -26.4194  -14.2085   18.3429 C   0  0  0  0  0  0  0  0  0  0  0  0
  -20.3936  -26.7529   22.1216 C   0  0  1  0  0  0  0  0  0  0  0  0
  -23.1931  -25.2224   24.1840 C   0  0  1  0  0  0  0  0  0  0  0  0
  -27.9537  -14.2112   18.4149 C   0  0  2  0  0  0  0  0  0  0  0  0
  -30.7642  -24.2667   25.5139 C   0  0  0  0  0  0  0  0  0  0  0  0
  -26.3795  -26.6121   21.1384 C   0  0  0  0  0  0  0  0  0  0  0  0
  -28.7391  -25.9723   21.6783 C   0  0  0  0  0  0  0  0  0  0  0  0
  -27.6145  -27.7874   22.9682 C   0  0  0  0  0  0  0  0  0  0  0  0
  -23.3312  -11.2616   19.5876 C   0  0  0  0  0  0  0  0  0  0  0  0
  -27.9058  -22.4575   27.2553 C   0  0  0  0  0  0  0  0  0  0  0  0
  -27.0391  -15.2217   20.2711 C   0  0  0  0  0  0  0  0  0  0  0  0
  -25.6235  -11.9257   20.2120 C   0  0  0  0  0  0  0  0  0  0  0  0
  -24.2014  -18.6641   21.8621 C   0  0  0  0  0  0  0  0  0  1  0  0
  -26.9201  -25.3857   23.3452 C   0  0  1  0  0  0  0  0  0  0  0  0
  -29.3246  -24.0475   25.9524 C   0  0  2  0  0  0  0  0  0  0  0  0
  -27.3923  -26.4204   22.2850 C   0  0  0  0  0  0  0  0  0  0  0  0
  -28.2317  -16.6439   18.7091 N   0  0  0  0  0  0  0  0  0  0  0  0
  -28.4786  -15.4105   19.1822 N   0  0  0  0  0  0  0  0  0  0  0  0
  -24.4940  -12.9158   23.6821 N   0  0  0  0  0  0  0  0  0  0  0  0
  -24.5491  -24.8345   23.7904 N   0  0  0  0  0  0  0  0  0  0  0  0
  -25.9216  -13.0523   17.5826 N   0  0  0  0  0  0  0  0  0  0  0  0
  -29.5350  -14.2425   20.9515 N   0  0  0  0  0  0  0  0  0  0  0  0
  -30.3243  -18.5764   21.9464 N   0  0  0  0  0  0  0  0  0  0  0  0
  -21.2294  -26.2100   23.1709 N   0  0  0  0  0  0  0  0  0  0  0  0
  -27.8472  -25.2039   24.4569 N   0  0  0  0  0  0  0  0  0  0  0  0
  -24.5517  -11.9651   19.2196 N   0  0  0  0  0  0  0  0  0  0  0  0
  -29.2606  -22.7846   26.7410 N   0  3  0  0  0  0  0  0  0  0  0  0
  -24.7863  -10.8808   22.6652 O   0  0  0  0  0  0  0  0  0  0  0  0
  -30.6822  -16.4153   22.6247 O   0  0  0  0  0  0  0  0  0  0  0  0
  -23.0995  -25.7116   21.8760 O   0  0  0  0  0  0  0  0  0  0  0  0
  -25.4853  -26.8214   24.5725 O   0  0  0  0  0  0  0  0  0  0  0  0
  -28.1644  -22.9269   24.1536 O   0  0  0  0  0  0  0  0  0  0  0  0
  -23.8612  -12.1758   17.0306 O   0  0  0  0  0  0  0  0  0  0  0  0
  -28.6511  -22.9917   18.9899 O   0  0  0  0  0  0  0  0  0  0  0  0
  -22.8827  -19.1252   22.1532 O   0  0  0  0  0  0  0  0  0  1  0  0
  -25.6599  -14.9448   20.2879 O   0  0  0  0  0  0  0  0  0  0  0  0
  -33.3234  -25.8068   19.7953 F   0  0  0  0  0  0  0  0  0  0  0  0
  -29.7507  -24.5233   16.9681 F   0  0  0  0  0  0  0  0  0  0  0  0
  1  2  1  0  0  0  0
  1  5  2  0  0  0  0
  2  6  2  0  0  0  0
  3  8  2  0  0  0  0
  3 15  1  0  0  0  0
  4  9  1  0  0  0  0
  4 15  2  0  0  0  0
  5 17  1  0  0  0  0
  6 19  1  0  0  0  0
  7 10  2  0  0  0  0
  7 18  1  0  0  0  0
  8 21  1  0  0  0  0
  9 21  2  0  0  0  0
 10 22  1  0  0  0  0
 11 12  2  0  0  0  0
 11 23  1  0  0  0  0
 12 24  1  0  0  0  0
 13 20  1  0  0  0  0
 13 22  2  0  0  0  0
 14 24  2  0  0  0  0
 14 25  1  0  0  0  0
 15 26  1  0  0  0  0
 16 26  1  0  0  0  0
 16 27  2  0  0  0  0
 16 35  1  0  0  0  0
 17 19  2  0  0  0  0
 17 40  1  0  0  0  0
 18 20  2  0  0  0  0
 18 41  1  0  0  0  0
 19 49  1  0  0  0  0
 20 42  1  0  0  0  0
 21 81  1  0  0  0  0
 22 82  1  0  0  0  0
 23 25  2  0  0  0  0
 23 81  1  0  0  0  0
 24 84  1  0  0  0  0
 25 85  1  0  0  0  0
 26 64  2  0  0  0  0
 27 65  1  0  0  0  0
 27 69  1  0  0  0  0
 28 29  2  0  0  0  0
 28 66  1  0  0  0  0
 29 31  1  0  0  0  0
 29 33  1  0  0  0  0
 30 31  2  0  0  0  0
 30 32  1  0  0  0  0
 30 59  1  0  0  0  0
 31 83  1  0  0  0  0
 32 66  1  0  0  0  0
 32 75  2  0  0  0  0
 33 34  2  0  0  0  0
 34 60  1  0  0  0  0
 35 70  1  0  0  0  0
 35 76  2  0  0  0  0
 36 50  1  0  0  0  0
 36 71  1  0  0  0  0
 36 77  2  0  0  0  0
 37 61  1  0  0  0  0
 37 67  1  0  0  0  0
 37 78  2  0  0  0  0
 38 62  1  0  0  0  0
 38 72  1  0  0  0  0
 38 79  2  0  0  0  0
 39 68  1  0  0  0  0
 39 73  1  0  0  0  0
 39 80  2  0  0  0  0
 40 43  1  0  0  0  0
 41 50  1  0  0  0  0
 42 67  1  0  0  0  0
 43 45  1  0  0  0  0
 44 46  1  0  0  0  0
 44 47  1  0  0  0  0
 45 49  1  0  0  0  0
 46 51  1  0  0  0  0
 47 68  1  0  0  0  0
 48 51  1  0  0  0  0
 48 68  1  0  0  0  0
 49 71  1  0  0  0  0
 50 67  1  0  0  0  0
 51 65  1  0  0  0  0
 52 62  1  0  0  0  0
 53 63  1  0  0  0  0
 54 63  1  0  0  0  0
 55 63  1  0  0  0  0
 56 73  1  0  0  0  0
 57 74  1  0  0  0  0
 58 83  1  0  0  0  0
 59 73  1  0  0  0  0
 60 82  1  0  0  0  0
 61 63  1  0  0  0  0
 61 72  1  0  0  0  0
 62 74  1  0  0  0  0
 64 65  1  0  0  0  0
M  CHG  1  74   1
M  ISO  4  39 100  60 101  73 100  82 101
M  END
> <Batch ID>
0111

> <Smiles>
CNC(C)C(=O)NC(C(=O)N1Cc2cc([101O:1][101CH2:1]C=Cc3c[nH]c(=O)c(C[100N:0](C)[100C:0](=O)N4CCCC(n5nc(-c6ccc(Oc7ccc(F)cc7F)cc6)c(C(N)=O)c5N)C4)c3OC)ccc2CC1C(=O)NC1CCCc2ccccc21)C(C)(C)C

> <Shape>
0.208

> <Color>
0.051

> <Negative vol penalty>
0.000

$$$$

  -OEChem-04052301283D

 82 90  0     1  0  0  0  0  0999 V2000
  -27.1108  -11.4725   22.0798 C   0  0  0  0  0  0  0  0  0  0  0  0
  -27.5056  -12.6106   22.7757 C   0  0  0  0  0  0  0  0  0  0  0  0
  -19.3847  -28.3516   21.9445 C   0  0  0  0  0  0  0  0  0  0  0  0
  -20.4543  -27.1062   23.7170 C   0  0  0  0  0  0  0  0  0  0  0  0
  -27.4528  -11.3246   20.7363 C   0  0  0  0  0  0  0  0  0  0  0  0
  -28.2437  -13.6010   22.1287 C   0  0  0  0  0  0  0  0  0  0  0  0
  -26.5566  -18.2641   23.1555 C   0  0  0  0  0  0  0  0  0  0  0  0
  -18.2927  -27.4853   21.9946 C   0  0  0  0  0  0  0  0  0  0  0  0
  -19.3623  -26.2398   23.7672 C   0  0  0  0  0  0  0  0  0  0  0  0
  -26.9125  -18.8132   24.3866 C   0  0  0  0  0  0  0  0  0  0  0  0
  -17.0168  -23.4855   24.1166 C   0  0  0  0  0  0  0  0  0  0  0  0
  -17.2776  -22.1173   24.1901 C   0  0  0  0  0  0  0  0  0  0  0  0
  -28.6583  -20.0822   23.3091 C   0  0  0  0  0  0  0  0  0  0  0  0
  -28.4142  -26.8848   25.0740 C   0  0  0  0  0  0  0  0  0  0  0  0
  -18.4552  -22.2287   22.0834 C   0  0  0  0  0  0  0  0  0  0  0  0
  -20.4655  -28.1621   22.8056 C   0  0  0  0  0  0  0  0  0  0  0  0
  -21.7696  -30.2468   23.4846 C   0  0  0  0  0  0  0  0  0  0  0  0
  -28.1872  -12.3182   20.0699 C   0  0  0  0  0  0  0  0  0  0  0  0
  -27.2571  -18.6122   21.9917 C   0  0  0  0  0  0  0  0  0  0  0  0
  -28.5970  -13.4657   20.7753 C   0  0  0  0  0  0  0  0  0  0  0  0
  -28.3077  -19.5381   22.0641 C   0  0  0  0  0  0  0  0  0  0  0  0
  -28.3325  -25.9941   26.1831 C   0  0  0  0  0  0  0  0  0  0  0  0
  -18.2815  -26.4294   22.9060 C   0  0  0  0  0  0  0  0  0  0  0  0
  -27.9654  -19.7202   24.4640 C   0  0  0  0  0  0  0  0  0  0  0  0
  -17.4751  -24.2254   23.0265 C   0  0  0  0  0  0  0  0  0  0  0  0
  -17.9968  -21.4889   23.1735 C   0  0  0  0  0  0  0  0  0  0  0  0
  -18.1943  -23.5970   22.0100 C   0  0  0  0  0  0  0  0  0  0  0  0
  -21.5941  -29.0564   22.7539 C   0  0  0  0  0  0  0  0  0  0  0  0
  -28.8443  -26.2489   23.9302 C   0  0  0  0  0  0  0  0  0  0  0  0
  -28.7030  -24.7111   25.8446 C   0  0  0  0  0  0  0  0  0  0  0  0
  -22.9937  -30.7207   23.0800 C   0  0  0  0  0  0  0  0  0  0  0  0
  -27.6654  -22.8620   26.6985 C   0  0  0  0  0  0  0  0  0  0  0  0
  -20.9037  -30.8686   24.4433 C   0  0  0  0  0  0  0  0  0  0  0  0
  -29.0131  -17.0240   19.8709 C   0  0  0  0  0  0  0  0  0  0  0  0
  -29.0143  -19.8732   18.3202 C   0  0  0  0  0  0  0  0  0  0  0  0
  -28.7017  -23.2670   18.4951 C   0  0  0  0  0  0  0  0  0  0  0  0
  -27.8472  -28.0561   20.8009 C   0  0  0  0  0  0  0  0  0  0  0  0
  -28.5739  -12.0921   18.6297 C   0  0  0  0  0  0  0  0  0  0  0  0
  -26.8436  -18.0314   20.6673 C   0  0  0  0  0  0  0  0  0  0  0  0
  -29.0783  -19.9602   20.8408 C   0  0  0  0  0  0  0  0  0  0  0  0
  -29.0362  -13.3603   17.9169 C   0  0  0  0  0  0  0  0  0  0  0  0
  -25.9653  -30.6967   19.3304 C   0  0  0  0  0  0  0  0  0  0  0  0
  -30.0265  -14.1299   18.7851 C   0  0  0  0  0  0  0  0  0  0  0  0
  -24.6475  -30.6832   20.1070 C   0  0  0  0  0  0  0  0  0  0  0  0
  -26.5093  -29.2858   19.1173 C   0  0  0  0  0  0  0  0  0  0  0  0
  -25.3332  -28.4709   21.1239 C   0  0  0  0  0  0  0  0  0  0  0  0
  -29.3773  -14.5735   20.1016 C   0  0  1  0  0  0  0  0  0  0  0  0
  -27.9579  -18.0652   19.6259 C   0  0  1  0  0  0  0  0  0  0  0  0
  -24.7740  -29.8746   21.4121 C   0  0  2  0  0  0  0  0  0  0  0  0
  -27.8971  -26.4121   27.5377 C   0  0  0  0  0  0  0  0  0  0  0  0
  -28.7897  -25.3295   17.0683 C   0  0  0  0  0  0  0  0  0  0  0  0
  -32.0593  -19.6918   18.2500 C   0  0  0  0  0  0  0  0  0  0  0  0
  -32.1226  -22.1341   17.7029 C   0  0  0  0  0  0  0  0  0  0  0  0
  -31.0156  -20.5359   16.1399 C   0  0  0  0  0  0  0  0  0  0  0  0
  -25.8946  -23.9625   19.1240 C   0  0  0  0  0  0  0  0  0  0  0  0
  -29.0546  -26.8204   22.5825 C   0  0  0  0  0  0  0  0  0  0  0  0
  -27.5999  -21.6040   27.5224 C   0  0  0  0  0  0  0  0  0  0  0  0
  -27.2784  -20.4155   26.6321 C   0  0  0  0  0  0  0  0  0  1  0  0
  -29.8960  -21.0985   18.3357 C   0  0  1  0  0  0  0  0  0  0  0  0
  -27.8988  -24.2490   17.6611 C   0  0  2  0  0  0  0  0  0  0  0  0
  -31.2603  -20.8559   17.6307 C   0  0  0  0  0  0  0  0  0  0  0  0
  -22.6241  -28.7905   21.9462 N   0  0  0  0  0  0  0  0  0  0  0  0
  -28.7499  -23.5649   26.6557 N   0  0  0  0  0  0  0  0  0  0  0  0
  -23.4586  -29.8206   22.1669 N   0  0  0  0  0  0  0  0  0  0  0  0
  -28.6401  -19.3597   19.5700 N   0  0  0  0  0  0  0  0  0  0  0  0
  -26.6064  -28.5733   20.3936 N   0  0  0  0  0  0  0  0  0  0  0  0
  -23.7068  -31.8154   23.4198 N   0  0  0  0  0  0  0  0  0  0  0  0
  -19.6833  -30.2480   24.7427 N   0  0  0  0  0  0  0  0  0  0  0  0
  -28.5327  -15.7285   19.8846 N   0  0  0  0  0  0  0  0  0  0  0  0
  -29.1057  -22.1774   17.7529 N   0  0  0  0  0  0  0  0  0  0  0  0
  -27.8528  -27.4006   22.0260 N   0  0  0  0  0  0  0  0  0  0  0  0
  -26.8552  -24.9067   18.4974 N   0  3  0  0  0  0  0  0  0  0  0  0
  -21.1960  -31.9513   25.0054 O   0  0  0  0  0  0  0  0  0  0  0  0
  -30.1773  -17.3703   20.0339 O   0  0  0  0  0  0  0  0  0  0  0  0
  -28.6644  -19.3936   17.2388 O   0  0  0  0  0  0  0  0  0  0  0  0
  -28.9492  -23.4502   19.6850 O   0  0  0  0  0  0  0  0  0  0  0  0
  -28.8751  -28.1747   20.1254 O   0  0  0  0  0  0  0  0  0  0  0  0
  -17.2160  -25.5839   22.9554 O   0  0  0  0  0  0  0  0  0  0  0  0
  -28.3152  -20.2572   25.6644 O   0  0  0  0  0  0  0  0  0  1  0  0
  -18.2486  -20.1752   23.2449 F   0  0  0  0  0  0  0  0  0  0  0  0
  -18.6383  -24.3027   20.9608 F   0  0  0  0  0  0  0  0  0  0  0  0
  -29.1474  -24.5846   24.1958 S   0  0  0  0  0  0  0  0  0  0  0  0
  1  2  1  0  0  0  0
  1  5  2  0  0  0  0
  2  6  2  0  0  0  0
  3  8  2  0  0  0  0
  3 16  1  0  0  0  0
  4  9  1  0  0  0  0
  4 16  2  0  0  0  0
  5 18  1  0  0  0  0
  6 20  1  0  0  0  0
  7 10  2  0  0  0  0
  7 19  1  0  0  0  0
  8 23  1  0  0  0  0
  9 23  2  0  0  0  0
 10 24  1  0  0  0  0
 11 12  2  0  0  0  0
 11 25  1  0  0  0  0
 12 26  1  0  0  0  0
 13 21  1  0  0  0  0
 13 24  2  0  0  0  0
 14 22  1  0  0  0  0
 14 29  2  0  0  0  0
 15 26  2  0  0  0  0
 15 27  1  0  0  0  0
 16 28  1  0  0  0  0
 17 28  1  0  0  0  0
 17 31  2  0  0  0  0
 17 33  1  0  0  0  0
 18 20  2  0  0  0  0
 18 38  1  0  0  0  0
 19 21  2  0  0  0  0
 19 39  1  0  0  0  0
 20 47  1  0  0  0  0
 21 40  1  0  0  0  0
 22 30  2  0  0  0  0
 22 50  1  0  0  0  0
 23 78  1  0  0  0  0
 24 79  1  0  0  0  0
 25 27  2  0  0  0  0
 25 78  1  0  0  0  0
 26 80  1  0  0  0  0
 27 81  1  0  0  0  0
 28 62  2  0  0  0  0
 29 56  1  0  0  0  0
 29 82  1  0  0  0  0
 30 63  1  0  0  0  0
 30 82  1  0  0  0  0
 31 64  1  0  0  0  0
 31 67  1  0  0  0  0
 32 57  1  0  0  0  0
 32 63  2  0  0  0  0
 33 68  1  0  0  0  0
 33 73  2  0  0  0  0
 34 48  1  0  0  0  0
 34 69  1  0  0  0  0
 34 74  2  0  0  0  0
 35 59  1  0  0  0  0
 35 65  1  0  0  0  0
 35 75  2  0  0  0  0
 36 60  1  0  0  0  0
 36 70  1  0  0  0  0
 36 76  2  0  0  0  0
 37 66  1  0  0  0  0
 37 71  1  0  0  0  0
 37 77  2  0  0  0  0
 38 41  1  0  0  0  0
 39 48  1  0  0  0  0
 40 65  1  0  0  0  0
 41 43  1  0  0  0  0
 42 44  1  0  0  0  0
 42 45  1  0  0  0  0
 43 47  1  0  0  0  0
 44 49  1  0  0  0  0
 45 66  1  0  0  0  0
 46 49  1  0  0  0  0
 46 66  1  0  0  0  0
 47 69  1  0  0  0  0
 48 65  1  0  0  0  0
 49 64  1  0  0  0  0
 51 60  1  0  0  0  0
 52 61  1  0  0  0  0
 53 61  1  0  0  0  0
 54 61  1  0  0  0  0
 55 72  1  0  0  0  0
 56 71  1  0  0  0  0
 57 58  1  0  0  0  0
 58 79  1  0  0  0  0
 59 61  1  0  0  0  0
 59 70  1  0  0  0  0
 60 72  1  0  0  0  0
 62 64  1  0  0  0  0
M  CHG  1  72   1
M  ISO  4  37 100  58 101  71 100  79 101
M  END
> <Batch ID>
0111

> <Smiles>
CNC(C)C(=O)NC(C(=O)N1Cc2cc([101O:1][101CH2:1]C=CNc3sc(C[100NH:0][100C:0](=O)N4CCCC(n5nc(-c6ccc(Oc7ccc(F)cc7F)cc6)c(C(N)=O)c5N)C4)cc3C)ccc2CC1C(=O)NC1CCCc2ccccc21)C(C)(C)C

> <Shape>
0.222

> <Color>
0.080

> <Negative vol penalty>
0.000

$$$$

  -OEChem-04052301283D

 90 99  0     1  0  0  0  0  0999 V2000
  -34.6284  -27.4702   23.3620 C   0  0  0  0  0  0  0  0  0  0  0  0
  -34.5256  -26.0871   23.2527 C   0  0  0  0  0  0  0  0  0  0  0  0
  -23.0839   -9.8473   19.9580 C   0  0  0  0  0  0  0  0  0  0  0  0
  -23.8313   -9.8901   22.2550 C   0  0  0  0  0  0  0  0  0  0  0  0
  -33.5712  -28.2812   22.9513 C   0  0  0  0  0  0  0  0  0  0  0  0
  -33.3651  -25.5142   22.7337 C   0  0  0  0  0  0  0  0  0  0  0  0
  -34.3411  -21.8332   19.3956 C   0  0  0  0  0  0  0  0  0  0  0  0
  -22.3429   -8.6951   20.2205 C   0  0  0  0  0  0  0  0  0  0  0  0
  -23.0903   -8.7378   22.5176 C   0  0  0  0  0  0  0  0  0  0  0  0
  -34.7161  -20.5920   19.9080 C   0  0  0  0  0  0  0  0  0  0  0  0
  -19.3898   -7.9083   21.6672 C   0  0  0  0  0  0  0  0  0  0  0  0
  -18.0858   -7.8502   21.1757 C   0  0  0  0  0  0  0  0  0  0  0  0
  -32.4665  -19.7844   19.5818 C   0  0  0  0  0  0  0  0  0  0  0  0
  -32.0341  -16.6400   22.4998 C   0  0  0  0  0  0  0  0  0  0  0  0
  -18.6598   -5.8905   19.8845 C   0  0  0  0  0  0  0  0  0  0  0  0
  -23.8281  -10.4448   20.9752 C   0  0  0  0  0  0  0  0  0  0  0  0
  -29.8631  -17.5175   23.0943 C   0  0  0  0  0  0  0  0  0  0  0  0
  -24.1613  -12.9692   20.8208 C   0  0  0  0  0  0  0  0  0  0  0  0
  -32.4010  -27.7183   22.4180 C   0  0  0  0  0  0  0  0  0  0  0  0
  -33.0211  -22.0631   18.9819 C   0  0  0  0  0  0  0  0  0  0  0  0
  -32.2908  -26.3183   22.3167 C   0  0  0  0  0  0  0  0  0  0  0  0
  -32.0780  -21.0286   19.0621 C   0  0  0  0  0  0  0  0  0  0  0  0
  -32.6372  -17.5297   23.3888 C   0  0  0  0  0  0  0  0  0  0  0  0
  -30.6470  -16.6339   22.3525 C   0  0  0  0  0  0  0  0  0  0  0  0
  -30.4661  -18.4072   23.9834 C   0  0  0  0  0  0  0  0  0  0  0  0
  -22.3461   -8.1404   21.5003 C   0  0  0  0  0  0  0  0  0  0  0  0
  -33.7781  -19.5682   20.0039 C   0  0  0  0  0  0  0  0  0  0  0  0
  -20.3289   -6.9576   21.2674 C   0  0  0  0  0  0  0  0  0  0  0  0
  -31.8532  -18.4132   24.1306 C   0  0  0  0  0  0  0  0  0  0  0  0
  -17.7207   -6.8413   20.2844 C   0  0  0  0  0  0  0  0  0  0  0  0
  -19.9639   -5.9486   20.3761 C   0  0  0  0  0  0  0  0  0  0  0  0
  -24.5942  -11.6347   20.7045 C   0  0  0  0  0  0  0  0  0  0  0  0
  -25.2526  -13.7175   20.4526 C   0  0  0  0  0  0  0  0  0  0  0  0
  -34.7876  -17.8543   24.6923 C   0  0  0  0  0  0  0  0  0  0  0  0
  -28.4101  -17.5128   22.9377 C   0  0  0  0  0  0  0  0  0  0  0  0
  -22.8867  -13.4862   21.2254 C   0  0  0  0  0  0  0  0  0  0  0  0
  -30.6990  -24.0369   19.8848 C   0  0  0  0  0  0  0  0  0  0  0  0
  -29.1691  -22.7893   17.3108 C   0  0  0  0  0  0  0  0  0  0  0  0
  -28.8298  -20.1962   15.1183 C   0  0  0  0  0  0  0  0  0  0  0  0
  -30.7139  -14.7861   20.6416 C   0  0  0  0  0  0  0  0  0  0  0  0
  -31.2662  -28.6334   22.0314 C   0  0  0  0  0  0  0  0  0  0  0  0
  -32.6391  -23.3993   18.4065 C   0  0  0  0  0  0  0  0  0  0  0  0
  -30.6530  -21.2181   18.6127 C   0  0  0  0  0  0  0  0  0  0  0  0
  -36.2553  -17.6835   24.3790 C   0  0  0  0  0  0  0  0  0  0  0  0
  -30.2193  -27.9644   21.1444 C   0  0  0  0  0  0  0  0  0  0  0  0
  -36.2529  -16.7929   23.1511 C   0  0  0  0  0  0  0  0  0  0  0  0
  -29.6212  -12.3343   18.3023 C   0  0  0  0  0  0  0  0  0  0  0  0
  -29.8431  -26.5955   21.7023 C   0  0  0  0  0  0  0  0  0  0  0  0
  -28.1804  -12.0435   18.7283 C   0  0  0  0  0  0  0  0  0  0  0  0
  -30.5290  -12.5838   19.5054 C   0  0  0  0  0  0  0  0  0  0  0  0
  -28.6119  -13.3208   20.8659 C   0  0  0  0  0  0  0  0  0  0  0  0
  -31.0580  -25.6604   21.7358 C   0  0  1  0  0  0  0  0  0  0  0  0
  -31.1424  -23.6815   18.4939 C   0  0  1  0  0  0  0  0  0  0  0  0
  -27.6461  -13.1270   19.6855 C   0  0  2  0  0  0  0  0  0  0  0  0
  -34.9618  -17.1697   22.4331 C   0  0  2  0  0  0  0  0  0  0  0  0
  -27.4688  -19.4486   13.1469 C   0  0  0  0  0  0  0  0  0  0  0  0
  -26.8416  -22.1305   19.1706 C   0  0  0  0  0  0  0  0  0  0  0  0
  -25.9638  -20.5824   17.4097 C   0  0  0  0  0  0  0  0  0  0  0  0
  -26.1689  -23.0223   16.9330 C   0  0  0  0  0  0  0  0  0  0  0  0
  -31.2158  -20.0696   13.3719 C   0  0  0  0  0  0  0  0  0  0  0  0
  -32.8189  -20.5582   24.4806 C   0  0  0  0  0  0  0  0  0  0  0  0
  -35.1878  -18.3408   21.4743 C   0  0  0  0  0  0  0  0  0  1  0  0
  -28.2593  -21.6075   17.0771 C   0  0  1  0  0  0  0  0  0  0  0  0
  -28.7306  -20.1640   13.6038 C   0  0  2  0  0  0  0  0  0  0  0  0
  -26.8347  -21.8324   17.6580 C   0  0  0  0  0  0  0  0  0  0  0  0
  -25.8617  -11.5377   20.2944 N   0  0  0  0  0  0  0  0  0  0  0  0
  -26.2345  -12.8207   20.1497 N   0  0  0  0  0  0  0  0  0  0  0  0
  -34.0624  -17.5214   23.5285 N   0  0  0  0  0  0  0  0  0  0  0  0
  -30.3267  -22.5443   18.0631 N   0  0  0  0  0  0  0  0  0  0  0  0
  -29.9615  -13.6250   20.3649 N   0  0  0  0  0  0  0  0  0  0  0  0
  -29.6779  -19.3078   24.7384 N   0  0  0  0  0  0  0  0  0  0  0  0
  -25.4585  -15.0486   20.3616 N   0  0  0  0  0  0  0  0  0  0  0  0
  -27.8674  -18.3486   21.9707 N   0  0  0  0  0  0  0  0  0  0  0  0
  -21.8763  -12.5782   21.5703 N   0  0  0  0  0  0  0  0  0  0  0  0
  -30.0587  -15.7203   21.4431 N   0  0  0  0  0  0  0  0  0  0  0  0
  -31.3352  -25.1443   20.4125 N   0  0  0  0  0  0  0  0  0  0  0  0
  -28.2854  -21.3500   15.6413 N   0  0  0  0  0  0  0  0  0  0  0  0
  -29.9076  -19.4584   13.0225 N   0  3  0  0  0  0  0  0  0  0  0  0
  -34.3965  -18.2467   25.7822 O   0  0  0  0  0  0  0  0  0  0  0  0
  -27.6903  -16.8014   23.6540 O   0  0  0  0  0  0  0  0  0  0  0  0
  -22.6456  -14.7166   21.2638 O   0  0  0  0  0  0  0  0  0  0  0  0
  -29.8420  -23.3576   20.4378 O   0  0  0  0  0  0  0  0  0  0  0  0
  -28.8676  -23.8876   16.8372 O   0  0  0  0  0  0  0  0  0  0  0  0
  -29.3359  -19.2869   15.7721 O   0  0  0  0  0  0  0  0  0  0  0  0
  -31.8449  -14.9523   20.1776 O   0  0  0  0  0  0  0  0  0  0  0  0
  -21.6230   -7.0162   21.7569 O   0  0  0  0  0  0  0  0  0  0  0  0
  -32.4459  -19.2845   24.9990 O   0  0  0  0  0  0  0  0  0  0  0  0
  -34.1413  -18.3560   20.5043 O   0  0  0  0  0  0  0  0  0  1  0  0
  -16.4680   -6.7847   19.8137 F   0  0  0  0  0  0  0  0  0  0  0  0
  -20.8613   -5.0317   19.9892 F   0  0  0  0  0  0  0  0  0  0  0  0
  1  2  1  0  0  0  0
  1  5  2  0  0  0  0
  2  6  2  0  0  0  0
  3  8  2  0  0  0  0
  3 16  1  0  0  0  0
  4  9  1  0  0  0  0
  4 16  2  0  0  0  0
  5 19  1  0  0  0  0
  6 21  1  0  0  0  0
  7 10  2  0  0  0  0
  7 20  1  0  0  0  0
  8 26  1  0  0  0  0
  9 26  2  0  0  0  0
 10 27  1  0  0  0  0
 11 12  2  0  0  0  0
 11 28  1  0  0  0  0
 12 30  1  0  0  0  0
 13 22  1  0  0  0  0
 13 27  2  0  0  0  0
 14 23  1  0  0  0  0
 14 24  2  0  0  0  0
 15 30  2  0  0  0  0
 15 31  1  0  0  0  0
 16 32  1  0  0  0  0
 17 24  1  0  0  0  0
 17 25  2  0  0  0  0
 17 35  1  0  0  0  0
 18 32  1  0  0  0  0
 18 33  2  0  0  0  0
 18 36  1  0  0  0  0
 19 21  2  0  0  0  0
 19 41  1  0  0  0  0
 20 22  2  0  0  0  0
 20 42  1  0  0  0  0
 21 52  1  0  0  0  0
 22 43  1  0  0  0  0
 23 29  2  0  0  0  0
 23 68  1  0  0  0  0
 24 75  1  0  0  0  0
 25 29  1  0  0  0  0
 25 71  1  0  0  0  0
 26 86  1  0  0  0  0
 27 88  1  0  0  0  0
 28 31  2  0  0  0  0
 28 86  1  0  0  0  0
 29 87  1  0  0  0  0
 30 89  1  0  0  0  0
 31 90  1  0  0  0  0
 32 66  2  0  0  0  0
 33 67  1  0  0  0  0
 33 72  1  0  0  0  0
 34 44  1  0  0  0  0
 34 68  1  0  0  0  0
 34 79  2  0  0  0  0
 35 73  1  0  0  0  0
 35 80  2  0  0  0  0
 36 74  1  0  0  0  0
 36 81  2  0  0  0  0
 37 53  1  0  0  0  0
 37 76  1  0  0  0  0
 37 82  2  0  0  0  0
 38 63  1  0  0  0  0
 38 69  1  0  0  0  0
 38 83  2  0  0  0  0
 39 64  1  0  0  0  0
 39 77  1  0  0  0  0
 39 84  2  0  0  0  0
 40 70  1  0  0  0  0
 40 75  1  0  0  0  0
 40 85  2  0  0  0  0
 41 45  1  0  0  0  0
 42 53  1  0  0  0  0
 43 69  1  0  0  0  0
 44 46  1  0  0  0  0
 45 48  1  0  0  0  0
 46 55  1  0  0  0  0
 47 49  1  0  0  0  0
 47 50  1  0  0  0  0
 48 52  1  0  0  0  0
 49 54  1  0  0  0  0
 50 70  1  0  0  0  0
 51 54  1  0  0  0  0
 51 70  1  0  0  0  0
 52 76  1  0  0  0  0
 53 69  1  0  0  0  0
 54 67  1  0  0  0  0
 55 62  1  0  0  0  0
 55 68  1  0  0  0  0
 56 64  1  0  0  0  0
 57 65  1  0  0  0  0
 58 65  1  0  0  0  0
 59 65  1  0  0  0  0
 60 78  1  0  0  0  0
 61 87  1  0  0  0  0
 62 88  1  0  0  0  0
 63 65  1  0  0  0  0
 63 77  1  0  0  0  0
 64 78  1  0  0  0  0
 66 67  1  0  0  0  0
M  CHG  1  78   1
M  ISO  4  40 100  62 101  75 100  88 101
M  END
> <Batch ID>
0111

> <Smiles>
CNC(C)C(=O)NC(C(=O)N1Cc2cc([101O:1][101CH2:1]C3CCC(=O)N3c3cc([100NH:0][100C:0](=O)N4CCCC(n5nc(-c6ccc(Oc7ccc(F)cc7F)cc6)c(C(N)=O)c5N)C4)c(C(N)=O)c(N)c3OC)ccc2CC1C(=O)NC1CCCc2ccccc21)C(C)(C)C

> <Shape>
0.199

> <Color>
0.174

> <Negative vol penalty>
0.000

$$$$

  -OEChem-04052301283D

 84 92  0     1  0  0  0  0  0999 V2000
  -30.3099  -36.5375   21.5105 C   0  0  0  0  0  0  0  0  0  0  0  0
  -30.1872  -35.4703   20.6265 C   0  0  0  0  0  0  0  0  0  0  0  0
  -22.9736  -10.6218   19.0668 C   0  0  0  0  0  0  0  0  0  0  0  0
  -23.6378   -9.2655   20.9527 C   0  0  0  0  0  0  0  0  0  0  0  0
  -29.9318  -36.3838   22.8437 C   0  0  0  0  0  0  0  0  0  0  0  0
  -29.6873  -34.2484   21.0755 C   0  0  0  0  0  0  0  0  0  0  0  0
  -25.8141  -28.6461   18.8555 C   0  0  0  0  0  0  0  0  0  0  0  0
  -22.1379   -9.5967   18.6239 C   0  0  0  0  0  0  0  0  0  0  0  0
  -22.8020   -8.2403   20.5097 C   0  0  0  0  0  0  0  0  0  0  0  0
  -25.8708  -27.2544   18.7931 C   0  0  0  0  0  0  0  0  0  0  0  0
  -20.5695   -5.4044   20.0720 C   0  0  0  0  0  0  0  0  0  0  0  0
  -19.7650   -4.7685   21.0174 C   0  0  0  0  0  0  0  0  0  0  0  0
  -25.1751  -27.1287   21.0995 C   0  0  0  0  0  0  0  0  0  0  0  0
  -18.6962   -6.8750   21.5248 C   0  0  0  0  0  0  0  0  0  0  0  0
  -23.7236  -10.4562   20.2312 C   0  0  0  0  0  0  0  0  0  0  0  0
  -24.2537  -12.5663   21.5632 C   0  0  0  0  0  0  0  0  0  0  0  0
  -29.4180  -35.1624   23.3070 C   0  0  0  0  0  0  0  0  0  0  0  0
  -25.4474  -29.2908   20.0456 C   0  0  0  0  0  0  0  0  0  0  0  0
  -29.3033  -34.0779   22.4164 C   0  0  0  0  0  0  0  0  0  0  0  0
  -25.1120  -28.5286   21.1737 C   0  0  0  0  0  0  0  0  0  0  0  0
  -28.2132  -20.3449   20.5782 C   0  0  0  0  0  0  0  0  0  0  0  0
  -22.0520   -8.4059   19.3453 C   0  0  0  0  0  0  0  0  0  0  0  0
  -25.5540  -26.4956   19.9160 C   0  0  0  0  0  0  0  0  0  0  0  0
  -20.4375   -6.7757   19.8530 C   0  0  0  0  0  0  0  0  0  0  0  0
  -18.8283   -5.5037   21.7438 C   0  0  0  0  0  0  0  0  0  0  0  0
  -19.5008   -7.5109   20.5794 C   0  0  0  0  0  0  0  0  0  0  0  0
  -24.5876  -11.5146   20.6890 C   0  0  0  0  0  0  0  0  0  0  0  0
  -28.1712  -18.9616   20.3204 C   0  0  0  0  0  0  0  0  0  0  0  0
  -26.8998  -20.6986   20.7691 C   0  0  0  0  0  0  0  0  0  0  0  0
  -25.4116  -13.2956   21.6809 C   0  0  0  0  0  0  0  0  0  0  0  0
  -26.2154  -21.9664   21.0733 C   0  0  0  0  0  0  0  0  0  0  0  0
  -26.6524  -23.1857   20.7218 C   0  0  0  0  0  0  0  0  0  0  0  0
  -23.0083  -12.8579   22.2110 C   0  0  0  0  0  0  0  0  0  0  0  0
  -29.3124  -18.0526   20.0408 C   0  0  0  0  0  0  0  0  0  0  0  0
  -26.8812  -31.3137   22.0345 C   0  0  0  0  0  0  0  0  0  0  0  0
  -23.9637  -31.3787   23.4511 C   0  0  0  0  0  0  0  0  0  0  0  0
  -20.9818  -29.8179   24.0156 C   0  0  0  0  0  0  0  0  0  0  0  0
  -29.8948  -15.7099   19.4967 C   0  0  0  0  0  0  0  0  0  0  0  0
  -29.0670  -35.0298   24.7678 C   0  0  0  0  0  0  0  0  0  0  0  0
  -25.3653  -30.7921   20.0888 C   0  0  0  0  0  0  0  0  0  0  0  0
  -24.6927  -29.1718   22.4694 C   0  0  0  0  0  0  0  0  0  0  0  0
  -28.1957  -33.8151   25.0770 C   0  0  0  0  0  0  0  0  0  0  0  0
  -30.1343  -12.2495   20.1789 C   0  0  0  0  0  0  0  0  0  0  0  0
  -28.7461  -32.5729   24.3837 C   0  0  0  0  0  0  0  0  0  0  0  0
  -28.6862  -11.8344   20.4529 C   0  0  0  0  0  0  0  0  0  0  0  0
  -30.2248  -13.2912   19.0646 C   0  0  0  0  0  0  0  0  0  0  0  0
  -27.9296  -14.0561   19.5171 C   0  0  0  0  0  0  0  0  0  0  0  0
  -28.7422  -32.7442   22.8599 C   0  0  1  0  0  0  0  0  0  0  0  0
  -25.4769  -31.3562   21.5019 C   0  0  1  0  0  0  0  0  0  0  0  0
  -27.7793  -13.0608   20.6790 C   0  0  1  0  0  0  0  0  0  0  0  0
  -29.3985  -21.2193   20.6320 C   0  0  0  0  0  0  0  0  0  0  0  0
  -24.2730  -19.3727   22.1690 C   0  0  0  0  0  0  0  0  0  0  0  0
  -18.8121  -30.1003   25.2445 C   0  0  0  0  0  0  0  0  0  0  0  0
  -25.3589  -30.6728   26.0713 C   0  0  0  0  0  0  0  0  0  0  0  0
  -23.1249  -30.0439   27.0105 C   0  0  0  0  0  0  0  0  0  0  0  0
  -23.5532  -32.3905   26.2806 C   0  0  0  0  0  0  0  0  0  0  0  0
  -19.4172  -29.7540   21.5042 C   0  0  0  0  0  0  0  0  0  0  0  0
  -25.9285  -24.4479   21.0660 C   0  0  0  0  0  0  0  0  0  1  0  0
  -24.7457  -19.3870   20.7255 C   0  0  0  0  0  0  0  0  0  0  0  0
  -23.2845  -30.5796   24.5369 C   0  0  1  0  0  0  0  0  0  0  0  0
  -19.5512  -30.3190   23.9335 C   0  0  2  0  0  0  0  0  0  0  0  0
  -23.8401  -30.9093   25.9511 C   0  0  0  0  0  0  0  0  0  0  0  0
  -25.8580  -11.5675   20.2802 N   0  0  0  0  0  0  0  0  0  0  0  0
  -26.9295  -18.4699   20.3449 N   0  0  0  0  0  0  0  0  0  0  0  0
  -26.1791  -19.5503   20.6203 N   0  0  0  0  0  0  0  0  0  0  0  0
  -26.3327  -12.6613   20.9002 N   0  0  0  0  0  0  0  0  0  0  0  0
  -24.6337  -30.6429   22.4634 N   0  0  0  0  0  0  0  0  0  0  0  0
  -29.3447  -14.4235   19.3587 N   0  0  0  0  0  0  0  0  0  0  0  0
  -25.7216  -14.4112   22.3750 N   0  0  0  0  0  0  0  0  0  0  0  0
  -21.9197  -12.0057   21.9805 N   0  0  0  0  0  0  0  0  0  0  0  0
  -28.9779  -16.7164   19.8196 N   0  0  0  0  0  0  0  0  0  0  0  0
  -27.4073  -32.5560   22.3335 N   0  0  0  0  0  0  0  0  0  0  0  0
  -21.8534  -30.8200   24.3861 N   0  0  0  0  0  0  0  0  0  0  0  0
  -18.8134  -29.6050   22.8533 N   0  3  0  0  0  0  0  0  0  0  0  0
  -22.8605  -13.8542   22.9587 O   0  0  0  0  0  0  0  0  0  0  0  0
  -30.4472  -18.5181   19.9818 O   0  0  0  0  0  0  0  0  0  0  0  0
  -27.4451  -30.2337   22.1660 O   0  0  0  0  0  0  0  0  0  0  0  0
  -23.8961  -32.6102   23.4743 O   0  0  0  0  0  0  0  0  0  0  0  0
  -21.2942  -28.6531   23.7785 O   0  0  0  0  0  0  0  0  0  0  0  0
  -31.1032  -15.9367   19.3803 O   0  0  0  0  0  0  0  0  0  0  0  0
  -21.2365   -7.4055   18.9135 O   0  0  0  0  0  0  0  0  0  0  0  0
  -25.6091  -25.1371   19.8580 O   0  0  0  0  0  0  0  0  0  1  0  0
  -18.0546   -4.8926   22.6505 F   0  0  0  0  0  0  0  0  0  0  0  0
  -19.3685   -8.8283   20.3726 F   0  0  0  0  0  0  0  0  0  0  0  0
  1  2  1  0  0  0  0
  1  5  2  0  0  0  0
  2  6  2  0  0  0  0
  3  8  2  0  0  0  0
  3 15  1  0  0  0  0
  4  9  1  0  0  0  0
  4 15  2  0  0  0  0
  5 17  1  0  0  0  0
  6 19  1  0  0  0  0
  7 10  2  0  0  0  0
  7 18  1  0  0  0  0
  8 22  1  0  0  0  0
  9 22  2  0  0  0  0
 10 23  1  0  0  0  0
 11 12  2  0  0  0  0
 11 24  1  0  0  0  0
 12 25  1  0  0  0  0
 13 20  1  0  0  0  0
 13 23  2  0  0  0  0
 14 25  2  0  0  0  0
 14 26  1  0  0  0  0
 15 27  1  0  0  0  0
 16 27  1  0  0  0  0
 16 30  2  0  0  0  0
 16 33  1  0  0  0  0
 17 19  2  0  0  0  0
 17 39  1  0  0  0  0
 18 20  2  0  0  0  0
 18 40  1  0  0  0  0
 19 48  1  0  0  0  0
 20 41  1  0  0  0  0
 21 28  1  0  0  0  0
 21 29  2  0  0  0  0
 21 51  1  0  0  0  0
 22 81  1  0  0  0  0
 23 82  1  0  0  0  0
 24 26  2  0  0  0  0
 24 81  1  0  0  0  0
 25 83  1  0  0  0  0
 26 84  1  0  0  0  0
 27 63  2  0  0  0  0
 28 34  1  0  0  0  0
 28 64  2  0  0  0  0
 29 31  1  0  0  0  0
 29 65  1  0  0  0  0
 30 66  1  0  0  0  0
 30 69  1  0  0  0  0
 31 32  2  0  0  0  0
 32 58  1  0  0  0  0
 33 70  1  0  0  0  0
 33 75  2  0  0  0  0
 34 71  1  0  0  0  0
 34 76  2  0  0  0  0
 35 49  1  0  0  0  0
 35 72  1  0  0  0  0
 35 77  2  0  0  0  0
 36 60  1  0  0  0  0
 36 67  1  0  0  0  0
 36 78  2  0  0  0  0
 37 61  1  0  0  0  0
 37 73  1  0  0  0  0
 37 79  2  0  0  0  0
 38 68  1  0  0  0  0
 38 71  1  0  0  0  0
 38 80  2  0  0  0  0
 39 42  1  0  0  0  0
 40 49  1  0  0  0  0
 41 67  1  0  0  0  0
 42 44  1  0  0  0  0
 43 45  1  0  0  0  0
 43 46  1  0  0  0  0
 44 48  1  0  0  0  0
 45 50  1  0  0  0  0
 46 68  1  0  0  0  0
 47 50  1  0  0  0  0
 47 68  1  0  0  0  0
 48 72  1  0  0  0  0
 49 67  1  0  0  0  0
 50 66  1  0  0  0  0
 52 59  1  0  0  0  0
 53 61  1  0  0  0  0
 54 62  1  0  0  0  0
 55 62  1  0  0  0  0
 56 62  1  0  0  0  0
 57 74  1  0  0  0  0
 58 82  1  0  0  0  0
 59 65  1  0  0  0  0
 60 62  1  0  0  0  0
 60 73  1  0  0  0  0
 61 74  1  0  0  0  0
 63 66  1  0  0  0  0
 64 65  1  0  0  0  0
M  CHG  1  74   1
M  ISO  4  38 100  58 101  71 100  82 101
M  END
> <Batch ID>
0111

> <Smiles>
CCn1nc(C(=O)[100NH:0][100C:0](=O)N2CCCC(n3nc(-c4ccc(Oc5ccc(F)cc5F)cc4)c(C(N)=O)c3N)C2)c(C)c1C=C[101CH2:1][101O:1]c1ccc2c(c1)CN(C(=O)C(NC(=O)C(C)NC)C(C)(C)C)C(C(=O)NC1CCCc3ccccc31)C2

> <Shape>
0.268

> <Color>
0.116

> <Negative vol penalty>
0.000

$$$$

  -OEChem-04052301283D

 85 93  0     1  0  0  0  0  0999 V2000
  -27.4764  -36.9968   24.1659 C   0  0  0  0  0  0  0  0  0  0  0  0
  -27.9219  -35.6877   24.0134 C   0  0  0  0  0  0  0  0  0  0  0  0
  -24.2100   -9.5932   20.9559 C   0  0  0  0  0  0  0  0  0  0  0  0
  -24.8092  -10.3792   23.1604 C   0  0  0  0  0  0  0  0  0  0  0  0
  -26.1114  -37.2592   24.2748 C   0  0  0  0  0  0  0  0  0  0  0  0
  -27.0026  -34.6401   23.9710 C   0  0  0  0  0  0  0  0  0  0  0  0
  -27.4262  -29.5023   20.6650 C   0  0  0  0  0  0  0  0  0  0  0  0
  -23.8489   -8.3582   21.4943 C   0  0  0  0  0  0  0  0  0  0  0  0
  -24.4481   -9.1442   23.6989 C   0  0  0  0  0  0  0  0  0  0  0  0
  -27.8409  -28.2109   20.9876 C   0  0  0  0  0  0  0  0  0  0  0  0
  -22.4290   -5.1197   22.3376 C   0  0  0  0  0  0  0  0  0  0  0  0
  -21.2301   -4.5506   21.9082 C   0  0  0  0  0  0  0  0  0  0  0  0
  -28.0903  -21.0143   21.7377 C   0  0  0  0  0  0  0  0  0  0  0  0
  -25.5439  -27.5708   21.3524 C   0  0  0  0  0  0  0  0  0  0  0  0
  -30.1529  -19.5984   20.5034 C   0  0  0  0  0  0  0  0  0  0  0  0
  -20.0216   -6.4716   22.7365 C   0  0  0  0  0  0  0  0  0  0  0  0
  -24.6902  -10.6037   21.7889 C   0  0  0  0  0  0  0  0  0  0  0  0
  -29.2039  -21.6934   21.2434 C   0  0  0  0  0  0  0  0  0  0  0  0
  -24.2370  -13.0051   21.0570 C   0  0  0  0  0  0  0  0  0  0  0  0
  -25.1744  -36.2152   24.2240 C   0  0  0  0  0  0  0  0  0  0  0  0
  -26.0658  -29.8411   20.6944 C   0  0  0  0  0  0  0  0  0  0  0  0
  -25.6239  -34.8886   24.0807 C   0  0  0  0  0  0  0  0  0  0  0  0
  -25.1143  -28.8665   21.0274 C   0  0  0  0  0  0  0  0  0  0  0  0
  -30.2352  -20.9855   20.6262 C   0  0  0  0  0  0  0  0  0  0  0  0
  -29.0393  -18.9193   20.9977 C   0  0  0  0  0  0  0  0  0  0  0  0
  -23.9679   -8.1337   22.8658 C   0  0  0  0  0  0  0  0  0  0  0  0
  -26.9000  -27.2457   21.3342 C   0  0  0  0  0  0  0  0  0  0  0  0
  -22.4242   -6.3647   22.9665 C   0  0  0  0  0  0  0  0  0  0  0  0
  -28.0080  -19.6272   21.6149 C   0  0  0  0  0  0  0  0  0  0  0  0
  -20.0264   -5.2266   22.1076 C   0  0  0  0  0  0  0  0  0  0  0  0
  -21.2205   -7.0407   23.1660 C   0  0  0  0  0  0  0  0  0  0  0  0
  -25.0640  -11.8795   21.2333 C   0  0  0  0  0  0  0  0  0  0  0  0
  -25.0599  -13.9514   20.4968 C   0  0  0  0  0  0  0  0  0  0  0  0
  -29.2611  -23.1576   21.3885 C   0  0  0  0  0  0  0  0  0  0  0  0
  -28.3828  -24.0229   20.8584 C   0  0  0  0  0  0  0  0  0  0  0  0
  -22.8491  -13.1796   21.3715 C   0  0  0  0  0  0  0  0  0  0  0  0
  -24.3028  -31.9021   22.3521 C   0  0  0  0  0  0  0  0  0  0  0  0
  -21.9567  -30.9131   20.3421 C   0  0  0  0  0  0  0  0  0  0  0  0
  -20.7491  -28.4842   18.2710 C   0  0  0  0  0  0  0  0  0  0  0  0
  -29.9145  -16.6696   20.2774 C   0  0  0  0  0  0  0  0  0  0  0  0
  -23.7121  -36.5434   24.3935 C   0  0  0  0  0  0  0  0  0  0  0  0
  -25.6325  -31.2314   20.3179 C   0  0  0  0  0  0  0  0  0  0  0  0
  -23.6401  -29.1740   21.0542 C   0  0  0  0  0  0  0  0  0  0  0  0
  -22.7804  -35.4134   23.9630 C   0  0  0  0  0  0  0  0  0  0  0  0
  -29.7298  -13.5411   18.5875 C   0  0  0  0  0  0  0  0  0  0  0  0
  -23.2593  -34.0810   24.5306 C   0  0  0  0  0  0  0  0  0  0  0  0
  -28.4315  -12.9225   19.1107 C   0  0  0  0  0  0  0  0  0  0  0  0
  -30.4646  -14.3222   19.6755 C   0  0  0  0  0  0  0  0  0  0  0  0
  -28.3575  -14.7160   20.8897 C   0  0  0  0  0  0  0  0  0  0  0  0
  -24.6560  -33.7277   24.0053 C   0  0  1  0  0  0  0  0  0  0  0  0
  -24.2639  -31.6036   20.8800 C   0  0  1  0  0  0  0  0  0  0  0  0
  -27.5495  -13.9734   19.8129 C   0  0  2  0  0  0  0  0  0  0  0  0
  -31.5870  -21.5036   18.5628 C   0  0  0  0  0  0  0  0  0  0  0  0
  -32.7378  -21.2384   20.7899 C   0  0  0  0  0  0  0  0  0  0  0  0
  -18.7896  -27.9461   16.7987 C   0  0  0  0  0  0  0  0  0  0  0  0
  -20.2744  -30.2943   22.8113 C   0  0  0  0  0  0  0  0  0  0  0  0
  -18.7738  -28.9149   21.3575 C   0  0  0  0  0  0  0  0  0  0  0  0
  -19.0156  -31.3609   20.9319 C   0  0  0  0  0  0  0  0  0  0  0  0
  -22.4592  -28.3101   15.8618 C   0  0  0  0  0  0  0  0  0  0  0  0
  -25.8108  -18.8101   21.2147 C   0  0  0  0  0  0  0  0  0  0  0  0
  -28.4903  -25.5052   21.0218 C   0  0  0  0  0  0  0  0  0  1  0  0
  -31.4432  -21.6804   20.0848 C   0  0  0  0  0  0  0  0  0  0  0  0
  -20.9278  -29.8085   20.3612 C   0  0  1  0  0  0  0  0  0  0  0  0
  -20.1838  -28.5500   16.8637 C   0  0  2  0  0  0  0  0  0  0  0  0
  -19.7758  -30.0891   21.3669 C   0  0  0  0  0  0  0  0  0  0  0  0
  -26.3161  -12.0896   20.8185 N   0  0  0  0  0  0  0  0  0  0  0  0
  -26.2821  -13.3581   20.3760 N   0  0  0  0  0  0  0  0  0  0  0  0
  -23.2668  -30.5492   20.6843 N   0  0  0  0  0  0  0  0  0  0  0  0
  -29.5682  -15.3018   20.2932 N   0  0  0  0  0  0  0  0  0  0  0  0
  -24.8501  -15.2247   20.1007 N   0  0  0  0  0  0  0  0  0  0  0  0
  -22.1533  -12.1055   21.9428 N   0  0  0  0  0  0  0  0  0  0  0  0
  -28.9701  -17.5103   20.8655 N   0  0  0  0  0  0  0  0  0  0  0  0
  -24.5742  -33.2236   22.6512 N   0  0  0  0  0  0  0  0  0  0  0  0
  -20.4875  -29.6370   18.9809 N   0  0  0  0  0  0  0  0  0  0  0  0
  -21.0626  -27.8065   15.9172 N   0  3  0  0  0  0  0  0  0  0  0  0
  -22.2398  -14.2508   21.1373 O   0  0  0  0  0  0  0  0  0  0  0  0
  -24.0999  -31.0006   23.1570 O   0  0  0  0  0  0  0  0  0  0  0  0
  -21.6121  -32.0551   20.0280 O   0  0  0  0  0  0  0  0  0  0  0  0
  -21.3585  -27.5065   18.6991 O   0  0  0  0  0  0  0  0  0  0  0  0
  -30.9582  -17.0687   19.7546 O   0  0  0  0  0  0  0  0  0  0  0  0
  -23.6154   -6.9287   23.3916 O   0  0  0  0  0  0  0  0  0  0  0  0
  -26.9113  -18.9824   22.1046 O   0  0  0  0  0  0  0  0  0  0  0  0
  -27.3021  -25.9846   21.6500 O   0  0  0  0  0  0  0  0  0  1  0  0
  -18.8753   -4.6807   21.6938 F   0  0  0  0  0  0  0  0  0  0  0  0
  -21.2097   -8.2376   23.7686 F   0  0  0  0  0  0  0  0  0  0  0  0
  1  2  1  0  0  0  0
  1  5  2  0  0  0  0
  2  6  2  0  0  0  0
  3  8  2  0  0  0  0
  3 17  1  0  0  0  0
  4  9  1  0  0  0  0
  4 17  2  0  0  0  0
  5 20  1  0  0  0  0
  6 22  1  0  0  0  0
  7 10  2  0  0  0  0
  7 21  1  0  0  0  0
  8 26  1  0  0  0  0
  9 26  2  0  0  0  0
 10 27  1  0  0  0  0
 11 12  2  0  0  0  0
 11 28  1  0  0  0  0
 12 30  1  0  0  0  0
 13 18  1  0  0  0  0
 13 29  2  0  0  0  0
 14 23  1  0  0  0  0
 14 27  2  0  0  0  0
 15 24  1  0  0  0  0
 15 25  2  0  0  0  0
 16 30  2  0  0  0  0
 16 31  1  0  0  0  0
 17 32  1  0  0  0  0
 18 24  2  0  0  0  0
 18 34  1  0  0  0  0
 19 32  1  0  0  0  0
 19 33  2  0  0  0  0
 19 36  1  0  0  0  0
 20 22  2  0  0  0  0
 20 41  1  0  0  0  0
 21 23  2  0  0  0  0
 21 42  1  0  0  0  0
 22 50  1  0  0  0  0
 23 43  1  0  0  0  0
 24 62  1  0  0  0  0
 25 29  1  0  0  0  0
 25 72  1  0  0  0  0
 26 81  1  0  0  0  0
 27 83  1  0  0  0  0
 28 31  2  0  0  0  0
 28 81  1  0  0  0  0
 29 82  1  0  0  0  0
 30 84  1  0  0  0  0
 31 85  1  0  0  0  0
 32 66  2  0  0  0  0
 33 67  1  0  0  0  0
 33 70  1  0  0  0  0
 34 35  2  0  0  0  0
 35 61  1  0  0  0  0
 36 71  1  0  0  0  0
 36 76  2  0  0  0  0
 37 51  1  0  0  0  0
 37 73  1  0  0  0  0
 37 77  2  0  0  0  0
 38 63  1  0  0  0  0
 38 68  1  0  0  0  0
 38 78  2  0  0  0  0
 39 64  1  0  0  0  0
 39 74  1  0  0  0  0
 39 79  2  0  0  0  0
 40 69  1  0  0  0  0
 40 72  1  0  0  0  0
 40 80  2  0  0  0  0
 41 44  1  0  0  0  0
 42 51  1  0  0  0  0
 43 68  1  0  0  0  0
 44 46  1  0  0  0  0
 45 47  1  0  0  0  0
 45 48  1  0  0  0  0
 46 50  1  0  0  0  0
 47 52  1  0  0  0  0
 48 69  1  0  0  0  0
 49 52  1  0  0  0  0
 49 69  1  0  0  0  0
 50 73  1  0  0  0  0
 51 68  1  0  0  0  0
 52 67  1  0  0  0  0
 53 62  1  0  0  0  0
 54 62  1  0  0  0  0
 55 64  1  0  0  0  0
 56 65  1  0  0  0  0
 57 65  1  0  0  0  0
 58 65  1  0  0  0  0
 59 75  1  0  0  0  0
 60 82  1  0  0  0  0
 61 83  1  0  0  0  0
 63 65  1  0  0  0  0
 63 74  1  0  0  0  0
 64 75  1  0  0  0  0
 66 67  1  0  0  0  0
M  CHG  1  75   1
M  ISO  4  40 100  61 101  72 100  83 101
M  END
> <Batch ID>
0111

> <Smiles>
CNC(C)C(=O)NC(C(=O)N1Cc2cc([101O:1][101CH2:1]C=Cc3cc(OC)c([100NH:0][100C:0](=O)N4CCCC(n5nc(-c6ccc(Oc7ccc(F)cc7F)cc6)c(C(N)=O)c5N)C4)cc3C(C)C)ccc2CC1C(=O)NC1CCCc2ccccc21)C(C)(C)C

> <Shape>
0.332

> <Color>
0.133

> <Negative vol penalty>
0.000

$$$$

  -OEChem-04052301283D

 91100  0     1  0  0  0  0  0999 V2000
  -31.6119  -33.4828   20.2966 C   0  0  0  0  0  0  0  0  0  0  0  0
  -31.1337  -32.2407   19.8920 C   0  0  0  0  0  0  0  0  0  0  0  0
  -22.7585  -10.6776   21.4724 C   0  0  0  0  0  0  0  0  0  0  0  0
  -24.6275   -9.1518   21.5987 C   0  0  0  0  0  0  0  0  0  0  0  0
  -31.2052  -34.0215   21.5166 C   0  0  0  0  0  0  0  0  0  0  0  0
  -30.2492  -31.5359   20.7077 C   0  0  0  0  0  0  0  0  0  0  0  0
  -25.6463  -27.9272   18.8922 C   0  0  0  0  0  0  0  0  0  0  0  0
  -21.8797   -9.5961   21.4127 C   0  0  0  0  0  0  0  0  0  0  0  0
  -23.7487   -8.0703   21.5391 C   0  0  0  0  0  0  0  0  0  0  0  0
  -25.5373  -26.5442   18.7535 C   0  0  0  0  0  0  0  0  0  0  0  0
  -21.6841   -6.4215   23.6461 C   0  0  0  0  0  0  0  0  0  0  0  0
  -21.8932   -5.3686   24.5368 C   0  0  0  0  0  0  0  0  0  0  0  0
  -24.5378  -26.4092   20.9448 C   0  0  0  0  0  0  0  0  0  0  0  0
  -25.6505  -19.8992   17.6910 C   0  0  0  0  0  0  0  0  0  0  0  0
  -26.2388  -21.7866   15.7226 C   0  0  0  0  0  0  0  0  0  0  0  0
  -22.1831   -3.8534   22.6774 C   0  0  0  0  0  0  0  0  0  0  0  0
  -24.1325  -10.4555   21.5653 C   0  0  0  0  0  0  0  0  0  0  0  0
  -25.5012  -12.2314   22.7819 C   0  0  0  0  0  0  0  0  0  0  0  0
  -30.3078  -33.3273   22.3432 C   0  0  0  0  0  0  0  0  0  0  0  0
  -25.2111  -28.5614   20.0647 C   0  0  0  0  0  0  0  0  0  0  0  0
  -29.8312  -32.0652   21.9405 C   0  0  0  0  0  0  0  0  0  0  0  0
  -24.6400  -27.8007   21.0949 C   0  0  0  0  0  0  0  0  0  0  0  0
  -26.6114  -19.6178   16.7199 C   0  0  0  0  0  0  0  0  0  0  0  0
  -24.9837  -21.1244   17.6779 C   0  0  0  0  0  0  0  0  0  0  0  0
  -26.9055  -20.5614   15.7357 C   0  0  0  0  0  0  0  0  0  0  0  0
  -22.3747   -8.2925   21.4461 C   0  0  0  0  0  0  0  0  0  0  0  0
  -24.9856  -25.7847   19.7810 C   0  0  0  0  0  0  0  0  0  0  0  0
  -21.7244   -6.1904   22.2711 C   0  0  0  0  0  0  0  0  0  0  0  0
  -25.2779  -22.0680   16.6937 C   0  0  0  0  0  0  0  0  0  0  0  0
  -22.1428   -4.0846   24.0524 C   0  0  0  0  0  0  0  0  0  0  0  0
  -21.9739   -4.9064   21.7867 C   0  0  0  0  0  0  0  0  0  0  0  0
  -25.0409  -11.5722   21.6264 C   0  0  0  0  0  0  0  0  0  0  0  0
  -26.3361  -13.2135   22.3075 C   0  0  0  0  0  0  0  0  0  0  0  0
  -24.1205  -20.4610   21.0601 C   0  0  0  0  0  0  0  0  0  0  0  0
  -30.0560  -18.7646   19.0898 C   0  0  0  0  0  0  0  0  0  0  0  0
  -29.0793  -19.0318   18.2200 C   0  0  0  0  0  0  0  0  0  0  0  0
  -25.2011  -11.9786   24.1610 C   0  0  0  0  0  0  0  0  0  0  0  0
  -26.6145  -30.2898   22.3333 C   0  0  0  0  0  0  0  0  0  0  0  0
  -23.5687  -30.6736   23.3811 C   0  0  0  0  0  0  0  0  0  0  0  0
  -20.3681  -29.4932   23.4790 C   0  0  0  0  0  0  0  0  0  0  0  0
  -27.5704  -17.2193   18.9481 C   0  0  0  0  0  0  0  0  0  0  0  0
  -29.9337  -33.9286   23.6748 C   0  0  0  0  0  0  0  0  0  0  0  0
  -25.3112  -30.0571   20.1879 C   0  0  0  0  0  0  0  0  0  0  0  0
  -24.1391  -28.4357   22.3655 C   0  0  0  0  0  0  0  0  0  0  0  0
  -24.9359  -20.7770   22.2899 C   0  0  0  0  0  0  0  0  0  0  0  0
  -28.7022  -33.2868   24.3086 C   0  0  0  0  0  0  0  0  0  0  0  0
  -26.1036  -21.5927   21.7428 C   0  0  0  0  0  0  0  0  0  0  0  0
  -28.2312  -13.9931   17.6925 C   0  0  0  0  0  0  0  0  0  0  0  0
  -28.7979  -31.7660   24.2402 C   0  0  0  0  0  0  0  0  0  0  0  0
  -27.4884  -13.1189   18.7019 C   0  0  0  0  0  0  0  0  0  0  0  0
  -27.4454  -15.2575   17.3391 C   0  0  0  0  0  0  0  0  0  0  0  0
  -26.2899  -15.1799   19.5253 C   0  0  0  0  0  0  0  0  0  0  0  0
  -28.8511  -31.2813   22.7863 C   0  0  1  0  0  0  0  0  0  0  0  0
  -25.3075  -30.5391   21.6353 C   0  0  1  0  0  0  0  0  0  0  0  0
  -27.0840  -13.9329   19.9435 C   0  0  1  0  0  0  0  0  0  0  0  0
  -25.5339  -22.2877   20.5099 C   0  0  2  0  0  0  0  0  0  0  0  0
  -27.9303  -20.2830   14.6856 C   0  0  0  0  0  0  0  0  0  0  0  0
  -18.1092  -30.0027   24.4461 C   0  0  0  0  0  0  0  0  0  0  0  0
  -24.5131  -29.6767   26.1059 C   0  0  0  0  0  0  0  0  0  0  0  0
  -22.1154  -29.3048   26.7232 C   0  0  0  0  0  0  0  0  0  0  0  0
  -22.9230  -31.6050   26.1943 C   0  0  0  0  0  0  0  0  0  0  0  0
  -19.1472  -29.7451   20.7948 C   0  0  0  0  0  0  0  0  0  0  0  0
  -24.9976  -24.1739   15.6248 C   0  0  0  0  0  0  0  0  0  0  0  0
  -23.9530  -21.4108   18.7314 C   0  0  0  0  0  0  0  0  0  0  0  0
  -27.3114  -18.2989   16.7526 C   0  0  0  0  0  0  0  0  0  0  0  0
  -24.9504  -23.6570   20.8429 C   0  0  0  0  0  0  0  0  0  1  0  0
  -22.6602  -29.9233   24.3249 C   0  0  1  0  0  0  0  0  0  0  0  0
  -19.0336  -30.1803   23.2517 C   0  0  2  0  0  0  0  0  0  0  0  0
  -23.0641  -30.1149   25.8140 C   0  0  0  0  0  0  0  0  0  0  0  0
  -25.5417  -12.0918   20.5024 N   0  0  0  0  0  0  0  0  0  0  0  0
  -26.3252  -13.0879   20.9494 N   0  0  0  0  0  0  0  0  0  0  0  0
  -24.5127  -21.3556   20.0665 N   0  0  0  0  0  0  0  0  0  0  0  0
  -24.2646  -29.9006   22.4409 N   0  0  0  0  0  0  0  0  0  0  0  0
  -27.0420  -15.9791   18.5550 N   0  0  0  0  0  0  0  0  0  0  0  0
  -27.0710  -14.1636   22.9236 N   0  0  0  0  0  0  0  0  0  0  0  0
  -24.3238  -10.9309   24.4726 N   0  0  0  0  0  0  0  0  0  0  0  0
  -27.5312  -31.3144   22.1938 N   0  0  0  0  0  0  0  0  0  0  0  0
  -21.3019  -30.3553   24.0138 N   0  0  0  0  0  0  0  0  0  0  0  0
  -27.9925  -18.0984   17.9337 N   0  0  0  0  0  0  0  0  0  0  0  0
  -18.3595  -29.6172   22.0478 N   0  3  0  0  0  0  0  0  0  0  0  0
  -23.2596  -19.5956   21.0018 O   0  0  0  0  0  0  0  0  0  0  0  0
  -25.6833  -12.6720   25.0884 O   0  0  0  0  0  0  0  0  0  0  0  0
  -26.7786  -29.2459   22.9539 O   0  0  0  0  0  0  0  0  0  0  0  0
  -23.6521  -31.9011   23.4701 O   0  0  0  0  0  0  0  0  0  0  0  0
  -20.5615  -28.3091   23.2124 O   0  0  0  0  0  0  0  0  0  0  0  0
  -27.6533  -17.5326   20.1433 O   0  0  0  0  0  0  0  0  0  0  0  0
  -21.5174   -7.2369   21.3882 O   0  0  0  0  0  0  0  0  0  0  0  0
  -24.6349  -23.2690   16.6656 O   0  0  0  0  0  0  0  0  0  0  0  0
  -24.8786  -24.4345   19.6485 O   0  0  0  0  0  0  0  0  0  1  0  0
  -22.3451   -3.0739   24.9078 F   0  0  0  0  0  0  0  0  0  0  0  0
  -22.0150   -4.6784   20.4668 F   0  0  0  0  0  0  0  0  0  0  0  0
  1  2  1  0  0  0  0
  1  5  2  0  0  0  0
  2  6  2  0  0  0  0
  3  8  2  0  0  0  0
  3 17  1  0  0  0  0
  4  9  1  0  0  0  0
  4 17  2  0  0  0  0
  5 19  1  0  0  0  0
  6 21  1  0  0  0  0
  7 10  2  0  0  0  0
  7 20  1  0  0  0  0
  8 26  1  0  0  0  0
  9 26  2  0  0  0  0
 10 27  1  0  0  0  0
 11 12  2  0  0  0  0
 11 28  1  0  0  0  0
 12 30  1  0  0  0  0
 13 22  1  0  0  0  0
 13 27  2  0  0  0  0
 14 23  1  0  0  0  0
 14 24  2  0  0  0  0
 15 25  1  0  0  0  0
 15 29  2  0  0  0  0
 16 30  2  0  0  0  0
 16 31  1  0  0  0  0
 17 32  1  0  0  0  0
 18 32  1  0  0  0  0
 18 33  2  0  0  0  0
 18 37  1  0  0  0  0
 19 21  2  0  0  0  0
 19 42  1  0  0  0  0
 20 22  2  0  0  0  0
 20 43  1  0  0  0  0
 21 53  1  0  0  0  0
 22 44  1  0  0  0  0
 23 25  2  0  0  0  0
 23 65  1  0  0  0  0
 24 29  1  0  0  0  0
 24 64  1  0  0  0  0
 25 57  1  0  0  0  0
 26 87  1  0  0  0  0
 27 89  1  0  0  0  0
 28 31  2  0  0  0  0
 28 87  1  0  0  0  0
 29 88  1  0  0  0  0
 30 90  1  0  0  0  0
 31 91  1  0  0  0  0
 32 70  2  0  0  0  0
 33 71  1  0  0  0  0
 33 75  1  0  0  0  0
 34 45  1  0  0  0  0
 34 72  1  0  0  0  0
 34 81  2  0  0  0  0
 35 36  2  0  0  0  0
 36 79  1  0  0  0  0
 37 76  1  0  0  0  0
 37 82  2  0  0  0  0
 38 54  1  0  0  0  0
 38 77  1  0  0  0  0
 38 83  2  0  0  0  0
 39 67  1  0  0  0  0
 39 73  1  0  0  0  0
 39 84  2  0  0  0  0
 40 68  1  0  0  0  0
 40 78  1  0  0  0  0
 40 85  2  0  0  0  0
 41 74  1  0  0  0  0
 41 79  1  0  0  0  0
 41 86  2  0  0  0  0
 42 46  1  0  0  0  0
 43 54  1  0  0  0  0
 44 73  1  0  0  0  0
 45 47  1  0  0  0  0
 46 49  1  0  0  0  0
 47 56  1  0  0  0  0
 48 50  1  0  0  0  0
 48 51  1  0  0  0  0
 49 53  1  0  0  0  0
 50 55  1  0  0  0  0
 51 74  1  0  0  0  0
 52 55  1  0  0  0  0
 52 74  1  0  0  0  0
 53 77  1  0  0  0  0
 54 73  1  0  0  0  0
 55 71  1  0  0  0  0
 56 66  1  0  0  0  0
 56 72  1  0  0  0  0
 58 68  1  0  0  0  0
 59 69  1  0  0  0  0
 60 69  1  0  0  0  0
 61 69  1  0  0  0  0
 62 80  1  0  0  0  0
 63 88  1  0  0  0  0
 64 72  1  0  0  0  0
 65 79  1  0  0  0  0
 66 89  1  0  0  0  0
 67 69  1  0  0  0  0
 67 78  1  0  0  0  0
 68 80  1  0  0  0  0
 70 71  1  0  0  0  0
M  CHG  1  80   1
M  ISO  4  41 100  66 101  79 100  89 101
M  END
> <Batch ID>
0111

> <Smiles>
C=C[100N:0](Cc1cc(CN2C(=O)CCC2[101CH2:1][101O:1]c2ccc3c(c2)CN(C(=O)C(NC(=O)C(C)NC)C(C)(C)C)C(C(=O)NC2CCCc4ccccc42)C3)c(OC)cc1C)[100C:0](=O)N1CCCC(n2nc(-c3ccc(Oc4ccc(F)cc4F)cc3)c(C(N)=O)c2N)C1

> <Shape>
0.229

> <Color>
0.096

> <Negative vol penalty>
0.000

$$$$

  -OEChem-04052301283D

 88 97  0     1  0  0  0  0  0999 V2000
  -34.3820  -22.2282   32.4714 C   0  0  0  0  0  0  0  0  0  0  0  0
  -33.9518  -22.0255   31.1641 C   0  0  0  0  0  0  0  0  0  0  0  0
  -22.6654  -10.2953   20.1788 C   0  0  0  0  0  0  0  0  0  0  0  0
  -24.1993   -9.5371   21.8844 C   0  0  0  0  0  0  0  0  0  0  0  0
  -34.3924  -21.1651   33.3734 C   0  0  0  0  0  0  0  0  0  0  0  0
  -33.5327  -20.7591   30.7576 C   0  0  0  0  0  0  0  0  0  0  0  0
  -29.2589  -20.9048   28.0450 C   0  0  0  0  0  0  0  0  0  0  0  0
  -21.8817   -9.1588   20.3784 C   0  0  0  0  0  0  0  0  0  0  0  0
  -23.4156   -8.4006   22.0841 C   0  0  0  0  0  0  0  0  0  0  0  0
  -29.3654  -21.2903   26.7094 C   0  0  0  0  0  0  0  0  0  0  0  0
  -19.6697   -6.2788   20.1880 C   0  0  0  0  0  0  0  0  0  0  0  0
  -19.2122   -5.5982   19.0597 C   0  0  0  0  0  0  0  0  0  0  0  0
  -29.2748  -18.9745   26.0400 C   0  0  0  0  0  0  0  0  0  0  0  0
  -30.4630  -18.9611   21.8282 C   0  0  0  0  0  0  0  0  0  0  0  0
  -32.3973  -18.3819   23.1548 C   0  0  0  0  0  0  0  0  0  0  0  0
  -21.4945   -5.2144   18.3659 C   0  0  0  0  0  0  0  0  0  0  0  0
  -23.8242  -10.4844   20.9318 C   0  0  0  0  0  0  0  0  0  0  0  0
  -24.2413  -13.0006   20.8816 C   0  0  0  0  0  0  0  0  0  0  0  0
  -33.9642  -19.8873   32.9805 C   0  0  0  0  0  0  0  0  0  0  0  0
  -29.1705  -19.5483   28.3894 C   0  0  0  0  0  0  0  0  0  0  0  0
  -33.5387  -19.6776   31.6549 C   0  0  0  0  0  0  0  0  0  0  0  0
  -29.1647  -18.5745   27.3805 C   0  0  0  0  0  0  0  0  0  0  0  0
  -30.1625  -17.6076   21.6754 C   0  0  0  0  0  0  0  0  0  0  0  0
  -31.5804  -19.3482   22.5679 C   0  0  0  0  0  0  0  0  0  0  0  0
  -30.9793  -16.6412   22.2623 C   0  0  0  0  0  0  0  0  0  0  0  0
  -22.2567   -8.2115   21.3311 C   0  0  0  0  0  0  0  0  0  0  0  0
  -29.3762  -20.3250   25.7068 C   0  0  0  0  0  0  0  0  0  0  0  0
  -21.0395   -6.4273   20.4053 C   0  0  0  0  0  0  0  0  0  0  0  0
  -20.1246   -5.0659   18.1487 C   0  0  0  0  0  0  0  0  0  0  0  0
  -32.0968  -17.0284   23.0021 C   0  0  0  0  0  0  0  0  0  0  0  0
  -21.9519   -5.8950   19.4943 C   0  0  0  0  0  0  0  0  0  0  0  0
  -24.6345  -11.6579   20.7256 C   0  0  0  0  0  0  0  0  0  0  0  0
  -25.3651  -13.7259   20.5694 C   0  0  0  0  0  0  0  0  0  0  0  0
  -33.1763  -21.2931   22.8840 C   0  0  0  0  0  0  0  0  0  0  0  0
  -29.8848  -14.8607   24.3371 C   0  0  0  0  0  0  0  0  0  0  0  0
  -30.4338  -14.4144   23.2052 C   0  0  0  0  0  0  0  0  0  0  0  0
  -22.9737  -13.5436   21.2738 C   0  0  0  0  0  0  0  0  0  0  0  0
  -30.9562  -17.5456   30.0934 C   0  0  0  0  0  0  0  0  0  0  0  0
  -28.4855  -15.5107   29.5668 C   0  0  0  0  0  0  0  0  0  0  0  0
  -25.8180  -14.6329   27.6275 C   0  0  0  0  0  0  0  0  0  0  0  0
  -30.8014  -14.6387   20.8303 C   0  0  0  0  0  0  0  0  0  0  0  0
  -34.0380  -18.7584   33.9779 C   0  0  0  0  0  0  0  0  0  0  0  0
  -29.0293  -19.1503   29.8330 C   0  0  0  0  0  0  0  0  0  0  0  0
  -29.0518  -17.1062   27.6962 C   0  0  0  0  0  0  0  0  0  0  0  0
  -33.0165  -22.7913   22.9894 C   0  0  0  0  0  0  0  0  0  0  0  0
  -33.2241  -17.5325   33.5717 C   0  0  0  0  0  0  0  0  0  0  0  0
  -31.6399  -23.0418   22.4034 C   0  0  0  0  0  0  0  0  0  0  0  0
  -29.7296  -12.3092   18.4611 C   0  0  0  0  0  0  0  0  0  0  0  0
  -33.4825  -17.1806   32.1101 C   0  0  0  0  0  0  0  0  0  0  0  0
  -28.2774  -12.0310   18.8478 C   0  0  0  0  0  0  0  0  0  0  0  0
  -30.6101  -12.4382   19.6987 C   0  0  0  0  0  0  0  0  0  0  0  0
  -28.6949  -13.2181   21.0578 C   0  0  0  0  0  0  0  0  0  0  0  0
  -33.0532  -18.3242   31.1831 C   0  0  1  0  0  0  0  0  0  0  0  0
  -29.4630  -17.7126   30.1016 C   0  0  1  0  0  0  0  0  0  0  0  0
  -27.7582  -13.0864   19.8401 C   0  0  2  0  0  0  0  0  0  0  0  0
  -30.8630  -21.7769   22.7510 C   0  0  2  0  0  0  0  0  0  0  0  0
  -28.9597  -17.2219   20.8765 C   0  0  0  0  0  0  0  0  0  0  0  0
  -24.0132  -12.9009   27.4275 C   0  0  0  0  0  0  0  0  0  0  0  0
  -30.5233  -13.5161   28.4812 C   0  0  0  0  0  0  0  0  0  0  0  0
  -28.6279  -12.2484   27.4476 C   0  0  0  0  0  0  0  0  0  0  0  0
  -28.7464  -12.5105   29.9254 C   0  0  0  0  0  0  0  0  0  0  0  0
  -23.6807  -16.6584   27.9244 C   0  0  0  0  0  0  0  0  0  0  0  0
  -30.2024  -21.8981   24.1261 C   0  0  0  0  0  0  0  0  0  1  0  0
  -28.1384  -14.5051   28.4958 C   0  0  1  0  0  0  0  0  0  0  0  0
  -24.3898  -14.2642   27.9863 C   0  0  2  0  0  0  0  0  0  0  0  0
  -29.0131  -13.2225   28.5813 C   0  0  0  0  0  0  0  0  0  0  0  0
  -25.9085  -11.5347   20.3438 N   0  0  0  0  0  0  0  0  0  0  0  0
  -26.3256  -12.8093   20.2572 N   0  0  0  0  0  0  0  0  0  0  0  0
  -31.8889  -20.7380   22.7233 N   0  0  0  0  0  0  0  0  0  0  0  0
  -28.9223  -16.7670   29.1230 N   0  0  0  0  0  0  0  0  0  0  0  0
  -30.0812  -13.4463   20.6181 N   0  0  0  0  0  0  0  0  0  0  0  0
  -25.6155  -15.0520   20.5342 N   0  0  0  0  0  0  0  0  0  0  0  0
  -22.7333  -13.7621   22.6371 N   0  0  0  0  0  0  0  0  0  0  0  0
  -31.6151  -18.3303   31.0205 N   0  0  0  0  0  0  0  0  0  0  0  0
  -26.7052  -14.2600   28.6150 N   0  0  0  0  0  0  0  0  0  0  0  0
  -30.6815  -15.2315   22.1141 N   0  0  0  0  0  0  0  0  0  0  0  0
  -23.4410  -15.2749   27.4393 N   0  3  0  0  0  0  0  0  0  0  0  0
  -34.2675  -20.7479   22.9661 O   0  0  0  0  0  0  0  0  0  0  0  0
  -22.0744  -13.8114   20.4412 O   0  0  0  0  0  0  0  0  0  0  0  0
  -31.4722  -16.7617   29.3055 O   0  0  0  0  0  0  0  0  0  0  0  0
  -28.3664  -15.1958   30.7535 O   0  0  0  0  0  0  0  0  0  0  0  0
  -26.1172  -15.1922   26.5748 O   0  0  0  0  0  0  0  0  0  0  0  0
  -31.5180  -15.1320   19.9497 O   0  0  0  0  0  0  0  0  0  0  0  0
  -21.4921   -7.1026   21.5263 O   0  0  0  0  0  0  0  0  0  0  0  0
  -29.4806  -20.6985   24.4024 O   0  0  0  0  0  0  0  0  0  1  0  0
  -19.6852   -4.4110   17.0660 F   0  0  0  0  0  0  0  0  0  0  0  0
  -32.8894  -16.1088   23.5708 F   0  0  0  0  0  0  0  0  0  0  0  0
  -23.2691   -6.0334   19.6983 F   0  0  0  0  0  0  0  0  0  0  0  0
  1  2  1  0  0  0  0
  1  5  2  0  0  0  0
  2  6  2  0  0  0  0
  3  8  2  0  0  0  0
  3 17  1  0  0  0  0
  4  9  1  0  0  0  0
  4 17  2  0  0  0  0
  5 19  1  0  0  0  0
  6 21  1  0  0  0  0
  7 10  2  0  0  0  0
  7 20  1  0  0  0  0
  8 26  1  0  0  0  0
  9 26  2  0  0  0  0
 10 27  1  0  0  0  0
 11 12  2  0  0  0  0
 11 28  1  0  0  0  0
 12 29  1  0  0  0  0
 13 22  1  0  0  0  0
 13 27  2  0  0  0  0
 14 23  2  0  0  0  0
 14 24  1  0  0  0  0
 15 24  2  0  0  0  0
 15 30  1  0  0  0  0
 16 29  2  0  0  0  0
 16 31  1  0  0  0  0
 17 32  1  0  0  0  0
 18 32  1  0  0  0  0
 18 33  2  0  0  0  0
 18 37  1  0  0  0  0
 19 21  2  0  0  0  0
 19 42  1  0  0  0  0
 20 22  2  0  0  0  0
 20 43  1  0  0  0  0
 21 53  1  0  0  0  0
 22 44  1  0  0  0  0
 23 25  1  0  0  0  0
 23 57  1  0  0  0  0
 24 69  1  0  0  0  0
 25 30  2  0  0  0  0
 25 76  1  0  0  0  0
 26 84  1  0  0  0  0
 27 85  1  0  0  0  0
 28 31  2  0  0  0  0
 28 84  1  0  0  0  0
 29 86  1  0  0  0  0
 30 87  1  0  0  0  0
 31 88  1  0  0  0  0
 32 67  2  0  0  0  0
 33 68  1  0  0  0  0
 33 72  1  0  0  0  0
 34 45  1  0  0  0  0
 34 69  1  0  0  0  0
 34 78  2  0  0  0  0
 35 36  2  0  0  0  0
 36 76  1  0  0  0  0
 37 73  1  0  0  0  0
 37 79  2  0  0  0  0
 38 54  1  0  0  0  0
 38 74  1  0  0  0  0
 38 80  2  0  0  0  0
 39 64  1  0  0  0  0
 39 70  1  0  0  0  0
 39 81  2  0  0  0  0
 40 65  1  0  0  0  0
 40 75  1  0  0  0  0
 40 82  2  0  0  0  0
 41 71  1  0  0  0  0
 41 76  1  0  0  0  0
 41 83  2  0  0  0  0
 42 46  1  0  0  0  0
 43 54  1  0  0  0  0
 44 70  1  0  0  0  0
 45 47  1  0  0  0  0
 46 49  1  0  0  0  0
 47 56  1  0  0  0  0
 48 50  1  0  0  0  0
 48 51  1  0  0  0  0
 49 53  1  0  0  0  0
 50 55  1  0  0  0  0
 51 71  1  0  0  0  0
 52 55  1  0  0  0  0
 52 71  1  0  0  0  0
 53 74  1  0  0  0  0
 54 70  1  0  0  0  0
 55 68  1  0  0  0  0
 56 63  1  0  0  0  0
 56 69  1  0  0  0  0
 58 65  1  0  0  0  0
 59 66  1  0  0  0  0
 60 66  1  0  0  0  0
 61 66  1  0  0  0  0
 62 77  1  0  0  0  0
 63 85  1  0  0  0  0
 64 66  1  0  0  0  0
 64 75  1  0  0  0  0
 65 77  1  0  0  0  0
 67 68  1  0  0  0  0
M  CHG  1  77   1
M  ISO  4  41 100  63 101  76 100  85 101
M  END
> <Batch ID>
0111

> <Smiles>
C=C[100N:0](c1c(C)cc(N2C(=O)CCC2[101CH2:1][101O:1]c2ccc3c(c2)CN(C(=O)C(NC(=O)C(C)NC)C(C)(C)C)C(C(=O)NC2CCCc4ccccc42)C3)cc1F)[100C:0](=O)N1CCCC(n2nc(-c3ccc(Oc4ccc(F)cc4F)cc3)c(C(N)=O)c2N)C1

> <Shape>
0.158

> <Color>
0.170

> <Negative vol penalty>
0.000

$$$$

  -OEChem-04052301283D

 87 95  0     1  0  0  0  0  0999 V2000
  -13.5291  -22.6788   21.6178 C   0  0  0  0  0  0  0  0  0  0  0  0
  -14.8305  -22.2840   21.3244 C   0  0  0  0  0  0  0  0  0  0  0  0
  -23.0475   -9.8521   19.9229 C   0  0  0  0  0  0  0  0  0  0  0  0
  -23.8714   -9.7914   22.1932 C   0  0  0  0  0  0  0  0  0  0  0  0
  -13.1443  -24.0051   21.4263 C   0  0  0  0  0  0  0  0  0  0  0  0
  -15.7475  -23.2151   20.8381 C   0  0  0  0  0  0  0  0  0  0  0  0
  -21.7617  -23.4007   21.9782 C   0  0  0  0  0  0  0  0  0  0  0  0
  -22.3200   -8.6850   20.1557 C   0  0  0  0  0  0  0  0  0  0  0  0
  -23.1439   -8.6243   22.4261 C   0  0  0  0  0  0  0  0  0  0  0  0
  -22.8680  -22.9611   21.2525 C   0  0  0  0  0  0  0  0  0  0  0  0
  -23.4451   -5.3248   21.7527 C   0  0  0  0  0  0  0  0  0  0  0  0
  -24.0885   -4.2821   22.4194 C   0  0  0  0  0  0  0  0  0  0  0  0
  -29.6912  -17.3742   20.0768 C   0  0  0  0  0  0  0  0  0  0  0  0
  -23.1541  -25.1818   20.3548 C   0  0  0  0  0  0  0  0  0  0  0  0
  -22.4344   -4.3855   24.1774 C   0  0  0  0  0  0  0  0  0  0  0  0
  -23.8232  -10.4053   20.9417 C   0  0  0  0  0  0  0  0  0  0  0  0
  -29.3587  -16.7563   21.2823 C   0  0  0  0  0  0  0  0  0  0  0  0
  -24.1417  -12.9359   20.8946 C   0  0  0  0  0  0  0  0  0  0  0  0
  -14.0598  -24.9551   20.9466 C   0  0  0  0  0  0  0  0  0  0  0  0
  -21.3360  -24.7339   21.8891 C   0  0  0  0  0  0  0  0  0  0  0  0
  -15.3742  -24.5551   20.6387 C   0  0  0  0  0  0  0  0  0  0  0  0
  -22.0437  -25.6365   21.0824 C   0  0  0  0  0  0  0  0  0  0  0  0
  -28.3147  -17.2589   22.0590 C   0  0  0  0  0  0  0  0  0  0  0  0
  -28.9798  -18.4948   19.6480 C   0  0  0  0  0  0  0  0  0  0  0  0
  -22.3682   -8.0711   21.4073 C   0  0  0  0  0  0  0  0  0  0  0  0
  -23.5626  -23.8509   20.4384 C   0  0  0  0  0  0  0  0  0  0  0  0
  -22.2963   -5.8978   22.2984 C   0  0  0  0  0  0  0  0  0  0  0  0
  -27.6033  -18.3795   21.6301 C   0  0  0  0  0  0  0  0  0  0  0  0
  -27.9358  -18.9974   20.4246 C   0  0  0  0  0  0  0  0  0  0  0  0
  -23.5832   -3.8125   23.6317 C   0  0  0  0  0  0  0  0  0  0  0  0
  -21.7910   -5.4281   23.5107 C   0  0  0  0  0  0  0  0  0  0  0  0
  -24.5754  -11.6106   20.7016 C   0  0  0  0  0  0  0  0  0  0  0  0
  -25.2173  -13.7063   20.5258 C   0  0  0  0  0  0  0  0  0  0  0  0
  -30.1190  -15.5875   21.7049 C   0  0  0  0  0  0  0  0  0  0  0  0
  -22.8795  -13.4267   21.3654 C   0  0  0  0  0  0  0  0  0  0  0  0
  -30.7250  -14.6657   20.7169 C   0  0  0  0  0  0  0  0  0  0  0  0
  -18.6819  -26.1801   20.9053 C   0  0  0  0  0  0  0  0  0  0  0  0
  -20.1692  -28.8294   22.0417 C   0  0  0  0  0  0  0  0  0  0  0  0
  -23.0965  -30.3873   22.8486 C   0  0  0  0  0  0  0  0  0  0  0  0
  -13.5844  -26.3669   20.7109 C   0  0  0  0  0  0  0  0  0  0  0  0
  -20.1569  -25.1988   22.6990 C   0  0  0  0  0  0  0  0  0  0  0  0
  -21.6395  -27.0828   20.9678 C   0  0  0  0  0  0  0  0  0  0  0  0
  -14.7208  -27.3728   20.5468 C   0  0  0  0  0  0  0  0  0  0  0  0
  -29.5023  -12.4778   18.1528 C   0  0  0  0  0  0  0  0  0  0  0  0
  -15.7787  -26.8318   19.5904 C   0  0  0  0  0  0  0  0  0  0  0  0
  -28.0895  -12.1356   18.6247 C   0  0  0  0  0  0  0  0  0  0  0  0
  -30.4580  -12.6478   19.3292 C   0  0  0  0  0  0  0  0  0  0  0  0
  -28.5863  -13.3171   20.8116 C   0  0  0  0  0  0  0  0  0  0  0  0
  -16.4046  -25.5412   20.1329 C   0  0  1  0  0  0  0  0  0  0  0  0
  -19.5020  -26.4554   22.1338 C   0  0  1  0  0  0  0  0  0  0  0  0
  -27.5862  -13.1649   19.6523 C   0  0  2  0  0  0  0  0  0  0  0  0
  -28.4686  -17.3801   24.5586 C   0  0  0  0  0  0  0  0  0  0  0  0
  -23.9956  -32.5629   23.7178 C   0  0  0  0  0  0  0  0  0  0  0  0
  -19.6999  -30.1108   19.3127 C   0  0  0  0  0  0  0  0  0  0  0  0
  -21.4048  -31.8439   19.9109 C   0  0  0  0  0  0  0  0  0  0  0  0
  -19.3170  -31.6330   21.2597 C   0  0  0  0  0  0  0  0  0  0  0  0
  -24.2795  -29.0817   25.2266 C   0  0  0  0  0  0  0  0  0  0  0  0
  -25.2787  -18.3555   22.1317 C   0  0  0  0  0  0  0  0  0  0  0  0
  -27.9525  -16.6019   23.3532 C   0  0  0  0  0  0  0  0  0  0  0  0
  -26.8559  -22.4703   19.8386 C   0  0  0  0  0  0  0  0  0  0  0  0
  -25.4077  -22.3579   20.2884 C   0  0  0  0  0  0  0  0  0  1  0  0
  -27.7211  -21.3659   20.4250 C   0  0  0  0  0  0  0  0  0  0  0  0
  -21.1079  -29.8600   21.4622 C   0  0  1  0  0  0  0  0  0  0  0  0
  -23.5162  -31.1664   24.0820 C   0  0  2  0  0  0  0  0  0  0  0  0
  -20.3891  -30.8343   20.4868 C   0  0  0  0  0  0  0  0  0  0  0  0
  -25.8287  -11.5394   20.2454 N   0  0  0  0  0  0  0  0  0  0  0  0
  -30.3168  -15.2787   22.9566 N   0  0  0  0  0  0  0  0  0  0  0  0
  -26.1918  -12.8297   20.1486 N   0  0  0  0  0  0  0  0  0  0  0  0
  -29.9334  -13.6037   20.3025 N   0  0  0  0  0  0  0  0  0  0  0  0
  -20.4763  -27.4877   21.7743 N   0  0  0  0  0  0  0  0  0  0  0  0
  -29.3273  -19.1098   18.4253 N   0  0  0  0  0  0  0  0  0  0  0  0
  -25.4152  -15.0412   20.4904 N   0  0  0  0  0  0  0  0  0  0  0  0
  -21.8846  -12.4983   21.7008 N   0  0  0  0  0  0  0  0  0  0  0  0
  -17.3680  -25.8437   21.1696 N   0  0  0  0  0  0  0  0  0  0  0  0
  -21.7465  -30.5152   22.5986 N   0  0  0  0  0  0  0  0  0  0  0  0
  -24.6211  -30.4599   24.7898 N   0  3  0  0  0  0  0  0  0  0  0  0
  -22.6353  -14.6527   21.4694 O   0  0  0  0  0  0  0  0  0  0  0  0
  -31.8662  -14.9406   20.3698 O   0  0  0  0  0  0  0  0  0  0  0  0
  -19.2023  -26.2678   19.7993 O   0  0  0  0  0  0  0  0  0  0  0  0
  -19.2033  -29.2008   22.7130 O   0  0  0  0  0  0  0  0  0  0  0  0
  -23.8877  -29.7338   22.1722 O   0  0  0  0  0  0  0  0  0  0  0  0
  -21.6582   -6.9323   21.6349 O   0  0  0  0  0  0  0  0  0  0  0  0
  -26.5816  -18.8749   22.3859 O   0  0  0  0  0  0  0  0  0  0  0  0
  -24.6424  -23.4243   19.7285 O   0  0  0  0  0  0  0  0  0  1  0  0
  -27.2327  -20.0979   20.0085 O   0  0  0  0  0  0  0  0  0  0  0  0
  -24.2003   -2.8102   24.2711 F   0  0  0  0  0  0  0  0  0  0  0  0
  -20.6871   -5.9739   24.0392 F   0  0  0  0  0  0  0  0  0  0  0  0
  1  2  1  0  0  0  0
  1  5  2  0  0  0  0
  2  6  2  0  0  0  0
  3  8  2  0  0  0  0
  3 16  1  0  0  0  0
  4  9  1  0  0  0  0
  4 16  2  0  0  0  0
  5 19  1  0  0  0  0
  6 21  1  0  0  0  0
  7 10  2  0  0  0  0
  7 20  1  0  0  0  0
  8 25  1  0  0  0  0
  9 25  2  0  0  0  0
 10 26  1  0  0  0  0
 11 12  2  0  0  0  0
 11 27  1  0  0  0  0
 12 30  1  0  0  0  0
 13 17  2  0  0  0  0
 13 24  1  0  0  0  0
 14 22  1  0  0  0  0
 14 26  2  0  0  0  0
 15 30  2  0  0  0  0
 15 31  1  0  0  0  0
 16 32  1  0  0  0  0
 17 23  1  0  0  0  0
 17 34  1  0  0  0  0
 18 32  1  0  0  0  0
 18 33  2  0  0  0  0
 18 35  1  0  0  0  0
 19 21  2  0  0  0  0
 19 40  1  0  0  0  0
 20 22  2  0  0  0  0
 20 41  1  0  0  0  0
 21 49  1  0  0  0  0
 22 42  1  0  0  0  0
 23 28  2  0  0  0  0
 23 59  1  0  0  0  0
 24 29  2  0  0  0  0
 24 71  1  0  0  0  0
 25 82  1  0  0  0  0
 26 84  1  0  0  0  0
 27 31  2  0  0  0  0
 27 82  1  0  0  0  0
 28 29  1  0  0  0  0
 28 83  1  0  0  0  0
 29 85  1  0  0  0  0
 30 86  1  0  0  0  0
 31 87  1  0  0  0  0
 32 66  2  0  0  0  0
 33 68  1  0  0  0  0
 33 72  1  0  0  0  0
 34 36  1  0  0  0  0
 34 67  2  0  0  0  0
 35 73  1  0  0  0  0
 35 77  2  0  0  0  0
 36 69  1  0  0  0  0
 36 78  2  0  0  0  0
 37 50  1  0  0  0  0
 37 74  1  0  0  0  0
 37 79  2  0  0  0  0
 38 63  1  0  0  0  0
 38 70  1  0  0  0  0
 38 80  2  0  0  0  0
 39 64  1  0  0  0  0
 39 75  1  0  0  0  0
 39 81  2  0  0  0  0
 40 43  1  0  0  0  0
 41 50  1  0  0  0  0
 42 70  1  0  0  0  0
 43 45  1  0  0  0  0
 44 46  1  0  0  0  0
 44 47  1  0  0  0  0
 45 49  1  0  0  0  0
 46 51  1  0  0  0  0
 47 69  1  0  0  0  0
 48 51  1  0  0  0  0
 48 69  1  0  0  0  0
 49 74  1  0  0  0  0
 50 70  1  0  0  0  0
 51 68  1  0  0  0  0
 52 59  1  0  0  0  0
 53 64  1  0  0  0  0
 54 65  1  0  0  0  0
 55 65  1  0  0  0  0
 56 65  1  0  0  0  0
 57 76  1  0  0  0  0
 58 83  1  0  0  0  0
 60 61  1  0  0  0  0
 60 62  1  0  0  0  0
 61 84  1  0  0  0  0
 62 85  1  0  0  0  0
 63 65  1  0  0  0  0
 63 75  1  0  0  0  0
 64 76  1  0  0  0  0
 66 68  1  0  0  0  0
M  CHG  1  76   1
M  ISO  4  34 100  36 100  61 101  84 101
M  END
> <Batch ID>
0111

> <Smiles>
CCc1c([100C:0](=N)[100C:0](=O)N2CCCC(n3nc(-c4ccc(Oc5ccc(F)cc5F)cc4)c(C(N)=O)c3N)C2)cc(N)c(OCC[101CH2:1][101O:1]c2ccc3c(c2)CN(C(=O)C(NC(=O)C(C)NC)C(C)(C)C)C(C(=O)NC2CCCc4ccccc42)C3)c1OC

> <Shape>
0.307

> <Color>
0.183

> <Negative vol penalty>
0.000

$$$$

  -OEChem-04052301283D

 85 93  0     1  0  0  0  0  0999 V2000
  -32.4804  -25.7110   16.7782 C   0  0  0  0  0  0  0  0  0  0  0  0
  -31.2613  -25.2234   17.2383 C   0  0  0  0  0  0  0  0  0  0  0  0
  -28.0585  -14.9817   19.2405 C   0  0  0  0  0  0  0  0  0  0  0  0
  -27.7013  -15.8978   21.4474 C   0  0  0  0  0  0  0  0  0  0  0  0
  -33.1418  -26.7125   17.4877 C   0  0  0  0  0  0  0  0  0  0  0  0
  -30.7034  -25.7365   18.4087 C   0  0  0  0  0  0  0  0  0  0  0  0
  -25.7523  -26.6931   17.9440 C   0  0  0  0  0  0  0  0  0  0  0  0
  -29.0698  -15.9158   19.0164 C   0  0  0  0  0  0  0  0  0  0  0  0
  -28.7127  -16.8319   21.2233 C   0  0  0  0  0  0  0  0  0  0  0  0
  -24.8840  -25.6046   18.0158 C   0  0  0  0  0  0  0  0  0  0  0  0
  -29.0774  -19.7620   19.5765 C   0  0  0  0  0  0  0  0  0  0  0  0
  -28.8301  -21.0852   19.9420 C   0  0  0  0  0  0  0  0  0  0  0  0
  -24.3972  -26.1523   20.3142 C   0  0  0  0  0  0  0  0  0  0  0  0
  -21.3772  -18.6849   20.4552 C   0  0  0  0  0  0  0  0  0  0  0  0
  -22.0650  -16.9885   22.5604 C   0  0  0  0  0  0  0  0  0  0  0  0
  -30.7063  -21.0159   21.4625 C   0  0  0  0  0  0  0  0  0  0  0  0
  -27.3742  -14.9727   20.4560 C   0  0  0  0  0  0  0  0  0  0  0  0
  -26.4668  -12.7225   21.2442 C   0  0  0  0  0  0  0  0  0  0  0  0
  -32.5870  -27.2449   18.6622 C   0  0  0  0  0  0  0  0  0  0  0  0
  -25.9582  -27.5143   19.0619 C   0  0  0  0  0  0  0  0  0  0  0  0
  -31.3587  -26.7451   19.1353 C   0  0  0  0  0  0  0  0  0  0  0  0
  -25.2667  -27.2520   20.2532 C   0  0  0  0  0  0  0  0  0  0  0  0
  -20.5199  -17.6484   20.8242 C   0  0  0  0  0  0  0  0  0  0  0  0
  -20.8638  -16.8002   21.8768 C   0  0  0  0  0  0  0  0  0  0  0  0
  -22.9224  -18.0250   22.1913 C   0  0  0  0  0  0  0  0  0  0  0  0
  -29.3969  -16.8409   20.0078 C   0  0  0  0  0  0  0  0  0  0  0  0
  -24.2085  -25.3324   19.2019 C   0  0  0  0  0  0  0  0  0  0  0  0
  -30.1392  -19.0657   20.1540 C   0  0  0  0  0  0  0  0  0  0  0  0
  -22.5785  -18.8732   21.1387 C   0  0  0  0  0  0  0  0  0  0  0  0
  -29.6445  -21.7122   20.8849 C   0  0  0  0  0  0  0  0  0  0  0  0
  -30.9536  -19.6927   21.0970 C   0  0  0  0  0  0  0  0  0  0  0  0
  -26.3290  -14.0084   20.6879 C   0  0  0  0  0  0  0  0  0  0  0  0
  -25.1915  -12.2126   21.2504 C   0  0  0  0  0  0  0  0  0  0  0  0
  -18.6441  -14.6466   23.9361 C   0  0  0  0  0  0  0  0  0  0  0  0
  -22.8890  -22.1963   20.3811 C   0  0  0  0  0  0  0  0  0  0  0  0
  -19.4536  -15.6352   23.5499 C   0  0  0  0  0  0  0  0  0  0  0  0
  -23.6291  -23.2951   20.1941 C   0  0  0  0  0  0  0  0  0  1  0  0
  -27.6425  -12.0493   21.7134 C   0  0  0  0  0  0  0  0  0  0  0  0
  -28.4665  -28.2582   20.8671 C   0  0  0  0  0  0  0  0  0  0  0  0
  -26.3775  -30.3308   22.2319 C   0  0  0  0  0  0  0  0  0  0  0  0
  -23.1344  -31.1543   22.9033 C   0  0  0  0  0  0  0  0  0  0  0  0
  -19.7961  -14.6304   21.3823 C   0  0  0  0  0  0  0  0  0  0  0  0
  -33.3618  -28.2933   19.4206 C   0  0  0  0  0  0  0  0  0  0  0  0
  -26.8777  -28.7002   18.9602 C   0  0  0  0  0  0  0  0  0  0  0  0
  -25.4374  -28.1151   21.4757 C   0  0  0  0  0  0  0  0  0  0  0  0
  -32.5218  -29.0466   20.4488 C   0  0  0  0  0  0  0  0  0  0  0  0
  -21.0298  -12.4808   18.9235 C   0  0  0  0  0  0  0  0  0  0  0  0
  -31.6885  -28.0717   21.2747 C   0  0  0  0  0  0  0  0  0  0  0  0
  -22.5427  -12.5031   19.1392 C   0  0  0  0  0  0  0  0  0  0  0  0
  -20.4307  -13.8705   19.1066 C   0  0  0  0  0  0  0  0  0  0  0  0
  -22.2415  -14.5152   20.6651 C   0  0  0  0  0  0  0  0  0  0  0  0
  -30.7094  -27.2937   20.3874 C   0  0  1  0  0  0  0  0  0  0  0  0
  -27.4044  -29.1659   20.3141 C   0  0  1  0  0  0  0  0  0  0  0  0
  -22.8976  -13.1297   20.4991 C   0  0  2  0  0  0  0  0  0  0  0  0
  -19.2392  -17.4705   20.0753 C   0  0  0  0  0  0  0  0  0  0  0  0
  -21.7428  -32.8859   24.0706 C   0  0  0  0  0  0  0  0  0  0  0  0
  -27.1097  -29.0997   24.9260 C   0  0  0  0  0  0  0  0  0  0  0  0
  -25.0597  -30.1647   25.8912 C   0  0  0  0  0  0  0  0  0  0  0  0
  -26.8760  -31.5895   24.9459 C   0  0  0  0  0  0  0  0  0  0  0  0
  -21.7777  -31.9265   20.3889 C   0  0  0  0  0  0  0  0  0  0  0  0
  -23.2084  -21.1514   21.4010 C   0  0  0  0  0  0  0  0  0  0  0  0
  -25.3997  -30.2625   23.3800 C   0  0  1  0  0  0  0  0  0  0  0  0
  -22.3753  -32.4605   22.7546 C   0  0  2  0  0  0  0  0  0  0  0  0
  -26.1093  -30.2615   24.7635 C   0  0  0  0  0  0  0  0  0  0  0  0
  -25.0658  -14.2974   20.3640 N   0  0  0  0  0  0  0  0  0  0  0  0
  -24.3983  -13.1859   20.7178 N   0  0  0  0  0  0  0  0  0  0  0  0
  -26.3522  -29.2592   21.3282 N   0  0  0  0  0  0  0  0  0  0  0  0
  -20.7944  -14.4332   20.4075 N   0  0  0  0  0  0  0  0  0  0  0  0
  -24.1358  -18.2037   22.8907 N   0  0  0  0  0  0  0  0  0  0  0  0
  -24.6825  -11.0310   21.6593 N   0  0  0  0  0  0  0  0  0  0  0  0
  -28.8718  -12.7178   21.6341 N   0  0  0  0  0  0  0  0  0  0  0  0
  -29.5702  -28.1190   20.0473 N   0  0  0  0  0  0  0  0  0  0  0  0
  -24.4667  -31.3674   23.1879 N   0  0  0  0  0  0  0  0  0  0  0  0
  -19.9872  -15.7178   22.2741 N   0  0  0  0  0  0  0  0  0  0  0  0
  -21.2949  -32.3189   21.7380 N   0  3  0  0  0  0  0  0  0  0  0  0
  -27.6066  -10.8830   22.1739 O   0  0  0  0  0  0  0  0  0  0  0  0
  -28.2979  -27.7250   21.9575 O   0  0  0  0  0  0  0  0  0  0  0  0
  -27.1310  -31.3029   22.1363 O   0  0  0  0  0  0  0  0  0  0  0  0
  -22.5983  -30.0550   22.7830 O   0  0  0  0  0  0  0  0  0  0  0  0
  -18.7943  -13.9059   21.4442 O   0  0  0  0  0  0  0  0  0  0  0  0
  -30.3839  -17.7524   19.7895 O   0  0  0  0  0  0  0  0  0  0  0  0
  -23.3610  -24.2702   19.2749 O   0  0  0  0  0  0  0  0  0  1  0  0
  -23.4069  -19.8976   20.7611 O   0  0  0  0  0  0  0  0  0  0  0  0
  -29.4078  -22.9833   21.2347 F   0  0  0  0  0  0  0  0  0  0  0  0
  -31.9758  -19.0293   21.6545 F   0  0  0  0  0  0  0  0  0  0  0  0
  1  2  1  0  0  0  0
  1  5  2  0  0  0  0
  2  6  2  0  0  0  0
  3  8  2  0  0  0  0
  3 17  1  0  0  0  0
  4  9  1  0  0  0  0
  4 17  2  0  0  0  0
  5 19  1  0  0  0  0
  6 21  1  0  0  0  0
  7 10  2  0  0  0  0
  7 20  1  0  0  0  0
  8 26  1  0  0  0  0
  9 26  2  0  0  0  0
 10 27  1  0  0  0  0
 11 12  2  0  0  0  0
 11 28  1  0  0  0  0
 12 30  1  0  0  0  0
 13 22  1  0  0  0  0
 13 27  2  0  0  0  0
 14 23  1  0  0  0  0
 14 29  2  0  0  0  0
 15 24  1  0  0  0  0
 15 25  2  0  0  0  0
 16 30  2  0  0  0  0
 16 31  1  0  0  0  0
 17 32  1  0  0  0  0
 18 32  1  0  0  0  0
 18 33  2  0  0  0  0
 18 38  1  0  0  0  0
 19 21  2  0  0  0  0
 19 43  1  0  0  0  0
 20 22  2  0  0  0  0
 20 44  1  0  0  0  0
 21 52  1  0  0  0  0
 22 45  1  0  0  0  0
 23 24  2  0  0  0  0
 23 55  1  0  0  0  0
 24 74  1  0  0  0  0
 25 29  1  0  0  0  0
 25 69  1  0  0  0  0
 26 81  1  0  0  0  0
 27 82  1  0  0  0  0
 28 31  2  0  0  0  0
 28 81  1  0  0  0  0
 29 83  1  0  0  0  0
 30 84  1  0  0  0  0
 31 85  1  0  0  0  0
 32 65  2  0  0  0  0
 33 66  1  0  0  0  0
 33 70  1  0  0  0  0
 34 36  2  0  0  0  0
 35 37  2  0  0  0  0
 35 61  1  0  0  0  0
 36 74  1  0  0  0  0
 37 82  1  0  0  0  0
 38 71  1  0  0  0  0
 38 76  2  0  0  0  0
 39 53  1  0  0  0  0
 39 72  1  0  0  0  0
 39 77  2  0  0  0  0
 40 62  1  0  0  0  0
 40 67  1  0  0  0  0
 40 78  2  0  0  0  0
 41 63  1  0  0  0  0
 41 73  1  0  0  0  0
 41 79  2  0  0  0  0
 42 68  1  0  0  0  0
 42 74  1  0  0  0  0
 42 80  2  0  0  0  0
 43 46  1  0  0  0  0
 44 53  1  0  0  0  0
 45 67  1  0  0  0  0
 46 48  1  0  0  0  0
 47 49  1  0  0  0  0
 47 50  1  0  0  0  0
 48 52  1  0  0  0  0
 49 54  1  0  0  0  0
 50 68  1  0  0  0  0
 51 54  1  0  0  0  0
 51 68  1  0  0  0  0
 52 72  1  0  0  0  0
 53 67  1  0  0  0  0
 54 66  1  0  0  0  0
 56 63  1  0  0  0  0
 57 64  1  0  0  0  0
 58 64  1  0  0  0  0
 59 64  1  0  0  0  0
 60 75  1  0  0  0  0
 61 83  1  0  0  0  0
 62 64  1  0  0  0  0
 62 73  1  0  0  0  0
 63 75  1  0  0  0  0
 65 66  1  0  0  0  0
M  CHG  1  75   1
M  ISO  4  37 101  42 100  74 100  82 101
M  END
> <Batch ID>
0111

> <Smiles>
C=C[100N:0](c1cc(N)c(OCC=[101CH:1][101O:1]c2ccc3c(c2)CN(C(=O)C(NC(=O)C(C)NC)C(C)(C)C)C(C(=O)NC2CCCc4ccccc42)C3)cc1C)[100C:0](=O)N1CCCC(n2nc(-c3ccc(Oc4ccc(F)cc4F)cc3)c(C(N)=O)c2N)C1

> <Shape>
0.240

> <Color>
0.063

> <Negative vol penalty>
0.000

$$$$

  -OEChem-04052301283D

 90 98  0     1  0  0  0  0  0999 V2000
  -17.2499  -26.3721   22.3114 C   0  0  0  0  0  0  0  0  0  0  0  0
  -18.4817  -25.7589   22.1060 C   0  0  0  0  0  0  0  0  0  0  0  0
  -24.2043  -13.9764   24.1280 C   0  0  0  0  0  0  0  0  0  0  0  0
  -23.4534  -15.6229   22.5273 C   0  0  0  0  0  0  0  0  0  0  0  0
  -17.1159  -27.7465   22.1185 C   0  0  0  0  0  0  0  0  0  0  0  0
  -19.5799  -26.5196   21.7065 C   0  0  0  0  0  0  0  0  0  0  0  0
  -25.4323  -25.6481   23.2863 C   0  0  0  0  0  0  0  0  0  0  0  0
  -23.6170  -14.7103   25.1585 C   0  0  0  0  0  0  0  0  0  0  0  0
  -22.8660  -16.3568   23.5579 C   0  0  0  0  0  0  0  0  0  0  0  0
  -26.4973  -25.0276   22.6348 C   0  0  0  0  0  0  0  0  0  0  0  0
  -23.8660  -18.5030   25.9713 C   0  0  0  0  0  0  0  0  0  0  0  0
  -24.0672  -19.8832   25.9802 C   0  0  0  0  0  0  0  0  0  0  0  0
  -27.2302  -27.1707   21.8045 C   0  0  0  0  0  0  0  0  0  0  0  0
  -30.2143  -18.1372   17.9264 C   0  0  0  0  0  0  0  0  0  0  0  0
  -21.6819  -20.2321   25.8201 C   0  0  0  0  0  0  0  0  0  0  0  0
  -24.1226  -14.4327   22.8124 C   0  0  0  0  0  0  0  0  0  0  0  0
  -24.1318  -12.6573   20.9806 C   0  0  0  0  0  0  0  0  0  0  0  0
  -18.2154  -28.5259   21.7258 C   0  0  0  0  0  0  0  0  0  0  0  0
  -25.2517  -27.0356   23.1927 C   0  0  0  0  0  0  0  0  0  0  0  0
  -19.4602  -27.9054   21.5069 C   0  0  0  0  0  0  0  0  0  0  0  0
  -26.1635  -27.8067   22.4579 C   0  0  0  0  0  0  0  0  0  0  0  0
  -29.0309  -17.4061   18.0292 C   0  0  0  0  0  0  0  0  0  0  0  0
  -29.2172  -19.9309   19.2013 C   0  0  0  0  0  0  0  0  0  0  0  0
  -22.9478  -15.9005   24.8735 C   0  0  0  0  0  0  0  0  0  0  0  0
  -27.3948  -25.7885   21.8914 C   0  0  0  0  0  0  0  0  0  0  0  0
  -22.5727  -17.9873   25.8867 C   0  0  0  0  0  0  0  0  0  0  0  0
  -27.9405  -17.9374   18.7180 C   0  0  0  0  0  0  0  0  0  0  0  0
  -28.0337  -19.1998   19.3041 C   0  0  0  0  0  0  0  0  0  0  0  0
  -22.9752  -20.7478   25.9046 C   0  0  0  0  0  0  0  0  0  0  0  0
  -30.3075  -19.3995   18.5125 C   0  0  0  0  0  0  0  0  0  0  0  0
  -21.4806  -18.8519   25.8111 C   0  0  0  0  0  0  0  0  0  0  0  0
  -24.7296  -13.6753   21.7475 C   0  0  0  0  0  0  0  0  0  0  0  0
  -25.1166  -12.2606   20.1092 C   0  0  0  0  0  0  0  0  0  0  0  0
  -23.4006  -16.9449   18.2505 C   0  0  0  0  0  0  0  0  0  0  0  0
  -24.6519  -16.5155   18.0535 C   0  0  0  0  0  0  0  0  0  0  0  0
  -28.9808  -22.1911   19.0355 C   0  0  0  0  0  0  0  0  0  0  0  0
  -22.8049  -12.1185   21.0496 C   0  0  0  0  0  0  0  0  0  0  0  0
  -29.0717  -23.5746   19.5925 C   0  0  0  0  0  0  0  0  0  0  0  0
  -22.9696  -28.9282   22.0464 C   0  0  0  0  0  0  0  0  0  0  0  0
  -29.9628  -15.0978   17.9699 C   0  0  0  0  0  0  0  0  0  0  0  0
  -24.8029  -31.2705   23.3406 C   0  0  0  0  0  0  0  0  0  0  0  0
  -27.8863  -32.2897   24.3898 C   0  0  0  0  0  0  0  0  0  0  0  0
  -18.0106  -30.0004   21.4840 C   0  0  0  0  0  0  0  0  0  0  0  0
  -24.1131  -27.6931   23.9233 C   0  0  0  0  0  0  0  0  0  0  0  0
  -26.0255  -29.3021   22.3426 C   0  0  0  0  0  0  0  0  0  0  0  0
  -19.3130  -30.7944   21.4233 C   0  0  0  0  0  0  0  0  0  0  0  0
  -29.8664  -11.9610   19.6994 C   0  0  0  0  0  0  0  0  0  0  0  0
  -20.3304  -30.0840   20.5361 C   0  0  0  0  0  0  0  0  0  0  0  0
  -28.4953  -11.9651   20.3742 C   0  0  0  0  0  0  0  0  0  0  0  0
  -30.4710  -13.3608   19.6548 C   0  0  0  0  0  0  0  0  0  0  0  0
  -28.2202  -14.3879   19.6819 C   0  0  0  0  0  0  0  0  0  0  0  0
  -20.6809  -28.7006   21.0973 C   0  0  1  0  0  0  0  0  0  0  0  0
  -23.7300  -29.0482   23.3368 C   0  0  1  0  0  0  0  0  0  0  0  0
  -27.5605  -12.9981   19.7203 C   0  0  2  0  0  0  0  0  0  0  0  0
  -29.0802  -34.2698   25.3652 C   0  0  0  0  0  0  0  0  0  0  0  0
  -24.7694  -32.6325   20.6105 C   0  0  0  0  0  0  0  0  0  0  0  0
  -26.6984  -34.0384   21.3657 C   0  0  0  0  0  0  0  0  0  0  0  0
  -24.5100  -34.1849   22.5540 C   0  0  0  0  0  0  0  0  0  0  0  0
  -28.6429  -30.7821   26.8215 C   0  0  0  0  0  0  0  0  0  0  0  0
  -26.8797  -19.4306   21.3707 C   0  0  0  0  0  0  0  0  0  0  0  0
  -25.8119  -17.4181   17.7933 C   0  0  0  0  0  0  0  0  0  0  0  0
  -28.2362  -23.8423   20.8141 C   0  0  0  0  0  0  0  0  0  1  0  0
  -28.9506  -16.0566   17.3951 C   0  0  2  0  0  0  0  0  0  0  0  0
  -25.9467  -32.1259   22.8517 C   0  0  1  0  0  0  0  0  0  0  0  0
  -28.3403  -32.9755   25.6657 C   0  0  2  0  0  0  0  0  0  0  0  0
  -25.4829  -33.2170   21.8459 C   0  0  0  0  0  0  0  0  0  0  0  0
  -25.9961  -13.9105   21.3946 N   0  0  0  0  0  0  0  0  0  0  0  0
  -29.3237  -21.2034   19.7872 N   0  0  0  0  0  0  0  0  0  0  0  0
  -26.2022  -13.0347   20.3963 N   0  0  0  0  0  0  0  0  0  0  0  0
  -24.8925  -29.8977   23.0699 N   0  0  0  0  0  0  0  0  0  0  0  0
  -29.5436  -14.3169   19.0472 N   0  0  0  0  0  0  0  0  0  0  0  0
  -25.1512  -11.3286   19.1332 N   0  0  0  0  0  0  0  0  0  0  0  0
  -21.9204  -12.6409   22.0030 N   0  0  0  0  0  0  0  0  0  0  0  0
  -21.6011  -28.8238   22.2074 N   0  0  0  0  0  0  0  0  0  0  0  0
  -26.6015  -32.6523   24.0444 N   0  0  0  0  0  0  0  0  0  0  0  0
  -29.1034  -16.0781   15.9042 N   0  3  0  0  0  0  0  0  0  0  0  0
  -29.2498  -32.0828   26.4382 N   0  3  0  0  0  0  0  0  0  0  0  0
  -22.4203  -11.1897   20.2993 O   0  0  0  0  0  0  0  0  0  0  0  0
  -29.8117  -24.3726   19.0394 O   0  0  0  0  0  0  0  0  0  0  0  0
  -23.5792  -28.9315   20.9834 O   0  0  0  0  0  0  0  0  0  0  0  0
  -31.0908  -15.0439   17.4730 O   0  0  0  0  0  0  0  0  0  0  0  0
  -23.8680  -31.7997   23.9468 O   0  0  0  0  0  0  0  0  0  0  0  0
  -28.6012  -31.5132   23.7603 O   0  0  0  0  0  0  0  0  0  0  0  0
  -22.3744  -16.6168   25.8788 O   0  0  0  0  0  0  0  0  0  0  0  0
  -26.9651  -19.7161   19.9768 O   0  0  0  0  0  0  0  0  0  0  0  0
  -26.7818  -17.2253   18.8200 O   0  0  0  0  0  0  0  0  0  0  0  0
  -28.4348  -25.1853   21.2539 O   0  0  0  0  0  0  0  0  0  1  0  0
  -23.1686  -22.0732   25.9148 F   0  0  0  0  0  0  0  0  0  0  0  0
  -31.4493  -20.0942   18.4083 F   0  0  0  0  0  0  0  0  0  0  0  0
  -20.2358  -18.3624   25.7309 F   0  0  0  0  0  0  0  0  0  0  0  0
  1  2  1  0  0  0  0
  1  5  2  0  0  0  0
  2  6  2  0  0  0  0
  3  8  2  0  0  0  0
  3 16  1  0  0  0  0
  4  9  1  0  0  0  0
  4 16  2  0  0  0  0
  5 18  1  0  0  0  0
  6 20  1  0  0  0  0
  7 10  2  0  0  0  0
  7 19  1  0  0  0  0
  8 24  1  0  0  0  0
  9 24  2  0  0  0  0
 10 25  1  0  0  0  0
 11 12  2  0  0  0  0
 11 26  1  0  0  0  0
 12 29  1  0  0  0  0
 13 21  1  0  0  0  0
 13 25  2  0  0  0  0
 14 22  2  0  0  0  0
 14 30  1  0  0  0  0
 15 29  2  0  0  0  0
 15 31  1  0  0  0  0
 16 32  1  0  0  0  0
 17 32  1  0  0  0  0
 17 33  2  0  0  0  0
 17 37  1  0  0  0  0
 18 20  2  0  0  0  0
 18 43  1  0  0  0  0
 19 21  2  0  0  0  0
 19 44  1  0  0  0  0
 20 52  1  0  0  0  0
 21 45  1  0  0  0  0
 22 27  1  0  0  0  0
 22 63  1  0  0  0  0
 23 28  1  0  0  0  0
 23 30  2  0  0  0  0
 23 68  1  0  0  0  0
 24 84  1  0  0  0  0
 25 87  1  0  0  0  0
 26 31  2  0  0  0  0
 26 84  1  0  0  0  0
 27 28  2  0  0  0  0
 27 86  1  0  0  0  0
 28 85  1  0  0  0  0
 29 88  1  0  0  0  0
 30 89  1  0  0  0  0
 31 90  1  0  0  0  0
 32 67  2  0  0  0  0
 33 69  1  0  0  0  0
 33 72  1  0  0  0  0
 34 35  2  0  0  0  0
 35 61  1  0  0  0  0
 36 38  1  0  0  0  0
 36 68  2  0  0  0  0
 37 73  1  0  0  0  0
 37 78  2  0  0  0  0
 38 62  1  0  0  0  0
 38 79  2  0  0  0  0
 39 53  1  0  0  0  0
 39 74  1  0  0  0  0
 39 80  2  0  0  0  0
 40 63  1  0  0  0  0
 40 71  1  0  0  0  0
 40 81  2  0  0  0  0
 41 64  1  0  0  0  0
 41 70  1  0  0  0  0
 41 82  2  0  0  0  0
 42 65  1  0  0  0  0
 42 75  1  0  0  0  0
 42 83  2  0  0  0  0
 43 46  1  0  0  0  0
 44 53  1  0  0  0  0
 45 70  1  0  0  0  0
 46 48  1  0  0  0  0
 47 49  1  0  0  0  0
 47 50  1  0  0  0  0
 48 52  1  0  0  0  0
 49 54  1  0  0  0  0
 50 71  1  0  0  0  0
 51 54  1  0  0  0  0
 51 71  1  0  0  0  0
 52 74  1  0  0  0  0
 53 70  1  0  0  0  0
 54 69  1  0  0  0  0
 55 65  1  0  0  0  0
 56 66  1  0  0  0  0
 57 66  1  0  0  0  0
 58 66  1  0  0  0  0
 59 77  1  0  0  0  0
 60 85  1  0  0  0  0
 61 86  1  0  0  0  0
 62 87  1  0  0  0  0
 63 76  1  0  0  0  0
 64 66  1  0  0  0  0
 64 75  1  0  0  0  0
 65 77  1  0  0  0  0
 67 69  1  0  0  0  0
M  CHG  2  76   1  77   1
M  ISO  4  40 100  62 101  63 100  87 101
M  END
> <Batch ID>
0111

> <Smiles>
C=CCOc1c([100C:0](=N)[100C:0](=O)N2CCCC(n3nc(-c4ccc(Oc5ccc(F)cc5F)cc4)c(C(N)=O)c3N)C2)cc(F)c(NCC(=O)[101CH2:1][101O:1]c2ccc3c(c2)CN(C(=O)C(NC(=O)C(C)NC)C(C)(C)C)C(C(=O)NC2CCCc4ccccc42)C3)c1OC

> <Shape>
0.262

> <Color>
0.095

> <Negative vol penalty>
0.000

$$$$

  -OEChem-04052301283D

 90 98  0     1  0  0  0  0  0999 V2000
  -29.0447  -13.3743   21.5715 C   0  0  0  0  0  0  0  0  0  0  0  0
  -28.3618  -14.5485   21.2710 C   0  0  0  0  0  0  0  0  0  0  0  0
  -22.2377  -28.1319   21.0275 C   0  0  0  0  0  0  0  0  0  0  0  0
  -23.4886  -27.5646   23.0151 C   0  0  0  0  0  0  0  0  0  0  0  0
  -28.3725  -12.1531   21.5494 C   0  0  0  0  0  0  0  0  0  0  0  0
  -27.0063  -14.5019   20.9471 C   0  0  0  0  0  0  0  0  0  0  0  0
  -24.3244  -18.1026   23.2897 C   0  0  0  0  0  0  0  0  0  0  0  0
  -21.0474  -28.0299   21.7474 C   0  0  0  0  0  0  0  0  0  0  0  0
  -22.2983  -27.4627   23.7351 C   0  0  0  0  0  0  0  0  0  0  0  0
  -24.3976  -19.3929   22.7667 C   0  0  0  0  0  0  0  0  0  0  0  0
  -19.2905  -29.9158   23.9359 C   0  0  0  0  0  0  0  0  0  0  0  0
  -18.3394  -30.9211   23.7617 C   0  0  0  0  0  0  0  0  0  0  0  0
  -22.2819  -19.0569   21.6576 C   0  0  0  0  0  0  0  0  0  0  0  0
  -30.3064  -20.3026   21.9644 C   0  0  0  0  0  0  0  0  0  0  0  0
  -16.7495  -29.2805   22.9756 C   0  0  0  0  0  0  0  0  0  0  0  0
  -23.4583  -27.8992   21.6613 C   0  0  0  0  0  0  0  0  0  0  0  0
  -25.4826  -29.1534   20.7463 C   0  0  0  0  0  0  0  0  0  0  0  0
  -27.0058  -12.0926   21.2345 C   0  0  0  0  0  0  0  0  0  0  0  0
  -23.2328  -17.2745   22.9912 C   0  0  0  0  0  0  0  0  0  0  0  0
  -26.3154  -13.2785   20.9195 C   0  0  0  0  0  0  0  0  0  0  0  0
  -22.1960  -17.7574   22.1801 C   0  0  0  0  0  0  0  0  0  0  0  0
  -30.7246  -23.0237   22.4157 C   0  0  0  0  0  0  0  0  0  0  0  0
  -31.0813  -20.7190   23.0469 C   0  0  0  0  0  0  0  0  0  0  0  0
  -29.9498  -22.6073   21.3331 C   0  0  0  0  0  0  0  0  0  0  0  0
  -21.0777  -27.6953   23.1012 C   0  0  0  0  0  0  0  0  0  0  0  0
  -23.3777  -19.8692   21.9481 C   0  0  0  0  0  0  0  0  0  0  0  0
  -18.9712  -28.5929   23.6299 C   0  0  0  0  0  0  0  0  0  0  0  0
  -29.7407  -21.2467   21.1075 C   0  0  0  0  0  0  0  0  0  0  0  0
  -31.2904  -22.0795   23.2726 C   0  0  0  0  0  0  0  0  0  0  0  0
  -17.0689  -30.6034   23.2815 C   0  0  0  0  0  0  0  0  0  0  0  0
  -17.7007  -28.2752   23.1498 C   0  0  0  0  0  0  0  0  0  0  0  0
  -24.6882  -28.0039   20.9180 C   0  0  0  0  0  0  0  0  0  0  0  0
  -26.5320  -28.7322   19.9667 C   0  0  0  0  0  0  0  0  0  0  0  0
  -25.2892  -30.4829   21.2469 C   0  0  0  0  0  0  0  0  0  0  0  0
  -22.8732  -14.4819   21.5161 C   0  0  0  0  0  0  0  0  0  0  0  0
  -19.8018  -14.7932   22.5121 C   0  0  0  0  0  0  0  0  0  0  0  0
  -26.0848  -20.7715   19.7717 C   0  0  0  0  0  0  0  0  0  0  0  0
  -17.2699  -16.8601   23.4943 C   0  0  0  0  0  0  0  0  0  0  0  0
  -29.0937  -23.4035   19.1017 C   0  0  0  0  0  0  0  0  0  0  0  0
  -26.3330  -10.7440   21.1773 C   0  0  0  0  0  0  0  0  0  0  0  0
  -23.1558  -15.8946   23.5850 C   0  0  0  0  0  0  0  0  0  0  0  0
  -20.9927  -16.9153   21.8460 C   0  0  0  0  0  0  0  0  0  0  0  0
  -24.8086  -10.8227   21.1901 C   0  0  0  0  0  0  0  0  0  0  0  0
  -27.6449  -25.4987   16.6140 C   0  0  0  0  0  0  0  0  0  0  0  0
  -24.3204  -11.8802   20.2051 C   0  0  0  0  0  0  0  0  0  0  0  0
  -26.7993  -26.4873   17.4202 C   0  0  0  0  0  0  0  0  0  0  0  0
  -27.6191  -24.0994   17.2264 C   0  0  0  0  0  0  0  0  0  0  0  0
  -27.1300  -25.0265   19.4559 C   0  0  0  0  0  0  0  0  0  0  0  0
  -24.8389  -13.2717   20.5876 C   0  0  1  0  0  0  0  0  0  0  0  0
  -22.2476  -14.9552   22.7976 C   0  0  1  0  0  0  0  0  0  0  0  0
  -27.1773  -26.4646   18.9143 C   0  0  2  0  0  0  0  0  0  0  0  0
  -30.9555  -24.4811   22.6659 C   0  0  0  0  0  0  0  0  0  0  0  0
  -14.8645  -16.8268   24.2084 C   0  0  0  0  0  0  0  0  0  0  0  0
  -21.7114  -22.3827   20.3272 C   0  0  0  0  0  0  0  0  0  0  0  0
  -18.9500  -14.3627   19.6140 C   0  0  0  0  0  0  0  0  0  0  0  0
  -16.6949  -15.2691   20.2153 C   0  0  0  0  0  0  0  0  0  0  0  0
  -17.5308  -13.1863   21.3043 C   0  0  0  0  0  0  0  0  0  0  0  0
  -17.9187  -18.0173   26.1398 C   0  0  0  0  0  0  0  0  0  0  0  0
  -31.3664  -22.7197   25.5617 C   0  0  0  0  0  0  0  0  0  0  0  0
  -27.0039  -19.6191   19.3990 C   0  0  0  0  0  0  0  0  0  0  0  0
  -23.8854  -21.7568   19.1564 C   0  0  0  0  0  0  0  0  0  0  0  0
  -28.2828  -19.5897   20.2217 C   0  0  0  0  0  0  0  0  0  0  0  0
  -18.5495  -15.4115   21.9390 C   0  0  1  0  0  0  0  0  0  0  0  0
  -16.3129  -16.7919   24.6706 C   0  0  2  0  0  0  0  0  0  0  0  0
  -22.8208  -21.3506   20.1730 C   0  0  1  0  0  0  0  0  0  1  0  0
  -17.9548  -14.5729   20.7727 C   0  0  0  0  0  0  0  0  0  0  0  0
  -25.1900  -26.9329   20.2972 N   0  0  0  0  0  0  0  0  0  0  0  0
  -26.3109  -27.4077   19.7278 N   0  0  0  0  0  0  0  0  0  0  0  0
  -20.9665  -15.5709   22.4455 N   0  0  0  0  0  0  0  0  0  0  0  0
  -27.9920  -24.1554   18.6416 N   0  0  0  0  0  0  0  0  0  0  0  0
  -31.6464  -19.7511   23.9060 N   0  0  0  0  0  0  0  0  0  0  0  0
  -27.6131  -29.3693   19.4690 N   0  0  0  0  0  0  0  0  0  0  0  0
  -24.1579  -30.7432   22.0323 N   0  0  0  0  0  0  0  0  0  0  0  0
  -29.3732  -23.5616   20.4587 N   0  0  0  0  0  0  0  0  0  0  0  0
  -24.0699  -13.8128   21.6878 N   0  0  0  0  0  0  0  0  0  0  0  0
  -24.9249  -20.7735   19.0045 N   0  0  0  0  0  0  0  0  0  0  0  0
  -17.6383  -15.6036   23.0621 N   0  0  0  0  0  0  0  0  0  0  0  0
  -16.5403  -17.9420   25.5908 N   0  3  0  0  0  0  0  0  0  0  0  0
  -26.0871  -31.4164   20.9913 O   0  0  0  0  0  0  0  0  0  0  0  0
  -22.3109  -14.7059   20.4505 O   0  0  0  0  0  0  0  0  0  0  0  0
  -19.7470  -13.6648   23.0074 O   0  0  0  0  0  0  0  0  0  0  0  0
  -26.3501  -21.5901   20.6478 O   0  0  0  0  0  0  0  0  0  0  0  0
  -17.6497  -17.9218   23.0051 O   0  0  0  0  0  0  0  0  0  0  0  0
  -29.7581  -22.6943   18.3417 O   0  0  0  0  0  0  0  0  0  0  0  0
  -19.9164  -27.5959   23.8042 O   0  0  0  0  0  0  0  0  0  0  0  0
  -32.0479  -22.4881   24.3318 O   0  0  0  0  0  0  0  0  0  0  0  0
  -28.9834  -20.8150   20.0502 O   0  0  0  0  0  0  0  0  0  0  0  0
  -23.4470  -21.1280   21.4358 O   0  0  0  0  0  0  0  0  0  1  0  0
  -16.1551  -31.5686   23.1157 F   0  0  0  0  0  0  0  0  0  0  0  0
  -17.3878  -27.0059   22.8552 F   0  0  0  0  0  0  0  0  0  0  0  0
  1  2  1  0  0  0  0
  1  5  2  0  0  0  0
  2  6  2  0  0  0  0
  3  8  2  0  0  0  0
  3 16  1  0  0  0  0
  4  9  1  0  0  0  0
  4 16  2  0  0  0  0
  5 18  1  0  0  0  0
  6 20  1  0  0  0  0
  7 10  2  0  0  0  0
  7 19  1  0  0  0  0
  8 25  1  0  0  0  0
  9 25  2  0  0  0  0
 10 26  1  0  0  0  0
 11 12  2  0  0  0  0
 11 27  1  0  0  0  0
 12 30  1  0  0  0  0
 13 21  1  0  0  0  0
 13 26  2  0  0  0  0
 14 23  2  0  0  0  0
 14 28  1  0  0  0  0
 15 30  2  0  0  0  0
 15 31  1  0  0  0  0
 16 32  1  0  0  0  0
 17 32  1  0  0  0  0
 17 33  2  0  0  0  0
 17 34  1  0  0  0  0
 18 20  2  0  0  0  0
 18 40  1  0  0  0  0
 19 21  2  0  0  0  0
 19 41  1  0  0  0  0
 20 49  1  0  0  0  0
 21 42  1  0  0  0  0
 22 24  1  0  0  0  0
 22 29  2  0  0  0  0
 22 52  1  0  0  0  0
 23 29  1  0  0  0  0
 23 71  1  0  0  0  0
 24 28  2  0  0  0  0
 24 74  1  0  0  0  0
 25 85  1  0  0  0  0
 26 88  1  0  0  0  0
 27 31  2  0  0  0  0
 27 85  1  0  0  0  0
 28 87  1  0  0  0  0
 29 86  1  0  0  0  0
 30 89  1  0  0  0  0
 31 90  1  0  0  0  0
 32 67  2  0  0  0  0
 33 68  1  0  0  0  0
 33 72  1  0  0  0  0
 34 73  1  0  0  0  0
 34 79  2  0  0  0  0
 35 50  1  0  0  0  0
 35 75  1  0  0  0  0
 35 80  2  0  0  0  0
 36 63  1  0  0  0  0
 36 69  1  0  0  0  0
 36 81  2  0  0  0  0
 37 60  1  0  0  0  0
 37 76  1  0  0  0  0
 37 82  2  0  0  0  0
 38 64  1  0  0  0  0
 38 77  1  0  0  0  0
 38 83  2  0  0  0  0
 39 70  1  0  0  0  0
 39 74  1  0  0  0  0
 39 84  2  0  0  0  0
 40 43  1  0  0  0  0
 41 50  1  0  0  0  0
 42 69  1  0  0  0  0
 43 45  1  0  0  0  0
 44 46  1  0  0  0  0
 44 47  1  0  0  0  0
 45 49  1  0  0  0  0
 46 51  1  0  0  0  0
 47 70  1  0  0  0  0
 48 51  1  0  0  0  0
 48 70  1  0  0  0  0
 49 75  1  0  0  0  0
 50 69  1  0  0  0  0
 51 68  1  0  0  0  0
 53 64  1  0  0  0  0
 54 65  1  0  0  0  0
 55 66  1  0  0  0  0
 56 66  1  0  0  0  0
 57 66  1  0  0  0  0
 58 78  1  0  0  0  0
 59 86  1  0  0  0  0
 60 62  1  0  0  0  0
 61 65  1  0  0  0  0
 61 76  1  0  0  0  0
 62 87  1  0  0  0  0
 63 66  1  0  0  0  0
 63 77  1  0  0  0  0
 64 78  1  0  0  0  0
 65 88  1  0  0  0  0
 67 68  1  0  0  0  0
M  CHG  1  78   1
M  ISO  4  39 100  65 101  74 100  88 101
M  END
> <Batch ID>
0111

> <Smiles>
CNC(C)C(=O)NC(C(=O)N1Cc2cc([101O:1][101CH:1](C)CNC(=O)CCOc3cc(N)c(OC)c(C)c3[100NH:0][100C:0](=O)N3CCCC(n4nc(-c5ccc(Oc6ccc(F)cc6F)cc5)c(C(N)=O)c4N)C3)ccc2CC1C(=O)NC1CCCc2ccccc21)C(C)(C)C

> <Shape>
0.224

> <Color>
0.078

> <Negative vol penalty>
0.000

$$$$

  -OEChem-04052301283D

 84 92  0     1  0  0  0  0  0999 V2000
  -23.1152  -29.1678   24.1673 C   0  0  0  0  0  0  0  0  0  0  0  0
  -23.6391  -27.8935   23.9751 C   0  0  0  0  0  0  0  0  0  0  0  0
  -22.0656  -20.5323   21.3654 C   0  0  0  0  0  0  0  0  0  0  0  0
  -24.4610  -20.6199   21.6674 C   0  0  0  0  0  0  0  0  0  0  0  0
  -23.4425  -30.1955   23.2838 C   0  0  0  0  0  0  0  0  0  0  0  0
  -24.4900  -27.6458   22.8985 C   0  0  0  0  0  0  0  0  0  0  0  0
  -29.2559  -23.8016   22.7811 C   0  0  0  0  0  0  0  0  0  0  0  0
  -28.1677  -11.8659   19.5362 C   0  0  0  0  0  0  0  0  0  0  0  0
  -21.9074  -21.5262   22.3311 C   0  0  0  0  0  0  0  0  0  0  0  0
  -24.3029  -21.6139   22.6331 C   0  0  0  0  0  0  0  0  0  0  0  0
  -29.3991  -22.4994   22.3041 C   0  0  0  0  0  0  0  0  0  0  0  0
  -22.2127  -24.8884   22.5184 C   0  0  0  0  0  0  0  0  0  0  0  0
  -29.4185  -11.4589   19.0720 C   0  0  0  0  0  0  0  0  0  0  0  0
  -21.3308  -25.9317   22.2366 C   0  0  0  0  0  0  0  0  0  0  0  0
  -30.3946  -13.5045   19.9088 C   0  0  0  0  0  0  0  0  0  0  0  0
  -30.2768  -23.3623   20.2294 C   0  0  0  0  0  0  0  0  0  0  0  0
  -20.0140  -25.3421   24.1745 C   0  0  0  0  0  0  0  0  0  0  0  0
  -23.3424  -20.0791   21.0335 C   0  0  0  0  0  0  0  0  0  0  0  0
  -29.1437  -13.9114   20.3729 C   0  0  0  0  0  0  0  0  0  0  0  0
  -23.6747  -19.2318   18.6504 C   0  0  0  0  0  0  0  0  0  0  0  0
  -24.3055  -29.9626   22.2013 C   0  0  0  0  0  0  0  0  0  0  0  0
  -29.6125  -24.8962   21.9804 C   0  0  0  0  0  0  0  0  0  0  0  0
  -24.8281  -28.6710   21.9988 C   0  0  0  0  0  0  0  0  0  0  0  0
  -30.1395  -24.6773   20.6996 C   0  0  0  0  0  0  0  0  0  0  0  0
  -28.0303  -13.0922   20.1866 C   0  0  0  0  0  0  0  0  0  0  0  0
  -23.0261  -22.0670   22.9650 C   0  0  0  0  0  0  0  0  0  0  0  0
  -29.9069  -22.2797   21.0270 C   0  0  0  0  0  0  0  0  0  0  0  0
  -21.9952  -24.0719   23.6283 C   0  0  0  0  0  0  0  0  0  0  0  0
  -30.5319  -12.2782   19.2583 C   0  0  0  0  0  0  0  0  0  0  0  0
  -20.2314  -26.1585   23.0646 C   0  0  0  0  0  0  0  0  0  0  0  0
  -20.8959  -24.2988   24.4563 C   0  0  0  0  0  0  0  0  0  0  0  0
  -23.5064  -19.0519   20.0364 C   0  0  0  0  0  0  0  0  0  0  0  0
  -23.7853  -17.9576   18.1497 C   0  0  0  0  0  0  0  0  0  0  0  0
  -29.0330  -15.2121   21.0547 C   0  0  0  0  0  0  0  0  0  0  0  0
  -23.7266  -20.4425   17.8840 C   0  0  0  0  0  0  0  0  0  0  0  0
  -28.0513  -27.3728   20.7423 C   0  0  0  0  0  0  0  0  0  0  0  0
  -29.8889  -18.6146   20.7511 C   0  0  0  0  0  0  0  0  0  0  0  0
  -31.0258  -28.2962   19.8357 C   0  0  0  0  0  0  0  0  0  0  0  0
  -34.2380  -27.4068   19.1026 C   0  0  0  0  0  0  0  0  0  0  0  0
  -25.5559  -12.7734   20.5359 C   0  0  0  0  0  0  0  0  0  0  0  0
  -24.5928  -31.0934   21.2456 C   0  0  0  0  0  0  0  0  0  0  0  0
  -29.4769  -26.2937   22.5197 C   0  0  0  0  0  0  0  0  0  0  0  0
  -30.5562  -25.8175   19.8081 C   0  0  0  0  0  0  0  0  0  0  0  0
  -25.7991  -30.8386   20.3455 C   0  0  0  0  0  0  0  0  0  0  0  0
  -22.4044  -13.4567   19.0265 C   0  0  0  0  0  0  0  0  0  0  0  0
  -25.7366  -29.4338   19.7542 C   0  0  0  0  0  0  0  0  0  0  0  0
  -22.3473  -14.9854   18.9825 C   0  0  0  0  0  0  0  0  0  0  0  0
  -23.0890  -12.9510   20.2951 C   0  0  0  0  0  0  0  0  0  0  0  0
  -24.3600  -15.0504   20.5095 C   0  0  0  0  0  0  0  0  0  0  0  0
  -25.7741  -28.3689   20.8569 C   0  0  1  0  0  0  0  0  0  0  0  0
  -29.3903  -27.3514   21.4237 C   0  0  1  0  0  0  0  0  0  0  0  0
  -23.7371  -15.6083   19.2194 C   0  0  2  0  0  0  0  0  0  0  0  0
  -36.4289  -28.3763   18.3561 C   0  0  0  0  0  0  0  0  0  0  0  0
  -29.9496  -28.5308   16.9902 C   0  0  0  0  0  0  0  0  0  0  0  0
  -32.3157  -28.5607   16.1722 C   0  0  0  0  0  0  0  0  0  0  0  0
  -31.4949  -30.3736   17.6763 C   0  0  0  0  0  0  0  0  0  0  0  0
  -35.6021  -26.5294   21.5782 C   0  0  0  0  0  0  0  0  0  0  0  0
  -29.5251  -17.3948   21.5688 C   0  0  0  0  0  0  0  0  0  0  0  0
  -29.6541  -19.9494   21.4292 C   0  0  0  0  0  0  0  0  0  1  0  0
  -31.8943  -28.0635   18.6230 C   0  0  1  0  0  0  0  0  0  0  0  0
  -35.5696  -27.9840   19.5479 C   0  0  2  0  0  0  0  0  0  0  0  0
  -31.4040  -28.8605   17.3812 C   0  0  0  0  0  0  0  0  0  0  0  0
  -23.5090  -17.7649   20.3934 N   0  0  0  0  0  0  0  0  0  0  0  0
  -29.8084  -16.2033   20.7733 N   0  0  0  0  0  0  0  0  0  0  0  0
  -23.6802  -17.1244   19.2244 N   0  0  0  0  0  0  0  0  0  0  0  0
  -30.3985  -27.1657   20.3781 N   0  0  0  0  0  0  0  0  0  0  0  0
  -24.4019  -13.5809   20.4514 N   0  0  0  0  0  0  0  0  0  0  0  0
  -23.9611  -17.4798   16.8994 N   0  0  0  0  0  0  0  0  0  0  0  0
  -23.5963  -21.6651   18.5566 N   0  0  0  0  0  0  0  0  0  0  0  0
  -26.7500  -13.4845   20.6500 N   0  0  0  0  0  0  0  0  0  0  0  0
  -27.1243  -28.1985   21.3493 N   0  0  0  0  0  0  0  0  0  0  0  0
  -33.2593  -28.3756   19.0326 N   0  0  0  0  0  0  0  0  0  0  0  0
  -36.3208  -26.9861   20.3608 N   0  3  0  0  0  0  0  0  0  0  0  0
  -23.8674  -20.4395   16.6375 O   0  0  0  0  0  0  0  0  0  0  0  0
  -27.8728  -26.6918   19.7393 O   0  0  0  0  0  0  0  0  0  0  0  0
  -30.3454  -18.5372   19.6112 O   0  0  0  0  0  0  0  0  0  0  0  0
  -30.9139  -29.4379   20.2893 O   0  0  0  0  0  0  0  0  0  0  0  0
  -34.0826  -26.2164   18.8394 O   0  0  0  0  0  0  0  0  0  0  0  0
  -25.4921  -11.5426   20.4817 O   0  0  0  0  0  0  0  0  0  0  0  0
  -22.8722  -23.0371   23.9072 O   0  0  0  0  0  0  0  0  0  0  0  0
  -30.0471  -21.0097   20.5587 O   0  0  0  0  0  0  0  0  0  1  0  0
  -31.7334  -11.8872   18.8134 F   0  0  0  0  0  0  0  0  0  0  0  0
  -19.3855  -27.1613   22.7947 F   0  0  0  0  0  0  0  0  0  0  0  0
  -20.6825  -23.5185   25.5247 F   0  0  0  0  0  0  0  0  0  0  0  0
  1  2  1  0  0  0  0
  1  5  2  0  0  0  0
  2  6  2  0  0  0  0
  3  9  2  0  0  0  0
  3 18  1  0  0  0  0
  4 10  1  0  0  0  0
  4 18  2  0  0  0  0
  5 21  1  0  0  0  0
  6 23  1  0  0  0  0
  7 11  2  0  0  0  0
  7 22  1  0  0  0  0
  8 13  2  0  0  0  0
  8 25  1  0  0  0  0
  9 26  1  0  0  0  0
 10 26  2  0  0  0  0
 11 27  1  0  0  0  0
 12 14  2  0  0  0  0
 12 28  1  0  0  0  0
 13 29  1  0  0  0  0
 14 30  1  0  0  0  0
 15 19  1  0  0  0  0
 15 29  2  0  0  0  0
 16 24  1  0  0  0  0
 16 27  2  0  0  0  0
 17 30  2  0  0  0  0
 17 31  1  0  0  0  0
 18 32  1  0  0  0  0
 19 25  2  0  0  0  0
 19 34  1  0  0  0  0
 20 32  1  0  0  0  0
 20 33  2  0  0  0  0
 20 35  1  0  0  0  0
 21 23  2  0  0  0  0
 21 41  1  0  0  0  0
 22 24  2  0  0  0  0
 22 42  1  0  0  0  0
 23 50  1  0  0  0  0
 24 43  1  0  0  0  0
 25 70  1  0  0  0  0
 26 80  1  0  0  0  0
 27 81  1  0  0  0  0
 28 31  2  0  0  0  0
 28 80  1  0  0  0  0
 29 82  1  0  0  0  0
 30 83  1  0  0  0  0
 31 84  1  0  0  0  0
 32 63  2  0  0  0  0
 33 65  1  0  0  0  0
 33 68  1  0  0  0  0
 34 64  2  0  0  0  0
 35 69  1  0  0  0  0
 35 74  2  0  0  0  0
 36 51  1  0  0  0  0
 36 71  1  0  0  0  0
 36 75  2  0  0  0  0
 37 58  1  0  0  0  0
 37 59  1  0  0  0  0
 37 76  2  0  0  0  0
 38 60  1  0  0  0  0
 38 66  1  0  0  0  0
 38 77  2  0  0  0  0
 39 61  1  0  0  0  0
 39 72  1  0  0  0  0
 39 78  2  0  0  0  0
 40 67  1  0  0  0  0
 40 70  1  0  0  0  0
 40 79  2  0  0  0  0
 41 44  1  0  0  0  0
 42 51  1  0  0  0  0
 43 66  1  0  0  0  0
 44 46  1  0  0  0  0
 45 47  1  0  0  0  0
 45 48  1  0  0  0  0
 46 50  1  0  0  0  0
 47 52  1  0  0  0  0
 48 67  1  0  0  0  0
 49 52  1  0  0  0  0
 49 67  1  0  0  0  0
 50 71  1  0  0  0  0
 51 66  1  0  0  0  0
 52 65  1  0  0  0  0
 53 61  1  0  0  0  0
 54 62  1  0  0  0  0
 55 62  1  0  0  0  0
 56 62  1  0  0  0  0
 57 73  1  0  0  0  0
 58 64  1  0  0  0  0
 59 81  1  0  0  0  0
 60 62  1  0  0  0  0
 60 72  1  0  0  0  0
 61 73  1  0  0  0  0
 63 65  1  0  0  0  0
M  CHG  1  73   1
M  ISO  4  40 100  59 101  70 100  81 101
M  END
> <Batch ID>
0111

> <Smiles>
CNC(C)C(=O)NC(C(=O)N1Cc2cc([101O:1][101CH2:1]C(=O)CN=Cc3cc(F)ccc3[100NH:0][100C:0](=O)N3CCCC(n4nc(-c5ccc(Oc6ccc(F)cc6F)cc5)c(C(N)=O)c4N)C3)ccc2CC1C(=O)NC1CCCc2ccccc21)C(C)(C)C

> <Shape>
0.225

> <Color>
0.076

> <Negative vol penalty>
0.000

$$$$

  -OEChem-04052301283D

 88 97  0     1  0  0  0  0  0999 V2000
  -16.5817  -30.0785   23.5063 C   0  0  0  0  0  0  0  0  0  0  0  0
  -17.6943  -30.8396   23.8465 C   0  0  0  0  0  0  0  0  0  0  0  0
  -21.5390  -11.2669   23.7332 C   0  0  0  0  0  0  0  0  0  0  0  0
  -21.4558  -13.6543   23.3720 C   0  0  0  0  0  0  0  0  0  0  0  0
  -16.7513  -28.8007   22.9777 C   0  0  0  0  0  0  0  0  0  0  0  0
  -18.9769  -30.3279   23.6472 C   0  0  0  0  0  0  0  0  0  0  0  0
  -27.0720  -29.0885   22.1187 C   0  0  0  0  0  0  0  0  0  0  0  0
  -29.4000  -20.3464   21.0774 C   0  0  0  0  0  0  0  0  0  0  0  0
  -29.1378  -19.1434   21.7329 C   0  0  0  0  0  0  0  0  0  0  0  0
  -20.2654  -11.3083   24.3006 C   0  0  0  0  0  0  0  0  0  0  0  0
  -20.1822  -13.6957   23.9393 C   0  0  0  0  0  0  0  0  0  0  0  0
  -27.8059  -28.1035   21.4592 C   0  0  0  0  0  0  0  0  0  0  0  0
  -17.0138  -12.9918   22.9979 C   0  0  0  0  0  0  0  0  0  0  0  0
  -16.0379  -13.7423   22.3421 C   0  0  0  0  0  0  0  0  0  0  0  0
  -27.2264  -20.2480   20.0272 C   0  0  0  0  0  0  0  0  0  0  0  0
  -26.1074  -27.9909   19.7499 C   0  0  0  0  0  0  0  0  0  0  0  0
  -15.7838  -15.1274   24.3052 C   0  0  0  0  0  0  0  0  0  0  0  0
  -22.1342  -12.4399   23.2690 C   0  0  0  0  0  0  0  0  0  0  0  0
  -26.9642  -19.0450   20.6827 C   0  0  0  0  0  0  0  0  0  0  0  0
  -23.8514  -11.6721   21.5458 C   0  0  0  0  0  0  0  0  0  0  0  0
  -18.0368  -28.2689   22.7837 C   0  0  0  0  0  0  0  0  0  0  0  0
  -25.8429  -29.5250   21.6037 C   0  0  0  0  0  0  0  0  0  0  0  0
  -19.1693  -29.0496   23.0925 C   0  0  0  0  0  0  0  0  0  0  0  0
  -25.3611  -28.9834   20.4035 C   0  0  0  0  0  0  0  0  0  0  0  0
  -28.4442  -20.8988   20.2246 C   0  0  0  0  0  0  0  0  0  0  0  0
  -27.9199  -18.4927   21.5355 C   0  0  0  0  0  0  0  0  0  0  0  0
  -19.5870  -12.5227   24.4036 C   0  0  0  0  0  0  0  0  0  0  0  0
  -27.3223  -27.5525   20.2762 C   0  0  0  0  0  0  0  0  0  0  0  0
  -17.3746  -13.3091   24.3074 C   0  0  0  0  0  0  0  0  0  0  0  0
  -15.4230  -14.8101   22.9957 C   0  0  0  0  0  0  0  0  0  0  0  0
  -16.7597  -14.3769   24.9611 C   0  0  0  0  0  0  0  0  0  0  0  0
  -23.4500  -12.3978   22.6833 C   0  0  0  0  0  0  0  0  0  0  0  0
  -25.1856  -11.9659   21.4042 C   0  0  0  0  0  0  0  0  0  0  0  0
  -28.0545  -24.3325   18.8207 C   0  0  0  0  0  0  0  0  0  0  0  0
  -27.9542  -23.3001   19.6929 C   0  0  0  0  0  0  0  0  0  0  0  0
  -28.9739  -24.1773   17.6436 C   0  0  0  0  0  0  0  0  0  0  0  0
  -24.5128  -18.9676   20.6955 C   0  0  0  0  0  0  0  0  0  0  0  0
  -25.6804  -18.3933   20.4511 C   0  0  0  0  0  0  0  0  0  0  0  0
  -23.0866  -10.8096   20.6932 C   0  0  0  0  0  0  0  0  0  0  0  0
  -22.8382  -29.4937   22.6401 C   0  0  0  0  0  0  0  0  0  0  0  0
  -22.3061  -31.2414   19.9597 C   0  0  0  0  0  0  0  0  0  0  0  0
  -23.3940  -31.1848   16.5201 C   0  0  0  0  0  0  0  0  0  0  0  0
  -28.5439  -16.6116   23.0906 C   0  0  0  0  0  0  0  0  0  0  0  0
  -18.1628  -26.8833   22.2009 C   0  0  0  0  0  0  0  0  0  0  0  0
  -25.0762  -30.6074   22.3130 C   0  0  0  0  0  0  0  0  0  0  0  0
  -24.0570  -29.4320   19.7981 C   0  0  0  0  0  0  0  0  0  0  0  0
  -29.6309  -22.8377   17.4137 C   0  0  0  0  0  0  0  0  0  0  0  0
  -19.5341  -26.2601   22.4403 C   0  0  0  0  0  0  0  0  0  0  0  0
  -29.0414  -13.1960   23.9644 C   0  0  0  0  0  0  0  0  0  0  0  0
  -20.6272  -27.2404   22.0419 C   0  0  0  0  0  0  0  0  0  0  0  0
  -27.7025  -12.5365   23.6258 C   0  0  0  0  0  0  0  0  0  0  0  0
  -29.9172  -22.1192   18.7207 C   0  0  0  0  0  0  0  0  0  0  0  0
  -28.8540  -14.6053   24.5236 C   0  0  0  0  0  0  0  0  0  0  0  0
  -26.6983  -14.8398   23.3545 C   0  0  0  0  0  0  0  0  0  0  0  0
  -20.5736  -28.5018   22.9131 C   0  0  1  0  0  0  0  0  0  0  0  0
  -23.5896  -30.6092   21.9703 C   0  0  1  0  0  0  0  0  0  0  0  0
  -26.8390  -13.4432   22.7271 C   0  0  2  0  0  0  0  0  0  0  0  0
  -27.0867  -23.4365   20.9292 C   0  0  0  0  0  0  0  0  0  0  0  0
  -23.5901  -33.0387   14.8402 C   0  0  0  0  0  0  0  0  0  0  0  0
  -19.5031  -30.3817   19.1149 C   0  0  0  0  0  0  0  0  0  0  0  0
  -20.1630  -30.8117   16.7384 C   0  0  0  0  0  0  0  0  0  0  0  0
  -20.1520  -32.6844   18.3862 C   0  0  0  0  0  0  0  0  0  0  0  0
  -26.2440  -30.5746   16.0066 C   0  0  0  0  0  0  0  0  0  0  0  0
  -27.2983  -25.6297   18.8768 C   0  0  0  0  0  0  0  0  0  1  0  0
  -21.9583  -30.9210   18.5260 C   0  0  1  0  0  0  0  0  0  0  0  0
  -24.3304  -32.1718   15.8467 C   0  0  2  0  0  0  0  0  0  0  0  0
  -20.4590  -31.1816   18.2075 C   0  0  0  0  0  0  0  0  0  0  0  0
  -24.4485  -13.0997   23.2260 N   0  0  0  0  0  0  0  0  0  0  0  0
  -25.4905  -12.8163   22.4260 N   0  0  0  0  0  0  0  0  0  0  0  0
  -28.7120  -22.1220   19.5575 N   0  0  0  0  0  0  0  0  0  0  0  0
  -23.3409  -30.4883   20.5323 N   0  0  0  0  0  0  0  0  0  0  0  0
  -28.0298  -15.4079   23.6173 N   0  0  0  0  0  0  0  0  0  0  0  0
  -26.1161  -11.5771   20.5067 N   0  0  0  0  0  0  0  0  0  0  0  0
  -21.7285  -10.6181   20.9817 N   0  0  0  0  0  0  0  0  0  0  0  0
  -27.6827  -17.2722   22.2152 N   0  0  0  0  0  0  0  0  0  0  0  0
  -21.4826  -29.4881   22.3721 N   0  0  0  0  0  0  0  0  0  0  0  0
  -22.8864  -31.6859   17.7001 N   0  0  0  0  0  0  0  0  0  0  0  0
  -25.4195  -31.4477   15.1322 N   0  3  0  0  0  0  0  0  0  0  0  0
  -29.1460  -25.1033   16.8514 O   0  0  0  0  0  0  0  0  0  0  0  0
  -23.5964  -10.2132   19.7145 O   0  0  0  0  0  0  0  0  0  0  0  0
  -23.4437  -28.6963   23.3466 O   0  0  0  0  0  0  0  0  0  0  0  0
  -21.6874  -32.1321   20.5475 O   0  0  0  0  0  0  0  0  0  0  0  0
  -23.1355  -30.0812   16.0448 O   0  0  0  0  0  0  0  0  0  0  0  0
  -29.6762  -17.0121   23.3727 O   0  0  0  0  0  0  0  0  0  0  0  0
  -18.3441  -12.5635   24.9569 O   0  0  0  0  0  0  0  0  0  0  0  0
  -28.0364  -26.5905   19.6308 O   0  0  0  0  0  0  0  0  0  1  0  0
  -14.4870  -15.5317   22.3652 F   0  0  0  0  0  0  0  0  0  0  0  0
  -17.1030  -14.6872   26.2187 F   0  0  0  0  0  0  0  0  0  0  0  0
  1  2  1  0  0  0  0
  1  5  2  0  0  0  0
  2  6  2  0  0  0  0
  3 10  2  0  0  0  0
  3 18  1  0  0  0  0
  4 11  1  0  0  0  0
  4 18  2  0  0  0  0
  5 21  1  0  0  0  0
  6 23  1  0  0  0  0
  7 12  2  0  0  0  0
  7 22  1  0  0  0  0
  8  9  2  0  0  0  0
  8 25  1  0  0  0  0
  9 26  1  0  0  0  0
 10 27  1  0  0  0  0
 11 27  2  0  0  0  0
 12 28  1  0  0  0  0
 13 14  2  0  0  0  0
 13 29  1  0  0  0  0
 14 30  1  0  0  0  0
 15 19  1  0  0  0  0
 15 25  2  0  0  0  0
 16 24  1  0  0  0  0
 16 28  2  0  0  0  0
 17 30  2  0  0  0  0
 17 31  1  0  0  0  0
 18 32  1  0  0  0  0
 19 26  2  0  0  0  0
 19 38  1  0  0  0  0
 20 32  1  0  0  0  0
 20 33  2  0  0  0  0
 20 39  1  0  0  0  0
 21 23  2  0  0  0  0
 21 44  1  0  0  0  0
 22 24  2  0  0  0  0
 22 45  1  0  0  0  0
 23 55  1  0  0  0  0
 24 46  1  0  0  0  0
 25 70  1  0  0  0  0
 26 75  1  0  0  0  0
 27 85  1  0  0  0  0
 28 86  1  0  0  0  0
 29 31  2  0  0  0  0
 29 85  1  0  0  0  0
 30 87  1  0  0  0  0
 31 88  1  0  0  0  0
 32 68  2  0  0  0  0
 33 69  1  0  0  0  0
 33 73  1  0  0  0  0
 34 35  2  0  0  0  0
 34 36  1  0  0  0  0
 34 64  1  0  0  0  0
 35 58  1  0  0  0  0
 35 70  1  0  0  0  0
 36 47  1  0  0  0  0
 36 79  2  0  0  0  0
 37 38  2  0  0  0  0
 39 74  1  0  0  0  0
 39 80  2  0  0  0  0
 40 56  1  0  0  0  0
 40 76  1  0  0  0  0
 40 81  2  0  0  0  0
 41 65  1  0  0  0  0
 41 71  1  0  0  0  0
 41 82  2  0  0  0  0
 42 66  1  0  0  0  0
 42 77  1  0  0  0  0
 42 83  2  0  0  0  0
 43 72  1  0  0  0  0
 43 75  1  0  0  0  0
 43 84  2  0  0  0  0
 44 48  1  0  0  0  0
 45 56  1  0  0  0  0
 46 71  1  0  0  0  0
 47 52  1  0  0  0  0
 48 50  1  0  0  0  0
 49 51  1  0  0  0  0
 49 53  1  0  0  0  0
 50 55  1  0  0  0  0
 51 57  1  0  0  0  0
 52 70  1  0  0  0  0
 53 72  1  0  0  0  0
 54 57  1  0  0  0  0
 54 72  1  0  0  0  0
 55 76  1  0  0  0  0
 56 71  1  0  0  0  0
 57 69  1  0  0  0  0
 59 66  1  0  0  0  0
 60 67  1  0  0  0  0
 61 67  1  0  0  0  0
 62 67  1  0  0  0  0
 63 78  1  0  0  0  0
 64 86  1  0  0  0  0
 65 67  1  0  0  0  0
 65 77  1  0  0  0  0
 66 78  1  0  0  0  0
 68 69  1  0  0  0  0
M  CHG  1  78   1
M  ISO  4  43 100  64 101  75 100  86 101
M  END
> <Batch ID>
0111

> <Smiles>
C=Cc1cc(N2CCC(=O)C([101CH2:1][101O:1]c3ccc4c(c3)CN(C(=O)C(NC(=O)C(C)NC)C(C)(C)C)C(C(=O)NC3CCCc5ccccc53)C4)=C2C)ccc1[100NH:0][100C:0](=O)N1CCCC(n2nc(-c3ccc(Oc4ccc(F)cc4F)cc3)c(C(N)=O)c2N)C1

> <Shape>
0.244

> <Color>
0.138

> <Negative vol penalty>
0.000

$$$$

  -OEChem-04052301283D

 87 95  0     1  0  0  0  0  0999 V2000
  -22.8571  -31.7953   14.1766 C   0  0  0  0  0  0  0  0  0  0  0  0
  -23.8740  -31.0989   14.8219 C   0  0  0  0  0  0  0  0  0  0  0  0
  -22.9740  -13.3493   23.1670 C   0  0  0  0  0  0  0  0  0  0  0  0
  -22.6308  -14.9135   21.3579 C   0  0  0  0  0  0  0  0  0  0  0  0
  -29.0938  -18.4854   20.0105 C   0  0  0  0  0  0  0  0  0  0  0  0
  -22.3203  -32.9423   14.7598 C   0  0  0  0  0  0  0  0  0  0  0  0
  -24.3554  -31.5498   16.0505 C   0  0  0  0  0  0  0  0  0  0  0  0
  -24.9246  -27.8018   19.4080 C   0  0  0  0  0  0  0  0  0  0  0  0
  -29.0636  -19.8771   20.0995 C   0  0  0  0  0  0  0  0  0  0  0  0
  -21.9302  -13.9421   23.8775 C   0  0  0  0  0  0  0  0  0  0  0  0
  -21.5870  -15.5062   22.0684 C   0  0  0  0  0  0  0  0  0  0  0  0
  -26.0508  -26.9911   19.2725 C   0  0  0  0  0  0  0  0  0  0  0  0
  -19.1201  -14.8127   26.0130 C   0  0  0  0  0  0  0  0  0  0  0  0
  -18.1939  -13.9704   26.6281 C   0  0  0  0  0  0  0  0  0  0  0  0
  -27.1475  -28.2315   21.0269 C   0  0  0  0  0  0  0  0  0  0  0  0
  -17.6227  -13.0281   24.4780 C   0  0  0  0  0  0  0  0  0  0  0  0
  -23.3243  -13.8351   21.9072 C   0  0  0  0  0  0  0  0  0  0  0  0
  -29.4812  -17.8710   18.8196 C   0  0  0  0  0  0  0  0  0  0  0  0
  -24.3123  -12.1525   20.2638 C   0  0  0  0  0  0  0  0  0  0  0  0
  -22.7887  -33.4020   16.0007 C   0  0  0  0  0  0  0  0  0  0  0  0
  -24.9055  -28.8422   20.3481 C   0  0  0  0  0  0  0  0  0  0  0  0
  -23.8252  -32.7048   16.6502 C   0  0  0  0  0  0  0  0  0  0  0  0
  -26.0189  -29.0524   21.1742 C   0  0  0  0  0  0  0  0  0  0  0  0
  -29.8383  -18.6483   17.7178 C   0  0  0  0  0  0  0  0  0  0  0  0
  -29.4207  -20.6544   18.9977 C   0  0  0  0  0  0  0  0  0  0  0  0
  -21.2367  -15.0205   23.3282 C   0  0  0  0  0  0  0  0  0  0  0  0
  -27.1635  -27.2077   20.0800 C   0  0  0  0  0  0  0  0  0  0  0  0
  -19.2975  -14.7627   24.6303 C   0  0  0  0  0  0  0  0  0  0  0  0
  -29.8081  -20.0400   17.8068 C   0  0  0  0  0  0  0  0  0  0  0  0
  -17.4453  -13.0782   25.8607 C   0  0  0  0  0  0  0  0  0  0  0  0
  -18.5489  -13.8704   23.8629 C   0  0  0  0  0  0  0  0  0  0  0  0
  -24.4028  -13.2236   21.1730 C   0  0  0  0  0  0  0  0  0  0  0  0
  -25.6038  -11.9498   19.8425 C   0  0  0  0  0  0  0  0  0  0  0  0
  -31.9622  -16.1602   16.2683 C   0  0  0  0  0  0  0  0  0  0  0  0
  -31.6533  -17.4428   16.4904 C   0  0  0  0  0  0  0  0  0  0  0  0
  -29.1357  -24.2108   20.0595 C   0  0  0  0  0  0  0  0  0  0  0  0
  -28.1219  -25.0757   20.1612 C   0  0  0  0  0  0  0  0  0  1  0  0
  -29.5031  -16.4157   18.7567 C   0  0  0  0  0  0  0  0  0  0  0  0
  -23.1636  -11.4075   19.8382 C   0  0  0  0  0  0  0  0  0  0  0  0
  -30.3618  -15.6194   19.6633 C   0  0  0  0  0  0  0  0  0  0  0  0
  -24.6249  -32.0044   20.1890 C   0  0  0  0  0  0  0  0  0  0  0  0
  -24.5395  -31.7693   23.4231 C   0  0  0  0  0  0  0  0  0  0  0  0
  -25.3396  -29.9856   26.2205 C   0  0  0  0  0  0  0  0  0  0  0  0
  -22.2100  -34.6734   16.5693 C   0  0  0  0  0  0  0  0  0  0  0  0
  -23.6730  -29.6908   20.5004 C   0  0  0  0  0  0  0  0  0  0  0  0
  -26.0412  -30.1429   22.2127 C   0  0  0  0  0  0  0  0  0  0  0  0
  -22.5174  -34.8732   18.0512 C   0  0  0  0  0  0  0  0  0  0  0  0
  -30.1372  -12.4211   21.2687 C   0  0  0  0  0  0  0  0  0  0  0  0
  -23.9915  -34.5993   18.3323 C   0  0  0  0  0  0  0  0  0  0  0  0
  -28.6310  -12.1857   21.3777 C   0  0  0  0  0  0  0  0  0  0  0  0
  -30.4839  -13.8985   21.4218 C   0  0  0  0  0  0  0  0  0  0  0  0
  -28.2510  -14.5576   20.5682 C   0  0  0  0  0  0  0  0  0  0  0  0
  -24.3569  -33.1485   17.9958 C   0  0  1  0  0  0  0  0  0  0  0  0
  -23.9570  -31.0482   21.1362 C   0  0  1  0  0  0  0  0  0  0  0  0
  -27.8596  -13.0802   20.3910 C   0  0  2  0  0  0  0  0  0  0  0  0
  -25.1730  -30.0667   28.7231 C   0  0  0  0  0  0  0  0  0  0  0  0
  -26.8116  -33.8041   23.5061 C   0  0  0  0  0  0  0  0  0  0  0  0
  -27.2297  -33.1363   25.8825 C   0  0  0  0  0  0  0  0  0  0  0  0
  -25.0413  -34.1460   25.2391 C   0  0  0  0  0  0  0  0  0  0  0  0
  -23.7115  -27.5157   26.3080 C   0  0  0  0  0  0  0  0  0  0  0  0
  -31.5314  -21.1599   16.6103 C   0  0  0  0  0  0  0  0  0  0  0  0
  -30.2547  -17.9959   16.4374 C   0  0  0  0  0  0  0  0  0  0  0  0
  -28.9964  -22.7414   20.2977 C   0  0  0  0  0  0  0  0  0  0  0  0
  -25.5729  -31.7801   24.5235 C   0  0  1  0  0  0  0  0  0  0  0  0
  -24.5172  -29.5941   27.4349 C   0  0  2  0  0  0  0  0  0  0  0  0
  -26.1645  -33.1972   24.7670 C   0  0  0  0  0  0  0  0  0  0  0  0
  -25.6529  -13.6700   21.3211 N   0  0  0  0  0  0  0  0  0  0  0  0
  -28.7817  -15.7263   17.9167 N   0  0  0  0  0  0  0  0  0  0  0  0
  -26.3598  -12.8755   20.4995 N   0  0  0  0  0  0  0  0  0  0  0  0
  -29.7084  -14.7221   20.4964 N   0  0  0  0  0  0  0  0  0  0  0  0
  -24.8145  -30.9500   22.3191 N   0  0  0  0  0  0  0  0  0  0  0  0
  -26.1550  -11.0718   18.9778 N   0  0  0  0  0  0  0  0  0  0  0  0
  -21.9123  -11.7472   20.3703 N   0  0  0  0  0  0  0  0  0  0  0  0
  -29.3856  -22.0370   19.1017 N   0  0  0  0  0  0  0  0  0  0  0  0
  -23.8998  -32.2569   19.0401 N   0  0  0  0  0  0  0  0  0  0  0  0
  -24.9297  -31.1921   25.6935 N   0  0  0  0  0  0  0  0  0  0  0  0
  -24.3642  -28.1132   27.5013 N   0  3  0  0  0  0  0  0  0  0  0  0
  -23.2468  -10.4577   19.0231 O   0  0  0  0  0  0  0  0  0  0  0  0
  -31.5630  -15.8396   19.5805 O   0  0  0  0  0  0  0  0  0  0  0  0
  -25.7166  -32.4791   20.4797 O   0  0  0  0  0  0  0  0  0  0  0  0
  -23.5222  -32.4568   23.5421 O   0  0  0  0  0  0  0  0  0  0  0  0
  -26.2565  -29.2925   25.7853 O   0  0  0  0  0  0  0  0  0  0  0  0
  -20.2180  -15.5990   24.0211 O   0  0  0  0  0  0  0  0  0  0  0  0
  -28.2642  -26.4183   19.9493 O   0  0  0  0  0  0  0  0  0  1  0  0
  -30.1577  -20.7994   16.7282 O   0  0  0  0  0  0  0  0  0  0  0  0
  -16.5570  -12.2683   26.4518 F   0  0  0  0  0  0  0  0  0  0  0  0
  -18.7158  -13.8170   22.5343 F   0  0  0  0  0  0  0  0  0  0  0  0
  1  2  1  0  0  0  0
  1  6  2  0  0  0  0
  2  7  2  0  0  0  0
  3 10  2  0  0  0  0
  3 17  1  0  0  0  0
  4 11  1  0  0  0  0
  4 17  2  0  0  0  0
  5  9  1  0  0  0  0
  5 18  2  0  0  0  0
  6 20  1  0  0  0  0
  7 22  1  0  0  0  0
  8 12  2  0  0  0  0
  8 21  1  0  0  0  0
  9 25  2  0  0  0  0
 10 26  1  0  0  0  0
 11 26  2  0  0  0  0
 12 27  1  0  0  0  0
 13 14  2  0  0  0  0
 13 28  1  0  0  0  0
 14 30  1  0  0  0  0
 15 23  1  0  0  0  0
 15 27  2  0  0  0  0
 16 30  2  0  0  0  0
 16 31  1  0  0  0  0
 17 32  1  0  0  0  0
 18 24  1  0  0  0  0
 18 38  1  0  0  0  0
 19 32  1  0  0  0  0
 19 33  2  0  0  0  0
 19 39  1  0  0  0  0
 20 22  2  0  0  0  0
 20 44  1  0  0  0  0
 21 23  2  0  0  0  0
 21 45  1  0  0  0  0
 22 53  1  0  0  0  0
 23 46  1  0  0  0  0
 24 29  2  0  0  0  0
 24 62  1  0  0  0  0
 25 29  1  0  0  0  0
 25 74  1  0  0  0  0
 26 83  1  0  0  0  0
 27 84  1  0  0  0  0
 28 31  2  0  0  0  0
 28 83  1  0  0  0  0
 29 85  1  0  0  0  0
 30 86  1  0  0  0  0
 31 87  1  0  0  0  0
 32 67  2  0  0  0  0
 33 69  1  0  0  0  0
 33 72  1  0  0  0  0
 34 35  2  0  0  0  0
 35 62  1  0  0  0  0
 36 37  2  0  0  0  0
 36 63  1  0  0  0  0
 37 84  1  0  0  0  0
 38 40  1  0  0  0  0
 38 68  2  0  0  0  0
 39 73  1  0  0  0  0
 39 78  2  0  0  0  0
 40 70  1  0  0  0  0
 40 79  2  0  0  0  0
 41 54  1  0  0  0  0
 41 75  1  0  0  0  0
 41 80  2  0  0  0  0
 42 64  1  0  0  0  0
 42 71  1  0  0  0  0
 42 81  2  0  0  0  0
 43 65  1  0  0  0  0
 43 76  1  0  0  0  0
 43 82  2  0  0  0  0
 44 47  1  0  0  0  0
 45 54  1  0  0  0  0
 46 71  1  0  0  0  0
 47 49  1  0  0  0  0
 48 50  1  0  0  0  0
 48 51  1  0  0  0  0
 49 53  1  0  0  0  0
 50 55  1  0  0  0  0
 51 70  1  0  0  0  0
 52 55  1  0  0  0  0
 52 70  1  0  0  0  0
 53 75  1  0  0  0  0
 54 71  1  0  0  0  0
 55 69  1  0  0  0  0
 56 65  1  0  0  0  0
 57 66  1  0  0  0  0
 58 66  1  0  0  0  0
 59 66  1  0  0  0  0
 60 77  1  0  0  0  0
 61 85  1  0  0  0  0
 63 74  1  0  0  0  0
 64 66  1  0  0  0  0
 64 76  1  0  0  0  0
 65 77  1  0  0  0  0
 67 69  1  0  0  0  0
M  CHG  1  77   1
M  ISO  4  37 101  38 100  40 100  84 101
M  END
> <Batch ID>
0111

> <Smiles>
C=CCc1c([100C:0](=N)[100C:0](=O)N2CCCC(n3nc(-c4ccc(Oc5ccc(F)cc5F)cc4)c(C(N)=O)c3N)C2)ccc(NCC=[101CH:1][101O:1]c2ccc3c(c2)CN(C(=O)C(NC(=O)C(C)NC)C(C)(C)C)C(C(=O)NC2CCCc4ccccc42)C3)c1OC

> <Shape>
0.261

> <Color>
0.094

> <Negative vol penalty>
0.000

$$$$

  -OEChem-04052301283D

 86 94  0     1  0  0  0  0  0999 V2000
  -28.8990  -37.1802   23.6635 C   0  0  0  0  0  0  0  0  0  0  0  0
  -29.2456  -36.1452   22.8010 C   0  0  0  0  0  0  0  0  0  0  0  0
  -24.9634   -8.2885   20.7422 C   0  0  0  0  0  0  0  0  0  0  0  0
  -23.3908   -9.9141   19.8928 C   0  0  0  0  0  0  0  0  0  0  0  0
  -28.0158  -36.9430   24.7159 C   0  0  0  0  0  0  0  0  0  0  0  0
  -28.7100  -34.8718   22.9911 C   0  0  0  0  0  0  0  0  0  0  0  0
  -26.5994  -29.0971   19.3149 C   0  0  0  0  0  0  0  0  0  0  0  0
  -23.9057   -7.5148   21.2199 C   0  0  0  0  0  0  0  0  0  0  0  0
  -22.3330   -9.1404   20.3705 C   0  0  0  0  0  0  0  0  0  0  0  0
  -26.7946  -27.7174   19.2714 C   0  0  0  0  0  0  0  0  0  0  0  0
  -21.8058   -7.5310   23.8684 C   0  0  0  0  0  0  0  0  0  0  0  0
  -21.9141   -7.0127   25.1588 C   0  0  0  0  0  0  0  0  0  0  0  0
  -28.6495  -18.1809   15.0428 C   0  0  0  0  0  0  0  0  0  0  0  0
  -25.2169  -27.4434   21.0756 C   0  0  0  0  0  0  0  0  0  0  0  0
  -29.0997  -18.6196   17.7608 C   0  0  0  0  0  0  0  0  0  0  0  0
  -21.7403   -4.7716   24.2731 C   0  0  0  0  0  0  0  0  0  0  0  0
  -24.7060   -9.4882   20.0787 C   0  0  0  0  0  0  0  0  0  0  0  0
  -28.8576  -19.4767   15.5149 C   0  0  0  0  0  0  0  0  0  0  0  0
  -26.4033  -10.2109   18.3168 C   0  0  0  0  0  0  0  0  0  0  0  0
  -27.4615  -35.6684   24.9132 C   0  0  0  0  0  0  0  0  0  0  0  0
  -25.7182  -29.6623   20.2479 C   0  0  0  0  0  0  0  0  0  0  0  0
  -27.8195  -34.6170   24.0479 C   0  0  0  0  0  0  0  0  0  0  0  0
  -25.0104  -28.8304   21.1272 C   0  0  0  0  0  0  0  0  0  0  0  0
  -28.6665  -17.1043   15.9297 C   0  0  0  0  0  0  0  0  0  0  0  0
  -28.8916  -17.3237   17.2887 C   0  0  0  0  0  0  0  0  0  0  0  0
  -22.5905   -7.9407   21.0340 C   0  0  0  0  0  0  0  0  0  0  0  0
  -26.1055  -26.8905   20.1538 C   0  0  0  0  0  0  0  0  0  0  0  0
  -21.6647   -6.6697   22.7804 C   0  0  0  0  0  0  0  0  0  0  0  0
  -29.0827  -19.6962   16.8739 C   0  0  0  0  0  0  0  0  0  0  0  0
  -21.8814   -5.6329   25.3612 C   0  0  0  0  0  0  0  0  0  0  0  0
  -21.6320   -5.2900   22.9827 C   0  0  0  0  0  0  0  0  0  0  0  0
  -25.7982  -10.2881   19.5855 C   0  0  0  0  0  0  0  0  0  0  0  0
  -27.3825  -11.1737   18.3442 C   0  0  0  0  0  0  0  0  0  0  0  0
  -28.8355  -20.5869   14.5727 C   0  0  0  0  0  0  0  0  0  0  0  0
  -26.1068   -9.3462   17.2122 C   0  0  0  0  0  0  0  0  0  0  0  0
  -26.0189  -31.6999   22.6689 C   0  0  0  0  0  0  0  0  0  0  0  0
  -22.7827  -31.4893   22.7384 C   0  0  0  0  0  0  0  0  0  0  0  0
  -19.9798  -29.6900   21.9946 C   0  0  0  0  0  0  0  0  0  0  0  0
  -29.1255  -16.3143   19.5849 C   0  0  0  0  0  0  0  0  0  0  0  0
  -26.5479  -35.4488   26.0929 C   0  0  0  0  0  0  0  0  0  0  0  0
  -25.4986  -31.1502   20.2641 C   0  0  0  0  0  0  0  0  0  0  0  0
  -24.0378  -29.3857   22.1342 C   0  0  0  0  0  0  0  0  0  0  0  0
  -25.7332  -34.1611   26.0010 C   0  0  0  0  0  0  0  0  0  0  0  0
  -29.2181  -13.8961   22.1966 C   0  0  0  0  0  0  0  0  0  0  0  0
  -26.6251  -32.9933   25.5916 C   0  0  0  0  0  0  0  0  0  0  0  0
  -28.3864  -12.7355   21.6457 C   0  0  0  0  0  0  0  0  0  0  0  0
  -28.6480  -15.2506   21.7793 C   0  0  0  0  0  0  0  0  0  0  0  0
  -27.5987  -14.2541   19.7855 C   0  0  0  0  0  0  0  0  0  0  0  0
  -27.2401  -33.2280   24.2066 C   0  0  1  0  0  0  0  0  0  0  0  0
  -24.9648  -31.6609   21.5989 C   0  0  1  0  0  0  0  0  0  0  0  0
  -28.1712  -12.8683   20.1253 C   0  0  2  0  0  0  0  0  0  0  0  0
  -29.2731  -20.3080   13.1651 C   0  0  0  0  0  0  0  0  0  0  0  0
  -17.4804  -29.7592   22.2075 C   0  0  0  0  0  0  0  0  0  0  0  0
  -23.0174  -30.7786   25.6964 C   0  0  0  0  0  0  0  0  0  0  0  0
  -20.6573  -29.9472   25.6124 C   0  0  0  0  0  0  0  0  0  0  0  0
  -21.1496  -32.3477   25.1456 C   0  0  0  0  0  0  0  0  0  0  0  0
  -19.6117  -29.6166   19.0589 C   0  0  0  0  0  0  0  0  0  0  0  0
  -27.2809  -23.5260   19.2264 C   0  0  0  0  0  0  0  0  0  0  0  0
  -28.2688  -22.9503   18.2177 C   0  0  0  0  0  0  0  0  0  0  0  0
  -27.2139  -25.0452   19.1428 C   0  0  0  0  0  0  0  0  0  1  0  0
  -28.3682  -21.4356   18.3299 C   0  0  0  0  0  0  0  0  0  0  0  0
  -21.7841  -30.5970   23.4354 C   0  0  1  0  0  0  0  0  0  0  0  0
  -18.6758  -30.0870   21.3264 C   0  0  2  0  0  0  0  0  0  0  0  0
  -21.6718  -30.9070   24.9549 C   0  0  0  0  0  0  0  0  0  0  0  0
  -26.3471  -11.2258   20.3624 N   0  0  0  0  0  0  0  0  0  0  0  0
  -27.3075  -11.7465   19.5797 N   0  0  0  0  0  0  0  0  0  0  0  0
  -23.8622  -30.8473   22.1152 N   0  0  0  0  0  0  0  0  0  0  0  0
  -28.4752  -15.3050   20.3260 N   0  0  0  0  0  0  0  0  0  0  0  0
  -28.4554  -15.7996   15.4297 N   0  0  0  0  0  0  0  0  0  0  0  0
  -28.2917  -11.5777   17.4318 N   0  0  0  0  0  0  0  0  0  0  0  0
  -25.0691   -8.4147   17.3527 N   0  0  0  0  0  0  0  0  0  0  0  0
  -28.9136  -16.2460   18.2083 N   0  0  0  0  0  0  0  0  0  0  0  0
  -26.2658  -32.9640   23.1696 N   0  0  0  0  0  0  0  0  0  0  0  0
  -20.5304  -30.7372   22.7027 N   0  0  0  0  0  0  0  0  0  0  0  0
  -18.5169  -29.3666   20.0316 N   0  3  0  0  0  0  0  0  0  0  0  0
  -28.4893  -21.7367   14.8467 O   0  0  0  0  0  0  0  0  0  0  0  0
  -26.7540   -9.3870   16.1384 O   0  0  0  0  0  0  0  0  0  0  0  0
  -26.5666  -30.6600   23.0158 O   0  0  0  0  0  0  0  0  0  0  0  0
  -22.6074  -32.7103   22.7405 O   0  0  0  0  0  0  0  0  0  0  0  0
  -20.4600  -28.5625   21.9009 O   0  0  0  0  0  0  0  0  0  0  0  0
  -29.8412  -17.1595   20.1284 O   0  0  0  0  0  0  0  0  0  0  0  0
  -21.5581   -7.1859   21.4998 O   0  0  0  0  0  0  0  0  0  0  0  0
  -26.2947  -25.5435   20.1139 O   0  0  0  0  0  0  0  0  0  1  0  0
  -29.2896  -20.9621   17.3572 O   0  0  0  0  0  0  0  0  0  0  0  0
  -21.9870   -5.1352   26.6003 F   0  0  0  0  0  0  0  0  0  0  0  0
  -21.4978   -4.4575   21.9412 F   0  0  0  0  0  0  0  0  0  0  0  0
  1  2  1  0  0  0  0
  1  5  2  0  0  0  0
  2  6  2  0  0  0  0
  3  8  2  0  0  0  0
  3 17  1  0  0  0  0
  4  9  1  0  0  0  0
  4 17  2  0  0  0  0
  5 20  1  0  0  0  0
  6 22  1  0  0  0  0
  7 10  2  0  0  0  0
  7 21  1  0  0  0  0
  8 26  1  0  0  0  0
  9 26  2  0  0  0  0
 10 27  1  0  0  0  0
 11 12  2  0  0  0  0
 11 28  1  0  0  0  0
 12 30  1  0  0  0  0
 13 18  1  0  0  0  0
 13 24  2  0  0  0  0
 14 23  1  0  0  0  0
 14 27  2  0  0  0  0
 15 25  2  0  0  0  0
 15 29  1  0  0  0  0
 16 30  2  0  0  0  0
 16 31  1  0  0  0  0
 17 32  1  0  0  0  0
 18 29  2  0  0  0  0
 18 34  1  0  0  0  0
 19 32  1  0  0  0  0
 19 33  2  0  0  0  0
 19 35  1  0  0  0  0
 20 22  2  0  0  0  0
 20 40  1  0  0  0  0
 21 23  2  0  0  0  0
 21 41  1  0  0  0  0
 22 49  1  0  0  0  0
 23 42  1  0  0  0  0
 24 25  1  0  0  0  0
 24 69  1  0  0  0  0
 25 72  1  0  0  0  0
 26 82  1  0  0  0  0
 27 83  1  0  0  0  0
 28 31  2  0  0  0  0
 28 82  1  0  0  0  0
 29 84  1  0  0  0  0
 30 85  1  0  0  0  0
 31 86  1  0  0  0  0
 32 65  2  0  0  0  0
 33 66  1  0  0  0  0
 33 70  1  0  0  0  0
 34 52  1  0  0  0  0
 34 76  2  0  0  0  0
 35 71  1  0  0  0  0
 35 77  2  0  0  0  0
 36 50  1  0  0  0  0
 36 73  1  0  0  0  0
 36 78  2  0  0  0  0
 37 62  1  0  0  0  0
 37 67  1  0  0  0  0
 37 79  2  0  0  0  0
 38 63  1  0  0  0  0
 38 74  1  0  0  0  0
 38 80  2  0  0  0  0
 39 68  1  0  0  0  0
 39 72  1  0  0  0  0
 39 81  2  0  0  0  0
 40 43  1  0  0  0  0
 41 50  1  0  0  0  0
 42 67  1  0  0  0  0
 43 45  1  0  0  0  0
 44 46  1  0  0  0  0
 44 47  1  0  0  0  0
 45 49  1  0  0  0  0
 46 51  1  0  0  0  0
 47 68  1  0  0  0  0
 48 51  1  0  0  0  0
 48 68  1  0  0  0  0
 49 73  1  0  0  0  0
 50 67  1  0  0  0  0
 51 66  1  0  0  0  0
 53 63  1  0  0  0  0
 54 64  1  0  0  0  0
 55 64  1  0  0  0  0
 56 64  1  0  0  0  0
 57 75  1  0  0  0  0
 58 59  1  0  0  0  0
 58 60  1  0  0  0  0
 59 61  1  0  0  0  0
 60 83  1  0  0  0  0
 61 84  1  0  0  0  0
 62 64  1  0  0  0  0
 62 74  1  0  0  0  0
 63 75  1  0  0  0  0
 65 66  1  0  0  0  0
M  CHG  1  75   1
M  ISO  4  39 100  60 101  72 100  83 101
M  END
> <Batch ID>
0111

> <Smiles>
CNC(C)C(=O)NC(C(=O)N1Cc2cc([101O:1][101CH2:1]CCCOc3cc([100NH:0][100C:0](=O)N4CCCC(n5nc(-c6ccc(Oc7ccc(F)cc7F)cc6)c(C(N)=O)c5N)C4)c(N)cc3C(C)=O)ccc2CC1C(=O)NC1CCCc2ccccc21)C(C)(C)C

> <Shape>
0.271

> <Color>
0.095

> <Negative vol penalty>
0.000

$$$$

  -OEChem-04052301283D

 88 96  0     1  0  0  0  0  0999 V2000
  -30.8858  -35.6927   21.1297 C   0  0  0  0  0  0  0  0  0  0  0  0
  -30.6835  -34.4196   20.6065 C   0  0  0  0  0  0  0  0  0  0  0  0
  -24.5717   -8.8282   22.1982 C   0  0  0  0  0  0  0  0  0  0  0  0
  -23.7156  -10.1246   20.3479 C   0  0  0  0  0  0  0  0  0  0  0  0
  -30.3337  -36.0338   22.3637 C   0  0  0  0  0  0  0  0  0  0  0  0
  -29.9297  -33.4865   21.3176 C   0  0  0  0  0  0  0  0  0  0  0  0
  -26.2204  -29.2062   18.9881 C   0  0  0  0  0  0  0  0  0  0  0  0
  -23.4316   -8.0255   22.1634 C   0  0  0  0  0  0  0  0  0  0  0  0
  -22.5754   -9.3218   20.3130 C   0  0  0  0  0  0  0  0  0  0  0  0
  -26.3980  -27.8461   18.7387 C   0  0  0  0  0  0  0  0  0  0  0  0
  -22.2550   -5.4486   20.3173 C   0  0  0  0  0  0  0  0  0  0  0  0
  -22.4314   -4.0678   20.4066 C   0  0  0  0  0  0  0  0  0  0  0  0
  -29.5940  -18.9767   20.0478 C   0  0  0  0  0  0  0  0  0  0  0  0
  -25.3654  -27.3291   20.8566 C   0  0  0  0  0  0  0  0  0  0  0  0
  -30.7166  -18.0665   17.6616 C   0  0  0  0  0  0  0  0  0  0  0  0
  -21.0890   -4.0263   22.4150 C   0  0  0  0  0  0  0  0  0  0  0  0
  -24.7137   -9.8778   21.2905 C   0  0  0  0  0  0  0  0  0  0  0  0
  -30.0631  -19.8908   19.1045 C   0  0  0  0  0  0  0  0  0  0  0  0
  -27.0957  -10.5051   20.6267 C   0  0  0  0  0  0  0  0  0  0  0  0
  -29.5646  -35.1076   23.0857 C   0  0  0  0  0  0  0  0  0  0  0  0
  -25.6229  -29.6391   20.1806 C   0  0  0  0  0  0  0  0  0  0  0  0
  -29.3678  -33.8152   22.5630 C   0  0  0  0  0  0  0  0  0  0  0  0
  -25.1791  -28.6952   21.1176 C   0  0  0  0  0  0  0  0  0  0  0  0
  -30.6244  -19.4358   17.9114 C   0  0  0  0  0  0  0  0  0  0  0  0
  -29.6862  -17.6074   19.7980 C   0  0  0  0  0  0  0  0  0  0  0  0
  -22.4334   -8.2722   21.2208 C   0  0  0  0  0  0  0  0  0  0  0  0
  -25.9730  -26.9074   19.6743 C   0  0  0  0  0  0  0  0  0  0  0  0
  -21.4957   -6.1182   21.2768 C   0  0  0  0  0  0  0  0  0  0  0  0
  -30.2475  -17.1523   18.6049 C   0  0  0  0  0  0  0  0  0  0  0  0
  -21.8484   -3.3566   21.4554 C   0  0  0  0  0  0  0  0  0  0  0  0
  -20.9127   -5.4071   22.3256 C   0  0  0  0  0  0  0  0  0  0  0  0
  -25.8910  -10.7078   21.3264 C   0  0  0  0  0  0  0  0  0  0  0  0
  -27.8905  -11.5618   20.9983 C   0  0  0  0  0  0  0  0  0  0  0  0
  -27.4195  -25.1183   19.2527 C   0  0  0  0  0  0  0  0  0  1  0  0
  -29.9518  -21.3473   19.3965 C   0  0  0  0  0  0  0  0  0  0  0  0
  -27.4633   -9.4555   19.7218 C   0  0  0  0  0  0  0  0  0  0  0  0
  -27.7049  -23.8335   19.0104 C   0  0  0  0  0  0  0  0  0  0  0  0
  -29.1317  -23.4344   18.8251 C   0  0  0  0  0  0  0  0  0  0  0  0
  -26.5632  -31.4110   22.6463 C   0  0  0  0  0  0  0  0  0  0  0  0
  -23.4657  -31.0929   23.5556 C   0  0  0  0  0  0  0  0  0  0  0  0
  -20.5678  -29.2980   23.3915 C   0  0  0  0  0  0  0  0  0  0  0  0
  -28.6235  -16.9903   21.9971 C   0  0  0  0  0  0  0  0  0  0  0  0
  -29.0276  -35.5069   24.4373 C   0  0  0  0  0  0  0  0  0  0  0  0
  -25.4144  -31.1090   20.4226 C   0  0  0  0  0  0  0  0  0  0  0  0
  -24.5135  -29.1074   22.4043 C   0  0  0  0  0  0  0  0  0  0  0  0
  -27.9282  -34.5821   24.9534 C   0  0  0  0  0  0  0  0  0  0  0  0
  -27.2794  -15.0218   24.6420 C   0  0  0  0  0  0  0  0  0  0  0  0
  -28.3313  -33.1219   24.7745 C   0  0  0  0  0  0  0  0  0  0  0  0
  -26.8975  -13.7073   23.9577 C   0  0  0  0  0  0  0  0  0  0  0  0
  -27.0236  -16.2268   23.7385 C   0  0  0  0  0  0  0  0  0  0  0  0
  -27.2541  -14.8305   21.7220 C   0  0  0  0  0  0  0  0  0  0  0  0
  -28.5353  -32.7835   23.2928 C   0  0  1  0  0  0  0  0  0  0  0  0
  -25.2597  -31.4551   21.9003 C   0  0  1  0  0  0  0  0  0  0  0  0
  -27.5547  -13.5832   22.5691 C   0  0  2  0  0  0  0  0  0  0  0  0
  -31.1348  -20.3931   16.8843 C   0  0  0  0  0  0  0  0  0  0  0  0
  -30.6602  -21.8809   20.6260 C   0  0  0  0  0  0  0  0  0  0  0  0
  -18.2182  -29.2655   24.2723 C   0  0  0  0  0  0  0  0  0  0  0  0
  -24.4899  -30.0737   26.2431 C   0  0  0  0  0  0  0  0  0  0  0  0
  -22.1953  -29.1829   26.7008 C   0  0  0  0  0  0  0  0  0  0  0  0
  -22.5412  -31.6341   26.3930 C   0  0  0  0  0  0  0  0  0  0  0  0
  -19.4219  -29.5315   20.6728 C   0  0  0  0  0  0  0  0  0  0  0  0
  -29.2483  -15.2077   17.6690 C   0  0  0  0  0  0  0  0  0  0  0  0
  -22.6929  -30.0996   24.3894 C   0  0  1  0  0  0  0  0  0  0  0  0
  -19.1316  -29.7241   23.1461 C   0  0  2  0  0  0  0  0  0  0  0  0
  -22.9941  -30.2395   25.9083 C   0  0  0  0  0  0  0  0  0  0  0  0
  -25.9140  -11.8068   22.0851 N   0  0  0  0  0  0  0  0  0  0  0  0
  -29.2550  -22.0876   18.5856 N   0  0  0  0  0  0  0  0  0  0  0  0
  -27.1429  -12.3041   21.8644 N   0  0  0  0  0  0  0  0  0  0  0  0
  -24.3379  -30.5563   22.5979 N   0  0  0  0  0  0  0  0  0  0  0  0
  -27.6799  -16.0405   22.4426 N   0  0  0  0  0  0  0  0  0  0  0  0
  -29.1490  -11.9191   20.6653 N   0  0  0  0  0  0  0  0  0  0  0  0
  -26.5268   -8.4486   19.4506 N   0  0  0  0  0  0  0  0  0  0  0  0
  -29.2057  -16.6908   20.7659 N   0  0  0  0  0  0  0  0  0  0  0  0
  -27.2588  -32.6049   22.6347 N   0  0  0  0  0  0  0  0  0  0  0  0
  -21.2879  -30.2790   24.0398 N   0  0  0  0  0  0  0  0  0  0  0  0
  -18.6302  -29.1435   21.8684 N   0  3  0  0  0  0  0  0  0  0  0  0
  -28.5947   -9.4029   19.1828 O   0  0  0  0  0  0  0  0  0  0  0  0
  -30.0572  -24.2328   18.9243 O   0  0  0  0  0  0  0  0  0  0  0  0
  -26.9114  -30.3711   23.1933 O   0  0  0  0  0  0  0  0  0  0  0  0
  -23.2964  -32.3004   23.7422 O   0  0  0  0  0  0  0  0  0  0  0  0
  -21.0060  -28.2029   23.0462 O   0  0  0  0  0  0  0  0  0  0  0  0
  -28.9150  -17.9812   22.6718 O   0  0  0  0  0  0  0  0  0  0  0  0
  -26.7337  -22.8581   18.9194 O   0  0  0  0  0  0  0  0  0  0  0  0
  -21.3209   -7.4889   21.1863 O   0  0  0  0  0  0  0  0  0  0  0  0
  -26.1457  -25.5792   19.4336 O   0  0  0  0  0  0  0  0  0  1  0  0
  -30.3471  -15.8186   18.3417 O   0  0  0  0  0  0  0  0  0  0  0  0
  -22.0166   -2.0305   21.5402 F   0  0  0  0  0  0  0  0  0  0  0  0
  -20.1812   -6.0447   23.2498 F   0  0  0  0  0  0  0  0  0  0  0  0
  1  2  1  0  0  0  0
  1  5  2  0  0  0  0
  2  6  2  0  0  0  0
  3  8  2  0  0  0  0
  3 17  1  0  0  0  0
  4  9  1  0  0  0  0
  4 17  2  0  0  0  0
  5 20  1  0  0  0  0
  6 22  1  0  0  0  0
  7 10  2  0  0  0  0
  7 21  1  0  0  0  0
  8 26  1  0  0  0  0
  9 26  2  0  0  0  0
 10 27  1  0  0  0  0
 11 12  2  0  0  0  0
 11 28  1  0  0  0  0
 12 30  1  0  0  0  0
 13 18  1  0  0  0  0
 13 25  2  0  0  0  0
 14 23  1  0  0  0  0
 14 27  2  0  0  0  0
 15 24  1  0  0  0  0
 15 29  2  0  0  0  0
 16 30  2  0  0  0  0
 16 31  1  0  0  0  0
 17 32  1  0  0  0  0
 18 24  2  0  0  0  0
 18 35  1  0  0  0  0
 19 32  1  0  0  0  0
 19 33  2  0  0  0  0
 19 36  1  0  0  0  0
 20 22  2  0  0  0  0
 20 43  1  0  0  0  0
 21 23  2  0  0  0  0
 21 44  1  0  0  0  0
 22 52  1  0  0  0  0
 23 45  1  0  0  0  0
 24 55  1  0  0  0  0
 25 29  1  0  0  0  0
 25 73  1  0  0  0  0
 26 84  1  0  0  0  0
 27 85  1  0  0  0  0
 28 31  2  0  0  0  0
 28 84  1  0  0  0  0
 29 86  1  0  0  0  0
 30 87  1  0  0  0  0
 31 88  1  0  0  0  0
 32 66  2  0  0  0  0
 33 68  1  0  0  0  0
 33 71  1  0  0  0  0
 34 37  2  0  0  0  0
 34 85  1  0  0  0  0
 35 56  1  0  0  0  0
 35 67  2  0  0  0  0
 36 72  1  0  0  0  0
 36 77  2  0  0  0  0
 37 38  1  0  0  0  0
 37 83  1  0  0  0  0
 38 67  1  0  0  0  0
 38 78  2  0  0  0  0
 39 53  1  0  0  0  0
 39 74  1  0  0  0  0
 39 79  2  0  0  0  0
 40 63  1  0  0  0  0
 40 69  1  0  0  0  0
 40 80  2  0  0  0  0
 41 64  1  0  0  0  0
 41 75  1  0  0  0  0
 41 81  2  0  0  0  0
 42 70  1  0  0  0  0
 42 73  1  0  0  0  0
 42 82  2  0  0  0  0
 43 46  1  0  0  0  0
 44 53  1  0  0  0  0
 45 69  1  0  0  0  0
 46 48  1  0  0  0  0
 47 49  1  0  0  0  0
 47 50  1  0  0  0  0
 48 52  1  0  0  0  0
 49 54  1  0  0  0  0
 50 70  1  0  0  0  0
 51 54  1  0  0  0  0
 51 70  1  0  0  0  0
 52 74  1  0  0  0  0
 53 69  1  0  0  0  0
 54 68  1  0  0  0  0
 57 64  1  0  0  0  0
 58 65  1  0  0  0  0
 59 65  1  0  0  0  0
 60 65  1  0  0  0  0
 61 76  1  0  0  0  0
 62 86  1  0  0  0  0
 63 65  1  0  0  0  0
 63 75  1  0  0  0  0
 64 76  1  0  0  0  0
 66 68  1  0  0  0  0
M  CHG  1  76   1
M  ISO  4  34 101  42 100  73 100  85 101
M  END
> <Batch ID>
0111

> <Smiles>
CNC(C)C(=O)NC(C(=O)N1Cc2cc([101O:1][101CH2:1]C(=O)C(=O)N=C(C)c3cc([100NH:0][100C:0](=O)N4CCCC(n5nc(-c6ccc(Oc7ccc(F)cc7F)cc6)c(C(N)=O)c5N)C4)c(OC)cc3C)ccc2CC1C(=O)NC1CCCc2ccccc21)C(C)(C)C

> <Shape>
0.270

> <Color>
0.087

> <Negative vol penalty>
0.000

$$$$

  -OEChem-04052301283D

 84 93  0     1  0  0  0  0  0999 V2000
  -26.6511  -34.7367   24.5896 C   0  0  0  0  0  0  0  0  0  0  0  0
  -27.0781  -33.4806   24.1708 C   0  0  0  0  0  0  0  0  0  0  0  0
  -24.2021  -13.9846   20.9245 C   0  0  0  0  0  0  0  0  0  0  0  0
  -26.5224  -13.7116   20.3090 C   0  0  0  0  0  0  0  0  0  0  0  0
  -25.3282  -34.9251   24.9874 C   0  0  0  0  0  0  0  0  0  0  0  0
  -26.1826  -32.4119   24.1506 C   0  0  0  0  0  0  0  0  0  0  0  0
  -26.5157  -29.6785   19.9006 C   0  0  0  0  0  0  0  0  0  0  0  0
  -23.9468  -12.6664   20.5467 C   0  0  0  0  0  0  0  0  0  0  0  0
  -26.2670  -12.3933   19.9313 C   0  0  0  0  0  0  0  0  0  0  0  0
  -27.5779  -28.7808   19.8025 C   0  0  0  0  0  0  0  0  0  0  0  0
  -22.7606   -9.2615   20.0829 C   0  0  0  0  0  0  0  0  0  0  0  0
  -21.9855   -8.4799   20.9396 C   0  0  0  0  0  0  0  0  0  0  0  0
  -26.0992  -26.9741   20.4096 C   0  0  0  0  0  0  0  0  0  0  0  0
  -23.6140   -8.7913   22.6970 C   0  0  0  0  0  0  0  0  0  0  0  0
  -33.6716  -21.0498   20.6612 C   0  0  0  0  0  0  0  0  0  0  0  0
  -25.4899  -14.5072   20.8055 C   0  0  0  0  0  0  0  0  0  0  0  0
  -32.4506  -21.2370   19.9523 C   0  0  0  0  0  0  0  0  0  0  0  0
  -25.5754  -16.4385   22.4700 C   0  0  0  0  0  0  0  0  0  0  0  0
  -24.4135  -33.8605   24.9628 C   0  0  0  0  0  0  0  0  0  0  0  0
  -25.2375  -29.2316   20.2651 C   0  0  0  0  0  0  0  0  0  0  0  0
  -24.8465  -32.5860   24.5496 C   0  0  0  0  0  0  0  0  0  0  0  0
  -25.0219  -27.8677   20.5091 C   0  0  0  0  0  0  0  0  0  0  0  0
  -24.9792  -11.8707   20.0502 C   0  0  0  0  0  0  0  0  0  0  0  0
  -27.3704  -27.4288   20.0599 C   0  0  0  0  0  0  0  0  0  0  0  0
  -23.9625   -9.8079   20.5332 C   0  0  0  0  0  0  0  0  0  0  0  0
  -22.4122   -8.2448   22.2467 C   0  0  0  0  0  0  0  0  0  0  0  0
  -24.3891   -9.5728   21.8402 C   0  0  0  0  0  0  0  0  0  0  0  0
  -25.7541  -15.8690   21.1950 C   0  0  0  0  0  0  0  0  0  0  0  0
  -25.9659  -17.7467   22.3196 C   0  0  0  0  0  0  0  0  0  0  0  0
  -31.8131  -20.0276   19.7800 C   0  0  0  0  0  0  0  0  0  0  0  0
  -29.7500  -24.9526   21.1035 C   0  0  0  0  0  0  0  0  0  0  0  0
  -28.7512  -25.8411   21.0813 C   0  0  0  0  0  0  0  0  0  1  0  0
  -31.9213  -22.5193   19.4624 C   0  0  0  0  0  0  0  0  0  0  0  0
  -25.0991  -15.8386   23.6820 C   0  0  0  0  0  0  0  0  0  0  0  0
  -23.2635  -29.8150   22.6873 C   0  0  0  0  0  0  0  0  0  0  0  0
  -21.2254  -27.9753   20.9598 C   0  0  0  0  0  0  0  0  0  0  0  0
  -21.4168  -24.9344   19.0276 C   0  0  0  0  0  0  0  0  0  0  0  0
  -29.6785  -20.4879   18.5238 C   0  0  0  0  0  0  0  0  0  0  0  0
  -23.0056  -34.1017   25.4469 C   0  0  0  0  0  0  0  0  0  0  0  0
  -24.0963  -30.2086   20.3405 C   0  0  0  0  0  0  0  0  0  0  0  0
  -23.6643  -27.3341   20.8842 C   0  0  0  0  0  0  0  0  0  0  0  0
  -30.1657  -24.1518   22.3004 C   0  0  0  0  0  0  0  0  0  0  0  0
  -30.5412  -24.5247   19.9085 C   0  0  0  0  0  0  0  0  0  0  0  0
  -22.0253  -33.0046   25.0399 C   0  0  0  0  0  0  0  0  0  0  0  0
  -26.2319  -21.2212   19.0345 C   0  0  0  0  0  0  0  0  0  0  0  0
  -22.6224  -31.6275   25.3114 C   0  0  0  0  0  0  0  0  0  0  0  0
  -25.7034  -19.9863   19.7680 C   0  0  0  0  0  0  0  0  0  0  0  0
  -30.6887  -22.8729   21.6673 C   0  0  0  0  0  0  0  0  0  0  0  0
  -27.2800  -20.8527   17.9860 C   0  0  0  0  0  0  0  0  0  0  0  0
  -27.8654  -18.7999   19.2158 C   0  0  0  0  0  0  0  0  0  0  0  0
  -23.8986  -31.4078   24.4901 C   0  0  1  0  0  0  0  0  0  0  0  0
  -22.9497  -29.7212   21.2208 C   0  0  1  0  0  0  0  0  0  0  0  0
  -26.8545  -19.1272   20.3269 C   0  0  2  0  0  0  0  0  0  0  0  0
  -20.0240  -24.1367   17.0986 C   0  0  0  0  0  0  0  0  0  0  0  0
  -19.5964  -26.5413   23.1045 C   0  0  0  0  0  0  0  0  0  0  0  0
  -19.3522  -24.6106   21.5294 C   0  0  0  0  0  0  0  0  0  0  0  0
  -18.4132  -26.8403   20.9216 C   0  0  0  0  0  0  0  0  0  0  0  0
  -23.7988  -24.5635   17.3107 C   0  0  0  0  0  0  0  0  0  0  0  0
  -20.9180  -26.4991   20.8870 C   0  0  1  0  0  0  0  0  0  0  0  0
  -21.3218  -24.8096   17.5177 C   0  0  2  0  0  0  0  0  0  0  0  0
  -19.5957  -26.1323   21.6180 C   0  0  0  0  0  0  0  0  0  0  0  0
  -33.9817  -19.8071   21.0228 N   0  0  0  0  0  0  0  0  0  0  0  0
  -26.2216  -16.7439   20.3005 N   0  0  0  0  0  0  0  0  0  0  0  0
  -26.3398  -17.8763   21.0144 N   0  0  0  0  0  0  0  0  0  0  0  0
  -31.0961  -23.2422   20.3132 N   0  0  0  0  0  0  0  0  0  0  0  0
  -22.5819  -28.3298   20.9510 N   0  0  0  0  0  0  0  0  0  0  0  0
  -28.3411  -20.0429   18.5886 N   0  0  0  0  0  0  0  0  0  0  0  0
  -26.0222  -18.7873   23.1777 N   0  0  0  0  0  0  0  0  0  0  0  0
  -26.0312  -15.2492   24.5470 N   0  0  0  0  0  0  0  0  0  0  0  0
  -30.5958  -19.6519   19.1597 N   0  0  0  0  0  0  0  0  0  0  0  0
  -23.5679  -31.0926   23.1169 N   0  0  0  0  0  0  0  0  0  0  0  0
  -20.9353  -26.1479   19.4711 N   0  0  0  0  0  0  0  0  0  0  0  0
  -22.4600  -24.0040   16.9919 N   0  3  0  0  0  0  0  0  0  0  0  0
  -32.2532  -22.8711   18.3320 O   0  0  0  0  0  0  0  0  0  0  0  0
  -23.8811  -15.8111   23.9810 O   0  0  0  0  0  0  0  0  0  0  0  0
  -23.2303  -28.8034   23.3781 O   0  0  0  0  0  0  0  0  0  0  0  0
  -20.2960  -28.7845   21.0150 O   0  0  0  0  0  0  0  0  0  0  0  0
  -21.8692  -24.0429   19.7425 O   0  0  0  0  0  0  0  0  0  0  0  0
  -29.9838  -21.5474   17.9703 O   0  0  0  0  0  0  0  0  0  0  0  0
  -24.7305  -10.5843   19.6817 O   0  0  0  0  0  0  0  0  0  0  0  0
  -28.4057  -26.5506   19.9655 O   0  0  0  0  0  0  0  0  0  1  0  0
  -21.6670   -7.4955   23.0698 F   0  0  0  0  0  0  0  0  0  0  0  0
  -25.5422  -10.0961   22.2789 F   0  0  0  0  0  0  0  0  0  0  0  0
  -32.7677  -18.8004   20.4985 S   0  0  0  0  0  0  0  0  0  0  0  0
  1  2  1  0  0  0  0
  1  5  2  0  0  0  0
  2  6  2  0  0  0  0
  3  8  2  0  0  0  0
  3 16  1  0  0  0  0
  4  9  1  0  0  0  0
  4 16  2  0  0  0  0
  5 19  1  0  0  0  0
  6 21  1  0  0  0  0
  7 10  2  0  0  0  0
  7 20  1  0  0  0  0
  8 23  1  0  0  0  0
  9 23  2  0  0  0  0
 10 24  1  0  0  0  0
 11 12  2  0  0  0  0
 11 25  1  0  0  0  0
 12 26  1  0  0  0  0
 13 22  1  0  0  0  0
 13 24  2  0  0  0  0
 14 26  2  0  0  0  0
 14 27  1  0  0  0  0
 15 17  1  0  0  0  0
 15 62  2  0  0  0  0
 16 28  1  0  0  0  0
 17 30  2  0  0  0  0
 17 33  1  0  0  0  0
 18 28  1  0  0  0  0
 18 29  2  0  0  0  0
 18 34  1  0  0  0  0
 19 21  2  0  0  0  0
 19 39  1  0  0  0  0
 20 22  2  0  0  0  0
 20 40  1  0  0  0  0
 21 51  1  0  0  0  0
 22 41  1  0  0  0  0
 23 80  1  0  0  0  0
 24 81  1  0  0  0  0
 25 27  2  0  0  0  0
 25 80  1  0  0  0  0
 26 82  1  0  0  0  0
 27 83  1  0  0  0  0
 28 63  2  0  0  0  0
 29 64  1  0  0  0  0
 29 68  1  0  0  0  0
 30 70  1  0  0  0  0
 30 84  1  0  0  0  0
 31 32  2  0  0  0  0
 31 42  1  0  0  0  0
 31 43  1  0  0  0  0
 32 81  1  0  0  0  0
 33 65  1  0  0  0  0
 33 74  2  0  0  0  0
 34 69  1  0  0  0  0
 34 75  2  0  0  0  0
 35 52  1  0  0  0  0
 35 71  1  0  0  0  0
 35 76  2  0  0  0  0
 36 59  1  0  0  0  0
 36 66  1  0  0  0  0
 36 77  2  0  0  0  0
 37 60  1  0  0  0  0
 37 72  1  0  0  0  0
 37 78  2  0  0  0  0
 38 67  1  0  0  0  0
 38 70  1  0  0  0  0
 38 79  2  0  0  0  0
 39 44  1  0  0  0  0
 40 52  1  0  0  0  0
 41 66  1  0  0  0  0
 42 48  1  0  0  0  0
 43 65  1  0  0  0  0
 44 46  1  0  0  0  0
 45 47  1  0  0  0  0
 45 49  1  0  0  0  0
 46 51  1  0  0  0  0
 47 53  1  0  0  0  0
 48 65  1  0  0  0  0
 49 67  1  0  0  0  0
 50 53  1  0  0  0  0
 50 67  1  0  0  0  0
 51 71  1  0  0  0  0
 52 66  1  0  0  0  0
 53 64  1  0  0  0  0
 54 60  1  0  0  0  0
 55 61  1  0  0  0  0
 56 61  1  0  0  0  0
 57 61  1  0  0  0  0
 58 73  1  0  0  0  0
 59 61  1  0  0  0  0
 59 72  1  0  0  0  0
 60 73  1  0  0  0  0
 62 84  1  0  0  0  0
 63 64  1  0  0  0  0
M  CHG  1  73   1
M  ISO  4  32 101  38 100  70 100  81 101
M  END
> <Batch ID>
0111

> <Smiles>
CNC(C)C(=O)NC(C(=O)N1Cc2cc([101O:1][101CH:1]=C3CCN(C(=O)c4cnsc4[100NH:0][100C:0](=O)N4CCCC(n5nc(-c6ccc(Oc7ccc(F)cc7F)cc6)c(C(N)=O)c5N)C4)C3)ccc2CC1C(=O)NC1CCCc2ccccc21)C(C)(C)C

> <Shape>
0.266

> <Color>
0.089

> <Negative vol penalty>
0.000

$$$$

  -OEChem-04052301283D

 90 99  0     1  0  0  0  0  0999 V2000
  -19.5412  -28.1321   26.3412 C   0  0  0  0  0  0  0  0  0  0  0  0
  -20.8488  -27.8282   25.9764 C   0  0  0  0  0  0  0  0  0  0  0  0
  -22.6951  -10.4461   20.2289 C   0  0  0  0  0  0  0  0  0  0  0  0
  -22.9068  -12.0371   18.4231 C   0  0  0  0  0  0  0  0  0  0  0  0
  -18.5330  -28.1360   25.3782 C   0  0  0  0  0  0  0  0  0  0  0  0
  -21.1488  -27.5270   24.6483 C   0  0  0  0  0  0  0  0  0  0  0  0
  -26.3003  -28.9008   21.6349 C   0  0  0  0  0  0  0  0  0  0  0  0
  -21.6725   -9.7970   19.5372 C   0  0  0  0  0  0  0  0  0  0  0  0
  -21.8842  -11.3880   17.7314 C   0  0  0  0  0  0  0  0  0  0  0  0
  -27.4416  -28.1562   21.3403 C   0  0  0  0  0  0  0  0  0  0  0  0
  -18.5068  -11.2599   17.8209 C   0  0  0  0  0  0  0  0  0  0  0  0
  -17.5183  -12.0499   17.2343 C   0  0  0  0  0  0  0  0  0  0  0  0
  -26.5290  -27.6272   19.1708 C   0  0  0  0  0  0  0  0  0  0  0  0
  -29.0888  -20.7768   19.6369 C   0  0  0  0  0  0  0  0  0  0  0  0
  -18.0935  -11.1580   15.0638 C   0  0  0  0  0  0  0  0  0  0  0  0
  -23.3123  -11.5662   19.6719 C   0  0  0  0  0  0  0  0  0  0  0  0
  -24.2867  -12.8389   21.6564 C   0  0  0  0  0  0  0  0  0  0  0  0
  -18.8224  -27.8441   24.0360 C   0  0  0  0  0  0  0  0  0  0  0  0
  -25.2583  -29.0053   20.7024 C   0  0  0  0  0  0  0  0  0  0  0  0
  -20.1433  -27.5257   23.6667 C   0  0  0  0  0  0  0  0  0  0  0  0
  -25.3767  -28.3758   19.4551 C   0  0  0  0  0  0  0  0  0  0  0  0
  -28.8101  -19.4148   19.6604 C   0  0  0  0  0  0  0  0  0  0  0  0
  -29.4899  -18.5869   20.5469 C   0  0  0  0  0  0  0  0  0  0  0  0
  -21.2670  -10.2679   18.2884 C   0  0  0  0  0  0  0  0  0  0  0  0
  -27.5549  -27.5169   20.1092 C   0  0  0  0  0  0  0  0  0  0  0  0
  -19.2888  -10.4190   17.0290 C   0  0  0  0  0  0  0  0  0  0  0  0
  -17.3116  -11.9990   15.8557 C   0  0  0  0  0  0  0  0  0  0  0  0
  -19.0821  -10.3680   15.6505 C   0  0  0  0  0  0  0  0  0  0  0  0
  -24.3683  -12.2375   20.3862 C   0  0  0  0  0  0  0  0  0  0  0  0
  -30.0482  -21.2577   20.5133 C   0  0  0  0  0  0  0  0  0  0  0  0
  -30.4315  -19.1658   21.3824 C   0  0  0  0  0  0  0  0  0  0  0  0
  -25.5481  -13.3323   21.8843 C   0  0  0  0  0  0  0  0  0  0  0  0
  -29.5446  -24.6228   19.2406 C   0  0  0  0  0  0  0  0  0  0  0  0
  -29.3473  -23.6054   20.1215 C   0  0  0  0  0  0  0  0  0  0  0  0
  -32.3831  -22.9978   19.2368 C   0  0  0  0  0  0  0  0  0  0  0  0
  -23.1706  -12.9423   22.5504 C   0  0  0  0  0  0  0  0  0  0  0  0
  -22.1936  -28.1632   20.6595 C   0  0  0  0  0  0  0  0  0  0  0  0
  -22.1990  -29.7526   17.8318 C   0  0  0  0  0  0  0  0  0  0  0  0
  -22.9221  -31.2734   14.8635 C   0  0  0  0  0  0  0  0  0  0  0  0
  -29.9267  -16.2610   19.7759 C   0  0  0  0  0  0  0  0  0  0  0  0
  -17.6910  -27.8145   23.0392 C   0  0  0  0  0  0  0  0  0  0  0  0
  -24.0454  -29.8343   21.0251 C   0  0  0  0  0  0  0  0  0  0  0  0
  -24.2951  -28.4737   18.4115 C   0  0  0  0  0  0  0  0  0  0  0  0
  -30.8156  -24.8189   18.4208 C   0  0  0  0  0  0  0  0  0  0  0  0
  -31.6129  -23.5645   18.0644 C   0  0  0  0  0  0  0  0  0  0  0  0
  -31.7344  -23.0407   20.5986 C   0  0  0  0  0  0  0  0  0  0  0  0
  -18.1581  -27.8510   21.5863 C   0  0  0  0  0  0  0  0  0  0  0  0
  -29.8887  -12.5898   19.4142 C   0  0  0  0  0  0  0  0  0  0  0  0
  -19.2977  -26.8611   21.3669 C   0  0  0  0  0  0  0  0  0  0  0  0
  -28.4255  -12.2370   19.6758 C   0  0  0  0  0  0  0  0  0  0  0  0
  -30.0366  -13.9828   18.8094 C   0  0  0  0  0  0  0  0  0  0  0  0
  -27.9208  -14.7051   19.8734 C   0  0  0  0  0  0  0  0  0  0  0  0
  -20.5126  -27.2180   22.2318 C   0  0  1  0  0  0  0  0  0  0  0  0
  -22.8214  -29.4487   20.2003 C   0  0  1  0  0  0  0  0  0  0  0  0
  -27.7419  -13.3245   20.5226 C   0  0  1  0  0  0  0  0  0  0  0  0
  -27.7802  -18.8718   18.7243 C   0  0  0  0  0  0  0  0  0  0  0  0
  -28.0345  -23.4839   20.8745 C   0  0  0  0  0  0  0  0  0  0  0  0
  -21.8659  -31.9600   12.6931 C   0  0  0  0  0  0  0  0  0  0  0  0
  -22.2529  -26.8508   16.8904 C   0  0  0  0  0  0  0  0  0  0  0  0
  -22.1250  -27.6860   14.5336 C   0  0  0  0  0  0  0  0  0  0  0  0
  -20.2634  -28.1590   16.1253 C   0  0  0  0  0  0  0  0  0  0  0  0
  -28.3528  -16.6550   21.6566 C   0  0  0  0  0  0  0  0  0  0  0  0
  -23.5163  -34.1324   15.3452 C   0  0  0  0  0  0  0  0  0  0  0  0
  -28.5061  -25.6800   18.9358 C   0  0  0  0  0  0  0  0  0  1  0  0
  -22.4633  -29.3757   16.3941 C   0  0  1  0  0  0  0  0  0  0  0  0
  -22.2245  -32.3896   14.1072 C   0  0  2  0  0  0  0  0  0  0  0  0
  -21.7971  -28.0264   16.0031 C   0  0  0  0  0  0  0  0  0  0  0  0
  -25.5853  -12.3386   19.8450 N   0  0  0  0  0  0  0  0  0  0  0  0
  -30.7292  -20.4845   21.3885 N   0  0  0  0  0  0  0  0  0  0  0  0
  -26.2800  -13.0093   20.7797 N   0  0  0  0  0  0  0  0  0  0  0  0
  -30.3228  -22.6545   20.4772 N   0  0  0  0  0  0  0  0  0  0  0  0
  -23.1260  -29.2905   18.7768 N   0  0  0  0  0  0  0  0  0  0  0  0
  -29.3394  -14.9908   19.6091 N   0  0  0  0  0  0  0  0  0  0  0  0
  -31.1315  -18.3308   22.2897 N   0  0  0  0  0  0  0  0  0  0  0  0
  -26.0915  -14.0067   22.9199 N   0  0  0  0  0  0  0  0  0  0  0  0
  -21.9475  -12.3802   22.1599 N   0  0  0  0  0  0  0  0  0  0  0  0
  -21.2413  -28.3237   21.6479 N   0  0  0  0  0  0  0  0  0  0  0  0
  -22.0298  -30.5118   15.5880 N   0  0  0  0  0  0  0  0  0  0  0  0
  -29.2137  -17.1703   20.5870 N   0  0  0  0  0  0  0  0  0  0  0  0
  -23.1052  -33.5889   14.0251 N   0  3  0  0  0  0  0  0  0  0  0  0
  -33.5023  -22.5070   19.0825 O   0  0  0  0  0  0  0  0  0  0  0  0
  -23.2510  -13.5304   23.6554 O   0  0  0  0  0  0  0  0  0  0  0  0
  -22.5459  -27.1042   20.1535 O   0  0  0  0  0  0  0  0  0  0  0  0
  -21.2106  -30.4380   18.1055 O   0  0  0  0  0  0  0  0  0  0  0  0
  -24.1368  -31.0927   14.8133 O   0  0  0  0  0  0  0  0  0  0  0  0
  -31.0158  -16.5485   19.2651 O   0  0  0  0  0  0  0  0  0  0  0  0
  -20.2693   -9.6347   17.6131 O   0  0  0  0  0  0  0  0  0  0  0  0
  -28.6675  -26.7889   19.8193 O   0  0  0  0  0  0  0  0  0  1  0  0
  -16.3612  -12.7566   15.2927 F   0  0  0  0  0  0  0  0  0  0  0  0
  -19.8294   -9.5612   14.8848 F   0  0  0  0  0  0  0  0  0  0  0  0
  1  2  1  0  0  0  0
  1  5  2  0  0  0  0
  2  6  2  0  0  0  0
  3  8  2  0  0  0  0
  3 16  1  0  0  0  0
  4  9  1  0  0  0  0
  4 16  2  0  0  0  0
  5 18  1  0  0  0  0
  6 20  1  0  0  0  0
  7 10  2  0  0  0  0
  7 19  1  0  0  0  0
  8 24  1  0  0  0  0
  9 24  2  0  0  0  0
 10 25  1  0  0  0  0
 11 12  2  0  0  0  0
 11 26  1  0  0  0  0
 12 27  1  0  0  0  0
 13 21  1  0  0  0  0
 13 25  2  0  0  0  0
 14 22  2  0  0  0  0
 14 30  1  0  0  0  0
 15 27  2  0  0  0  0
 15 28  1  0  0  0  0
 16 29  1  0  0  0  0
 17 29  1  0  0  0  0
 17 32  2  0  0  0  0
 17 36  1  0  0  0  0
 18 20  2  0  0  0  0
 18 41  1  0  0  0  0
 19 21  2  0  0  0  0
 19 42  1  0  0  0  0
 20 53  1  0  0  0  0
 21 43  1  0  0  0  0
 22 23  1  0  0  0  0
 22 56  1  0  0  0  0
 23 31  2  0  0  0  0
 23 79  1  0  0  0  0
 24 87  1  0  0  0  0
 25 88  1  0  0  0  0
 26 28  2  0  0  0  0
 26 87  1  0  0  0  0
 27 89  1  0  0  0  0
 28 90  1  0  0  0  0
 29 68  2  0  0  0  0
 30 69  2  0  0  0  0
 30 71  1  0  0  0  0
 31 69  1  0  0  0  0
 31 74  1  0  0  0  0
 32 70  1  0  0  0  0
 32 75  1  0  0  0  0
 33 34  2  0  0  0  0
 33 44  1  0  0  0  0
 33 64  1  0  0  0  0
 34 57  1  0  0  0  0
 34 71  1  0  0  0  0
 35 45  1  0  0  0  0
 35 46  1  0  0  0  0
 35 81  2  0  0  0  0
 36 76  1  0  0  0  0
 36 82  2  0  0  0  0
 37 54  1  0  0  0  0
 37 77  1  0  0  0  0
 37 83  2  0  0  0  0
 38 65  1  0  0  0  0
 38 72  1  0  0  0  0
 38 84  2  0  0  0  0
 39 66  1  0  0  0  0
 39 78  1  0  0  0  0
 39 85  2  0  0  0  0
 40 73  1  0  0  0  0
 40 79  1  0  0  0  0
 40 86  2  0  0  0  0
 41 47  1  0  0  0  0
 42 54  1  0  0  0  0
 43 72  1  0  0  0  0
 44 45  1  0  0  0  0
 46 71  1  0  0  0  0
 47 49  1  0  0  0  0
 48 50  1  0  0  0  0
 48 51  1  0  0  0  0
 49 53  1  0  0  0  0
 50 55  1  0  0  0  0
 51 73  1  0  0  0  0
 52 55  1  0  0  0  0
 52 73  1  0  0  0  0
 53 77  1  0  0  0  0
 54 72  1  0  0  0  0
 55 70  1  0  0  0  0
 58 66  1  0  0  0  0
 59 67  1  0  0  0  0
 60 67  1  0  0  0  0
 61 67  1  0  0  0  0
 62 79  1  0  0  0  0
 63 80  1  0  0  0  0
 64 88  1  0  0  0  0
 65 67  1  0  0  0  0
 65 78  1  0  0  0  0
 66 80  1  0  0  0  0
 68 70  1  0  0  0  0
M  CHG  1  80   1
M  ISO  4  40 100  64 101  79 100  88 101
M  END
> <Batch ID>
0111

> <Smiles>
CNC(C)C(=O)NC(C(=O)N1Cc2cc([101O:1][101CH2:1]C3=C(C)N(c4cc(C)c([100N:0](C)[100C:0](=O)N5CCCC(n6nc(-c7ccc(Oc8ccc(F)cc8F)cc7)c(C(N)=O)c6N)C5)c(N)n4)CC(=O)CC3)ccc2CC1C(=O)NC1CCCc2ccccc21)C(C)(C)C

> <Shape>
0.270

> <Color>
0.106

> <Negative vol penalty>
0.000

$$$$

  -OEChem-04052301283D

 86 94  0     1  0  0  0  0  0999 V2000
  -15.5429  -26.7771   25.0399 C   0  0  0  0  0  0  0  0  0  0  0  0
  -16.3304  -25.9286   24.2683 C   0  0  0  0  0  0  0  0  0  0  0  0
  -31.8829  -20.2279   20.0984 C   0  0  0  0  0  0  0  0  0  0  0  0
  -30.1486  -20.4734   18.4344 C   0  0  0  0  0  0  0  0  0  0  0  0
  -15.7852  -28.1501   25.0321 C   0  0  0  0  0  0  0  0  0  0  0  0
  -17.3600  -26.4527   23.4876 C   0  0  0  0  0  0  0  0  0  0  0  0
  -21.6401  -23.7722   23.8626 C   0  0  0  0  0  0  0  0  0  0  0  0
  -32.6849  -21.1267   19.3953 C   0  0  0  0  0  0  0  0  0  0  0  0
  -30.9506  -21.3723   17.7312 C   0  0  0  0  0  0  0  0  0  0  0  0
  -21.7103  -22.5806   23.1422 C   0  0  0  0  0  0  0  0  0  0  0  0
  -32.3979  -24.0079   15.6875 C   0  0  0  0  0  0  0  0  0  0  0  0
  -31.8016  -25.1761   15.2128 C   0  0  0  0  0  0  0  0  0  0  0  0
  -22.9950  -23.6968   21.4326 C   0  0  0  0  0  0  0  0  0  0  0  0
  -21.3745  -12.6470   22.0137 C   0  0  0  0  0  0  0  0  0  0  0  0
  -23.3740  -12.2962   20.7039 C   0  0  0  0  0  0  0  0  0  0  0  0
  -31.2251  -25.8008   17.4743 C   0  0  0  0  0  0  0  0  0  0  0  0
  -30.6148  -19.9011   19.6180 C   0  0  0  0  0  0  0  0  0  0  0  0
  -28.8565  -19.2743   21.3567 C   0  0  0  0  0  0  0  0  0  0  0  0
  -16.8245  -28.6903   24.2583 C   0  0  0  0  0  0  0  0  0  0  0  0
  -22.2386  -24.9397   23.3672 C   0  0  0  0  0  0  0  0  0  0  0  0
  -17.6156  -27.8344   23.4684 C   0  0  0  0  0  0  0  0  0  0  0  0
  -22.9332  -24.9013   22.1498 C   0  0  0  0  0  0  0  0  0  0  0  0
  -21.9133  -13.8300   22.5194 C   0  0  0  0  0  0  0  0  0  0  0  0
  -23.1824  -14.2461   22.1174 C   0  0  0  0  0  0  0  0  0  0  0  0
  -23.9129  -13.4792   21.2096 C   0  0  0  0  0  0  0  0  0  0  0  0
  -32.2188  -21.6990   18.2117 C   0  0  0  0  0  0  0  0  0  0  0  0
  -22.3853  -22.5434   21.9257 C   0  0  0  0  0  0  0  0  0  0  0  0
  -32.4078  -23.7361   17.0556 C   0  0  0  0  0  0  0  0  0  0  0  0
  -31.2152  -26.0725   16.1061 C   0  0  0  0  0  0  0  0  0  0  0  0
  -22.1049  -11.8800   21.1060 C   0  0  0  0  0  0  0  0  0  0  0  0
  -31.8214  -24.6326   17.9490 C   0  0  0  0  0  0  0  0  0  0  0  0
  -29.7861  -18.9722   20.3436 C   0  0  0  0  0  0  0  0  0  0  0  0
  -28.3354  -18.0562   21.7188 C   0  0  0  0  0  0  0  0  0  0  0  0
  -23.0510  -20.3041   21.8124 C   0  0  0  0  0  0  0  0  0  1  0  0
  -28.4962  -20.5425   21.9200 C   0  0  0  0  0  0  0  0  0  0  0  0
  -22.7633  -19.0104   21.5998 C   0  0  0  0  0  0  0  0  0  0  0  0
  -23.5433  -17.9834   22.3619 C   0  0  0  0  0  0  0  0  0  0  0  0
  -21.1788  -27.8055   22.4909 C   0  0  0  0  0  0  0  0  0  0  0  0
  -24.3434  -28.4562   22.2004 C   0  0  0  0  0  0  0  0  0  0  0  0
  -27.5112  -27.2798   21.7232 C   0  0  0  0  0  0  0  0  0  0  0  0
  -26.2617  -13.0594   20.4014 C   0  0  0  0  0  0  0  0  0  0  0  0
  -17.0181  -30.1860   24.2455 C   0  0  0  0  0  0  0  0  0  0  0  0
  -22.1767  -26.2106   24.1692 C   0  0  0  0  0  0  0  0  0  0  0  0
  -23.6100  -26.1222   21.5842 C   0  0  0  0  0  0  0  0  0  0  0  0
  -18.3682  -30.6207   23.6811 C   0  0  0  0  0  0  0  0  0  0  0  0
  -29.8070  -13.3602   20.5338 C   0  0  0  0  0  0  0  0  0  0  0  0
  -18.6706  -29.8742   22.3857 C   0  0  0  0  0  0  0  0  0  0  0  0
  -30.0412  -14.8719   20.5795 C   0  0  0  0  0  0  0  0  0  0  0  0
  -28.6252  -12.9962   19.6368 C   0  0  0  0  0  0  0  0  0  0  0  0
  -27.6076  -15.2120   19.9885 C   0  0  0  0  0  0  0  0  0  0  0  0
  -18.7577  -28.3624   22.6276 C   0  0  1  0  0  0  0  0  0  0  0  0
  -22.3828  -27.4624   23.3220 C   0  0  1  0  0  0  0  0  0  0  0  0
  -28.7473  -15.6322   20.9309 C   0  0  2  0  0  0  0  0  0  0  0  0
  -21.1093  -14.6332   23.4887 C   0  0  0  0  0  0  0  0  0  0  0  0
  -29.8869  -28.0552   21.4947 C   0  0  0  0  0  0  0  0  0  0  0  0
  -23.7625  -29.3892   19.3540 C   0  0  0  0  0  0  0  0  0  0  0  0
  -26.2163  -29.2416   18.8793 C   0  0  0  0  0  0  0  0  0  0  0  0
  -25.3763  -30.8255   20.6138 C   0  0  0  0  0  0  0  0  0  0  0  0
  -28.3613  -25.7539   24.1123 C   0  0  0  0  0  0  0  0  0  0  0  0
  -23.7585  -15.5202   22.6641 C   0  0  0  0  0  0  0  0  0  0  0  0
  -25.3607  -28.3428   21.0909 C   0  0  1  0  0  0  0  0  0  0  0  0
  -28.8120  -27.5648   22.4521 C   0  0  2  0  0  0  0  0  0  0  0  0
  -25.1647  -29.4271   19.9939 C   0  0  0  0  0  0  0  0  0  0  0  0
  -29.8540  -17.6647   20.0792 N   0  0  0  0  0  0  0  0  0  0  0  0
  -28.9605  -17.1344   20.9315 N   0  0  0  0  0  0  0  0  0  0  0  0
  -23.5161  -27.3424   22.4025 N   0  0  0  0  0  0  0  0  0  0  0  0
  -27.4342  -13.7516   20.0313 N   0  0  0  0  0  0  0  0  0  0  0  0
  -27.4082  -17.6943   22.6308 N   0  0  0  0  0  0  0  0  0  0  0  0
  -29.1286  -21.6942   21.4320 N   0  0  0  0  0  0  0  0  0  0  0  0
  -25.2044  -13.8822   20.7886 N   0  0  0  0  0  0  0  0  0  0  0  0
  -23.1585  -16.6884   22.0597 N   0  0  0  0  0  0  0  0  0  0  0  0
  -20.0292  -28.0190   23.2273 N   0  0  0  0  0  0  0  0  0  0  0  0
  -26.6703  -28.3725   21.7331 N   0  0  0  0  0  0  0  0  0  0  0  0
  -29.3094  -26.3317   23.1253 N   0  3  0  0  0  0  0  0  0  0  0  0
  -27.6509  -20.6496   22.8406 O   0  0  0  0  0  0  0  0  0  0  0  0
  -24.4220  -18.2904   23.1627 O   0  0  0  0  0  0  0  0  0  0  0  0
  -21.2854  -27.8729   21.2720 O   0  0  0  0  0  0  0  0  0  0  0  0
  -24.2897  -29.4921   22.8681 O   0  0  0  0  0  0  0  0  0  0  0  0
  -27.2672  -26.1975   21.1945 O   0  0  0  0  0  0  0  0  0  0  0  0
  -26.2088  -11.8269   20.4029 O   0  0  0  0  0  0  0  0  0  0  0  0
  -21.7958  -18.5637   20.7268 O   0  0  0  0  0  0  0  0  0  0  0  0
  -33.0009  -22.5764   17.5254 O   0  0  0  0  0  0  0  0  0  0  0  0
  -22.4548  -21.3818   21.2202 O   0  0  0  0  0  0  0  0  0  1  0  0
  -30.6439  -27.1950   15.6503 F   0  0  0  0  0  0  0  0  0  0  0  0
  -21.5885  -10.7428   20.6219 F   0  0  0  0  0  0  0  0  0  0  0  0
  -31.8288  -24.3775   19.2646 F   0  0  0  0  0  0  0  0  0  0  0  0
  1  2  1  0  0  0  0
  1  5  2  0  0  0  0
  2  6  2  0  0  0  0
  3  8  2  0  0  0  0
  3 17  1  0  0  0  0
  4  9  1  0  0  0  0
  4 17  2  0  0  0  0
  5 19  1  0  0  0  0
  6 21  1  0  0  0  0
  7 10  2  0  0  0  0
  7 20  1  0  0  0  0
  8 26  1  0  0  0  0
  9 26  2  0  0  0  0
 10 27  1  0  0  0  0
 11 12  2  0  0  0  0
 11 28  1  0  0  0  0
 12 29  1  0  0  0  0
 13 22  1  0  0  0  0
 13 27  2  0  0  0  0
 14 23  2  0  0  0  0
 14 30  1  0  0  0  0
 15 25  1  0  0  0  0
 15 30  2  0  0  0  0
 16 29  2  0  0  0  0
 16 31  1  0  0  0  0
 17 32  1  0  0  0  0
 18 32  1  0  0  0  0
 18 33  2  0  0  0  0
 18 35  1  0  0  0  0
 19 21  2  0  0  0  0
 19 42  1  0  0  0  0
 20 22  2  0  0  0  0
 20 43  1  0  0  0  0
 21 51  1  0  0  0  0
 22 44  1  0  0  0  0
 23 24  1  0  0  0  0
 23 54  1  0  0  0  0
 24 25  2  0  0  0  0
 24 60  1  0  0  0  0
 25 70  1  0  0  0  0
 26 82  1  0  0  0  0
 27 83  1  0  0  0  0
 28 31  2  0  0  0  0
 28 82  1  0  0  0  0
 29 84  1  0  0  0  0
 30 85  1  0  0  0  0
 31 86  1  0  0  0  0
 32 64  2  0  0  0  0
 33 65  1  0  0  0  0
 33 68  1  0  0  0  0
 34 36  2  0  0  0  0
 34 83  1  0  0  0  0
 35 69  1  0  0  0  0
 35 75  2  0  0  0  0
 36 37  1  0  0  0  0
 36 81  1  0  0  0  0
 37 71  1  0  0  0  0
 37 76  2  0  0  0  0
 38 52  1  0  0  0  0
 38 72  1  0  0  0  0
 38 77  2  0  0  0  0
 39 61  1  0  0  0  0
 39 66  1  0  0  0  0
 39 78  2  0  0  0  0
 40 62  1  0  0  0  0
 40 73  1  0  0  0  0
 40 79  2  0  0  0  0
 41 67  1  0  0  0  0
 41 70  1  0  0  0  0
 41 80  2  0  0  0  0
 42 45  1  0  0  0  0
 43 52  1  0  0  0  0
 44 66  1  0  0  0  0
 45 47  1  0  0  0  0
 46 48  1  0  0  0  0
 46 49  1  0  0  0  0
 47 51  1  0  0  0  0
 48 53  1  0  0  0  0
 49 67  1  0  0  0  0
 50 53  1  0  0  0  0
 50 67  1  0  0  0  0
 51 72  1  0  0  0  0
 52 66  1  0  0  0  0
 53 65  1  0  0  0  0
 55 62  1  0  0  0  0
 56 63  1  0  0  0  0
 57 63  1  0  0  0  0
 58 63  1  0  0  0  0
 59 74  1  0  0  0  0
 60 71  1  0  0  0  0
 61 63  1  0  0  0  0
 61 73  1  0  0  0  0
 62 74  1  0  0  0  0
 64 65  1  0  0  0  0
M  CHG  1  74   1
M  ISO  4  34 101  41 100  70 100  83 101
M  END
> <Batch ID>
0111

> <Smiles>
CNC(C)C(=O)NC(C(=O)N1Cc2cc([101O:1][101CH2:1]C(=O)C(=O)NCc3c(C)cc(F)cc3[100NH:0][100C:0](=O)N3CCCC(n4nc(-c5ccc(Oc6ccc(F)cc6F)cc5)c(C(N)=O)c4N)C3)ccc2CC1C(=O)NC1CCCc2ccccc21)C(C)(C)C

> <Shape>
0.234

> <Color>
0.058

> <Negative vol penalty>
0.000

$$$$

  -OEChem-04052301283D

 86 94  0     1  0  0  0  0  0999 V2000
  -30.2943  -31.4833   25.4188 C   0  0  0  0  0  0  0  0  0  0  0  0
  -29.9310  -30.5806   24.4246 C   0  0  0  0  0  0  0  0  0  0  0  0
  -24.7027   -8.6007   21.4294 C   0  0  0  0  0  0  0  0  0  0  0  0
  -23.1679  -10.3657   20.8242 C   0  0  0  0  0  0  0  0  0  0  0  0
  -29.3570  -31.8868   26.3688 C   0  0  0  0  0  0  0  0  0  0  0  0
  -28.6303  -30.0801   24.3803 C   0  0  0  0  0  0  0  0  0  0  0  0
  -26.7065  -30.0813   19.6959 C   0  0  0  0  0  0  0  0  0  0  0  0
  -23.7593   -8.0850   22.3180 C   0  0  0  0  0  0  0  0  0  0  0  0
  -22.2244   -9.8500   21.7128 C   0  0  0  0  0  0  0  0  0  0  0  0
  -27.1198  -29.0632   18.8376 C   0  0  0  0  0  0  0  0  0  0  0  0
  -20.9540   -6.2041   22.1581 C   0  0  0  0  0  0  0  0  0  0  0  0
  -20.7432   -4.8253   22.1517 C   0  0  0  0  0  0  0  0  0  0  0  0
  -25.0720  -27.8673   19.2800 C   0  0  0  0  0  0  0  0  0  0  0  0
  -26.9501  -18.6990   20.6094 C   0  0  0  0  0  0  0  0  0  0  0  0
  -28.0310  -19.9480   18.3613 C   0  0  0  0  0  0  0  0  0  0  0  0
  -21.4067   -4.7131   24.4721 C   0  0  0  0  0  0  0  0  0  0  0  0
  -24.4070   -9.7411   20.6825 C   0  0  0  0  0  0  0  0  0  0  0  0
  -25.5384   -9.9452   18.4053 C   0  0  0  0  0  0  0  0  0  0  0  0
  -28.0414  -31.3984   26.3304 C   0  0  0  0  0  0  0  0  0  0  0  0
  -25.4757  -29.9947   20.3622 C   0  0  0  0  0  0  0  0  0  0  0  0
  -27.6748  -30.4765   25.3315 C   0  0  0  0  0  0  0  0  0  0  0  0
  -24.6443  -28.8868   20.1442 C   0  0  0  0  0  0  0  0  0  0  0  0
  -27.4879  -17.9316   19.5763 C   0  0  0  0  0  0  0  0  0  0  0  0
  -26.9526  -20.0909   20.5185 C   0  0  0  0  0  0  0  0  0  0  0  0
  -28.0284  -18.5561   18.4522 C   0  0  0  0  0  0  0  0  0  0  0  0
  -27.4931  -20.7154   19.3944 C   0  0  0  0  0  0  0  0  0  0  0  0
  -22.5201   -8.7096   22.4597 C   0  0  0  0  0  0  0  0  0  0  0  0
  -26.3037  -27.9547   18.6318 C   0  0  0  0  0  0  0  0  0  0  0  0
  -21.3912   -6.8374   23.3215 C   0  0  0  0  0  0  0  0  0  0  0  0
  -20.9696   -4.0798   23.3087 C   0  0  0  0  0  0  0  0  0  0  0  0
  -21.6175   -6.0919   24.4785 C   0  0  0  0  0  0  0  0  0  0  0  0
  -25.3814  -10.2746   19.7649 C   0  0  0  0  0  0  0  0  0  0  0  0
  -26.5924  -10.7185   17.9841 C   0  0  0  0  0  0  0  0  0  0  0  0
  -24.7975   -9.0227   17.5954 C   0  0  0  0  0  0  0  0  0  0  0  0
  -24.5783  -29.8693   23.4089 C   0  0  0  0  0  0  0  0  0  0  0  0
  -28.8390  -15.9006   20.0361 C   0  0  0  0  0  0  0  0  0  0  0  0
  -21.6018  -30.0727   22.1355 C   0  0  0  0  0  0  0  0  0  0  0  0
  -28.0049  -22.8908   18.2333 C   0  0  0  0  0  0  0  0  0  0  0  0
  -19.5625  -29.5814   19.4435 C   0  0  0  0  0  0  0  0  0  0  0  0
  -27.0761  -31.8273   27.4070 C   0  0  0  0  0  0  0  0  0  0  0  0
  -25.0325  -31.1139   21.2640 C   0  0  0  0  0  0  0  0  0  0  0  0
  -23.3046  -28.7556   20.8198 C   0  0  0  0  0  0  0  0  0  0  0  0
  -25.6164  -31.5381   27.0667 C   0  0  0  0  0  0  0  0  0  0  0  0
  -30.5848  -12.8059   19.5721 C   0  0  0  0  0  0  0  0  0  0  0  0
  -25.4648  -30.1187   26.5289 C   0  0  0  0  0  0  0  0  0  0  0  0
  -29.4635  -11.7724   19.4739 C   0  0  0  0  0  0  0  0  0  0  0  0
  -30.2311  -13.9225   20.5495 C   0  0  0  0  0  0  0  0  0  0  0  0
  -27.8143  -13.5750   20.1493 C   0  0  0  0  0  0  0  0  0  0  0  0
  -26.2667  -29.9302   25.2355 C   0  0  1  0  0  0  0  0  0  0  0  0
  -23.9891  -30.6784   22.2883 C   0  0  1  0  0  0  0  0  0  0  0  0
  -28.1182  -12.4455   19.1491 C   0  0  2  0  0  0  0  0  0  0  0  0
  -26.3699  -20.8879   21.6402 C   0  0  0  0  0  0  0  0  0  0  0  0
  -27.6731  -17.6753   16.1318 C   0  0  0  0  0  0  0  0  0  0  0  0
  -17.1710  -29.8052   18.7171 C   0  0  0  0  0  0  0  0  0  0  0  0
  -20.8882  -27.5649   23.7205 C   0  0  0  0  0  0  0  0  0  0  0  0
  -18.8721  -27.3000   22.2599 C   0  0  0  0  0  0  0  0  0  0  0  0
  -19.1116  -29.3249   23.6970 C   0  0  0  0  0  0  0  0  0  0  0  0
  -20.2689  -31.5102   17.3129 C   0  0  0  0  0  0  0  0  0  0  0  0
  -27.4738  -16.4430   19.6956 C   0  0  0  0  0  0  0  0  0  0  0  0
  -28.6095  -17.7551   17.3336 C   0  0  0  0  0  0  0  0  0  0  0  0
  -27.8181  -24.3748   18.5173 C   0  0  0  0  0  0  0  0  0  0  0  0
  -28.3500  -25.2592   17.3948 C   0  0  0  0  0  0  0  0  0  0  0  0
  -28.1094  -26.7346   17.6795 C   0  0  0  0  0  0  0  0  0  1  0  0
  -20.5760  -29.0768   21.6510 C   0  0  1  0  0  0  0  0  0  0  0  0
  -18.5324  -30.4797   18.7830 C   0  0  2  0  0  0  0  0  0  0  0  0
  -19.8880  -28.3179   22.8207 C   0  0  0  0  0  0  0  0  0  0  0  0
  -26.2651  -11.1861   20.1800 N   0  0  0  0  0  0  0  0  0  0  0  0
  -26.9876  -11.4359   19.0747 N   0  0  0  0  0  0  0  0  0  0  0  0
  -22.9185  -29.8730   21.6971 N   0  0  0  0  0  0  0  0  0  0  0  0
  -28.9363  -14.5212   20.2203 N   0  0  0  0  0  0  0  0  0  0  0  0
  -27.2106  -10.8479   16.7910 N   0  0  0  0  0  0  0  0  0  0  0  0
  -23.7457   -8.3098   18.1867 N   0  0  0  0  0  0  0  0  0  0  0  0
  -27.5051  -22.1262   19.2837 N   0  0  0  0  0  0  0  0  0  0  0  0
  -25.5679  -30.5248   24.1163 N   0  0  0  0  0  0  0  0  0  0  0  0
  -19.6555  -29.8211   20.7982 N   0  0  0  0  0  0  0  0  0  0  0  0
  -18.9558  -30.8203   17.3953 N   0  3  0  0  0  0  0  0  0  0  0  0
  -25.0711   -8.8240   16.3874 O   0  0  0  0  0  0  0  0  0  0  0  0
  -24.1646  -28.7348   23.6174 O   0  0  0  0  0  0  0  0  0  0  0  0
  -29.7900  -16.6808   20.1321 O   0  0  0  0  0  0  0  0  0  0  0  0
  -21.2466  -30.9979   22.8700 O   0  0  0  0  0  0  0  0  0  0  0  0
  -28.5312  -22.4864   17.2019 O   0  0  0  0  0  0  0  0  0  0  0  0
  -20.2164  -28.7477   18.8208 O   0  0  0  0  0  0  0  0  0  0  0  0
  -21.5992   -8.2065   23.3265 O   0  0  0  0  0  0  0  0  0  0  0  0
  -26.7050  -26.9593   17.7951 O   0  0  0  0  0  0  0  0  0  1  0  0
  -20.7657   -2.7559   23.3028 F   0  0  0  0  0  0  0  0  0  0  0  0
  -22.0364   -6.6949   25.5995 F   0  0  0  0  0  0  0  0  0  0  0  0
  1  2  1  0  0  0  0
  1  5  2  0  0  0  0
  2  6  2  0  0  0  0
  3  8  2  0  0  0  0
  3 17  1  0  0  0  0
  4  9  1  0  0  0  0
  4 17  2  0  0  0  0
  5 19  1  0  0  0  0
  6 21  1  0  0  0  0
  7 10  2  0  0  0  0
  7 20  1  0  0  0  0
  8 27  1  0  0  0  0
  9 27  2  0  0  0  0
 10 28  1  0  0  0  0
 11 12  2  0  0  0  0
 11 29  1  0  0  0  0
 12 30  1  0  0  0  0
 13 22  1  0  0  0  0
 13 28  2  0  0  0  0
 14 23  1  0  0  0  0
 14 24  2  0  0  0  0
 15 25  1  0  0  0  0
 15 26  2  0  0  0  0
 16 30  2  0  0  0  0
 16 31  1  0  0  0  0
 17 32  1  0  0  0  0
 18 32  1  0  0  0  0
 18 33  2  0  0  0  0
 18 34  1  0  0  0  0
 19 21  2  0  0  0  0
 19 40  1  0  0  0  0
 20 22  2  0  0  0  0
 20 41  1  0  0  0  0
 21 49  1  0  0  0  0
 22 42  1  0  0  0  0
 23 25  2  0  0  0  0
 23 59  1  0  0  0  0
 24 26  1  0  0  0  0
 24 52  1  0  0  0  0
 25 60  1  0  0  0  0
 26 73  1  0  0  0  0
 27 83  1  0  0  0  0
 28 84  1  0  0  0  0
 29 31  2  0  0  0  0
 29 83  1  0  0  0  0
 30 85  1  0  0  0  0
 31 86  1  0  0  0  0
 32 67  2  0  0  0  0
 33 68  1  0  0  0  0
 33 71  1  0  0  0  0
 34 72  1  0  0  0  0
 34 77  2  0  0  0  0
 35 50  1  0  0  0  0
 35 74  1  0  0  0  0
 35 78  2  0  0  0  0
 36 59  1  0  0  0  0
 36 70  1  0  0  0  0
 36 79  2  0  0  0  0
 37 64  1  0  0  0  0
 37 69  1  0  0  0  0
 37 80  2  0  0  0  0
 38 61  1  0  0  0  0
 38 73  1  0  0  0  0
 38 81  2  0  0  0  0
 39 65  1  0  0  0  0
 39 75  1  0  0  0  0
 39 82  2  0  0  0  0
 40 43  1  0  0  0  0
 41 50  1  0  0  0  0
 42 69  1  0  0  0  0
 43 45  1  0  0  0  0
 44 46  1  0  0  0  0
 44 47  1  0  0  0  0
 45 49  1  0  0  0  0
 46 51  1  0  0  0  0
 47 70  1  0  0  0  0
 48 51  1  0  0  0  0
 48 70  1  0  0  0  0
 49 74  1  0  0  0  0
 50 69  1  0  0  0  0
 51 68  1  0  0  0  0
 53 60  1  0  0  0  0
 54 65  1  0  0  0  0
 55 66  1  0  0  0  0
 56 66  1  0  0  0  0
 57 66  1  0  0  0  0
 58 76  1  0  0  0  0
 61 62  1  0  0  0  0
 62 63  1  0  0  0  0
 63 84  1  0  0  0  0
 64 66  1  0  0  0  0
 64 75  1  0  0  0  0
 65 76  1  0  0  0  0
 67 68  1  0  0  0  0
M  CHG  1  76   1
M  ISO  4  36 100  59 100  63 101  84 101
M  END
> <Batch ID>
0111

> <Smiles>
CCc1cc(NC(=O)CC[101CH2:1][101O:1]c2ccc3c(c2)CN(C(=O)C(NC(=O)C(C)NC)C(C)(C)C)C(C(=O)NC2CCCc4ccccc42)C3)c(C)cc1[100CH2:0][100C:0](=O)N1CCCC(n2nc(-c3ccc(Oc4ccc(F)cc4F)cc3)c(C(N)=O)c2N)C1

> <Shape>
0.311

> <Color>
0.094

> <Negative vol penalty>
0.000

$$$$

  -OEChem-04052301283D

 90 98  0     1  0  0  0  0  0999 V2000
  -15.3013  -27.2806   22.5016 C   0  0  0  0  0  0  0  0  0  0  0  0
  -16.4850  -26.8513   21.9102 C   0  0  0  0  0  0  0  0  0  0  0  0
  -23.0528   -9.8912   19.9514 C   0  0  0  0  0  0  0  0  0  0  0  0
  -23.8650   -9.8749   22.2267 C   0  0  0  0  0  0  0  0  0  0  0  0
  -15.2350  -27.4484   23.8841 C   0  0  0  0  0  0  0  0  0  0  0  0
  -17.6036  -26.5907   22.7009 C   0  0  0  0  0  0  0  0  0  0  0  0
  -21.8396  -22.2656   21.7751 C   0  0  0  0  0  0  0  0  0  0  0  0
  -22.3110   -8.7381   20.2079 C   0  0  0  0  0  0  0  0  0  0  0  0
  -23.1233   -8.7218   22.4832 C   0  0  0  0  0  0  0  0  0  0  0  0
  -23.1100  -22.3044   21.2021 C   0  0  0  0  0  0  0  0  0  0  0  0
  -21.1605   -5.9787   23.8401 C   0  0  0  0  0  0  0  0  0  0  0  0
  -20.4311   -5.9267   25.0279 C   0  0  0  0  0  0  0  0  0  0  0  0
  -29.7803  -17.3401   19.9622 C   0  0  0  0  0  0  0  0  0  0  0  0
  -24.0860  -22.5341   23.3962 C   0  0  0  0  0  0  0  0  0  0  0  0
  -19.1765   -7.8744   24.3427 C   0  0  0  0  0  0  0  0  0  0  0  0
  -23.8298  -10.4596   20.9608 C   0  0  0  0  0  0  0  0  0  0  0  0
  -29.4350  -16.7546   21.1802 C   0  0  0  0  0  0  0  0  0  0  0  0
  -24.1771  -12.9847   20.8559 C   0  0  0  0  0  0  0  0  0  0  0  0
  -16.3505  -27.1805   24.6932 C   0  0  0  0  0  0  0  0  0  0  0  0
  -21.6818  -22.3720   23.1644 C   0  0  0  0  0  0  0  0  0  0  0  0
  -17.5527  -26.7564   24.0954 C   0  0  0  0  0  0  0  0  0  0  0  0
  -22.8126  -22.4939   23.9845 C   0  0  0  0  0  0  0  0  0  0  0  0
  -28.3931  -17.2870   21.9395 C   0  0  0  0  0  0  0  0  0  0  0  0
  -29.0836  -18.4582   19.5035 C   0  0  0  0  0  0  0  0  0  0  0  0
  -22.3462   -8.1534   21.4738 C   0  0  0  0  0  0  0  0  0  0  0  0
  -24.2332  -22.4415   22.0124 C   0  0  0  0  0  0  0  0  0  0  0  0
  -20.8979   -6.9786   22.9036 C   0  0  0  0  0  0  0  0  0  0  0  0
  -27.6964  -18.4050   21.4808 C   0  0  0  0  0  0  0  0  0  0  0  0
  -28.0417  -18.9906   20.2628 C   0  0  0  0  0  0  0  0  0  0  0  0
  -19.4391   -6.8745   25.2792 C   0  0  0  0  0  0  0  0  0  0  0  0
  -19.9059   -7.9264   23.1549 C   0  0  0  0  0  0  0  0  0  0  0  0
  -24.5967  -11.6504   20.6963 C   0  0  0  0  0  0  0  0  0  0  0  0
  -25.2631  -13.7341   20.4745 C   0  0  0  0  0  0  0  0  0  0  0  0
  -30.1800  -15.5876   21.6340 C   0  0  0  0  0  0  0  0  0  0  0  0
  -22.9183  -13.5005   21.3085 C   0  0  0  0  0  0  0  0  0  0  0  0
  -30.7803  -14.6360   20.6710 C   0  0  0  0  0  0  0  0  0  0  0  0
  -20.2455  -24.4374   25.1073 C   0  0  0  0  0  0  0  0  0  0  0  0
  -26.8131  -14.8348   24.1226 C   0  0  0  0  0  0  0  0  0  0  0  0
  -21.0655  -22.2726   27.3796 C   0  0  0  0  0  0  0  0  0  0  0  0
  -23.1314  -19.7372   28.3545 C   0  0  0  0  0  0  0  0  0  0  0  0
  -16.2450  -27.4219   26.1782 C   0  0  0  0  0  0  0  0  0  0  0  0
  -20.3064  -22.3017   23.7691 C   0  0  0  0  0  0  0  0  0  0  0  0
  -22.6986  -22.5915   25.4832 C   0  0  0  0  0  0  0  0  0  0  0  0
  -17.3632  -26.7646   26.9831 C   0  0  0  0  0  0  0  0  0  0  0  0
  -29.5453  -12.4021   18.1529 C   0  0  0  0  0  0  0  0  0  0  0  0
  -18.7172  -27.0338   26.3343 C   0  0  0  0  0  0  0  0  0  0  0  0
  -28.1265  -12.0870   18.6255 C   0  0  0  0  0  0  0  0  0  0  0  0
  -30.4972  -12.5891   19.3299 C   0  0  0  0  0  0  0  0  0  0  0  0
  -28.6261  -13.3141   20.7866 C   0  0  0  0  0  0  0  0  0  0  0  0
  -18.7801  -26.4397   24.9219 C   0  0  1  0  0  0  0  0  0  0  0  0
  -20.2296  -22.9357   25.1545 C   0  0  1  0  0  0  0  0  0  0  0  0
  -27.6299  -13.1458   19.6261 C   0  0  2  0  0  0  0  0  0  0  0  0
  -26.0020  -13.5625   24.1315 C   0  0  0  0  0  0  0  0  0  0  0  0
  -27.1596  -15.4397   25.4595 C   0  0  0  0  0  0  0  0  0  0  0  0
  -23.5805  -18.1920   30.2802 C   0  0  0  0  0  0  0  0  0  0  0  0
  -22.3897  -24.5605   28.9034 C   0  0  0  0  0  0  0  0  0  0  0  0
  -23.6032  -22.8526   30.2742 C   0  0  0  0  0  0  0  0  0  0  0  0
  -21.1115  -22.9562   30.3341 C   0  0  0  0  0  0  0  0  0  0  0  0
  -22.5855  -17.3391   26.7083 C   0  0  0  0  0  0  0  0  0  0  0  0
  -25.3693  -18.4189   21.9710 C   0  0  0  0  0  0  0  0  0  0  0  0
  -28.0172  -16.6648   23.2470 C   0  0  0  0  0  0  0  0  0  0  0  0
  -27.0039  -22.4606   19.5897 C   0  0  0  0  0  0  0  0  0  0  0  0
  -25.5524  -22.3750   20.0347 C   0  0  0  0  0  0  0  0  0  1  0  0
  -27.8538  -21.3607   20.2064 C   0  0  0  0  0  0  0  0  0  0  0  0
  -22.2655  -22.0605   28.2706 C   0  0  1  0  0  0  0  0  0  0  0  0
  -22.8396  -18.3784   28.9653 C   0  0  2  0  0  0  0  0  0  0  0  0
  -22.3449  -23.1076   29.4172 C   0  0  0  0  0  0  0  0  0  0  0  0
  -25.8513  -11.5545   20.2483 N   0  0  0  0  0  0  0  0  0  0  0  0
  -30.3682  -15.3062   22.8936 N   0  0  0  0  0  0  0  0  0  0  0  0
  -27.2404  -15.4336   23.0695 N   0  0  0  0  0  0  0  0  0  0  0  0
  -26.2294  -12.8380   20.1230 N   0  0  0  0  0  0  0  0  0  0  0  0
  -29.9788  -13.5735   20.2777 N   0  0  0  0  0  0  0  0  0  0  0  0
  -21.3318  -22.5242   26.0263 N   0  0  0  0  0  0  0  0  0  0  0  0
  -29.4440  -19.0402   18.2685 N   0  0  0  0  0  0  0  0  0  0  0  0
  -25.4762  -15.0655   20.4088 N   0  0  0  0  0  0  0  0  0  0  0  0
  -21.9114  -12.5914   21.6607 N   0  0  0  0  0  0  0  0  0  0  0  0
  -18.9937  -25.0097   24.9842 N   0  0  0  0  0  0  0  0  0  0  0  0
  -22.1945  -20.6771   28.7286 N   0  0  0  0  0  0  0  0  0  0  0  0
  -23.2548  -17.2918   28.0337 N   0  3  0  0  0  0  0  0  0  0  0  0
  -22.6875  -14.7313   21.3825 O   0  0  0  0  0  0  0  0  0  0  0  0
  -31.9262  -14.8899   20.3234 O   0  0  0  0  0  0  0  0  0  0  0  0
  -21.3141  -25.0329   25.1788 O   0  0  0  0  0  0  0  0  0  0  0  0
  -19.9332  -22.2101   27.8652 O   0  0  0  0  0  0  0  0  0  0  0  0
  -24.0962  -19.9449   27.6221 O   0  0  0  0  0  0  0  0  0  0  0  0
  -21.6224   -7.0284   21.7245 O   0  0  0  0  0  0  0  0  0  0  0  0
  -26.6767  -18.9295   22.2195 O   0  0  0  0  0  0  0  0  0  0  0  0
  -25.4744  -22.4802   21.4557 O   0  0  0  0  0  0  0  0  0  1  0  0
  -27.3531  -20.0888   19.8173 O   0  0  0  0  0  0  0  0  0  0  0  0
  -18.7377   -6.8236   26.4192 F   0  0  0  0  0  0  0  0  0  0  0  0
  -19.6483   -8.8886   22.2585 F   0  0  0  0  0  0  0  0  0  0  0  0
  1  2  1  0  0  0  0
  1  5  2  0  0  0  0
  2  6  2  0  0  0  0
  3  8  2  0  0  0  0
  3 16  1  0  0  0  0
  4  9  1  0  0  0  0
  4 16  2  0  0  0  0
  5 19  1  0  0  0  0
  6 21  1  0  0  0  0
  7 10  2  0  0  0  0
  7 20  1  0  0  0  0
  8 25  1  0  0  0  0
  9 25  2  0  0  0  0
 10 26  1  0  0  0  0
 11 12  2  0  0  0  0
 11 27  1  0  0  0  0
 12 30  1  0  0  0  0
 13 17  1  0  0  0  0
 13 24  2  0  0  0  0
 14 22  1  0  0  0  0
 14 26  2  0  0  0  0
 15 30  2  0  0  0  0
 15 31  1  0  0  0  0
 16 32  1  0  0  0  0
 17 23  2  0  0  0  0
 17 34  1  0  0  0  0
 18 32  1  0  0  0  0
 18 33  2  0  0  0  0
 18 35  1  0  0  0  0
 19 21  2  0  0  0  0
 19 41  1  0  0  0  0
 20 22  2  0  0  0  0
 20 42  1  0  0  0  0
 21 50  1  0  0  0  0
 22 43  1  0  0  0  0
 23 28  1  0  0  0  0
 23 61  1  0  0  0  0
 24 29  1  0  0  0  0
 24 74  1  0  0  0  0
 25 85  1  0  0  0  0
 26 87  1  0  0  0  0
 27 31  2  0  0  0  0
 27 85  1  0  0  0  0
 28 29  2  0  0  0  0
 28 86  1  0  0  0  0
 29 88  1  0  0  0  0
 30 89  1  0  0  0  0
 31 90  1  0  0  0  0
 32 68  2  0  0  0  0
 33 71  1  0  0  0  0
 33 75  1  0  0  0  0
 34 36  1  0  0  0  0
 34 69  2  0  0  0  0
 35 76  1  0  0  0  0
 35 80  2  0  0  0  0
 36 72  1  0  0  0  0
 36 81  2  0  0  0  0
 37 51  1  0  0  0  0
 37 77  1  0  0  0  0
 37 82  2  0  0  0  0
 38 53  1  0  0  0  0
 38 54  1  0  0  0  0
 38 70  2  0  0  0  0
 39 65  1  0  0  0  0
 39 73  1  0  0  0  0
 39 83  2  0  0  0  0
 40 66  1  0  0  0  0
 40 78  1  0  0  0  0
 40 84  2  0  0  0  0
 41 44  1  0  0  0  0
 42 51  1  0  0  0  0
 43 73  1  0  0  0  0
 44 46  1  0  0  0  0
 45 47  1  0  0  0  0
 45 48  1  0  0  0  0
 46 50  1  0  0  0  0
 47 52  1  0  0  0  0
 48 72  1  0  0  0  0
 49 52  1  0  0  0  0
 49 72  1  0  0  0  0
 50 77  1  0  0  0  0
 51 73  1  0  0  0  0
 52 71  1  0  0  0  0
 55 66  1  0  0  0  0
 56 67  1  0  0  0  0
 57 67  1  0  0  0  0
 58 67  1  0  0  0  0
 59 79  1  0  0  0  0
 60 86  1  0  0  0  0
 61 70  1  0  0  0  0
 62 63  1  0  0  0  0
 62 64  1  0  0  0  0
 63 87  1  0  0  0  0
 64 88  1  0  0  0  0
 65 67  1  0  0  0  0
 65 78  1  0  0  0  0
 66 79  1  0  0  0  0
 68 71  1  0  0  0  0
M  CHG  1  79   1
M  ISO  4  34 100  36 100  63 101  87 101
M  END
> <Batch ID>
0111

> <Smiles>
CNC(C)C(=O)NC(C(=O)N1Cc2cc([101O:1][101CH2:1]CCOc3c(N)cc([100C:0](=N)[100C:0](=O)N4CCCC(n5nc(-c6ccc(Oc7ccc(F)cc7F)cc6)c(C(N)=O)c5N)C4)c(CN=C(C)C)c3OC)ccc2CC1C(=O)NC1CCCc2ccccc21)C(C)(C)C

> <Shape>
0.218

> <Color>
0.175

> <Negative vol penalty>
0.000

$$$$

  -OEChem-04052301283D

 87 96  0     1  0  0  0  0  0999 V2000
  -19.6268   -8.4754   22.1032 C   0  0  0  0  0  0  0  0  0  0  0  0
  -19.8987   -9.4656   23.0419 C   0  0  0  0  0  0  0  0  0  0  0  0
  -22.3151  -28.1448   21.0812 C   0  0  0  0  0  0  0  0  0  0  0  0
  -23.6125  -27.9416   23.1092 C   0  0  0  0  0  0  0  0  0  0  0  0
  -20.6130   -8.0843   21.1986 C   0  0  0  0  0  0  0  0  0  0  0  0
  -21.1575  -10.0644   23.0772 C   0  0  0  0  0  0  0  0  0  0  0  0
  -22.4238  -15.8933   24.4653 C   0  0  0  0  0  0  0  0  0  0  0  0
  -21.1390  -28.0297   21.8221 C   0  0  0  0  0  0  0  0  0  0  0  0
  -22.4363  -27.8265   23.8501 C   0  0  0  0  0  0  0  0  0  0  0  0
  -22.8613  -16.5040   25.6397 C   0  0  0  0  0  0  0  0  0  0  0  0
  -19.2240  -30.0130   23.7797 C   0  0  0  0  0  0  0  0  0  0  0  0
  -18.1878  -30.9016   23.4931 C   0  0  0  0  0  0  0  0  0  0  0  0
  -28.4168  -21.9493   24.0772 C   0  0  0  0  0  0  0  0  0  0  0  0
  -25.1360  -16.3895   24.8448 C   0  0  0  0  0  0  0  0  0  0  0  0
  -30.5990  -21.6696   25.1211 C   0  0  0  0  0  0  0  0  0  0  0  0
  -16.7483  -29.0431   22.9355 C   0  0  0  0  0  0  0  0  0  0  0  0
  -23.5520  -28.1007   21.7247 C   0  0  0  0  0  0  0  0  0  0  0  0
  -29.0755  -22.4867   22.9879 C   0  0  0  0  0  0  0  0  0  0  0  0
  -25.4570  -29.4031   20.6375 C   0  0  0  0  0  0  0  0  0  0  0  0
  -21.8815   -8.6854   21.2166 C   0  0  0  0  0  0  0  0  0  0  0  0
  -23.3419  -15.5155   23.4748 C   0  0  0  0  0  0  0  0  0  0  0  0
  -22.1621   -9.6800   22.1729 C   0  0  0  0  0  0  0  0  0  0  0  0
  -24.7074  -15.7764   23.6576 C   0  0  0  0  0  0  0  0  0  0  0  0
  -30.4589  -22.6214   22.9376 C   0  0  0  0  0  0  0  0  0  0  0  0
  -31.2395  -22.2135   24.0029 C   0  0  0  0  0  0  0  0  0  0  0  0
  -29.1990  -21.5385   25.1574 C   0  0  0  0  0  0  0  0  0  0  0  0
  -21.1995  -27.8706   23.2065 C   0  0  0  0  0  0  0  0  0  0  0  0
  -24.2179  -16.7496   25.8309 C   0  0  0  0  0  0  0  0  0  0  0  0
  -19.0225  -28.6394   23.6442 C   0  0  0  0  0  0  0  0  0  0  0  0
  -16.9499  -30.4166   23.0710 C   0  0  0  0  0  0  0  0  0  0  0  0
  -17.7846  -28.1545   23.2221 C   0  0  0  0  0  0  0  0  0  0  0  0
  -24.7673  -28.2190   20.9599 C   0  0  0  0  0  0  0  0  0  0  0  0
  -26.5390  -28.9814   19.9040 C   0  0  0  0  0  0  0  0  0  0  0  0
  -28.5173  -22.9896   21.7305 C   0  0  0  0  0  0  0  0  0  0  0  0
  -25.1474  -30.7626   20.9713 C   0  0  0  0  0  0  0  0  0  0  0  0
  -24.2074  -12.7572   22.1534 C   0  0  0  0  0  0  0  0  0  0  0  0
  -25.9502  -14.6827   20.2098 C   0  0  0  0  0  0  0  0  0  0  0  0
  -27.2175  -20.7784   26.5134 C   0  0  0  0  0  0  0  0  0  0  0  0
  -27.5093  -17.6826   19.7444 C   0  0  0  0  0  0  0  0  0  0  0  0
  -29.5857  -23.9263   19.6328 C   0  0  0  0  0  0  0  0  0  0  0  0
  -22.9304   -8.1962   20.2496 C   0  0  0  0  0  0  0  0  0  0  0  0
  -22.8511  -14.8818   22.2020 C   0  0  0  0  0  0  0  0  0  0  0  0
  -25.7313  -15.4086   22.6161 C   0  0  0  0  0  0  0  0  0  0  0  0
  -30.8744  -23.2113   21.6385 C   0  0  0  0  0  0  0  0  0  0  0  0
  -24.1189   -9.1439   20.1093 C   0  0  0  0  0  0  0  0  0  0  0  0
  -27.9577  -25.4879   16.9721 C   0  0  0  0  0  0  0  0  0  0  0  0
  -24.6038   -9.5989   21.4821 C   0  0  0  0  0  0  0  0  0  0  0  0
  -27.0129  -26.4787   17.6514 C   0  0  0  0  0  0  0  0  0  0  0  0
  -28.0096  -24.1699   17.7363 C   0  0  0  0  0  0  0  0  0  0  0  0
  -27.4657  -25.3098   19.8641 C   0  0  0  0  0  0  0  0  0  0  0  0
  -23.5076  -10.3706   22.2266 C   0  0  1  0  0  0  0  0  0  0  0  0
  -23.9269  -14.0728   21.4839 C   0  0  1  0  0  0  0  0  0  0  0  0
  -27.3814  -26.6651   19.1338 C   0  0  2  0  0  0  0  0  0  0  0  0
  -32.7222  -22.3443   23.9751 C   0  0  0  0  0  0  0  0  0  0  0  0
  -28.8819  -18.9503   18.0692 C   0  0  0  0  0  0  0  0  0  0  0  0
  -28.3897  -13.0016   20.9398 C   0  0  0  0  0  0  0  0  0  0  0  0
  -29.8363  -14.8340   20.0356 C   0  0  0  0  0  0  0  0  0  0  0  0
  -28.2481  -13.6414   18.5263 C   0  0  0  0  0  0  0  0  0  0  0  0
  -25.4756  -19.8212   19.5234 C   0  0  0  0  0  0  0  0  0  0  0  0
  -26.9783  -20.1563   27.8822 C   0  0  0  0  0  0  0  0  0  0  0  0
  -25.7390  -19.2687   27.9155 C   0  0  0  0  0  0  0  0  0  0  0  0
  -25.8244  -18.1452   26.8927 C   0  0  0  0  0  0  0  0  0  1  0  0
  -27.3451  -15.2588   20.2470 C   0  0  1  0  0  0  0  0  0  0  0  0
  -27.4807  -18.6637   18.5864 C   0  0  2  0  0  0  0  0  0  0  0  0
  -28.4360  -14.1892   19.9578 C   0  0  0  0  0  0  0  0  0  0  0  0
  -25.3612  -27.1270   20.4711 N   0  0  0  0  0  0  0  0  0  0  0  0
  -26.4354  -27.6232   19.8341 N   0  0  0  0  0  0  0  0  0  0  0  0
  -29.6009  -23.5061   20.9757 N   0  0  0  0  0  0  0  0  0  0  0  0
  -25.2027  -14.7855   21.3915 N   0  0  0  0  0  0  0  0  0  0  0  0
  -28.3552  -24.3886   19.1410 N   0  0  0  0  0  0  0  0  0  0  0  0
  -27.5594  -29.6435   19.3185 N   0  0  0  0  0  0  0  0  0  0  0  0
  -23.9981  -31.0189   21.7314 N   0  0  0  0  0  0  0  0  0  0  0  0
  -28.5865  -20.9913   26.2860 N   0  0  0  0  0  0  0  0  0  0  0  0
  -23.4045  -11.7209   21.7163 N   0  0  0  0  0  0  0  0  0  0  0  0
  -27.3479  -16.3819   19.3160 N   0  0  0  0  0  0  0  0  0  0  0  0
  -26.8649  -19.9517   19.0138 N   0  3  0  0  0  0  0  0  0  0  0  0
  -27.3319  -22.9254   21.4565 O   0  0  0  0  0  0  0  0  0  0  0  0
  -25.8597  -31.7232   20.5924 O   0  0  0  0  0  0  0  0  0  0  0  0
  -25.0882  -12.6870   23.0025 O   0  0  0  0  0  0  0  0  0  0  0  0
  -25.5365  -14.1670   19.1684 O   0  0  0  0  0  0  0  0  0  0  0  0
  -26.2963  -21.0402   25.7471 O   0  0  0  0  0  0  0  0  0  0  0  0
  -27.6635  -18.0344   20.9119 O   0  0  0  0  0  0  0  0  0  0  0  0
  -30.5945  -23.8380   18.9236 O   0  0  0  0  0  0  0  0  0  0  0  0
  -20.0520  -27.7585   23.9299 O   0  0  0  0  0  0  0  0  0  0  0  0
  -24.6508  -17.3495   26.9850 O   0  0  0  0  0  0  0  0  0  1  0  0
  -15.9544  -31.2700   22.7973 F   0  0  0  0  0  0  0  0  0  0  0  0
  -17.5847  -26.8359   23.0911 F   0  0  0  0  0  0  0  0  0  0  0  0
  1  2  1  0  0  0  0
  1  5  2  0  0  0  0
  2  6  2  0  0  0  0
  3  8  2  0  0  0  0
  3 17  1  0  0  0  0
  4  9  1  0  0  0  0
  4 17  2  0  0  0  0
  5 20  1  0  0  0  0
  6 22  1  0  0  0  0
  7 10  2  0  0  0  0
  7 21  1  0  0  0  0
  8 27  1  0  0  0  0
  9 27  2  0  0  0  0
 10 28  1  0  0  0  0
 11 12  2  0  0  0  0
 11 29  1  0  0  0  0
 12 30  1  0  0  0  0
 13 18  1  0  0  0  0
 13 26  2  0  0  0  0
 14 23  1  0  0  0  0
 14 28  2  0  0  0  0
 15 25  2  0  0  0  0
 15 26  1  0  0  0  0
 16 30  2  0  0  0  0
 16 31  1  0  0  0  0
 17 32  1  0  0  0  0
 18 24  2  0  0  0  0
 18 34  1  0  0  0  0
 19 32  1  0  0  0  0
 19 33  2  0  0  0  0
 19 35  1  0  0  0  0
 20 22  2  0  0  0  0
 20 41  1  0  0  0  0
 21 23  2  0  0  0  0
 21 42  1  0  0  0  0
 22 51  1  0  0  0  0
 23 43  1  0  0  0  0
 24 25  1  0  0  0  0
 24 44  1  0  0  0  0
 25 54  1  0  0  0  0
 26 73  1  0  0  0  0
 27 84  1  0  0  0  0
 28 85  1  0  0  0  0
 29 31  2  0  0  0  0
 29 84  1  0  0  0  0
 30 86  1  0  0  0  0
 31 87  1  0  0  0  0
 32 66  2  0  0  0  0
 33 67  1  0  0  0  0
 33 71  1  0  0  0  0
 34 68  1  0  0  0  0
 34 77  2  0  0  0  0
 35 72  1  0  0  0  0
 35 78  2  0  0  0  0
 36 52  1  0  0  0  0
 36 74  1  0  0  0  0
 36 79  2  0  0  0  0
 37 63  1  0  0  0  0
 37 69  1  0  0  0  0
 37 80  2  0  0  0  0
 38 60  1  0  0  0  0
 38 73  1  0  0  0  0
 38 81  2  0  0  0  0
 39 64  1  0  0  0  0
 39 75  1  0  0  0  0
 39 82  2  0  0  0  0
 40 68  1  0  0  0  0
 40 70  1  0  0  0  0
 40 83  2  0  0  0  0
 41 45  1  0  0  0  0
 42 52  1  0  0  0  0
 43 69  1  0  0  0  0
 44 68  1  0  0  0  0
 45 47  1  0  0  0  0
 46 48  1  0  0  0  0
 46 49  1  0  0  0  0
 47 51  1  0  0  0  0
 48 53  1  0  0  0  0
 49 70  1  0  0  0  0
 50 53  1  0  0  0  0
 50 70  1  0  0  0  0
 51 74  1  0  0  0  0
 52 69  1  0  0  0  0
 53 67  1  0  0  0  0
 55 64  1  0  0  0  0
 56 65  1  0  0  0  0
 57 65  1  0  0  0  0
 58 65  1  0  0  0  0
 59 76  1  0  0  0  0
 60 61  1  0  0  0  0
 61 62  1  0  0  0  0
 62 85  1  0  0  0  0
 63 65  1  0  0  0  0
 63 75  1  0  0  0  0
 64 76  1  0  0  0  0
 66 67  1  0  0  0  0
M  CHG  1  76   1
M  ISO  4  40 100  62 101  68 100  85 101
M  END
> <Batch ID>
0111

> <Smiles>
CNC(C)C(=O)NC(C(=O)N1Cc2cc([101O:1][101CH2:1]CCC(=O)Nc3cc(C)c4c(c3)C(=O)[100N:0]([100C:0](=O)N3CCCC(n5nc(-c6ccc(Oc7ccc(F)cc7F)cc6)c(C(N)=O)c5N)C3)C4)ccc2CC1C(=O)NC1CCCc2ccccc21)C(C)(C)C

> <Shape>
0.249

> <Color>
0.056

> <Negative vol penalty>
0.000

$$$$

  -OEChem-04052301283D

 86 94  0     1  0  0  0  0  0999 V2000
  -27.9901  -10.8418   19.9173 C   0  0  0  0  0  0  0  0  0  0  0  0
  -28.4187  -12.0702   19.4246 C   0  0  0  0  0  0  0  0  0  0  0  0
  -19.3918  -28.1182   21.6157 C   0  0  0  0  0  0  0  0  0  0  0  0
  -20.3483  -27.4242   23.7229 C   0  0  0  0  0  0  0  0  0  0  0  0
  -26.6783  -10.6909   20.3650 C   0  0  0  0  0  0  0  0  0  0  0  0
  -27.5354  -13.1482   19.3783 C   0  0  0  0  0  0  0  0  0  0  0  0
  -29.6277  -17.4473   21.0469 C   0  0  0  0  0  0  0  0  0  0  0  0
  -18.2549  -27.3546   21.8803 C   0  0  0  0  0  0  0  0  0  0  0  0
  -19.2114  -26.6607   23.9876 C   0  0  0  0  0  0  0  0  0  0  0  0
  -30.4827  -18.1197   20.1748 C   0  0  0  0  0  0  0  0  0  0  0  0
  -17.9518  -23.6635   23.0596 C   0  0  0  0  0  0  0  0  0  0  0  0
  -18.1388  -22.3708   23.5489 C   0  0  0  0  0  0  0  0  0  0  0  0
  -32.9281  -27.2300   18.5494 C   0  0  0  0  0  0  0  0  0  0  0  0
  -28.6987  -19.6416   19.6088 C   0  0  0  0  0  0  0  0  0  0  0  0
  -16.9036  -22.9472   25.5437 C   0  0  0  0  0  0  0  0  0  0  0  0
  -20.4386  -28.1529   22.5370 C   0  0  0  0  0  0  0  0  0  0  0  0
  -31.9089  -27.4413   19.4713 C   0  0  0  0  0  0  0  0  0  0  0  0
  -21.8324  -30.2883   22.6085 C   0  0  0  0  0  0  0  0  0  0  0  0
  -25.7813  -11.7702   20.3332 C   0  0  0  0  0  0  0  0  0  0  0  0
  -28.2965  -17.8610   21.1986 C   0  0  0  0  0  0  0  0  0  0  0  0
  -26.2100  -13.0112   19.8247 C   0  0  0  0  0  0  0  0  0  0  0  0
  -27.8296  -18.9744   20.4854 C   0  0  0  0  0  0  0  0  0  0  0  0
  -33.2653  -25.9328   18.1793 C   0  0  0  0  0  0  0  0  0  0  0  0
  -18.1646  -26.6259   23.0662 C   0  0  0  0  0  0  0  0  0  0  0  0
  -30.0175  -19.2153   19.4534 C   0  0  0  0  0  0  0  0  0  0  0  0
  -17.2407  -24.5981   23.8124 C   0  0  0  0  0  0  0  0  0  0  0  0
  -17.6146  -22.0126   24.7910 C   0  0  0  0  0  0  0  0  0  0  0  0
  -16.7166  -24.2400   25.0544 C   0  0  0  0  0  0  0  0  0  0  0  0
  -21.6135  -28.9410   22.2640 C   0  0  0  0  0  0  0  0  0  0  0  0
  -31.2629  -26.3306   19.9898 C   0  0  0  0  0  0  0  0  0  0  0  0
  -32.5586  -24.8896   18.7558 C   0  0  0  0  0  0  0  0  0  0  0  0
  -23.0897  -30.5652   22.1300 C   0  0  0  0  0  0  0  0  0  0  0  0
  -31.5542  -28.7975   19.8597 C   0  0  0  0  0  0  0  0  0  0  0  0
  -20.9758  -31.2073   23.2995 C   0  0  0  0  0  0  0  0  0  0  0  0
  -25.4594  -16.5296   20.6678 C   0  0  0  0  0  0  0  0  0  0  0  0
  -24.3601  -19.2386   22.0732 C   0  0  0  0  0  0  0  0  0  0  0  0
  -24.8984  -22.5132   22.8693 C   0  0  0  0  0  0  0  0  0  0  0  0
  -27.7557  -27.0995   21.0947 C   0  0  0  0  0  0  0  0  0  0  0  0
  -24.3596  -11.5461   20.7840 C   0  0  0  0  0  0  0  0  0  0  0  0
  -27.3945  -17.1415   22.1635 C   0  0  0  0  0  0  0  0  0  0  0  0
  -26.4148  -19.4710   20.6277 C   0  0  0  0  0  0  0  0  0  0  0  0
  -23.5938  -12.8397   21.0496 C   0  0  0  0  0  0  0  0  0  0  0  0
  -26.1541  -29.2756   18.6870 C   0  0  0  0  0  0  0  0  0  0  0  0
  -23.8086  -13.8308   19.9102 C   0  0  0  0  0  0  0  0  0  0  0  0
  -24.8193  -29.5625   19.3771 C   0  0  0  0  0  0  0  0  0  0  0  0
  -26.6002  -27.8357   18.9231 C   0  0  0  0  0  0  0  0  0  0  0  0
  -25.3600  -27.7328   21.0503 C   0  0  0  0  0  0  0  0  0  0  0  0
  -25.2887  -14.2109   19.7814 C   0  0  1  0  0  0  0  0  0  0  0  0
  -25.9131  -17.3335   21.8533 C   0  0  1  0  0  0  0  0  0  0  0  0
  -24.8656  -29.1793   20.8681 C   0  0  2  0  0  0  0  0  0  0  0  0
  -32.6223  -29.6378   20.4968 C   0  0  0  0  0  0  0  0  0  0  0  0
  -23.8023  -24.4747   23.9866 C   0  0  0  0  0  0  0  0  0  0  0  0
  -22.5903  -19.6434   19.6208 C   0  0  0  0  0  0  0  0  0  0  0  0
  -22.2601  -22.0194   20.3377 C   0  0  0  0  0  0  0  0  0  0  0  0
  -21.4821  -20.1567   21.8033 C   0  0  0  0  0  0  0  0  0  0  0  0
  -27.0307  -22.6878   24.9143 C   0  0  0  0  0  0  0  0  0  0  0  0
  -30.1595  -26.4939   20.9838 C   0  0  0  0  0  0  0  0  0  0  0  0
  -32.8670  -21.1518   18.3676 C   0  0  0  0  0  0  0  0  0  0  0  0
  -32.2305  -22.4216   18.9195 C   0  0  0  0  0  0  0  0  0  0  0  0
  -32.2392  -19.8802   18.9262 C   0  0  0  0  0  0  0  0  0  1  0  0
  -23.9598  -20.6097   21.5847 C   0  0  1  0  0  0  0  0  0  0  0  0
  -24.7203  -23.2761   24.1695 C   0  0  2  0  0  0  0  0  0  0  0  0
  -22.5993  -20.5970   20.8323 C   0  0  0  0  0  0  0  0  0  0  0  0
  -22.6487  -28.3997   21.6164 N   0  0  0  0  0  0  0  0  0  0  0  0
  -31.5626  -25.0557   19.6546 N   0  0  0  0  0  0  0  0  0  0  0  0
  -23.5301  -29.4120   21.5501 N   0  0  0  0  0  0  0  0  0  0  0  0
  -25.5696  -18.7303   21.5787 N   0  0  0  0  0  0  0  0  0  0  0  0
  -26.6412  -27.5411   20.3624 N   0  0  0  0  0  0  0  0  0  0  0  0
  -34.2969  -25.7168   17.2464 N   0  0  0  0  0  0  0  0  0  0  0  0
  -23.8503  -31.6803   22.1527 N   0  0  0  0  0  0  0  0  0  0  0  0
  -19.7171  -30.7587   23.7222 N   0  0  0  0  0  0  0  0  0  0  0  0
  -32.8885  -23.5930   18.3932 N   0  0  0  0  0  0  0  0  0  0  0  0
  -25.6553  -15.1684   20.8029 N   0  0  0  0  0  0  0  0  0  0  0  0
  -23.9887  -21.4837   22.7525 N   0  0  0  0  0  0  0  0  0  0  0  0
  -28.9285  -26.9366   20.3675 N   0  0  0  0  0  0  0  0  0  0  0  0
  -26.0371  -23.7644   24.6682 N   0  3  0  0  0  0  0  0  0  0  0  0
  -30.4419  -29.3069   19.7095 O   0  0  0  0  0  0  0  0  0  0  0  0
  -21.3099  -32.3960   23.5206 O   0  0  0  0  0  0  0  0  0  0  0  0
  -24.9666  -17.1017   19.7026 O   0  0  0  0  0  0  0  0  0  0  0  0
  -23.6301  -18.6435   22.8699 O   0  0  0  0  0  0  0  0  0  0  0  0
  -25.7562  -22.8040   22.0385 O   0  0  0  0  0  0  0  0  0  0  0  0
  -27.7106  -26.8723   22.3085 O   0  0  0  0  0  0  0  0  0  0  0  0
  -17.0553  -25.8809   23.3249 O   0  0  0  0  0  0  0  0  0  0  0  0
  -30.8497  -19.8730   18.6010 O   0  0  0  0  0  0  0  0  0  1  0  0
  -17.7930  -20.7707   25.2601 F   0  0  0  0  0  0  0  0  0  0  0  0
  -16.0317  -25.1332   25.7816 F   0  0  0  0  0  0  0  0  0  0  0  0
  1  2  1  0  0  0  0
  1  5  2  0  0  0  0
  2  6  2  0  0  0  0
  3  8  2  0  0  0  0
  3 16  1  0  0  0  0
  4  9  1  0  0  0  0
  4 16  2  0  0  0  0
  5 19  1  0  0  0  0
  6 21  1  0  0  0  0
  7 10  2  0  0  0  0
  7 20  1  0  0  0  0
  8 24  1  0  0  0  0
  9 24  2  0  0  0  0
 10 25  1  0  0  0  0
 11 12  2  0  0  0  0
 11 26  1  0  0  0  0
 12 27  1  0  0  0  0
 13 17  2  0  0  0  0
 13 23  1  0  0  0  0
 14 22  1  0  0  0  0
 14 25  2  0  0  0  0
 15 27  2  0  0  0  0
 15 28  1  0  0  0  0
 16 29  1  0  0  0  0
 17 30  1  0  0  0  0
 17 33  1  0  0  0  0
 18 29  1  0  0  0  0
 18 32  2  0  0  0  0
 18 34  1  0  0  0  0
 19 21  2  0  0  0  0
 19 39  1  0  0  0  0
 20 22  2  0  0  0  0
 20 40  1  0  0  0  0
 21 48  1  0  0  0  0
 22 41  1  0  0  0  0
 23 31  2  0  0  0  0
 23 69  1  0  0  0  0
 24 83  1  0  0  0  0
 25 84  1  0  0  0  0
 26 28  2  0  0  0  0
 26 83  1  0  0  0  0
 27 85  1  0  0  0  0
 28 86  1  0  0  0  0
 29 64  2  0  0  0  0
 30 57  1  0  0  0  0
 30 65  2  0  0  0  0
 31 65  1  0  0  0  0
 31 72  1  0  0  0  0
 32 66  1  0  0  0  0
 32 70  1  0  0  0  0
 33 51  1  0  0  0  0
 33 77  2  0  0  0  0
 34 71  1  0  0  0  0
 34 78  2  0  0  0  0
 35 49  1  0  0  0  0
 35 73  1  0  0  0  0
 35 79  2  0  0  0  0
 36 61  1  0  0  0  0
 36 67  1  0  0  0  0
 36 80  2  0  0  0  0
 37 62  1  0  0  0  0
 37 74  1  0  0  0  0
 37 81  2  0  0  0  0
 38 68  1  0  0  0  0
 38 75  1  0  0  0  0
 38 82  2  0  0  0  0
 39 42  1  0  0  0  0
 40 49  1  0  0  0  0
 41 67  1  0  0  0  0
 42 44  1  0  0  0  0
 43 45  1  0  0  0  0
 43 46  1  0  0  0  0
 44 48  1  0  0  0  0
 45 50  1  0  0  0  0
 46 68  1  0  0  0  0
 47 50  1  0  0  0  0
 47 68  1  0  0  0  0
 48 73  1  0  0  0  0
 49 67  1  0  0  0  0
 50 66  1  0  0  0  0
 52 62  1  0  0  0  0
 53 63  1  0  0  0  0
 54 63  1  0  0  0  0
 55 63  1  0  0  0  0
 56 76  1  0  0  0  0
 57 75  1  0  0  0  0
 58 59  1  0  0  0  0
 58 60  1  0  0  0  0
 59 72  1  0  0  0  0
 60 84  1  0  0  0  0
 61 63  1  0  0  0  0
 61 74  1  0  0  0  0
 62 76  1  0  0  0  0
 64 66  1  0  0  0  0
M  CHG  1  76   1
M  ISO  4  38 100  60 101  75 100  84 101
M  END
> <Batch ID>
0111

> <Smiles>
CNC(C)C(=O)NC(C(=O)N1Cc2cc([101O:1][101CH2:1]CCNc3nc(C[100NH:0][100C:0](=O)N4CCCC(n5nc(-c6ccc(Oc7ccc(F)cc7F)cc6)c(C(N)=O)c5N)C4)c(C(C)=O)cc3N)ccc2CC1C(=O)NC1CCCc2ccccc21)C(C)(C)C

> <Shape>
0.231

> <Color>
0.069

> <Negative vol penalty>
0.000

$$$$
