
  -OEChem-04052301313D

 85 93  0     1  0  0  0  0  0999 V2000
  -29.7640  -24.0105   31.1426 C   0  0  0  0  0  0  0  0  0  0  0  0
  -30.1007  -24.1966   29.8057 C   0  0  0  0  0  0  0  0  0  0  0  0
  -24.0207   -9.7027   21.3251 C   0  0  0  0  0  0  0  0  0  0  0  0
  -24.6428  -10.7287   23.4221 C   0  0  0  0  0  0  0  0  0  0  0  0
  -28.4549  -23.6806   31.4911 C   0  0  0  0  0  0  0  0  0  0  0  0
  -29.1288  -24.0517   28.8163 C   0  0  0  0  0  0  0  0  0  0  0  0
  -28.6862  -27.2259   23.5976 C   0  0  0  0  0  0  0  0  0  0  0  0
  -23.5964   -8.5632   22.0085 C   0  0  0  0  0  0  0  0  0  0  0  0
  -24.2184   -9.5892   24.1055 C   0  0  0  0  0  0  0  0  0  0  0  0
  -29.0746  -26.9393   22.2897 C   0  0  0  0  0  0  0  0  0  0  0  0
  -25.0093   -5.8438   23.4344 C   0  0  0  0  0  0  0  0  0  0  0  0
  -25.3896   -4.6031   22.9229 C   0  0  0  0  0  0  0  0  0  0  0  0
  -28.2892  -19.5364   20.7818 C   0  0  0  0  0  0  0  0  0  0  0  0
  -26.8402  -26.1729   21.8005 C   0  0  0  0  0  0  0  0  0  0  0  0
  -30.4403  -19.2942   19.7088 C   0  0  0  0  0  0  0  0  0  0  0  0
  -23.0651   -3.9992   22.6598 C   0  0  0  0  0  0  0  0  0  0  0  0
  -24.5440  -10.7855   22.0319 C   0  0  0  0  0  0  0  0  0  0  0  0
  -28.4241  -20.9240   20.7390 C   0  0  0  0  0  0  0  0  0  0  0  0
  -24.2129  -13.0953   21.0010 C   0  0  0  0  0  0  0  0  0  0  0  0
  -27.4642  -23.5412   30.5064 C   0  0  0  0  0  0  0  0  0  0  0  0
  -27.3725  -26.9775   24.0206 C   0  0  0  0  0  0  0  0  0  0  0  0
  -27.8055  -23.7184   29.1519 C   0  0  0  0  0  0  0  0  0  0  0  0
  -26.4370  -26.4595   23.1136 C   0  0  0  0  0  0  0  0  0  0  0  0
  -29.2974  -18.7214   20.2667 C   0  0  0  0  0  0  0  0  0  0  0  0
  -30.5752  -20.6819   19.6660 C   0  0  0  0  0  0  0  0  0  0  0  0
  -23.6952   -8.5064   23.3987 C   0  0  0  0  0  0  0  0  0  0  0  0
  -28.1523  -26.4100   21.3917 C   0  0  0  0  0  0  0  0  0  0  0  0
  -23.6570   -6.1622   23.5587 C   0  0  0  0  0  0  0  0  0  0  0  0
  -29.5671  -21.4968   20.1811 C   0  0  0  0  0  0  0  0  0  0  0  0
  -24.4175   -3.6808   22.5356 C   0  0  0  0  0  0  0  0  0  0  0  0
  -22.6849   -5.2399   23.1713 C   0  0  0  0  0  0  0  0  0  0  0  0
  -24.9830  -11.9627   21.3265 C   0  0  0  0  0  0  0  0  0  0  0  0
  -25.0846  -13.9241   20.3378 C   0  0  0  0  0  0  0  0  0  0  0  0
  -27.3560  -21.7516   21.2842 C   0  0  0  0  0  0  0  0  0  0  0  0
  -26.0422  -21.4378   21.2978 C   0  0  0  0  0  0  0  0  0  0  0  0
  -22.8331  -13.3734   21.2737 C   0  0  0  0  0  0  0  0  0  0  0  0
  -26.0393  -25.1086   26.2193 C   0  0  0  0  0  0  0  0  0  0  0  0
  -23.3322  -26.6632   25.3378 C   0  0  0  0  0  0  0  0  0  0  0  0
  -21.6515  -28.4268   22.9478 C   0  0  0  0  0  0  0  0  0  0  0  0
  -30.0669  -16.3603   19.8432 C   0  0  0  0  0  0  0  0  0  0  0  0
  -26.0736  -23.1372   30.9278 C   0  0  0  0  0  0  0  0  0  0  0  0
  -26.9623  -27.3170   25.4273 C   0  0  0  0  0  0  0  0  0  0  0  0
  -25.0091  -26.1935   23.5122 C   0  0  0  0  0  0  0  0  0  0  0  0
  -25.0186  -23.3702   29.8493 C   0  0  0  0  0  0  0  0  0  0  0  0
  -29.7416  -13.0575   18.5538 C   0  0  0  0  0  0  0  0  0  0  0  0
  -25.5095  -22.8518   28.5014 C   0  0  0  0  0  0  0  0  0  0  0  0
  -28.4113  -12.5714   19.1334 C   0  0  0  0  0  0  0  0  0  0  0  0
  -30.5062  -13.9327   19.5453 C   0  0  0  0  0  0  0  0  0  0  0  0
  -28.4128  -14.5746   20.6742 C   0  0  0  0  0  0  0  0  0  0  0  0
  -26.7737  -23.5944   28.0519 C   0  0  1  0  0  0  0  0  0  0  0  0
  -25.7332  -26.5434   25.8946 C   0  0  1  0  0  0  0  0  0  0  0  0
  -27.5768  -13.7425   19.6881 C   0  0  2  0  0  0  0  0  0  0  0  0
  -24.9784  -22.3235   21.8606 C   0  0  0  0  0  0  0  0  0  0  0  0
  -19.4421  -29.5304   22.5030 C   0  0  0  0  0  0  0  0  0  0  0  0
  -22.0621  -23.9280   24.8735 C   0  0  0  0  0  0  0  0  0  0  0  0
  -20.2588  -25.0655   23.5611 C   0  0  0  0  0  0  0  0  0  0  0  0
  -20.5653  -25.5991   25.9785 C   0  0  0  0  0  0  0  0  0  0  0  0
  -22.9134  -31.0837   22.6204 C   0  0  0  0  0  0  0  0  0  0  0  0
  -29.9908  -24.7960   18.7331 C   0  0  0  0  0  0  0  0  0  0  0  0
  -29.8914  -25.7590   19.9057 C   0  0  0  0  0  0  0  0  0  1  0  0
  -29.2062  -23.5169   18.9793 C   0  0  0  0  0  0  0  0  0  0  0  0
  -22.2596  -26.4375   24.2997 C   0  0  1  0  0  0  0  0  0  0  0  0
  -20.8595  -29.7198   23.0205 C   0  0  2  0  0  0  0  0  0  0  0  0
  -21.3138  -25.2606   24.6709 C   0  0  0  0  0  0  0  0  0  0  0  0
  -26.2466  -12.0597   20.9048 N   0  0  0  0  0  0  0  0  0  0  0  0
  -26.2772  -13.2631   20.3073 N   0  0  0  0  0  0  0  0  0  0  0  0
  -24.6582  -26.5362   24.9004 N   0  0  0  0  0  0  0  0  0  0  0  0
  -29.6544  -15.0233   20.0248 N   0  0  0  0  0  0  0  0  0  0  0  0
  -31.7383  -21.2464   19.0979 N   0  0  0  0  0  0  0  0  0  0  0  0
  -24.9396  -15.1465   19.7836 N   0  0  0  0  0  0  0  0  0  0  0  0
  -22.0821  -12.4132   21.9654 N   0  0  0  0  0  0  0  0  0  0  0  0
  -29.1606  -17.3118   20.3101 N   0  0  0  0  0  0  0  0  0  0  0  0
  -26.4335  -24.8995   27.5271 N   0  0  0  0  0  0  0  0  0  0  0  0
  -21.5815  -27.7178   24.1284 N   0  0  0  0  0  0  0  0  0  0  0  0
  -21.5200  -30.7783   22.2055 N   0  3  0  0  0  0  0  0  0  0  0  0
  -22.2782  -14.4346   20.9003 O   0  0  0  0  0  0  0  0  0  0  0  0
  -25.9249  -24.2544   25.3482 O   0  0  0  0  0  0  0  0  0  0  0  0
  -23.0056  -26.9488   26.4925 O   0  0  0  0  0  0  0  0  0  0  0  0
  -22.2674  -28.0785   21.9429 O   0  0  0  0  0  0  0  0  0  0  0  0
  -31.1322  -16.6411   19.2881 O   0  0  0  0  0  0  0  0  0  0  0  0
  -23.2811   -7.3947   24.0659 O   0  0  0  0  0  0  0  0  0  0  0  0
  -28.5290  -26.1288   20.1146 O   0  0  0  0  0  0  0  0  0  1  0  0
  -29.7057  -22.8596   20.1361 O   0  0  0  0  0  0  0  0  0  0  0  0
  -24.7828   -2.4900   22.0430 F   0  0  0  0  0  0  0  0  0  0  0  0
  -21.3841   -5.5406   23.2872 F   0  0  0  0  0  0  0  0  0  0  0  0
  1  2  1  0  0  0  0
  1  5  2  0  0  0  0
  2  6  2  0  0  0  0
  3  8  2  0  0  0  0
  3 17  1  0  0  0  0
  4  9  1  0  0  0  0
  4 17  2  0  0  0  0
  5 20  1  0  0  0  0
  6 22  1  0  0  0  0
  7 10  2  0  0  0  0
  7 21  1  0  0  0  0
  8 26  1  0  0  0  0
  9 26  2  0  0  0  0
 10 27  1  0  0  0  0
 11 12  2  0  0  0  0
 11 28  1  0  0  0  0
 12 30  1  0  0  0  0
 13 18  1  0  0  0  0
 13 24  2  0  0  0  0
 14 23  1  0  0  0  0
 14 27  2  0  0  0  0
 15 24  1  0  0  0  0
 15 25  2  0  0  0  0
 16 30  2  0  0  0  0
 16 31  1  0  0  0  0
 17 32  1  0  0  0  0
 18 29  2  0  0  0  0
 18 34  1  0  0  0  0
 19 32  1  0  0  0  0
 19 33  2  0  0  0  0
 19 36  1  0  0  0  0
 20 22  2  0  0  0  0
 20 41  1  0  0  0  0
 21 23  2  0  0  0  0
 21 42  1  0  0  0  0
 22 50  1  0  0  0  0
 23 43  1  0  0  0  0
 24 72  1  0  0  0  0
 25 29  1  0  0  0  0
 25 69  1  0  0  0  0
 26 81  1  0  0  0  0
 27 82  1  0  0  0  0
 28 31  2  0  0  0  0
 28 81  1  0  0  0  0
 29 83  1  0  0  0  0
 30 84  1  0  0  0  0
 31 85  1  0  0  0  0
 32 65  2  0  0  0  0
 33 66  1  0  0  0  0
 33 70  1  0  0  0  0
 34 35  2  0  0  0  0
 35 53  1  0  0  0  0
 36 71  1  0  0  0  0
 36 76  2  0  0  0  0
 37 51  1  0  0  0  0
 37 73  1  0  0  0  0
 37 77  2  0  0  0  0
 38 62  1  0  0  0  0
 38 67  1  0  0  0  0
 38 78  2  0  0  0  0
 39 63  1  0  0  0  0
 39 74  1  0  0  0  0
 39 79  2  0  0  0  0
 40 68  1  0  0  0  0
 40 72  1  0  0  0  0
 40 80  2  0  0  0  0
 41 44  1  0  0  0  0
 42 51  1  0  0  0  0
 43 67  1  0  0  0  0
 44 46  1  0  0  0  0
 45 47  1  0  0  0  0
 45 48  1  0  0  0  0
 46 50  1  0  0  0  0
 47 52  1  0  0  0  0
 48 68  1  0  0  0  0
 49 52  1  0  0  0  0
 49 68  1  0  0  0  0
 50 73  1  0  0  0  0
 51 67  1  0  0  0  0
 52 66  1  0  0  0  0
 54 63  1  0  0  0  0
 55 64  1  0  0  0  0
 56 64  1  0  0  0  0
 57 64  1  0  0  0  0
 58 75  1  0  0  0  0
 59 60  1  0  0  0  0
 59 61  1  0  0  0  0
 60 82  1  0  0  0  0
 61 83  1  0  0  0  0
 62 64  1  0  0  0  0
 62 74  1  0  0  0  0
 63 75  1  0  0  0  0
 65 66  1  0  0  0  0
M  CHG  1  75   1
M  ISO  4  40 100  60 101  72 100  82 101
M  END
> <Batch ID>
0112

> <Smiles>
CC=Cc1cc([100NH:0][100C:0](=O)N2CCCC(n3nc(-c4ccc(Oc5ccc(F)cc5F)cc4)c(C(N)=O)c3N)C2)cc(N)c1OCC[101CH2:1][101O:1]c1ccc2c(c1)CN(C(=O)C(NC(=O)C(C)NC)C(C)(C)C)C(C(=O)NC1CCCc3ccccc31)C2

> <Shape>
0.239

> <Color>
0.114

> <Negative vol penalty>
0.000

$$$$

  -OEChem-04052301313D

 91100  0     1  0  0  0  0  0999 V2000
  -28.7166  -37.2312   21.6324 C   0  0  0  0  0  0  0  0  0  0  0  0
  -29.0595  -35.9658   21.1669 C   0  0  0  0  0  0  0  0  0  0  0  0
  -23.6257  -10.4235   20.7623 C   0  0  0  0  0  0  0  0  0  0  0  0
  -23.2831  -12.4650   19.5166 C   0  0  0  0  0  0  0  0  0  0  0  0
  -27.8198  -37.3636   22.6917 C   0  0  0  0  0  0  0  0  0  0  0  0
  -28.5066  -34.8320   21.7612 C   0  0  0  0  0  0  0  0  0  0  0  0
  -27.0046  -29.5827   18.9874 C   0  0  0  0  0  0  0  0  0  0  0  0
  -22.2499  -10.3162   20.9650 C   0  0  0  0  0  0  0  0  0  0  0  0
  -21.9072  -12.3577   19.7192 C   0  0  0  0  0  0  0  0  0  0  0  0
  -27.6628  -28.3586   18.8764 C   0  0  0  0  0  0  0  0  0  0  0  0
  -19.6994  -12.9745   22.2044 C   0  0  0  0  0  0  0  0  0  0  0  0
  -19.0091  -14.1245   22.5873 C   0  0  0  0  0  0  0  0  0  0  0  0
  -26.4011  -27.5171   20.7524 C   0  0  0  0  0  0  0  0  0  0  0  0
  -26.5443  -21.4835   18.5040 C   0  0  0  0  0  0  0  0  0  0  0  0
  -28.1997  -19.9987   19.4484 C   0  0  0  0  0  0  0  0  0  0  0  0
  -17.6443  -13.9670   20.5999 C   0  0  0  0  0  0  0  0  0  0  0  0
  -24.1423  -11.4980   20.0382 C   0  0  0  0  0  0  0  0  0  0  0  0
  -26.4016  -10.6871   19.1744 C   0  0  0  0  0  0  0  0  0  0  0  0
  -27.2482  -36.2312   23.2930 C   0  0  0  0  0  0  0  0  0  0  0  0
  -26.0459  -29.7870   19.9902 C   0  0  0  0  0  0  0  0  0  0  0  0
  -27.6024  -34.9494   22.8305 C   0  0  0  0  0  0  0  0  0  0  0  0
  -25.7303  -28.7438   20.8723 C   0  0  0  0  0  0  0  0  0  0  0  0
  -26.0678  -19.1249   18.7212 C   0  0  0  0  0  0  0  0  0  0  0  0
  -27.8067  -21.2798   19.0612 C   0  0  0  0  0  0  0  0  0  0  0  0
  -25.6748  -20.4061   18.3340 C   0  0  0  0  0  0  0  0  0  0  0  0
  -27.3302  -18.9212   19.2784 C   0  0  0  0  0  0  0  0  0  0  0  0
  -21.3906  -11.2833   20.4434 C   0  0  0  0  0  0  0  0  0  0  0  0
  -27.3632  -27.3266   19.7608 C   0  0  0  0  0  0  0  0  0  0  0  0
  -19.3622  -12.3208   21.0191 C   0  0  0  0  0  0  0  0  0  0  0  0
  -17.9815  -14.6207   21.7851 C   0  0  0  0  0  0  0  0  0  0  0  0
  -18.3346  -12.8171   20.2170 C   0  0  0  0  0  0  0  0  0  0  0  0
  -25.5636  -11.6097   19.8290 C   0  0  0  0  0  0  0  0  0  0  0  0
  -27.6519  -11.2518   19.2409 C   0  0  0  0  0  0  0  0  0  0  0  0
  -30.9266  -24.4942   18.8654 C   0  0  0  0  0  0  0  0  0  0  0  0
  -29.6077  -24.6428   18.6708 C   0  0  0  0  0  0  0  0  0  0  0  0
  -31.6415  -23.1966   18.9191 C   0  0  0  0  0  0  0  0  0  0  0  0
  -28.6780  -23.5021   18.3718 C   0  0  0  0  0  0  0  0  0  0  0  0
  -26.0787   -9.4321   18.5610 C   0  0  0  0  0  0  0  0  0  0  0  0
  -25.7809  -31.7545   22.4726 C   0  0  0  0  0  0  0  0  0  0  0  0
  -22.8307  -30.4275   22.7122 C   0  0  0  0  0  0  0  0  0  0  0  0
  -20.7829  -27.7786   22.0511 C   0  0  0  0  0  0  0  0  0  0  0  0
  -28.9748  -17.2656   20.2450 C   0  0  0  0  0  0  0  0  0  0  0  0
  -26.3200  -36.4227   24.4662 C   0  0  0  0  0  0  0  0  0  0  0  0
  -25.3256  -31.1044   20.0797 C   0  0  0  0  0  0  0  0  0  0  0  0
  -24.6944  -28.9056   21.9536 C   0  0  0  0  0  0  0  0  0  0  0  0
  -31.0926  -22.0673   19.7650 C   0  0  0  0  0  0  0  0  0  0  0  0
  -25.4909  -35.1840   24.7955 C   0  0  0  0  0  0  0  0  0  0  0  0
  -30.0321  -14.2928   22.1693 C   0  0  0  0  0  0  0  0  0  0  0  0
  -26.3727  -33.9394   24.8088 C   0  0  0  0  0  0  0  0  0  0  0  0
  -29.2657  -13.1095   21.5763 C   0  0  0  0  0  0  0  0  0  0  0  0
  -29.6996  -22.3177   20.3221 C   0  0  0  0  0  0  0  0  0  0  0  0
  -30.3203  -15.3838   21.1473 C   0  0  0  0  0  0  0  0  0  0  0  0
  -28.0425  -14.8895   20.2318 C   0  0  0  0  0  0  0  0  0  0  0  0
  -27.0047  -33.6964   23.4329 C   0  0  1  0  0  0  0  0  0  0  0  0
  -24.7374  -31.3711   21.4618 C   0  0  1  0  0  0  0  0  0  0  0  0
  -28.5701  -13.4463   20.2468 C   0  0  2  0  0  0  0  0  0  0  0  0
  -24.5931  -15.9143   17.1648 C   0  0  0  0  0  0  0  0  0  0  0  0
  -18.4345  -26.9679   22.4046 C   0  0  0  0  0  0  0  0  0  0  0  0
  -23.4924  -29.7863   25.6210 C   0  0  0  0  0  0  0  0  0  0  0  0
  -21.5670  -28.1860   25.6335 C   0  0  0  0  0  0  0  0  0  0  0  0
  -21.1643  -30.6160   25.2393 C   0  0  0  0  0  0  0  0  0  0  0  0
  -20.2697  -27.6381   19.1398 C   0  0  0  0  0  0  0  0  0  0  0  0
  -25.1345  -17.9683   18.5380 C   0  0  0  0  0  0  0  0  0  0  0  0
  -28.9732  -26.0033   18.6150 C   0  0  0  0  0  0  0  0  0  1  0  0
  -25.5223  -17.1065   17.3297 C   0  0  0  0  0  0  0  0  0  0  0  0
  -22.2519  -29.2298   23.4261 C   0  0  1  0  0  0  0  0  0  0  0  0
  -19.3810  -27.7089   21.4731 C   0  0  2  0  0  0  0  0  0  0  0  0
  -22.1399  -29.4518   24.9609 C   0  0  0  0  0  0  0  0  0  0  0  0
  -26.2257  -12.6791   20.2784 N   0  0  0  0  0  0  0  0  0  0  0  0
  -27.4930  -12.4320   19.9057 N   0  0  0  0  0  0  0  0  0  0  0  0
  -28.7091  -22.3965   19.2373 N   0  0  0  0  0  0  0  0  0  0  0  0
  -24.0220  -30.2143   22.0044 N   0  0  0  0  0  0  0  0  0  0  0  0
  -29.0870  -15.8835   20.5326 N   0  0  0  0  0  0  0  0  0  0  0  0
  -24.4008  -20.6331   17.7681 N   0  0  0  0  0  0  0  0  0  0  0  0
  -28.8607  -10.8488   18.7950 N   0  0  0  0  0  0  0  0  0  0  0  0
  -25.7254   -9.4226   17.2047 N   0  0  0  0  0  0  0  0  0  0  0  0
  -27.7507  -17.6281   19.6774 N   0  0  0  0  0  0  0  0  0  0  0  0
  -26.0379  -33.1111   22.5290 N   0  0  0  0  0  0  0  0  0  0  0  0
  -20.9818  -28.9382   22.7703 N   0  0  0  0  0  0  0  0  0  0  0  0
  -19.3965  -27.0034   20.1604 N   0  3  0  0  0  0  0  0  0  0  0  0
  -32.7241  -23.0861   18.3427 O   0  0  0  0  0  0  0  0  0  0  0  0
  -27.9571  -23.6214   17.3791 O   0  0  0  0  0  0  0  0  0  0  0  0
  -26.0868   -8.3532   19.2009 O   0  0  0  0  0  0  0  0  0  0  0  0
  -26.3124  -30.8842   23.1521 O   0  0  0  0  0  0  0  0  0  0  0  0
  -22.2434  -31.5105   22.7743 O   0  0  0  0  0  0  0  0  0  0  0  0
  -21.6169  -26.8913   21.8848 O   0  0  0  0  0  0  0  0  0  0  0  0
  -29.8866  -18.0559   20.4985 O   0  0  0  0  0  0  0  0  0  0  0  0
  -20.0479  -11.1788   20.6407 O   0  0  0  0  0  0  0  0  0  0  0  0
  -28.0046  -26.1310   19.6552 O   0  0  0  0  0  0  0  0  0  1  0  0
  -17.3177  -15.7242   22.1538 F   0  0  0  0  0  0  0  0  0  0  0  0
  -18.0054  -12.1927   19.0779 F   0  0  0  0  0  0  0  0  0  0  0  0
  1  2  1  0  0  0  0
  1  5  2  0  0  0  0
  2  6  2  0  0  0  0
  3  8  2  0  0  0  0
  3 17  1  0  0  0  0
  4  9  1  0  0  0  0
  4 17  2  0  0  0  0
  5 19  1  0  0  0  0
  6 21  1  0  0  0  0
  7 10  2  0  0  0  0
  7 20  1  0  0  0  0
  8 27  1  0  0  0  0
  9 27  2  0  0  0  0
 10 28  1  0  0  0  0
 11 12  2  0  0  0  0
 11 29  1  0  0  0  0
 12 30  1  0  0  0  0
 13 22  1  0  0  0  0
 13 28  2  0  0  0  0
 14 24  1  0  0  0  0
 14 25  2  0  0  0  0
 15 24  2  0  0  0  0
 15 26  1  0  0  0  0
 16 30  2  0  0  0  0
 16 31  1  0  0  0  0
 17 32  1  0  0  0  0
 18 32  1  0  0  0  0
 18 33  2  0  0  0  0
 18 38  1  0  0  0  0
 19 21  2  0  0  0  0
 19 43  1  0  0  0  0
 20 22  2  0  0  0  0
 20 44  1  0  0  0  0
 21 54  1  0  0  0  0
 22 45  1  0  0  0  0
 23 25  1  0  0  0  0
 23 26  2  0  0  0  0
 23 63  1  0  0  0  0
 24 71  1  0  0  0  0
 25 74  1  0  0  0  0
 26 77  1  0  0  0  0
 27 88  1  0  0  0  0
 28 89  1  0  0  0  0
 29 31  2  0  0  0  0
 29 88  1  0  0  0  0
 30 90  1  0  0  0  0
 31 91  1  0  0  0  0
 32 69  2  0  0  0  0
 33 70  1  0  0  0  0
 33 75  1  0  0  0  0
 34 35  2  0  0  0  0
 34 36  1  0  0  0  0
 35 37  1  0  0  0  0
 35 64  1  0  0  0  0
 36 46  1  0  0  0  0
 36 81  2  0  0  0  0
 37 71  1  0  0  0  0
 37 82  2  0  0  0  0
 38 76  1  0  0  0  0
 38 83  2  0  0  0  0
 39 55  1  0  0  0  0
 39 78  1  0  0  0  0
 39 84  2  0  0  0  0
 40 66  1  0  0  0  0
 40 72  1  0  0  0  0
 40 85  2  0  0  0  0
 41 67  1  0  0  0  0
 41 79  1  0  0  0  0
 41 86  2  0  0  0  0
 42 73  1  0  0  0  0
 42 77  1  0  0  0  0
 42 87  2  0  0  0  0
 43 47  1  0  0  0  0
 44 55  1  0  0  0  0
 45 72  1  0  0  0  0
 46 51  1  0  0  0  0
 47 49  1  0  0  0  0
 48 50  1  0  0  0  0
 48 52  1  0  0  0  0
 49 54  1  0  0  0  0
 50 56  1  0  0  0  0
 51 71  1  0  0  0  0
 52 73  1  0  0  0  0
 53 56  1  0  0  0  0
 53 73  1  0  0  0  0
 54 78  1  0  0  0  0
 55 72  1  0  0  0  0
 56 70  1  0  0  0  0
 57 65  1  0  0  0  0
 58 67  1  0  0  0  0
 59 68  1  0  0  0  0
 60 68  1  0  0  0  0
 61 68  1  0  0  0  0
 62 80  1  0  0  0  0
 63 65  1  0  0  0  0
 64 89  1  0  0  0  0
 66 68  1  0  0  0  0
 66 79  1  0  0  0  0
 67 80  1  0  0  0  0
 69 70  1  0  0  0  0
M  CHG  1  80   1
M  ISO  4  42 100  64 101  77 100  89 101
M  END
> <Batch ID>
0112

> <Smiles>
CCCc1c(N)cc(N2CCC(=O)C=C([101CH2:1][101O:1]c3ccc4c(c3)CN(C(=O)C(NC(=O)C(C)NC)C(C)(C)C)C(C(=O)NC3CCCc5ccccc53)C4)C2=O)cc1[100NH:0][100C:0](=O)N1CCCC(n2nc(-c3ccc(Oc4ccc(F)cc4F)cc3)c(C(N)=O)c2N)C1

> <Shape>
0.307

> <Color>
0.062

> <Negative vol penalty>
0.000

$$$$

  -OEChem-04052301313D

 82 90  0     1  0  0  0  0  0999 V2000
  -29.5902  -32.5336   22.5790 C   0  0  0  0  0  0  0  0  0  0  0  0
  -29.2137  -31.2267   22.2862 C   0  0  0  0  0  0  0  0  0  0  0  0
  -22.9776  -12.9099   21.2841 C   0  0  0  0  0  0  0  0  0  0  0  0
  -25.1681  -11.9741   21.6877 C   0  0  0  0  0  0  0  0  0  0  0  0
  -28.7165  -33.3710   23.2713 C   0  0  0  0  0  0  0  0  0  0  0  0
  -27.9636  -30.7562   22.6866 C   0  0  0  0  0  0  0  0  0  0  0  0
  -25.6067  -28.1549   19.0365 C   0  0  0  0  0  0  0  0  0  0  0  0
  -22.4194  -11.6336   21.3543 C   0  0  0  0  0  0  0  0  0  0  0  0
  -24.6099  -10.6977   21.7580 C   0  0  0  0  0  0  0  0  0  0  0  0
  -26.0233  -26.8422   18.8196 C   0  0  0  0  0  0  0  0  0  0  0  0
  -22.9106   -8.8449   24.0163 C   0  0  0  0  0  0  0  0  0  0  0  0
  -23.3269   -8.0134   25.0559 C   0  0  0  0  0  0  0  0  0  0  0  0
  -29.1305  -20.9729   22.3528 C   0  0  0  0  0  0  0  0  0  0  0  0
  -24.1401  -26.0400   20.0961 C   0  0  0  0  0  0  0  0  0  0  0  0
  -24.1308   -6.4021   23.4452 C   0  0  0  0  0  0  0  0  0  0  0  0
  -24.3520  -13.0802   21.4508 C   0  0  0  0  0  0  0  0  0  0  0  0
  -29.9777  -19.9227   21.9257 C   0  0  0  0  0  0  0  0  0  0  0  0
  -25.1203  -15.3027   22.4396 C   0  0  0  0  0  0  0  0  0  0  0  0
  -27.4513  -32.9135   23.6719 C   0  0  0  0  0  0  0  0  0  0  0  0
  -24.4578  -28.4208   19.7953 C   0  0  0  0  0  0  0  0  0  0  0  0
  -27.0727  -31.5879   23.3861 C   0  0  0  0  0  0  0  0  0  0  0  0
  -23.7096  -27.3568   20.3190 C   0  0  0  0  0  0  0  0  0  0  0  0
  -23.2355  -10.5275   21.5912 C   0  0  0  0  0  0  0  0  0  0  0  0
  -25.2916  -25.7846   19.3519 C   0  0  0  0  0  0  0  0  0  0  0  0
  -23.1043   -8.4550   22.6911 C   0  0  0  0  0  0  0  0  0  0  0  0
  -23.9371   -6.7920   24.7704 C   0  0  0  0  0  0  0  0  0  0  0  0
  -23.7144   -7.2336   22.4056 C   0  0  0  0  0  0  0  0  0  0  0  0
  -24.9293  -14.3983   21.3778 C   0  0  0  0  0  0  0  0  0  0  0  0
  -28.2930  -21.2421   21.2953 C   0  0  0  0  0  0  0  0  0  0  0  0
  -29.5975  -19.6248   20.6378 C   0  0  0  0  0  0  0  0  0  0  0  0
  -25.6988  -16.4023   21.8542 C   0  0  0  0  0  0  0  0  0  0  0  0
  -31.3480  -19.5834   23.9313 C   0  0  0  0  0  0  0  0  0  0  0  0
  -31.0097  -19.2965   22.6553 C   0  0  0  0  0  0  0  0  0  0  0  0
  -27.2260  -22.2551   21.2371 C   0  0  0  0  0  0  0  0  0  0  0  0
  -26.4459  -22.4974   20.1722 C   0  0  0  0  0  0  0  0  0  0  0  0
  -24.8031  -15.1615   23.8307 C   0  0  0  0  0  0  0  0  0  0  0  0
  -30.0777  -18.6675   19.6978 C   0  0  0  0  0  0  0  0  0  0  0  0
  -29.4979  -18.5292   18.3421 C   0  0  0  0  0  0  0  0  0  0  0  0
  -23.8713  -29.9631   22.5122 C   0  0  0  0  0  0  0  0  0  0  0  0
  -20.7801  -29.3742   21.7249 C   0  0  0  0  0  0  0  0  0  0  0  0
  -18.5428  -27.4479   20.0128 C   0  0  0  0  0  0  0  0  0  0  0  0
  -26.5599  -33.8409   24.4594 C   0  0  0  0  0  0  0  0  0  0  0  0
  -24.0068  -29.8414   19.9977 C   0  0  0  0  0  0  0  0  0  0  0  0
  -22.4576  -27.5882   21.1237 C   0  0  0  0  0  0  0  0  0  0  0  0
  -25.1052  -33.3819   24.5198 C   0  0  0  0  0  0  0  0  0  0  0  0
  -26.3026  -17.6225   16.9913 C   0  0  0  0  0  0  0  0  0  0  0  0
  -25.0277  -31.8966   24.8587 C   0  0  0  0  0  0  0  0  0  0  0  0
  -25.6934  -16.7449   18.0842 C   0  0  0  0  0  0  0  0  0  0  0  0
  -27.8149  -17.4422   16.9087 C   0  0  0  0  0  0  0  0  0  0  0  0
  -27.9152  -16.8048   19.3030 C   0  0  0  0  0  0  0  0  0  0  0  0
  -25.7153  -31.0485   23.7819 C   0  0  1  0  0  0  0  0  0  0  0  0
  -23.1087  -30.0150   21.2186 C   0  0  1  0  0  0  0  0  0  0  0  0
  -26.3923  -16.9804   19.4350 C   0  0  2  0  0  0  0  0  0  0  0  0
  -16.0823  -27.1876   19.5944 C   0  0  0  0  0  0  0  0  0  0  0  0
  -20.4444  -28.1269   24.4892 C   0  0  0  0  0  0  0  0  0  0  0  0
  -18.3284  -27.0640   23.6762 C   0  0  0  0  0  0  0  0  0  0  0  0
  -18.5263  -29.5497   23.7468 C   0  0  0  0  0  0  0  0  0  0  0  0
  -18.8698  -27.9120   17.1082 C   0  0  0  0  0  0  0  0  0  0  0  0
  -25.3824  -23.5482   20.1558 C   0  0  0  0  0  0  0  0  0  1  0  0
  -19.8037  -28.2540   21.9914 C   0  0  1  0  0  0  0  0  0  0  0  0
  -17.3793  -27.8168   19.1102 C   0  0  2  0  0  0  0  0  0  0  0  0
  -19.3003  -28.2440   23.4624 C   0  0  0  0  0  0  0  0  0  0  0  0
  -25.3521  -14.8815   20.2065 N   0  0  0  0  0  0  0  0  0  0  0  0
  -31.0688  -17.8244   19.9319 N   0  0  0  0  0  0  0  0  0  0  0  0
  -25.8145  -16.1015   20.5289 N   0  0  0  0  0  0  0  0  0  0  0  0
  -28.4425  -17.6371   18.2142 N   0  0  0  0  0  0  0  0  0  0  0  0
  -22.0611  -28.9951   21.2992 N   0  0  0  0  0  0  0  0  0  0  0  0
  -26.1148  -17.5874   22.3489 N   0  0  0  0  0  0  0  0  0  0  0  0
  -24.2121  -13.9665   24.2632 N   0  0  0  0  0  0  0  0  0  0  0  0
  -24.8629  -30.9194   22.6195 N   0  0  0  0  0  0  0  0  0  0  0  0
  -18.7440  -28.3913   20.9981 N   0  0  0  0  0  0  0  0  0  0  0  0
  -17.6362  -27.3520   17.7178 N   0  3  0  0  0  0  0  0  0  0  0  0
  -25.0218  -16.0745   24.6626 O   0  0  0  0  0  0  0  0  0  0  0  0
  -30.0151  -19.2204   17.4743 O   0  0  0  0  0  0  0  0  0  0  0  0
  -23.5805  -29.1188   23.3514 O   0  0  0  0  0  0  0  0  0  0  0  0
  -20.4172  -30.5427   21.8815 O   0  0  0  0  0  0  0  0  0  0  0  0
  -19.2046  -26.4234   19.8613 O   0  0  0  0  0  0  0  0  0  0  0  0
  -28.5711  -20.4245   20.2461 O   0  0  0  0  0  0  0  0  0  0  0  0
  -22.6911   -9.2819   21.6600 O   0  0  0  0  0  0  0  0  0  0  0  0
  -25.6964  -24.5024   19.1423 O   0  0  0  0  0  0  0  0  0  1  0  0
  -24.3383   -5.9943   25.7689 F   0  0  0  0  0  0  0  0  0  0  0  0
  -23.9043   -6.8541   21.1344 F   0  0  0  0  0  0  0  0  0  0  0  0
  1  2  1  0  0  0  0
  1  5  2  0  0  0  0
  2  6  2  0  0  0  0
  3  8  2  0  0  0  0
  3 16  1  0  0  0  0
  4  9  1  0  0  0  0
  4 16  2  0  0  0  0
  5 19  1  0  0  0  0
  6 21  1  0  0  0  0
  7 10  2  0  0  0  0
  7 20  1  0  0  0  0
  8 23  1  0  0  0  0
  9 23  2  0  0  0  0
 10 24  1  0  0  0  0
 11 12  2  0  0  0  0
 11 25  1  0  0  0  0
 12 26  1  0  0  0  0
 13 17  1  0  0  0  0
 13 29  2  0  0  0  0
 14 22  1  0  0  0  0
 14 24  2  0  0  0  0
 15 26  2  0  0  0  0
 15 27  1  0  0  0  0
 16 28  1  0  0  0  0
 17 30  2  0  0  0  0
 17 33  1  0  0  0  0
 18 28  1  0  0  0  0
 18 31  2  0  0  0  0
 18 36  1  0  0  0  0
 19 21  2  0  0  0  0
 19 42  1  0  0  0  0
 20 22  2  0  0  0  0
 20 43  1  0  0  0  0
 21 51  1  0  0  0  0
 22 44  1  0  0  0  0
 23 79  1  0  0  0  0
 24 80  1  0  0  0  0
 25 27  2  0  0  0  0
 25 79  1  0  0  0  0
 26 81  1  0  0  0  0
 27 82  1  0  0  0  0
 28 63  2  0  0  0  0
 29 34  1  0  0  0  0
 29 78  1  0  0  0  0
 30 37  1  0  0  0  0
 30 78  1  0  0  0  0
 31 65  1  0  0  0  0
 31 68  1  0  0  0  0
 32 33  2  0  0  0  0
 34 35  2  0  0  0  0
 35 59  1  0  0  0  0
 36 69  1  0  0  0  0
 36 73  2  0  0  0  0
 37 38  1  0  0  0  0
 37 64  2  0  0  0  0
 38 66  1  0  0  0  0
 38 74  2  0  0  0  0
 39 52  1  0  0  0  0
 39 70  1  0  0  0  0
 39 75  2  0  0  0  0
 40 60  1  0  0  0  0
 40 67  1  0  0  0  0
 40 76  2  0  0  0  0
 41 61  1  0  0  0  0
 41 71  1  0  0  0  0
 41 77  2  0  0  0  0
 42 45  1  0  0  0  0
 43 52  1  0  0  0  0
 44 67  1  0  0  0  0
 45 47  1  0  0  0  0
 46 48  1  0  0  0  0
 46 49  1  0  0  0  0
 47 51  1  0  0  0  0
 48 53  1  0  0  0  0
 49 66  1  0  0  0  0
 50 53  1  0  0  0  0
 50 66  1  0  0  0  0
 51 70  1  0  0  0  0
 52 67  1  0  0  0  0
 53 65  1  0  0  0  0
 54 61  1  0  0  0  0
 55 62  1  0  0  0  0
 56 62  1  0  0  0  0
 57 62  1  0  0  0  0
 58 72  1  0  0  0  0
 59 80  1  0  0  0  0
 60 62  1  0  0  0  0
 60 71  1  0  0  0  0
 61 72  1  0  0  0  0
 63 65  1  0  0  0  0
M  CHG  1  72   1
M  ISO  4  37 100  38 100  59 101  80 101
M  END
> <Batch ID>
0112

> <Smiles>
C=Cc1cc(C=C[101CH2:1][101O:1]c2ccc3c(c2)CN(C(=O)C(NC(=O)C(C)NC)C(C)(C)C)C(C(=O)NC2CCCc4ccccc42)C3)oc1[100C:0](=N)[100C:0](=O)N1CCCC(n2nc(-c3ccc(Oc4ccc(F)cc4F)cc3)c(C(N)=O)c2N)C1

> <Shape>
0.266

> <Color>
0.054

> <Negative vol penalty>
0.000

$$$$

  -OEChem-04052301313D

 81 89  0     1  0  0  0  0  0999 V2000
  -28.8569  -31.5917   26.1118 C   0  0  0  0  0  0  0  0  0  0  0  0
  -28.7703  -30.4918   25.2643 C   0  0  0  0  0  0  0  0  0  0  0  0
  -24.6239   -9.0488   21.5134 C   0  0  0  0  0  0  0  0  0  0  0  0
  -23.0674  -10.7992   20.9212 C   0  0  0  0  0  0  0  0  0  0  0  0
  -27.7064  -32.0974   26.7155 C   0  0  0  0  0  0  0  0  0  0  0  0
  -27.5331  -29.8964   25.0209 C   0  0  0  0  0  0  0  0  0  0  0  0
  -26.8058  -28.8629   20.1170 C   0  0  0  0  0  0  0  0  0  0  0  0
  -23.7013   -8.5370   22.4257 C   0  0  0  0  0  0  0  0  0  0  0  0
  -22.1447  -10.2873   21.8334 C   0  0  0  0  0  0  0  0  0  0  0  0
  -27.4422  -27.7340   19.6030 C   0  0  0  0  0  0  0  0  0  0  0  0
  -20.9041   -6.6391   22.3403 C   0  0  0  0  0  0  0  0  0  0  0  0
  -20.7012   -5.2592   22.3519 C   0  0  0  0  0  0  0  0  0  0  0  0
  -25.3811  -26.4946   19.7894 C   0  0  0  0  0  0  0  0  0  0  0  0
  -21.4111   -5.1741   24.6597 C   0  0  0  0  0  0  0  0  0  0  0  0
  -29.2712  -20.5334   18.5376 C   0  0  0  0  0  0  0  0  0  0  0  0
  -24.3071  -10.1800   20.7612 C   0  0  0  0  0  0  0  0  0  0  0  0
  -25.3919  -10.3673   18.4600 C   0  0  0  0  0  0  0  0  0  0  0  0
  -26.4531  -31.5138   26.4717 C   0  0  0  0  0  0  0  0  0  0  0  0
  -25.4528  -28.8131   20.4819 C   0  0  0  0  0  0  0  0  0  0  0  0
  -26.3649  -30.3939   25.6229 C   0  0  0  0  0  0  0  0  0  0  0  0
  -24.7292  -27.6250   20.3054 C   0  0  0  0  0  0  0  0  0  0  0  0
  -28.7009  -19.6091   20.5099 C   0  0  0  0  0  0  0  0  0  0  0  0
  -28.6362  -20.7916   19.7323 C   0  0  0  0  0  0  0  0  0  0  0  0
  -22.4616   -9.1561   22.5857 C   0  0  0  0  0  0  0  0  0  0  0  0
  -26.7306  -26.5488   19.4418 C   0  0  0  0  0  0  0  0  0  0  0  0
  -21.3607   -7.2866   23.4884 C   0  0  0  0  0  0  0  0  0  0  0  0
  -20.9546   -4.5267   23.5115 C   0  0  0  0  0  0  0  0  0  0  0  0
  -21.6141   -6.5541   24.6481 C   0  0  0  0  0  0  0  0  0  0  0  0
  -25.2600  -10.7096   19.8191 C   0  0  0  0  0  0  0  0  0  0  0  0
  -29.3736  -18.6644   19.7667 C   0  0  0  0  0  0  0  0  0  0  0  0
  -26.4330  -11.1421   18.0103 C   0  0  0  0  0  0  0  0  0  0  0  0
  -27.9577  -23.1601   19.3815 C   0  0  0  0  0  0  0  0  0  0  0  0
  -27.3923  -24.3226   19.7192 C   0  0  0  0  0  0  0  0  0  1  0  0
  -24.6405   -9.4326   17.6742 C   0  0  0  0  0  0  0  0  0  0  0  0
  -23.8457  -29.2028   23.1965 C   0  0  0  0  0  0  0  0  0  0  0  0
  -28.5450  -16.3385   19.9629 C   0  0  0  0  0  0  0  0  0  0  0  0
  -21.2635  -28.9375   21.2513 C   0  0  0  0  0  0  0  0  0  0  0  0
  -19.9532  -27.7924   18.3155 C   0  0  0  0  0  0  0  0  0  0  0  0
  -25.2441  -32.0664   27.1842 C   0  0  0  0  0  0  0  0  0  0  0  0
  -24.7740  -30.0471   21.0099 C   0  0  0  0  0  0  0  0  0  0  0  0
  -23.2695  -27.5251   20.6628 C   0  0  0  0  0  0  0  0  0  0  0  0
  -23.9191  -31.6095   26.5794 C   0  0  0  0  0  0  0  0  0  0  0  0
  -30.4425  -13.2706   19.4994 C   0  0  0  0  0  0  0  0  0  0  0  0
  -23.9406  -30.1065   26.3200 C   0  0  0  0  0  0  0  0  0  0  0  0
  -29.3270  -12.2283   19.4335 C   0  0  0  0  0  0  0  0  0  0  0  0
  -30.1027  -14.3956   20.4735 C   0  0  0  0  0  0  0  0  0  0  0  0
  -27.6811  -14.0255   20.1220 C   0  0  0  0  0  0  0  0  0  0  0  0
  -25.0375  -29.7359   25.3146 C   0  0  1  0  0  0  0  0  0  0  0  0
  -23.5250  -29.7377   21.8295 C   0  0  1  0  0  0  0  0  0  0  0  0
  -27.9716  -12.8892   19.1274 C   0  0  2  0  0  0  0  0  0  0  0  0
  -29.0150  -20.0618   22.9559 C   0  0  0  0  0  0  0  0  0  0  0  0
  -17.8046  -27.6949   17.0225 C   0  0  0  0  0  0  0  0  0  0  0  0
  -20.2535  -26.7309   23.1008 C   0  0  0  0  0  0  0  0  0  0  0  0
  -18.6604  -26.0433   21.2959 C   0  0  0  0  0  0  0  0  0  0  0  0
  -18.4894  -28.3167   22.3084 C   0  0  0  0  0  0  0  0  0  0  0  0
  -21.1042  -29.3280   16.0625 C   0  0  0  0  0  0  0  0  0  0  0  0
  -28.1505  -19.4173   21.8681 C   0  0  0  0  0  0  0  0  0  0  0  0
  -29.7300  -17.2649   20.0703 C   0  0  0  0  0  0  0  0  0  0  0  0
  -20.4131  -27.7939   20.7533 C   0  0  1  0  0  0  0  0  0  0  0  0
  -19.0907  -28.4693   17.2655 C   0  0  2  0  0  0  0  0  0  0  0  0
  -19.4821  -27.2222   21.8596 C   0  0  0  0  0  0  0  0  0  0  0  0
  -26.1465  -11.6300   20.2075 N   0  0  0  0  0  0  0  0  0  0  0  0
  -29.7157  -19.2374   18.5698 N   0  0  0  0  0  0  0  0  0  0  0  0
  -26.8456  -11.8727   19.0856 N   0  0  0  0  0  0  0  0  0  0  0  0
  -22.6521  -28.7570   21.1812 N   0  0  0  0  0  0  0  0  0  0  0  0
  -28.7922  -14.9805   20.1650 N   0  0  0  0  0  0  0  0  0  0  0  0
  -27.0268  -11.2629   16.8039 N   0  0  0  0  0  0  0  0  0  0  0  0
  -23.6046   -8.7199   18.2935 N   0  0  0  0  0  0  0  0  0  0  0  0
  -28.0391  -22.0100   20.0963 N   0  0  0  0  0  0  0  0  0  0  0  0
  -24.6159  -30.0529   23.9669 N   0  0  0  0  0  0  0  0  0  0  0  0
  -19.7078  -28.2916   19.5772 N   0  0  0  0  0  0  0  0  0  0  0  0
  -19.8294  -28.5703   15.9751 N   0  3  0  0  0  0  0  0  0  0  0  0
  -24.8912   -9.2232   16.4631 O   0  0  0  0  0  0  0  0  0  0  0  0
  -23.4242  -28.1010   23.5283 O   0  0  0  0  0  0  0  0  0  0  0  0
  -27.4343  -16.8093   19.7043 O   0  0  0  0  0  0  0  0  0  0  0  0
  -20.7158  -29.9564   21.6798 O   0  0  0  0  0  0  0  0  0  0  0  0
  -20.7608  -26.9067   18.0442 O   0  0  0  0  0  0  0  0  0  0  0  0
  -21.5609   -8.6568   23.4756 O   0  0  0  0  0  0  0  0  0  0  0  0
  -27.3496  -25.4452   18.9410 O   0  0  0  0  0  0  0  0  0  1  0  0
  -20.7582   -3.2017   23.5229 F   0  0  0  0  0  0  0  0  0  0  0  0
  -22.0517   -7.1707   25.7545 F   0  0  0  0  0  0  0  0  0  0  0  0
  1  2  1  0  0  0  0
  1  5  2  0  0  0  0
  2  6  2  0  0  0  0
  3  8  2  0  0  0  0
  3 16  1  0  0  0  0
  4  9  1  0  0  0  0
  4 16  2  0  0  0  0
  5 18  1  0  0  0  0
  6 20  1  0  0  0  0
  7 10  2  0  0  0  0
  7 19  1  0  0  0  0
  8 24  1  0  0  0  0
  9 24  2  0  0  0  0
 10 25  1  0  0  0  0
 11 12  2  0  0  0  0
 11 26  1  0  0  0  0
 12 27  1  0  0  0  0
 13 21  1  0  0  0  0
 13 25  2  0  0  0  0
 14 27  2  0  0  0  0
 14 28  1  0  0  0  0
 15 23  2  0  0  0  0
 15 63  1  0  0  0  0
 16 29  1  0  0  0  0
 17 29  1  0  0  0  0
 17 31  2  0  0  0  0
 17 34  1  0  0  0  0
 18 20  2  0  0  0  0
 18 39  1  0  0  0  0
 19 21  2  0  0  0  0
 19 40  1  0  0  0  0
 20 48  1  0  0  0  0
 21 41  1  0  0  0  0
 22 23  1  0  0  0  0
 22 30  2  0  0  0  0
 22 57  1  0  0  0  0
 23 69  1  0  0  0  0
 24 78  1  0  0  0  0
 25 79  1  0  0  0  0
 26 28  2  0  0  0  0
 26 78  1  0  0  0  0
 27 80  1  0  0  0  0
 28 81  1  0  0  0  0
 29 62  2  0  0  0  0
 30 58  1  0  0  0  0
 30 63  1  0  0  0  0
 31 64  1  0  0  0  0
 31 67  1  0  0  0  0
 32 33  2  0  0  0  0
 32 69  1  0  0  0  0
 33 79  1  0  0  0  0
 34 68  1  0  0  0  0
 34 73  2  0  0  0  0
 35 49  1  0  0  0  0
 35 70  1  0  0  0  0
 35 74  2  0  0  0  0
 36 58  1  0  0  0  0
 36 66  1  0  0  0  0
 36 75  2  0  0  0  0
 37 59  1  0  0  0  0
 37 65  1  0  0  0  0
 37 76  2  0  0  0  0
 38 60  1  0  0  0  0
 38 71  1  0  0  0  0
 38 77  2  0  0  0  0
 39 42  1  0  0  0  0
 40 49  1  0  0  0  0
 41 65  1  0  0  0  0
 42 44  1  0  0  0  0
 43 45  1  0  0  0  0
 43 46  1  0  0  0  0
 44 48  1  0  0  0  0
 45 50  1  0  0  0  0
 46 66  1  0  0  0  0
 47 50  1  0  0  0  0
 47 66  1  0  0  0  0
 48 70  1  0  0  0  0
 49 65  1  0  0  0  0
 50 64  1  0  0  0  0
 51 57  1  0  0  0  0
 52 60  1  0  0  0  0
 53 61  1  0  0  0  0
 54 61  1  0  0  0  0
 55 61  1  0  0  0  0
 56 72  1  0  0  0  0
 59 61  1  0  0  0  0
 59 71  1  0  0  0  0
 60 72  1  0  0  0  0
 62 64  1  0  0  0  0
M  CHG  1  72   1
M  ISO  4  33 101  36 100  58 100  79 101
M  END
> <Batch ID>
0112

> <Smiles>
CCc1c(NC=[101CH:1][101O:1]c2ccc3c(c2)CN(C(=O)C(NC(=O)C(C)NC)C(C)(C)C)C(C(=O)NC2CCCc4ccccc42)C3)c[nH]c1[100CH2:0][100C:0](=O)N1CCCC(n2nc(-c3ccc(Oc4ccc(F)cc4F)cc3)c(C(N)=O)c2N)C1

> <Shape>
0.331

> <Color>
0.072

> <Negative vol penalty>
0.000

$$$$

  -OEChem-04052301313D

 88 97  0     1  0  0  0  0  0999 V2000
  -36.7589  -27.2326   15.8221 C   0  0  0  0  0  0  0  0  0  0  0  0
  -36.6204  -26.3945   16.9239 C   0  0  0  0  0  0  0  0  0  0  0  0
  -22.9110   -9.8664   20.1175 C   0  0  0  0  0  0  0  0  0  0  0  0
  -24.2291   -9.5552   22.1182 C   0  0  0  0  0  0  0  0  0  0  0  0
  -35.9859  -28.3889   15.7257 C   0  0  0  0  0  0  0  0  0  0  0  0
  -35.7095  -26.7130   17.9305 C   0  0  0  0  0  0  0  0  0  0  0  0
  -32.9713  -22.7174   19.4080 C   0  0  0  0  0  0  0  0  0  0  0  0
  -22.2323   -8.6764   20.3794 C   0  0  0  0  0  0  0  0  0  0  0  0
  -23.5503   -8.3651   22.3802 C   0  0  0  0  0  0  0  0  0  0  0  0
  -33.5870  -21.8050   20.2637 C   0  0  0  0  0  0  0  0  0  0  0  0
  -20.5662   -7.4319   23.6627 C   0  0  0  0  0  0  0  0  0  0  0  0
  -20.1313   -7.2098   24.9692 C   0  0  0  0  0  0  0  0  0  0  0  0
  -32.4527  -22.8094   22.1409 C   0  0  0  0  0  0  0  0  0  0  0  0
  -30.2986  -14.0100   25.1351 C   0  0  0  0  0  0  0  0  0  0  0  0
  -31.8751  -15.0653   23.6391 C   0  0  0  0  0  0  0  0  0  0  0  0
  -21.4802   -5.2085   25.0781 C   0  0  0  0  0  0  0  0  0  0  0  0
  -23.9095  -10.3059   20.9868 C   0  0  0  0  0  0  0  0  0  0  0  0
  -24.0565  -12.8239   20.6052 C   0  0  0  0  0  0  0  0  0  0  0  0
  -35.0582  -28.7167   16.7269 C   0  0  0  0  0  0  0  0  0  0  0  0
  -32.0988  -23.6913   19.9145 C   0  0  0  0  0  0  0  0  0  0  0  0
  -34.9243  -27.8755   17.8481 C   0  0  0  0  0  0  0  0  0  0  0  0
  -31.8253  -23.7314   21.2892 C   0  0  0  0  0  0  0  0  0  0  0  0
  -30.6937  -14.8710   26.1589 C   0  0  0  0  0  0  0  0  0  0  0  0
  -31.6795  -15.8292   25.9227 C   0  0  0  0  0  0  0  0  0  0  0  0
  -32.2702  -15.9264   24.6628 C   0  0  0  0  0  0  0  0  0  0  0  0
  -30.8893  -14.1071   23.8752 C   0  0  0  0  0  0  0  0  0  0  0  0
  -22.5519   -7.9257   21.5108 C   0  0  0  0  0  0  0  0  0  0  0  0
  -33.3299  -21.8527   21.6307 C   0  0  0  0  0  0  0  0  0  0  0  0
  -21.4582   -6.5422   23.0638 C   0  0  0  0  0  0  0  0  0  0  0  0
  -20.5883   -6.0981   25.6770 C   0  0  0  0  0  0  0  0  0  0  0  0
  -21.9152   -5.4305   23.7716 C   0  0  0  0  0  0  0  0  0  0  0  0
  -24.6113  -11.5349   20.7164 C   0  0  0  0  0  0  0  0  0  0  0  0
  -25.1310  -13.6388   20.3447 C   0  0  0  0  0  0  0  0  0  0  0  0
  -34.2328  -18.6515   23.0294 C   0  0  0  0  0  0  0  0  0  0  0  0
  -33.1731  -17.9074   23.4287 C   0  0  0  0  0  0  0  0  0  0  0  0
  -35.5378  -18.4499   23.7411 C   0  0  0  0  0  0  0  0  0  0  0  0
  -22.6919  -13.2468   20.7265 C   0  0  0  0  0  0  0  0  0  0  0  0
  -32.0778  -26.8692   19.9782 C   0  0  0  0  0  0  0  0  0  0  0  0
  -29.1214  -26.4360   21.2411 C   0  0  0  0  0  0  0  0  0  0  0  0
  -26.9606  -24.4024   22.9268 C   0  0  0  0  0  0  0  0  0  0  0  0
  -30.9714  -13.1967   21.5277 C   0  0  0  0  0  0  0  0  0  0  0  0
  -34.2788  -30.0018   16.6018 C   0  0  0  0  0  0  0  0  0  0  0  0
  -31.4220  -24.6513   18.9749 C   0  0  0  0  0  0  0  0  0  0  0  0
  -30.8807  -24.7445   21.8806 C   0  0  0  0  0  0  0  0  0  0  0  0
  -35.5266  -17.6530   25.0219 C   0  0  0  0  0  0  0  0  0  0  0  0
  -33.0681  -30.0726   17.5289 C   0  0  0  0  0  0  0  0  0  0  0  0
  -29.4713  -13.5811   18.3216 C   0  0  0  0  0  0  0  0  0  0  0  0
  -33.4483  -29.6301   18.9383 C   0  0  0  0  0  0  0  0  0  0  0  0
  -28.0030  -13.2232   18.5631 C   0  0  0  0  0  0  0  0  0  0  0  0
  -34.5814  -16.4711   24.9245 C   0  0  0  0  0  0  0  0  0  0  0  0
  -30.4113  -12.7125   19.1556 C   0  0  0  0  0  0  0  0  0  0  0  0
  -28.6512  -12.3284   20.8360 C   0  0  0  0  0  0  0  0  0  0  0  0
  -33.9292  -28.1740   18.9484 C   0  0  1  0  0  0  0  0  0  0  0  0
  -30.9496  -25.9281   19.6633 C   0  0  1  0  0  0  0  0  0  0  0  0
  -27.6635  -13.2205   20.0665 C   0  0  2  0  0  0  0  0  0  0  0  0
  -30.0463  -14.7452   27.4991 C   0  0  0  0  0  0  0  0  0  0  0  0
  -32.1008  -16.7512   27.0237 C   0  0  0  0  0  0  0  0  0  0  0  0
  -31.7938  -18.2034   22.8710 C   0  0  0  0  0  0  0  0  0  0  0  0
  -24.6262  -24.3386   23.8456 C   0  0  0  0  0  0  0  0  0  0  0  0
  -29.9894  -28.2152   23.5630 C   0  0  0  0  0  0  0  0  0  0  0  0
  -28.0297  -27.3558   24.8628 C   0  0  0  0  0  0  0  0  0  0  0  0
  -27.6610  -28.6259   22.7477 C   0  0  0  0  0  0  0  0  0  0  0  0
  -26.2202  -22.1137   21.2026 C   0  0  0  0  0  0  0  0  0  0  0  0
  -34.2454  -19.6787   21.9337 C   0  0  0  0  0  0  0  0  0  1  0  0
  -28.5687  -26.2688   22.6359 C   0  0  1  0  0  0  0  0  0  0  0  0
  -25.5168  -24.0205   22.6546 C   0  0  2  0  0  0  0  0  0  0  0  0
  -28.5816  -27.5984   23.4418 C   0  0  0  0  0  0  0  0  0  0  0  0
  -25.9354  -11.5265   20.5408 N   0  0  0  0  0  0  0  0  0  0  0  0
  -26.2215  -12.8202   20.3165 N   0  0  0  0  0  0  0  0  0  0  0  0
  -33.2765  -16.8965   24.4023 N   0  0  0  0  0  0  0  0  0  0  0  0
  -30.2485  -25.6656   20.9218 N   0  0  0  0  0  0  0  0  0  0  0  0
  -30.0315  -12.7623   20.5692 N   0  0  0  0  0  0  0  0  0  0  0  0
  -25.2399  -14.9686   20.1393 N   0  0  0  0  0  0  0  0  0  0  0  0
  -22.2174  -13.6177   21.9921 N   0  0  0  0  0  0  0  0  0  0  0  0
  -30.4868  -13.2334   22.8348 N   0  0  0  0  0  0  0  0  0  0  0  0
  -32.8025  -27.2690   18.8717 N   0  0  0  0  0  0  0  0  0  0  0  0
  -27.2445  -25.6762   22.4819 N   0  0  0  0  0  0  0  0  0  0  0  0
  -25.4123  -22.5622   22.3659 N   0  3  0  0  0  0  0  0  0  0  0  0
  -36.5696  -18.9865   23.3405 O   0  0  0  0  0  0  0  0  0  0  0  0
  -21.9118  -13.2788   19.7448 O   0  0  0  0  0  0  0  0  0  0  0  0
  -32.2752  -27.2087   21.1390 O   0  0  0  0  0  0  0  0  0  0  0  0
  -28.5691  -27.2160   20.4612 O   0  0  0  0  0  0  0  0  0  0  0  0
  -27.7559  -23.6476   23.4822 O   0  0  0  0  0  0  0  0  0  0  0  0
  -32.1129  -13.5387   21.2086 O   0  0  0  0  0  0  0  0  0  0  0  0
  -21.8897   -6.7645   21.7669 O   0  0  0  0  0  0  0  0  0  0  0  0
  -33.9300  -20.9637   22.4683 O   0  0  0  0  0  0  0  0  0  1  0  0
  -20.1717   -5.8858   26.9322 F   0  0  0  0  0  0  0  0  0  0  0  0
  -22.7730   -4.5730   23.2019 F   0  0  0  0  0  0  0  0  0  0  0  0
  1  2  1  0  0  0  0
  1  5  2  0  0  0  0
  2  6  2  0  0  0  0
  3  8  2  0  0  0  0
  3 17  1  0  0  0  0
  4  9  1  0  0  0  0
  4 17  2  0  0  0  0
  5 19  1  0  0  0  0
  6 21  1  0  0  0  0
  7 10  2  0  0  0  0
  7 20  1  0  0  0  0
  8 27  1  0  0  0  0
  9 27  2  0  0  0  0
 10 28  1  0  0  0  0
 11 12  2  0  0  0  0
 11 29  1  0  0  0  0
 12 30  1  0  0  0  0
 13 22  1  0  0  0  0
 13 28  2  0  0  0  0
 14 23  2  0  0  0  0
 14 26  1  0  0  0  0
 15 25  1  0  0  0  0
 15 26  2  0  0  0  0
 16 30  2  0  0  0  0
 16 31  1  0  0  0  0
 17 32  1  0  0  0  0
 18 32  1  0  0  0  0
 18 33  2  0  0  0  0
 18 37  1  0  0  0  0
 19 21  2  0  0  0  0
 19 42  1  0  0  0  0
 20 22  2  0  0  0  0
 20 43  1  0  0  0  0
 21 53  1  0  0  0  0
 22 44  1  0  0  0  0
 23 24  1  0  0  0  0
 23 56  1  0  0  0  0
 24 25  2  0  0  0  0
 24 57  1  0  0  0  0
 25 70  1  0  0  0  0
 26 75  1  0  0  0  0
 27 85  1  0  0  0  0
 28 86  1  0  0  0  0
 29 31  2  0  0  0  0
 29 85  1  0  0  0  0
 30 87  1  0  0  0  0
 31 88  1  0  0  0  0
 32 68  2  0  0  0  0
 33 69  1  0  0  0  0
 33 73  1  0  0  0  0
 34 35  2  0  0  0  0
 34 36  1  0  0  0  0
 34 64  1  0  0  0  0
 35 58  1  0  0  0  0
 35 70  1  0  0  0  0
 36 45  1  0  0  0  0
 36 79  2  0  0  0  0
 37 74  1  0  0  0  0
 37 80  2  0  0  0  0
 38 54  1  0  0  0  0
 38 76  1  0  0  0  0
 38 81  2  0  0  0  0
 39 65  1  0  0  0  0
 39 71  1  0  0  0  0
 39 82  2  0  0  0  0
 40 66  1  0  0  0  0
 40 77  1  0  0  0  0
 40 83  2  0  0  0  0
 41 72  1  0  0  0  0
 41 75  1  0  0  0  0
 41 84  2  0  0  0  0
 42 46  1  0  0  0  0
 43 54  1  0  0  0  0
 44 71  1  0  0  0  0
 45 50  1  0  0  0  0
 46 48  1  0  0  0  0
 47 49  1  0  0  0  0
 47 51  1  0  0  0  0
 48 53  1  0  0  0  0
 49 55  1  0  0  0  0
 50 70  1  0  0  0  0
 51 72  1  0  0  0  0
 52 55  1  0  0  0  0
 52 72  1  0  0  0  0
 53 76  1  0  0  0  0
 54 71  1  0  0  0  0
 55 69  1  0  0  0  0
 59 66  1  0  0  0  0
 60 67  1  0  0  0  0
 61 67  1  0  0  0  0
 62 67  1  0  0  0  0
 63 78  1  0  0  0  0
 64 86  1  0  0  0  0
 65 67  1  0  0  0  0
 65 77  1  0  0  0  0
 66 78  1  0  0  0  0
 68 69  1  0  0  0  0
M  CHG  1  78   1
M  ISO  4  41 100  64 101  75 100  86 101
M  END
> <Batch ID>
0112

> <Smiles>
CNC(C)C(=O)NC(C(=O)N1Cc2cc([101O:1][101CH2:1]C3=C(C)N(c4cc([100NH:0][100C:0](=O)N5CCCC(n6nc(-c7ccc(Oc8ccc(F)cc8F)cc7)c(C(N)=O)c6N)C5)cc(C)c4C)CCC3=O)ccc2CC1C(=O)NC1CCCc2ccccc21)C(C)(C)C

> <Shape>
0.193

> <Color>
0.162

> <Negative vol penalty>
0.000

$$$$

  -OEChem-04052301313D

 90 99  0     1  0  0  0  0  0999 V2000
  -22.1437   -7.7224   24.5144 C   0  0  0  0  0  0  0  0  0  0  0  0
  -22.9195   -8.7781   24.9824 C   0  0  0  0  0  0  0  0  0  0  0  0
  -23.7206  -28.9660   23.6059 C   0  0  0  0  0  0  0  0  0  0  0  0
  -22.6256  -29.8672   21.6499 C   0  0  0  0  0  0  0  0  0  0  0  0
  -21.9156   -7.5794   23.1464 C   0  0  0  0  0  0  0  0  0  0  0  0
  -23.4687   -9.6908   24.0826 C   0  0  0  0  0  0  0  0  0  0  0  0
  -25.2351  -16.6110   23.5285 C   0  0  0  0  0  0  0  0  0  0  0  0
  -22.5244  -28.3660   23.9991 C   0  0  0  0  0  0  0  0  0  0  0  0
  -21.4293  -29.2671   22.0431 C   0  0  0  0  0  0  0  0  0  0  0  0
  -26.3149  -17.4227   23.1837 C   0  0  0  0  0  0  0  0  0  0  0  0
  -18.9505  -29.8713   24.2615 C   0  0  0  0  0  0  0  0  0  0  0  0
  -17.7868  -30.6369   24.1884 C   0  0  0  0  0  0  0  0  0  0  0  0
  -25.7882  -17.1215   20.8490 C   0  0  0  0  0  0  0  0  0  0  0  0
  -16.8334  -29.0402   22.6460 C   0  0  0  0  0  0  0  0  0  0  0  0
  -23.7712  -29.7166   22.4313 C   0  0  0  0  0  0  0  0  0  0  0  0
  -25.7530  -31.2930   22.7395 C   0  0  0  0  0  0  0  0  0  0  0  0
  -22.4542   -8.4964   22.2300 C   0  0  0  0  0  0  0  0  0  0  0  0
  -24.4289  -16.0386   22.5340 C   0  0  0  0  0  0  0  0  0  0  0  0
  -23.2487   -9.5591   22.7009 C   0  0  0  0  0  0  0  0  0  0  0  0
  -24.6972  -16.3050   21.1838 C   0  0  0  0  0  0  0  0  0  0  0  0
  -30.6158  -24.0815   18.8766 C   0  0  0  0  0  0  0  0  0  0  0  0
  -30.6993  -25.3780   19.4616 C   0  0  0  0  0  0  0  0  0  0  0  0
  -21.3787  -28.5165   23.2178 C   0  0  0  0  0  0  0  0  0  0  0  0
  -26.5934  -17.6757   21.8438 C   0  0  0  0  0  0  0  0  0  0  0  0
  -19.0557  -28.6903   23.5268 C   0  0  0  0  0  0  0  0  0  0  0  0
  -16.7282  -30.2213   23.3807 C   0  0  0  0  0  0  0  0  0  0  0  0
  -17.9971  -28.2747   22.7191 C   0  0  0  0  0  0  0  0  0  0  0  0
  -25.0064  -30.3372   22.0248 C   0  0  0  0  0  0  0  0  0  0  0  0
  -26.8312  -31.5605   21.9318 C   0  0  0  0  0  0  0  0  0  0  0  0
  -30.3414  -23.1084   19.8121 C   0  0  0  0  0  0  0  0  0  0  0  0
  -30.4853  -25.3464   20.8222 C   0  0  0  0  0  0  0  0  0  0  0  0
  -29.0468  -19.6098   19.9228 C   0  0  0  0  0  0  0  0  0  0  0  0
  -29.0308  -20.9644   19.8526 C   0  0  0  0  0  0  0  0  0  0  0  0
  -30.3743  -18.9124   19.7974 C   0  0  0  0  0  0  0  0  0  0  0  0
  -26.8829  -21.2574   20.8989 C   0  0  0  0  0  0  0  0  0  0  0  0
  -27.7697  -21.6785   19.9919 C   0  0  0  0  0  0  0  0  0  0  0  0
  -25.4951  -31.8860   24.0192 C   0  0  0  0  0  0  0  0  0  0  0  0
  -23.7323  -13.0671   21.6459 C   0  0  0  0  0  0  0  0  0  0  0  0
  -21.6531  -14.5644   19.6566 C   0  0  0  0  0  0  0  0  0  0  0  0
  -20.8027  -17.3966   17.9528 C   0  0  0  0  0  0  0  0  0  0  0  0
  -29.6103  -28.4105   17.6650 C   0  0  0  0  0  0  0  0  0  0  0  0
  -22.2195   -8.2735   20.7570 C   0  0  0  0  0  0  0  0  0  0  0  0
  -23.2517  -15.1870   22.9231 C   0  0  0  0  0  0  0  0  0  0  0  0
  -23.8500  -15.7310   20.0787 C   0  0  0  0  0  0  0  0  0  0  0  0
  -31.6247  -19.7486   19.6710 C   0  0  0  0  0  0  0  0  0  0  0  0
  -22.5269   -9.4982   19.8991 C   0  0  0  0  0  0  0  0  0  0  0  0
  -28.1348  -31.6333   17.3289 C   0  0  0  0  0  0  0  0  0  0  0  0
  -23.8660  -10.1085   20.3003 C   0  0  0  0  0  0  0  0  0  0  0  0
  -27.2331  -31.7528   18.5588 C   0  0  0  0  0  0  0  0  0  0  0  0
  -31.3537  -21.0640   18.9633 C   0  0  0  0  0  0  0  0  0  0  0  0
  -28.1543  -30.2085   16.7798 C   0  0  0  0  0  0  0  0  0  0  0  0
  -27.5976  -29.2884   18.9972 C   0  0  0  0  0  0  0  0  0  0  0  0
  -23.8411  -10.5839   21.7580 C   0  0  1  0  0  0  0  0  0  0  0  0
  -22.8071  -14.2392   21.8134 C   0  0  1  0  0  0  0  0  0  0  0  0
  -27.5894  -30.6948   19.6203 C   0  0  2  0  0  0  0  0  0  0  0  0
  -30.8056  -23.8147   17.4278 C   0  0  0  0  0  0  0  0  0  0  0  0
  -32.2648  -27.3311   19.1510 C   0  0  0  0  0  0  0  0  0  0  0  0
  -19.0697  -18.3045   16.3813 C   0  0  0  0  0  0  0  0  0  0  0  0
  -22.9226  -13.0067   17.3605 C   0  0  0  0  0  0  0  0  0  0  0  0
  -21.8468  -14.6120   15.7688 C   0  0  0  0  0  0  0  0  0  0  0  0
  -20.4307  -13.1865   17.2471 C   0  0  0  0  0  0  0  0  0  0  0  0
  -19.9876  -19.4917   19.8776 C   0  0  0  0  0  0  0  0  0  0  0  0
  -27.8747  -18.6843   20.1126 C   0  0  0  0  0  0  0  0  0  1  0  0
  -30.9834  -26.6157   18.6910 C   0  0  2  0  0  0  0  0  0  0  0  0
  -21.7241  -15.1127   18.2518 C   0  0  1  0  0  0  0  0  0  0  0  0
  -19.4869  -18.1443   17.8349 C   0  0  2  0  0  0  0  0  0  0  0  0
  -21.7484  -13.9889   17.1776 C   0  0  0  0  0  0  0  0  0  0  0  0
  -25.5631  -30.0191   20.8531 N   0  0  0  0  0  0  0  0  0  0  0  0
  -26.6709  -30.7793   20.8253 N   0  0  0  0  0  0  0  0  0  0  0  0
  -30.1911  -21.7153   19.5769 N   0  0  0  0  0  0  0  0  0  0  0  0
  -22.7141  -14.8995   20.5097 N   0  0  0  0  0  0  0  0  0  0  0  0
  -28.5005  -29.2544   17.8360 N   0  0  0  0  0  0  0  0  0  0  0  0
  -27.8912  -32.3854   22.0671 N   0  0  0  0  0  0  0  0  0  0  0  0
  -30.4940  -26.4028   21.6749 N   0  0  0  0  0  0  0  0  0  0  0  0
  -24.7409  -33.0663   24.0688 N   0  0  0  0  0  0  0  0  0  0  0  0
  -23.1335  -11.8416   21.8674 N   0  0  0  0  0  0  0  0  0  0  0  0
  -20.6071  -16.0418   18.1193 N   0  0  0  0  0  0  0  0  0  0  0  0
  -29.8724  -27.5408   18.7165 N   0  0  0  0  0  0  0  0  0  0  0  0
  -19.6054  -19.5002   18.4420 N   0  3  0  0  0  0  0  0  0  0  0  0
  -30.4496  -17.6852   19.8593 O   0  0  0  0  0  0  0  0  0  0  0  0
  -25.9346  -31.3930   25.0856 O   0  0  0  0  0  0  0  0  0  0  0  0
  -24.9023  -13.2603   21.3371 O   0  0  0  0  0  0  0  0  0  0  0  0
  -20.6882  -13.8706   19.9869 O   0  0  0  0  0  0  0  0  0  0  0  0
  -21.8949  -17.9576   17.8986 O   0  0  0  0  0  0  0  0  0  0  0  0
  -30.3186  -28.4344   16.6527 O   0  0  0  0  0  0  0  0  0  0  0  0
  -20.2114  -27.9309   23.6010 O   0  0  0  0  0  0  0  0  0  0  0  0
  -27.6472  -18.4671   21.5045 O   0  0  0  0  0  0  0  0  0  1  0  0
  -15.6102  -30.9558   23.3118 F   0  0  0  0  0  0  0  0  0  0  0  0
  -18.0919  -27.1404   22.0119 F   0  0  0  0  0  0  0  0  0  0  0  0
  -30.1855  -23.7585   21.3887 S   0  0  0  0  0  0  0  0  0  0  0  0
  1  2  1  0  0  0  0
  1  5  2  0  0  0  0
  2  6  2  0  0  0  0
  3  8  2  0  0  0  0
  3 15  1  0  0  0  0
  4  9  1  0  0  0  0
  4 15  2  0  0  0  0
  5 17  1  0  0  0  0
  6 19  1  0  0  0  0
  7 10  2  0  0  0  0
  7 18  1  0  0  0  0
  8 23  1  0  0  0  0
  9 23  2  0  0  0  0
 10 24  1  0  0  0  0
 11 12  2  0  0  0  0
 11 25  1  0  0  0  0
 12 26  1  0  0  0  0
 13 20  1  0  0  0  0
 13 24  2  0  0  0  0
 14 26  2  0  0  0  0
 14 27  1  0  0  0  0
 15 28  1  0  0  0  0
 16 28  1  0  0  0  0
 16 29  2  0  0  0  0
 16 37  1  0  0  0  0
 17 19  2  0  0  0  0
 17 42  1  0  0  0  0
 18 20  2  0  0  0  0
 18 43  1  0  0  0  0
 19 53  1  0  0  0  0
 20 44  1  0  0  0  0
 21 22  1  0  0  0  0
 21 30  2  0  0  0  0
 21 56  1  0  0  0  0
 22 31  2  0  0  0  0
 22 64  1  0  0  0  0
 23 86  1  0  0  0  0
 24 87  1  0  0  0  0
 25 27  2  0  0  0  0
 25 86  1  0  0  0  0
 26 88  1  0  0  0  0
 27 89  1  0  0  0  0
 28 68  2  0  0  0  0
 29 69  1  0  0  0  0
 29 73  1  0  0  0  0
 30 70  1  0  0  0  0
 30 90  1  0  0  0  0
 31 74  1  0  0  0  0
 31 90  1  0  0  0  0
 32 33  2  0  0  0  0
 32 34  1  0  0  0  0
 32 63  1  0  0  0  0
 33 36  1  0  0  0  0
 33 70  1  0  0  0  0
 34 45  1  0  0  0  0
 34 80  2  0  0  0  0
 35 36  2  0  0  0  0
 37 75  1  0  0  0  0
 37 81  2  0  0  0  0
 38 54  1  0  0  0  0
 38 76  1  0  0  0  0
 38 82  2  0  0  0  0
 39 65  1  0  0  0  0
 39 71  1  0  0  0  0
 39 83  2  0  0  0  0
 40 66  1  0  0  0  0
 40 77  1  0  0  0  0
 40 84  2  0  0  0  0
 41 72  1  0  0  0  0
 41 78  1  0  0  0  0
 41 85  2  0  0  0  0
 42 46  1  0  0  0  0
 43 54  1  0  0  0  0
 44 71  1  0  0  0  0
 45 50  1  0  0  0  0
 46 48  1  0  0  0  0
 47 49  1  0  0  0  0
 47 51  1  0  0  0  0
 48 53  1  0  0  0  0
 49 55  1  0  0  0  0
 50 70  1  0  0  0  0
 51 72  1  0  0  0  0
 52 55  1  0  0  0  0
 52 72  1  0  0  0  0
 53 76  1  0  0  0  0
 54 71  1  0  0  0  0
 55 69  1  0  0  0  0
 57 64  1  0  0  0  0
 58 66  1  0  0  0  0
 59 67  1  0  0  0  0
 60 67  1  0  0  0  0
 61 67  1  0  0  0  0
 62 79  1  0  0  0  0
 63 87  1  0  0  0  0
 64 78  1  0  0  0  0
 65 67  1  0  0  0  0
 65 77  1  0  0  0  0
 66 79  1  0  0  0  0
 68 69  1  0  0  0  0
M  CHG  1  79   1
M  ISO  4  41 100  63 101  78 100  87 101
M  END
> <Batch ID>
0112

> <Smiles>
C=CC1=C([101CH2:1][101O:1]c2ccc3c(c2)CN(C(=O)C(NC(=O)C(C)NC)C(C)(C)C)C(C(=O)NC2CCCc4ccccc42)C3)C(=O)CCN1c1sc(N)c(C(C)[100NH:0][100C:0](=O)N2CCCC(n3nc(-c4ccc(Oc5ccc(F)cc5F)cc4)c(C(N)=O)c3N)C2)c1C

> <Shape>
0.299

> <Color>
0.062

> <Negative vol penalty>
0.000

$$$$

  -OEChem-04052301313D

 81 89  0     1  0  0  0  0  0999 V2000
  -22.1361  -11.6811   19.3342 C   0  0  0  0  0  0  0  0  0  0  0  0
  -21.8217  -12.9644   19.7696 C   0  0  0  0  0  0  0  0  0  0  0  0
  -25.7238  -26.1101   22.3745 C   0  0  0  0  0  0  0  0  0  0  0  0
  -25.7275  -28.3238   21.4066 C   0  0  0  0  0  0  0  0  0  0  0  0
  -23.4287  -11.1863   19.5025 C   0  0  0  0  0  0  0  0  0  0  0  0
  -22.7994  -13.7533   20.3747 C   0  0  0  0  0  0  0  0  0  0  0  0
  -22.7995  -18.5131   18.6459 C   0  0  0  0  0  0  0  0  0  0  0  0
  -26.8328  -25.7697   21.6001 C   0  0  0  0  0  0  0  0  0  0  0  0
  -26.8366  -27.9834   20.6323 C   0  0  0  0  0  0  0  0  0  0  0  0
  -21.8149  -19.3691   19.1374 C   0  0  0  0  0  0  0  0  0  0  0  0
  -29.8899  -27.8132   18.6659 C   0  0  0  0  0  0  0  0  0  0  0  0
  -30.9364  -28.7324   18.5911 C   0  0  0  0  0  0  0  0  0  0  0  0
  -23.4153  -20.3186   20.6725 C   0  0  0  0  0  0  0  0  0  0  0  0
  -31.2238  -28.6001   20.9863 C   0  0  0  0  0  0  0  0  0  0  0  0
  -25.1711  -27.3872   22.2777 C   0  0  0  0  0  0  0  0  0  0  0  0
  -24.0291  -28.3034   24.3668 C   0  0  0  0  0  0  0  0  0  0  0  0
  -18.6218  -22.4258   24.6778 C   0  0  0  0  0  0  0  0  0  0  0  0
  -24.4253  -11.9731   20.1012 C   0  0  0  0  0  0  0  0  0  0  0  0
  -24.0988  -18.5460   19.1724 C   0  0  0  0  0  0  0  0  0  0  0  0
  -24.1062  -13.2680   20.5524 C   0  0  0  0  0  0  0  0  0  0  0  0
  -24.4152  -19.4638   20.1841 C   0  0  0  0  0  0  0  0  0  0  0  0
  -27.3893  -26.7063   20.7290 C   0  0  0  0  0  0  0  0  0  0  0  0
  -22.1220  -20.2700   20.1529 C   0  0  0  0  0  0  0  0  0  0  0  0
  -29.5103  -27.2875   19.9009 C   0  0  0  0  0  0  0  0  0  0  0  0
  -31.6033  -29.1258   19.7513 C   0  0  0  0  0  0  0  0  0  0  0  0
  -30.1772  -27.6809   21.0611 C   0  0  0  0  0  0  0  0  0  0  0  0
  -24.0251  -27.7393   23.0770 C   0  0  0  0  0  0  0  0  0  0  0  0
  -19.5613  -21.7007   23.9940 C   0  0  0  0  0  0  0  0  0  0  0  0
  -18.7088  -21.9318   25.9908 C   0  0  0  0  0  0  0  0  0  0  0  0
  -22.7002  -28.4452   24.6837 C   0  0  0  0  0  0  0  0  0  0  0  0
  -19.9232  -21.7818   22.5688 C   0  0  0  0  0  0  0  0  0  0  0  0
  -20.8444  -21.0234   21.9615 C   0  0  0  0  0  0  0  0  0  1  0  0
  -25.1352  -28.6669   25.2035 C   0  0  0  0  0  0  0  0  0  0  0  0
  -17.7392  -23.4806   24.1162 C   0  0  0  0  0  0  0  0  0  0  0  0
  -25.9540  -16.4645   20.6986 C   0  0  0  0  0  0  0  0  0  0  0  0
  -28.1777  -18.8043   20.3782 C   0  0  0  0  0  0  0  0  0  0  0  0
  -28.8508  -22.1227   19.9513 C   0  0  0  0  0  0  0  0  0  0  0  0
  -17.7513  -25.6552   22.9352 C   0  0  0  0  0  0  0  0  0  0  0  0
  -25.7960  -11.3775   20.3044 C   0  0  0  0  0  0  0  0  0  0  0  0
  -25.1564  -17.6346   18.6127 C   0  0  0  0  0  0  0  0  0  0  0  0
  -25.8002  -19.5528   20.7693 C   0  0  0  0  0  0  0  0  0  0  0  0
  -26.8709  -12.4155   20.6162 C   0  0  0  0  0  0  0  0  0  0  0  0
  -18.4138  -29.1155   22.6455 C   0  0  0  0  0  0  0  0  0  0  0  0
  -26.3779  -13.3919   21.6793 C   0  0  0  0  0  0  0  0  0  0  0  0
  -19.9272  -29.2123   22.8562 C   0  0  0  0  0  0  0  0  0  0  0  0
  -18.0300  -27.8675   21.8518 C   0  0  0  0  0  0  0  0  0  0  0  0
  -20.0701  -26.7040   22.5881 C   0  0  0  0  0  0  0  0  0  0  0  0
  -25.1458  -14.1633   21.1910 C   0  0  1  0  0  0  0  0  0  0  0  0
  -26.3138  -17.3987   19.5782 C   0  0  1  0  0  0  0  0  0  0  0  0
  -20.5014  -27.9069   23.4425 C   0  0  1  0  0  0  0  0  0  0  0  0
  -30.7633  -23.7368   19.7657 C   0  0  0  0  0  0  0  0  0  0  0  0
  -28.6166  -18.6271   23.3925 C   0  0  0  0  0  0  0  0  0  0  0  0
  -29.7839  -20.8392   23.2823 C   0  0  0  0  0  0  0  0  0  0  0  0
  -30.7093  -18.8798   22.0466 C   0  0  0  0  0  0  0  0  0  0  0  0
  -28.0444  -22.9443   17.2248 C   0  0  0  0  0  0  0  0  0  0  0  0
  -28.6030  -19.9951   21.2029 C   0  0  1  0  0  0  0  0  0  0  0  0
  -29.7929  -22.8459   19.0059 C   0  0  2  0  0  0  0  0  0  0  0  0
  -29.4015  -19.5825   22.4716 C   0  0  0  0  0  0  0  0  0  0  0  0
  -22.7915  -27.5364   22.6068 N   0  0  0  0  0  0  0  0  0  0  0  0
  -19.6317  -20.9735   26.1120 N   0  0  0  0  0  0  0  0  0  0  0  0
  -22.0080  -27.9753   23.6066 N   0  0  0  0  0  0  0  0  0  0  0  0
  -26.7980  -18.6364   20.1931 N   0  0  0  0  0  0  0  0  0  0  0  0
  -18.6040  -26.6747   22.4771 N   0  0  0  0  0  0  0  0  0  0  0  0
  -17.9236  -22.4042   26.9932 N   0  0  0  0  0  0  0  0  0  0  0  0
  -22.0680  -28.9245   25.7759 N   0  0  0  0  0  0  0  0  0  0  0  0
  -26.4345  -28.4539   24.7233 N   0  0  0  0  0  0  0  0  0  0  0  0
  -18.3936  -24.5779   23.5556 N   0  0  0  0  0  0  0  0  0  0  0  0
  -25.5375  -15.2158   20.2781 N   0  0  0  0  0  0  0  0  0  0  0  0
  -29.3321  -20.8782   20.2990 N   0  0  0  0  0  0  0  0  0  0  0  0
  -29.0212  -23.6952   18.0549 N   0  3  0  0  0  0  0  0  0  0  0  0
  -24.9760  -29.1506   26.3499 O   0  0  0  0  0  0  0  0  0  0  0  0
  -16.5224  -23.3168   24.1388 O   0  0  0  0  0  0  0  0  0  0  0  0
  -26.0485  -16.8476   21.8588 O   0  0  0  0  0  0  0  0  0  0  0  0
  -29.0381  -18.0550   19.9094 O   0  0  0  0  0  0  0  0  0  0  0  0
  -27.7954  -22.6142   20.3452 O   0  0  0  0  0  0  0  0  0  0  0  0
  -16.5218  -25.7160   22.8351 O   0  0  0  0  0  0  0  0  0  0  0  0
  -20.1708  -20.8305   24.8391 O   0  0  0  0  0  0  0  0  0  0  0  0
  -28.4717  -26.3745   19.9734 O   0  0  0  0  0  0  0  0  0  0  0  0
  -21.1627  -21.1062   20.6350 O   0  0  0  0  0  0  0  0  0  1  0  0
  -32.6093  -30.0073   19.6791 F   0  0  0  0  0  0  0  0  0  0  0  0
  -29.8178  -27.1784   22.2503 F   0  0  0  0  0  0  0  0  0  0  0  0
  1  2  1  0  0  0  0
  1  5  2  0  0  0  0
  2  6  2  0  0  0  0
  3  8  2  0  0  0  0
  3 15  1  0  0  0  0
  4  9  1  0  0  0  0
  4 15  2  0  0  0  0
  5 18  1  0  0  0  0
  6 20  1  0  0  0  0
  7 10  2  0  0  0  0
  7 19  1  0  0  0  0
  8 22  1  0  0  0  0
  9 22  2  0  0  0  0
 10 23  1  0  0  0  0
 11 12  2  0  0  0  0
 11 24  1  0  0  0  0
 12 25  1  0  0  0  0
 13 21  1  0  0  0  0
 13 23  2  0  0  0  0
 14 25  2  0  0  0  0
 14 26  1  0  0  0  0
 15 27  1  0  0  0  0
 16 27  1  0  0  0  0
 16 30  2  0  0  0  0
 16 33  1  0  0  0  0
 17 28  2  0  0  0  0
 17 29  1  0  0  0  0
 17 34  1  0  0  0  0
 18 20  2  0  0  0  0
 18 39  1  0  0  0  0
 19 21  2  0  0  0  0
 19 40  1  0  0  0  0
 20 48  1  0  0  0  0
 21 41  1  0  0  0  0
 22 78  1  0  0  0  0
 23 79  1  0  0  0  0
 24 26  2  0  0  0  0
 24 78  1  0  0  0  0
 25 80  1  0  0  0  0
 26 81  1  0  0  0  0
 27 59  2  0  0  0  0
 28 31  1  0  0  0  0
 28 77  1  0  0  0  0
 29 60  2  0  0  0  0
 29 64  1  0  0  0  0
 30 61  1  0  0  0  0
 30 65  1  0  0  0  0
 31 32  2  0  0  0  0
 32 79  1  0  0  0  0
 33 66  1  0  0  0  0
 33 71  2  0  0  0  0
 34 67  1  0  0  0  0
 34 72  2  0  0  0  0
 35 49  1  0  0  0  0
 35 68  1  0  0  0  0
 35 73  2  0  0  0  0
 36 56  1  0  0  0  0
 36 62  1  0  0  0  0
 36 74  2  0  0  0  0
 37 57  1  0  0  0  0
 37 69  1  0  0  0  0
 37 75  2  0  0  0  0
 38 63  1  0  0  0  0
 38 67  1  0  0  0  0
 38 76  2  0  0  0  0
 39 42  1  0  0  0  0
 40 49  1  0  0  0  0
 41 62  1  0  0  0  0
 42 44  1  0  0  0  0
 43 45  1  0  0  0  0
 43 46  1  0  0  0  0
 44 48  1  0  0  0  0
 45 50  1  0  0  0  0
 46 63  1  0  0  0  0
 47 50  1  0  0  0  0
 47 63  1  0  0  0  0
 48 68  1  0  0  0  0
 49 62  1  0  0  0  0
 50 61  1  0  0  0  0
 51 57  1  0  0  0  0
 52 58  1  0  0  0  0
 53 58  1  0  0  0  0
 54 58  1  0  0  0  0
 55 70  1  0  0  0  0
 56 58  1  0  0  0  0
 56 69  1  0  0  0  0
 57 70  1  0  0  0  0
 59 61  1  0  0  0  0
 60 77  1  0  0  0  0
M  CHG  1  70   1
M  ISO  4  32 101  38 100  67 100  79 101
M  END
> <Batch ID>
0112

> <Smiles>
CNC(C)C(=O)NC(C(=O)N1Cc2cc([101O:1][101CH:1]=Cc3onc(N)c3C(=O)[100NH:0][100C:0](=O)N3CCCC(n4nc(-c5ccc(Oc6ccc(F)cc6F)cc5)c(C(N)=O)c4N)C3)ccc2CC1C(=O)NC1CCCc2ccccc21)C(C)(C)C

> <Shape>
0.210

> <Color>
0.074

> <Negative vol penalty>
0.000

$$$$

  -OEChem-04052301313D

 89 98  0     1  0  0  0  0  0999 V2000
  -30.7213  -34.9978   19.5505 C   0  0  0  0  0  0  0  0  0  0  0  0
  -30.5118  -33.6441   19.3074 C   0  0  0  0  0  0  0  0  0  0  0  0
  -22.7101  -11.6282   18.9341 C   0  0  0  0  0  0  0  0  0  0  0  0
  -23.0447  -10.0472   20.7300 C   0  0  0  0  0  0  0  0  0  0  0  0
  -30.2672  -35.5701   20.7379 C   0  0  0  0  0  0  0  0  0  0  0  0
  -29.8489  -32.8617   20.2523 C   0  0  0  0  0  0  0  0  0  0  0  0
  -26.0791  -28.1629   19.1496 C   0  0  0  0  0  0  0  0  0  0  0  0
  -21.6815  -10.8344   18.4269 C   0  0  0  0  0  0  0  0  0  0  0  0
  -22.0160   -9.2533   20.2229 C   0  0  0  0  0  0  0  0  0  0  0  0
  -26.2738  -26.7824   19.1569 C   0  0  0  0  0  0  0  0  0  0  0  0
  -18.6367   -9.2446   20.2451 C   0  0  0  0  0  0  0  0  0  0  0  0
  -17.7027   -8.7406   21.1502 C   0  0  0  0  0  0  0  0  0  0  0  0
  -25.4417  -26.6831   21.4190 C   0  0  0  0  0  0  0  0  0  0  0  0
  -27.7017  -20.0053   20.0976 C   0  0  0  0  0  0  0  0  0  0  0  0
  -28.7670  -20.2702   22.2497 C   0  0  0  0  0  0  0  0  0  0  0  0
  -18.3015   -6.4881   20.5139 C   0  0  0  0  0  0  0  0  0  0  0  0
  -23.3918  -11.2346   20.0856 C   0  0  0  0  0  0  0  0  0  0  0  0
  -29.5464  -18.5733   20.7167 C   0  0  0  0  0  0  0  0  0  0  0  0
  -24.3407  -13.0963   21.5489 C   0  0  0  0  0  0  0  0  0  0  0  0
  -29.5899  -34.7964   21.6936 C   0  0  0  0  0  0  0  0  0  0  0  0
  -25.5735  -28.8165   20.2826 C   0  0  0  0  0  0  0  0  0  0  0  0
  -29.3865  -33.4239   21.4543 C   0  0  0  0  0  0  0  0  0  0  0  0
  -25.2390  -28.0717   21.4226 C   0  0  0  0  0  0  0  0  0  0  0  0
  -27.7970  -20.6592   21.3260 C   0  0  0  0  0  0  0  0  0  0  0  0
  -28.5764  -18.9623   19.7929 C   0  0  0  0  0  0  0  0  0  0  0  0
  -21.3344   -9.6470   19.0713 C   0  0  0  0  0  0  0  0  0  0  0  0
  -25.9578  -26.0427   20.2927 C   0  0  0  0  0  0  0  0  0  0  0  0
  -19.4030   -8.3703   19.4743 C   0  0  0  0  0  0  0  0  0  0  0  0
  -17.5351   -7.3624   21.2847 C   0  0  0  0  0  0  0  0  0  0  0  0
  -19.2355   -6.9921   19.6088 C   0  0  0  0  0  0  0  0  0  0  0  0
  -29.6417  -19.2272   21.9451 C   0  0  0  0  0  0  0  0  0  0  0  0
  -24.4549  -12.0539   20.6097 C   0  0  0  0  0  0  0  0  0  0  0  0
  -25.6256  -13.5531   21.7128 C   0  0  0  0  0  0  0  0  0  0  0  0
  -29.4455  -18.2281   17.5299 C   0  0  0  0  0  0  0  0  0  0  0  0
  -27.3109  -22.8926   21.2915 C   0  0  0  0  0  0  0  0  0  0  0  0
  -30.4717  -17.4610   20.3796 C   0  0  0  0  0  0  0  0  0  0  0  0
  -23.1772  -13.6061   22.2138 C   0  0  0  0  0  0  0  0  0  0  0  0
  -26.6699  -31.0519   22.2586 C   0  0  0  0  0  0  0  0  0  0  0  0
  -23.6721  -30.8848   23.4865 C   0  0  0  0  0  0  0  0  0  0  0  0
  -20.8238  -29.0599   23.9380 C   0  0  0  0  0  0  0  0  0  0  0  0
  -30.5493  -15.0866   19.6872 C   0  0  0  0  0  0  0  0  0  0  0  0
  -29.1593  -35.4492   22.9832 C   0  0  0  0  0  0  0  0  0  0  0  0
  -25.3442  -30.3026   20.2494 C   0  0  0  0  0  0  0  0  0  0  0  0
  -24.6744  -28.7228   22.6578 C   0  0  0  0  0  0  0  0  0  0  0  0
  -28.8222  -17.5343   16.3399 C   0  0  0  0  0  0  0  0  0  0  0  0
  -28.1352  -34.6323   23.7670 C   0  0  0  0  0  0  0  0  0  0  0  0
  -27.6346  -16.8085   16.9398 C   0  0  0  0  0  0  0  0  0  0  0  0
  -30.0373  -11.6191   20.1473 C   0  0  0  0  0  0  0  0  0  0  0  0
  -28.5635  -33.1702   23.8426 C   0  0  0  0  0  0  0  0  0  0  0  0
  -28.5305  -11.5063   20.3943 C   0  0  0  0  0  0  0  0  0  0  0  0
  -27.2157  -17.7070   18.0846 C   0  0  0  0  0  0  0  0  0  0  0  0
  -30.3626  -12.6849   19.1017 C   0  0  0  0  0  0  0  0  0  0  0  0
  -28.2770  -13.8921   19.6022 C   0  0  0  0  0  0  0  0  0  0  0  0
  -28.6497  -32.5476   22.4439 C   0  0  1  0  0  0  0  0  0  0  0  0
  -25.3066  -30.9326   21.6383 C   0  0  1  0  0  0  0  0  0  0  0  0
  -27.9025  -12.8813   20.6982 C   0  0  1  0  0  0  0  0  0  0  0  0
  -18.5602  -29.1756   25.0150 C   0  0  0  0  0  0  0  0  0  0  0  0
  -24.9515  -30.4294   26.2188 C   0  0  0  0  0  0  0  0  0  0  0  0
  -22.7312  -29.6207   27.0462 C   0  0  0  0  0  0  0  0  0  0  0  0
  -22.9786  -31.9662   26.2338 C   0  0  0  0  0  0  0  0  0  0  0  0
  -19.4432  -28.7376   21.3401 C   0  0  0  0  0  0  0  0  0  0  0  0
  -26.4510  -24.0914   21.5596 C   0  0  0  0  0  0  0  0  0  1  0  0
  -23.0025  -30.0674   24.5647 C   0  0  1  0  0  0  0  0  0  0  0  0
  -19.3602  -29.4126   23.7435 C   0  0  2  0  0  0  0  0  0  0  0  0
  -23.4284  -30.5086   25.9934 C   0  0  0  0  0  0  0  0  0  0  0  0
  -25.7130  -11.8598   20.2052 N   0  0  0  0  0  0  0  0  0  0  0  0
  -26.9157  -21.7098   21.6327 N   0  0  0  0  0  0  0  0  0  0  0  0
  -26.4011  -12.7866   20.8935 N   0  0  0  0  0  0  0  0  0  0  0  0
  -28.4567  -18.3111   18.5296 N   0  0  0  0  0  0  0  0  0  0  0  0
  -24.4742  -30.1792   22.5784 N   0  0  0  0  0  0  0  0  0  0  0  0
  -29.7399  -13.9583   19.4675 N   0  0  0  0  0  0  0  0  0  0  0  0
  -26.1564  -14.5317   22.4763 N   0  0  0  0  0  0  0  0  0  0  0  0
  -21.9354  -13.0216   21.9297 N   0  0  0  0  0  0  0  0  0  0  0  0
  -29.8634  -16.2434   20.0736 N   0  0  0  0  0  0  0  0  0  0  0  0
  -27.3272  -32.2278   21.9507 N   0  0  0  0  0  0  0  0  0  0  0  0
  -21.5681  -30.1580   24.3140 N   0  0  0  0  0  0  0  0  0  0  0  0
  -18.7682  -28.5849   22.6547 N   0  3  0  0  0  0  0  0  0  0  0  0
  -30.5890  -18.6599   17.5146 O   0  0  0  0  0  0  0  0  0  0  0  0
  -31.6802  -17.6765   20.3504 O   0  0  0  0  0  0  0  0  0  0  0  0
  -23.2347  -14.5626   23.0232 O   0  0  0  0  0  0  0  0  0  0  0  0
  -27.0935  -30.1450   22.9655 O   0  0  0  0  0  0  0  0  0  0  0  0
  -23.4846  -32.1033   23.4470 O   0  0  0  0  0  0  0  0  0  0  0  0
  -21.2623  -27.9232   23.7763 O   0  0  0  0  0  0  0  0  0  0  0  0
  -31.7798  -15.0572   19.5855 O   0  0  0  0  0  0  0  0  0  0  0  0
  -20.3305   -8.8722   18.5768 O   0  0  0  0  0  0  0  0  0  0  0  0
  -26.1475  -24.6952   20.3028 O   0  0  0  0  0  0  0  0  0  1  0  0
  -16.6392   -6.8785   22.1550 F   0  0  0  0  0  0  0  0  0  0  0  0
  -19.9697   -6.1473   18.8719 F   0  0  0  0  0  0  0  0  0  0  0  0
  -30.8269  -18.7803   23.1203 Cl  0  0  0  0  0  0  0  0  0  0  0  0
  1  2  1  0  0  0  0
  1  5  2  0  0  0  0
  2  6  2  0  0  0  0
  3  8  2  0  0  0  0
  3 17  1  0  0  0  0
  4  9  1  0  0  0  0
  4 17  2  0  0  0  0
  5 20  1  0  0  0  0
  6 22  1  0  0  0  0
  7 10  2  0  0  0  0
  7 21  1  0  0  0  0
  8 26  1  0  0  0  0
  9 26  2  0  0  0  0
 10 27  1  0  0  0  0
 11 12  2  0  0  0  0
 11 28  1  0  0  0  0
 12 29  1  0  0  0  0
 13 23  1  0  0  0  0
 13 27  2  0  0  0  0
 14 24  2  0  0  0  0
 14 25  1  0  0  0  0
 15 24  1  0  0  0  0
 15 31  2  0  0  0  0
 16 29  2  0  0  0  0
 16 30  1  0  0  0  0
 17 32  1  0  0  0  0
 18 25  2  0  0  0  0
 18 31  1  0  0  0  0
 18 36  1  0  0  0  0
 19 32  1  0  0  0  0
 19 33  2  0  0  0  0
 19 37  1  0  0  0  0
 20 22  2  0  0  0  0
 20 42  1  0  0  0  0
 21 23  2  0  0  0  0
 21 43  1  0  0  0  0
 22 54  1  0  0  0  0
 23 44  1  0  0  0  0
 24 67  1  0  0  0  0
 25 69  1  0  0  0  0
 26 85  1  0  0  0  0
 27 86  1  0  0  0  0
 28 30  2  0  0  0  0
 28 85  1  0  0  0  0
 29 87  1  0  0  0  0
 30 88  1  0  0  0  0
 31 89  1  0  0  0  0
 32 66  2  0  0  0  0
 33 68  1  0  0  0  0
 33 72  1  0  0  0  0
 34 45  1  0  0  0  0
 34 69  1  0  0  0  0
 34 78  2  0  0  0  0
 35 62  1  0  0  0  0
 35 67  2  0  0  0  0
 36 74  1  0  0  0  0
 36 79  2  0  0  0  0
 37 73  1  0  0  0  0
 37 80  2  0  0  0  0
 38 55  1  0  0  0  0
 38 75  1  0  0  0  0
 38 81  2  0  0  0  0
 39 63  1  0  0  0  0
 39 70  1  0  0  0  0
 39 82  2  0  0  0  0
 40 64  1  0  0  0  0
 40 76  1  0  0  0  0
 40 83  2  0  0  0  0
 41 71  1  0  0  0  0
 41 74  1  0  0  0  0
 41 84  2  0  0  0  0
 42 46  1  0  0  0  0
 43 55  1  0  0  0  0
 44 70  1  0  0  0  0
 45 47  1  0  0  0  0
 46 49  1  0  0  0  0
 47 51  1  0  0  0  0
 48 50  1  0  0  0  0
 48 52  1  0  0  0  0
 49 54  1  0  0  0  0
 50 56  1  0  0  0  0
 51 69  1  0  0  0  0
 52 71  1  0  0  0  0
 53 56  1  0  0  0  0
 53 71  1  0  0  0  0
 54 75  1  0  0  0  0
 55 70  1  0  0  0  0
 56 68  1  0  0  0  0
 57 64  1  0  0  0  0
 58 65  1  0  0  0  0
 59 65  1  0  0  0  0
 60 65  1  0  0  0  0
 61 77  1  0  0  0  0
 62 86  1  0  0  0  0
 63 65  1  0  0  0  0
 63 76  1  0  0  0  0
 64 77  1  0  0  0  0
 66 68  1  0  0  0  0
M  CHG  1  77   1
M  ISO  4  41 100  62 101  74 100  86 101
M  END
> <Batch ID>
0112

> <Smiles>
CNC(C)C(=O)NC(C(=O)N1Cc2cc([101O:1][101CH:1]=CNc3cc(Cl)c(C(=O)[100NH:0][100C:0](=O)N4CCCC(n5nc(-c6ccc(Oc7ccc(F)cc7F)cc6)c(C(N)=O)c5N)C4)c(N4CCCC4=O)c3)ccc2CC1C(=O)NC1CCCc2ccccc21)C(C)(C)C

> <Shape>
0.271

> <Color>
0.121

> <Negative vol penalty>
0.000

$$$$

  -OEChem-04052301313D

 85 93  0     1  0  0  0  0  0999 V2000
  -26.1563  -35.6714   21.8313 C   0  0  0  0  0  0  0  0  0  0  0  0
  -26.6859  -34.3850   21.8420 C   0  0  0  0  0  0  0  0  0  0  0  0
  -22.9818  -19.8087   22.7992 C   0  0  0  0  0  0  0  0  0  0  0  0
  -21.1366  -18.7005   21.7019 C   0  0  0  0  0  0  0  0  0  0  0  0
  -24.8656  -35.8966   22.3082 C   0  0  0  0  0  0  0  0  0  0  0  0
  -25.9254  -33.3231   22.3305 C   0  0  0  0  0  0  0  0  0  0  0  0
  -26.1624  -29.2328   19.3542 C   0  0  0  0  0  0  0  0  0  0  0  0
  -22.0825  -20.6116   23.5008 C   0  0  0  0  0  0  0  0  0  0  0  0
  -20.2372  -19.5033   22.4035 C   0  0  0  0  0  0  0  0  0  0  0  0
  -27.3086  -28.4445   19.4455 C   0  0  0  0  0  0  0  0  0  0  0  0
  -18.9039  -19.6227   25.5065 C   0  0  0  0  0  0  0  0  0  0  0  0
  -17.7932  -19.0021   26.0782 C   0  0  0  0  0  0  0  0  0  0  0  0
  -26.1207  -26.8915   20.8584 C   0  0  0  0  0  0  0  0  0  0  0  0
  -16.3319  -20.3908   24.7465 C   0  0  0  0  0  0  0  0  0  0  0  0
  -30.5148  -19.8359   20.5232 C   0  0  0  0  0  0  0  0  0  0  0  0
  -29.9388  -19.7816   18.3599 C   0  0  0  0  0  0  0  0  0  0  0  0
  -22.5089  -18.8532   21.8997 C   0  0  0  0  0  0  0  0  0  0  0  0
  -30.2837  -18.5190   20.1921 C   0  0  0  0  0  0  0  0  0  0  0  0
  -23.9513  -16.7749   21.5713 C   0  0  0  0  0  0  0  0  0  0  0  0
  -24.0854  -34.8355   22.7938 C   0  0  0  0  0  0  0  0  0  0  0  0
  -24.9879  -28.8615   20.0243 C   0  0  0  0  0  0  0  0  0  0  0  0
  -24.6236  -33.5346   22.8155 C   0  0  0  0  0  0  0  0  0  0  0  0
  -24.9601  -27.6755   20.7719 C   0  0  0  0  0  0  0  0  0  0  0  0
  -29.9191  -18.4846   18.8235 C   0  0  0  0  0  0  0  0  0  0  0  0
  -20.7102  -20.4588   23.3030 C   0  0  0  0  0  0  0  0  0  0  0  0
  -27.2888  -27.2751   20.2001 C   0  0  0  0  0  0  0  0  0  0  0  0
  -18.7286  -20.6273   24.5548 C   0  0  0  0  0  0  0  0  0  0  0  0
  -16.5072  -19.3861   25.6982 C   0  0  0  0  0  0  0  0  0  0  0  0
  -17.4426  -21.0113   24.1748 C   0  0  0  0  0  0  0  0  0  0  0  0
  -23.4375  -18.0240   21.1743 C   0  0  0  0  0  0  0  0  0  0  0  0
  -24.7840  -16.4039   20.5439 C   0  0  0  0  0  0  0  0  0  0  0  0
  -30.4021  -17.4364   21.0911 C   0  0  0  0  0  0  0  0  0  0  0  0
  -31.2627  -17.3307   22.1617 C   0  0  0  0  0  0  0  0  0  0  0  0
  -23.6985  -16.0177   22.7623 C   0  0  0  0  0  0  0  0  0  0  0  0
  -23.2051  -30.1599   22.3133 C   0  0  0  0  0  0  0  0  0  0  0  0
  -29.3500  -24.3192   19.8379 C   0  0  0  0  0  0  0  0  0  0  0  0
  -21.2399  -27.6632   21.6598 C   0  0  0  0  0  0  0  0  0  0  0  0
  -20.8835  -24.5049   20.4171 C   0  0  0  0  0  0  0  0  0  0  0  0
  -28.6799  -17.4305   16.9408 C   0  0  0  0  0  0  0  0  0  0  0  0
  -22.7130  -35.1354   23.3427 C   0  0  0  0  0  0  0  0  0  0  0  0
  -23.7520  -29.7088   19.8939 C   0  0  0  0  0  0  0  0  0  0  0  0
  -23.7184  -27.2220   21.4937 C   0  0  0  0  0  0  0  0  0  0  0  0
  -21.8343  -33.8966   23.4962 C   0  0  0  0  0  0  0  0  0  0  0  0
  -25.3991  -18.3512   15.9251 C   0  0  0  0  0  0  0  0  0  0  0  0
  -22.6138  -32.7686   24.1645 C   0  0  0  0  0  0  0  0  0  0  0  0
  -24.6347  -18.2555   17.2451 C   0  0  0  0  0  0  0  0  0  0  0  0
  -26.7989  -18.9362   16.1153 C   0  0  0  0  0  0  0  0  0  0  0  0
  -26.8454  -18.1386   18.4576 C   0  0  0  0  0  0  0  0  0  0  0  0
  -23.8206  -32.3530   23.3146 C   0  0  1  0  0  0  0  0  0  0  0  0
  -22.7627  -29.5024   21.0368 C   0  0  1  0  0  0  0  0  0  0  0  0
  -25.4558  -17.5005   18.3052 C   0  0  1  0  0  0  0  0  0  0  0  0
  -31.3598  -16.1586   23.0834 C   0  0  0  0  0  0  0  0  0  0  0  0
  -19.1639  -22.7140   20.0521 C   0  0  0  0  0  0  0  0  0  0  0  0
  -21.3193  -26.9843   24.6335 C   0  0  0  0  0  0  0  0  0  0  0  0
  -20.4096  -24.7210   24.0698 C   0  0  0  0  0  0  0  0  0  0  0  0
  -19.0654  -26.7627   23.5727 C   0  0  0  0  0  0  0  0  0  0  0  0
  -30.3713  -16.1070   18.1908 C   0  0  0  0  0  0  0  0  0  0  0  0
  -21.2870  -24.5529   17.4856 C   0  0  0  0  0  0  0  0  0  0  0  0
  -29.2474  -22.8068   19.9467 C   0  0  0  0  0  0  0  0  0  0  0  0
  -28.2149  -25.1012   20.4690 C   0  0  0  0  0  0  0  0  0  1  0  0
  -30.4462  -22.0923   19.3257 C   0  0  0  0  0  0  0  0  0  0  0  0
  -21.1038  -26.2483   22.1682 C   0  0  1  0  0  0  0  0  0  0  0  0
  -19.8784  -23.9119   19.4461 C   0  0  2  0  0  0  0  0  0  0  0  0
  -20.4986  -26.1884   23.5991 C   0  0  0  0  0  0  0  0  0  0  0  0
  -23.9047  -18.4201   19.9874 N   0  0  0  0  0  0  0  0  0  0  0  0
  -30.3025  -20.5944   19.4017 N   0  0  0  0  0  0  0  0  0  0  0  0
  -24.7210  -17.4141   19.6298 N   0  0  0  0  0  0  0  0  0  0  0  0
  -22.5375  -28.0878   21.3408 N   0  0  0  0  0  0  0  0  0  0  0  0
  -27.5291  -18.2099   17.1639 N   0  0  0  0  0  0  0  0  0  0  0  0
  -25.5566  -15.3154   20.3424 N   0  0  0  0  0  0  0  0  0  0  0  0
  -22.8161  -16.5453   23.7148 N   0  0  0  0  0  0  0  0  0  0  0  0
  -23.3968  -31.5242   22.2064 N   0  0  0  0  0  0  0  0  0  0  0  0
  -20.3325  -25.5257   21.1625 N   0  0  0  0  0  0  0  0  0  0  0  0
  -29.5817  -17.3317   18.0221 N   0  0  0  0  0  0  0  0  0  0  0  0
  -20.5626  -23.4693   18.1984 N   0  3  0  0  0  0  0  0  0  0  0  0
  -24.2517  -14.9137   22.9830 O   0  0  0  0  0  0  0  0  0  0  0  0
  -23.3596  -29.4800   23.3211 O   0  0  0  0  0  0  0  0  0  0  0  0
  -30.2894  -24.8801   19.2760 O   0  0  0  0  0  0  0  0  0  0  0  0
  -20.2312  -28.3636   21.5431 O   0  0  0  0  0  0  0  0  0  0  0  0
  -22.0404  -24.1003   20.5080 O   0  0  0  0  0  0  0  0  0  0  0  0
  -28.8741  -16.8466   15.8679 O   0  0  0  0  0  0  0  0  0  0  0  0
  -19.8323  -21.2419   23.9876 O   0  0  0  0  0  0  0  0  0  0  0  0
  -28.4064  -26.5041   20.2914 O   0  0  0  0  0  0  0  0  0  1  0  0
  -15.4407  -18.7891   26.2462 F   0  0  0  0  0  0  0  0  0  0  0  0
  -17.2679  -21.9750   23.2602 F   0  0  0  0  0  0  0  0  0  0  0  0
  1  2  1  0  0  0  0
  1  5  2  0  0  0  0
  2  6  2  0  0  0  0
  3  8  2  0  0  0  0
  3 17  1  0  0  0  0
  4  9  1  0  0  0  0
  4 17  2  0  0  0  0
  5 20  1  0  0  0  0
  6 22  1  0  0  0  0
  7 10  2  0  0  0  0
  7 21  1  0  0  0  0
  8 25  1  0  0  0  0
  9 25  2  0  0  0  0
 10 26  1  0  0  0  0
 11 12  2  0  0  0  0
 11 27  1  0  0  0  0
 12 28  1  0  0  0  0
 13 23  1  0  0  0  0
 13 26  2  0  0  0  0
 14 28  2  0  0  0  0
 14 29  1  0  0  0  0
 15 18  2  0  0  0  0
 15 66  1  0  0  0  0
 16 24  2  0  0  0  0
 16 66  1  0  0  0  0
 17 30  1  0  0  0  0
 18 24  1  0  0  0  0
 18 32  1  0  0  0  0
 19 30  1  0  0  0  0
 19 31  2  0  0  0  0
 19 34  1  0  0  0  0
 20 22  2  0  0  0  0
 20 40  1  0  0  0  0
 21 23  2  0  0  0  0
 21 41  1  0  0  0  0
 22 49  1  0  0  0  0
 23 42  1  0  0  0  0
 24 74  1  0  0  0  0
 25 82  1  0  0  0  0
 26 83  1  0  0  0  0
 27 29  2  0  0  0  0
 27 82  1  0  0  0  0
 28 84  1  0  0  0  0
 29 85  1  0  0  0  0
 30 65  2  0  0  0  0
 31 67  1  0  0  0  0
 31 70  1  0  0  0  0
 32 33  2  0  0  0  0
 33 52  1  0  0  0  0
 34 71  1  0  0  0  0
 34 76  2  0  0  0  0
 35 50  1  0  0  0  0
 35 72  1  0  0  0  0
 35 77  2  0  0  0  0
 36 59  1  0  0  0  0
 36 60  1  0  0  0  0
 36 78  2  0  0  0  0
 37 62  1  0  0  0  0
 37 68  1  0  0  0  0
 37 79  2  0  0  0  0
 38 63  1  0  0  0  0
 38 73  1  0  0  0  0
 38 80  2  0  0  0  0
 39 69  1  0  0  0  0
 39 74  1  0  0  0  0
 39 81  2  0  0  0  0
 40 43  1  0  0  0  0
 41 50  1  0  0  0  0
 42 68  1  0  0  0  0
 43 45  1  0  0  0  0
 44 46  1  0  0  0  0
 44 47  1  0  0  0  0
 45 49  1  0  0  0  0
 46 51  1  0  0  0  0
 47 69  1  0  0  0  0
 48 51  1  0  0  0  0
 48 69  1  0  0  0  0
 49 72  1  0  0  0  0
 50 68  1  0  0  0  0
 51 67  1  0  0  0  0
 53 63  1  0  0  0  0
 54 64  1  0  0  0  0
 55 64  1  0  0  0  0
 56 64  1  0  0  0  0
 57 74  1  0  0  0  0
 58 75  1  0  0  0  0
 59 61  1  0  0  0  0
 60 83  1  0  0  0  0
 61 66  1  0  0  0  0
 62 64  1  0  0  0  0
 62 73  1  0  0  0  0
 63 75  1  0  0  0  0
 65 67  1  0  0  0  0
M  CHG  1  75   1
M  ISO  4  39 100  60 101  74 100  83 101
M  END
> <Batch ID>
0112

> <Smiles>
CC=Cc1cn(CCC(=O)[101CH2:1][101O:1]c2ccc3c(c2)CN(C(=O)C(NC(=O)C(C)NC)C(C)(C)C)C(C(=O)NC2CCCc4ccccc42)C3)cc1[100N:0](C)[100C:0](=O)N1CCCC(n2nc(-c3ccc(Oc4ccc(F)cc4F)cc3)c(C(N)=O)c2N)C1

> <Shape>
0.192

> <Color>
0.101

> <Negative vol penalty>
0.000

$$$$

  -OEChem-04052301313D

 82 90  0     1  0  0  0  0  0999 V2000
  -19.8129  -24.7516   20.6653 C   0  0  0  0  0  0  0  0  0  0  0  0
  -21.1839  -24.6117   20.8551 C   0  0  0  0  0  0  0  0  0  0  0  0
  -26.5924  -13.3251   19.5767 C   0  0  0  0  0  0  0  0  0  0  0  0
  -24.4873  -13.8999   20.6136 C   0  0  0  0  0  0  0  0  0  0  0  0
  -19.2787  -25.9983   20.3420 C   0  0  0  0  0  0  0  0  0  0  0  0
  -22.0218  -25.7182   20.7206 C   0  0  0  0  0  0  0  0  0  0  0  0
  -27.1097  -26.8938   23.9201 C   0  0  0  0  0  0  0  0  0  0  0  0
  -26.5333  -12.0589   20.1586 C   0  0  0  0  0  0  0  0  0  0  0  0
  -24.4281  -12.6336   21.1955 C   0  0  0  0  0  0  0  0  0  0  0  0
  -28.4613  -26.7018   23.6369 C   0  0  0  0  0  0  0  0  0  0  0  0
  -23.6149   -9.4937   20.2467 C   0  0  0  0  0  0  0  0  0  0  0  0
  -22.3991   -8.8125   20.1906 C   0  0  0  0  0  0  0  0  0  0  0  0
  -30.2094  -26.0477   17.3446 C   0  0  0  0  0  0  0  0  0  0  0  0
  -28.6228  -28.9887   22.8865 C   0  0  0  0  0  0  0  0  0  0  0  0
  -22.3256   -8.7448   22.6046 C   0  0  0  0  0  0  0  0  0  0  0  0
  -25.5694  -14.2457   19.8042 C   0  0  0  0  0  0  0  0  0  0  0  0
  -30.8428  -27.0896   18.0632 C   0  0  0  0  0  0  0  0  0  0  0  0
  -25.1176  -15.9390   17.9505 C   0  0  0  0  0  0  0  0  0  0  0  0
  -20.1093  -27.1226   20.2130 C   0  0  0  0  0  0  0  0  0  0  0  0
  -26.5009  -28.1337   23.6780 C   0  0  0  0  0  0  0  0  0  0  0  0
  -21.4984  -26.9808   20.3940 C   0  0  0  0  0  0  0  0  0  0  0  0
  -27.2640  -29.1947   23.1699 C   0  0  0  0  0  0  0  0  0  0  0  0
  -25.4512  -11.7131   20.9680 C   0  0  0  0  0  0  0  0  0  0  0  0
  -29.2173  -27.7484   23.1172 C   0  0  0  0  0  0  0  0  0  0  0  0
  -24.1863   -9.8004   21.4818 C   0  0  0  0  0  0  0  0  0  0  0  0
  -21.7544   -8.4381   21.3695 C   0  0  0  0  0  0  0  0  0  0  0  0
  -23.5416   -9.4260   22.6607 C   0  0  0  0  0  0  0  0  0  0  0  0
  -25.6301  -15.5541   19.2039 C   0  0  0  0  0  0  0  0  0  0  0  0
  -30.2400  -24.9443   18.1652 C   0  0  0  0  0  0  0  0  0  0  0  0
  -25.4296  -17.2725   17.8467 C   0  0  0  0  0  0  0  0  0  0  0  0
  -31.2151  -26.5486   19.2718 C   0  0  0  0  0  0  0  0  0  0  0  0
  -31.0675  -28.4433   17.6475 C   0  0  0  0  0  0  0  0  0  0  0  0
  -29.7279  -23.6557   17.8882 C   0  0  0  0  0  0  0  0  0  0  0  0
  -29.7449  -22.5653   18.7241 C   0  0  0  0  0  0  0  0  0  0  0  0
  -24.4216  -15.1606   16.9679 C   0  0  0  0  0  0  0  0  0  0  0  0
  -29.1570  -21.2819   18.2906 C   0  0  0  0  0  0  0  0  0  0  0  0
  -24.1381  -29.1454   21.8080 C   0  0  0  0  0  0  0  0  0  0  0  0
  -24.6110  -31.9414   23.3831 C   0  0  0  0  0  0  0  0  0  0  0  0
  -26.7249  -33.9399   25.1675 C   0  0  0  0  0  0  0  0  0  0  0  0
  -19.4914  -28.4398   19.8159 C   0  0  0  0  0  0  0  0  0  0  0  0
  -25.0484  -28.3325   24.0140 C   0  0  0  0  0  0  0  0  0  0  0  0
  -26.6627  -30.5511   22.9110 C   0  0  0  0  0  0  0  0  0  0  0  0
  -20.4041  -29.6389   20.0601 C   0  0  0  0  0  0  0  0  0  0  0  0
  -27.1645  -20.5382   21.2754 C   0  0  0  0  0  0  0  0  0  0  0  0
  -21.8109  -29.3528   19.5445 C   0  0  0  0  0  0  0  0  0  0  0  0
  -26.5837  -19.1752   20.9086 C   0  0  0  0  0  0  0  0  0  0  0  0
  -28.5723  -20.7298   20.7133 C   0  0  0  0  0  0  0  0  0  0  0  0
  -28.0807  -19.1432   18.8744 C   0  0  0  0  0  0  0  0  0  0  0  0
  -22.4370  -28.1625   20.2812 C   0  0  1  0  0  0  0  0  0  0  0  0
  -24.4099  -29.4857   23.2460 C   0  0  1  0  0  0  0  0  0  0  0  0
  -26.6464  -18.9475   19.3899 C   0  0  1  0  0  0  0  0  0  0  0  0
  -26.8398  -36.1829   26.2868 C   0  0  0  0  0  0  0  0  0  0  0  0
  -24.8949  -33.2840   20.6579 C   0  0  0  0  0  0  0  0  0  0  0  0
  -25.9270  -35.2513   21.8123 C   0  0  0  0  0  0  0  0  0  0  0  0
  -23.5781  -34.5928   22.3335 C   0  0  0  0  0  0  0  0  0  0  0  0
  -27.2234  -32.7211   27.8180 C   0  0  0  0  0  0  0  0  0  0  0  0
  -32.1682  -26.3342   21.5677 C   0  0  0  0  0  0  0  0  0  0  0  0
  -30.9427  -26.2485   22.4619 C   0  0  0  0  0  0  0  0  0  1  0  0
  -25.4827  -33.1551   23.1686 C   0  0  1  0  0  0  0  0  0  0  0  0
  -26.5333  -34.7041   26.4651 C   0  0  2  0  0  0  0  0  0  0  0  0
  -24.9818  -34.0448   21.9960 C   0  0  0  0  0  0  0  0  0  0  0  0
  -26.2229  -16.5617   19.8500 N   0  0  0  0  0  0  0  0  0  0  0  0
  -30.6991  -28.9283   16.4861 N   0  0  0  0  0  0  0  0  0  0  0  0
  -26.0849  -17.5928   18.9992 N   0  0  0  0  0  0  0  0  0  0  0  0
  -28.6186  -20.4496   19.2704 N   0  0  0  0  0  0  0  0  0  0  0  0
  -25.2371  -30.6940   23.2498 N   0  0  0  0  0  0  0  0  0  0  0  0
  -25.2047  -18.1906   16.8829 N   0  0  0  0  0  0  0  0  0  0  0  0
  -24.1839  -13.8054   17.2349 N   0  0  0  0  0  0  0  0  0  0  0  0
  -31.8648  -27.0852   20.3711 N   0  0  0  0  0  0  0  0  0  0  0  0
  -22.9023  -28.5666   21.5907 N   0  0  0  0  0  0  0  0  0  0  0  0
  -25.5491  -33.8422   24.4539 N   0  0  0  0  0  0  0  0  0  0  0  0
  -27.4322  -34.1621   27.5230 N   0  3  0  0  0  0  0  0  0  0  0  0
  -24.0367  -15.6484   15.8782 O   0  0  0  0  0  0  0  0  0  0  0  0
  -29.1829  -21.0225   17.0861 O   0  0  0  0  0  0  0  0  0  0  0  0
  -24.9862  -29.3911   20.9582 O   0  0  0  0  0  0  0  0  0  0  0  0
  -23.4200  -32.0945   23.6657 O   0  0  0  0  0  0  0  0  0  0  0  0
  -27.8100  -33.4791   24.8198 O   0  0  0  0  0  0  0  0  0  0  0  0
  -30.8512  -25.2413   19.3420 O   0  0  0  0  0  0  0  0  0  0  0  0
  -25.3931  -10.4774   21.5358 O   0  0  0  0  0  0  0  0  0  0  0  0
  -30.5365  -27.5635   22.8393 O   0  0  0  0  0  0  0  0  0  1  0  0
  -20.5860   -7.7853   21.3155 F   0  0  0  0  0  0  0  0  0  0  0  0
  -24.0850   -9.7189   23.8501 F   0  0  0  0  0  0  0  0  0  0  0  0
  1  2  1  0  0  0  0
  1  5  2  0  0  0  0
  2  6  2  0  0  0  0
  3  8  2  0  0  0  0
  3 16  1  0  0  0  0
  4  9  1  0  0  0  0
  4 16  2  0  0  0  0
  5 19  1  0  0  0  0
  6 21  1  0  0  0  0
  7 10  2  0  0  0  0
  7 20  1  0  0  0  0
  8 23  1  0  0  0  0
  9 23  2  0  0  0  0
 10 24  1  0  0  0  0
 11 12  2  0  0  0  0
 11 25  1  0  0  0  0
 12 26  1  0  0  0  0
 13 17  1  0  0  0  0
 13 29  2  0  0  0  0
 14 22  1  0  0  0  0
 14 24  2  0  0  0  0
 15 26  2  0  0  0  0
 15 27  1  0  0  0  0
 16 28  1  0  0  0  0
 17 31  2  0  0  0  0
 17 32  1  0  0  0  0
 18 28  1  0  0  0  0
 18 30  2  0  0  0  0
 18 35  1  0  0  0  0
 19 21  2  0  0  0  0
 19 40  1  0  0  0  0
 20 22  2  0  0  0  0
 20 41  1  0  0  0  0
 21 49  1  0  0  0  0
 22 42  1  0  0  0  0
 23 79  1  0  0  0  0
 24 80  1  0  0  0  0
 25 27  2  0  0  0  0
 25 79  1  0  0  0  0
 26 81  1  0  0  0  0
 27 82  1  0  0  0  0
 28 62  2  0  0  0  0
 29 33  1  0  0  0  0
 29 78  1  0  0  0  0
 30 64  1  0  0  0  0
 30 67  1  0  0  0  0
 31 69  1  0  0  0  0
 31 78  1  0  0  0  0
 32 63  2  0  0  0  0
 33 34  2  0  0  0  0
 34 36  1  0  0  0  0
 35 68  1  0  0  0  0
 35 73  2  0  0  0  0
 36 65  1  0  0  0  0
 36 74  2  0  0  0  0
 37 50  1  0  0  0  0
 37 70  1  0  0  0  0
 37 75  2  0  0  0  0
 38 59  1  0  0  0  0
 38 66  1  0  0  0  0
 38 76  2  0  0  0  0
 39 60  1  0  0  0  0
 39 71  1  0  0  0  0
 39 77  2  0  0  0  0
 40 43  1  0  0  0  0
 41 50  1  0  0  0  0
 42 66  1  0  0  0  0
 43 45  1  0  0  0  0
 44 46  1  0  0  0  0
 44 47  1  0  0  0  0
 45 49  1  0  0  0  0
 46 51  1  0  0  0  0
 47 65  1  0  0  0  0
 48 51  1  0  0  0  0
 48 65  1  0  0  0  0
 49 70  1  0  0  0  0
 50 66  1  0  0  0  0
 51 64  1  0  0  0  0
 52 60  1  0  0  0  0
 53 61  1  0  0  0  0
 54 61  1  0  0  0  0
 55 61  1  0  0  0  0
 56 72  1  0  0  0  0
 57 58  1  0  0  0  0
 57 69  1  0  0  0  0
 58 80  1  0  0  0  0
 59 61  1  0  0  0  0
 59 71  1  0  0  0  0
 60 72  1  0  0  0  0
 62 64  1  0  0  0  0
M  CHG  1  72   1
M  ISO  4  34 100  36 100  58 101  80 101
M  END
> <Batch ID>
0112

> <Smiles>
CNC(C)C(=O)NC(C(=O)N1Cc2cc([101O:1][101CH2:1]CNc3oc(C=[100CH:0][100C:0](=O)N4CCCC(n5nc(-c6ccc(Oc7ccc(F)cc7F)cc6)c(C(N)=O)c5N)C4)cc3C=N)ccc2CC1C(=O)NC1CCCc2ccccc21)C(C)(C)C

> <Shape>
0.255

> <Color>
0.091

> <Negative vol penalty>
0.000

$$$$

  -OEChem-04052301313D

 84 92  0     1  0  0  0  0  0999 V2000
  -26.7676  -38.0280   20.8234 C   0  0  0  0  0  0  0  0  0  0  0  0
  -27.3760  -36.8207   20.4954 C   0  0  0  0  0  0  0  0  0  0  0  0
  -22.4432  -20.3698   18.5564 C   0  0  0  0  0  0  0  0  0  0  0  0
  -21.7155  -20.1219   20.8468 C   0  0  0  0  0  0  0  0  0  0  0  0
  -25.8319  -38.0780   21.8558 C   0  0  0  0  0  0  0  0  0  0  0  0
  -27.0497  -35.6627   21.2004 C   0  0  0  0  0  0  0  0  0  0  0  0
  -26.7372  -29.9645   18.9780 C   0  0  0  0  0  0  0  0  0  0  0  0
  -21.2178  -19.8722   18.1132 C   0  0  0  0  0  0  0  0  0  0  0  0
  -20.4900  -19.6243   20.4036 C   0  0  0  0  0  0  0  0  0  0  0  0
  -27.6351  -28.8982   19.0009 C   0  0  0  0  0  0  0  0  0  0  0  0
  -19.2671  -16.7002   19.2269 C   0  0  0  0  0  0  0  0  0  0  0  0
  -18.7593  -15.5674   19.8629 C   0  0  0  0  0  0  0  0  0  0  0  0
  -28.2358  -22.0010   19.1027 C   0  0  0  0  0  0  0  0  0  0  0  0
  -26.5177  -28.0069   20.9442 C   0  0  0  0  0  0  0  0  0  0  0  0
  -30.4077  -20.9087   17.7343 C   0  0  0  0  0  0  0  0  0  0  0  0
  -16.7975  -16.8155   20.5194 C   0  0  0  0  0  0  0  0  0  0  0  0
  -22.6921  -20.4945   19.9233 C   0  0  0  0  0  0  0  0  0  0  0  0
  -28.5720  -20.6597   19.2852 C   0  0  0  0  0  0  0  0  0  0  0  0
  -24.2892  -22.3529   20.6328 C   0  0  0  0  0  0  0  0  0  0  0  0
  -25.4869  -36.9182   22.5674 C   0  0  0  0  0  0  0  0  0  0  0  0
  -25.7278  -30.0660   19.9462 C   0  0  0  0  0  0  0  0  0  0  0  0
  -26.1095  -35.6974   22.2442 C   0  0  0  0  0  0  0  0  0  0  0  0
  -25.6067  -29.0741   20.9299 C   0  0  0  0  0  0  0  0  0  0  0  0
  -28.9854  -22.7962   18.2358 C   0  0  0  0  0  0  0  0  0  0  0  0
  -29.6579  -20.1135   18.6011 C   0  0  0  0  0  0  0  0  0  0  0  0
  -20.2412  -19.4995   19.0368 C   0  0  0  0  0  0  0  0  0  0  0  0
  -27.5272  -27.9207   19.9858 C   0  0  0  0  0  0  0  0  0  0  0  0
  -18.5401  -17.8907   19.2372 C   0  0  0  0  0  0  0  0  0  0  0  0
  -17.5245  -15.6250   20.5092 C   0  0  0  0  0  0  0  0  0  0  0  0
  -30.0714  -22.2501   17.5517 C   0  0  0  0  0  0  0  0  0  0  0  0
  -17.3054  -17.9483   19.8834 C   0  0  0  0  0  0  0  0  0  0  0  0
  -23.9579  -21.0079   20.3817 C   0  0  0  0  0  0  0  0  0  0  0  0
  -25.5986  -22.3127   21.0454 C   0  0  0  0  0  0  0  0  0  0  0  0
  -26.7132  -19.1504   19.8164 C   0  0  0  0  0  0  0  0  0  0  0  0
  -27.7644  -19.8590   20.1980 C   0  0  0  0  0  0  0  0  0  0  0  0
  -29.2170  -24.9825   18.8622 C   0  0  0  0  0  0  0  0  0  0  0  0
  -23.4851  -23.5330   20.5046 C   0  0  0  0  0  0  0  0  0  0  0  0
  -24.9924  -32.1756   22.2073 C   0  0  0  0  0  0  0  0  0  0  0  0
  -22.3707  -30.2982   22.5603 C   0  0  0  0  0  0  0  0  0  0  0  0
  -20.9293  -27.2304   22.1629 C   0  0  0  0  0  0  0  0  0  0  0  0
  -29.8176  -18.0118   19.9607 C   0  0  0  0  0  0  0  0  0  0  0  0
  -24.5049  -37.0307   23.7066 C   0  0  0  0  0  0  0  0  0  0  0  0
  -24.7506  -31.2082   19.8917 C   0  0  0  0  0  0  0  0  0  0  0  0
  -24.5282  -29.1261   21.9799 C   0  0  0  0  0  0  0  0  0  0  0  0
  -23.9377  -35.6868   24.1568 C   0  0  0  0  0  0  0  0  0  0  0  0
  -28.7856  -19.4749   23.1991 C   0  0  0  0  0  0  0  0  0  0  0  0
  -25.0550  -34.6592   24.3072 C   0  0  0  0  0  0  0  0  0  0  0  0
  -27.4175  -20.0747   22.8797 C   0  0  0  0  0  0  0  0  0  0  0  0
  -29.0976  -18.2727   22.3131 C   0  0  0  0  0  0  0  0  0  0  0  0
  -27.6275  -19.1692   20.5308 C   0  0  0  0  0  0  0  0  0  0  0  0
  -25.7636  -34.4150   22.9694 C   0  0  1  0  0  0  0  0  0  0  0  0
  -24.0798  -31.4850   21.2336 C   0  0  1  0  0  0  0  0  0  0  0  0
  -27.3068  -20.4066   21.3825 C   0  0  1  0  0  0  0  0  0  0  0  0
  -19.1227  -25.4887   22.1648 C   0  0  0  0  0  0  0  0  0  0  0  0
  -23.0637  -30.1034   25.5254 C   0  0  0  0  0  0  0  0  0  0  0  0
  -21.5073  -28.1492   25.6893 C   0  0  0  0  0  0  0  0  0  0  0  0
  -20.6272  -30.3912   25.0402 C   0  0  0  0  0  0  0  0  0  0  0  0
  -30.8963  -18.1273   17.7573 C   0  0  0  0  0  0  0  0  0  0  0  0
  -20.1127  -27.9079   19.4001 C   0  0  0  0  0  0  0  0  0  0  0  0
  -28.9406  -26.4527   18.7598 C   0  0  0  0  0  0  0  0  0  1  0  0
  -22.0287  -29.0847   23.3907 C   0  0  1  0  0  0  0  0  0  0  0  0
  -19.5890  -26.8146   21.5840 C   0  0  2  0  0  0  0  0  0  0  0  0
  -21.8284  -29.4319   24.8929 C   0  0  0  0  0  0  0  0  0  0  0  0
  -24.9750  -20.1741   20.6152 N   0  0  0  0  0  0  0  0  0  0  0  0
  -28.6473  -24.1481   18.0554 N   0  0  0  0  0  0  0  0  0  0  0  0
  -25.9582  -20.9974   21.0171 N   0  0  0  0  0  0  0  0  0  0  0  0
  -23.6008  -30.2659   21.8883 N   0  0  0  0  0  0  0  0  0  0  0  0
  -28.9299  -18.5867   20.8932 N   0  0  0  0  0  0  0  0  0  0  0  0
  -26.4661  -23.2746   21.4258 N   0  0  0  0  0  0  0  0  0  0  0  0
  -22.1605  -23.3948   20.0679 N   0  0  0  0  0  0  0  0  0  0  0  0
  -24.9643  -33.5546   22.1237 N   0  0  0  0  0  0  0  0  0  0  0  0
  -20.8651  -28.4723   22.7586 N   0  0  0  0  0  0  0  0  0  0  0  0
  -30.0313  -18.7303   18.7689 N   0  0  0  0  0  0  0  0  0  0  0  0
  -19.6863  -26.6709   20.1038 N   0  3  0  0  0  0  0  0  0  0  0  0
  -23.9332  -24.6779   20.7536 O   0  0  0  0  0  0  0  0  0  0  0  0
  -25.6706  -31.5068   22.9783 O   0  0  0  0  0  0  0  0  0  0  0  0
  -21.5725  -31.2370   22.5041 O   0  0  0  0  0  0  0  0  0  0  0  0
  -21.9319  -26.5226   22.0969 O   0  0  0  0  0  0  0  0  0  0  0  0
  -30.3415  -16.9073   20.1508 O   0  0  0  0  0  0  0  0  0  0  0  0
  -19.0453  -19.0142   18.6046 O   0  0  0  0  0  0  0  0  0  0  0  0
  -28.4028  -26.8792   20.0108 O   0  0  0  0  0  0  0  0  0  1  0  0
  -17.0363  -14.5367   21.1186 F   0  0  0  0  0  0  0  0  0  0  0  0
  -30.7969  -23.0062   16.7158 F   0  0  0  0  0  0  0  0  0  0  0  0
  -16.6019  -19.0888   19.8957 F   0  0  0  0  0  0  0  0  0  0  0  0
  1  2  1  0  0  0  0
  1  5  2  0  0  0  0
  2  6  2  0  0  0  0
  3  8  2  0  0  0  0
  3 17  1  0  0  0  0
  4  9  1  0  0  0  0
  4 17  2  0  0  0  0
  5 20  1  0  0  0  0
  6 22  1  0  0  0  0
  7 10  2  0  0  0  0
  7 21  1  0  0  0  0
  8 26  1  0  0  0  0
  9 26  2  0  0  0  0
 10 27  1  0  0  0  0
 11 12  2  0  0  0  0
 11 28  1  0  0  0  0
 12 29  1  0  0  0  0
 13 18  1  0  0  0  0
 13 24  2  0  0  0  0
 14 23  1  0  0  0  0
 14 27  2  0  0  0  0
 15 25  1  0  0  0  0
 15 30  2  0  0  0  0
 16 29  2  0  0  0  0
 16 31  1  0  0  0  0
 17 32  1  0  0  0  0
 18 25  2  0  0  0  0
 18 35  1  0  0  0  0
 19 32  1  0  0  0  0
 19 33  2  0  0  0  0
 19 37  1  0  0  0  0
 20 22  2  0  0  0  0
 20 42  1  0  0  0  0
 21 23  2  0  0  0  0
 21 43  1  0  0  0  0
 22 51  1  0  0  0  0
 23 44  1  0  0  0  0
 24 30  1  0  0  0  0
 24 65  1  0  0  0  0
 25 73  1  0  0  0  0
 26 80  1  0  0  0  0
 27 81  1  0  0  0  0
 28 31  2  0  0  0  0
 28 80  1  0  0  0  0
 29 82  1  0  0  0  0
 30 83  1  0  0  0  0
 31 84  1  0  0  0  0
 32 64  2  0  0  0  0
 33 66  1  0  0  0  0
 33 69  1  0  0  0  0
 34 35  2  0  0  0  0
 36 60  1  0  0  0  0
 36 65  2  0  0  0  0
 37 70  1  0  0  0  0
 37 75  2  0  0  0  0
 38 52  1  0  0  0  0
 38 71  1  0  0  0  0
 38 76  2  0  0  0  0
 39 61  1  0  0  0  0
 39 67  1  0  0  0  0
 39 77  2  0  0  0  0
 40 62  1  0  0  0  0
 40 72  1  0  0  0  0
 40 78  2  0  0  0  0
 41 68  1  0  0  0  0
 41 73  1  0  0  0  0
 41 79  2  0  0  0  0
 42 45  1  0  0  0  0
 43 52  1  0  0  0  0
 44 67  1  0  0  0  0
 45 47  1  0  0  0  0
 46 48  1  0  0  0  0
 46 49  1  0  0  0  0
 47 51  1  0  0  0  0
 48 53  1  0  0  0  0
 49 68  1  0  0  0  0
 50 53  1  0  0  0  0
 50 68  1  0  0  0  0
 51 71  1  0  0  0  0
 52 67  1  0  0  0  0
 53 66  1  0  0  0  0
 54 62  1  0  0  0  0
 55 63  1  0  0  0  0
 56 63  1  0  0  0  0
 57 63  1  0  0  0  0
 58 73  1  0  0  0  0
 59 74  1  0  0  0  0
 60 81  1  0  0  0  0
 61 63  1  0  0  0  0
 61 72  1  0  0  0  0
 62 74  1  0  0  0  0
 64 66  1  0  0  0  0
M  CHG  1  74   1
M  ISO  4  41 100  60 101  73 100  81 101
M  END
> <Batch ID>
0112

> <Smiles>
C=Cc1cc(NC=[101CH:1][101O:1]c2ccc3c(c2)CN(C(=O)C(NC(=O)C(C)NC)C(C)(C)C)C(C(=O)NC2CCCc4ccccc42)C3)c(F)cc1[100N:0](C)[100C:0](=O)N1CCCC(n2nc(-c3ccc(Oc4ccc(F)cc4F)cc3)c(C(N)=O)c2N)C1

> <Shape>
0.227

> <Color>
0.065

> <Negative vol penalty>
0.000

$$$$

  -OEChem-04052301313D

 83 91  0     1  0  0  0  0  0999 V2000
  -17.6820  -24.2382   21.3917 C   0  0  0  0  0  0  0  0  0  0  0  0
  -18.7803  -24.3146   20.5413 C   0  0  0  0  0  0  0  0  0  0  0  0
  -26.9503  -14.7477   20.3349 C   0  0  0  0  0  0  0  0  0  0  0  0
  -24.8634  -14.8763   21.5454 C   0  0  0  0  0  0  0  0  0  0  0  0
  -17.4850  -25.2180   22.3638 C   0  0  0  0  0  0  0  0  0  0  0  0
  -19.6818  -25.3716   20.6618 C   0  0  0  0  0  0  0  0  0  0  0  0
  -24.5056  -23.8438   20.4571 C   0  0  0  0  0  0  0  0  0  0  0  0
  -26.8481  -13.3569   20.3065 C   0  0  0  0  0  0  0  0  0  0  0  0
  -24.7612  -13.4855   21.5170 C   0  0  0  0  0  0  0  0  0  0  0  0
  -25.0280  -23.5514   19.1980 C   0  0  0  0  0  0  0  0  0  0  0  0
  -23.8463  -11.1014   19.3035 C   0  0  0  0  0  0  0  0  0  0  0  0
  -22.6086  -10.5507   18.9712 C   0  0  0  0  0  0  0  0  0  0  0  0
  -26.0972  -25.7132   19.1463 C   0  0  0  0  0  0  0  0  0  0  0  0
  -22.5283   -9.4381   21.1143 C   0  0  0  0  0  0  0  0  0  0  0  0
  -25.9579  -15.5074   20.9543 C   0  0  0  0  0  0  0  0  0  0  0  0
  -25.5660  -17.8531   20.0313 C   0  0  0  0  0  0  0  0  0  0  0  0
  -18.3897  -26.2823   22.5027 C   0  0  0  0  0  0  0  0  0  0  0  0
  -24.7666  -25.0795   21.0666 C   0  0  0  0  0  0  0  0  0  0  0  0
  -19.4960  -26.3673   21.6359 C   0  0  0  0  0  0  0  0  0  0  0  0
  -25.5791  -26.0178   20.4143 C   0  0  0  0  0  0  0  0  0  0  0  0
  -25.7536  -12.7258   20.8975 C   0  0  0  0  0  0  0  0  0  0  0  0
  -25.8215  -24.4872   18.5411 C   0  0  0  0  0  0  0  0  0  0  0  0
  -24.4251  -10.8205   20.5411 C   0  0  0  0  0  0  0  0  0  0  0  0
  -21.9496   -9.7191   19.8766 C   0  0  0  0  0  0  0  0  0  0  0  0
  -23.7661   -9.9889   21.4465 C   0  0  0  0  0  0  0  0  0  0  0  0
  -26.0631  -16.9441   20.9845 C   0  0  0  0  0  0  0  0  0  0  0  0
  -29.7073  -25.1704   17.5199 C   0  0  0  0  0  0  0  0  0  0  0  0
  -29.2835  -23.8696   17.4062 C   0  0  0  0  0  0  0  0  0  0  0  0
  -25.9222  -19.0879   20.5159 C   0  0  0  0  0  0  0  0  0  0  0  0
  -29.6506  -24.2375   19.4441 C   0  0  0  0  0  0  0  0  0  0  0  0
  -24.8465  -17.6035   18.8165 C   0  0  0  0  0  0  0  0  0  0  0  0
  -29.7974  -24.1234   20.9179 C   0  0  0  0  0  0  0  0  0  0  0  0
  -22.9820  -27.5281   22.0274 C   0  0  0  0  0  0  0  0  0  0  0  0
  -27.7420  -22.7777   16.0183 C   0  0  0  0  0  0  0  0  0  0  0  0
  -25.7988  -28.6098   23.2182 C   0  0  0  0  0  0  0  0  0  0  0  0
  -29.2085  -28.5726   23.0786 C   0  0  0  0  0  0  0  0  0  0  0  0
  -29.5857  -22.5500   22.8162 C   0  0  0  0  0  0  0  0  0  0  0  0
  -18.1092  -27.3432   23.5373 C   0  0  0  0  0  0  0  0  0  0  0  0
  -24.2176  -25.3690   22.4367 C   0  0  0  0  0  0  0  0  0  0  0  0
  -25.9058  -27.3509   21.0343 C   0  0  0  0  0  0  0  0  0  0  0  0
  -19.3149  -28.2274   23.8454 C   0  0  0  0  0  0  0  0  0  0  0  0
  -27.7942  -20.4469   25.0218 C   0  0  0  0  0  0  0  0  0  0  0  0
  -19.9868  -28.6829   22.5540 C   0  0  0  0  0  0  0  0  0  0  0  0
  -27.1349  -19.4255   24.0910 C   0  0  0  0  0  0  0  0  0  0  0  0
  -29.1986  -20.8209   24.5500 C   0  0  0  0  0  0  0  0  0  0  0  0
  -28.6334  -20.2386   22.2263 C   0  0  0  0  0  0  0  0  0  0  0  0
  -20.5095  -27.4851   21.7518 C   0  0  1  0  0  0  0  0  0  0  0  0
  -24.1244  -26.8612   22.7400 C   0  0  1  0  0  0  0  0  0  0  0  0
  -27.1906  -19.8825   22.6195 C   0  0  1  0  0  0  0  0  0  0  0  0
  -29.9395  -26.2738   16.5811 C   0  0  0  0  0  0  0  0  0  0  0  0
  -27.4317  -22.1501   14.6800 C   0  0  0  0  0  0  0  0  0  0  0  0
  -31.5722  -29.0732   23.7564 C   0  0  0  0  0  0  0  0  0  0  0  0
  -25.3016  -31.2068   21.6957 C   0  0  0  0  0  0  0  0  0  0  0  0
  -27.7181  -31.7768   22.0178 C   0  0  0  0  0  0  0  0  0  0  0  0
  -26.2267  -31.5089   23.9994 C   0  0  0  0  0  0  0  0  0  0  0  0
  -29.3140  -26.2225   24.8744 C   0  0  0  0  0  0  0  0  0  0  0  0
  -26.6076  -22.8348   17.0222 C   0  0  0  0  0  0  0  0  0  1  0  0
  -26.9260  -29.4631   22.6888 C   0  0  1  0  0  0  0  0  0  0  0  0
  -30.2595  -28.4224   24.1636 C   0  0  2  0  0  0  0  0  0  0  0  0
  -26.5355  -30.9646   22.5876 C   0  0  0  0  0  0  0  0  0  0  0  0
  -26.6877  -17.5499   21.9979 N   0  0  0  0  0  0  0  0  0  0  0  0
  -29.2494  -23.2769   18.6425 N   0  0  0  0  0  0  0  0  0  0  0  0
  -28.9388  -23.2516   16.1952 N   0  0  0  0  0  0  0  0  0  0  0  0
  -26.5855  -18.8526   21.6842 N   0  0  0  0  0  0  0  0  0  0  0  0
  -25.3404  -27.5897   22.3725 N   0  0  0  0  0  0  0  0  0  0  0  0
  -29.1638  -21.2515   23.1512 N   0  0  0  0  0  0  0  0  0  0  0  0
  -25.7297  -20.3411   20.0524 N   0  0  0  0  0  0  0  0  0  0  0  0
  -24.5636  -16.2758   18.4683 N   0  0  0  0  0  0  0  0  0  0  0  0
  -29.4738  -22.8796   21.4608 N   0  0  0  0  0  0  0  0  0  0  0  0
  -21.7435  -26.9925   22.3254 N   0  0  0  0  0  0  0  0  0  0  0  0
  -28.0749  -29.2011   23.5490 N   0  0  0  0  0  0  0  0  0  0  0  0
  -30.5156  -26.9807   24.4406 N   0  3  0  0  0  0  0  0  0  0  0  0
  -24.4801  -18.5297   18.0539 O   0  0  0  0  0  0  0  0  0  0  0  0
  -30.2198  -25.0856   21.5532 O   0  0  0  0  0  0  0  0  0  0  0  0
  -23.2072  -28.4606   21.2649 O   0  0  0  0  0  0  0  0  0  0  0  0
  -25.3466  -28.8353   24.3435 O   0  0  0  0  0  0  0  0  0  0  0  0
  -29.3777  -28.1756   21.9278 O   0  0  0  0  0  0  0  0  0  0  0  0
  -29.9909  -23.3594   23.6564 O   0  0  0  0  0  0  0  0  0  0  0  0
  -29.9481  -25.4191   18.8373 O   0  0  0  0  0  0  0  0  0  0  0  0
  -25.6535  -11.3687   20.8699 O   0  0  0  0  0  0  0  0  0  0  0  0
  -26.3322  -24.2046   17.3118 O   0  0  0  0  0  0  0  0  0  1  0  0
  -20.7604   -9.1915   19.5579 F   0  0  0  0  0  0  0  0  0  0  0  0
  -24.3165   -9.7163   22.6375 F   0  0  0  0  0  0  0  0  0  0  0  0
  1  2  1  0  0  0  0
  1  5  2  0  0  0  0
  2  6  2  0  0  0  0
  3  8  2  0  0  0  0
  3 15  1  0  0  0  0
  4  9  1  0  0  0  0
  4 15  2  0  0  0  0
  5 17  1  0  0  0  0
  6 19  1  0  0  0  0
  7 10  2  0  0  0  0
  7 18  1  0  0  0  0
  8 21  1  0  0  0  0
  9 21  2  0  0  0  0
 10 22  1  0  0  0  0
 11 12  2  0  0  0  0
 11 23  1  0  0  0  0
 12 24  1  0  0  0  0
 13 20  1  0  0  0  0
 13 22  2  0  0  0  0
 14 24  2  0  0  0  0
 14 25  1  0  0  0  0
 15 26  1  0  0  0  0
 16 26  1  0  0  0  0
 16 29  2  0  0  0  0
 16 31  1  0  0  0  0
 17 19  2  0  0  0  0
 17 38  1  0  0  0  0
 18 20  2  0  0  0  0
 18 39  1  0  0  0  0
 19 47  1  0  0  0  0
 20 40  1  0  0  0  0
 21 80  1  0  0  0  0
 22 81  1  0  0  0  0
 23 25  2  0  0  0  0
 23 80  1  0  0  0  0
 24 82  1  0  0  0  0
 25 83  1  0  0  0  0
 26 61  2  0  0  0  0
 27 28  2  0  0  0  0
 27 50  1  0  0  0  0
 27 79  1  0  0  0  0
 28 62  1  0  0  0  0
 28 63  1  0  0  0  0
 29 64  1  0  0  0  0
 29 67  1  0  0  0  0
 30 32  1  0  0  0  0
 30 62  2  0  0  0  0
 30 79  1  0  0  0  0
 31 68  1  0  0  0  0
 31 73  2  0  0  0  0
 32 69  1  0  0  0  0
 32 74  2  0  0  0  0
 33 48  1  0  0  0  0
 33 70  1  0  0  0  0
 33 75  2  0  0  0  0
 34 51  1  0  0  0  0
 34 57  1  0  0  0  0
 34 63  2  0  0  0  0
 35 58  1  0  0  0  0
 35 65  1  0  0  0  0
 35 76  2  0  0  0  0
 36 59  1  0  0  0  0
 36 71  1  0  0  0  0
 36 77  2  0  0  0  0
 37 66  1  0  0  0  0
 37 69  1  0  0  0  0
 37 78  2  0  0  0  0
 38 41  1  0  0  0  0
 39 48  1  0  0  0  0
 40 65  1  0  0  0  0
 41 43  1  0  0  0  0
 42 44  1  0  0  0  0
 42 45  1  0  0  0  0
 43 47  1  0  0  0  0
 44 49  1  0  0  0  0
 45 66  1  0  0  0  0
 46 49  1  0  0  0  0
 46 66  1  0  0  0  0
 47 70  1  0  0  0  0
 48 65  1  0  0  0  0
 49 64  1  0  0  0  0
 52 59  1  0  0  0  0
 53 60  1  0  0  0  0
 54 60  1  0  0  0  0
 55 60  1  0  0  0  0
 56 72  1  0  0  0  0
 57 81  1  0  0  0  0
 58 60  1  0  0  0  0
 58 71  1  0  0  0  0
 59 72  1  0  0  0  0
 61 64  1  0  0  0  0
M  CHG  1  72   1
M  ISO  4  37 100  57 101  69 100  81 101
M  END
> <Batch ID>
0112

> <Smiles>
CNC(C)C(=O)NC(C(=O)N1Cc2cc([101O:1][101CH2:1]C(C)=Nc3nc(C(=O)[100NH:0][100C:0](=O)N4CCCC(n5nc(-c6ccc(Oc7ccc(F)cc7F)cc6)c(C(N)=O)c5N)C4)oc3C)ccc2CC1C(=O)NC1CCCc2ccccc21)C(C)(C)C

> <Shape>
0.223

> <Color>
0.051

> <Negative vol penalty>
0.000

$$$$

  -OEChem-04052301313D

 88 97  0     1  0  0  0  0  0999 V2000
  -24.7909  -30.3620   22.0499 C   0  0  0  0  0  0  0  0  0  0  0  0
  -25.4834  -29.1676   21.8789 C   0  0  0  0  0  0  0  0  0  0  0  0
  -23.0144   -9.9965   19.9303 C   0  0  0  0  0  0  0  0  0  0  0  0
  -23.8399   -9.8929   22.1986 C   0  0  0  0  0  0  0  0  0  0  0  0
  -23.8816  -30.7840   21.0809 C   0  0  0  0  0  0  0  0  0  0  0  0
  -25.2661  -28.3939   20.7393 C   0  0  0  0  0  0  0  0  0  0  0  0
  -29.5764  -26.7027   18.6884 C   0  0  0  0  0  0  0  0  0  0  0  0
  -22.2533   -8.8494   20.1549 C   0  0  0  0  0  0  0  0  0  0  0  0
  -23.0788   -8.7458   22.4232 C   0  0  0  0  0  0  0  0  0  0  0  0
  -30.1890  -25.6117   19.3034 C   0  0  0  0  0  0  0  0  0  0  0  0
  -19.8528   -7.9897   23.0880 C   0  0  0  0  0  0  0  0  0  0  0  0
  -19.1291   -7.9168   24.2782 C   0  0  0  0  0  0  0  0  0  0  0  0
  -29.2516  -24.1494   17.6295 C   0  0  0  0  0  0  0  0  0  0  0  0
  -20.3491   -5.9255   24.8978 C   0  0  0  0  0  0  0  0  0  0  0  0
  -31.9436  -17.4183   21.7496 C   0  0  0  0  0  0  0  0  0  0  0  0
  -23.8078  -10.5182   20.9521 C   0  0  0  0  0  0  0  0  0  0  0  0
  -24.2005  -13.0387   20.9253 C   0  0  0  0  0  0  0  0  0  0  0  0
  -23.6601  -30.0200   19.9243 C   0  0  0  0  0  0  0  0  0  0  0  0
  -28.7865  -26.5234   17.5437 C   0  0  0  0  0  0  0  0  0  0  0  0
  -24.3520  -28.8055   19.7546 C   0  0  0  0  0  0  0  0  0  0  0  0
  -28.6322  -25.2400   17.0004 C   0  0  0  0  0  0  0  0  0  0  0  0
  -22.2854   -8.2240   21.4013 C   0  0  0  0  0  0  0  0  0  0  0  0
  -30.0243  -24.3344   18.7757 C   0  0  0  0  0  0  0  0  0  0  0  0
  -20.8245   -7.0306   22.8026 C   0  0  0  0  0  0  0  0  0  0  0  0
  -19.3773   -6.8847   25.1831 C   0  0  0  0  0  0  0  0  0  0  0  0
  -21.0727   -5.9985   23.7075 C   0  0  0  0  0  0  0  0  0  0  0  0
  -24.5947  -11.7028   20.7206 C   0  0  0  0  0  0  0  0  0  0  0  0
  -31.9073  -18.5999   22.5140 C   0  0  0  0  0  0  0  0  0  0  0  0
  -30.7289  -16.8210   21.9828 C   0  0  0  0  0  0  0  0  0  0  0  0
  -25.2977  -13.7801   20.5607 C   0  0  0  0  0  0  0  0  0  0  0  0
  -32.6740  -22.2723   20.0464 C   0  0  0  0  0  0  0  0  0  0  0  0
  -31.9834  -23.2669   19.4779 C   0  0  0  0  0  0  0  0  0  1  0  0
  -22.9541  -13.5625   21.4023 C   0  0  0  0  0  0  0  0  0  0  0  0
  -31.3636  -20.2074   19.7718 C   0  0  0  0  0  0  0  0  0  0  0  0
  -25.7304  -27.0226   16.8264 C   0  0  0  0  0  0  0  0  0  0  0  0
  -26.7003  -26.2004   13.8422 C   0  0  0  0  0  0  0  0  0  0  0  0
  -28.9573  -24.5574   11.8792 C   0  0  0  0  0  0  0  0  0  0  0  0
  -30.7880  -14.7057   20.6160 C   0  0  0  0  0  0  0  0  0  0  0  0
  -22.6324  -30.4935   18.9272 C   0  0  0  0  0  0  0  0  0  0  0  0
  -28.1543  -27.7141   16.8766 C   0  0  0  0  0  0  0  0  0  0  0  0
  -27.8109  -24.9969   15.7615 C   0  0  0  0  0  0  0  0  0  0  0  0
  -34.1677  -22.2300   20.1813 C   0  0  0  0  0  0  0  0  0  0  0  0
  -22.7367  -29.8023   17.5701 C   0  0  0  0  0  0  0  0  0  0  0  0
  -29.5540  -12.4155   18.1851 C   0  0  0  0  0  0  0  0  0  0  0  0
  -22.8819  -28.2944   17.7488 C   0  0  0  0  0  0  0  0  0  0  0  0
  -28.1213  -12.1358   18.6448 C   0  0  0  0  0  0  0  0  0  0  0  0
  -30.5080  -12.5755   19.3674 C   0  0  0  0  0  0  0  0  0  0  0  0
  -28.6577  -13.2808   20.8331 C   0  0  0  0  0  0  0  0  0  0  0  0
  -34.3817  -21.3648   21.4154 C   0  0  0  0  0  0  0  0  0  0  0  0
  -24.1619  -27.9510   18.5202 C   0  0  1  0  0  0  0  0  0  0  0  0
  -32.0889  -21.0806   20.7432 C   0  0  1  0  0  0  0  0  0  0  0  0
  -26.9516  -27.3465   16.0131 C   0  0  1  0  0  0  0  0  0  0  0  0
  -27.6479  -13.1765   19.6785 C   0  0  2  0  0  0  0  0  0  0  0  0
  -29.9186  -19.9149   20.0729 C   0  0  0  0  0  0  0  0  0  0  0  0
  -34.3010  -19.0835   23.1689 C   0  0  0  0  0  0  0  0  0  0  0  0
  -29.4662  -24.0331    9.4785 C   0  0  0  0  0  0  0  0  0  0  0  0
  -24.4710  -24.1171   13.8272 C   0  0  0  0  0  0  0  0  0  0  0  0
  -25.6021  -23.0223   11.8804 C   0  0  0  0  0  0  0  0  0  0  0  0
  -24.7529  -25.3588   11.6748 C   0  0  0  0  0  0  0  0  0  0  0  0
  -28.7404  -17.4569   23.3845 C   0  0  0  0  0  0  0  0  0  0  0  0
  -31.5655  -25.9502   12.0070 C   0  0  0  0  0  0  0  0  0  0  0  0
  -32.9872  -19.6500   22.6365 C   0  0  1  0  0  0  0  0  0  0  0  0
  -26.8105  -24.9064   13.0725 C   0  0  1  0  0  0  0  0  0  0  0  0
  -29.7126  -24.9891   10.6352 C   0  0  2  0  0  0  0  0  0  0  0  0
  -25.4231  -24.3551   12.6382 C   0  0  0  0  0  0  0  0  0  0  0  0
  -25.8446  -11.5986   20.2614 N   0  0  0  0  0  0  0  0  0  0  0  0
  -30.7604  -18.7464   23.1827 N   0  0  0  0  0  0  0  0  0  0  0  0
  -26.2454  -12.8784   20.1745 N   0  0  0  0  0  0  0  0  0  0  0  0
  -30.0647  -17.6491   22.8391 N   0  0  0  0  0  0  0  0  0  0  0  0
  -27.2077  -26.1922   15.1492 N   0  0  0  0  0  0  0  0  0  0  0  0
  -29.9970  -13.5802   20.3024 N   0  0  0  0  0  0  0  0  0  0  0  0
  -25.5347  -15.1089   20.5359 N   0  0  0  0  0  0  0  0  0  0  0  0
  -21.9328  -12.6610   21.7320 N   0  0  0  0  0  0  0  0  0  0  0  0
  -30.1846  -15.6090   21.4904 N   0  0  0  0  0  0  0  0  0  0  0  0
  -25.3164  -28.0496   17.6531 N   0  0  0  0  0  0  0  0  0  0  0  0
  -27.7234  -25.1669   11.9647 N   0  0  0  0  0  0  0  0  0  0  0  0
  -33.2699  -20.3401   21.3419 N   0  3  2  0  0  0  0  0  0  0  0  0
  -31.1774  -25.0305   10.9068 N   0  3  0  0  0  0  0  0  0  0  0  0
  -22.7462  -14.7942   21.5169 O   0  0  0  0  0  0  0  0  0  0  0  0
  -31.9198  -19.7518   18.7738 O   0  0  0  0  0  0  0  0  0  0  0  0
  -25.2019  -25.9230   16.7113 O   0  0  0  0  0  0  0  0  0  0  0  0
  -26.1894  -27.1842   13.3012 O   0  0  0  0  0  0  0  0  0  0  0  0
  -29.4145  -23.7566   12.6917 O   0  0  0  0  0  0  0  0  0  0  0  0
  -31.9066  -14.8706   20.1224 O   0  0  0  0  0  0  0  0  0  0  0  0
  -21.5427   -7.1048   21.6209 O   0  0  0  0  0  0  0  0  0  0  0  0
  -30.6207  -23.2677   19.3744 O   0  0  0  0  0  0  0  0  0  1  0  0
  -18.6834   -6.8156   26.3267 F   0  0  0  0  0  0  0  0  0  0  0  0
  -22.0058   -5.0748   23.4395 F   0  0  0  0  0  0  0  0  0  0  0  0
  1  2  1  0  0  0  0
  1  5  2  0  0  0  0
  2  6  2  0  0  0  0
  3  8  2  0  0  0  0
  3 16  1  0  0  0  0
  4  9  1  0  0  0  0
  4 16  2  0  0  0  0
  5 18  1  0  0  0  0
  6 20  1  0  0  0  0
  7 10  2  0  0  0  0
  7 19  1  0  0  0  0
  8 22  1  0  0  0  0
  9 22  2  0  0  0  0
 10 23  1  0  0  0  0
 11 12  2  0  0  0  0
 11 24  1  0  0  0  0
 12 25  1  0  0  0  0
 13 21  1  0  0  0  0
 13 23  2  0  0  0  0
 14 25  2  0  0  0  0
 14 26  1  0  0  0  0
 15 28  1  0  0  0  0
 15 29  2  0  0  0  0
 16 27  1  0  0  0  0
 17 27  1  0  0  0  0
 17 30  2  0  0  0  0
 17 33  1  0  0  0  0
 18 20  2  0  0  0  0
 18 39  1  0  0  0  0
 19 21  2  0  0  0  0
 19 40  1  0  0  0  0
 20 50  1  0  0  0  0
 21 41  1  0  0  0  0
 22 85  1  0  0  0  0
 23 86  1  0  0  0  0
 24 26  2  0  0  0  0
 24 85  1  0  0  0  0
 25 87  1  0  0  0  0
 26 88  1  0  0  0  0
 27 66  2  0  0  0  0
 28 62  1  0  0  0  0
 28 67  2  0  0  0  0
 29 69  1  0  0  0  0
 29 74  1  0  0  0  0
 30 68  1  0  0  0  0
 30 72  1  0  0  0  0
 31 32  2  0  0  0  0
 31 42  1  0  0  0  0
 31 51  1  0  0  0  0
 32 86  1  0  0  0  0
 33 73  1  0  0  0  0
 33 79  2  0  0  0  0
 34 51  1  0  0  0  0
 34 54  1  0  0  0  0
 34 80  2  0  0  0  0
 35 52  1  0  0  0  0
 35 75  1  0  0  0  0
 35 81  2  0  0  0  0
 36 63  1  0  0  0  0
 36 70  1  0  0  0  0
 36 82  2  0  0  0  0
 37 64  1  0  0  0  0
 37 76  1  0  0  0  0
 37 83  2  0  0  0  0
 38 71  1  0  0  0  0
 38 74  1  0  0  0  0
 38 84  2  0  0  0  0
 39 43  1  0  0  0  0
 40 52  1  0  0  0  0
 41 70  1  0  0  0  0
 42 49  1  0  0  0  0
 43 45  1  0  0  0  0
 44 46  1  0  0  0  0
 44 47  1  0  0  0  0
 45 50  1  0  0  0  0
 46 53  1  0  0  0  0
 47 71  1  0  0  0  0
 48 53  1  0  0  0  0
 48 71  1  0  0  0  0
 49 77  1  0  0  0  0
 50 75  1  0  0  0  0
 51 77  1  0  0  0  0
 52 70  1  0  0  0  0
 53 68  1  0  0  0  0
 55 62  1  0  0  0  0
 56 64  1  0  0  0  0
 57 65  1  0  0  0  0
 58 65  1  0  0  0  0
 59 65  1  0  0  0  0
 60 69  1  0  0  0  0
 61 78  1  0  0  0  0
 62 77  1  0  0  0  0
 63 65  1  0  0  0  0
 63 76  1  0  0  0  0
 64 78  1  0  0  0  0
 66 68  1  0  0  0  0
 67 69  1  0  0  0  0
M  CHG  2  77   1  78   1
M  ISO  4  32 101  38 100  74 100  86 101
M  END
> <Batch ID>
0112

> <Smiles>
CNC(C)C(=O)NC(C(=O)N1Cc2cc([101O:1][101CH:1]=C3CCN(C(C)c4cc([100NH:0][100C:0](=O)N5CCCC(n6nc(-c7ccc(Oc8ccc(F)cc8F)cc7)c(C(N)=O)c6N)C5)n(C)n4)C3C(C)=O)ccc2CC1C(=O)NC1CCCc2ccccc21)C(C)(C)C

> <Shape>
0.264

> <Color>
0.197

> <Negative vol penalty>
0.000

$$$$

  -OEChem-04052301313D

 83 91  0     1  0  0  0  0  0999 V2000
  -28.6090  -33.1689   25.8550 C   0  0  0  0  0  0  0  0  0  0  0  0
  -29.0072  -31.9404   25.3379 C   0  0  0  0  0  0  0  0  0  0  0  0
  -23.1162  -17.0187   21.5013 C   0  0  0  0  0  0  0  0  0  0  0  0
  -24.0491  -16.7408   23.7125 C   0  0  0  0  0  0  0  0  0  0  0  0
  -27.2572  -33.5099   25.8763 C   0  0  0  0  0  0  0  0  0  0  0  0
  -28.0537  -31.0515   24.8426 C   0  0  0  0  0  0  0  0  0  0  0  0
  -28.7031  -27.2140   20.1142 C   0  0  0  0  0  0  0  0  0  0  0  0
  -22.3880  -18.1217   21.9471 C   0  0  0  0  0  0  0  0  0  0  0  0
  -23.3209  -17.8438   24.1583 C   0  0  0  0  0  0  0  0  0  0  0  0
  -29.0025  -25.8542   20.0441 C   0  0  0  0  0  0  0  0  0  0  0  0
  -22.9658  -21.3879   22.6034 C   0  0  0  0  0  0  0  0  0  0  0  0
  -22.9561  -22.5267   21.7981 C   0  0  0  0  0  0  0  0  0  0  0  0
  -26.6482  -25.3497   19.8956 C   0  0  0  0  0  0  0  0  0  0  0  0
  -29.3754  -19.0492   18.2022 C   0  0  0  0  0  0  0  0  0  0  0  0
  -31.3895  -19.0787   19.5362 C   0  0  0  0  0  0  0  0  0  0  0  0
  -20.5526  -22.3714   21.6073 C   0  0  0  0  0  0  0  0  0  0  0  0
  -23.9467  -16.3282   22.3840 C   0  0  0  0  0  0  0  0  0  0  0  0
  -30.4009  -16.9718   18.8877 C   0  0  0  0  0  0  0  0  0  0  0  0
  -24.1867  -13.9962   21.3781 C   0  0  0  0  0  0  0  0  0  0  0  0
  -26.2876  -32.6288   25.3721 C   0  0  0  0  0  0  0  0  0  0  0  0
  -27.3713  -27.6520   20.0865 C   0  0  0  0  0  0  0  0  0  0  0  0
  -26.6876  -31.3805   24.8583 C   0  0  0  0  0  0  0  0  0  0  0  0
  -26.3347  -26.7159   19.9629 C   0  0  0  0  0  0  0  0  0  0  0  0
  -29.3877  -17.6544   18.2145 C   0  0  0  0  0  0  0  0  0  0  0  0
  -30.3764  -19.7613   18.8630 C   0  0  0  0  0  0  0  0  0  0  0  0
  -22.4904  -18.5342   23.2756 C   0  0  0  0  0  0  0  0  0  0  0  0
  -27.9748  -24.9216   19.9377 C   0  0  0  0  0  0  0  0  0  0  0  0
  -21.7689  -20.7407   22.9106 C   0  0  0  0  0  0  0  0  0  0  0  0
  -21.7495  -23.0185   21.3001 C   0  0  0  0  0  0  0  0  0  0  0  0
  -31.4018  -17.6840   19.5485 C   0  0  0  0  0  0  0  0  0  0  0  0
  -20.5623  -21.2325   22.4126 C   0  0  0  0  0  0  0  0  0  0  0  0
  -24.6987  -15.1884   21.9243 C   0  0  0  0  0  0  0  0  0  0  0  0
  -25.2991  -13.2389   21.1032 C   0  0  0  0  0  0  0  0  0  0  0  0
  -29.7170  -21.7317   19.8162 C   0  0  0  0  0  0  0  0  0  0  0  0
  -30.4333  -15.5157   18.9161 C   0  0  0  0  0  0  0  0  0  0  0  0
  -22.8271  -13.6081   21.1403 C   0  0  0  0  0  0  0  0  0  0  0  0
  -31.0153  -14.7814   20.0629 C   0  0  0  0  0  0  0  0  0  0  0  0
  -25.4883  -29.2354   22.0991 C   0  0  0  0  0  0  0  0  0  0  0  0
  -23.4153  -29.1607   19.6053 C   0  0  0  0  0  0  0  0  0  0  0  0
  -22.4055  -27.6400   16.7218 C   0  0  0  0  0  0  0  0  0  0  0  0
  -24.8341  -33.0218   25.4597 C   0  0  0  0  0  0  0  0  0  0  0  0
  -27.0663  -29.1241   20.1361 C   0  0  0  0  0  0  0  0  0  0  0  0
  -24.8893  -27.1357   19.9085 C   0  0  0  0  0  0  0  0  0  0  0  0
  -23.9210  -32.1797   24.5723 C   0  0  0  0  0  0  0  0  0  0  0  0
  -29.7917  -12.5030   22.5466 C   0  0  0  0  0  0  0  0  0  0  0  0
  -24.2460  -30.6973   24.7263 C   0  0  0  0  0  0  0  0  0  0  0  0
  -28.3072  -12.8525   22.6456 C   0  0  0  0  0  0  0  0  0  0  0  0
  -30.6387  -13.7394   22.2632 C   0  0  0  0  0  0  0  0  0  0  0  0
  -28.7264  -14.8475   21.1391 C   0  0  0  0  0  0  0  0  0  0  0  0
  -25.6854  -30.3998   24.2891 C   0  0  1  0  0  0  0  0  0  0  0  0
  -25.6503  -29.4250   20.6174 C   0  0  1  0  0  0  0  0  0  0  0  0
  -27.8361  -13.6195   21.3972 C   0  0  2  0  0  0  0  0  0  0  0  0
  -28.3035  -16.9162   17.4992 C   0  0  0  0  0  0  0  0  0  0  0  0
  -20.6580  -27.7836   14.9265 C   0  0  0  0  0  0  0  0  0  0  0  0
  -21.3621  -27.9503   21.5104 C   0  0  0  0  0  0  0  0  0  0  0  0
  -20.0241  -27.2512   19.5131 C   0  0  0  0  0  0  0  0  0  0  0  0
  -20.4451  -29.6717   19.9451 C   0  0  0  0  0  0  0  0  0  0  0  0
  -24.4384  -28.0806   14.6165 C   0  0  0  0  0  0  0  0  0  0  0  0
  -29.6424  -23.2262   19.9129 C   0  0  0  0  0  0  0  0  0  1  0  0
  -22.3417  -28.2089   19.1356 C   0  0  1  0  0  0  0  0  0  0  0  0
  -22.0556  -28.2020   15.3557 C   0  0  2  0  0  0  0  0  0  0  0  0
  -21.0703  -28.2622   20.0290 C   0  0  0  0  0  0  0  0  0  0  0  0
  -26.0326  -15.1927   21.9932 N   0  0  0  0  0  0  0  0  0  0  0  0
  -29.9602  -14.7719   17.9546 N   0  0  0  0  0  0  0  0  0  0  0  0
  -30.3648  -21.1664   18.8506 N   0  0  0  0  0  0  0  0  0  0  0  0
  -26.3681  -13.9939   21.4869 N   0  0  0  0  0  0  0  0  0  0  0  0
  -30.1428  -14.4632   21.0943 N   0  0  0  0  0  0  0  0  0  0  0  0
  -24.6419  -28.5858   19.9668 N   0  0  0  0  0  0  0  0  0  0  0  0
  -25.4573  -12.0074   20.5733 N   0  0  0  0  0  0  0  0  0  0  0  0
  -22.1368  -12.9348   22.1575 N   0  0  0  0  0  0  0  0  0  0  0  0
  -25.7776  -30.3619   22.8454 N   0  0  0  0  0  0  0  0  0  0  0  0
  -22.0998  -28.5267   17.7324 N   0  0  0  0  0  0  0  0  0  0  0  0
  -23.0258  -27.7188   14.3328 N   0  3  0  0  0  0  0  0  0  0  0  0
  -22.2469  -13.8366   20.0519 O   0  0  0  0  0  0  0  0  0  0  0  0
  -32.2108  -14.5327   19.9780 O   0  0  0  0  0  0  0  0  0  0  0  0
  -25.1261  -28.1482   22.5331 O   0  0  0  0  0  0  0  0  0  0  0  0
  -23.1767  -30.3704   19.6429 O   0  0  0  0  0  0  0  0  0  0  0  0
  -22.8971  -26.5243   16.8770 O   0  0  0  0  0  0  0  0  0  0  0  0
  -21.7801  -19.6106   23.7109 O   0  0  0  0  0  0  0  0  0  0  0  0
  -28.2642  -23.5936   19.8698 O   0  0  0  0  0  0  0  0  0  1  0  0
  -21.7402  -24.1130   20.5280 F   0  0  0  0  0  0  0  0  0  0  0  0
  -32.3796  -17.0394   20.2012 F   0  0  0  0  0  0  0  0  0  0  0  0
  -19.4092  -20.6157   22.7053 F   0  0  0  0  0  0  0  0  0  0  0  0
  1  2  1  0  0  0  0
  1  5  2  0  0  0  0
  2  6  2  0  0  0  0
  3  8  2  0  0  0  0
  3 17  1  0  0  0  0
  4  9  1  0  0  0  0
  4 17  2  0  0  0  0
  5 20  1  0  0  0  0
  6 22  1  0  0  0  0
  7 10  2  0  0  0  0
  7 21  1  0  0  0  0
  8 26  1  0  0  0  0
  9 26  2  0  0  0  0
 10 27  1  0  0  0  0
 11 12  2  0  0  0  0
 11 28  1  0  0  0  0
 12 29  1  0  0  0  0
 13 23  1  0  0  0  0
 13 27  2  0  0  0  0
 14 24  2  0  0  0  0
 14 25  1  0  0  0  0
 15 25  2  0  0  0  0
 15 30  1  0  0  0  0
 16 29  2  0  0  0  0
 16 31  1  0  0  0  0
 17 32  1  0  0  0  0
 18 24  1  0  0  0  0
 18 30  2  0  0  0  0
 18 35  1  0  0  0  0
 19 32  1  0  0  0  0
 19 33  2  0  0  0  0
 19 36  1  0  0  0  0
 20 22  2  0  0  0  0
 20 41  1  0  0  0  0
 21 23  2  0  0  0  0
 21 42  1  0  0  0  0
 22 50  1  0  0  0  0
 23 43  1  0  0  0  0
 24 53  1  0  0  0  0
 25 65  1  0  0  0  0
 26 79  1  0  0  0  0
 27 80  1  0  0  0  0
 28 31  2  0  0  0  0
 28 79  1  0  0  0  0
 29 81  1  0  0  0  0
 30 82  1  0  0  0  0
 31 83  1  0  0  0  0
 32 63  2  0  0  0  0
 33 66  1  0  0  0  0
 33 69  1  0  0  0  0
 34 59  1  0  0  0  0
 34 65  2  0  0  0  0
 35 37  1  0  0  0  0
 35 64  2  0  0  0  0
 36 70  1  0  0  0  0
 36 74  2  0  0  0  0
 37 67  1  0  0  0  0
 37 75  2  0  0  0  0
 38 51  1  0  0  0  0
 38 71  1  0  0  0  0
 38 76  2  0  0  0  0
 39 60  1  0  0  0  0
 39 68  1  0  0  0  0
 39 77  2  0  0  0  0
 40 61  1  0  0  0  0
 40 72  1  0  0  0  0
 40 78  2  0  0  0  0
 41 44  1  0  0  0  0
 42 51  1  0  0  0  0
 43 68  1  0  0  0  0
 44 46  1  0  0  0  0
 45 47  1  0  0  0  0
 45 48  1  0  0  0  0
 46 50  1  0  0  0  0
 47 52  1  0  0  0  0
 48 67  1  0  0  0  0
 49 52  1  0  0  0  0
 49 67  1  0  0  0  0
 50 71  1  0  0  0  0
 51 68  1  0  0  0  0
 52 66  1  0  0  0  0
 54 61  1  0  0  0  0
 55 62  1  0  0  0  0
 56 62  1  0  0  0  0
 57 62  1  0  0  0  0
 58 73  1  0  0  0  0
 59 80  1  0  0  0  0
 60 62  1  0  0  0  0
 60 72  1  0  0  0  0
 61 73  1  0  0  0  0
 63 66  1  0  0  0  0
M  CHG  1  73   1
M  ISO  4  35 100  37 100  59 101  80 101
M  END
> <Batch ID>
0112

> <Smiles>
CNC(C)C(=O)NC(C(=O)N1Cc2cc([101O:1][101CH:1]=CNc3cc(C)c([100C:0](=N)[100C:0](=O)N4CCCC(n5nc(-c6ccc(Oc7ccc(F)cc7F)cc6)c(C(N)=O)c5N)C4)c(F)c3)ccc2CC1C(=O)NC1CCCc2ccccc21)C(C)(C)C

> <Shape>
0.242

> <Color>
0.081

> <Negative vol penalty>
0.000

$$$$

  -OEChem-04052301313D

 89 98  0     1  0  0  0  0  0999 V2000
  -15.2542  -27.6231   25.1554 C   0  0  0  0  0  0  0  0  0  0  0  0
  -15.9280  -26.5814   24.5258 C   0  0  0  0  0  0  0  0  0  0  0  0
  -24.0758   -9.0415   21.0747 C   0  0  0  0  0  0  0  0  0  0  0  0
  -25.3417   -9.8778   22.9549 C   0  0  0  0  0  0  0  0  0  0  0  0
  -31.2580  -18.6856   23.6591 C   0  0  0  0  0  0  0  0  0  0  0  0
  -15.7006  -28.9348   25.0005 C   0  0  0  0  0  0  0  0  0  0  0  0
  -17.0480  -26.8509   23.7401 C   0  0  0  0  0  0  0  0  0  0  0  0
  -23.4357  -23.8804   25.2451 C   0  0  0  0  0  0  0  0  0  0  0  0
  -30.8202  -17.7423   22.7295 C   0  0  0  0  0  0  0  0  0  0  0  0
  -23.9736   -7.7973   21.6969 C   0  0  0  0  0  0  0  0  0  0  0  0
  -25.2395   -8.6336   23.5772 C   0  0  0  0  0  0  0  0  0  0  0  0
  -24.6422  -23.1869   25.3423 C   0  0  0  0  0  0  0  0  0  0  0  0
  -22.1232   -6.3824   24.1478 C   0  0  0  0  0  0  0  0  0  0  0  0
  -20.8766   -5.7568   24.1451 C   0  0  0  0  0  0  0  0  0  0  0  0
  -29.6422  -17.8623   25.2555 C   0  0  0  0  0  0  0  0  0  0  0  0
  -25.5438  -24.4763   23.5059 C   0  0  0  0  0  0  0  0  0  0  0  0
  -21.8204   -3.8810   22.9501 C   0  0  0  0  0  0  0  0  0  0  0  0
  -24.7600  -10.0817   21.7037 C   0  0  0  0  0  0  0  0  0  0  0  0
  -30.6690  -18.7456   24.9222 C   0  0  0  0  0  0  0  0  0  0  0  0
  -23.8106  -12.2142   20.6747 C   0  0  0  0  0  0  0  0  0  0  0  0
  -16.8324  -29.2196   24.2203 C   0  0  0  0  0  0  0  0  0  0  0  0
  -23.2838  -24.8864   24.2867 C   0  0  0  0  0  0  0  0  0  0  0  0
  -17.5092  -28.1679   23.5736 C   0  0  0  0  0  0  0  0  0  0  0  0
  -24.3419  -25.1830   23.4120 C   0  0  0  0  0  0  0  0  0  0  0  0
  -29.7934  -16.8590   23.0629 C   0  0  0  0  0  0  0  0  0  0  0  0
  -24.5554   -7.5933   22.9481 C   0  0  0  0  0  0  0  0  0  0  0  0
  -25.6935  -23.4840   24.4747 C   0  0  0  0  0  0  0  0  0  0  0  0
  -23.2185   -5.7574   23.5515 C   0  0  0  0  0  0  0  0  0  0  0  0
  -29.2044  -16.9190   24.3259 C   0  0  0  0  0  0  0  0  0  0  0  0
  -20.7251   -4.5061   23.5463 C   0  0  0  0  0  0  0  0  0  0  0  0
  -23.0671   -4.5067   22.9527 C   0  0  0  0  0  0  0  0  0  0  0  0
  -24.8664  -11.3671   21.0613 C   0  0  0  0  0  0  0  0  0  0  0  0
  -24.4319  -13.3029   20.1133 C   0  0  0  0  0  0  0  0  0  0  0  0
  -29.0245  -22.7327   25.5829 C   0  0  0  0  0  0  0  0  0  0  0  0
  -24.8870  -16.0494   23.7530 C   0  0  0  0  0  0  0  0  0  0  0  0
  -27.8334  -23.3132   25.4045 C   0  0  0  0  0  0  0  0  0  1  0  0
  -25.8534  -15.7225   24.6181 C   0  0  0  0  0  0  0  0  0  0  0  0
  -31.1308  -19.7399   25.9024 C   0  0  0  0  0  0  0  0  0  0  0  0
  -22.3948  -12.0332   20.8109 C   0  0  0  0  0  0  0  0  0  0  0  0
  -21.0554  -27.5009   22.7785 C   0  0  0  0  0  0  0  0  0  0  0  0
  -23.8683  -28.7138   22.9415 C   0  0  0  0  0  0  0  0  0  0  0  0
  -26.5676  -30.7833   23.2029 C   0  0  0  0  0  0  0  0  0  0  0  0
  -29.8501  -15.7227   20.8153 C   0  0  0  0  0  0  0  0  0  0  0  0
  -17.2492  -30.6583   24.0439 C   0  0  0  0  0  0  0  0  0  0  0  0
  -21.9810  -25.6170   24.1055 C   0  0  0  0  0  0  0  0  0  0  0  0
  -24.1214  -26.2492   22.3739 C   0  0  0  0  0  0  0  0  0  0  0  0
  -30.1114  -23.2492   26.4765 C   0  0  0  0  0  0  0  0  0  0  0  0
  -29.4256  -21.4074   25.0137 C   0  0  0  0  0  0  0  0  0  0  0  0
  -18.6659  -30.8195   23.4986 C   0  0  0  0  0  0  0  0  0  0  0  0
  -28.4223  -14.5438   17.7741 C   0  0  0  0  0  0  0  0  0  0  0  0
  -18.8916  -29.8851   22.3143 C   0  0  0  0  0  0  0  0  0  0  0  0
  -27.2486  -13.6774   18.2366 C   0  0  0  0  0  0  0  0  0  0  0  0
  -30.7903  -21.9684   26.9290 C   0  0  0  0  0  0  0  0  0  0  0  0
  -29.6223  -14.4202   18.7113 C   0  0  0  0  0  0  0  0  0  0  0  0
  -28.1568  -13.7996   20.5919 C   0  0  0  0  0  0  0  0  0  0  0  0
  -18.7427  -28.4175   22.7332 C   0  0  1  0  0  0  0  0  0  0  0  0
  -22.1666  -27.0900   23.6992 C   0  0  1  0  0  0  0  0  0  0  0  0
  -26.9018  -13.9409   19.7151 C   0  0  2  0  0  0  0  0  0  0  0  0
  -27.5893  -32.8283   22.1679 C   0  0  0  0  0  0  0  0  0  0  0  0
  -24.7910  -27.0439   20.5616 C   0  0  0  0  0  0  0  0  0  0  0  0
  -26.5228  -28.7913   20.0975 C   0  0  0  0  0  0  0  0  0  0  0  0
  -24.1009  -29.3794   19.9928 C   0  0  0  0  0  0  0  0  0  0  0  0
  -26.4058  -32.2919   25.7439 C   0  0  0  0  0  0  0  0  0  0  0  0
  -26.9498  -16.6471   25.0319 C   0  0  0  0  0  0  0  0  0  0  0  0
  -25.1798  -28.9655   22.2415 C   0  0  1  0  0  0  0  0  0  0  0  0
  -26.6753  -32.2964   23.2608 C   0  0  2  0  0  0  0  0  0  0  0  0
  -25.1475  -28.5321   20.7487 C   0  0  0  0  0  0  0  0  0  0  0  0
  -26.0673  -11.8739   20.7700 N   0  0  0  0  0  0  0  0  0  0  0  0
  -25.7699  -13.0513   20.1943 N   0  0  0  0  0  0  0  0  0  0  0  0
  -30.5011  -20.9771   25.9030 N   0  0  0  0  0  0  0  0  0  0  0  0
  -23.4101  -27.3910   22.9697 N   0  0  0  0  0  0  0  0  0  0  0  0
  -29.2191  -14.6874   20.0937 N   0  0  0  0  0  0  0  0  0  0  0  0
  -23.9588  -14.4413   19.5631 N   0  0  0  0  0  0  0  0  0  0  0  0
  -21.7711  -12.4971   21.9772 N   0  0  0  0  0  0  0  0  0  0  0  0
  -29.3612  -15.9052   22.1084 N   0  0  0  0  0  0  0  0  0  0  0  0
  -19.9292  -27.9677   23.4291 N   0  0  0  0  0  0  0  0  0  0  0  0
  -25.4882  -30.3765   22.4475 N   0  0  0  0  0  0  0  0  0  0  0  0
  -27.2195  -32.7269   24.5796 N   0  3  0  0  0  0  0  0  0  0  0  0
  -32.0353  -19.4036   26.6639 O   0  0  0  0  0  0  0  0  0  0  0  0
  -21.7059  -11.4620   19.9319 O   0  0  0  0  0  0  0  0  0  0  0  0
  -21.2078  -27.4035   21.5664 O   0  0  0  0  0  0  0  0  0  0  0  0
  -23.2617  -29.6631   23.4455 O   0  0  0  0  0  0  0  0  0  0  0  0
  -27.3638  -30.0367   23.7680 O   0  0  0  0  0  0  0  0  0  0  0  0
  -30.7387  -16.4156   20.3130 O   0  0  0  0  0  0  0  0  0  0  0  0
  -24.4557   -6.3794   23.5556 O   0  0  0  0  0  0  0  0  0  0  0  0
  -26.8702  -22.8061   24.5782 O   0  0  0  0  0  0  0  0  0  1  0  0
  -28.2007  -16.0646   24.6724 O   0  0  0  0  0  0  0  0  0  0  0  0
  -19.5282   -3.9047   23.5452 F   0  0  0  0  0  0  0  0  0  0  0  0
  -24.1158   -3.9008   22.3794 F   0  0  0  0  0  0  0  0  0  0  0  0
  1  2  1  0  0  0  0
  1  6  2  0  0  0  0
  2  7  2  0  0  0  0
  3 10  2  0  0  0  0
  3 18  1  0  0  0  0
  4 11  1  0  0  0  0
  4 18  2  0  0  0  0
  5  9  2  0  0  0  0
  5 19  1  0  0  0  0
  6 21  1  0  0  0  0
  7 23  1  0  0  0  0
  8 12  2  0  0  0  0
  8 22  1  0  0  0  0
  9 25  1  0  0  0  0
 10 26  1  0  0  0  0
 11 26  2  0  0  0  0
 12 27  1  0  0  0  0
 13 14  2  0  0  0  0
 13 28  1  0  0  0  0
 14 30  1  0  0  0  0
 15 19  2  0  0  0  0
 15 29  1  0  0  0  0
 16 24  1  0  0  0  0
 16 27  2  0  0  0  0
 17 30  2  0  0  0  0
 17 31  1  0  0  0  0
 18 32  1  0  0  0  0
 19 38  1  0  0  0  0
 20 32  1  0  0  0  0
 20 33  2  0  0  0  0
 20 39  1  0  0  0  0
 21 23  2  0  0  0  0
 21 44  1  0  0  0  0
 22 24  2  0  0  0  0
 22 45  1  0  0  0  0
 23 56  1  0  0  0  0
 24 46  1  0  0  0  0
 25 29  2  0  0  0  0
 25 75  1  0  0  0  0
 26 85  1  0  0  0  0
 27 86  1  0  0  0  0
 28 31  2  0  0  0  0
 28 85  1  0  0  0  0
 29 87  1  0  0  0  0
 30 88  1  0  0  0  0
 31 89  1  0  0  0  0
 32 68  2  0  0  0  0
 33 69  1  0  0  0  0
 33 73  1  0  0  0  0
 34 36  2  0  0  0  0
 34 47  1  0  0  0  0
 34 48  1  0  0  0  0
 35 37  2  0  0  0  0
 36 86  1  0  0  0  0
 37 64  1  0  0  0  0
 38 70  1  0  0  0  0
 38 79  2  0  0  0  0
 39 74  1  0  0  0  0
 39 80  2  0  0  0  0
 40 57  1  0  0  0  0
 40 76  1  0  0  0  0
 40 81  2  0  0  0  0
 41 65  1  0  0  0  0
 41 71  1  0  0  0  0
 41 82  2  0  0  0  0
 42 66  1  0  0  0  0
 42 77  1  0  0  0  0
 42 83  2  0  0  0  0
 43 72  1  0  0  0  0
 43 75  1  0  0  0  0
 43 84  2  0  0  0  0
 44 49  1  0  0  0  0
 45 57  1  0  0  0  0
 46 71  1  0  0  0  0
 47 53  1  0  0  0  0
 48 70  1  0  0  0  0
 49 51  1  0  0  0  0
 50 52  1  0  0  0  0
 50 54  1  0  0  0  0
 51 56  1  0  0  0  0
 52 58  1  0  0  0  0
 53 70  1  0  0  0  0
 54 72  1  0  0  0  0
 55 58  1  0  0  0  0
 55 72  1  0  0  0  0
 56 76  1  0  0  0  0
 57 71  1  0  0  0  0
 58 69  1  0  0  0  0
 59 66  1  0  0  0  0
 60 67  1  0  0  0  0
 61 67  1  0  0  0  0
 62 67  1  0  0  0  0
 63 78  1  0  0  0  0
 64 87  1  0  0  0  0
 65 67  1  0  0  0  0
 65 77  1  0  0  0  0
 66 78  1  0  0  0  0
 68 69  1  0  0  0  0
M  CHG  1  78   1
M  ISO  4  36 101  43 100  75 100  86 101
M  END
> <Batch ID>
0112

> <Smiles>
C=CCOc1cc(C(=O)N2CCC(=[101CH:1][101O:1]c3ccc4c(c3)CN(C(=O)C(NC(=O)C(C)NC)C(C)(C)C)C(C(=O)NC3CCCc5ccccc53)C4)C2)ccc1[100NH:0][100C:0](=O)N1CCCC(n2nc(-c3ccc(Oc4ccc(F)cc4F)cc3)c(C(N)=O)c2N)C1

> <Shape>
0.266

> <Color>
0.100

> <Negative vol penalty>
0.000

$$$$

  -OEChem-04052301313D

 88 97  0     1  0  0  0  0  0999 V2000
  -29.2888  -35.9840   25.4218 C   0  0  0  0  0  0  0  0  0  0  0  0
  -29.6193  -35.1880   24.3297 C   0  0  0  0  0  0  0  0  0  0  0  0
  -24.5440   -9.2112   21.9746 C   0  0  0  0  0  0  0  0  0  0  0  0
  -24.2612   -8.6191   19.6494 C   0  0  0  0  0  0  0  0  0  0  0  0
  -28.4118  -35.5034   26.3933 C   0  0  0  0  0  0  0  0  0  0  0  0
  -29.0738  -33.9103   24.2092 C   0  0  0  0  0  0  0  0  0  0  0  0
  -26.8826  -29.2200   19.2578 C   0  0  0  0  0  0  0  0  0  0  0  0
  -23.3644   -8.5369   22.2898 C   0  0  0  0  0  0  0  0  0  0  0  0
  -23.0816   -7.9448   19.9646 C   0  0  0  0  0  0  0  0  0  0  0  0
  -27.0651  -27.8911   18.8776 C   0  0  0  0  0  0  0  0  0  0  0  0
  -22.3725   -5.3386   22.7593 C   0  0  0  0  0  0  0  0  0  0  0  0
  -22.3818   -4.5037   23.8766 C   0  0  0  0  0  0  0  0  0  0  0  0
  -28.6281  -20.6783   20.5573 C   0  0  0  0  0  0  0  0  0  0  0  0
  -25.4994  -27.1964   20.5762 C   0  0  0  0  0  0  0  0  0  0  0  0
  -30.1735  -22.1979   19.4897 C   0  0  0  0  0  0  0  0  0  0  0  0
  -20.6272   -5.8271   24.8800 C   0  0  0  0  0  0  0  0  0  0  0  0
  -24.9924   -9.2523   20.6544 C   0  0  0  0  0  0  0  0  0  0  0  0
  -30.5619  -19.8152   19.3944 C   0  0  0  0  0  0  0  0  0  0  0  0
  -29.4022  -19.5964   20.1379 C   0  0  0  0  0  0  0  0  0  0  0  0
  -27.5140   -9.4176   20.3048 C   0  0  0  0  0  0  0  0  0  0  0  0
  -27.8477  -34.2229   26.2796 C   0  0  0  0  0  0  0  0  0  0  0  0
  -26.0139  -29.5466   20.3091 C   0  0  0  0  0  0  0  0  0  0  0  0
  -28.1894  -33.4116   25.1808 C   0  0  0  0  0  0  0  0  0  0  0  0
  -25.3057  -28.5304   20.9661 C   0  0  0  0  0  0  0  0  0  0  0  0
  -29.0138  -21.9791   20.2331 C   0  0  0  0  0  0  0  0  0  0  0  0
  -22.6331   -7.9037   21.2848 C   0  0  0  0  0  0  0  0  0  0  0  0
  -26.3756  -26.8788   19.5387 C   0  0  0  0  0  0  0  0  0  0  0  0
  -21.4906   -6.4179   22.7023 C   0  0  0  0  0  0  0  0  0  0  0  0
  -30.9476  -21.1160   19.0703 C   0  0  0  0  0  0  0  0  0  0  0  0
  -21.5091   -4.7479   24.9369 C   0  0  0  0  0  0  0  0  0  0  0  0
  -20.6179   -6.6621   23.7627 C   0  0  0  0  0  0  0  0  0  0  0  0
  -26.2107   -9.9492   20.3281 C   0  0  0  0  0  0  0  0  0  0  0  0
  -28.3097  -10.4752   19.9378 C   0  0  0  0  0  0  0  0  0  0  0  0
  -31.0164  -17.6748   18.1439 C   0  0  0  0  0  0  0  0  0  0  0  0
  -31.3934  -18.6858   18.9420 C   0  0  0  0  0  0  0  0  0  0  0  0
  -28.9571  -18.2553   20.5020 C   0  0  0  0  0  0  0  0  0  0  0  0
  -27.7878  -17.6963   20.1335 C   0  0  0  0  0  0  0  0  0  0  0  0
  -27.3032  -23.4437   19.8402 C   0  0  0  0  0  0  0  0  0  0  0  0
  -27.9650   -8.0867   20.5893 C   0  0  0  0  0  0  0  0  0  0  0  0
  -27.4846  -16.3203   20.5757 C   0  0  0  0  0  0  0  0  0  0  0  0
  -26.3520  -30.9308   23.1505 C   0  0  0  0  0  0  0  0  0  0  0  0
  -23.1146  -30.7314   23.1984 C   0  0  0  0  0  0  0  0  0  0  0  0
  -20.2900  -29.1866   22.0663 C   0  0  0  0  0  0  0  0  0  0  0  0
  -26.9416  -33.7286   27.3792 C   0  0  0  0  0  0  0  0  0  0  0  0
  -25.8077  -30.9872   20.6895 C   0  0  0  0  0  0  0  0  0  0  0  0
  -24.3461  -28.8301   22.0877 C   0  0  0  0  0  0  0  0  0  0  0  0
  -32.1131  -16.6867   17.9219 C   0  0  0  0  0  0  0  0  0  0  0  0
  -32.8186  -18.5032   19.3819 C   0  0  0  0  0  0  0  0  0  0  0  0
  -26.1147  -32.5077   26.9844 C   0  0  0  0  0  0  0  0  0  0  0  0
  -33.3428  -17.4329   18.4257 C   0  0  0  0  0  0  0  0  0  0  0  0
  -28.2320  -14.5482   17.4560 C   0  0  0  0  0  0  0  0  0  0  0  0
  -26.9928  -31.4688   26.2940 C   0  0  0  0  0  0  0  0  0  0  0  0
  -27.8662  -13.1161   17.8368 C   0  0  0  0  0  0  0  0  0  0  0  0
  -27.3265  -15.5710   18.1406 C   0  0  0  0  0  0  0  0  0  0  0  0
  -26.9119  -13.9924   20.0052 C   0  0  0  0  0  0  0  0  0  0  0  0
  -27.5990  -32.0298   25.0020 C   0  0  1  0  0  0  0  0  0  0  0  0
  -25.2891  -31.1608   22.1136 C   0  0  1  0  0  0  0  0  0  0  0  0
  -27.8403  -12.9489   19.3644 C   0  0  1  0  0  0  0  0  0  0  0  0
  -17.7930  -29.2186   22.3143 C   0  0  0  0  0  0  0  0  0  0  0  0
  -23.3664  -29.3197   25.8917 C   0  0  0  0  0  0  0  0  0  0  0  0
  -20.9984  -28.5498   25.6309 C   0  0  0  0  0  0  0  0  0  0  0  0
  -21.5084  -30.9884   25.7582 C   0  0  0  0  0  0  0  0  0  0  0  0
  -19.8980  -29.8333   19.2050 C   0  0  0  0  0  0  0  0  0  0  0  0
  -31.9353  -21.4121   16.9273 C   0  0  0  0  0  0  0  0  0  0  0  0
  -26.4016  -24.5906   20.1864 C   0  0  0  0  0  0  0  0  0  1  0  0
  -22.1137  -29.7030   23.6669 C   0  0  1  0  0  0  0  0  0  0  0  0
  -18.9843  -29.7432   21.5279 C   0  0  2  0  0  0  0  0  0  0  0  0
  -22.0162  -29.6341   25.2171 C   0  0  0  0  0  0  0  0  0  0  0  0
  -26.1760  -11.2440   20.0021 N   0  0  0  0  0  0  0  0  0  0  0  0
  -28.2342  -23.0693   20.6554 N   0  0  0  0  0  0  0  0  0  0  0  0
  -27.4675  -11.5349   19.7706 N   0  0  0  0  0  0  0  0  0  0  0  0
  -27.2722  -15.3539   19.5941 N   0  0  0  0  0  0  0  0  0  0  0  0
  -24.1834  -30.2534   22.4270 N   0  0  0  0  0  0  0  0  0  0  0  0
  -29.6406  -10.5929   19.7453 N   0  0  0  0  0  0  0  0  0  0  0  0
  -27.0147   -7.1222   20.9512 N   0  0  0  0  0  0  0  0  0  0  0  0
  -26.6141  -32.0331   23.9415 N   0  0  0  0  0  0  0  0  0  0  0  0
  -20.8555  -30.0259   23.0028 N   0  0  0  0  0  0  0  0  0  0  0  0
  -18.8088  -29.3612   20.0982 N   0  3  0  0  0  0  0  0  0  0  0  0
  -29.1769   -7.7664   20.5404 O   0  0  0  0  0  0  0  0  0  0  0  0
  -27.4330  -16.1114   21.7891 O   0  0  0  0  0  0  0  0  0  0  0  0
  -26.8930  -29.8340   23.2281 O   0  0  0  0  0  0  0  0  0  0  0  0
  -22.9503  -31.9163   23.4997 O   0  0  0  0  0  0  0  0  0  0  0  0
  -20.7593  -28.1127   21.6961 O   0  0  0  0  0  0  0  0  0  0  0  0
  -21.4821   -7.2454   21.5920 O   0  0  0  0  0  0  0  0  0  0  0  0
  -32.0762  -21.3625   18.3449 O   0  0  0  0  0  0  0  0  0  0  0  0
  -26.5524  -25.5809   19.1700 O   0  0  0  0  0  0  0  0  0  1  0  0
  -21.5170   -3.9452   26.0092 F   0  0  0  0  0  0  0  0  0  0  0  0
  -19.7676   -7.6967   23.7132 F   0  0  0  0  0  0  0  0  0  0  0  0
  1  2  1  0  0  0  0
  1  5  2  0  0  0  0
  2  6  2  0  0  0  0
  3  8  2  0  0  0  0
  3 17  1  0  0  0  0
  4  9  1  0  0  0  0
  4 17  2  0  0  0  0
  5 21  1  0  0  0  0
  6 23  1  0  0  0  0
  7 10  2  0  0  0  0
  7 22  1  0  0  0  0
  8 26  1  0  0  0  0
  9 26  2  0  0  0  0
 10 27  1  0  0  0  0
 11 12  2  0  0  0  0
 11 28  1  0  0  0  0
 12 30  1  0  0  0  0
 13 19  2  0  0  0  0
 13 25  1  0  0  0  0
 14 24  1  0  0  0  0
 14 27  2  0  0  0  0
 15 25  2  0  0  0  0
 15 29  1  0  0  0  0
 16 30  2  0  0  0  0
 16 31  1  0  0  0  0
 17 32  1  0  0  0  0
 18 19  1  0  0  0  0
 18 29  2  0  0  0  0
 18 35  1  0  0  0  0
 19 36  1  0  0  0  0
 20 32  1  0  0  0  0
 20 33  2  0  0  0  0
 20 39  1  0  0  0  0
 21 23  2  0  0  0  0
 21 44  1  0  0  0  0
 22 24  2  0  0  0  0
 22 45  1  0  0  0  0
 23 56  1  0  0  0  0
 24 46  1  0  0  0  0
 25 70  1  0  0  0  0
 26 84  1  0  0  0  0
 27 86  1  0  0  0  0
 28 31  2  0  0  0  0
 28 84  1  0  0  0  0
 29 85  1  0  0  0  0
 30 87  1  0  0  0  0
 31 88  1  0  0  0  0
 32 69  2  0  0  0  0
 33 71  1  0  0  0  0
 33 74  1  0  0  0  0
 34 35  2  0  0  0  0
 34 47  1  0  0  0  0
 35 48  1  0  0  0  0
 36 37  2  0  0  0  0
 37 40  1  0  0  0  0
 38 65  1  0  0  0  0
 38 70  2  0  0  0  0
 39 75  1  0  0  0  0
 39 79  2  0  0  0  0
 40 72  1  0  0  0  0
 40 80  2  0  0  0  0
 41 57  1  0  0  0  0
 41 76  1  0  0  0  0
 41 81  2  0  0  0  0
 42 66  1  0  0  0  0
 42 73  1  0  0  0  0
 42 82  2  0  0  0  0
 43 67  1  0  0  0  0
 43 77  1  0  0  0  0
 43 83  2  0  0  0  0
 44 49  1  0  0  0  0
 45 57  1  0  0  0  0
 46 73  1  0  0  0  0
 47 50  1  0  0  0  0
 48 50  1  0  0  0  0
 49 52  1  0  0  0  0
 51 53  1  0  0  0  0
 51 54  1  0  0  0  0
 52 56  1  0  0  0  0
 53 58  1  0  0  0  0
 54 72  1  0  0  0  0
 55 58  1  0  0  0  0
 55 72  1  0  0  0  0
 56 76  1  0  0  0  0
 57 73  1  0  0  0  0
 58 71  1  0  0  0  0
 59 67  1  0  0  0  0
 60 68  1  0  0  0  0
 61 68  1  0  0  0  0
 62 68  1  0  0  0  0
 63 78  1  0  0  0  0
 64 85  1  0  0  0  0
 65 86  1  0  0  0  0
 66 68  1  0  0  0  0
 66 77  1  0  0  0  0
 67 78  1  0  0  0  0
 69 71  1  0  0  0  0
M  CHG  1  78   1
M  ISO  4  37 100  40 100  65 101  86 101
M  END
> <Batch ID>
0112

> <Smiles>
CNC(C)C(=O)NC(C(=O)N1Cc2cc([101O:1][101CH:1]=CNc3cc(C=[100CH:0][100C:0](=O)N4CCCC(n5nc(-c6ccc(Oc7ccc(F)cc7F)cc6)c(C(N)=O)c5N)C4)c(C4=CCCC4)c(OC)c3)ccc2CC1C(=O)NC1CCCc2ccccc21)C(C)(C)C

> <Shape>
0.297

> <Color>
0.103

> <Negative vol penalty>
0.000

$$$$

  -OEChem-04052301313D

 88 97  0     1  0  0  0  0  0999 V2000
  -25.1978  -32.3487   20.2770 C   0  0  0  0  0  0  0  0  0  0  0  0
  -25.3594  -31.3622   21.2446 C   0  0  0  0  0  0  0  0  0  0  0  0
  -24.1658   -9.7106   20.9730 C   0  0  0  0  0  0  0  0  0  0  0  0
  -24.7299  -10.5184   23.1790 C   0  0  0  0  0  0  0  0  0  0  0  0
  -25.5908  -32.1045   18.9618 C   0  0  0  0  0  0  0  0  0  0  0  0
  -25.9132  -30.1305   20.8971 C   0  0  0  0  0  0  0  0  0  0  0  0
  -29.5240  -26.6068   24.3687 C   0  0  0  0  0  0  0  0  0  0  0  0
  -23.7680   -8.4913   21.5212 C   0  0  0  0  0  0  0  0  0  0  0  0
  -24.3321   -9.2990   23.7272 C   0  0  0  0  0  0  0  0  0  0  0  0
  -29.2633  -25.4887   25.1596 C   0  0  0  0  0  0  0  0  0  0  0  0
  -21.0779   -7.2531   23.1531 C   0  0  0  0  0  0  0  0  0  0  0  0
  -19.8763   -6.7030   22.7070 C   0  0  0  0  0  0  0  0  0  0  0  0
  -26.9378  -20.9853   23.0179 C   0  0  0  0  0  0  0  0  0  0  0  0
  -29.9221  -24.0529   23.3366 C   0  0  0  0  0  0  0  0  0  0  0  0
  -28.5955  -20.0488   24.5053 C   0  0  0  0  0  0  0  0  0  0  0  0
  -21.0602   -4.7440   21.9337 C   0  0  0  0  0  0  0  0  0  0  0  0
  -24.6468  -10.7242   21.8019 C   0  0  0  0  0  0  0  0  0  0  0  0
  -27.5719  -20.3825   21.9316 C   0  0  0  0  0  0  0  0  0  0  0  0
  -24.2581  -13.1224   21.0240 C   0  0  0  0  0  0  0  0  0  0  0  0
  -26.1585  -30.8727   18.6001 C   0  0  0  0  0  0  0  0  0  0  0  0
  -29.9760  -26.4559   23.0498 C   0  0  0  0  0  0  0  0  0  0  0  0
  -26.3129  -29.8692   19.5755 C   0  0  0  0  0  0  0  0  0  0  0  0
  -30.1902  -25.1707   22.5318 C   0  0  0  0  0  0  0  0  0  0  0  0
  -29.2296  -19.4459   23.4190 C   0  0  0  0  0  0  0  0  0  0  0  0
  -28.7178  -19.6128   22.1322 C   0  0  0  0  0  0  0  0  0  0  0  0
  -27.4496  -20.8185   24.3048 C   0  0  0  0  0  0  0  0  0  0  0  0
  -23.8511   -8.2855   22.8983 C   0  0  0  0  0  0  0  0  0  0  0  0
  -29.4595  -24.2115   24.6427 C   0  0  0  0  0  0  0  0  0  0  0  0
  -22.2708   -6.5487   22.9894 C   0  0  0  0  0  0  0  0  0  0  0  0
  -19.8674   -5.4485   22.0973 C   0  0  0  0  0  0  0  0  0  0  0  0
  -22.2619   -5.2942   22.3797 C   0  0  0  0  0  0  0  0  0  0  0  0
  -25.0583  -11.9838   21.2361 C   0  0  0  0  0  0  0  0  0  0  0  0
  -25.1123  -14.0438   20.4691 C   0  0  0  0  0  0  0  0  0  0  0  0
  -25.4194  -21.7147   25.5312 C   0  0  0  0  0  0  0  0  0  0  0  0
  -26.9014  -21.7618   20.0177 C   0  0  0  0  0  0  0  0  0  0  0  0
  -27.0114  -20.5777   20.6006 C   0  0  0  0  0  0  0  0  0  0  0  0
  -22.8671  -13.3288   21.3036 C   0  0  0  0  0  0  0  0  0  0  0  0
  -28.8465  -27.2500   20.1867 C   0  0  0  0  0  0  0  0  0  0  0  0
  -31.7351  -26.1714   19.1791 C   0  0  0  0  0  0  0  0  0  0  0  0
  -34.4520  -24.1900   19.7617 C   0  0  0  0  0  0  0  0  0  0  0  0
  -30.0469  -16.6474   20.3419 C   0  0  0  0  0  0  0  0  0  0  0  0
  -26.5245  -30.6382   17.1559 C   0  0  0  0  0  0  0  0  0  0  0  0
  -30.2782  -27.6724   22.2184 C   0  0  0  0  0  0  0  0  0  0  0  0
  -30.6936  -24.9550   21.1287 C   0  0  0  0  0  0  0  0  0  0  0  0
  -25.1896  -22.3488   26.8826 C   0  0  0  0  0  0  0  0  0  0  0  0
  -27.4482  -29.4407   16.9483 C   0  0  0  0  0  0  0  0  0  0  0  0
  -26.4273  -21.9615   27.6695 C   0  0  0  0  0  0  0  0  0  0  0  0
  -29.8098  -13.5132   18.6696 C   0  0  0  0  0  0  0  0  0  0  0  0
  -26.9459  -28.2359   17.7377 C   0  0  0  0  0  0  0  0  0  0  0  0
  -28.4902  -12.9276   19.1754 C   0  0  0  0  0  0  0  0  0  0  0  0
  -30.5390  -14.2894   19.7639 C   0  0  0  0  0  0  0  0  0  0  0  0
  -28.4156  -14.7517   20.9264 C   0  0  0  0  0  0  0  0  0  0  0  0
  -26.9325  -28.5292   19.2428 C   0  0  1  0  0  0  0  0  0  0  0  0
  -30.2443  -27.3947   20.7187 C   0  0  1  0  0  0  0  0  0  0  0  0
  -27.6170  -14.0071   19.8428 C   0  0  2  0  0  0  0  0  0  0  0  0
  -27.5201  -21.8820   26.6093 C   0  0  2  0  0  0  0  0  0  0  0  0
  -30.4550  -18.6268   23.6620 C   0  0  0  0  0  0  0  0  0  0  0  0
  -36.6337  -23.4882   18.7395 C   0  0  0  0  0  0  0  0  0  0  0  0
  -30.2389  -24.3479   17.2435 C   0  0  0  0  0  0  0  0  0  0  0  0
  -32.3515  -23.0352   16.9566 C   0  0  0  0  0  0  0  0  0  0  0  0
  -32.2769  -25.4370   16.2868 C   0  0  0  0  0  0  0  0  0  0  0  0
  -36.0018  -25.2923   22.0292 C   0  0  0  0  0  0  0  0  0  0  0  0
  -29.4073  -18.9606   20.9738 C   0  0  0  0  0  0  0  0  0  0  0  0
  -28.1857  -23.2445   26.4029 C   0  0  0  0  0  0  0  0  0  1  0  0
  -32.2841  -24.8347   18.7422 C   0  0  1  0  0  0  0  0  0  0  0  0
  -35.9411  -24.4705   19.6713 C   0  0  2  0  0  0  0  0  0  0  0  0
  -31.7765  -24.4174   17.3331 C   0  0  0  0  0  0  0  0  0  0  0  0
  -26.3236  -12.1631   20.8475 N   0  0  0  0  0  0  0  0  0  0  0  0
  -26.3249  -13.4251   20.3855 N   0  0  0  0  0  0  0  0  0  0  0  0
  -26.7984  -21.4367   25.4204 N   0  0  0  0  0  0  0  0  0  0  0  0
  -30.9686  -26.1757   20.3531 N   0  0  0  0  0  0  0  0  0  0  0  0
  -29.6564  -15.2982   20.3549 N   0  0  0  0  0  0  0  0  0  0  0  0
  -24.9369  -15.3148   20.0493 N   0  0  0  0  0  0  0  0  0  0  0  0
  -22.1372  -12.2773   21.8745 N   0  0  0  0  0  0  0  0  0  0  0  0
  -28.2707  -28.4408   19.7869 N   0  0  0  0  0  0  0  0  0  0  0  0
  -33.7357  -24.9351   18.8489 N   0  0  0  0  0  0  0  0  0  0  0  0
  -29.1495  -17.5389   20.9169 N   0  0  0  0  0  0  0  0  0  0  0  0
  -36.5708  -24.3647   21.0179 N   0  3  0  0  0  0  0  0  0  0  0  0
  -24.5115  -21.5423   24.7307 O   0  0  0  0  0  0  0  0  0  0  0  0
  -22.2847  -14.4079   21.0395 O   0  0  0  0  0  0  0  0  0  0  0  0
  -28.3294  -26.1400   20.1409 O   0  0  0  0  0  0  0  0  0  0  0  0
  -31.9832  -27.1758   18.5074 O   0  0  0  0  0  0  0  0  0  0  0  0
  -33.9725  -23.3873   20.5594 O   0  0  0  0  0  0  0  0  0  0  0  0
  -31.1137  -17.0299   19.8494 O   0  0  0  0  0  0  0  0  0  0  0  0
  -23.4628   -7.0958   23.4336 O   0  0  0  0  0  0  0  0  0  0  0  0
  -29.2052  -23.1184   25.4124 O   0  0  0  0  0  0  0  0  0  1  0  0
  -18.7132   -4.9196   21.6704 F   0  0  0  0  0  0  0  0  0  0  0  0
  -23.4044   -4.6122   22.2208 F   0  0  0  0  0  0  0  0  0  0  0  0
  1  2  1  0  0  0  0
  1  5  2  0  0  0  0
  2  6  2  0  0  0  0
  3  8  2  0  0  0  0
  3 17  1  0  0  0  0
  4  9  1  0  0  0  0
  4 17  2  0  0  0  0
  5 20  1  0  0  0  0
  6 22  1  0  0  0  0
  7 10  2  0  0  0  0
  7 21  1  0  0  0  0
  8 27  1  0  0  0  0
  9 27  2  0  0  0  0
 10 28  1  0  0  0  0
 11 12  2  0  0  0  0
 11 29  1  0  0  0  0
 12 30  1  0  0  0  0
 13 18  1  0  0  0  0
 13 26  2  0  0  0  0
 14 23  1  0  0  0  0
 14 28  2  0  0  0  0
 15 24  2  0  0  0  0
 15 26  1  0  0  0  0
 16 30  2  0  0  0  0
 16 31  1  0  0  0  0
 17 32  1  0  0  0  0
 18 25  2  0  0  0  0
 18 36  1  0  0  0  0
 19 32  1  0  0  0  0
 19 33  2  0  0  0  0
 19 37  1  0  0  0  0
 20 22  2  0  0  0  0
 20 42  1  0  0  0  0
 21 23  2  0  0  0  0
 21 43  1  0  0  0  0
 22 53  1  0  0  0  0
 23 44  1  0  0  0  0
 24 25  1  0  0  0  0
 24 57  1  0  0  0  0
 25 63  1  0  0  0  0
 26 70  1  0  0  0  0
 27 85  1  0  0  0  0
 28 86  1  0  0  0  0
 29 31  2  0  0  0  0
 29 85  1  0  0  0  0
 30 87  1  0  0  0  0
 31 88  1  0  0  0  0
 32 68  2  0  0  0  0
 33 69  1  0  0  0  0
 33 73  1  0  0  0  0
 34 45  1  0  0  0  0
 34 70  1  0  0  0  0
 34 79  2  0  0  0  0
 35 36  2  0  0  0  0
 37 74  1  0  0  0  0
 37 80  2  0  0  0  0
 38 54  1  0  0  0  0
 38 75  1  0  0  0  0
 38 81  2  0  0  0  0
 39 65  1  0  0  0  0
 39 71  1  0  0  0  0
 39 82  2  0  0  0  0
 40 66  1  0  0  0  0
 40 76  1  0  0  0  0
 40 83  2  0  0  0  0
 41 72  1  0  0  0  0
 41 77  1  0  0  0  0
 41 84  2  0  0  0  0
 42 46  1  0  0  0  0
 43 54  1  0  0  0  0
 44 71  1  0  0  0  0
 45 47  1  0  0  0  0
 46 49  1  0  0  0  0
 47 56  1  0  0  0  0
 48 50  1  0  0  0  0
 48 51  1  0  0  0  0
 49 53  1  0  0  0  0
 50 55  1  0  0  0  0
 51 72  1  0  0  0  0
 52 55  1  0  0  0  0
 52 72  1  0  0  0  0
 53 75  1  0  0  0  0
 54 71  1  0  0  0  0
 55 69  1  0  0  0  0
 56 64  1  0  0  0  0
 56 70  1  0  0  0  0
 58 66  1  0  0  0  0
 59 67  1  0  0  0  0
 60 67  1  0  0  0  0
 61 67  1  0  0  0  0
 62 78  1  0  0  0  0
 63 77  1  0  0  0  0
 64 86  1  0  0  0  0
 65 67  1  0  0  0  0
 65 76  1  0  0  0  0
 66 78  1  0  0  0  0
 68 69  1  0  0  0  0
M  CHG  1  78   1
M  ISO  4  41 100  64 101  77 100  86 101
M  END
> <Batch ID>
0112

> <Smiles>
C=Cc1cc(N2C(=O)CCC2[101CH2:1][101O:1]c2ccc3c(c2)CN(C(=O)C(NC(=O)C(C)NC)C(C)(C)C)C(C(=O)NC2CCCc4ccccc42)C3)cc(C)c1C[100NH:0][100C:0](=O)N1CCCC(n2nc(-c3ccc(Oc4ccc(F)cc4F)cc3)c(C(N)=O)c2N)C1

> <Shape>
0.233

> <Color>
0.115

> <Negative vol penalty>
0.000

$$$$

  -OEChem-04052301313D

 83 91  0     1  0  0  0  0  0999 V2000
  -25.1337  -17.9098   22.2177 C   0  0  0  0  0  0  0  0  0  0  0  0
  -25.6759  -19.1900   22.2244 C   0  0  0  0  0  0  0  0  0  0  0  0
  -26.4794  -13.0326   21.4359 C   0  0  0  0  0  0  0  0  0  0  0  0
  -26.3143  -13.6009   19.0935 C   0  0  0  0  0  0  0  0  0  0  0  0
  -23.7954  -17.7256   21.8768 C   0  0  0  0  0  0  0  0  0  0  0  0
  -24.8771  -20.2875   21.9018 C   0  0  0  0  0  0  0  0  0  0  0  0
  -26.8618  -24.7492   22.5005 C   0  0  0  0  0  0  0  0  0  0  0  0
  -25.1960  -12.4879   21.3942 C   0  0  0  0  0  0  0  0  0  0  0  0
  -25.0309  -13.0561   19.0518 C   0  0  0  0  0  0  0  0  0  0  0  0
  -27.8550  -25.2511   21.6607 C   0  0  0  0  0  0  0  0  0  0  0  0
  -23.7381   -9.6249   20.3402 C   0  0  0  0  0  0  0  0  0  0  0  0
  -23.5387   -8.3880   20.9534 C   0  0  0  0  0  0  0  0  0  0  0  0
  -26.2166  -26.6408   20.5635 C   0  0  0  0  0  0  0  0  0  0  0  0
  -29.0470  -22.7162   15.3663 C   0  0  0  0  0  0  0  0  0  0  0  0
  -29.5072  -20.4737   16.1387 C   0  0  0  0  0  0  0  0  0  0  0  0
  -29.6914  -22.3383   17.6640 C   0  0  0  0  0  0  0  0  0  0  0  0
  -21.9045   -9.3830   22.4288 C   0  0  0  0  0  0  0  0  0  0  0  0
  -27.0385  -13.5892   20.2855 C   0  0  0  0  0  0  0  0  0  0  0  0
  -29.5792  -13.4864   20.0806 C   0  0  0  0  0  0  0  0  0  0  0  0
  -22.9837  -18.8207   21.5379 C   0  0  0  0  0  0  0  0  0  0  0  0
  -25.5342  -25.1819   22.3707 C   0  0  0  0  0  0  0  0  0  0  0  0
  -23.5179  -20.1247   21.5783 C   0  0  0  0  0  0  0  0  0  0  0  0
  -25.2089  -26.1447   21.4046 C   0  0  0  0  0  0  0  0  0  0  0  0
  -29.1391  -21.3472   15.1154 C   0  0  0  0  0  0  0  0  0  0  0  0
  -29.3233  -23.2117   16.6406 C   0  0  0  0  0  0  0  0  0  0  0  0
  -29.7834  -20.9693   17.4130 C   0  0  0  0  0  0  0  0  0  0  0  0
  -24.4717  -12.4996   20.2022 C   0  0  0  0  0  0  0  0  0  0  0  0
  -27.5320  -26.1949   20.6901 C   0  0  0  0  0  0  0  0  0  0  0  0
  -23.0209  -10.7409   20.7714 C   0  0  0  0  0  0  0  0  0  0  0  0
  -22.6219   -8.2671   21.9977 C   0  0  0  0  0  0  0  0  0  0  0  0
  -22.1040  -10.6199   21.8156 C   0  0  0  0  0  0  0  0  0  0  0  0
  -28.3640  -14.1526   20.3281 C   0  0  0  0  0  0  0  0  0  0  0  0
  -30.5407  -14.4530   20.2465 C   0  0  0  0  0  0  0  0  0  0  0  0
  -30.3179  -25.1631   17.2945 C   0  0  0  0  0  0  0  0  0  0  0  0
  -29.8176  -12.1162   19.7318 C   0  0  0  0  0  0  0  0  0  0  0  0
  -22.7739  -23.7718   21.6665 C   0  0  0  0  0  0  0  0  0  0  0  0
  -21.5494  -26.6914   22.3728 C   0  0  0  0  0  0  0  0  0  0  0  0
  -22.0495  -30.0572   22.6330 C   0  0  0  0  0  0  0  0  0  0  0  0
  -30.4656  -20.4091   19.7725 C   0  0  0  0  0  0  0  0  0  0  0  0
  -21.5398  -18.5650   21.1844 C   0  0  0  0  0  0  0  0  0  0  0  0
  -24.4794  -24.6506   23.3020 C   0  0  0  0  0  0  0  0  0  0  0  0
  -23.8024  -26.6571   21.2380 C   0  0  0  0  0  0  0  0  0  0  0  0
  -20.8972  -19.7260   20.4325 C   0  0  0  0  0  0  0  0  0  0  0  0
  -31.3958  -18.5126   22.6387 C   0  0  0  0  0  0  0  0  0  0  0  0
  -21.1718  -21.0329   21.1615 C   0  0  0  0  0  0  0  0  0  0  0  0
  -30.8398  -17.1172   22.3462 C   0  0  0  0  0  0  0  0  0  0  0  0
  -30.4672  -19.6121   22.1262 C   0  0  0  0  0  0  0  0  0  0  0  0
  -29.5334  -18.1008   20.4193 C   0  0  0  0  0  0  0  0  0  0  0  0
  -22.6761  -21.3303   21.2012 C   0  0  1  0  0  0  0  0  0  0  0  0
  -23.0667  -24.7804   22.7410 C   0  0  1  0  0  0  0  0  0  0  0  0
  -30.4654  -16.9600   20.8593 C   0  0  2  0  0  0  0  0  0  0  0  0
  -28.8439  -20.8175   13.7526 C   0  0  0  0  0  0  0  0  0  0  0  0
  -20.8513  -32.1891   23.1957 C   0  0  0  0  0  0  0  0  0  0  0  0
  -20.1772  -26.6366   19.6481 C   0  0  0  0  0  0  0  0  0  0  0  0
  -19.8068  -29.1034   19.8628 C   0  0  0  0  0  0  0  0  0  0  0  0
  -18.7695  -27.5404   21.5071 C   0  0  0  0  0  0  0  0  0  0  0  0
  -23.8563  -30.6073   24.9116 C   0  0  0  0  0  0  0  0  0  0  0  0
  -30.3360  -26.6338   17.6104 C   0  0  0  0  0  0  0  0  0  0  0  0
  -30.7498  -26.8740   19.0572 C   0  0  0  0  0  0  0  0  0  0  0  0
  -29.8243  -26.1902   20.0566 C   0  0  0  0  0  0  0  0  0  1  0  0
  -21.2632  -27.9490   21.5883 C   0  0  1  0  0  0  0  0  0  0  0  0
  -21.6995  -31.0457   23.7306 C   0  0  2  0  0  0  0  0  0  0  0  0
  -20.0304  -27.7965   20.6532 C   0  0  0  0  0  0  0  0  0  0  0  0
  -28.5351  -15.4427   20.6285 N   0  0  0  0  0  0  0  0  0  0  0  0
  -29.2302  -24.5906   16.8934 N   0  0  0  0  0  0  0  0  0  0  0  0
  -29.8691  -15.5949   20.5709 N   0  0  0  0  0  0  0  0  0  0  0  0
  -22.8052  -26.1025   22.1683 N   0  0  0  0  0  0  0  0  0  0  0  0
  -30.1595  -19.4002   20.7101 N   0  0  0  0  0  0  0  0  0  0  0  0
  -31.8866  -14.4292   20.1451 N   0  0  0  0  0  0  0  0  0  0  0  0
  -28.7167  -11.2586   19.6021 N   0  0  0  0  0  0  0  0  0  0  0  0
  -30.1580  -20.0820   18.4523 N   0  0  0  0  0  0  0  0  0  0  0  0
  -22.9112  -22.4588   22.0747 N   0  0  0  0  0  0  0  0  0  0  0  0
  -21.1404  -29.0225   22.5685 N   0  0  0  0  0  0  0  0  0  0  0  0
  -22.9395  -31.6190   24.3261 N   0  3  0  0  0  0  0  0  0  0  0  0
  -30.9737  -11.6620   19.5570 O   0  0  0  0  0  0  0  0  0  0  0  0
  -22.4462  -24.1563   20.5500 O   0  0  0  0  0  0  0  0  0  0  0  0
  -20.6930  -26.2518   23.1442 O   0  0  0  0  0  0  0  0  0  0  0  0
  -23.0292  -30.1916   21.9031 O   0  0  0  0  0  0  0  0  0  0  0  0
  -30.9891  -21.4734   20.1121 O   0  0  0  0  0  0  0  0  0  0  0  0
  -23.2194  -11.9679   20.1611 O   0  0  0  0  0  0  0  0  0  0  0  0
  -28.4994  -26.6860   19.8687 O   0  0  0  0  0  0  0  0  0  1  0  0
  -22.4293   -7.0789   22.5854 F   0  0  0  0  0  0  0  0  0  0  0  0
  -21.4111  -11.6882   22.2333 F   0  0  0  0  0  0  0  0  0  0  0  0
  1  2  1  0  0  0  0
  1  5  2  0  0  0  0
  2  6  2  0  0  0  0
  3  8  2  0  0  0  0
  3 18  1  0  0  0  0
  4  9  1  0  0  0  0
  4 18  2  0  0  0  0
  5 20  1  0  0  0  0
  6 22  1  0  0  0  0
  7 10  2  0  0  0  0
  7 21  1  0  0  0  0
  8 27  1  0  0  0  0
  9 27  2  0  0  0  0
 10 28  1  0  0  0  0
 11 12  2  0  0  0  0
 11 29  1  0  0  0  0
 12 30  1  0  0  0  0
 13 23  1  0  0  0  0
 13 28  2  0  0  0  0
 14 24  2  0  0  0  0
 14 25  1  0  0  0  0
 15 24  1  0  0  0  0
 15 26  2  0  0  0  0
 16 25  2  0  0  0  0
 16 26  1  0  0  0  0
 17 30  2  0  0  0  0
 17 31  1  0  0  0  0
 18 32  1  0  0  0  0
 19 32  1  0  0  0  0
 19 33  2  0  0  0  0
 19 35  1  0  0  0  0
 20 22  2  0  0  0  0
 20 40  1  0  0  0  0
 21 23  2  0  0  0  0
 21 41  1  0  0  0  0
 22 49  1  0  0  0  0
 23 42  1  0  0  0  0
 24 52  1  0  0  0  0
 25 65  1  0  0  0  0
 26 71  1  0  0  0  0
 27 80  1  0  0  0  0
 28 81  1  0  0  0  0
 29 31  2  0  0  0  0
 29 80  1  0  0  0  0
 30 82  1  0  0  0  0
 31 83  1  0  0  0  0
 32 64  2  0  0  0  0
 33 66  1  0  0  0  0
 33 69  1  0  0  0  0
 34 58  1  0  0  0  0
 34 65  2  0  0  0  0
 35 70  1  0  0  0  0
 35 75  2  0  0  0  0
 36 50  1  0  0  0  0
 36 72  1  0  0  0  0
 36 76  2  0  0  0  0
 37 61  1  0  0  0  0
 37 67  1  0  0  0  0
 37 77  2  0  0  0  0
 38 62  1  0  0  0  0
 38 73  1  0  0  0  0
 38 78  2  0  0  0  0
 39 68  1  0  0  0  0
 39 71  1  0  0  0  0
 39 79  2  0  0  0  0
 40 43  1  0  0  0  0
 41 50  1  0  0  0  0
 42 67  1  0  0  0  0
 43 45  1  0  0  0  0
 44 46  1  0  0  0  0
 44 47  1  0  0  0  0
 45 49  1  0  0  0  0
 46 51  1  0  0  0  0
 47 68  1  0  0  0  0
 48 51  1  0  0  0  0
 48 68  1  0  0  0  0
 49 72  1  0  0  0  0
 50 67  1  0  0  0  0
 51 66  1  0  0  0  0
 53 62  1  0  0  0  0
 54 63  1  0  0  0  0
 55 63  1  0  0  0  0
 56 63  1  0  0  0  0
 57 74  1  0  0  0  0
 58 59  1  0  0  0  0
 59 60  1  0  0  0  0
 60 81  1  0  0  0  0
 61 63  1  0  0  0  0
 61 73  1  0  0  0  0
 62 74  1  0  0  0  0
 64 66  1  0  0  0  0
M  CHG  1  74   1
M  ISO  4  39 100  60 101  71 100  81 101
M  END
> <Batch ID>
0112

> <Smiles>
CNC(C)C(=O)NC(C(=O)N1Cc2cc([101O:1][101CH2:1]CC=CNc3cc(C)cc([100NH:0][100C:0](=O)N4CCCC(n5nc(-c6ccc(Oc7ccc(F)cc7F)cc6)c(C(N)=O)c5N)C4)c3)ccc2CC1C(=O)NC1CCCc2ccccc21)C(C)(C)C

> <Shape>
0.251

> <Color>
0.081

> <Negative vol penalty>
0.000

$$$$

  -OEChem-04052301313D

 87 96  0     1  0  0  0  0  0999 V2000
  -26.3247  -36.3235   23.4898 C   0  0  0  0  0  0  0  0  0  0  0  0
  -26.9501  -35.1504   23.0799 C   0  0  0  0  0  0  0  0  0  0  0  0
  -25.3633  -10.7557   23.4731 C   0  0  0  0  0  0  0  0  0  0  0  0
  -25.9638  -12.9970   24.1463 C   0  0  0  0  0  0  0  0  0  0  0  0
  -25.0746  -36.2676   24.1047 C   0  0  0  0  0  0  0  0  0  0  0  0
  -26.3261  -33.9204   23.2857 C   0  0  0  0  0  0  0  0  0  0  0  0
  -26.5813  -29.0070   19.6390 C   0  0  0  0  0  0  0  0  0  0  0  0
  -25.4996  -10.3230   24.7921 C   0  0  0  0  0  0  0  0  0  0  0  0
  -26.1001  -12.5643   25.4654 C   0  0  0  0  0  0  0  0  0  0  0  0
  -27.3507  -27.8451   19.6830 C   0  0  0  0  0  0  0  0  0  0  0  0
  -28.0138   -9.4990   26.8955 C   0  0  0  0  0  0  0  0  0  0  0  0
  -28.7027   -8.3067   27.1178 C   0  0  0  0  0  0  0  0  0  0  0  0
  -25.5445  -26.6984   20.7974 C   0  0  0  0  0  0  0  0  0  0  0  0
  -30.0629  -19.7622   18.4670 C   0  0  0  0  0  0  0  0  0  0  0  0
  -26.7314   -7.3589   28.1437 C   0  0  0  0  0  0  0  0  0  0  0  0
  -31.3208  -21.3499   17.2207 C   0  0  0  0  0  0  0  0  0  0  0  0
  -25.5955  -12.0927   23.1502 C   0  0  0  0  0  0  0  0  0  0  0  0
  -24.2968  -12.4857   20.9900 C   0  0  0  0  0  0  0  0  0  0  0  0
  -24.4307  -35.0371   24.3094 C   0  0  0  0  0  0  0  0  0  0  0  0
  -25.2896  -29.0264   20.1845 C   0  0  0  0  0  0  0  0  0  0  0  0
  -25.0669  -33.8479   23.9051 C   0  0  0  0  0  0  0  0  0  0  0  0
  -24.7598  -27.8611   20.7568 C   0  0  0  0  0  0  0  0  0  0  0  0
  -30.5453  -21.0592   18.3315 C   0  0  0  0  0  0  0  0  0  0  0  0
  -30.3665  -18.8090   17.5013 C   0  0  0  0  0  0  0  0  0  0  0  0
  -25.8680  -11.2273   25.7883 C   0  0  0  0  0  0  0  0  0  0  0  0
  -26.8334  -26.6915   20.2648 C   0  0  0  0  0  0  0  0  0  0  0  0
  -26.6837   -9.6213   27.2975 C   0  0  0  0  0  0  0  0  0  0  0  0
  -28.0615   -7.2366   27.7418 C   0  0  0  0  0  0  0  0  0  0  0  0
  -26.0425   -8.5512   27.9215 C   0  0  0  0  0  0  0  0  0  0  0  0
  -25.4554  -12.5402   21.7878 C   0  0  0  0  0  0  0  0  0  0  0  0
  -31.1499  -19.2005   16.4276 C   0  0  0  0  0  0  0  0  0  0  0  0
  -24.6812  -13.0297   19.7888 C   0  0  0  0  0  0  0  0  0  0  0  0
  -29.5863  -24.2978   19.9143 C   0  0  0  0  0  0  0  0  0  0  0  0
  -29.5710  -23.2564   19.0471 C   0  0  0  0  0  0  0  0  0  0  0  0
  -30.4090  -24.1658   21.1636 C   0  0  0  0  0  0  0  0  0  0  0  0
  -22.9900  -11.9879   21.3064 C   0  0  0  0  0  0  0  0  0  0  0  0
  -23.8691  -30.6344   22.5297 C   0  0  0  0  0  0  0  0  0  0  0  0
  -21.2148  -29.1310   21.4266 C   0  0  0  0  0  0  0  0  0  0  0  0
  -19.8743  -26.4856   19.7379 C   0  0  0  0  0  0  0  0  0  0  0  0
  -29.0791  -16.9739   18.6672 C   0  0  0  0  0  0  0  0  0  0  0  0
  -23.1010  -35.0232   25.0210 C   0  0  0  0  0  0  0  0  0  0  0  0
  -24.4624  -30.2801   20.1052 C   0  0  0  0  0  0  0  0  0  0  0  0
  -23.3709  -27.8239   21.3384 C   0  0  0  0  0  0  0  0  0  0  0  0
  -31.2831  -22.9457   21.3257 C   0  0  0  0  0  0  0  0  0  0  0  0
  -22.3399  -33.7093   24.8639 C   0  0  0  0  0  0  0  0  0  0  0  0
  -29.0023  -13.2815   17.6258 C   0  0  0  0  0  0  0  0  0  0  0  0
  -23.2667  -32.5228   25.1091 C   0  0  0  0  0  0  0  0  0  0  0  0
  -27.5560  -12.9472   17.9834 C   0  0  0  0  0  0  0  0  0  0  0  0
  -30.6687  -21.7216   20.6696 C   0  0  0  0  0  0  0  0  0  0  0  0
  -29.2088  -14.7721   17.3882 C   0  0  0  0  0  0  0  0  0  0  0  0
  -27.9359  -14.9423   19.5345 C   0  0  0  0  0  0  0  0  0  0  0  0
  -24.4109  -32.4965   24.0885 C   0  0  1  0  0  0  0  0  0  0  0  0
  -23.3532  -30.3313   21.1514 C   0  0  1  0  0  0  0  0  0  0  0  0
  -26.9010  -14.0021   18.8970 C   0  0  2  0  0  0  0  0  0  0  0  0
  -28.7046  -23.3205   17.8041 C   0  0  0  0  0  0  0  0  0  0  0  0
  -17.6723  -25.5107   19.0320 C   0  0  0  0  0  0  0  0  0  0  0  0
  -20.7381  -28.1505   24.2764 C   0  0  0  0  0  0  0  0  0  0  0  0
  -19.1372  -26.4614   23.3531 C   0  0  0  0  0  0  0  0  0  0  0  0
  -18.6776  -28.8970   23.0716 C   0  0  0  0  0  0  0  0  0  0  0  0
  -20.5671  -26.7006   16.8687 C   0  0  0  0  0  0  0  0  0  0  0  0
  -28.8901  -25.6181   19.7416 C   0  0  0  0  0  0  0  0  0  1  0  0
  -20.5266  -27.8208   21.7244 C   0  0  1  0  0  0  0  0  0  0  0  0
  -18.8286  -26.4171   18.6395 C   0  0  2  0  0  0  0  0  0  0  0  0
  -19.7968  -27.8333   23.0973 C   0  0  0  0  0  0  0  0  0  0  0  0
  -31.6367  -20.4508   16.2619 N   0  0  0  0  0  0  0  0  0  0  0  0
  -26.4977  -13.0764   21.1474 N   0  0  0  0  0  0  0  0  0  0  0  0
  -25.9955  -13.3637   19.9344 N   0  0  0  0  0  0  0  0  0  0  0  0
  -30.2545  -22.0529   19.3016 N   0  0  0  0  0  0  0  0  0  0  0  0
  -22.6036  -29.0767   21.2424 N   0  0  0  0  0  0  0  0  0  0  0  0
  -28.7533  -15.6043   18.5112 N   0  0  0  0  0  0  0  0  0  0  0  0
  -31.4658  -18.2350   15.4384 N   0  0  0  0  0  0  0  0  0  0  0  0
  -24.0197  -13.2501   18.6328 N   0  0  0  0  0  0  0  0  0  0  0  0
  -22.0524  -12.8736   21.8548 N   0  0  0  0  0  0  0  0  0  0  0  0
  -29.8738  -17.4872   17.6388 N   0  0  0  0  0  0  0  0  0  0  0  0
  -23.9436  -31.9837   22.8184 N   0  0  0  0  0  0  0  0  0  0  0  0
  -19.6546  -27.5499   20.5866 N   0  0  0  0  0  0  0  0  0  0  0  0
  -19.4318  -25.8917   17.3822 N   0  3  0  0  0  0  0  0  0  0  0  0
  -30.4147  -25.0574   22.0121 O   0  0  0  0  0  0  0  0  0  0  0  0
  -22.6686  -10.7892   21.1240 O   0  0  0  0  0  0  0  0  0  0  0  0
  -24.1753  -29.7123   23.2766 O   0  0  0  0  0  0  0  0  0  0  0  0
  -20.5438  -30.1635   21.3528 O   0  0  0  0  0  0  0  0  0  0  0  0
  -20.7919  -25.6738   19.8356 O   0  0  0  0  0  0  0  0  0  0  0  0
  -28.6726  -17.6312   19.6277 O   0  0  0  0  0  0  0  0  0  0  0  0
  -26.0009  -10.8054   27.0755 O   0  0  0  0  0  0  0  0  0  0  0  0
  -27.5825  -25.5563   20.3097 O   0  0  0  0  0  0  0  0  0  1  0  0
  -28.7227   -6.0912   27.9537 F   0  0  0  0  0  0  0  0  0  0  0  0
  -24.7644   -8.6623   28.3088 F   0  0  0  0  0  0  0  0  0  0  0  0
  1  2  1  0  0  0  0
  1  5  2  0  0  0  0
  2  6  2  0  0  0  0
  3  8  2  0  0  0  0
  3 17  1  0  0  0  0
  4  9  1  0  0  0  0
  4 17  2  0  0  0  0
  5 19  1  0  0  0  0
  6 21  1  0  0  0  0
  7 10  2  0  0  0  0
  7 20  1  0  0  0  0
  8 25  1  0  0  0  0
  9 25  2  0  0  0  0
 10 26  1  0  0  0  0
 11 12  2  0  0  0  0
 11 27  1  0  0  0  0
 12 28  1  0  0  0  0
 13 22  1  0  0  0  0
 13 26  2  0  0  0  0
 14 23  2  0  0  0  0
 14 24  1  0  0  0  0
 15 28  2  0  0  0  0
 15 29  1  0  0  0  0
 16 23  1  0  0  0  0
 16 65  2  0  0  0  0
 17 30  1  0  0  0  0
 18 30  1  0  0  0  0
 18 32  2  0  0  0  0
 18 36  1  0  0  0  0
 19 21  2  0  0  0  0
 19 41  1  0  0  0  0
 20 22  2  0  0  0  0
 20 42  1  0  0  0  0
 21 52  1  0  0  0  0
 22 43  1  0  0  0  0
 23 68  1  0  0  0  0
 24 31  2  0  0  0  0
 24 74  1  0  0  0  0
 25 84  1  0  0  0  0
 26 85  1  0  0  0  0
 27 29  2  0  0  0  0
 27 84  1  0  0  0  0
 28 86  1  0  0  0  0
 29 87  1  0  0  0  0
 30 66  2  0  0  0  0
 31 65  1  0  0  0  0
 31 71  1  0  0  0  0
 32 67  1  0  0  0  0
 32 72  1  0  0  0  0
 33 34  2  0  0  0  0
 33 35  1  0  0  0  0
 33 61  1  0  0  0  0
 34 55  1  0  0  0  0
 34 68  1  0  0  0  0
 35 44  1  0  0  0  0
 35 78  2  0  0  0  0
 36 73  1  0  0  0  0
 36 79  2  0  0  0  0
 37 53  1  0  0  0  0
 37 75  1  0  0  0  0
 37 80  2  0  0  0  0
 38 62  1  0  0  0  0
 38 69  1  0  0  0  0
 38 81  2  0  0  0  0
 39 63  1  0  0  0  0
 39 76  1  0  0  0  0
 39 82  2  0  0  0  0
 40 70  1  0  0  0  0
 40 74  1  0  0  0  0
 40 83  2  0  0  0  0
 41 45  1  0  0  0  0
 42 53  1  0  0  0  0
 43 69  1  0  0  0  0
 44 49  1  0  0  0  0
 45 47  1  0  0  0  0
 46 48  1  0  0  0  0
 46 50  1  0  0  0  0
 47 52  1  0  0  0  0
 48 54  1  0  0  0  0
 49 68  1  0  0  0  0
 50 70  1  0  0  0  0
 51 54  1  0  0  0  0
 51 70  1  0  0  0  0
 52 75  1  0  0  0  0
 53 69  1  0  0  0  0
 54 67  1  0  0  0  0
 56 63  1  0  0  0  0
 57 64  1  0  0  0  0
 58 64  1  0  0  0  0
 59 64  1  0  0  0  0
 60 77  1  0  0  0  0
 61 85  1  0  0  0  0
 62 64  1  0  0  0  0
 62 76  1  0  0  0  0
 63 77  1  0  0  0  0
 66 67  1  0  0  0  0
M  CHG  1  77   1
M  ISO  4  40 100  61 101  74 100  85 101
M  END
> <Batch ID>
0112

> <Smiles>
CNC(C)C(=O)NC(C(=O)N1Cc2cc([101O:1][101CH2:1]C3=C(C)N(c4cnc(N)c([100NH:0][100C:0](=O)N5CCCC(n6nc(-c7ccc(Oc8ccc(F)cc8F)cc7)c(C(N)=O)c6N)C5)c4)CCC3=O)ccc2CC1C(=O)NC1CCCc2ccccc21)C(C)(C)C

> <Shape>
0.269

> <Color>
0.062

> <Negative vol penalty>
0.000

$$$$

  -OEChem-04052301313D

 85 93  0     1  0  0  0  0  0999 V2000
  -27.1175  -30.2569   30.5393 C   0  0  0  0  0  0  0  0  0  0  0  0
  -27.4549  -29.5908   29.3654 C   0  0  0  0  0  0  0  0  0  0  0  0
  -23.3851   -9.6492   19.8987 C   0  0  0  0  0  0  0  0  0  0  0  0
  -23.9482   -9.8237   22.2417 C   0  0  0  0  0  0  0  0  0  0  0  0
  -26.2905  -31.3782   30.4901 C   0  0  0  0  0  0  0  0  0  0  0  0
  -26.9644  -30.0452   28.1417 C   0  0  0  0  0  0  0  0  0  0  0  0
  -30.5240  -30.1528   24.5413 C   0  0  0  0  0  0  0  0  0  0  0  0
  -22.7558   -8.4282   20.1409 C   0  0  0  0  0  0  0  0  0  0  0  0
  -23.3189   -8.6027   22.4839 C   0  0  0  0  0  0  0  0  0  0  0  0
  -30.8643  -28.9389   23.9459 C   0  0  0  0  0  0  0  0  0  0  0  0
  -20.1606   -7.4633   22.8683 C   0  0  0  0  0  0  0  0  0  0  0  0
  -19.3190   -7.3785   23.9774 C   0  0  0  0  0  0  0  0  0  0  0  0
  -31.1276  -18.1356   21.8639 C   0  0  0  0  0  0  0  0  0  0  0  0
  -29.4628  -29.4787   22.0582 C   0  0  0  0  0  0  0  0  0  0  0  0
  -28.9402  -18.3396   22.8693 C   0  0  0  0  0  0  0  0  0  0  0  0
  -20.7029   -5.6227   24.8933 C   0  0  0  0  0  0  0  0  0  0  0  0
  -23.9814  -10.3469   20.9491 C   0  0  0  0  0  0  0  0  0  0  0  0
  -31.4465  -19.4227   22.2965 C   0  0  0  0  0  0  0  0  0  0  0  0
  -24.0496  -12.8888   20.7442 C   0  0  0  0  0  0  0  0  0  0  0  0
  -25.7975  -31.8523   29.2642 C   0  0  0  0  0  0  0  0  0  0  0  0
  -29.6404  -31.0354   23.9034 C   0  0  0  0  0  0  0  0  0  0  0  0
  -26.1289  -31.1732   28.0762 C   0  0  0  0  0  0  0  0  0  0  0  0
  -29.1148  -30.7042   22.6464 C   0  0  0  0  0  0  0  0  0  0  0  0
  -29.8744  -17.5940   22.1502 C   0  0  0  0  0  0  0  0  0  0  0  0
  -29.2592  -19.6267   23.3020 C   0  0  0  0  0  0  0  0  0  0  0  0
  -22.7226   -7.9049   21.4335 C   0  0  0  0  0  0  0  0  0  0  0  0
  -30.3315  -28.6004   22.7055 C   0  0  0  0  0  0  0  0  0  0  0  0
  -21.2734   -6.6277   22.7717 C   0  0  0  0  0  0  0  0  0  0  0  0
  -30.5124  -20.1682   23.0156 C   0  0  0  0  0  0  0  0  0  0  0  0
  -19.5902   -6.4582   24.9899 C   0  0  0  0  0  0  0  0  0  0  0  0
  -21.5445   -5.7074   23.7842 C   0  0  0  0  0  0  0  0  0  0  0  0
  -24.6322  -11.6080   20.6994 C   0  0  0  0  0  0  0  0  0  0  0  0
  -25.0780  -13.7448   20.4341 C   0  0  0  0  0  0  0  0  0  0  0  0
  -33.2015  -20.1582   20.7491 C   0  0  0  0  0  0  0  0  0  0  0  0
  -32.7626  -19.9640   21.9836 C   0  0  0  0  0  0  0  0  0  0  0  0
  -22.6996  -13.2706   21.0398 C   0  0  0  0  0  0  0  0  0  0  0  0
  -26.7859  -32.2467   24.6022 C   0  0  0  0  0  0  0  0  0  0  0  0
  -27.3014  -33.9918   21.9168 C   0  0  0  0  0  0  0  0  0  0  0  0
  -28.9049  -34.2905   18.9191 C   0  0  0  0  0  0  0  0  0  0  0  0
  -30.3614  -15.4132   20.9869 C   0  0  0  0  0  0  0  0  0  0  0  0
  -24.8684  -33.0403   29.2660 C   0  0  0  0  0  0  0  0  0  0  0  0
  -29.3042  -32.3528   24.5466 C   0  0  0  0  0  0  0  0  0  0  0  0
  -28.1778  -31.6259   21.9108 C   0  0  0  0  0  0  0  0  0  0  0  0
  -24.6947  -33.6798   27.8908 C   0  0  0  0  0  0  0  0  0  0  0  0
  -29.7204  -12.8059   18.6485 C   0  0  0  0  0  0  0  0  0  0  0  0
  -24.4456  -32.6101   26.8323 C   0  0  0  0  0  0  0  0  0  0  0  0
  -28.2915  -12.3672   18.9773 C   0  0  0  0  0  0  0  0  0  0  0  0
  -30.5024  -13.1799   19.9064 C   0  0  0  0  0  0  0  0  0  0  0  0
  -28.4197  -13.7302   21.1016 C   0  0  0  0  0  0  0  0  0  0  0  0
  -25.6368  -31.6502   26.7270 C   0  0  1  0  0  0  0  0  0  0  0  0
  -27.9922  -32.9462   24.0426 C   0  0  1  0  0  0  0  0  0  0  0  0
  -27.5724  -13.4055   19.8606 C   0  0  2  0  0  0  0  0  0  0  0  0
  -29.0951  -35.8078   16.9294 C   0  0  0  0  0  0  0  0  0  0  0  0
  -24.6029  -32.9937   20.9008 C   0  0  0  0  0  0  0  0  0  0  0  0
  -25.2703  -33.7381   18.6055 C   0  0  0  0  0  0  0  0  0  0  0  0
  -25.0605  -35.4098   20.4451 C   0  0  0  0  0  0  0  0  0  0  0  0
  -31.7919  -34.7391   19.3913 C   0  0  0  0  0  0  0  0  0  0  0  0
  -30.6122  -25.0095   22.3156 C   0  0  0  0  0  0  0  0  0  0  0  0
  -30.9041  -23.8165   23.2191 C   0  0  0  0  0  0  0  0  0  0  0  0
  -30.9673  -26.3268   22.9924 C   0  0  0  0  0  0  0  0  0  1  0  0
  -30.5096  -22.5024   22.5600 C   0  0  0  0  0  0  0  0  0  0  0  0
  -27.0124  -33.8029   20.4472 C   0  0  1  0  0  0  0  0  0  0  0  0
  -29.6631  -35.4471   18.2932 C   0  0  2  0  0  0  0  0  0  0  0  0
  -25.5026  -33.9677   20.1141 C   0  0  0  0  0  0  0  0  0  0  0  0
  -25.9299  -11.6425   20.3855 N   0  0  0  0  0  0  0  0  0  0  0  0
  -26.1713  -12.9554   20.2301 N   0  0  0  0  0  0  0  0  0  0  0  0
  -27.8743  -32.8997   22.5838 N   0  0  0  0  0  0  0  0  0  0  0  0
  -29.7622  -14.1705   20.6910 N   0  0  0  0  0  0  0  0  0  0  0  0
  -28.3026  -20.3688   24.0290 N   0  0  0  0  0  0  0  0  0  0  0  0
  -25.1446  -15.0882   20.3188 N   0  0  0  0  0  0  0  0  0  0  0  0
  -21.7705  -12.2643   21.3373 N   0  0  0  0  0  0  0  0  0  0  0  0
  -29.5502  -16.2865   21.7107 N   0  0  0  0  0  0  0  0  0  0  0  0
  -26.7156  -32.2633   25.9822 N   0  0  0  0  0  0  0  0  0  0  0  0
  -27.8858  -34.7308   19.7369 N   0  0  0  0  0  0  0  0  0  0  0  0
  -31.1010  -35.0932   18.1247 N   0  3  0  0  0  0  0  0  0  0  0  0
  -22.3243  -14.4675   21.0240 O   0  0  0  0  0  0  0  0  0  0  0  0
  -25.9779  -31.7314   23.8385 O   0  0  0  0  0  0  0  0  0  0  0  0
  -27.0354  -35.0711   22.4516 O   0  0  0  0  0  0  0  0  0  0  0  0
  -29.1860  -33.1140   18.7012 O   0  0  0  0  0  0  0  0  0  0  0  0
  -31.4994  -15.6931   20.6015 O   0  0  0  0  0  0  0  0  0  0  0  0
  -22.1084   -6.7136   21.6703 O   0  0  0  0  0  0  0  0  0  0  0  0
  -30.6615  -27.4159   22.1225 O   0  0  0  0  0  0  0  0  0  1  0  0
  -30.8196  -21.4337   23.4436 O   0  0  0  0  0  0  0  0  0  0  0  0
  -18.7828   -6.3780   26.0557 F   0  0  0  0  0  0  0  0  0  0  0  0
  -22.6127   -4.9029   23.6975 F   0  0  0  0  0  0  0  0  0  0  0  0
  1  2  1  0  0  0  0
  1  5  2  0  0  0  0
  2  6  2  0  0  0  0
  3  8  2  0  0  0  0
  3 17  1  0  0  0  0
  4  9  1  0  0  0  0
  4 17  2  0  0  0  0
  5 20  1  0  0  0  0
  6 22  1  0  0  0  0
  7 10  2  0  0  0  0
  7 21  1  0  0  0  0
  8 26  1  0  0  0  0
  9 26  2  0  0  0  0
 10 27  1  0  0  0  0
 11 12  2  0  0  0  0
 11 28  1  0  0  0  0
 12 30  1  0  0  0  0
 13 18  1  0  0  0  0
 13 24  2  0  0  0  0
 14 23  1  0  0  0  0
 14 27  2  0  0  0  0
 15 24  1  0  0  0  0
 15 25  2  0  0  0  0
 16 30  2  0  0  0  0
 16 31  1  0  0  0  0
 17 32  1  0  0  0  0
 18 29  2  0  0  0  0
 18 35  1  0  0  0  0
 19 32  1  0  0  0  0
 19 33  2  0  0  0  0
 19 36  1  0  0  0  0
 20 22  2  0  0  0  0
 20 41  1  0  0  0  0
 21 23  2  0  0  0  0
 21 42  1  0  0  0  0
 22 50  1  0  0  0  0
 23 43  1  0  0  0  0
 24 72  1  0  0  0  0
 25 29  1  0  0  0  0
 25 69  1  0  0  0  0
 26 81  1  0  0  0  0
 27 82  1  0  0  0  0
 28 31  2  0  0  0  0
 28 81  1  0  0  0  0
 29 83  1  0  0  0  0
 30 84  1  0  0  0  0
 31 85  1  0  0  0  0
 32 65  2  0  0  0  0
 33 66  1  0  0  0  0
 33 70  1  0  0  0  0
 34 35  2  0  0  0  0
 36 71  1  0  0  0  0
 36 76  2  0  0  0  0
 37 51  1  0  0  0  0
 37 73  1  0  0  0  0
 37 77  2  0  0  0  0
 38 62  1  0  0  0  0
 38 67  1  0  0  0  0
 38 78  2  0  0  0  0
 39 63  1  0  0  0  0
 39 74  1  0  0  0  0
 39 79  2  0  0  0  0
 40 68  1  0  0  0  0
 40 72  1  0  0  0  0
 40 80  2  0  0  0  0
 41 44  1  0  0  0  0
 42 51  1  0  0  0  0
 43 67  1  0  0  0  0
 44 46  1  0  0  0  0
 45 47  1  0  0  0  0
 45 48  1  0  0  0  0
 46 50  1  0  0  0  0
 47 52  1  0  0  0  0
 48 68  1  0  0  0  0
 49 52  1  0  0  0  0
 49 68  1  0  0  0  0
 50 73  1  0  0  0  0
 51 67  1  0  0  0  0
 52 66  1  0  0  0  0
 53 63  1  0  0  0  0
 54 64  1  0  0  0  0
 55 64  1  0  0  0  0
 56 64  1  0  0  0  0
 57 75  1  0  0  0  0
 58 59  1  0  0  0  0
 58 60  1  0  0  0  0
 59 61  1  0  0  0  0
 60 82  1  0  0  0  0
 61 83  1  0  0  0  0
 62 64  1  0  0  0  0
 62 74  1  0  0  0  0
 63 75  1  0  0  0  0
 65 66  1  0  0  0  0
M  CHG  1  75   1
M  ISO  4  40 100  60 101  72 100  82 101
M  END
> <Batch ID>
0112

> <Smiles>
C=Cc1cc([100NH:0][100C:0](=O)N2CCCC(n3nc(-c4ccc(Oc5ccc(F)cc5F)cc4)c(C(N)=O)c3N)C2)cc(N)c1OCCC[101CH2:1][101O:1]c1ccc2c(c1)CN(C(=O)C(NC(=O)C(C)NC)C(C)(C)C)C(C(=O)NC1CCCc3ccccc31)C2

> <Shape>
0.234

> <Color>
0.173

> <Negative vol penalty>
0.000

$$$$

  -OEChem-04052301312D

  0  0  0     0  0  0  0  0  0999 V2000
M  END
$$$$

  -OEChem-04052301313D

 84 93  0     1  0  0  0  0  0999 V2000
  -32.3702  -32.7356   18.0457 C   0  0  0  0  0  0  0  0  0  0  0  0
  -31.9786  -31.4687   18.4662 C   0  0  0  0  0  0  0  0  0  0  0  0
  -23.0873   -9.8487   19.9441 C   0  0  0  0  0  0  0  0  0  0  0  0
  -23.8446   -9.8704   22.2382 C   0  0  0  0  0  0  0  0  0  0  0  0
  -31.7545  -33.3238   16.9417 C   0  0  0  0  0  0  0  0  0  0  0  0
  -30.9701  -30.7895   17.7835 C   0  0  0  0  0  0  0  0  0  0  0  0
  -32.1219  -25.9293   16.9489 C   0  0  0  0  0  0  0  0  0  0  0  0
  -22.3526   -8.6904   20.1975 C   0  0  0  0  0  0  0  0  0  0  0  0
  -23.1099   -8.7121   22.4917 C   0  0  0  0  0  0  0  0  0  0  0  0
  -31.9801  -25.0483   18.0201 C   0  0  0  0  0  0  0  0  0  0  0  0
  -19.8877   -7.8901   23.0937 C   0  0  0  0  0  0  0  0  0  0  0  0
  -19.1298   -7.8483   24.2639 C   0  0  0  0  0  0  0  0  0  0  0  0
  -29.8616  -24.3154   17.1290 C   0  0  0  0  0  0  0  0  0  0  0  0
  -29.9725  -17.9547   22.7114 C   0  0  0  0  0  0  0  0  0  0  0  0
  -20.3863   -5.9238   25.0089 C   0  0  0  0  0  0  0  0  0  0  0  0
  -23.8333  -10.4387   20.9644 C   0  0  0  0  0  0  0  0  0  0  0  0
  -24.1545  -12.9661   20.8354 C   0  0  0  0  0  0  0  0  0  0  0  0
  -30.7446  -32.6475   16.2392 C   0  0  0  0  0  0  0  0  0  0  0  0
  -31.1278  -26.0179   15.9638 C   0  0  0  0  0  0  0  0  0  0  0  0
  -30.3393  -31.3697   16.6698 C   0  0  0  0  0  0  0  0  0  0  0  0
  -29.9944  -25.1964   16.0450 C   0  0  0  0  0  0  0  0  0  0  0  0
  -30.9391  -18.9825   22.8232 C   0  0  0  0  0  0  0  0  0  0  0  0
  -22.3639   -8.1221   21.4713 C   0  0  0  0  0  0  0  0  0  0  0  0
  -30.8484  -24.2433   18.1119 C   0  0  0  0  0  0  0  0  0  0  0  0
  -20.8949   -6.9487   22.8810 C   0  0  0  0  0  0  0  0  0  0  0  0
  -19.3791   -6.8652   25.2216 C   0  0  0  0  0  0  0  0  0  0  0  0
  -21.1441   -5.9656   23.8387 C   0  0  0  0  0  0  0  0  0  0  0  0
  -24.5929  -11.6349   20.7031 C   0  0  0  0  0  0  0  0  0  0  0  0
  -32.0245  -18.5679   22.0871 C   0  0  0  0  0  0  0  0  0  0  0  0
  -25.2409  -13.7232   20.4705 C   0  0  0  0  0  0  0  0  0  0  0  0
  -30.5362  -16.9853   21.9147 C   0  0  0  0  0  0  0  0  0  0  0  0
  -29.8864  -23.0797   21.3676 C   0  0  0  0  0  0  0  0  0  0  0  0
  -30.0798  -23.8363   20.2831 C   0  0  0  0  0  0  0  0  0  1  0  0
  -22.8794  -13.4730   21.2510 C   0  0  0  0  0  0  0  0  0  0  0  0
  -29.1921  -28.3179   14.9310 C   0  0  0  0  0  0  0  0  0  0  0  0
  -28.4023  -26.1101   12.6896 C   0  0  0  0  0  0  0  0  0  0  0  0
  -28.2289  -22.8204   11.7981 C   0  0  0  0  0  0  0  0  0  0  0  0
  -30.6981  -14.8142   20.6472 C   0  0  0  0  0  0  0  0  0  0  0  0
  -30.0755  -33.3433   15.0805 C   0  0  0  0  0  0  0  0  0  0  0  0
  -31.3084  -26.9541   14.8004 C   0  0  0  0  0  0  0  0  0  0  0  0
  -28.9079  -25.2389   15.0027 C   0  0  0  0  0  0  0  0  0  0  0  0
  -29.2061  -23.5232   22.6283 C   0  0  0  0  0  0  0  0  0  0  0  0
  -30.3692  -21.6741   21.5344 C   0  0  0  0  0  0  0  0  0  0  0  0
  -29.2749  -32.4018   14.1846 C   0  0  0  0  0  0  0  0  0  0  0  0
  -29.6061  -12.3827   18.2866 C   0  0  0  0  0  0  0  0  0  0  0  0
  -28.4063  -31.4732   15.0272 C   0  0  0  0  0  0  0  0  0  0  0  0
  -28.1685  -12.0809   18.7158 C   0  0  0  0  0  0  0  0  0  0  0  0
  -30.5180  -12.6234   19.4884 C   0  0  0  0  0  0  0  0  0  0  0  0
  -28.6037  -13.3372   20.8650 C   0  0  0  0  0  0  0  0  0  0  0  0
  -29.7357  -22.5535   23.6764 C   0  0  0  0  0  0  0  0  0  0  0  0
  -29.2662  -30.5910   15.9402 C   0  0  1  0  0  0  0  0  0  0  0  0
  -29.9923  -27.3320   14.1278 C   0  0  1  0  0  0  0  0  0  0  0  0
  -27.6336  -13.1517   19.6868 C   0  0  2  0  0  0  0  0  0  0  0  0
  -33.3361  -19.1667   21.7975 C   0  0  0  0  0  0  0  0  0  0  0  0
  -27.5034  -21.3244    9.9185 C   0  0  0  0  0  0  0  0  0  0  0  0
  -25.4865  -26.5282   13.4855 C   0  0  0  0  0  0  0  0  0  0  0  0
  -24.9297  -24.3941   12.3008 C   0  0  0  0  0  0  0  0  0  0  0  0
  -25.8760  -26.3169   11.0242 C   0  0  0  0  0  0  0  0  0  0  0  0
  -30.9668  -21.7575   11.4330 C   0  0  0  0  0  0  0  0  0  0  0  0
  -30.8028  -20.2640   23.5913 C   0  0  0  0  0  0  0  0  0  0  0  0
  -27.3727  -25.0107   12.5881 C   0  0  1  0  0  0  0  0  0  0  0  0
  -28.6600  -22.0947   10.5364 C   0  0  2  0  0  0  0  0  0  0  0  0
  -25.9356  -25.5628   12.3705 C   0  0  0  0  0  0  0  0  0  0  0  0
  -25.8589  -11.5479   20.2865 N   0  0  0  0  0  0  0  0  0  0  0  0
  -26.2254  -12.8340   20.1538 N   0  0  0  0  0  0  0  0  0  0  0  0
  -29.1275  -26.1749   13.8878 N   0  0  0  0  0  0  0  0  0  0  0  0
  -29.9497  -13.6528   20.3614 N   0  0  0  0  0  0  0  0  0  0  0  0
  -25.4404  -15.0560   20.3927 N   0  0  0  0  0  0  0  0  0  0  0  0
  -21.8746  -12.5568   21.5906 N   0  0  0  0  0  0  0  0  0  0  0  0
  -30.0423  -15.7369   21.4616 N   0  0  0  0  0  0  0  0  0  0  0  0
  -29.8533  -29.5042   15.1862 N   0  0  0  0  0  0  0  0  0  0  0  0
  -27.8347  -24.1150   11.5333 N   0  0  0  0  0  0  0  0  0  0  0  0
  -29.9184  -21.2590   22.9167 N   0  3  2  0  0  0  0  0  0  0  0  0
  -29.7561  -21.1321   10.8414 N   0  3  0  0  0  0  0  0  0  0  0  0
  -22.6329  -14.7018   21.3035 O   0  0  0  0  0  0  0  0  0  0  0  0
  -28.0581  -28.0247   15.2914 O   0  0  0  0  0  0  0  0  0  0  0  0
  -28.5623  -26.8786   11.7379 O   0  0  0  0  0  0  0  0  0  0  0  0
  -28.2373  -22.2907   12.9071 O   0  0  0  0  0  0  0  0  0  0  0  0
  -31.8263  -14.9904   20.1802 O   0  0  0  0  0  0  0  0  0  0  0  0
  -31.7870  -17.3514   21.5299 O   0  0  0  0  0  0  0  0  0  0  0  0
  -21.6469   -6.9920   21.7191 O   0  0  0  0  0  0  0  0  0  0  0  0
  -30.7072  -23.3830   19.1568 O   0  0  0  0  0  0  0  0  0  1  0  0
  -18.6523   -6.8261   26.3460 F   0  0  0  0  0  0  0  0  0  0  0  0
  -22.1112   -5.0593   23.6405 F   0  0  0  0  0  0  0  0  0  0  0  0
  1  2  1  0  0  0  0
  1  5  2  0  0  0  0
  2  6  2  0  0  0  0
  3  8  2  0  0  0  0
  3 16  1  0  0  0  0
  4  9  1  0  0  0  0
  4 16  2  0  0  0  0
  5 18  1  0  0  0  0
  6 20  1  0  0  0  0
  7 10  2  0  0  0  0
  7 19  1  0  0  0  0
  8 23  1  0  0  0  0
  9 23  2  0  0  0  0
 10 24  1  0  0  0  0
 11 12  2  0  0  0  0
 11 25  1  0  0  0  0
 12 26  1  0  0  0  0
 13 21  1  0  0  0  0
 13 24  2  0  0  0  0
 14 22  1  0  0  0  0
 14 31  2  0  0  0  0
 15 26  2  0  0  0  0
 15 27  1  0  0  0  0
 16 28  1  0  0  0  0
 17 28  1  0  0  0  0
 17 30  2  0  0  0  0
 17 34  1  0  0  0  0
 18 20  2  0  0  0  0
 18 39  1  0  0  0  0
 19 21  2  0  0  0  0
 19 40  1  0  0  0  0
 20 51  1  0  0  0  0
 21 41  1  0  0  0  0
 22 29  2  0  0  0  0
 22 60  1  0  0  0  0
 23 81  1  0  0  0  0
 24 82  1  0  0  0  0
 25 27  2  0  0  0  0
 25 81  1  0  0  0  0
 26 83  1  0  0  0  0
 27 84  1  0  0  0  0
 28 64  2  0  0  0  0
 29 54  1  0  0  0  0
 29 80  1  0  0  0  0
 30 65  1  0  0  0  0
 30 68  1  0  0  0  0
 31 70  1  0  0  0  0
 31 80  1  0  0  0  0
 32 33  2  0  0  0  0
 32 42  1  0  0  0  0
 32 43  1  0  0  0  0
 33 82  1  0  0  0  0
 34 69  1  0  0  0  0
 34 75  2  0  0  0  0
 35 52  1  0  0  0  0
 35 71  1  0  0  0  0
 35 76  2  0  0  0  0
 36 61  1  0  0  0  0
 36 66  1  0  0  0  0
 36 77  2  0  0  0  0
 37 62  1  0  0  0  0
 37 72  1  0  0  0  0
 37 78  2  0  0  0  0
 38 67  1  0  0  0  0
 38 70  1  0  0  0  0
 38 79  2  0  0  0  0
 39 44  1  0  0  0  0
 40 52  1  0  0  0  0
 41 66  1  0  0  0  0
 42 50  1  0  0  0  0
 43 73  1  0  0  0  0
 44 46  1  0  0  0  0
 45 47  1  0  0  0  0
 45 48  1  0  0  0  0
 46 51  1  0  0  0  0
 47 53  1  0  0  0  0
 48 67  1  0  0  0  0
 49 53  1  0  0  0  0
 49 67  1  0  0  0  0
 50 73  1  0  0  0  0
 51 71  1  0  0  0  0
 52 66  1  0  0  0  0
 53 65  1  0  0  0  0
 55 62  1  0  0  0  0
 56 63  1  0  0  0  0
 57 63  1  0  0  0  0
 58 63  1  0  0  0  0
 59 74  1  0  0  0  0
 60 73  1  0  0  0  0
 61 63  1  0  0  0  0
 61 72  1  0  0  0  0
 62 74  1  0  0  0  0
 64 65  1  0  0  0  0
M  CHG  2  73   1  74   1
M  ISO  4  33 101  38 100  70 100  82 101
M  END
> <Batch ID>
0112

> <Smiles>
CNC(C)C(=O)NC(C(=O)N1Cc2cc([101O:1][101CH:1]=C3CCN(Cc4cc([100NH:0][100C:0](=O)N5CCCC(n6nc(-c7ccc(Oc8ccc(F)cc8F)cc7)c(C(N)=O)c6N)C5)oc4C)C3)ccc2CC1C(=O)NC1CCCc2ccccc21)C(C)(C)C

> <Shape>
0.211

> <Color>
0.185

> <Negative vol penalty>
0.000

$$$$

  -OEChem-04052301313D

 83 91  0     1  0  0  0  0  0999 V2000
  -25.9702  -37.5276   22.9349 C   0  0  0  0  0  0  0  0  0  0  0  0
  -26.6971  -36.4567   22.4248 C   0  0  0  0  0  0  0  0  0  0  0  0
  -22.8032  -13.5685   18.9216 C   0  0  0  0  0  0  0  0  0  0  0  0
  -22.6149  -13.3558   21.3208 C   0  0  0  0  0  0  0  0  0  0  0  0
  -24.9290  -37.2971   23.8330 C   0  0  0  0  0  0  0  0  0  0  0  0
  -26.3838  -35.1546   22.8133 C   0  0  0  0  0  0  0  0  0  0  0  0
  -26.7289  -30.1015   19.3705 C   0  0  0  0  0  0  0  0  0  0  0  0
  -21.9621  -12.4680   18.7579 C   0  0  0  0  0  0  0  0  0  0  0  0
  -21.7737  -12.2552   21.1572 C   0  0  0  0  0  0  0  0  0  0  0  0
  -27.6952  -29.1020   19.2659 C   0  0  0  0  0  0  0  0  0  0  0  0
  -22.0856   -8.9660   20.4397 C   0  0  0  0  0  0  0  0  0  0  0  0
  -22.3211   -7.8461   21.2371 C   0  0  0  0  0  0  0  0  0  0  0  0
  -26.4463  -27.7405   20.8169 C   0  0  0  0  0  0  0  0  0  0  0  0
  -28.7291  -20.3473   22.0098 C   0  0  0  0  0  0  0  0  0  0  0  0
  -20.1030   -8.0465   22.1736 C   0  0  0  0  0  0  0  0  0  0  0  0
  -23.1297  -14.0124   20.2030 C   0  0  0  0  0  0  0  0  0  0  0  0
  -23.6213  -16.5021   20.4633 C   0  0  0  0  0  0  0  0  0  0  0  0
  -24.5965  -35.9909   24.2254 C   0  0  0  0  0  0  0  0  0  0  0  0
  -25.6176  -29.9322   20.2090 C   0  0  0  0  0  0  0  0  0  0  0  0
  -25.3380  -34.9065   23.7186 C   0  0  0  0  0  0  0  0  0  0  0  0
  -25.4659  -28.7383   20.9284 C   0  0  0  0  0  0  0  0  0  0  0  0
  -21.4473  -11.8113   19.8757 C   0  0  0  0  0  0  0  0  0  0  0  0
  -27.5555  -27.9225   19.9913 C   0  0  0  0  0  0  0  0  0  0  0  0
  -20.8588   -9.6262   20.5093 C   0  0  0  0  0  0  0  0  0  0  0  0
  -28.0224  -21.5734   21.9929 C   0  0  0  0  0  0  0  0  0  0  0  0
  -21.3298   -7.3863   22.1041 C   0  0  0  0  0  0  0  0  0  0  0  0
  -19.8675   -9.1664   21.3762 C   0  0  0  0  0  0  0  0  0  0  0  0
  -23.9990  -15.1489   20.3728 C   0  0  0  0  0  0  0  0  0  0  0  0
  -28.4754  -19.7770   23.2355 C   0  0  0  0  0  0  0  0  0  0  0  0
  -27.3869  -21.6649   23.2095 C   0  0  0  0  0  0  0  0  0  0  0  0
  -24.8061  -17.1796   20.6172 C   0  0  0  0  0  0  0  0  0  0  0  0
  -28.9157  -24.6634   19.2876 C   0  0  0  0  0  0  0  0  0  0  0  0
  -28.1053  -25.7174   19.4382 C   0  0  0  0  0  0  0  0  0  1  0  0
  -22.3163  -17.0936   20.4128 C   0  0  0  0  0  0  0  0  0  0  0  0
  -28.9123  -18.5517   23.8129 C   0  0  0  0  0  0  0  0  0  0  0  0
  -29.8024  -17.6101   23.0957 C   0  0  0  0  0  0  0  0  0  0  0  0
  -24.4930  -31.4358   22.7738 C   0  0  0  0  0  0  0  0  0  0  0  0
  -21.9938  -29.4042   22.3877 C   0  0  0  0  0  0  0  0  0  0  0  0
  -20.8323  -26.4414   21.1550 C   0  0  0  0  0  0  0  0  0  0  0  0
  -23.4935  -35.7947   25.2351 C   0  0  0  0  0  0  0  0  0  0  0  0
  -24.5705  -31.0089   20.2903 C   0  0  0  0  0  0  0  0  0  0  0  0
  -24.2811  -28.4989   21.8269 C   0  0  0  0  0  0  0  0  0  0  0  0
  -22.9820  -34.3582   25.3071 C   0  0  0  0  0  0  0  0  0  0  0  0
  -29.5866  -15.6326   20.1125 C   0  0  0  0  0  0  0  0  0  0  0  0
  -24.1495  -33.3779   25.3607 C   0  0  0  0  0  0  0  0  0  0  0  0
  -28.0840  -15.4094   19.9448 C   0  0  0  0  0  0  0  0  0  0  0  0
  -29.9841  -15.6731   21.5845 C   0  0  0  0  0  0  0  0  0  0  0  0
  -27.7223  -16.4662   22.2203 C   0  0  0  0  0  0  0  0  0  0  0  0
  -25.0123  -33.4780   24.0969 C   0  0  1  0  0  0  0  0  0  0  0  0
  -23.7423  -30.9415   21.5697 C   0  0  1  0  0  0  0  0  0  0  0  0
  -27.2787  -16.4470   20.7471 C   0  0  2  0  0  0  0  0  0  0  0  0
  -26.5076  -22.6755   23.8154 C   0  0  0  0  0  0  0  0  0  0  0  0
  -18.7550  -25.0392   21.0291 C   0  0  0  0  0  0  0  0  0  0  0  0
  -22.3803  -28.5747   25.2985 C   0  0  0  0  0  0  0  0  0  0  0  0
  -20.9632  -26.5622   24.8404 C   0  0  0  0  0  0  0  0  0  0  0  0
  -19.9947  -28.8484   24.5997 C   0  0  0  0  0  0  0  0  0  0  0  0
  -20.7939  -26.5569   18.1980 C   0  0  0  0  0  0  0  0  0  0  0  0
  -28.4545  -23.3265   18.7808 C   0  0  0  0  0  0  0  0  0  0  0  0
  -28.6899  -22.2221   19.8045 C   0  0  0  0  0  0  0  0  0  0  0  0
  -21.6557  -28.0190   22.8835 C   0  0  1  0  0  0  0  0  0  0  0  0
  -19.5953  -26.1043   20.3421 C   0  0  2  0  0  0  0  0  0  0  0  0
  -21.2719  -28.0061   24.3902 C   0  0  0  0  0  0  0  0  0  0  0  0
  -25.3204  -14.9753   20.4616 N   0  0  0  0  0  0  0  0  0  0  0  0
  -28.5791  -18.1348   25.0235 N   0  0  0  0  0  0  0  0  0  0  0  0
  -25.7833  -16.2283   20.6095 N   0  0  0  0  0  0  0  0  0  0  0  0
  -29.1765  -16.6414   22.3236 N   0  0  0  0  0  0  0  0  0  0  0  0
  -23.2874  -29.5841   21.8777 N   0  0  0  0  0  0  0  0  0  0  0  0
  -25.0969  -18.4905   20.7570 N   0  0  0  0  0  0  0  0  0  0  0  0
  -21.2072  -16.2523   20.2504 N   0  0  0  0  0  0  0  0  0  0  0  0
  -24.3727  -32.7948   22.9929 N   0  0  0  0  0  0  0  0  0  0  0  0
  -20.6140  -27.5112   21.9972 N   0  0  0  0  0  0  0  0  0  0  0  0
  -19.9828  -25.6003   18.9942 N   0  3  0  0  0  0  0  0  0  0  0  0
  -22.1402  -18.3330   20.4925 O   0  0  0  0  0  0  0  0  0  0  0  0
  -31.0020  -17.7878   23.2623 O   0  0  0  0  0  0  0  0  0  0  0  0
  -25.1328  -30.6426   23.4544 O   0  0  0  0  0  0  0  0  0  0  0  0
  -21.1393  -30.2920   22.4441 O   0  0  0  0  0  0  0  0  0  0  0  0
  -21.8855  -25.8158   21.0557 O   0  0  0  0  0  0  0  0  0  0  0  0
  -27.6580  -20.5738   23.9728 O   0  0  0  0  0  0  0  0  0  0  0  0
  -20.6263  -10.7375   19.7164 O   0  0  0  0  0  0  0  0  0  0  0  0
  -28.4976  -26.9455   19.8915 O   0  0  0  0  0  0  0  0  0  1  0  0
  -27.9583  -22.5053   20.9902 O   0  0  0  0  0  0  0  0  0  0  0  0
  -21.5555   -6.3099   22.8686 F   0  0  0  0  0  0  0  0  0  0  0  0
  -18.6865   -9.7958   21.4465 F   0  0  0  0  0  0  0  0  0  0  0  0
  1  2  1  0  0  0  0
  1  5  2  0  0  0  0
  2  6  2  0  0  0  0
  3  8  2  0  0  0  0
  3 16  1  0  0  0  0
  4  9  1  0  0  0  0
  4 16  2  0  0  0  0
  5 18  1  0  0  0  0
  6 20  1  0  0  0  0
  7 10  2  0  0  0  0
  7 19  1  0  0  0  0
  8 22  1  0  0  0  0
  9 22  2  0  0  0  0
 10 23  1  0  0  0  0
 11 12  2  0  0  0  0
 11 24  1  0  0  0  0
 12 26  1  0  0  0  0
 13 21  1  0  0  0  0
 13 23  2  0  0  0  0
 14 25  1  0  0  0  0
 14 29  2  0  0  0  0
 15 26  2  0  0  0  0
 15 27  1  0  0  0  0
 16 28  1  0  0  0  0
 17 28  1  0  0  0  0
 17 31  2  0  0  0  0
 17 34  1  0  0  0  0
 18 20  2  0  0  0  0
 18 40  1  0  0  0  0
 19 21  2  0  0  0  0
 19 41  1  0  0  0  0
 20 49  1  0  0  0  0
 21 42  1  0  0  0  0
 22 79  1  0  0  0  0
 23 80  1  0  0  0  0
 24 27  2  0  0  0  0
 24 79  1  0  0  0  0
 25 30  2  0  0  0  0
 25 81  1  0  0  0  0
 26 82  1  0  0  0  0
 27 83  1  0  0  0  0
 28 63  2  0  0  0  0
 29 35  1  0  0  0  0
 29 78  1  0  0  0  0
 30 52  1  0  0  0  0
 30 78  1  0  0  0  0
 31 65  1  0  0  0  0
 31 68  1  0  0  0  0
 32 33  2  0  0  0  0
 32 58  1  0  0  0  0
 33 80  1  0  0  0  0
 34 69  1  0  0  0  0
 34 73  2  0  0  0  0
 35 36  1  0  0  0  0
 35 64  2  0  0  0  0
 36 66  1  0  0  0  0
 36 74  2  0  0  0  0
 37 50  1  0  0  0  0
 37 70  1  0  0  0  0
 37 75  2  0  0  0  0
 38 60  1  0  0  0  0
 38 67  1  0  0  0  0
 38 76  2  0  0  0  0
 39 61  1  0  0  0  0
 39 71  1  0  0  0  0
 39 77  2  0  0  0  0
 40 43  1  0  0  0  0
 41 50  1  0  0  0  0
 42 67  1  0  0  0  0
 43 45  1  0  0  0  0
 44 46  1  0  0  0  0
 44 47  1  0  0  0  0
 45 49  1  0  0  0  0
 46 51  1  0  0  0  0
 47 66  1  0  0  0  0
 48 51  1  0  0  0  0
 48 66  1  0  0  0  0
 49 70  1  0  0  0  0
 50 67  1  0  0  0  0
 51 65  1  0  0  0  0
 53 61  1  0  0  0  0
 54 62  1  0  0  0  0
 55 62  1  0  0  0  0
 56 62  1  0  0  0  0
 57 72  1  0  0  0  0
 58 59  1  0  0  0  0
 59 81  1  0  0  0  0
 60 62  1  0  0  0  0
 60 71  1  0  0  0  0
 61 72  1  0  0  0  0
 63 65  1  0  0  0  0
M  CHG  1  72   1
M  ISO  4  33 101  35 100  36 100  80 101
M  END
> <Batch ID>
0112

> <Smiles>
CNC(C)C(=O)NC(C(=O)N1Cc2cc([101O:1][101CH:1]=CCCOc3cc([100C:0](=N)[100C:0](=O)N4CCCC(n5nc(-c6ccc(Oc7ccc(F)cc7F)cc6)c(C(N)=O)c5N)C4)oc3C)ccc2CC1C(=O)NC1CCCc2ccccc21)C(C)(C)C

> <Shape>
0.285

> <Color>
0.060

> <Negative vol penalty>
0.000

$$$$

  -OEChem-04052301313D

 86 94  0     1  0  0  0  0  0999 V2000
  -24.9615  -27.3560   11.9970 C   0  0  0  0  0  0  0  0  0  0  0  0
  -24.6781  -27.6424   13.3285 C   0  0  0  0  0  0  0  0  0  0  0  0
  -24.1991  -15.2252   19.4637 C   0  0  0  0  0  0  0  0  0  0  0  0
  -23.1336  -14.0692   21.2982 C   0  0  0  0  0  0  0  0  0  0  0  0
  -25.4420  -26.0959   11.6431 C   0  0  0  0  0  0  0  0  0  0  0  0
  -24.8740  -26.6684   14.3070 C   0  0  0  0  0  0  0  0  0  0  0  0
  -27.1836  -28.4917   18.4284 C   0  0  0  0  0  0  0  0  0  0  0  0
  -25.1726  -14.2283   19.4009 C   0  0  0  0  0  0  0  0  0  0  0  0
  -24.1071  -13.0722   21.2353 C   0  0  0  0  0  0  0  0  0  0  0  0
  -26.4047  -29.2238   19.3234 C   0  0  0  0  0  0  0  0  0  0  0  0
  -28.1437  -12.1714   18.9939 C   0  0  0  0  0  0  0  0  0  0  0  0
  -29.4745  -12.5694   18.8674 C   0  0  0  0  0  0  0  0  0  0  0  0
  -18.0789  -27.6233   23.6263 C   0  0  0  0  0  0  0  0  0  0  0  0
  -20.3330  -27.1839   22.0424 C   0  0  0  0  0  0  0  0  0  0  0  0
  -26.2175  -27.2807   20.7406 C   0  0  0  0  0  0  0  0  0  0  0  0
  -29.3124  -13.7749   20.9549 C   0  0  0  0  0  0  0  0  0  0  0  0
  -23.1796  -15.1457   20.4124 C   0  0  0  0  0  0  0  0  0  0  0  0
  -19.0115  -28.6440   23.4420 C   0  0  0  0  0  0  0  0  0  0  0  0
  -19.4004  -26.1632   22.2267 C   0  0  0  0  0  0  0  0  0  0  0  0
  -20.9473  -16.2112   19.7885 C   0  0  0  0  0  0  0  0  0  0  0  0
  -25.6530  -25.1091   12.6190 C   0  0  0  0  0  0  0  0  0  0  0  0
  -27.4768  -27.1433   18.6778 C   0  0  0  0  0  0  0  0  0  0  0  0
  -25.3565  -25.3934   13.9657 C   0  0  0  0  0  0  0  0  0  0  0  0
  -27.0026  -26.5344   19.8485 C   0  0  0  0  0  0  0  0  0  0  0  0
  -18.2733  -26.3828   23.0187 C   0  0  0  0  0  0  0  0  0  0  0  0
  -20.1385  -28.4244   22.6500 C   0  0  0  0  0  0  0  0  0  0  0  0
  -25.1266  -13.1517   20.2866 C   0  0  0  0  0  0  0  0  0  0  0  0
  -25.9191  -28.6175   20.4782 C   0  0  0  0  0  0  0  0  0  0  0  0
  -27.3971  -12.5752   20.1009 C   0  0  0  0  0  0  0  0  0  0  0  0
  -30.0589  -13.3711   19.8479 C   0  0  0  0  0  0  0  0  0  0  0  0
  -27.9815  -13.3769   21.0814 C   0  0  0  0  0  0  0  0  0  0  0  0
  -22.1740  -16.1756   20.4782 C   0  0  0  0  0  0  0  0  0  0  0  0
  -20.3616  -17.3868   20.1902 C   0  0  0  0  0  0  0  0  0  0  0  0
  -18.7029  -30.0803   25.4060 C   0  0  0  0  0  0  0  0  0  0  0  0
  -18.7754  -29.9272   24.0928 C   0  0  0  0  0  0  0  0  0  0  0  0
  -19.6314  -24.8783   21.5793 C   0  0  0  0  0  0  0  0  0  0  0  0
  -20.6912  -24.0735   21.7979 C   0  0  0  0  0  0  0  0  0  0  0  0
  -20.3874  -15.2662   18.8671 C   0  0  0  0  0  0  0  0  0  0  0  0
  -20.7782  -22.7924   21.0685 C   0  0  0  0  0  0  0  0  0  0  0  0
  -26.8614  -24.4018   17.1913 C   0  0  0  0  0  0  0  0  0  0  0  0
  -28.7899  -23.1719   19.4914 C   0  0  0  0  0  0  0  0  0  0  0  0
  -30.1376  -23.4793   22.6117 C   0  0  0  0  0  0  0  0  0  0  0  0
  -26.1290  -23.7463   12.1822 C   0  0  0  0  0  0  0  0  0  0  0  0
  -28.3407  -26.3748   17.7157 C   0  0  0  0  0  0  0  0  0  0  0  0
  -27.3058  -25.0952   20.1726 C   0  0  0  0  0  0  0  0  0  0  0  0
  -26.6642  -22.8918   13.3284 C   0  0  0  0  0  0  0  0  0  0  0  0
  -21.5794  -20.5922   23.8879 C   0  0  0  0  0  0  0  0  0  0  0  0
  -25.7138  -22.9419   14.5205 C   0  0  0  0  0  0  0  0  0  0  0  0
  -21.7510  -19.2531   23.1758 C   0  0  0  0  0  0  0  0  0  0  0  0
  -22.0516  -21.7625   23.0265 C   0  0  0  0  0  0  0  0  0  0  0  0
  -21.5856  -20.4664   20.9666 C   0  0  0  0  0  0  0  0  0  0  0  0
  -25.5794  -24.3713   15.0591 C   0  0  1  0  0  0  0  0  0  0  0  0
  -28.1479  -24.8647   17.8146 C   0  0  1  0  0  0  0  0  0  0  0  0
  -21.0731  -19.2791   21.7967 C   0  0  1  0  0  0  0  0  0  0  0  0
  -17.2532  -25.3119   23.2375 C   0  0  0  0  0  0  0  0  0  0  0  0
  -31.6475  -22.2973   24.2305 C   0  0  0  0  0  0  0  0  0  0  0  0
  -26.5470  -21.2101   20.1472 C   0  0  0  0  0  0  0  0  0  0  0  0
  -27.6990  -20.7262   22.3168 C   0  0  0  0  0  0  0  0  0  0  0  0
  -28.8408  -20.2139   20.1589 C   0  0  0  0  0  0  0  0  0  0  0  0
  -32.0668  -25.7236   22.6303 C   0  0  0  0  0  0  0  0  0  0  0  0
  -22.2665  -29.2510   21.6432 C   0  0  0  0  0  0  0  0  0  0  0  0
  -24.3581  -30.3804   20.8123 C   0  0  0  0  0  0  0  0  0  1  0  0
  -28.5796  -22.6225   20.8817 C   0  0  1  0  0  0  0  0  0  0  0  0
  -31.5621  -23.3255   23.1133 C   0  0  2  0  0  0  0  0  0  0  0  0
  -23.0994  -30.5313   21.6597 C   0  0  1  0  0  0  0  0  0  0  0  0
  -27.9091  -21.2197   20.8694 C   0  0  0  0  0  0  0  0  0  0  0  0
  -22.3579  -17.2437   21.2588 N   0  0  0  0  0  0  0  0  0  0  0  0
  -21.2390  -17.9616   21.0619 N   0  0  0  0  0  0  0  0  0  0  0  0
  -21.4338  -21.7324   21.6923 N   0  0  0  0  0  0  0  0  0  0  0  0
  -28.1494  -24.3841   19.1978 N   0  0  0  0  0  0  0  0  0  0  0  0
  -19.1868  -17.9746   19.8792 N   0  0  0  0  0  0  0  0  0  0  0  0
  -21.1221  -14.1115   18.5652 N   0  0  0  0  0  0  0  0  0  0  0  0
  -21.0799  -29.4201   22.4515 N   0  0  0  0  0  0  0  0  0  0  0  0
  -26.7370  -24.7231   15.8531 N   0  0  0  0  0  0  0  0  0  0  0  0
  -29.8835  -22.6558   21.5354 N   0  0  0  0  0  0  0  0  0  0  0  0
  -32.0719  -24.6263   23.6318 N   0  3  0  0  0  0  0  0  0  0  0  0
  -19.2759  -15.4484   18.3149 O   0  0  0  0  0  0  0  0  0  0  0  0
  -20.2684  -22.7404   19.9478 O   0  0  0  0  0  0  0  0  0  0  0  0
  -26.0429  -23.7966   17.8736 O   0  0  0  0  0  0  0  0  0  0  0  0
  -29.5023  -22.5522   18.6976 O   0  0  0  0  0  0  0  0  0  0  0  0
  -29.3299  -24.2499   23.1258 O   0  0  0  0  0  0  0  0  0  0  0  0
  -22.3271  -31.5982   21.1051 O   0  0  0  0  0  0  0  0  0  0  0  0
  -26.0762  -12.1786   20.2254 O   0  0  0  0  0  0  0  0  0  0  0  0
  -25.1580  -29.3297   21.3532 O   0  0  0  0  0  0  0  0  0  1  0  0
  -31.3374  -13.7520   19.7271 F   0  0  0  0  0  0  0  0  0  0  0  0
  -27.2697  -13.7670   22.1477 F   0  0  0  0  0  0  0  0  0  0  0  0
  1  2  1  0  0  0  0
  1  5  2  0  0  0  0
  2  6  2  0  0  0  0
  3  8  2  0  0  0  0
  3 17  1  0  0  0  0
  4  9  1  0  0  0  0
  4 17  2  0  0  0  0
  5 21  1  0  0  0  0
  6 23  1  0  0  0  0
  7 10  2  0  0  0  0
  7 22  1  0  0  0  0
  8 27  1  0  0  0  0
  9 27  2  0  0  0  0
 10 28  1  0  0  0  0
 11 12  2  0  0  0  0
 11 29  1  0  0  0  0
 12 30  1  0  0  0  0
 13 18  1  0  0  0  0
 13 25  2  0  0  0  0
 14 19  2  0  0  0  0
 14 26  1  0  0  0  0
 15 24  1  0  0  0  0
 15 28  2  0  0  0  0
 16 30  2  0  0  0  0
 16 31  1  0  0  0  0
 17 32  1  0  0  0  0
 18 26  2  0  0  0  0
 18 35  1  0  0  0  0
 19 25  1  0  0  0  0
 19 36  1  0  0  0  0
 20 32  1  0  0  0  0
 20 33  2  0  0  0  0
 20 38  1  0  0  0  0
 21 23  2  0  0  0  0
 21 43  1  0  0  0  0
 22 24  2  0  0  0  0
 22 44  1  0  0  0  0
 23 52  1  0  0  0  0
 24 45  1  0  0  0  0
 25 55  1  0  0  0  0
 26 73  1  0  0  0  0
 27 83  1  0  0  0  0
 28 84  1  0  0  0  0
 29 31  2  0  0  0  0
 29 83  1  0  0  0  0
 30 85  1  0  0  0  0
 31 86  1  0  0  0  0
 32 67  2  0  0  0  0
 33 68  1  0  0  0  0
 33 71  1  0  0  0  0
 34 35  2  0  0  0  0
 36 37  2  0  0  0  0
 37 39  1  0  0  0  0
 38 72  1  0  0  0  0
 38 77  2  0  0  0  0
 39 69  1  0  0  0  0
 39 78  2  0  0  0  0
 40 53  1  0  0  0  0
 40 74  1  0  0  0  0
 40 79  2  0  0  0  0
 41 63  1  0  0  0  0
 41 70  1  0  0  0  0
 41 80  2  0  0  0  0
 42 64  1  0  0  0  0
 42 75  1  0  0  0  0
 42 81  2  0  0  0  0
 43 46  1  0  0  0  0
 44 53  1  0  0  0  0
 45 70  1  0  0  0  0
 46 48  1  0  0  0  0
 47 49  1  0  0  0  0
 47 50  1  0  0  0  0
 48 52  1  0  0  0  0
 49 54  1  0  0  0  0
 50 69  1  0  0  0  0
 51 54  1  0  0  0  0
 51 69  1  0  0  0  0
 52 74  1  0  0  0  0
 53 70  1  0  0  0  0
 54 68  1  0  0  0  0
 56 64  1  0  0  0  0
 57 66  1  0  0  0  0
 58 66  1  0  0  0  0
 59 66  1  0  0  0  0
 60 76  1  0  0  0  0
 61 65  1  0  0  0  0
 61 73  1  0  0  0  0
 62 65  1  0  0  0  0
 62 84  1  0  0  0  0
 63 66  1  0  0  0  0
 63 75  1  0  0  0  0
 64 76  1  0  0  0  0
 65 82  1  0  0  0  0
 67 68  1  0  0  0  0
M  CHG  1  76   1
M  ISO  4  37 100  39 100  62 101  84 101
M  END
> <Batch ID>
0112

> <Smiles>
C=Cc1cc(C)c(C=[100CH:0][100C:0](=O)N2CCCC(n3nc(-c4ccc(Oc5ccc(F)cc5F)cc4)c(C(N)=O)c3N)C2)cc1NCC(O)[101CH2:1][101O:1]c1ccc2c(c1)CN(C(=O)C(NC(=O)C(C)NC)C(C)(C)C)C(C(=O)NC1CCCc3ccccc31)C2

> <Shape>
0.228

> <Color>
0.080

> <Negative vol penalty>
0.000

$$$$

  -OEChem-04052301313D

 87 96  0     1  0  0  0  0  0999 V2000
  -29.1120  -18.0856   16.4197 C   0  0  0  0  0  0  0  0  0  0  0  0
  -28.4610  -19.2448   16.0129 C   0  0  0  0  0  0  0  0  0  0  0  0
  -26.1433  -15.2803   21.0143 C   0  0  0  0  0  0  0  0  0  0  0  0
  -23.8083  -14.7583   20.6792 C   0  0  0  0  0  0  0  0  0  0  0  0
  -29.3596  -17.8684   17.7735 C   0  0  0  0  0  0  0  0  0  0  0  0
  -28.0681  -20.1926   16.9585 C   0  0  0  0  0  0  0  0  0  0  0  0
  -24.3849  -26.2633   17.9539 C   0  0  0  0  0  0  0  0  0  0  0  0
  -26.4681  -13.9340   20.8486 C   0  0  0  0  0  0  0  0  0  0  0  0
  -24.1331  -13.4119   20.5135 C   0  0  0  0  0  0  0  0  0  0  0  0
  -23.3294  -26.8516   18.6493 C   0  0  0  0  0  0  0  0  0  0  0  0
  -24.9028  -10.7741   22.4834 C   0  0  0  0  0  0  0  0  0  0  0  0
  -24.1161   -9.8315   23.1454 C   0  0  0  0  0  0  0  0  0  0  0  0
  -24.7244  -27.0223   20.6100 C   0  0  0  0  0  0  0  0  0  0  0  0
  -23.5192   -8.8403   21.0245 C   0  0  0  0  0  0  0  0  0  0  0  0
  -19.1403  -24.3282   23.7004 C   0  0  0  0  0  0  0  0  0  0  0  0
  -24.8134  -15.6925   20.9296 C   0  0  0  0  0  0  0  0  0  0  0  0
  -24.4003  -18.0689   20.0993 C   0  0  0  0  0  0  0  0  0  0  0  0
  -28.9581  -18.8088   18.7366 C   0  0  0  0  0  0  0  0  0  0  0  0
  -25.6167  -26.0397   18.5856 C   0  0  0  0  0  0  0  0  0  0  0  0
  -28.3304  -20.0028   18.3273 C   0  0  0  0  0  0  0  0  0  0  0  0
  -25.7947  -26.4333   19.9196 C   0  0  0  0  0  0  0  0  0  0  0  0
  -25.4630  -12.9998   20.5982 C   0  0  0  0  0  0  0  0  0  0  0  0
  -23.4982  -27.2285   19.9784 C   0  0  0  0  0  0  0  0  0  0  0  0
  -24.9976  -10.7499   21.0920 C   0  0  0  0  0  0  0  0  0  0  0  0
  -23.4244   -8.8646   22.4160 C   0  0  0  0  0  0  0  0  0  0  0  0
  -24.3058   -9.7829   20.3625 C   0  0  0  0  0  0  0  0  0  0  0  0
  -24.4772  -17.0830   21.1012 C   0  0  0  0  0  0  0  0  0  0  0  0
  -18.4153  -25.1236   22.7929 C   0  0  0  0  0  0  0  0  0  0  0  0
  -19.6540  -23.3122   22.9321 C   0  0  0  0  0  0  0  0  0  0  0  0
  -24.0471  -19.2139   20.7706 C   0  0  0  0  0  0  0  0  0  0  0  0
  -18.9273  -27.7141   21.5230 C   0  0  0  0  0  0  0  0  0  0  0  0
  -20.2450  -27.4664   21.4628 C   0  0  0  0  0  0  0  0  0  0  0  0
  -18.1735  -27.4513   19.2518 C   0  0  0  0  0  0  0  0  0  0  0  0
  -18.0441  -28.0594   20.4472 C   0  0  0  0  0  0  0  0  0  0  0  0
  -24.6278  -17.9595   18.6879 C   0  0  0  0  0  0  0  0  0  0  0  0
  -27.3471  -23.4653   19.2798 C   0  0  0  0  0  0  0  0  0  0  0  0
  -29.5290  -25.6683   20.2330 C   0  0  0  0  0  0  0  0  0  0  0  0
  -30.1559  -28.8374   21.3332 C   0  0  0  0  0  0  0  0  0  0  0  0
  -20.9535  -21.8856   24.5515 C   0  0  0  0  0  0  0  0  0  0  0  0
  -29.2584  -18.5267   20.1876 C   0  0  0  0  0  0  0  0  0  0  0  0
  -26.7537  -25.4285   17.8136 C   0  0  0  0  0  0  0  0  0  0  0  0
  -27.1037  -26.2337   20.6374 C   0  0  0  0  0  0  0  0  0  0  0  0
  -20.8154  -27.2155   22.8221 C   0  0  0  0  0  0  0  0  0  0  0  0
  -28.4171  -19.3669   21.1430 C   0  0  0  0  0  0  0  0  0  0  0  0
  -23.8576  -20.1976   25.7323 C   0  0  0  0  0  0  0  0  0  0  0  0
  -28.4737  -20.8314   20.7347 C   0  0  0  0  0  0  0  0  0  0  0  0
  -24.2713  -19.3179   24.5503 C   0  0  0  0  0  0  0  0  0  0  0  0
  -22.3386  -20.2934   25.8635 C   0  0  0  0  0  0  0  0  0  0  0  0
  -22.0487  -19.8294   23.4615 C   0  0  0  0  0  0  0  0  0  0  0  0
  -19.6970  -27.6900   23.7317 C   0  0  0  0  0  0  0  0  0  0  0  0
  -27.8666  -21.0336   19.3407 C   0  0  1  0  0  0  0  0  0  0  0  0
  -27.8033  -24.7785   18.7098 C   0  0  1  0  0  0  0  0  0  0  0  0
  -23.5697  -19.7552   23.2495 C   0  0  2  0  0  0  0  0  0  0  0  0
  -17.0902  -26.4132   24.5174 C   0  0  0  0  0  0  0  0  0  0  0  0
  -32.0332  -30.3334   22.0646 C   0  0  0  0  0  0  0  0  0  0  0  0
  -29.6369  -24.2174   22.9150 C   0  0  0  0  0  0  0  0  0  0  0  0
  -30.7495  -26.2396   23.8852 C   0  0  0  0  0  0  0  0  0  0  0  0
  -31.8579  -24.9701   22.0460 C   0  0  0  0  0  0  0  0  0  0  0  0
  -19.4985  -22.7596   20.4839 C   0  0  0  0  0  0  0  0  0  0  0  0
  -29.6339  -30.7575   19.1424 C   0  0  0  0  0  0  0  0  0  0  0  0
  -21.1471  -27.4259   20.2775 C   0  0  0  0  0  0  0  0  0  1  0  0
  -17.6365  -26.3837   23.0922 C   0  0  1  0  0  0  0  0  0  0  0  0
  -29.8286  -26.3859   21.5269 C   0  0  1  0  0  0  0  0  0  0  0  0
  -31.1770  -29.8720   20.8956 C   0  0  2  0  0  0  0  0  0  0  0  0
  -30.4928  -25.4554   22.5806 C   0  0  0  0  0  0  0  0  0  0  0  0
  -24.1956  -17.5600   22.3166 N   0  0  0  0  0  0  0  0  0  0  0  0
  -18.4621  -24.6535   21.5436 N   0  0  0  0  0  0  0  0  0  0  0  0
  -23.9385  -18.8582   22.0828 N   0  0  0  0  0  0  0  0  0  0  0  0
  -19.2227  -23.5517   21.6606 N   0  0  0  0  0  0  0  0  0  0  0  0
  -28.1833  -25.6263   19.8417 N   0  0  0  0  0  0  0  0  0  0  0  0
  -21.7430  -20.7170   24.5944 N   0  0  0  0  0  0  0  0  0  0  0  0
  -23.8221  -20.4803   20.3606 N   0  0  0  0  0  0  0  0  0  0  0  0
  -24.9834  -16.7094   18.1634 N   0  0  0  0  0  0  0  0  0  0  0  0
  -20.4675  -22.2069   23.2845 N   0  0  0  0  0  0  0  0  0  0  0  0
  -28.1266  -22.3878   18.9044 N   0  0  0  0  0  0  0  0  0  0  0  0
  -30.6291  -27.5525   21.1708 N   0  0  0  0  0  0  0  0  0  0  0  0
  -18.4467  -27.6315   22.8767 N   0  3  2  0  0  0  0  0  0  0  0  0
  -30.4926  -31.0622   20.3158 N   0  3  0  0  0  0  0  0  0  0  0  0
  -24.5350  -18.9448   17.9171 O   0  0  0  0  0  0  0  0  0  0  0  0
  -26.3617  -23.4322   20.0076 O   0  0  0  0  0  0  0  0  0  0  0  0
  -30.4557  -25.1696   19.5894 O   0  0  0  0  0  0  0  0  0  0  0  0
  -29.0507  -29.1390   21.7783 O   0  0  0  0  0  0  0  0  0  0  0  0
  -20.7479  -22.5672   25.5590 O   0  0  0  0  0  0  0  0  0  0  0  0
  -25.7796  -11.6859   20.4363 O   0  0  0  0  0  0  0  0  0  0  0  0
  -22.4694  -27.8024   20.6598 O   0  0  0  0  0  0  0  0  0  1  0  0
  -22.6702   -7.9584   23.0519 F   0  0  0  0  0  0  0  0  0  0  0  0
  -24.3940   -9.7539   19.0257 F   0  0  0  0  0  0  0  0  0  0  0  0
  1  2  1  0  0  0  0
  1  5  2  0  0  0  0
  2  6  2  0  0  0  0
  3  8  2  0  0  0  0
  3 16  1  0  0  0  0
  4  9  1  0  0  0  0
  4 16  2  0  0  0  0
  5 18  1  0  0  0  0
  6 20  1  0  0  0  0
  7 10  2  0  0  0  0
  7 19  1  0  0  0  0
  8 22  1  0  0  0  0
  9 22  2  0  0  0  0
 10 23  1  0  0  0  0
 11 12  2  0  0  0  0
 11 24  1  0  0  0  0
 12 25  1  0  0  0  0
 13 21  1  0  0  0  0
 13 23  2  0  0  0  0
 14 25  2  0  0  0  0
 14 26  1  0  0  0  0
 15 28  1  0  0  0  0
 15 29  2  0  0  0  0
 16 27  1  0  0  0  0
 17 27  1  0  0  0  0
 17 30  2  0  0  0  0
 17 35  1  0  0  0  0
 18 20  2  0  0  0  0
 18 40  1  0  0  0  0
 19 21  2  0  0  0  0
 19 41  1  0  0  0  0
 20 51  1  0  0  0  0
 21 42  1  0  0  0  0
 22 84  1  0  0  0  0
 23 85  1  0  0  0  0
 24 26  2  0  0  0  0
 24 84  1  0  0  0  0
 25 86  1  0  0  0  0
 26 87  1  0  0  0  0
 27 66  2  0  0  0  0
 28 62  1  0  0  0  0
 28 67  2  0  0  0  0
 29 69  1  0  0  0  0
 29 74  1  0  0  0  0
 30 68  1  0  0  0  0
 30 72  1  0  0  0  0
 31 32  2  0  0  0  0
 31 34  1  0  0  0  0
 31 77  1  0  0  0  0
 32 43  1  0  0  0  0
 32 61  1  0  0  0  0
 33 34  2  0  0  0  0
 35 73  1  0  0  0  0
 35 79  2  0  0  0  0
 36 52  1  0  0  0  0
 36 75  1  0  0  0  0
 36 80  2  0  0  0  0
 37 63  1  0  0  0  0
 37 70  1  0  0  0  0
 37 81  2  0  0  0  0
 38 64  1  0  0  0  0
 38 76  1  0  0  0  0
 38 82  2  0  0  0  0
 39 71  1  0  0  0  0
 39 74  1  0  0  0  0
 39 83  2  0  0  0  0
 40 44  1  0  0  0  0
 41 52  1  0  0  0  0
 42 70  1  0  0  0  0
 43 50  1  0  0  0  0
 44 46  1  0  0  0  0
 45 47  1  0  0  0  0
 45 48  1  0  0  0  0
 46 51  1  0  0  0  0
 47 53  1  0  0  0  0
 48 71  1  0  0  0  0
 49 53  1  0  0  0  0
 49 71  1  0  0  0  0
 50 77  1  0  0  0  0
 51 75  1  0  0  0  0
 52 70  1  0  0  0  0
 53 68  1  0  0  0  0
 54 62  1  0  0  0  0
 55 64  1  0  0  0  0
 56 65  1  0  0  0  0
 57 65  1  0  0  0  0
 58 65  1  0  0  0  0
 59 69  1  0  0  0  0
 60 78  1  0  0  0  0
 61 85  1  0  0  0  0
 62 77  1  0  0  0  0
 63 65  1  0  0  0  0
 63 76  1  0  0  0  0
 64 78  1  0  0  0  0
 66 68  1  0  0  0  0
 67 69  1  0  0  0  0
M  CHG  2  77   1  78   1
M  ISO  4  39 100  61 101  74 100  85 101
M  END
> <Batch ID>
0112

> <Smiles>
C=CC1=C([101CH2:1][101O:1]c2ccc3c(c2)CN(C(=O)C(NC(=O)C(C)NC)C(C)(C)C)C(C(=O)NC2CCCc4ccccc42)C3)CCN1C(C)c1cc([100NH:0][100C:0](=O)N2CCCC(n3nc(-c4ccc(Oc5ccc(F)cc5F)cc4)c(C(N)=O)c3N)C2)n(C)n1

> <Shape>
0.203

> <Color>
0.053

> <Negative vol penalty>
0.000

$$$$

  -OEChem-04052301313D

 90 98  0     1  0  0  0  0  0999 V2000
  -25.2156  -29.8935   19.7144 C   0  0  0  0  0  0  0  0  0  0  0  0
  -25.0587  -28.7253   20.4535 C   0  0  0  0  0  0  0  0  0  0  0  0
  -23.0592   -9.7962   20.0682 C   0  0  0  0  0  0  0  0  0  0  0  0
  -23.5484  -10.2187   22.3961 C   0  0  0  0  0  0  0  0  0  0  0  0
  -24.6420  -31.0827   20.1623 C   0  0  0  0  0  0  0  0  0  0  0  0
  -24.3291  -28.7460   21.6416 C   0  0  0  0  0  0  0  0  0  0  0  0
  -21.1355  -24.8350   22.0285 C   0  0  0  0  0  0  0  0  0  0  0  0
  -22.2658   -8.7083   20.4323 C   0  0  0  0  0  0  0  0  0  0  0  0
  -22.7550   -9.1308   22.7603 C   0  0  0  0  0  0  0  0  0  0  0  0
  -21.6783  -23.6033   22.3918 C   0  0  0  0  0  0  0  0  0  0  0  0
  -23.0342   -5.7625   22.8488 C   0  0  0  0  0  0  0  0  0  0  0  0
  -23.5394   -4.8840   23.8072 C   0  0  0  0  0  0  0  0  0  0  0  0
  -20.9397  -23.9539   24.6613 C   0  0  0  0  0  0  0  0  0  0  0  0
  -30.0107  -18.6241   23.4500 C   0  0  0  0  0  0  0  0  0  0  0  0
  -21.6562   -5.3661   25.2418 C   0  0  0  0  0  0  0  0  0  0  0  0
  -23.7006  -10.5514   21.0501 C   0  0  0  0  0  0  0  0  0  0  0  0
  -27.7134  -19.3852   22.0622 C   0  0  0  0  0  0  0  0  0  0  0  0
  -24.1103  -13.0125   20.5183 C   0  0  0  0  0  0  0  0  0  0  0  0
  -23.8968  -31.1160   21.3515 C   0  0  0  0  0  0  0  0  0  0  0  0
  -20.4992  -25.6417   22.9829 C   0  0  0  0  0  0  0  0  0  0  0  0
  -23.7461  -29.9371   22.1065 C   0  0  0  0  0  0  0  0  0  0  0  0
  -20.3873  -25.1943   24.3070 C   0  0  0  0  0  0  0  0  0  0  0  0
  -29.7292  -18.0611   22.2053 C   0  0  0  0  0  0  0  0  0  0  0  0
  -29.1434  -19.5676   24.0009 C   0  0  0  0  0  0  0  0  0  0  0  0
  -22.1137   -8.3756   21.7783 C   0  0  0  0  0  0  0  0  0  0  0  0
  -21.5830  -23.1638   23.7089 C   0  0  0  0  0  0  0  0  0  0  0  0
  -21.8401   -6.4430   23.0869 C   0  0  0  0  0  0  0  0  0  0  0  0
  -28.5806  -18.4416   21.5114 C   0  0  0  0  0  0  0  0  0  0  0  0
  -27.9948  -19.9482   23.3070 C   0  0  0  0  0  0  0  0  0  0  0  0
  -22.8504   -4.6858   25.0036 C   0  0  0  0  0  0  0  0  0  0  0  0
  -21.1510   -6.2447   24.2834 C   0  0  0  0  0  0  0  0  0  0  0  0
  -24.5207  -11.6750   20.6746 C   0  0  0  0  0  0  0  0  0  0  0  0
  -25.2536  -13.6826   20.1573 C   0  0  0  0  0  0  0  0  0  0  0  0
  -26.5114  -19.7828   21.3357 C   0  0  0  0  0  0  0  0  0  0  0  0
  -25.5200  -18.9564   20.9419 C   0  0  0  0  0  0  0  0  0  0  0  0
  -22.8117  -13.5970   20.6847 C   0  0  0  0  0  0  0  0  0  0  0  0
  -21.0195  -28.5425   24.1737 C   0  0  0  0  0  0  0  0  0  0  0  0
  -18.1873  -28.0133   25.6640 C   0  0  0  0  0  0  0  0  0  0  0  0
  -15.9115  -25.7612   26.8454 C   0  0  0  0  0  0  0  0  0  0  0  0
  -30.7000  -14.7137   20.8042 C   0  0  0  0  0  0  0  0  0  0  0  0
  -23.3355  -32.4352   21.8198 C   0  0  0  0  0  0  0  0  0  0  0  0
  -19.8953  -26.9557   22.5692 C   0  0  0  0  0  0  0  0  0  0  0  0
  -19.6963  -26.0135   25.3652 C   0  0  0  0  0  0  0  0  0  0  0  0
  -22.2619  -32.2928   22.8956 C   0  0  0  0  0  0  0  0  0  0  0  0
  -29.7935  -11.9366   18.7689 C   0  0  0  0  0  0  0  0  0  0  0  0
  -22.7131  -31.3127   23.9738 C   0  0  0  0  0  0  0  0  0  0  0  0
  -28.3094  -11.7277   19.0751 C   0  0  0  0  0  0  0  0  0  0  0  0
  -30.5701  -12.3709   20.0100 C   0  0  0  0  0  0  0  0  0  0  0  0
  -28.5374  -13.3433   21.0081 C   0  0  0  0  0  0  0  0  0  0  0  0
  -22.9408  -29.9141   23.3876 C   0  0  1  0  0  0  0  0  0  0  0  0
  -19.7218  -27.9263   23.7333 C   0  0  1  0  0  0  0  0  0  0  0  0
  -27.7025  -12.9588   19.7747 C   0  0  2  0  0  0  0  0  0  0  0  0
  -24.3095  -19.4073   20.1907 C   0  0  0  0  0  0  0  0  0  0  0  0
  -28.4558  -17.7754   17.9075 C   0  0  0  0  0  0  0  0  0  0  0  0
  -13.7135  -25.6286   28.0489 C   0  0  0  0  0  0  0  0  0  0  0  0
  -19.5887  -28.6770   28.2918 C   0  0  0  0  0  0  0  0  0  0  0  0
  -17.6655  -27.6262   29.5023 C   0  0  0  0  0  0  0  0  0  0  0  0
  -17.2879  -29.6309   28.0666 C   0  0  0  0  0  0  0  0  0  0  0  0
  -14.6143  -24.3898   24.5661 C   0  0  0  0  0  0  0  0  0  0  0  0
  -30.6702  -17.0530   21.6325 C   0  0  0  0  0  0  0  0  0  0  0  0
  -23.7502  -20.8557   25.4535 C   0  0  0  0  0  0  0  0  0  0  0  0
  -24.9197  -21.3360   24.6012 C   0  0  0  0  0  0  0  0  0  0  0  0
  -28.8412  -18.5497   19.1500 C   0  0  0  0  0  0  0  0  0  0  0  0
  -22.5830  -21.8329   25.4074 C   0  0  0  0  0  0  0  0  0  1  0  0
  -26.1026  -20.3814   24.6809 C   0  0  0  0  0  0  0  0  0  0  0  0
  -17.7691  -27.4001   26.9785 C   0  0  1  0  0  0  0  0  0  0  0  0
  -14.4032  -25.6797   26.6945 C   0  0  2  0  0  0  0  0  0  0  0  0
  -18.0926  -28.3187   28.1905 C   0  0  0  0  0  0  0  0  0  0  0  0
  -25.8230  -11.5036   20.4325 N   0  0  0  0  0  0  0  0  0  0  0  0
  -26.2408  -12.7422   20.1204 N   0  0  0  0  0  0  0  0  0  0  0  0
  -19.1275  -27.2939   24.9128 N   0  0  0  0  0  0  0  0  0  0  0  0
  -29.9438  -13.5436   20.6250 N   0  0  0  0  0  0  0  0  0  0  0  0
  -29.4421  -20.1281   25.2623 N   0  0  0  0  0  0  0  0  0  0  0  0
  -25.5007  -14.9784   19.8709 N   0  0  0  0  0  0  0  0  0  0  0  0
  -21.7475  -12.7651   21.0585 N   0  0  0  0  0  0  0  0  0  0  0  0
  -21.6765  -29.2415   23.1791 N   0  0  0  0  0  0  0  0  0  0  0  0
  -16.3554  -27.0666   26.8421 N   0  0  0  0  0  0  0  0  0  0  0  0
  -30.0283  -15.7805   21.3886 N   0  0  0  0  0  0  0  0  0  0  0  0
  -14.0245  -24.4592   25.9278 N   0  3  0  0  0  0  0  0  0  0  0  0
  -22.5979  -14.8178   20.4911 O   0  0  0  0  0  0  0  0  0  0  0  0
  -21.3960  -28.3960   25.3306 O   0  0  0  0  0  0  0  0  0  0  0  0
  -17.6924  -29.0873   25.3131 O   0  0  0  0  0  0  0  0  0  0  0  0
  -16.6243  -24.7664   26.9589 O   0  0  0  0  0  0  0  0  0  0  0  0
  -31.8845  -14.8028   20.4636 O   0  0  0  0  0  0  0  0  0  0  0  0
  -21.3394   -7.3142   22.1340 O   0  0  0  0  0  0  0  0  0  0  0  0
  -22.1125  -21.9623   24.0663 O   0  0  0  0  0  0  0  0  0  1  0  0
  -28.3153  -17.8829   20.2941 O   0  0  0  0  0  0  0  0  0  0  0  0
  -27.1489  -20.8762   23.8566 O   0  0  0  0  0  0  0  0  0  0  0  0
  -23.3349   -3.8409   25.9233 F   0  0  0  0  0  0  0  0  0  0  0  0
  -20.0027   -6.8946   24.5173 F   0  0  0  0  0  0  0  0  0  0  0  0
  1  2  1  0  0  0  0
  1  5  2  0  0  0  0
  2  6  2  0  0  0  0
  3  8  2  0  0  0  0
  3 16  1  0  0  0  0
  4  9  1  0  0  0  0
  4 16  2  0  0  0  0
  5 19  1  0  0  0  0
  6 21  1  0  0  0  0
  7 10  2  0  0  0  0
  7 20  1  0  0  0  0
  8 25  1  0  0  0  0
  9 25  2  0  0  0  0
 10 26  1  0  0  0  0
 11 12  2  0  0  0  0
 11 27  1  0  0  0  0
 12 30  1  0  0  0  0
 13 22  1  0  0  0  0
 13 26  2  0  0  0  0
 14 23  2  0  0  0  0
 14 24  1  0  0  0  0
 15 30  2  0  0  0  0
 15 31  1  0  0  0  0
 16 32  1  0  0  0  0
 17 28  2  0  0  0  0
 17 29  1  0  0  0  0
 17 34  1  0  0  0  0
 18 32  1  0  0  0  0
 18 33  2  0  0  0  0
 18 36  1  0  0  0  0
 19 21  2  0  0  0  0
 19 41  1  0  0  0  0
 20 22  2  0  0  0  0
 20 42  1  0  0  0  0
 21 50  1  0  0  0  0
 22 43  1  0  0  0  0
 23 28  1  0  0  0  0
 23 60  1  0  0  0  0
 24 29  2  0  0  0  0
 24 73  1  0  0  0  0
 25 85  1  0  0  0  0
 26 86  1  0  0  0  0
 27 31  2  0  0  0  0
 27 85  1  0  0  0  0
 28 87  1  0  0  0  0
 29 88  1  0  0  0  0
 30 89  1  0  0  0  0
 31 90  1  0  0  0  0
 32 69  2  0  0  0  0
 33 70  1  0  0  0  0
 33 74  1  0  0  0  0
 34 35  2  0  0  0  0
 35 53  1  0  0  0  0
 36 75  1  0  0  0  0
 36 80  2  0  0  0  0
 37 51  1  0  0  0  0
 37 76  1  0  0  0  0
 37 81  2  0  0  0  0
 38 66  1  0  0  0  0
 38 71  1  0  0  0  0
 38 82  2  0  0  0  0
 39 67  1  0  0  0  0
 39 77  1  0  0  0  0
 39 83  2  0  0  0  0
 40 72  1  0  0  0  0
 40 78  1  0  0  0  0
 40 84  2  0  0  0  0
 41 44  1  0  0  0  0
 42 51  1  0  0  0  0
 43 71  1  0  0  0  0
 44 46  1  0  0  0  0
 45 47  1  0  0  0  0
 45 48  1  0  0  0  0
 46 50  1  0  0  0  0
 47 52  1  0  0  0  0
 48 72  1  0  0  0  0
 49 52  1  0  0  0  0
 49 72  1  0  0  0  0
 50 76  1  0  0  0  0
 51 71  1  0  0  0  0
 52 70  1  0  0  0  0
 54 63  1  0  0  0  0
 55 67  1  0  0  0  0
 56 68  1  0  0  0  0
 57 68  1  0  0  0  0
 58 68  1  0  0  0  0
 59 79  1  0  0  0  0
 60 78  1  0  0  0  0
 61 62  1  0  0  0  0
 61 64  1  0  0  0  0
 62 65  1  0  0  0  0
 63 87  1  0  0  0  0
 64 86  1  0  0  0  0
 65 88  1  0  0  0  0
 66 68  1  0  0  0  0
 66 77  1  0  0  0  0
 67 79  1  0  0  0  0
 69 70  1  0  0  0  0
M  CHG  1  79   1
M  ISO  4  40 100  64 101  78 100  86 101
M  END
> <Batch ID>
0112

> <Smiles>
CC=Cc1c(OCCC[101CH2:1][101O:1]c2ccc3c(c2)CN(C(=O)C(NC(=O)C(C)NC)C(C)(C)C)C(C(=O)NC2CCCc4ccccc42)C3)c(N)cc(C[100NH:0][100C:0](=O)N2CCCC(n3nc(-c4ccc(Oc5ccc(F)cc5F)cc4)c(C(N)=O)c3N)C2)c1OCC

> <Shape>
0.275

> <Color>
0.190

> <Negative vol penalty>
0.000

$$$$

  -OEChem-04052301313D

 92101  0     1  0  0  0  0  0999 V2000
  -26.3672  -27.6578   13.9893 C   0  0  0  0  0  0  0  0  0  0  0  0
  -26.2938  -27.6984   15.3780 C   0  0  0  0  0  0  0  0  0  0  0  0
  -23.0470   -9.8643   19.9722 C   0  0  0  0  0  0  0  0  0  0  0  0
  -23.7904   -9.9076   22.2706 C   0  0  0  0  0  0  0  0  0  0  0  0
  -26.8881  -26.5321   13.3526 C   0  0  0  0  0  0  0  0  0  0  0  0
  -26.7403  -26.6128   16.1307 C   0  0  0  0  0  0  0  0  0  0  0  0
  -29.8393  -25.0636   22.4006 C   0  0  0  0  0  0  0  0  0  0  0  0
  -30.4772  -18.0312   23.9471 C   0  0  0  0  0  0  0  0  0  0  0  0
  -29.6999  -18.8702   24.7456 C   0  0  0  0  0  0  0  0  0  0  0  0
  -22.2797   -8.7311   20.2417 C   0  0  0  0  0  0  0  0  0  0  0  0
  -23.0230   -8.7744   22.5401 C   0  0  0  0  0  0  0  0  0  0  0  0
  -29.6598  -24.2509   23.5191 C   0  0  0  0  0  0  0  0  0  0  0  0
  -19.8422   -6.0395   20.4120 C   0  0  0  0  0  0  0  0  0  0  0  0
  -18.5393   -6.0053   19.9149 C   0  0  0  0  0  0  0  0  0  0  0  0
  -28.0501  -19.0159   22.9866 C   0  0  0  0  0  0  0  0  0  0  0  0
  -30.6138  -22.3918   22.3138 C   0  0  0  0  0  0  0  0  0  0  0  0
  -18.0016   -7.9871   21.1879 C   0  0  0  0  0  0  0  0  0  0  0  0
  -23.8024  -10.4525   20.9866 C   0  0  0  0  0  0  0  0  0  0  0  0
  -28.8274  -18.1770   22.1880 C   0  0  0  0  0  0  0  0  0  0  0  0
  -24.1929  -12.9676   20.8139 C   0  0  0  0  0  0  0  0  0  0  0  0
  -27.3501  -25.4361   14.0982 C   0  0  0  0  0  0  0  0  0  0  0  0
  -30.3983  -24.5429   21.2247 C   0  0  0  0  0  0  0  0  0  0  0  0
  -27.2666  -25.4708   15.5032 C   0  0  0  0  0  0  0  0  0  0  0  0
  -30.8017  -23.2007   21.1826 C   0  0  0  0  0  0  0  0  0  0  0  0
  -30.0410  -17.6847   22.6682 C   0  0  0  0  0  0  0  0  0  0  0  0
  -28.4864  -19.3625   24.2654 C   0  0  0  0  0  0  0  0  0  0  0  0
  -22.2676   -8.1862   21.5256 C   0  0  0  0  0  0  0  0  0  0  0  0
  -30.0444  -22.9140   23.4749 C   0  0  0  0  0  0  0  0  0  0  0  0
  -20.2247   -7.0475   21.2971 C   0  0  0  0  0  0  0  0  0  0  0  0
  -17.6191   -6.9791   20.3029 C   0  0  0  0  0  0  0  0  0  0  0  0
  -19.3044   -8.0213   21.6850 C   0  0  0  0  0  0  0  0  0  0  0  0
  -24.5957  -11.6228   20.7087 C   0  0  0  0  0  0  0  0  0  0  0  0
  -25.3016  -13.6882   20.4426 C   0  0  0  0  0  0  0  0  0  0  0  0
  -26.2815  -20.3303   25.0595 C   0  0  0  0  0  0  0  0  0  0  0  0
  -28.3447  -17.8340   20.8567 C   0  0  0  0  0  0  0  0  0  0  0  0
  -28.5845  -18.5451   19.7347 C   0  0  0  0  0  0  0  0  0  0  0  0
  -22.9294  -13.5163   21.2117 C   0  0  0  0  0  0  0  0  0  0  0  0
  -28.0110  -18.1144   18.4270 C   0  0  0  0  0  0  0  0  0  0  0  0
  -29.3866  -24.1682   18.2348 C   0  0  0  0  0  0  0  0  0  0  0  0
  -32.4479  -23.2214   17.7304 C   0  0  0  0  0  0  0  0  0  0  0  0
  -35.3355  -21.9427   19.0240 C   0  0  0  0  0  0  0  0  0  0  0  0
  -30.8022  -14.6080   20.6502 C   0  0  0  0  0  0  0  0  0  0  0  0
  -27.8613  -24.2221   13.3637 C   0  0  0  0  0  0  0  0  0  0  0  0
  -30.6099  -25.4395   20.0357 C   0  0  0  0  0  0  0  0  0  0  0  0
  -31.4253  -22.5983   19.9511 C   0  0  0  0  0  0  0  0  0  0  0  0
  -25.8821  -21.3429   26.1066 C   0  0  0  0  0  0  0  0  0  0  0  0
  -28.6591  -23.2666   14.2474 C   0  0  0  0  0  0  0  0  0  0  0  0
  -27.0987  -21.4156   27.0098 C   0  0  0  0  0  0  0  0  0  0  0  0
  -29.6368  -12.1932   18.3078 C   0  0  0  0  0  0  0  0  0  0  0  0
  -27.9280  -23.0204   15.5633 C   0  0  0  0  0  0  0  0  0  0  0  0
  -28.1910  -11.9362   18.7361 C   0  0  0  0  0  0  0  0  0  0  0  0
  -30.5493  -12.4232   19.5104 C   0  0  0  0  0  0  0  0  0  0  0  0
  -28.6518  -13.2203   20.8662 C   0  0  0  0  0  0  0  0  0  0  0  0
  -27.7636  -24.3232   16.3553 C   0  0  1  0  0  0  0  0  0  0  0  0
  -30.7157  -24.6732   18.7208 C   0  0  1  0  0  0  0  0  0  0  0  0
  -27.6830  -13.0381   19.6853 C   0  0  2  0  0  0  0  0  0  0  0  0
  -28.2653  -21.1359   26.0688 C   0  0  2  0  0  0  0  0  0  0  0  0
  -27.7123  -19.2204   17.4380 C   0  0  0  0  0  0  0  0  0  0  0  0
  -37.6526  -21.2452   18.3592 C   0  0  0  0  0  0  0  0  0  0  0  0
  -31.3227  -20.6676   16.4968 C   0  0  0  0  0  0  0  0  0  0  0  0
  -33.5928  -19.6377   16.7297 C   0  0  0  0  0  0  0  0  0  0  0  0
  -33.2772  -21.6415   15.2779 C   0  0  0  0  0  0  0  0  0  0  0  0
  -36.5773  -23.9430   20.8173 C   0  0  0  0  0  0  0  0  0  0  0  0
  -27.1008  -15.2868   16.6696 C   0  0  0  0  0  0  0  0  0  0  0  0
  -30.8998  -16.7837   21.8402 C   0  0  0  0  0  0  0  0  0  0  0  0
  -28.7750  -22.4280   25.4264 C   0  0  0  0  0  0  0  0  0  1  0  0
  -33.1834  -21.9044   17.7907 C   0  0  1  0  0  0  0  0  0  0  0  0
  -36.7828  -22.3781   18.8813 C   0  0  2  0  0  0  0  0  0  0  0  0
  -32.8305  -20.9734   16.5965 C   0  0  0  0  0  0  0  0  0  0  0  0
  -25.8615  -11.4940   20.3022 N   0  0  0  0  0  0  0  0  0  0  0  0
  -27.8153  -16.8550   18.1674 N   0  0  0  0  0  0  0  0  0  0  0  0
  -26.2636  -12.7671   20.1487 N   0  0  0  0  0  0  0  0  0  0  0  0
  -27.6883  -20.2233   25.0856 N   0  0  0  0  0  0  0  0  0  0  0  0
  -31.6055  -23.5139   18.8123 N   0  0  0  0  0  0  0  0  0  0  0  0
  -30.0119  -13.4812   20.3694 N   0  0  0  0  0  0  0  0  0  0  0  0
  -25.5377  -15.0136   20.3420 N   0  0  0  0  0  0  0  0  0  0  0  0
  -21.8980  -12.6339   21.5611 N   0  0  0  0  0  0  0  0  0  0  0  0
  -29.0055  -24.6778   17.0082 N   0  0  0  0  0  0  0  0  0  0  0  0
  -34.6011  -22.2329   17.8937 N   0  0  0  0  0  0  0  0  0  0  0  0
  -30.2147  -15.5663   21.4671 N   0  0  0  0  0  0  0  0  0  0  0  0
  -37.3238  -22.8174   20.1987 N   0  3  0  0  0  0  0  0  0  0  0  0
  -25.4598  -19.7767   24.3432 O   0  0  0  0  0  0  0  0  0  0  0  0
  -22.7161  -14.7521   21.2402 O   0  0  0  0  0  0  0  0  0  0  0  0
  -28.7545  -23.3738   18.9210 O   0  0  0  0  0  0  0  0  0  0  0  0
  -32.6202  -23.9665   16.7625 O   0  0  0  0  0  0  0  0  0  0  0  0
  -34.9010  -21.3961   20.0355 O   0  0  0  0  0  0  0  0  0  0  0  0
  -31.9445  -14.7521   20.2015 O   0  0  0  0  0  0  0  0  0  0  0  0
  -21.5187   -7.0806   21.7891 O   0  0  0  0  0  0  0  0  0  0  0  0
  -29.8697  -22.1183   24.5649 O   0  0  0  0  0  0  0  0  0  1  0  0
  -27.2871  -16.6778   16.8819 O   0  0  0  0  0  0  0  0  0  0  0  0
  -16.3684   -6.9469   19.8242 F   0  0  0  0  0  0  0  0  0  0  0  0
  -19.6664   -8.9928   22.5341 F   0  0  0  0  0  0  0  0  0  0  0  0
  1  2  1  0  0  0  0
  1  5  2  0  0  0  0
  2  6  2  0  0  0  0
  3 10  2  0  0  0  0
  3 18  1  0  0  0  0
  4 11  1  0  0  0  0
  4 18  2  0  0  0  0
  5 21  1  0  0  0  0
  6 23  1  0  0  0  0
  7 12  2  0  0  0  0
  7 22  1  0  0  0  0
  8  9  2  0  0  0  0
  8 25  1  0  0  0  0
  9 26  1  0  0  0  0
 10 27  1  0  0  0  0
 11 27  2  0  0  0  0
 12 28  1  0  0  0  0
 13 14  2  0  0  0  0
 13 29  1  0  0  0  0
 14 30  1  0  0  0  0
 15 19  1  0  0  0  0
 15 26  2  0  0  0  0
 16 24  1  0  0  0  0
 16 28  2  0  0  0  0
 17 30  2  0  0  0  0
 17 31  1  0  0  0  0
 18 32  1  0  0  0  0
 19 25  2  0  0  0  0
 19 35  1  0  0  0  0
 20 32  1  0  0  0  0
 20 33  2  0  0  0  0
 20 37  1  0  0  0  0
 21 23  2  0  0  0  0
 21 43  1  0  0  0  0
 22 24  2  0  0  0  0
 22 44  1  0  0  0  0
 23 54  1  0  0  0  0
 24 45  1  0  0  0  0
 25 65  1  0  0  0  0
 26 73  1  0  0  0  0
 27 88  1  0  0  0  0
 28 89  1  0  0  0  0
 29 31  2  0  0  0  0
 29 88  1  0  0  0  0
 30 91  1  0  0  0  0
 31 92  1  0  0  0  0
 32 70  2  0  0  0  0
 33 72  1  0  0  0  0
 33 76  1  0  0  0  0
 34 46  1  0  0  0  0
 34 73  1  0  0  0  0
 34 82  2  0  0  0  0
 35 36  2  0  0  0  0
 36 38  1  0  0  0  0
 37 77  1  0  0  0  0
 37 83  2  0  0  0  0
 38 58  1  0  0  0  0
 38 71  2  0  0  0  0
 39 55  1  0  0  0  0
 39 78  1  0  0  0  0
 39 84  2  0  0  0  0
 40 67  1  0  0  0  0
 40 74  1  0  0  0  0
 40 85  2  0  0  0  0
 41 68  1  0  0  0  0
 41 79  1  0  0  0  0
 41 86  2  0  0  0  0
 42 75  1  0  0  0  0
 42 80  1  0  0  0  0
 42 87  2  0  0  0  0
 43 47  1  0  0  0  0
 44 55  1  0  0  0  0
 45 74  1  0  0  0  0
 46 48  1  0  0  0  0
 47 50  1  0  0  0  0
 48 57  1  0  0  0  0
 49 51  1  0  0  0  0
 49 52  1  0  0  0  0
 50 54  1  0  0  0  0
 51 56  1  0  0  0  0
 52 75  1  0  0  0  0
 53 56  1  0  0  0  0
 53 75  1  0  0  0  0
 54 78  1  0  0  0  0
 55 74  1  0  0  0  0
 56 72  1  0  0  0  0
 57 66  1  0  0  0  0
 57 73  1  0  0  0  0
 59 68  1  0  0  0  0
 60 69  1  0  0  0  0
 61 69  1  0  0  0  0
 62 69  1  0  0  0  0
 63 81  1  0  0  0  0
 64 90  1  0  0  0  0
 65 80  1  0  0  0  0
 66 89  1  0  0  0  0
 67 69  1  0  0  0  0
 67 79  1  0  0  0  0
 68 81  1  0  0  0  0
 70 72  1  0  0  0  0
 71 90  1  0  0  0  0
M  CHG  1  81   1
M  ISO  4  42 100  66 101  80 100  89 101
M  END
> <Batch ID>
0112

> <Smiles>
CNC(C)C(=O)NC(C(=O)N1Cc2cc([101O:1][101CH2:1]C3CCC(=O)N3c3ccc(C[100NH:0][100C:0](=O)N4CCCC(n5nc(-c6ccc(Oc7ccc(F)cc7F)cc6)c(C(N)=O)c5N)C4)c(C=CC(C)=NOC)c3)ccc2CC1C(=O)NC1CCCc2ccccc21)C(C)(C)C

> <Shape>
0.208

> <Color>
0.205

> <Negative vol penalty>
0.000

$$$$

  -OEChem-04052301313D

 86 94  0     1  0  0  0  0  0999 V2000
  -28.9503  -37.0075   21.4474 C   0  0  0  0  0  0  0  0  0  0  0  0
  -28.9603  -35.9581   20.5342 C   0  0  0  0  0  0  0  0  0  0  0  0
  -24.2240   -9.6016   22.1848 C   0  0  0  0  0  0  0  0  0  0  0  0
  -24.3647   -8.9010   19.8769 C   0  0  0  0  0  0  0  0  0  0  0  0
  -28.7024  -36.7542   22.7959 C   0  0  0  0  0  0  0  0  0  0  0  0
  -28.7236  -34.6546   20.9691 C   0  0  0  0  0  0  0  0  0  0  0  0
  -25.7818  -28.4934   18.8006 C   0  0  0  0  0  0  0  0  0  0  0  0
  -23.1116   -8.7799   22.3664 C   0  0  0  0  0  0  0  0  0  0  0  0
  -23.2523   -8.0792   20.0585 C   0  0  0  0  0  0  0  0  0  0  0  0
  -26.0852  -27.1377   18.6827 C   0  0  0  0  0  0  0  0  0  0  0  0
  -22.4976   -5.4915   22.8583 C   0  0  0  0  0  0  0  0  0  0  0  0
  -22.4552   -4.7026   24.0079 C   0  0  0  0  0  0  0  0  0  0  0  0
  -25.5902  -26.8296   21.0235 C   0  0  0  0  0  0  0  0  0  0  0  0
  -31.3849  -21.9985   19.9859 C   0  0  0  0  0  0  0  0  0  0  0  0
  -20.4124   -5.8001   24.6857 C   0  0  0  0  0  0  0  0  0  0  0  0
  -24.8505   -9.6622   20.9399 C   0  0  0  0  0  0  0  0  0  0  0  0
  -27.3513  -10.1661   20.9384 C   0  0  0  0  0  0  0  0  0  0  0  0
  -28.4530  -35.4482   23.2460 C   0  0  0  0  0  0  0  0  0  0  0  0
  -25.3902  -29.0303   20.0354 C   0  0  0  0  0  0  0  0  0  0  0  0
  -28.4735  -34.3834   22.3250 C   0  0  0  0  0  0  0  0  0  0  0  0
  -25.2799  -28.1918   21.1538 C   0  0  0  0  0  0  0  0  0  0  0  0
  -31.6063  -20.6661   20.4089 C   0  0  0  0  0  0  0  0  0  0  0  0
  -22.6258   -8.0187   21.3034 C   0  0  0  0  0  0  0  0  0  0  0  0
  -25.9922  -26.3061   19.7949 C   0  0  0  0  0  0  0  0  0  0  0  0
  -21.4974   -6.4348   22.6225 C   0  0  0  0  0  0  0  0  0  0  0  0
  -21.4126   -4.8569   24.9215 C   0  0  0  0  0  0  0  0  0  0  0  0
  -20.4548   -6.5890   23.5361 C   0  0  0  0  0  0  0  0  0  0  0  0
  -25.9993  -10.5112   20.7515 C   0  0  0  0  0  0  0  0  0  0  0  0
  -30.0277  -22.1189   19.7978 C   0  0  0  0  0  0  0  0  0  0  0  0
  -30.3686  -20.0674   20.4495 C   0  0  0  0  0  0  0  0  0  0  0  0
  -28.0437  -11.3120   20.6319 C   0  0  0  0  0  0  0  0  0  0  0  0
  -34.2535  -21.3571   25.2777 C   0  0  0  0  0  0  0  0  0  0  0  0
  -29.2902  -23.3149   19.3574 C   0  0  0  0  0  0  0  0  0  0  0  0
  -30.0623  -18.7347   20.8137 C   0  0  0  0  0  0  0  0  0  0  0  0
  -33.7638  -20.5089   24.3683 C   0  0  0  0  0  0  0  0  0  0  0  0
  -28.8196  -18.1505   20.8268 C   0  0  0  0  0  0  0  0  0  0  0  0
  -27.9633  -23.3795   19.1662 C   0  0  0  0  0  0  0  0  0  0  0  0
  -27.9295   -8.9210   21.3521 C   0  0  0  0  0  0  0  0  0  0  0  0
  -28.6631  -16.7370   21.2246 C   0  0  0  0  0  0  0  0  0  0  0  0
  -33.6472  -20.9180   22.9432 C   0  0  0  0  0  0  0  0  0  0  0  0
  -26.5716  -31.2322   22.0000 C   0  0  0  0  0  0  0  0  0  0  0  0
  -23.7994  -30.7258   23.6064 C   0  0  0  0  0  0  0  0  0  0  0  0
  -21.1977  -28.6311   24.3068 C   0  0  0  0  0  0  0  0  0  0  0  0
  -28.2369  -35.2174   24.7207 C   0  0  0  0  0  0  0  0  0  0  0  0
  -25.0405  -30.4895   20.1399 C   0  0  0  0  0  0  0  0  0  0  0  0
  -24.8444  -28.7151   22.4973 C   0  0  0  0  0  0  0  0  0  0  0  0
  -27.6245  -33.8563   25.0409 C   0  0  0  0  0  0  0  0  0  0  0  0
  -26.5330  -15.6074   18.4644 C   0  0  0  0  0  0  0  0  0  0  0  0
  -28.3401  -32.7536   24.2671 C   0  0  0  0  0  0  0  0  0  0  0  0
  -26.2795  -14.1562   18.8640 C   0  0  0  0  0  0  0  0  0  0  0  0
  -26.6408  -16.5250   19.6814 C   0  0  0  0  0  0  0  0  0  0  0  0
  -27.4023  -14.6247   21.0776 C   0  0  0  0  0  0  0  0  0  0  0  0
  -28.1965  -32.9589   22.7543 C   0  0  1  0  0  0  0  0  0  0  0  0
  -25.1485  -31.0294   21.5626 C   0  0  1  0  0  0  0  0  0  0  0  0
  -27.3372  -13.6761   19.8705 C   0  0  1  0  0  0  0  0  0  0  0  0
  -19.1062  -28.4803   25.6852 C   0  0  0  0  0  0  0  0  0  0  0  0
  -25.4827  -30.2234   26.1013 C   0  0  0  0  0  0  0  0  0  0  0  0
  -23.4725  -29.1723   27.1609 C   0  0  0  0  0  0  0  0  0  0  0  0
  -23.4152  -31.5749   26.4926 C   0  0  0  0  0  0  0  0  0  0  0  0
  -19.4956  -28.3434   21.9029 C   0  0  0  0  0  0  0  0  0  0  0  0
  -32.9121  -20.0607   20.7364 C   0  0  0  0  0  0  0  0  0  0  0  0
  -27.2598  -24.6152   18.7041 C   0  0  0  0  0  0  0  0  0  1  0  0
  -23.3555  -29.7891   24.7039 C   0  0  1  0  0  0  0  0  0  0  0  0
  -19.6979  -28.8632   24.3376 C   0  0  2  0  0  0  0  0  0  0  0  0
  -23.9416  -30.1801   26.0899 C   0  0  0  0  0  0  0  0  0  0  0  0
  -25.8402  -11.7773   20.3569 N   0  0  0  0  0  0  0  0  0  0  0  0
  -27.1011  -12.2378   20.2935 N   0  0  0  0  0  0  0  0  0  0  0  0
  -27.6160  -16.0138   20.6563 N   0  0  0  0  0  0  0  0  0  0  0  0
  -24.5195  -30.1500   22.5502 N   0  0  0  0  0  0  0  0  0  0  0  0
  -29.3608  -11.6079   20.6216 N   0  0  0  0  0  0  0  0  0  0  0  0
  -27.0738   -7.8456   21.6272 N   0  0  0  0  0  0  0  0  0  0  0  0
  -33.1204  -19.9068   22.1598 N   0  0  0  0  0  0  0  0  0  0  0  0
  -26.8838  -32.5421   22.3100 N   0  0  0  0  0  0  0  0  0  0  0  0
  -21.8975  -29.7666   24.6565 N   0  0  0  0  0  0  0  0  0  0  0  0
  -19.0266  -28.0528   23.2822 N   0  3  0  0  0  0  0  0  0  0  0  0
  -29.1673   -8.7715   21.4900 O   0  0  0  0  0  0  0  0  0  0  0  0
  -29.4675  -16.2835   22.0407 O   0  0  0  0  0  0  0  0  0  0  0  0
  -33.9897  -22.0266   22.5444 O   0  0  0  0  0  0  0  0  0  0  0  0
  -27.3299  -30.2710   22.0538 O   0  0  0  0  0  0  0  0  0  0  0  0
  -23.5115  -31.9231   23.6800 O   0  0  0  0  0  0  0  0  0  0  0  0
  -21.6984  -27.5496   24.0064 O   0  0  0  0  0  0  0  0  0  0  0  0
  -29.4009  -20.9463   20.0784 O   0  0  0  0  0  0  0  0  0  0  0  0
  -21.5405   -7.2166   21.4803 O   0  0  0  0  0  0  0  0  0  0  0  0
  -26.2884  -24.9827   19.6828 O   0  0  0  0  0  0  0  0  0  1  0  0
  -21.3712   -4.0982   26.0246 F   0  0  0  0  0  0  0  0  0  0  0  0
  -19.4904   -7.4927   23.3144 F   0  0  0  0  0  0  0  0  0  0  0  0
  1  2  1  0  0  0  0
  1  5  2  0  0  0  0
  2  6  2  0  0  0  0
  3  8  2  0  0  0  0
  3 16  1  0  0  0  0
  4  9  1  0  0  0  0
  4 16  2  0  0  0  0
  5 18  1  0  0  0  0
  6 20  1  0  0  0  0
  7 10  2  0  0  0  0
  7 19  1  0  0  0  0
  8 23  1  0  0  0  0
  9 23  2  0  0  0  0
 10 24  1  0  0  0  0
 11 12  2  0  0  0  0
 11 25  1  0  0  0  0
 12 26  1  0  0  0  0
 13 21  1  0  0  0  0
 13 24  2  0  0  0  0
 14 22  1  0  0  0  0
 14 29  2  0  0  0  0
 15 26  2  0  0  0  0
 15 27  1  0  0  0  0
 16 28  1  0  0  0  0
 17 28  1  0  0  0  0
 17 31  2  0  0  0  0
 17 38  1  0  0  0  0
 18 20  2  0  0  0  0
 18 44  1  0  0  0  0
 19 21  2  0  0  0  0
 19 45  1  0  0  0  0
 20 53  1  0  0  0  0
 21 46  1  0  0  0  0
 22 30  2  0  0  0  0
 22 61  1  0  0  0  0
 23 83  1  0  0  0  0
 24 84  1  0  0  0  0
 25 27  2  0  0  0  0
 25 83  1  0  0  0  0
 26 85  1  0  0  0  0
 27 86  1  0  0  0  0
 28 66  2  0  0  0  0
 29 33  1  0  0  0  0
 29 82  1  0  0  0  0
 30 34  1  0  0  0  0
 30 82  1  0  0  0  0
 31 67  1  0  0  0  0
 31 70  1  0  0  0  0
 32 35  2  0  0  0  0
 33 37  2  0  0  0  0
 34 36  2  0  0  0  0
 35 40  1  0  0  0  0
 36 39  1  0  0  0  0
 37 62  1  0  0  0  0
 38 71  1  0  0  0  0
 38 76  2  0  0  0  0
 39 68  1  0  0  0  0
 39 77  2  0  0  0  0
 40 72  1  0  0  0  0
 40 78  2  0  0  0  0
 41 54  1  0  0  0  0
 41 73  1  0  0  0  0
 41 79  2  0  0  0  0
 42 63  1  0  0  0  0
 42 69  1  0  0  0  0
 42 80  2  0  0  0  0
 43 64  1  0  0  0  0
 43 74  1  0  0  0  0
 43 81  2  0  0  0  0
 44 47  1  0  0  0  0
 45 54  1  0  0  0  0
 46 69  1  0  0  0  0
 47 49  1  0  0  0  0
 48 50  1  0  0  0  0
 48 51  1  0  0  0  0
 49 53  1  0  0  0  0
 50 55  1  0  0  0  0
 51 68  1  0  0  0  0
 52 55  1  0  0  0  0
 52 68  1  0  0  0  0
 53 73  1  0  0  0  0
 54 69  1  0  0  0  0
 55 67  1  0  0  0  0
 56 64  1  0  0  0  0
 57 65  1  0  0  0  0
 58 65  1  0  0  0  0
 59 65  1  0  0  0  0
 60 75  1  0  0  0  0
 61 72  1  0  0  0  0
 62 84  1  0  0  0  0
 63 65  1  0  0  0  0
 63 74  1  0  0  0  0
 64 75  1  0  0  0  0
 66 67  1  0  0  0  0
M  CHG  1  75   1
M  ISO  4  36 100  39 100  62 101  84 101
M  END
> <Batch ID>
0112

> <Smiles>
C=CC(=O)NCc1cc(C=C[101CH2:1][101O:1]c2ccc3c(c2)CN(C(=O)C(NC(=O)C(C)NC)C(C)(C)C)C(C(=O)NC2CCCc4ccccc42)C3)oc1C=[100CH:0][100C:0](=O)N1CCCC(n2nc(-c3ccc(Oc4ccc(F)cc4F)cc3)c(C(N)=O)c2N)C1

> <Shape>
0.275

> <Color>
0.122

> <Negative vol penalty>
0.000

$$$$

  -OEChem-04052301313D

 84 92  0     1  0  0  0  0  0999 V2000
  -28.7721  -31.8363   26.9033 C   0  0  0  0  0  0  0  0  0  0  0  0
  -28.4464  -30.7068   26.1593 C   0  0  0  0  0  0  0  0  0  0  0  0
  -23.6859   -9.6682   19.7823 C   0  0  0  0  0  0  0  0  0  0  0  0
  -24.5616   -9.6776   22.0340 C   0  0  0  0  0  0  0  0  0  0  0  0
  -27.8408  -32.8629   27.0538 C   0  0  0  0  0  0  0  0  0  0  0  0
  -27.1888  -30.6028   25.5661 C   0  0  0  0  0  0  0  0  0  0  0  0
  -27.4254  -28.9401   20.7886 C   0  0  0  0  0  0  0  0  0  0  0  0
  -23.3066   -8.3347   19.9354 C   0  0  0  0  0  0  0  0  0  0  0  0
  -24.1823   -8.3441   22.1871 C   0  0  0  0  0  0  0  0  0  0  0  0
  -27.6198  -27.5726   20.5993 C   0  0  0  0  0  0  0  0  0  0  0  0
  -23.1198   -5.0491   23.2971 C   0  0  0  0  0  0  0  0  0  0  0  0
  -22.4826   -4.6875   24.4840 C   0  0  0  0  0  0  0  0  0  0  0  0
  -27.8134  -18.9157   22.8116 C   0  0  0  0  0  0  0  0  0  0  0  0
  -25.2588  -27.3002   20.1866 C   0  0  0  0  0  0  0  0  0  0  0  0
  -29.3148  -19.3554   20.9705 C   0  0  0  0  0  0  0  0  0  0  0  0
  -20.7074   -6.2560   24.0087 C   0  0  0  0  0  0  0  0  0  0  0  0
  -24.3135  -10.3397   20.8316 C   0  0  0  0  0  0  0  0  0  0  0  0
  -27.5938  -20.2852   22.9595 C   0  0  0  0  0  0  0  0  0  0  0  0
  -28.2347  -21.1898   22.1130 C   0  0  0  0  0  0  0  0  0  0  0  0
  -23.9375  -12.8591   20.9682 C   0  0  0  0  0  0  0  0  0  0  0  0
  -26.5745  -32.7758   26.4541 C   0  0  0  0  0  0  0  0  0  0  0  0
  -26.1424  -29.4972   20.6889 C   0  0  0  0  0  0  0  0  0  0  0  0
  -26.2392  -31.6286   25.7098 C   0  0  0  0  0  0  0  0  0  0  0  0
  -25.0511  -28.6755   20.3726 C   0  0  0  0  0  0  0  0  0  0  0  0
  -28.6740  -18.4508   21.8171 C   0  0  0  0  0  0  0  0  0  0  0  0
  -23.5547   -7.6726   21.1378 C   0  0  0  0  0  0  0  0  0  0  0  0
  -26.5360  -26.7519   20.3011 C   0  0  0  0  0  0  0  0  0  0  0  0
  -22.5510   -6.0142   22.4660 C   0  0  0  0  0  0  0  0  0  0  0  0
  -21.2764   -5.2910   24.8398 C   0  0  0  0  0  0  0  0  0  0  0  0
  -29.0952  -20.7249   21.1185 C   0  0  0  0  0  0  0  0  0  0  0  0
  -21.3448   -6.6176   22.8218 C   0  0  0  0  0  0  0  0  0  0  0  0
  -24.7061  -11.7170   20.6738 C   0  0  0  0  0  0  0  0  0  0  0  0
  -24.7548  -13.9152   20.6468 C   0  0  0  0  0  0  0  0  0  0  0  0
  -26.8955  -20.5182   25.2990 C   0  0  0  0  0  0  0  0  0  0  0  0
  -26.6882  -20.7355   24.0094 C   0  0  0  0  0  0  0  0  0  0  0  0
  -27.4654  -23.3767   21.0691 C   0  0  0  0  0  0  0  0  0  0  0  0
  -27.2443  -24.6910   21.1504 C   0  0  0  0  0  0  0  0  0  1  0  0
  -28.0260  -22.6524   22.2402 C   0  0  0  0  0  0  0  0  0  0  0  0
  -22.6040  -12.9567   21.4859 C   0  0  0  0  0  0  0  0  0  0  0  0
  -24.2036  -31.0353   22.6837 C   0  0  0  0  0  0  0  0  0  0  0  0
  -22.3875  -31.3975   20.0205 C   0  0  0  0  0  0  0  0  0  0  0  0
  -21.5480  -30.2697   16.9108 C   0  0  0  0  0  0  0  0  0  0  0  0
  -29.7203  -16.4329   20.7310 C   0  0  0  0  0  0  0  0  0  0  0  0
  -25.5842  -33.8897   26.6842 C   0  0  0  0  0  0  0  0  0  0  0  0
  -25.9535  -30.9784   20.8696 C   0  0  0  0  0  0  0  0  0  0  0  0
  -23.6566  -29.2275   20.2344 C   0  0  0  0  0  0  0  0  0  0  0  0
  -24.4077  -33.8693   25.7116 C   0  0  0  0  0  0  0  0  0  0  0  0
  -29.1632  -14.0314   18.1620 C   0  0  0  0  0  0  0  0  0  0  0  0
  -23.8427  -32.4580   25.5868 C   0  0  0  0  0  0  0  0  0  0  0  0
  -27.8907  -13.3092   18.6107 C   0  0  0  0  0  0  0  0  0  0  0  0
  -30.0558  -14.3966   19.3468 C   0  0  0  0  0  0  0  0  0  0  0  0
  -28.1168  -14.4264   20.8663 C   0  0  0  0  0  0  0  0  0  0  0  0
  -24.8940  -31.4901   25.0305 C   0  0  1  0  0  0  0  0  0  0  0  0
  -24.5257  -31.3565   21.2516 C   0  0  1  0  0  0  0  0  0  0  0  0
  -27.1551  -14.0959   19.7132 C   0  0  2  0  0  0  0  0  0  0  0  0
  -20.0033  -30.7492   14.9920 C   0  0  0  0  0  0  0  0  0  0  0  0
  -20.0657  -30.1933   21.5919 C   0  0  0  0  0  0  0  0  0  0  0  0
  -18.8793  -29.8210   19.4188 C   0  0  0  0  0  0  0  0  0  0  0  0
  -19.4491  -32.1382   20.1456 C   0  0  0  0  0  0  0  0  0  0  0  0
  -23.8075  -30.7329   15.0563 C   0  0  0  0  0  0  0  0  0  0  0  0
  -21.2924  -30.5982   19.3564 C   0  0  1  0  0  0  0  0  0  0  0  0
  -21.3810  -30.9947   15.5875 C   0  0  2  0  0  0  0  0  0  0  0  0
  -19.9475  -30.6767   20.1326 C   0  0  0  0  0  0  0  0  0  0  0  0
  -25.9185  -12.0190   20.2016 N   0  0  0  0  0  0  0  0  0  0  0  0
  -25.9178  -13.3629   20.1967 N   0  0  0  0  0  0  0  0  0  0  0  0
  -23.5222  -30.6810   20.4264 N   0  0  0  0  0  0  0  0  0  0  0  0
  -29.2925  -15.1439   20.3487 N   0  0  0  0  0  0  0  0  0  0  0  0
  -24.5848  -15.2530   20.7081 N   0  0  0  0  0  0  0  0  0  0  0  0
  -21.9060  -11.7730   21.7615 N   0  0  0  0  0  0  0  0  0  0  0  0
  -28.8976  -17.0598   21.6663 N   0  0  0  0  0  0  0  0  0  0  0  0
  -25.0294  -31.6589   23.5995 N   0  0  0  0  0  0  0  0  0  0  0  0
  -21.2164  -31.0751   17.9797 N   0  0  0  0  0  0  0  0  0  0  0  0
  -22.4052  -30.5303   14.6096 N   0  3  0  0  0  0  0  0  0  0  0  0
  -28.2915  -23.2159   23.2964 O   0  0  0  0  0  0  0  0  0  0  0  0
  -22.0420  -14.0608   21.6824 O   0  0  0  0  0  0  0  0  0  0  0  0
  -23.2738  -30.2791   22.9389 O   0  0  0  0  0  0  0  0  0  0  0  0
  -22.2445  -32.6139   20.1669 O   0  0  0  0  0  0  0  0  0  0  0  0
  -21.9305  -29.1043   16.9882 O   0  0  0  0  0  0  0  0  0  0  0  0
  -30.7264  -16.9541   20.2428 O   0  0  0  0  0  0  0  0  0  0  0  0
  -23.1845   -6.3715   21.2876 O   0  0  0  0  0  0  0  0  0  0  0  0
  -26.7229  -25.4167   20.1164 O   0  0  0  0  0  0  0  0  0  1  0  0
  -20.6637   -4.9425   25.9789 F   0  0  0  0  0  0  0  0  0  0  0  0
  -29.7175  -21.5838   20.2983 F   0  0  0  0  0  0  0  0  0  0  0  0
  -20.7928   -7.5445   22.0268 F   0  0  0  0  0  0  0  0  0  0  0  0
  1  2  1  0  0  0  0
  1  5  2  0  0  0  0
  2  6  2  0  0  0  0
  3  8  2  0  0  0  0
  3 17  1  0  0  0  0
  4  9  1  0  0  0  0
  4 17  2  0  0  0  0
  5 21  1  0  0  0  0
  6 23  1  0  0  0  0
  7 10  2  0  0  0  0
  7 22  1  0  0  0  0
  8 26  1  0  0  0  0
  9 26  2  0  0  0  0
 10 27  1  0  0  0  0
 11 12  2  0  0  0  0
 11 28  1  0  0  0  0
 12 29  1  0  0  0  0
 13 18  1  0  0  0  0
 13 25  2  0  0  0  0
 14 24  1  0  0  0  0
 14 27  2  0  0  0  0
 15 25  1  0  0  0  0
 15 30  2  0  0  0  0
 16 29  2  0  0  0  0
 16 31  1  0  0  0  0
 17 32  1  0  0  0  0
 18 19  2  0  0  0  0
 18 35  1  0  0  0  0
 19 30  1  0  0  0  0
 19 38  1  0  0  0  0
 20 32  1  0  0  0  0
 20 33  2  0  0  0  0
 20 39  1  0  0  0  0
 21 23  2  0  0  0  0
 21 44  1  0  0  0  0
 22 24  2  0  0  0  0
 22 45  1  0  0  0  0
 23 53  1  0  0  0  0
 24 46  1  0  0  0  0
 25 70  1  0  0  0  0
 26 80  1  0  0  0  0
 27 81  1  0  0  0  0
 28 31  2  0  0  0  0
 28 80  1  0  0  0  0
 29 82  1  0  0  0  0
 30 83  1  0  0  0  0
 31 84  1  0  0  0  0
 32 64  2  0  0  0  0
 33 65  1  0  0  0  0
 33 68  1  0  0  0  0
 34 35  2  0  0  0  0
 36 37  2  0  0  0  0
 36 38  1  0  0  0  0
 37 81  1  0  0  0  0
 38 74  2  0  0  0  0
 39 69  1  0  0  0  0
 39 75  2  0  0  0  0
 40 54  1  0  0  0  0
 40 71  1  0  0  0  0
 40 76  2  0  0  0  0
 41 61  1  0  0  0  0
 41 66  1  0  0  0  0
 41 77  2  0  0  0  0
 42 62  1  0  0  0  0
 42 72  1  0  0  0  0
 42 78  2  0  0  0  0
 43 67  1  0  0  0  0
 43 70  1  0  0  0  0
 43 79  2  0  0  0  0
 44 47  1  0  0  0  0
 45 54  1  0  0  0  0
 46 66  1  0  0  0  0
 47 49  1  0  0  0  0
 48 50  1  0  0  0  0
 48 51  1  0  0  0  0
 49 53  1  0  0  0  0
 50 55  1  0  0  0  0
 51 67  1  0  0  0  0
 52 55  1  0  0  0  0
 52 67  1  0  0  0  0
 53 71  1  0  0  0  0
 54 66  1  0  0  0  0
 55 65  1  0  0  0  0
 56 62  1  0  0  0  0
 57 63  1  0  0  0  0
 58 63  1  0  0  0  0
 59 63  1  0  0  0  0
 60 73  1  0  0  0  0
 61 63  1  0  0  0  0
 61 72  1  0  0  0  0
 62 73  1  0  0  0  0
 64 65  1  0  0  0  0
M  CHG  1  73   1
M  ISO  4  37 101  43 100  70 100  81 101
M  END
> <Batch ID>
0112

> <Smiles>
C=Cc1cc([100NH:0][100C:0](=O)N2CCCC(n3nc(-c4ccc(Oc5ccc(F)cc5F)cc4)c(C(N)=O)c3N)C2)cc(F)c1C(=O)C=[101CH:1][101O:1]c1ccc2c(c1)CN(C(=O)C(NC(=O)C(C)NC)C(C)(C)C)C(C(=O)NC1CCCc3ccccc31)C2

> <Shape>
0.329

> <Color>
0.140

> <Negative vol penalty>
0.000

$$$$

  -OEChem-04052301313D

 85 93  0     1  0  0  0  0  0999 V2000
  -30.0943  -31.5388   25.4528 C   0  0  0  0  0  0  0  0  0  0  0  0
  -29.6915  -30.4019   24.7597 C   0  0  0  0  0  0  0  0  0  0  0  0
  -22.6821  -13.6435   18.5795 C   0  0  0  0  0  0  0  0  0  0  0  0
  -22.8965  -11.2432   18.7519 C   0  0  0  0  0  0  0  0  0  0  0  0
  -29.1412  -32.3709   26.0387 C   0  0  0  0  0  0  0  0  0  0  0  0
  -28.3353  -30.0957   24.6530 C   0  0  0  0  0  0  0  0  0  0  0  0
  -27.0196  -28.7105   19.9630 C   0  0  0  0  0  0  0  0  0  0  0  0
  -21.6752  -13.4852   17.6273 C   0  0  0  0  0  0  0  0  0  0  0  0
  -21.8895  -11.0849   17.7998 C   0  0  0  0  0  0  0  0  0  0  0  0
  -27.3365  -27.4108   19.5705 C   0  0  0  0  0  0  0  0  0  0  0  0
  -21.5895  -11.2666   14.4371 C   0  0  0  0  0  0  0  0  0  0  0  0
  -21.7993  -10.3345   13.4208 C   0  0  0  0  0  0  0  0  0  0  0  0
  -27.3254  -19.8345   20.4537 C   0  0  0  0  0  0  0  0  0  0  0  0
  -29.3636  -19.5507   18.5702 C   0  0  0  0  0  0  0  0  0  0  0  0
  -25.0646  -26.7302   20.0110 C   0  0  0  0  0  0  0  0  0  0  0  0
  -19.8367   -9.1179   14.1317 C   0  0  0  0  0  0  0  0  0  0  0  0
  -23.2928  -12.5225   19.1417 C   0  0  0  0  0  0  0  0  0  0  0  0
  -28.2379  -18.7856   20.5663 C   0  0  0  0  0  0  0  0  0  0  0  0
  -29.2571  -18.6438   19.6246 C   0  0  0  0  0  0  0  0  0  0  0  0
  -24.1777  -12.7716   21.5213 C   0  0  0  0  0  0  0  0  0  0  0  0
  -27.7721  -32.0800   25.9308 C   0  0  0  0  0  0  0  0  0  0  0  0
  -25.7234  -29.0279   20.3936 C   0  0  0  0  0  0  0  0  0  0  0  0
  -27.3630  -30.9239   25.2391 C   0  0  0  0  0  0  0  0  0  0  0  0
  -24.7331  -28.0353   20.4061 C   0  0  0  0  0  0  0  0  0  0  0  0
  -27.4319  -20.7414   19.3992 C   0  0  0  0  0  0  0  0  0  0  0  0
  -21.2788  -12.2059   17.2375 C   0  0  0  0  0  0  0  0  0  0  0  0
  -26.3597  -26.4198   19.5972 C   0  0  0  0  0  0  0  0  0  0  0  0
  -20.5034  -11.1244   15.3007 C   0  0  0  0  0  0  0  0  0  0  0  0
  -20.9228   -9.2602   13.2681 C   0  0  0  0  0  0  0  0  0  0  0  0
  -28.4510  -20.5996   18.4575 C   0  0  0  0  0  0  0  0  0  0  0  0
  -19.6270  -10.0501   15.1480 C   0  0  0  0  0  0  0  0  0  0  0  0
  -24.3335  -12.6854   20.1249 C   0  0  0  0  0  0  0  0  0  0  0  0
  -25.4562  -12.9194   22.0010 C   0  0  0  0  0  0  0  0  0  0  0  0
  -27.0310  -17.0954   21.8708 C   0  0  0  0  0  0  0  0  0  0  0  0
  -28.0972  -17.8576   21.6815 C   0  0  0  0  0  0  0  0  0  0  0  0
  -26.8365  -22.8931   19.8910 C   0  0  0  0  0  0  0  0  0  0  0  0
  -30.2484  -17.5404   19.7077 C   0  0  0  0  0  0  0  0  0  0  0  0
  -22.9840  -12.7224   22.3141 C   0  0  0  0  0  0  0  0  0  0  0  0
  -24.4603  -30.0995   23.1066 C   0  0  0  0  0  0  0  0  0  0  0  0
  -21.7473  -30.2382   21.3338 C   0  0  0  0  0  0  0  0  0  0  0  0
  -19.9893  -29.1106   18.6348 C   0  0  0  0  0  0  0  0  0  0  0  0
  -30.4817  -15.0771   19.6728 C   0  0  0  0  0  0  0  0  0  0  0  0
  -26.7814  -32.9837   26.6211 C   0  0  0  0  0  0  0  0  0  0  0  0
  -25.3908  -30.4407   20.7884 C   0  0  0  0  0  0  0  0  0  0  0  0
  -23.3213  -28.3290   20.8407 C   0  0  0  0  0  0  0  0  0  0  0  0
  -25.3447  -32.7907   26.1425 C   0  0  0  0  0  0  0  0  0  0  0  0
  -30.0016  -11.8166   20.9517 C   0  0  0  0  0  0  0  0  0  0  0  0
  -24.9979  -31.3066   26.0791 C   0  0  0  0  0  0  0  0  0  0  0  0
  -28.4786  -11.6794   21.0282 C   0  0  0  0  0  0  0  0  0  0  0  0
  -30.4394  -12.5987   19.7141 C   0  0  0  0  0  0  0  0  0  0  0  0
  -28.2742  -13.7652   19.6169 C   0  0  0  0  0  0  0  0  0  0  0  0
  -25.8999  -30.5715   25.0803 C   0  0  1  0  0  0  0  0  0  0  0  0
  -24.1698  -30.5352   21.6982 C   0  0  1  0  0  0  0  0  0  0  0  0
  -27.7794  -13.0459   20.8823 C   0  0  1  0  0  0  0  0  0  0  0  0
  -17.7851  -29.3820   17.4663 C   0  0  0  0  0  0  0  0  0  0  0  0
  -20.3966  -28.5644   23.4981 C   0  0  0  0  0  0  0  0  0  0  0  0
  -18.5558  -28.0753   21.8731 C   0  0  0  0  0  0  0  0  0  0  0  0
  -18.9930  -30.4243   22.5898 C   0  0  0  0  0  0  0  0  0  0  0  0
  -21.2909  -30.0573   16.1511 C   0  0  0  0  0  0  0  0  0  0  0  0
  -25.9371  -24.0914   19.8343 C   0  0  0  0  0  0  0  0  0  1  0  0
  -20.6200  -29.2818   21.0279 C   0  0  1  0  0  0  0  0  0  0  0  0
  -19.2301  -29.8490   17.5471 C   0  0  2  0  0  0  0  0  0  0  0  0
  -19.6684  -29.0802   22.2408 C   0  0  0  0  0  0  0  0  0  0  0  0
  -25.6103  -12.7715   19.7422 N   0  0  0  0  0  0  0  0  0  0  0  0
  -26.5115  -21.7972   19.2867 N   0  0  0  0  0  0  0  0  0  0  0  0
  -26.2684  -12.9133   20.9053 N   0  0  0  0  0  0  0  0  0  0  0  0
  -23.0470  -29.7239   21.2233 N   0  0  0  0  0  0  0  0  0  0  0  0
  -29.7396  -13.8833   19.6546 N   0  0  0  0  0  0  0  0  0  0  0  0
  -25.9536  -13.0528   23.2489 N   0  0  0  0  0  0  0  0  0  0  0  0
  -21.7540  -12.5664   21.6607 N   0  0  0  0  0  0  0  0  0  0  0  0
  -29.7195  -16.2505   19.6554 N   0  0  0  0  0  0  0  0  0  0  0  0
  -25.4625  -30.8234   23.7240 N   0  0  0  0  0  0  0  0  0  0  0  0
  -19.9623  -29.7954   19.8313 N   0  0  0  0  0  0  0  0  0  0  0  0
  -19.8723  -29.6216   16.2216 N   0  3  0  0  0  0  0  0  0  0  0  0
  -31.4435  -17.8141   19.7755 O   0  0  0  0  0  0  0  0  0  0  0  0
  -23.0060  -12.8306   23.5636 O   0  0  0  0  0  0  0  0  0  0  0  0
  -23.8215  -29.1761   23.5973 O   0  0  0  0  0  0  0  0  0  0  0  0
  -21.4846  -31.4007   21.6518 O   0  0  0  0  0  0  0  0  0  0  0  0
  -20.5470  -28.0323   18.4432 O   0  0  0  0  0  0  0  0  0  0  0  0
  -31.7149  -15.0973   19.7376 O   0  0  0  0  0  0  0  0  0  0  0  0
  -20.2961  -12.0511   16.3086 O   0  0  0  0  0  0  0  0  0  0  0  0
  -26.6665  -25.1502   19.2152 O   0  0  0  0  0  0  0  0  0  1  0  0
  -21.1235   -8.3660   12.2912 F   0  0  0  0  0  0  0  0  0  0  0  0
  -28.5606  -21.4664   17.4409 F   0  0  0  0  0  0  0  0  0  0  0  0
  -18.5811   -9.9088   15.9738 F   0  0  0  0  0  0  0  0  0  0  0  0
  1  2  1  0  0  0  0
  1  5  2  0  0  0  0
  2  6  2  0  0  0  0
  3  8  2  0  0  0  0
  3 17  1  0  0  0  0
  4  9  1  0  0  0  0
  4 17  2  0  0  0  0
  5 21  1  0  0  0  0
  6 23  1  0  0  0  0
  7 10  2  0  0  0  0
  7 22  1  0  0  0  0
  8 26  1  0  0  0  0
  9 26  2  0  0  0  0
 10 27  1  0  0  0  0
 11 12  2  0  0  0  0
 11 28  1  0  0  0  0
 12 29  1  0  0  0  0
 13 18  1  0  0  0  0
 13 25  2  0  0  0  0
 14 19  1  0  0  0  0
 14 30  2  0  0  0  0
 15 24  1  0  0  0  0
 15 27  2  0  0  0  0
 16 29  2  0  0  0  0
 16 31  1  0  0  0  0
 17 32  1  0  0  0  0
 18 19  2  0  0  0  0
 18 35  1  0  0  0  0
 19 37  1  0  0  0  0
 20 32  1  0  0  0  0
 20 33  2  0  0  0  0
 20 38  1  0  0  0  0
 21 23  2  0  0  0  0
 21 43  1  0  0  0  0
 22 24  2  0  0  0  0
 22 44  1  0  0  0  0
 23 52  1  0  0  0  0
 24 45  1  0  0  0  0
 25 30  1  0  0  0  0
 25 65  1  0  0  0  0
 26 81  1  0  0  0  0
 27 82  1  0  0  0  0
 28 31  2  0  0  0  0
 28 81  1  0  0  0  0
 29 83  1  0  0  0  0
 30 84  1  0  0  0  0
 31 85  1  0  0  0  0
 32 64  2  0  0  0  0
 33 66  1  0  0  0  0
 33 69  1  0  0  0  0
 34 35  2  0  0  0  0
 36 60  1  0  0  0  0
 36 65  2  0  0  0  0
 37 71  1  0  0  0  0
 37 75  2  0  0  0  0
 38 70  1  0  0  0  0
 38 76  2  0  0  0  0
 39 53  1  0  0  0  0
 39 72  1  0  0  0  0
 39 77  2  0  0  0  0
 40 61  1  0  0  0  0
 40 67  1  0  0  0  0
 40 78  2  0  0  0  0
 41 62  1  0  0  0  0
 41 73  1  0  0  0  0
 41 79  2  0  0  0  0
 42 68  1  0  0  0  0
 42 71  1  0  0  0  0
 42 80  2  0  0  0  0
 43 46  1  0  0  0  0
 44 53  1  0  0  0  0
 45 67  1  0  0  0  0
 46 48  1  0  0  0  0
 47 49  1  0  0  0  0
 47 50  1  0  0  0  0
 48 52  1  0  0  0  0
 49 54  1  0  0  0  0
 50 68  1  0  0  0  0
 51 54  1  0  0  0  0
 51 68  1  0  0  0  0
 52 72  1  0  0  0  0
 53 67  1  0  0  0  0
 54 66  1  0  0  0  0
 55 62  1  0  0  0  0
 56 63  1  0  0  0  0
 57 63  1  0  0  0  0
 58 63  1  0  0  0  0
 59 74  1  0  0  0  0
 60 82  1  0  0  0  0
 61 63  1  0  0  0  0
 61 73  1  0  0  0  0
 62 74  1  0  0  0  0
 64 66  1  0  0  0  0
M  CHG  1  74   1
M  ISO  4  42 100  60 101  71 100  82 101
M  END
> <Batch ID>
0112

> <Smiles>
C=Cc1cc(NC=[101CH:1][101O:1]c2ccc3c(c2)CN(C(=O)C(NC(=O)C(C)NC)C(C)(C)C)C(C(=O)NC2CCCc4ccccc42)C3)c(F)cc1C(=O)[100NH:0][100C:0](=O)N1CCCC(n2nc(-c3ccc(Oc4ccc(F)cc4F)cc3)c(C(N)=O)c2N)C1

> <Shape>
0.279

> <Color>
0.105

> <Negative vol penalty>
0.000

$$$$

  -OEChem-04052301313D

 88 96  0     1  0  0  0  0  0999 V2000
  -16.7354  -27.3008   21.9764 C   0  0  0  0  0  0  0  0  0  0  0  0
  -17.9301  -26.6825   21.6215 C   0  0  0  0  0  0  0  0  0  0  0  0
  -22.8622  -11.8687   21.4340 C   0  0  0  0  0  0  0  0  0  0  0  0
  -24.1448  -10.4018   22.8624 C   0  0  0  0  0  0  0  0  0  0  0  0
  -16.6502  -28.6923   21.9935 C   0  0  0  0  0  0  0  0  0  0  0  0
  -19.0400  -27.4556   21.2824 C   0  0  0  0  0  0  0  0  0  0  0  0
  -24.9162  -26.1583   22.4196 C   0  0  0  0  0  0  0  0  0  0  0  0
  -21.6945  -11.1936   21.7893 C   0  0  0  0  0  0  0  0  0  0  0  0
  -22.9771   -9.7267   23.2177 C   0  0  0  0  0  0  0  0  0  0  0  0
  -25.9241  -25.6046   21.6314 C   0  0  0  0  0  0  0  0  0  0  0  0
  -20.3834   -7.3877   24.2233 C   0  0  0  0  0  0  0  0  0  0  0  0
  -20.4196   -5.9934   24.2383 C   0  0  0  0  0  0  0  0  0  0  0  0
  -28.0737  -19.5731   18.0358 C   0  0  0  0  0  0  0  0  0  0  0  0
  -26.7073  -27.8204   21.0872 C   0  0  0  0  0  0  0  0  0  0  0  0
  -20.9856   -5.9827   21.8896 C   0  0  0  0  0  0  0  0  0  0  0  0
  -24.0874  -11.4728   21.9705 C   0  0  0  0  0  0  0  0  0  0  0  0
  -28.4521  -18.3905   17.4004 C   0  0  0  0  0  0  0  0  0  0  0  0
  -29.7357  -17.8778   17.5881 C   0  0  0  0  0  0  0  0  0  0  0  0
  -25.8587  -13.2879   22.2454 C   0  0  0  0  0  0  0  0  0  0  0  0
  -17.7624  -29.4828   21.6638 C   0  0  0  0  0  0  0  0  0  0  0  0
  -24.7894  -27.5497   22.5390 C   0  0  0  0  0  0  0  0  0  0  0  0
  -18.9692  -28.8590   21.2938 C   0  0  0  0  0  0  0  0  0  0  0  0
  -25.6986  -28.3892   21.8796 C   0  0  0  0  0  0  0  0  0  0  0  0
  -21.7519  -10.1226   22.6811 C   0  0  0  0  0  0  0  0  0  0  0  0
  -26.8181  -26.4357   20.9627 C   0  0  0  0  0  0  0  0  0  0  0  0
  -20.6482   -8.0795   23.0413 C   0  0  0  0  0  0  0  0  0  0  0  0
  -28.9790  -20.2433   18.8587 C   0  0  0  0  0  0  0  0  0  0  0  0
  -30.2626  -19.7307   19.0463 C   0  0  0  0  0  0  0  0  0  0  0  0
  -20.7207   -5.2909   23.0715 C   0  0  0  0  0  0  0  0  0  0  0  0
  -20.9493   -7.3771   21.8745 C   0  0  0  0  0  0  0  0  0  0  0  0
  -30.6410  -18.5479   18.4110 C   0  0  0  0  0  0  0  0  0  0  0  0
  -25.2941  -12.1694   21.6035 C   0  0  0  0  0  0  0  0  0  0  0  0
  -26.9897  -13.5668   21.5176 C   0  0  0  0  0  0  0  0  0  0  0  0
  -26.2979  -17.2990   16.9726 C   0  0  0  0  0  0  0  0  0  0  0  0
  -27.4804  -17.7171   16.5478 C   0  0  0  0  0  0  0  0  0  0  0  0
  -28.4975  -23.7828   19.3028 C   0  0  0  0  0  0  0  0  0  0  0  0
  -27.5620  -24.6960   19.5877 C   0  0  0  0  0  0  0  0  0  1  0  0
  -30.1740  -16.6212   16.9281 C   0  0  0  0  0  0  0  0  0  0  0  0
  -25.4018  -14.0101   23.3966 C   0  0  0  0  0  0  0  0  0  0  0  0
  -22.5388  -29.6688   21.7987 C   0  0  0  0  0  0  0  0  0  0  0  0
  -24.5243  -31.7291   23.3268 C   0  0  0  0  0  0  0  0  0  0  0  0
  -27.6915  -32.4748   24.3563 C   0  0  0  0  0  0  0  0  0  0  0  0
  -29.6506  -14.2133   16.7010 C   0  0  0  0  0  0  0  0  0  0  0  0
  -17.6084  -30.9831   21.6507 C   0  0  0  0  0  0  0  0  0  0  0  0
  -23.7132  -28.1308   23.4146 C   0  0  0  0  0  0  0  0  0  0  0  0
  -25.6179  -29.8890   21.9913 C   0  0  0  0  0  0  0  0  0  0  0  0
  -18.9387  -31.7318   21.6409 C   0  0  0  0  0  0  0  0  0  0  0  0
  -29.3195  -10.9023   17.8946 C   0  0  0  0  0  0  0  0  0  0  0  0
  -19.8847  -31.1258   20.6091 C   0  0  0  0  0  0  0  0  0  0  0  0
  -28.2947  -11.0268   19.0253 C   0  0  0  0  0  0  0  0  0  0  0  0
  -28.9866  -11.8249   16.7229 C   0  0  0  0  0  0  0  0  0  0  0  0
  -27.7539  -13.3548   18.2054 C   0  0  0  0  0  0  0  0  0  0  0  0
  -20.2022  -29.6634   20.9436 C   0  0  1  0  0  0  0  0  0  0  0  0
  -23.3608  -29.5703   23.0526 C   0  0  1  0  0  0  0  0  0  0  0  0
  -28.0836  -12.4974   19.4380 C   0  0  1  0  0  0  0  0  0  0  0  0
  -29.0094  -34.2462   25.5489 C   0  0  0  0  0  0  0  0  0  0  0  0
  -24.4247  -33.4805   20.8303 C   0  0  0  0  0  0  0  0  0  0  0  0
  -26.4426  -34.6917   21.6843 C   0  0  0  0  0  0  0  0  0  0  0  0
  -24.3179  -34.7362   22.9905 C   0  0  0  0  0  0  0  0  0  0  0  0
  -28.4933  -30.5986   26.5002 C   0  0  0  0  0  0  0  0  0  0  0  0
  -31.9915  -21.3532   19.2308 C   0  0  0  0  0  0  0  0  0  0  0  0
  -28.2001  -22.4792   18.6350 C   0  0  0  0  0  0  0  0  0  0  0  0
  -25.6795  -32.6074   22.9110 C   0  0  1  0  0  0  0  0  0  0  0  0
  -28.2306  -32.9481   25.6941 C   0  0  2  0  0  0  0  0  0  0  0  0
  -25.2168  -33.8508   22.1002 C   0  0  0  0  0  0  0  0  0  0  0  0
  -26.0074  -11.7655   20.5489 N   0  0  0  0  0  0  0  0  0  0  0  0
  -27.0319  -12.6349   20.5226 N   0  0  0  0  0  0  0  0  0  0  0  0
  -24.5444  -30.4092   22.8542 N   0  0  0  0  0  0  0  0  0  0  0  0
  -28.8119  -13.1993   17.1958 N   0  0  0  0  0  0  0  0  0  0  0  0
  -27.9422  -14.5158   21.6381 N   0  0  0  0  0  0  0  0  0  0  0  0
  -24.2211  -13.5896   24.0239 N   0  0  0  0  0  0  0  0  0  0  0  0
  -29.4321  -15.4834   17.2463 N   0  0  0  0  0  0  0  0  0  0  0  0
  -21.1758  -29.5891   22.0118 N   0  0  0  0  0  0  0  0  0  0  0  0
  -26.4087  -32.9286   24.1331 N   0  0  0  0  0  0  0  0  0  0  0  0
  -29.1360  -31.9200   26.2808 N   0  3  0  0  0  0  0  0  0  0  0  0
  -31.1095  -16.6579   16.1334 O   0  0  0  0  0  0  0  0  0  0  0  0
  -26.0134  -15.0090   23.8457 O   0  0  0  0  0  0  0  0  0  0  0  0
  -23.0995  -29.8084   20.7181 O   0  0  0  0  0  0  0  0  0  0  0  0
  -23.6404  -32.1948   24.0504 O   0  0  0  0  0  0  0  0  0  0  0  0
  -28.3445  -31.7757   23.5847 O   0  0  0  0  0  0  0  0  0  0  0  0
  -30.5422  -13.9996   15.8737 O   0  0  0  0  0  0  0  0  0  0  0  0
  -20.6126   -9.4638   23.0282 O   0  0  0  0  0  0  0  0  0  0  0  0
  -27.8024  -25.8979   20.1921 O   0  0  0  0  0  0  0  0  0  1  0  0
  -31.1543  -20.3773   19.8479 O   0  0  0  0  0  0  0  0  0  0  0  0
  -28.5955  -21.4044   19.4774 O   0  0  0  0  0  0  0  0  0  0  0  0
  -20.7570   -3.9520   23.0865 F   0  0  0  0  0  0  0  0  0  0  0  0
  -21.2058   -8.0362   20.7363 F   0  0  0  0  0  0  0  0  0  0  0  0
  -31.8770  -18.0603   18.5957 F   0  0  0  0  0  0  0  0  0  0  0  0
  1  2  1  0  0  0  0
  1  5  2  0  0  0  0
  2  6  2  0  0  0  0
  3  8  2  0  0  0  0
  3 16  1  0  0  0  0
  4  9  1  0  0  0  0
  4 16  2  0  0  0  0
  5 20  1  0  0  0  0
  6 22  1  0  0  0  0
  7 10  2  0  0  0  0
  7 21  1  0  0  0  0
  8 24  1  0  0  0  0
  9 24  2  0  0  0  0
 10 25  1  0  0  0  0
 11 12  2  0  0  0  0
 11 26  1  0  0  0  0
 12 29  1  0  0  0  0
 13 17  1  0  0  0  0
 13 27  2  0  0  0  0
 14 23  1  0  0  0  0
 14 25  2  0  0  0  0
 15 29  2  0  0  0  0
 15 30  1  0  0  0  0
 16 32  1  0  0  0  0
 17 18  2  0  0  0  0
 17 35  1  0  0  0  0
 18 31  1  0  0  0  0
 18 38  1  0  0  0  0
 19 32  1  0  0  0  0
 19 33  2  0  0  0  0
 19 39  1  0  0  0  0
 20 22  2  0  0  0  0
 20 44  1  0  0  0  0
 21 23  2  0  0  0  0
 21 45  1  0  0  0  0
 22 53  1  0  0  0  0
 23 46  1  0  0  0  0
 24 82  1  0  0  0  0
 25 83  1  0  0  0  0
 26 30  2  0  0  0  0
 26 82  1  0  0  0  0
 27 28  1  0  0  0  0
 27 85  1  0  0  0  0
 28 31  2  0  0  0  0
 28 84  1  0  0  0  0
 29 86  1  0  0  0  0
 30 87  1  0  0  0  0
 31 88  1  0  0  0  0
 32 66  2  0  0  0  0
 33 67  1  0  0  0  0
 33 70  1  0  0  0  0
 34 35  2  0  0  0  0
 36 37  2  0  0  0  0
 36 62  1  0  0  0  0
 37 83  1  0  0  0  0
 38 72  1  0  0  0  0
 38 76  2  0  0  0  0
 39 71  1  0  0  0  0
 39 77  2  0  0  0  0
 40 54  1  0  0  0  0
 40 73  1  0  0  0  0
 40 78  2  0  0  0  0
 41 63  1  0  0  0  0
 41 68  1  0  0  0  0
 41 79  2  0  0  0  0
 42 64  1  0  0  0  0
 42 74  1  0  0  0  0
 42 80  2  0  0  0  0
 43 69  1  0  0  0  0
 43 72  1  0  0  0  0
 43 81  2  0  0  0  0
 44 47  1  0  0  0  0
 45 54  1  0  0  0  0
 46 68  1  0  0  0  0
 47 49  1  0  0  0  0
 48 50  1  0  0  0  0
 48 51  1  0  0  0  0
 49 53  1  0  0  0  0
 50 55  1  0  0  0  0
 51 69  1  0  0  0  0
 52 55  1  0  0  0  0
 52 69  1  0  0  0  0
 53 73  1  0  0  0  0
 54 68  1  0  0  0  0
 55 67  1  0  0  0  0
 56 64  1  0  0  0  0
 57 65  1  0  0  0  0
 58 65  1  0  0  0  0
 59 65  1  0  0  0  0
 60 75  1  0  0  0  0
 61 84  1  0  0  0  0
 62 85  1  0  0  0  0
 63 65  1  0  0  0  0
 63 74  1  0  0  0  0
 64 75  1  0  0  0  0
 66 67  1  0  0  0  0
M  CHG  1  75   1
M  ISO  4  37 101  43 100  72 100  83 101
M  END
> <Batch ID>
0112

> <Smiles>
C=Cc1cc(OCC=[101CH:1][101O:1]c2ccc3c(c2)CN(C(=O)C(NC(=O)C(C)NC)C(C)(C)C)C(C(=O)NC2CCCc4ccccc42)C3)c(OC)c(F)c1C(=O)[100NH:0][100C:0](=O)N1CCCC(n2nc(-c3ccc(Oc4ccc(F)cc4F)cc3)c(C(N)=O)c2N)C1

> <Shape>
0.272

> <Color>
0.072

> <Negative vol penalty>
0.000

$$$$

  -OEChem-04052301313D

 87 95  0     1  0  0  0  0  0999 V2000
  -21.6308  -11.6151   19.6921 C   0  0  0  0  0  0  0  0  0  0  0  0
  -21.4490  -12.8554   20.2955 C   0  0  0  0  0  0  0  0  0  0  0  0
  -23.6144  -23.7419   18.1161 C   0  0  0  0  0  0  0  0  0  0  0  0
  -25.4025  -24.6195   16.7488 C   0  0  0  0  0  0  0  0  0  0  0  0
  -22.9110  -11.0726   19.5886 C   0  0  0  0  0  0  0  0  0  0  0  0
  -22.5472  -13.5534   20.7966 C   0  0  0  0  0  0  0  0  0  0  0  0
  -23.3388  -19.6260   20.8475 C   0  0  0  0  0  0  0  0  0  0  0  0
  -23.1694  -22.9729   17.0408 C   0  0  0  0  0  0  0  0  0  0  0  0
  -24.9576  -23.8505   15.6734 C   0  0  0  0  0  0  0  0  0  0  0  0
  -23.1474  -20.5886   21.8377 C   0  0  0  0  0  0  0  0  0  0  0  0
  -24.5085  -21.8450   12.6743 C   0  0  0  0  0  0  0  0  0  0  0  0
  -25.4644  -21.1495   11.9340 C   0  0  0  0  0  0  0  0  0  0  0  0
  -21.0320  -27.1656   22.6602 C   0  0  0  0  0  0  0  0  0  0  0  0
  -25.4885  -20.4614   22.4054 C   0  0  0  0  0  0  0  0  0  0  0  0
  -23.2220  -27.2872   24.3841 C   0  0  0  0  0  0  0  0  0  0  0  0
  -26.1178  -19.9357   13.9182 C   0  0  0  0  0  0  0  0  0  0  0  0
  -24.7309  -24.5652   17.9701 C   0  0  0  0  0  0  0  0  0  0  0  0
  -21.4456  -26.0224   23.3440 C   0  0  0  0  0  0  0  0  0  0  0  0
  -26.1262  -24.9866   20.0637 C   0  0  0  0  0  0  0  0  0  0  0  0
  -24.0266  -11.7687   20.0800 C   0  0  0  0  0  0  0  0  0  0  0  0
  -24.6064  -19.0650   20.6357 C   0  0  0  0  0  0  0  0  0  0  0  0
  -23.8433  -13.0191   20.7007 C   0  0  0  0  0  0  0  0  0  0  0  0
  -25.6938  -19.4937   21.4102 C   0  0  0  0  0  0  0  0  0  0  0  0
  -22.5406  -26.0831   24.2060 C   0  0  0  0  0  0  0  0  0  0  0  0
  -21.7135  -28.3696   22.8383 C   0  0  0  0  0  0  0  0  0  0  0  0
  -23.8410  -23.0272   15.8195 C   0  0  0  0  0  0  0  0  0  0  0  0
  -24.2217  -21.0044   22.6188 C   0  0  0  0  0  0  0  0  0  0  0  0
  -24.3573  -21.5860   14.0366 C   0  0  0  0  0  0  0  0  0  0  0  0
  -22.8085  -28.4304   23.7003 C   0  0  0  0  0  0  0  0  0  0  0  0
  -26.2691  -20.1948   12.5560 C   0  0  0  0  0  0  0  0  0  0  0  0
  -25.1619  -20.6313   14.6585 C   0  0  0  0  0  0  0  0  0  0  0  0
  -25.1906  -25.3602   19.0804 C   0  0  0  0  0  0  0  0  0  0  0  0
  -26.2173  -26.0834   20.8854 C   0  0  0  0  0  0  0  0  0  0  0  0
  -20.6188  -24.1736   21.9607 C   0  0  0  0  0  0  0  0  0  0  0  0
  -20.7137  -24.7795   23.1344 C   0  0  0  0  0  0  0  0  0  0  0  0
  -24.1937  -24.5728   24.6655 C   0  0  0  0  0  0  0  0  0  0  0  0
  -26.8484  -23.7579   20.2204 C   0  0  0  0  0  0  0  0  0  0  0  0
  -25.8241  -16.1355   20.8326 C   0  0  0  0  0  0  0  0  0  0  0  0
  -28.4599  -17.5696   19.6005 C   0  0  0  0  0  0  0  0  0  0  0  0
  -30.2522  -20.4380   19.1457 C   0  0  0  0  0  0  0  0  0  0  0  0
  -22.1459  -30.5766   21.7277 C   0  0  0  0  0  0  0  0  0  0  0  0
  -25.3852  -11.1204   19.9876 C   0  0  0  0  0  0  0  0  0  0  0  0
  -24.8017  -18.0471   19.5457 C   0  0  0  0  0  0  0  0  0  0  0  0
  -27.0789  -18.9373   21.2091 C   0  0  0  0  0  0  0  0  0  0  0  0
  -26.5406  -12.0934   20.2082 C   0  0  0  0  0  0  0  0  0  0  0  0
  -25.7402  -30.8395   20.8882 C   0  0  0  0  0  0  0  0  0  0  0  0
  -26.2751  -12.9694   21.4284 C   0  0  0  0  0  0  0  0  0  0  0  0
  -26.0614  -29.4528   20.3337 C   0  0  0  0  0  0  0  0  0  0  0  0
  -24.2808  -31.2185   20.6552 C   0  0  0  0  0  0  0  0  0  0  0  0
  -23.6332  -28.8265   20.6385 C   0  0  0  0  0  0  0  0  0  0  0  0
  -25.0127  -13.8179   21.2342 C   0  0  1  0  0  0  0  0  0  0  0  0
  -26.0303  -17.1688   19.7615 C   0  0  1  0  0  0  0  0  0  0  0  0
  -25.0874  -28.4046   20.8966 C   0  0  1  0  0  0  0  0  0  0  0  0
  -19.2904  -30.3876   23.3119 C   0  0  0  0  0  0  0  0  0  0  0  0
  -32.0705  -21.9348   18.2794 C   0  0  0  0  0  0  0  0  0  0  0  0
  -30.0336  -16.4068   21.9417 C   0  0  0  0  0  0  0  0  0  0  0  0
  -31.8710  -18.0255   21.4201 C   0  0  0  0  0  0  0  0  0  0  0  0
  -31.2128  -16.3044   19.7386 C   0  0  0  0  0  0  0  0  0  0  0  0
  -28.7194  -21.0757   16.6956 C   0  0  0  0  0  0  0  0  0  0  0  0
  -24.5949  -29.5635   24.7868 C   0  0  0  0  0  0  0  0  0  0  0  0
  -24.7801  -23.3771   25.3670 C   0  0  0  0  0  0  0  0  0  0  0  0
  -19.8385  -29.7919   22.0309 C   0  0  0  0  0  0  0  0  0  0  0  0
  -25.1822  -22.3228   24.3495 C   0  0  0  0  0  0  0  0  0  1  0  0
  -29.6713  -18.2592   20.1800 C   0  0  1  0  0  0  0  0  0  0  0  0
  -30.9016  -21.0348   17.9102 C   0  0  2  0  0  0  0  0  0  0  0  0
  -30.6708  -17.2582   20.8254 C   0  0  0  0  0  0  0  0  0  0  0  0
  -24.7208  -26.5976   19.2594 N   0  0  0  0  0  0  0  0  0  0  0  0
  -22.9796  -24.9469   24.9062 N   0  0  0  0  0  0  0  0  0  0  0  0
  -25.3637  -27.0111   20.3647 N   0  0  0  0  0  0  0  0  0  0  0  0
  -27.2178  -17.9399   20.1351 N   0  0  0  0  0  0  0  0  0  0  0  0
  -23.3669  -30.1839   21.1420 N   0  0  0  0  0  0  0  0  0  0  0  0
  -26.9433  -26.3352   21.9952 N   0  0  0  0  0  0  0  0  0  0  0  0
  -26.6359  -22.7343   19.2869 N   0  0  0  0  0  0  0  0  0  0  0  0
  -25.2901  -14.9470   20.3724 N   0  0  0  0  0  0  0  0  0  0  0  0
  -30.2403  -19.0599   19.1013 N   0  0  0  0  0  0  0  0  0  0  0  0
  -21.2754  -29.5428   22.1224 N   0  0  0  0  0  0  0  0  0  0  0  0
  -29.9112  -21.8417   17.1429 N   0  3  0  0  0  0  0  0  0  0  0  0
  -27.6458  -23.5672   21.1697 O   0  0  0  0  0  0  0  0  0  0  0  0
  -26.1284  -16.3965   21.9906 O   0  0  0  0  0  0  0  0  0  0  0  0
  -28.6096  -16.7383   18.7014 O   0  0  0  0  0  0  0  0  0  0  0  0
  -29.8039  -21.1255   20.0606 O   0  0  0  0  0  0  0  0  0  0  0  0
  -21.8273  -31.7667   21.8408 O   0  0  0  0  0  0  0  0  0  0  0  0
  -23.4073  -22.2768   14.7700 O   0  0  0  0  0  0  0  0  0  0  0  0
  -23.4891  -29.5964   23.8872 O   0  0  0  0  0  0  0  0  0  0  0  0
  -24.0375  -21.9433   23.5864 O   0  0  0  0  0  0  0  0  0  1  0  0
  -27.1859  -19.5258   11.8446 F   0  0  0  0  0  0  0  0  0  0  0  0
  -25.0204  -20.3772   15.9667 F   0  0  0  0  0  0  0  0  0  0  0  0
  1  2  1  0  0  0  0
  1  5  2  0  0  0  0
  2  6  2  0  0  0  0
  3  8  2  0  0  0  0
  3 17  1  0  0  0  0
  4  9  1  0  0  0  0
  4 17  2  0  0  0  0
  5 20  1  0  0  0  0
  6 22  1  0  0  0  0
  7 10  2  0  0  0  0
  7 21  1  0  0  0  0
  8 26  1  0  0  0  0
  9 26  2  0  0  0  0
 10 27  1  0  0  0  0
 11 12  2  0  0  0  0
 11 28  1  0  0  0  0
 12 30  1  0  0  0  0
 13 18  1  0  0  0  0
 13 25  2  0  0  0  0
 14 23  1  0  0  0  0
 14 27  2  0  0  0  0
 15 24  1  0  0  0  0
 15 29  2  0  0  0  0
 16 30  2  0  0  0  0
 16 31  1  0  0  0  0
 17 32  1  0  0  0  0
 18 24  2  0  0  0  0
 18 35  1  0  0  0  0
 19 32  1  0  0  0  0
 19 33  2  0  0  0  0
 19 37  1  0  0  0  0
 20 22  2  0  0  0  0
 20 42  1  0  0  0  0
 21 23  2  0  0  0  0
 21 43  1  0  0  0  0
 22 51  1  0  0  0  0
 23 44  1  0  0  0  0
 24 68  1  0  0  0  0
 25 29  1  0  0  0  0
 25 76  1  0  0  0  0
 26 83  1  0  0  0  0
 27 85  1  0  0  0  0
 28 31  2  0  0  0  0
 28 83  1  0  0  0  0
 29 84  1  0  0  0  0
 30 86  1  0  0  0  0
 31 87  1  0  0  0  0
 32 67  2  0  0  0  0
 33 69  1  0  0  0  0
 33 72  1  0  0  0  0
 34 35  2  0  0  0  0
 36 61  1  0  0  0  0
 36 68  2  0  0  0  0
 37 73  1  0  0  0  0
 37 78  2  0  0  0  0
 38 52  1  0  0  0  0
 38 74  1  0  0  0  0
 38 79  2  0  0  0  0
 39 64  1  0  0  0  0
 39 70  1  0  0  0  0
 39 80  2  0  0  0  0
 40 65  1  0  0  0  0
 40 75  1  0  0  0  0
 40 81  2  0  0  0  0
 41 71  1  0  0  0  0
 41 76  1  0  0  0  0
 41 82  2  0  0  0  0
 42 45  1  0  0  0  0
 43 52  1  0  0  0  0
 44 70  1  0  0  0  0
 45 47  1  0  0  0  0
 46 48  1  0  0  0  0
 46 49  1  0  0  0  0
 47 51  1  0  0  0  0
 48 53  1  0  0  0  0
 49 71  1  0  0  0  0
 50 53  1  0  0  0  0
 50 71  1  0  0  0  0
 51 74  1  0  0  0  0
 52 70  1  0  0  0  0
 53 69  1  0  0  0  0
 54 62  1  0  0  0  0
 55 65  1  0  0  0  0
 56 66  1  0  0  0  0
 57 66  1  0  0  0  0
 58 66  1  0  0  0  0
 59 77  1  0  0  0  0
 60 84  1  0  0  0  0
 61 63  1  0  0  0  0
 62 76  1  0  0  0  0
 63 85  1  0  0  0  0
 64 66  1  0  0  0  0
 64 75  1  0  0  0  0
 65 77  1  0  0  0  0
 67 69  1  0  0  0  0
M  CHG  1  77   1
M  ISO  4  41 100  63 101  76 100  85 101
M  END
> <Batch ID>
0112

> <Smiles>
C=Cc1cc([100N:0](CC)[100C:0](=O)N2CCCC(n3nc(-c4ccc(Oc5ccc(F)cc5F)cc4)c(C(N)=O)c3N)C2)c(OC)cc1NC=C[101CH2:1][101O:1]c1ccc2c(c1)CN(C(=O)C(NC(=O)C(C)NC)C(C)(C)C)C(C(=O)NC1CCCc3ccccc31)C2

> <Shape>
0.204

> <Color>
0.070

> <Negative vol penalty>
0.000

$$$$

  -OEChem-04052301313D

 90 99  0     1  0  0  0  0  0999 V2000
  -28.6273  -33.5433   26.1079 C   0  0  0  0  0  0  0  0  0  0  0  0
  -28.5776  -32.2843   25.5181 C   0  0  0  0  0  0  0  0  0  0  0  0
  -23.1459  -13.0203   23.1850 C   0  0  0  0  0  0  0  0  0  0  0  0
  -24.9082  -11.5733   23.9833 C   0  0  0  0  0  0  0  0  0  0  0  0
  -27.4484  -34.2518   26.3364 C   0  0  0  0  0  0  0  0  0  0  0  0
  -27.3489  -31.7326   25.1574 C   0  0  0  0  0  0  0  0  0  0  0  0
  -27.4393  -29.6339   20.5495 C   0  0  0  0  0  0  0  0  0  0  0  0
  -30.3776  -19.8117   18.8048 C   0  0  0  0  0  0  0  0  0  0  0  0
  -30.2163  -18.4263   18.7878 C   0  0  0  0  0  0  0  0  0  0  0  0
  -22.6166  -13.0867   24.4738 C   0  0  0  0  0  0  0  0  0  0  0  0
  -24.3789  -11.6397   25.2722 C   0  0  0  0  0  0  0  0  0  0  0  0
  -28.0297  -28.3762   20.4342 C   0  0  0  0  0  0  0  0  0  0  0  0
  -21.8316  -10.2344   26.9947 C   0  0  0  0  0  0  0  0  0  0  0  0
  -21.7241   -9.0437   27.7133 C   0  0  0  0  0  0  0  0  0  0  0  0
  -25.8441  -27.3553   20.4514 C   0  0  0  0  0  0  0  0  0  0  0  0
  -27.9779  -20.0909   18.8275 C   0  0  0  0  0  0  0  0  0  0  0  0
  -23.1769   -9.9433   29.4213 C   0  0  0  0  0  0  0  0  0  0  0  0
  -24.2917  -12.2636   22.9397 C   0  0  0  0  0  0  0  0  0  0  0  0
  -24.1990  -11.7122   20.4508 C   0  0  0  0  0  0  0  0  0  0  0  0
  -26.2053  -33.7126   25.9695 C   0  0  0  0  0  0  0  0  0  0  0  0
  -26.0450  -29.7612   20.6278 C   0  0  0  0  0  0  0  0  0  0  0  0
  -26.1521  -32.4340   25.3824 C   0  0  0  0  0  0  0  0  0  0  0  0
  -25.2384  -28.6159   20.5651 C   0  0  0  0  0  0  0  0  0  0  0  0
  -27.8165  -18.7055   18.8104 C   0  0  0  0  0  0  0  0  0  0  0  0
  -29.2584  -20.6440   18.8247 C   0  0  0  0  0  0  0  0  0  0  0  0
  -28.9357  -17.8732   18.7905 C   0  0  0  0  0  0  0  0  0  0  0  0
  -23.2331  -12.3965   25.5174 C   0  0  0  0  0  0  0  0  0  0  0  0
  -27.2323  -27.2364   20.3880 C   0  0  0  0  0  0  0  0  0  0  0  0
  -22.6118  -11.2795   27.4893 C   0  0  0  0  0  0  0  0  0  0  0  0
  -22.3967   -8.8982   28.9266 C   0  0  0  0  0  0  0  0  0  0  0  0
  -23.2844  -11.1340   28.7026 C   0  0  0  0  0  0  0  0  0  0  0  0
  -24.8386  -12.1941   21.6085 C   0  0  0  0  0  0  0  0  0  0  0  0
  -25.1340  -11.8592   19.4555 C   0  0  0  0  0  0  0  0  0  0  0  0
  -27.9935  -24.0490   18.8886 C   0  0  0  0  0  0  0  0  0  0  0  0
  -28.4922  -22.9180   19.4562 C   0  0  0  0  0  0  0  0  0  0  0  0
  -29.9537  -22.7958   16.5896 C   0  0  0  0  0  0  0  0  0  0  0  0
  -25.6113  -16.3719   17.2294 C   0  0  0  0  0  0  0  0  0  0  0  0
  -26.0032  -17.6290   17.4661 C   0  0  0  0  0  0  0  0  0  0  0  0
  -22.8778  -11.1793   20.2894 C   0  0  0  0  0  0  0  0  0  0  0  0
  -24.0131  -30.8805   22.8009 C   0  0  0  0  0  0  0  0  0  0  0  0
  -21.8266  -30.3417   20.4661 C   0  0  0  0  0  0  0  0  0  0  0  0
  -21.1609  -27.7704   18.0243 C   0  0  0  0  0  0  0  0  0  0  0  0
  -29.8114  -15.5114   18.7559 C   0  0  0  0  0  0  0  0  0  0  0  0
  -24.9543  -34.4958   26.2796 C   0  0  0  0  0  0  0  0  0  0  0  0
  -25.4224  -31.1270   20.7250 C   0  0  0  0  0  0  0  0  0  0  0  0
  -23.7358  -28.7000   20.6249 C   0  0  0  0  0  0  0  0  0  0  0  0
  -28.2813  -24.4949   17.4588 C   0  0  0  0  0  0  0  0  0  0  0  0
  -28.5748  -23.3986   16.4349 C   0  0  0  0  0  0  0  0  0  0  0  0
  -30.4880  -22.5974   17.9869 C   0  0  0  0  0  0  0  0  0  0  0  0
  -23.7228  -34.0000   25.5259 C   0  0  0  0  0  0  0  0  0  0  0  0
  -29.8699  -11.9514   18.7505 C   0  0  0  0  0  0  0  0  0  0  0  0
  -23.6236  -32.4800   25.6066 C   0  0  0  0  0  0  0  0  0  0  0  0
  -28.5256  -11.5657   19.3718 C   0  0  0  0  0  0  0  0  0  0  0  0
  -30.4586  -13.2010   19.4028 C   0  0  0  0  0  0  0  0  0  0  0  0
  -28.2158  -13.9763   20.0648 C   0  0  0  0  0  0  0  0  0  0  0  0
  -24.8404  -31.8124   24.9545 C   0  0  1  0  0  0  0  0  0  0  0  0
  -24.0156  -31.1017   21.3147 C   0  0  1  0  0  0  0  0  0  0  0  0
  -27.5526  -12.7608   19.3966 C   0  0  2  0  0  0  0  0  0  0  0  0
  -28.1274  -22.5483   20.8829 C   0  0  0  0  0  0  0  0  0  0  0  0
  -20.0190  -27.8955   15.7932 C   0  0  0  0  0  0  0  0  0  0  0  0
  -19.3276  -29.5451   22.0251 C   0  0  0  0  0  0  0  0  0  0  0  0
  -18.6572  -28.1139   20.0833 C   0  0  0  0  0  0  0  0  0  0  0  0
  -18.8789  -30.5817   19.7938 C   0  0  0  0  0  0  0  0  0  0  0  0
  -23.4880  -26.5798   16.6364 C   0  0  0  0  0  0  0  0  0  0  0  0
  -26.4331  -18.1405   18.8153 C   0  0  0  0  0  0  0  0  0  0  0  0
  -27.0558  -24.9996   19.5997 C   0  0  0  0  0  0  0  0  0  1  0  0
  -20.9613  -29.1730   20.0608 C   0  0  1  0  0  0  0  0  0  0  0  0
  -21.3536  -27.8720   16.5219 C   0  0  2  0  0  0  0  0  0  0  0  0
  -19.4814  -29.3496   20.5036 C   0  0  0  0  0  0  0  0  0  0  0  0
  -26.0838  -12.6156   21.3721 N   0  0  0  0  0  0  0  0  0  0  0  0
  -26.2341  -12.3990   20.0543 N   0  0  0  0  0  0  0  0  0  0  0  0
  -29.4233  -22.0584   18.8427 N   0  0  0  0  0  0  0  0  0  0  0  0
  -23.1747  -30.0574   20.7261 N   0  0  0  0  0  0  0  0  0  0  0  0
  -29.4824  -14.2926   19.3862 N   0  0  0  0  0  0  0  0  0  0  0  0
  -25.1143  -11.5782   18.1352 N   0  0  0  0  0  0  0  0  0  0  0  0
  -22.6897   -9.7996   20.4489 N   0  0  0  0  0  0  0  0  0  0  0  0
  -28.7928  -16.4636   18.7747 N   0  0  0  0  0  0  0  0  0  0  0  0
  -24.7163  -31.8335   23.5127 N   0  0  0  0  0  0  0  0  0  0  0  0
  -21.1394  -29.0129   18.6217 N   0  0  0  0  0  0  0  0  0  0  0  0
  -22.1422  -26.7109   16.0211 N   0  3  0  0  0  0  0  0  0  0  0  0
  -30.6164  -22.4675   15.6046 O   0  0  0  0  0  0  0  0  0  0  0  0
  -21.8960  -11.9028   19.9958 O   0  0  0  0  0  0  0  0  0  0  0  0
  -23.4161  -29.9173   23.2673 O   0  0  0  0  0  0  0  0  0  0  0  0
  -21.3265  -31.4668   20.5420 O   0  0  0  0  0  0  0  0  0  0  0  0
  -21.0378  -26.6963   18.6089 O   0  0  0  0  0  0  0  0  0  0  0  0
  -30.9056  -15.6870   18.2139 O   0  0  0  0  0  0  0  0  0  0  0  0
  -22.7170  -12.4612   26.7751 O   0  0  0  0  0  0  0  0  0  0  0  0
  -27.8060  -26.0075   20.2761 O   0  0  0  0  0  0  0  0  0  1  0  0
  -22.2921   -7.7553   29.6173 F   0  0  0  0  0  0  0  0  0  0  0  0
  -24.0345  -12.1349   29.1835 F   0  0  0  0  0  0  0  0  0  0  0  0
  1  2  1  0  0  0  0
  1  5  2  0  0  0  0
  2  6  2  0  0  0  0
  3 10  2  0  0  0  0
  3 18  1  0  0  0  0
  4 11  1  0  0  0  0
  4 18  2  0  0  0  0
  5 20  1  0  0  0  0
  6 22  1  0  0  0  0
  7 12  2  0  0  0  0
  7 21  1  0  0  0  0
  8  9  2  0  0  0  0
  8 25  1  0  0  0  0
  9 26  1  0  0  0  0
 10 27  1  0  0  0  0
 11 27  2  0  0  0  0
 12 28  1  0  0  0  0
 13 14  2  0  0  0  0
 13 29  1  0  0  0  0
 14 30  1  0  0  0  0
 15 23  1  0  0  0  0
 15 28  2  0  0  0  0
 16 24  1  0  0  0  0
 16 25  2  0  0  0  0
 17 30  2  0  0  0  0
 17 31  1  0  0  0  0
 18 32  1  0  0  0  0
 19 32  1  0  0  0  0
 19 33  2  0  0  0  0
 19 39  1  0  0  0  0
 20 22  2  0  0  0  0
 20 44  1  0  0  0  0
 21 23  2  0  0  0  0
 21 45  1  0  0  0  0
 22 56  1  0  0  0  0
 23 46  1  0  0  0  0
 24 26  2  0  0  0  0
 24 65  1  0  0  0  0
 25 72  1  0  0  0  0
 26 77  1  0  0  0  0
 27 87  1  0  0  0  0
 28 88  1  0  0  0  0
 29 31  2  0  0  0  0
 29 87  1  0  0  0  0
 30 89  1  0  0  0  0
 31 90  1  0  0  0  0
 32 70  2  0  0  0  0
 33 71  1  0  0  0  0
 33 75  1  0  0  0  0
 34 35  2  0  0  0  0
 34 47  1  0  0  0  0
 34 66  1  0  0  0  0
 35 59  1  0  0  0  0
 35 72  1  0  0  0  0
 36 48  1  0  0  0  0
 36 49  1  0  0  0  0
 36 81  2  0  0  0  0
 37 38  2  0  0  0  0
 38 65  1  0  0  0  0
 39 76  1  0  0  0  0
 39 82  2  0  0  0  0
 40 57  1  0  0  0  0
 40 78  1  0  0  0  0
 40 83  2  0  0  0  0
 41 67  1  0  0  0  0
 41 73  1  0  0  0  0
 41 84  2  0  0  0  0
 42 68  1  0  0  0  0
 42 79  1  0  0  0  0
 42 85  2  0  0  0  0
 43 74  1  0  0  0  0
 43 77  1  0  0  0  0
 43 86  2  0  0  0  0
 44 50  1  0  0  0  0
 45 57  1  0  0  0  0
 46 73  1  0  0  0  0
 47 48  1  0  0  0  0
 49 72  1  0  0  0  0
 50 52  1  0  0  0  0
 51 53  1  0  0  0  0
 51 54  1  0  0  0  0
 52 56  1  0  0  0  0
 53 58  1  0  0  0  0
 54 74  1  0  0  0  0
 55 58  1  0  0  0  0
 55 74  1  0  0  0  0
 56 78  1  0  0  0  0
 57 73  1  0  0  0  0
 58 71  1  0  0  0  0
 60 68  1  0  0  0  0
 61 69  1  0  0  0  0
 62 69  1  0  0  0  0
 63 69  1  0  0  0  0
 64 80  1  0  0  0  0
 66 88  1  0  0  0  0
 67 69  1  0  0  0  0
 67 79  1  0  0  0  0
 68 80  1  0  0  0  0
 70 71  1  0  0  0  0
M  CHG  1  80   1
M  ISO  4  43 100  66 101  77 100  88 101
M  END
> <Batch ID>
0112

> <Smiles>
C=CCc1cc(N2CC(=O)CCC([101CH2:1][101O:1]c3ccc4c(c3)CN(C(=O)C(NC(=O)C(C)NC)C(C)(C)C)C(C(=O)NC3CCCc5ccccc53)C4)=C2C)ccc1[100NH:0][100C:0](=O)N1CCCC(n2nc(-c3ccc(Oc4ccc(F)cc4F)cc3)c(C(N)=O)c2N)C1

> <Shape>
0.274

> <Color>
0.077

> <Negative vol penalty>
0.000

$$$$

  -OEChem-04052301313D

 89 98  0     1  0  0  0  0  0999 V2000
  -34.0809  -26.4754    8.6852 C   0  0  0  0  0  0  0  0  0  0  0  0
  -32.9016  -26.0017    9.2511 C   0  0  0  0  0  0  0  0  0  0  0  0
  -23.4816   -9.6944   19.9333 C   0  0  0  0  0  0  0  0  0  0  0  0
  -23.2603  -10.0523   22.3124 C   0  0  0  0  0  0  0  0  0  0  0  0
  -35.3084  -25.9646    9.1048 C   0  0  0  0  0  0  0  0  0  0  0  0
  -32.9492  -25.0160   10.2363 C   0  0  0  0  0  0  0  0  0  0  0  0
  -29.2000  -24.4317   15.0434 C   0  0  0  0  0  0  0  0  0  0  0  0
  -22.7065   -8.5392   20.0350 C   0  0  0  0  0  0  0  0  0  0  0  0
  -22.4852   -8.8971   22.4141 C   0  0  0  0  0  0  0  0  0  0  0  0
  -28.0812  -23.6308   15.2685 C   0  0  0  0  0  0  0  0  0  0  0  0
  -22.9940   -5.5560   22.5101 C   0  0  0  0  0  0  0  0  0  0  0  0
  -23.2767   -4.6758   23.5545 C   0  0  0  0  0  0  0  0  0  0  0  0
  -29.4740  -22.0106   16.3885 C   0  0  0  0  0  0  0  0  0  0  0  0
  -28.3901  -18.1534   14.8507 C   0  0  0  0  0  0  0  0  0  0  0  0
  -26.9732  -18.4412   16.7863 C   0  0  0  0  0  0  0  0  0  0  0  0
  -21.0336   -4.9641   24.4046 C   0  0  0  0  0  0  0  0  0  0  0  0
  -23.7585  -10.4509   21.0721 C   0  0  0  0  0  0  0  0  0  0  0  0
  -29.0976  -17.3109   17.0015 C   0  0  0  0  0  0  0  0  0  0  0  0
  -24.1052  -12.9548   20.7285 C   0  0  0  0  0  0  0  0  0  0  0  0
  -35.3716  -24.9791   10.1025 C   0  0  0  0  0  0  0  0  0  0  0  0
  -30.4680  -24.0222   15.4803 C   0  0  0  0  0  0  0  0  0  0  0  0
  -34.1786  -24.4906   10.6687 C   0  0  0  0  0  0  0  0  0  0  0  0
  -30.6068  -22.8093   16.1700 C   0  0  0  0  0  0  0  0  0  0  0  0
  -29.3340  -17.4958   15.6394 C   0  0  0  0  0  0  0  0  0  0  0  0
  -27.2097  -18.6262   15.4241 C   0  0  0  0  0  0  0  0  0  0  0  0
  -22.2083   -8.1405   21.2754 C   0  0  0  0  0  0  0  0  0  0  0  0
  -28.2185  -22.4187   15.9386 C   0  0  0  0  0  0  0  0  0  0  0  0
  -21.7311   -6.1404   22.4129 C   0  0  0  0  0  0  0  0  0  0  0  0
  -22.2965   -4.3798   24.5017 C   0  0  0  0  0  0  0  0  0  0  0  0
  -20.7509   -5.8444   23.3601 C   0  0  0  0  0  0  0  0  0  0  0  0
  -27.9172  -17.7836   17.5751 C   0  0  0  0  0  0  0  0  0  0  0  0
  -24.5596  -11.6441   20.9677 C   0  0  0  0  0  0  0  0  0  0  0  0
  -25.2471  -13.7180   20.7207 C   0  0  0  0  0  0  0  0  0  0  0  0
  -26.0020  -19.0786   13.2410 C   0  0  0  0  0  0  0  0  0  0  0  0
  -30.1209  -16.6078   17.8173 C   0  0  0  0  0  0  0  0  0  0  0  0
  -22.7703  -13.4392   20.5309 C   0  0  0  0  0  0  0  0  0  0  0  0
  -33.2223  -23.3406   14.0475 C   0  0  0  0  0  0  0  0  0  0  0  0
  -34.3049  -23.1151   17.0970 C   0  0  0  0  0  0  0  0  0  0  0  0
  -33.5943  -22.5764   20.3912 C   0  0  0  0  0  0  0  0  0  0  0  0
  -30.5062  -14.6063   19.2205 C   0  0  0  0  0  0  0  0  0  0  0  0
  -36.7192  -24.4236   10.4899 C   0  0  0  0  0  0  0  0  0  0  0  0
  -31.6607  -24.9102   15.2533 C   0  0  0  0  0  0  0  0  0  0  0  0
  -31.9429  -22.3338   16.6773 C   0  0  0  0  0  0  0  0  0  0  0  0
  -24.8822  -19.9998   12.8182 C   0  0  0  0  0  0  0  0  0  0  0  0
  -36.7035  -23.6490   11.8052 C   0  0  0  0  0  0  0  0  0  0  0  0
  -24.2210  -20.3772   14.1302 C   0  0  0  0  0  0  0  0  0  0  0  0
  -29.9935  -12.5635   22.0597 C   0  0  0  0  0  0  0  0  0  0  0  0
  -35.5224  -22.6845   11.8426 C   0  0  0  0  0  0  0  0  0  0  0  0
  -28.4946  -12.2545   22.0163 C   0  0  0  0  0  0  0  0  0  0  0  0
  -30.6079  -12.5912   20.6609 C   0  0  0  0  0  0  0  0  0  0  0  0
  -28.4328  -13.1542   19.6561 C   0  0  0  0  0  0  0  0  0  0  0  0
  -34.1905  -23.4397   11.7576 C   0  0  1  0  0  0  0  0  0  0  0  0
  -32.9847  -24.1531   15.2889 C   0  0  1  0  0  0  0  0  0  0  0  0
  -27.7535  -13.1845   21.0348 C   0  0  1  0  0  0  0  0  0  0  0  0
  -25.3677  -20.3495   15.1346 C   0  0  2  0  0  0  0  0  0  0  0  0
  -30.5870  -17.0000   14.9926 C   0  0  0  0  0  0  0  0  0  0  0  0
  -34.6914  -22.4165   22.6425 C   0  0  0  0  0  0  0  0  0  0  0  0
  -35.3486  -20.3369   16.3884 C   0  0  0  0  0  0  0  0  0  0  0  0
  -35.5606  -19.8678   18.8385 C   0  0  0  0  0  0  0  0  0  0  0  0
  -36.8947  -21.7029   17.8018 C   0  0  0  0  0  0  0  0  0  0  0  0
  -32.0317  -24.8589   21.4436 C   0  0  0  0  0  0  0  0  0  0  0  0
  -28.2901  -19.0968   19.9519 C   0  0  0  0  0  0  0  0  0  0  0  0
  -26.0726  -21.7062   15.2015 C   0  0  0  0  0  0  0  0  0  1  0  0
  -34.4046  -22.0064   18.1168 C   0  0  1  0  0  0  0  0  0  0  0  0
  -33.9975  -23.3311   21.6451 C   0  0  2  0  0  0  0  0  0  0  0  0
  -35.5271  -20.9863   17.7752 C   0  0  0  0  0  0  0  0  0  0  0  0
  -25.8867  -11.5748   21.1021 N   0  0  0  0  0  0  0  0  0  0  0  0
  -26.2760  -12.8517   20.9467 N   0  0  0  0  0  0  0  0  0  0  0  0
  -26.2408  -19.3011   14.6139 N   0  0  0  0  0  0  0  0  0  0  0  0
  -33.0800  -23.2344   16.4252 N   0  0  0  0  0  0  0  0  0  0  0  0
  -29.8549  -13.5014   19.7962 N   0  0  0  0  0  0  0  0  0  0  0  0
  -25.4615  -15.0389   20.5426 N   0  0  0  0  0  0  0  0  0  0  0  0
  -21.7132  -12.5198   20.5702 N   0  0  0  0  0  0  0  0  0  0  0  0
  -29.6909  -15.4389   18.4459 N   0  0  0  0  0  0  0  0  0  0  0  0
  -33.8627  -24.0319   13.0367 N   0  0  0  0  0  0  0  0  0  0  0  0
  -34.5627  -22.6571   19.4129 N   0  0  0  0  0  0  0  0  0  0  0  0
  -32.7973  -23.9201   22.3036 N   0  3  0  0  0  0  0  0  0  0  0  0
  -26.5613  -18.3301   12.4526 O   0  0  0  0  0  0  0  0  0  0  0  0
  -31.2630  -17.0568   17.8607 O   0  0  0  0  0  0  0  0  0  0  0  0
  -22.5237  -14.6490   20.3094 O   0  0  0  0  0  0  0  0  0  0  0  0
  -32.8534  -22.1726   14.0100 O   0  0  0  0  0  0  0  0  0  0  0  0
  -35.2755  -23.8527   16.9087 O   0  0  0  0  0  0  0  0  0  0  0  0
  -32.5287  -21.9723   20.2910 O   0  0  0  0  0  0  0  0  0  0  0  0
  -31.7016  -14.8519   19.4105 O   0  0  0  0  0  0  0  0  0  0  0  0
  -21.4517   -7.0135   21.3750 O   0  0  0  0  0  0  0  0  0  0  0  0
  -27.1283  -21.6347   16.1590 O   0  0  0  0  0  0  0  0  0  1  0  0
  -22.5676   -3.5333   25.5038 F   0  0  0  0  0  0  0  0  0  0  0  0
  -19.5355   -6.4017   23.2714 F   0  0  0  0  0  0  0  0  0  0  0  0
  -27.5575  -17.5747   19.3164 S   0  0  0  0  0  0  0  0  0  0  0  0
  1  2  1  0  0  0  0
  1  5  2  0  0  0  0
  2  6  2  0  0  0  0
  3  8  2  0  0  0  0
  3 17  1  0  0  0  0
  4  9  1  0  0  0  0
  4 17  2  0  0  0  0
  5 20  1  0  0  0  0
  6 22  1  0  0  0  0
  7 10  2  0  0  0  0
  7 21  1  0  0  0  0
  8 26  1  0  0  0  0
  9 26  2  0  0  0  0
 10 27  1  0  0  0  0
 11 12  2  0  0  0  0
 11 28  1  0  0  0  0
 12 29  1  0  0  0  0
 13 23  1  0  0  0  0
 13 27  2  0  0  0  0
 14 24  2  0  0  0  0
 14 25  1  0  0  0  0
 15 25  2  0  0  0  0
 15 31  1  0  0  0  0
 16 29  2  0  0  0  0
 16 30  1  0  0  0  0
 17 32  1  0  0  0  0
 18 24  1  0  0  0  0
 18 31  2  0  0  0  0
 18 35  1  0  0  0  0
 19 32  1  0  0  0  0
 19 33  2  0  0  0  0
 19 36  1  0  0  0  0
 20 22  2  0  0  0  0
 20 41  1  0  0  0  0
 21 23  2  0  0  0  0
 21 42  1  0  0  0  0
 22 52  1  0  0  0  0
 23 43  1  0  0  0  0
 24 56  1  0  0  0  0
 25 69  1  0  0  0  0
 26 85  1  0  0  0  0
 27 86  1  0  0  0  0
 28 30  2  0  0  0  0
 28 85  1  0  0  0  0
 29 87  1  0  0  0  0
 30 88  1  0  0  0  0
 31 89  1  0  0  0  0
 32 67  2  0  0  0  0
 33 68  1  0  0  0  0
 33 72  1  0  0  0  0
 34 44  1  0  0  0  0
 34 69  1  0  0  0  0
 34 78  2  0  0  0  0
 35 74  1  0  0  0  0
 35 79  2  0  0  0  0
 36 73  1  0  0  0  0
 36 80  2  0  0  0  0
 37 53  1  0  0  0  0
 37 75  1  0  0  0  0
 37 81  2  0  0  0  0
 38 64  1  0  0  0  0
 38 70  1  0  0  0  0
 38 82  2  0  0  0  0
 39 65  1  0  0  0  0
 39 76  1  0  0  0  0
 39 83  2  0  0  0  0
 40 71  1  0  0  0  0
 40 74  1  0  0  0  0
 40 84  2  0  0  0  0
 41 45  1  0  0  0  0
 42 53  1  0  0  0  0
 43 70  1  0  0  0  0
 44 46  1  0  0  0  0
 45 48  1  0  0  0  0
 46 55  1  0  0  0  0
 47 49  1  0  0  0  0
 47 50  1  0  0  0  0
 48 52  1  0  0  0  0
 49 54  1  0  0  0  0
 50 71  1  0  0  0  0
 51 54  1  0  0  0  0
 51 71  1  0  0  0  0
 52 75  1  0  0  0  0
 53 70  1  0  0  0  0
 54 68  1  0  0  0  0
 55 63  1  0  0  0  0
 55 69  1  0  0  0  0
 57 65  1  0  0  0  0
 58 66  1  0  0  0  0
 59 66  1  0  0  0  0
 60 66  1  0  0  0  0
 61 77  1  0  0  0  0
 62 89  1  0  0  0  0
 63 86  1  0  0  0  0
 64 66  1  0  0  0  0
 64 76  1  0  0  0  0
 65 77  1  0  0  0  0
 67 68  1  0  0  0  0
M  CHG  1  77   1
M  ISO  4  40 100  63 101  74 100  86 101
M  END
> <Batch ID>
0112

> <Smiles>
CNC(C)C(=O)NC(C(=O)N1Cc2cc([101O:1][101CH2:1]C3CCC(=O)N3c3cc(C)c(C(=O)[100NH:0][100C:0](=O)N4CCCC(n5nc(-c6ccc(Oc7ccc(F)cc7F)cc6)c(C(N)=O)c5N)C4)c(SC)c3)ccc2CC1C(=O)NC1CCCc2ccccc21)C(C)(C)C

> <Shape>
0.153

> <Color>
0.163

> <Negative vol penalty>
0.000

$$$$

  -OEChem-04052301313D

 86 94  0     1  0  0  0  0  0999 V2000
  -20.6805  -26.0999   25.8987 C   0  0  0  0  0  0  0  0  0  0  0  0
  -21.7336  -25.9086   25.0099 C   0  0  0  0  0  0  0  0  0  0  0  0
  -23.2032   -9.9221   21.5997 C   0  0  0  0  0  0  0  0  0  0  0  0
  -23.2849  -11.9798   22.8632 C   0  0  0  0  0  0  0  0  0  0  0  0
  -19.5795  -26.8663   25.5186 C   0  0  0  0  0  0  0  0  0  0  0  0
  -21.6857  -26.4827   23.7400 C   0  0  0  0  0  0  0  0  0  0  0  0
  -26.0623  -28.6673   22.4294 C   0  0  0  0  0  0  0  0  0  0  0  0
  -22.3797   -9.3569   22.5733 C   0  0  0  0  0  0  0  0  0  0  0  0
  -22.4612  -11.4146   23.8368 C   0  0  0  0  0  0  0  0  0  0  0  0
  -27.0905  -27.8277   22.0032 C   0  0  0  0  0  0  0  0  0  0  0  0
  -22.7315   -7.9833   25.6415 C   0  0  0  0  0  0  0  0  0  0  0  0
  -23.0249   -6.6870   26.0645 C   0  0  0  0  0  0  0  0  0  0  0  0
  -29.6741  -17.5172   20.7694 C   0  0  0  0  0  0  0  0  0  0  0  0
  -26.5650  -28.3585   19.7095 C   0  0  0  0  0  0  0  0  0  0  0  0
  -30.3591  -19.6645   19.1255 C   0  0  0  0  0  0  0  0  0  0  0  0
  -20.8437   -5.9533   25.3287 C   0  0  0  0  0  0  0  0  0  0  0  0
  -23.6559  -11.2335   21.7447 C   0  0  0  0  0  0  0  0  0  0  0  0
  -29.8526  -17.3183   19.4005 C   0  0  0  0  0  0  0  0  0  0  0  0
  -24.1048  -12.5354   19.5973 C   0  0  0  0  0  0  0  0  0  0  0  0
  -19.5225  -27.4580   24.2469 C   0  0  0  0  0  0  0  0  0  0  0  0
  -25.2693  -29.3515   21.4969 C   0  0  0  0  0  0  0  0  0  0  0  0
  -20.5823  -27.2565   23.3421 C   0  0  0  0  0  0  0  0  0  0  0  0
  -25.5290  -29.2082   20.1265 C   0  0  0  0  0  0  0  0  0  0  0  0
  -30.1952  -18.3919   18.5785 C   0  0  0  0  0  0  0  0  0  0  0  0
  -22.0086  -10.1032   23.6918 C   0  0  0  0  0  0  0  0  0  0  0  0
  -27.3401  -27.6710   20.6430 C   0  0  0  0  0  0  0  0  0  0  0  0
  -21.4942   -8.2647   25.0621 C   0  0  0  0  0  0  0  0  0  0  0  0
  -30.1805  -19.8635   20.4945 C   0  0  0  0  0  0  0  0  0  0  0  0
  -22.0810   -5.6719   25.9081 C   0  0  0  0  0  0  0  0  0  0  0  0
  -29.8379  -18.7899   21.3164 C   0  0  0  0  0  0  0  0  0  0  0  0
  -20.5504   -7.2497   24.9057 C   0  0  0  0  0  0  0  0  0  0  0  0
  -24.5071  -11.8177   20.7396 C   0  0  0  0  0  0  0  0  0  0  0  0
  -25.2803  -12.8734   18.9725 C   0  0  0  0  0  0  0  0  0  0  0  0
  -29.6729  -15.9793   18.8555 C   0  0  0  0  0  0  0  0  0  0  0  0
  -22.7864  -12.8669   19.1418 C   0  0  0  0  0  0  0  0  0  0  0  0
  -30.5045  -14.8435   19.3156 C   0  0  0  0  0  0  0  0  0  0  0  0
  -22.1796  -29.3506   20.7505 C   0  0  0  0  0  0  0  0  0  0  0  0
  -23.0461  -31.8046   18.8141 C   0  0  0  0  0  0  0  0  0  0  0  0
  -25.5130  -33.3749   17.0547 C   0  0  0  0  0  0  0  0  0  0  0  0
  -18.2903  -28.2388   23.8641 C   0  0  0  0  0  0  0  0  0  0  0  0
  -24.1813  -30.2742   21.9736 C   0  0  0  0  0  0  0  0  0  0  0  0
  -24.7196  -29.9361   19.0856 C   0  0  0  0  0  0  0  0  0  0  0  0
  -18.4867  -29.1230   22.6353 C   0  0  0  0  0  0  0  0  0  0  0  0
  -30.0172  -11.3219   19.7824 C   0  0  0  0  0  0  0  0  0  0  0  0
  -19.1841  -28.3451   21.5239 C   0  0  0  0  0  0  0  0  0  0  0  0
  -28.5119  -11.2020   20.0181 C   0  0  0  0  0  0  0  0  0  0  0  0
  -30.5724  -12.6167   20.3670 C   0  0  0  0  0  0  0  0  0  0  0  0
  -28.3731  -13.7315   20.1044 C   0  0  0  0  0  0  0  0  0  0  0  0
  -20.5784  -27.8834   21.9647 C   0  0  1  0  0  0  0  0  0  0  0  0
  -23.1047  -30.5222   20.9216 C   0  0  1  0  0  0  0  0  0  0  0  0
  -27.7714  -12.4492   19.5036 C   0  0  2  0  0  0  0  0  0  0  0  0
  -29.1988  -18.7067   16.2993 C   0  0  0  0  0  0  0  0  0  0  0  0
  -25.9093  -35.3354   15.5392 C   0  0  0  0  0  0  0  0  0  0  0  0
  -21.7300  -30.2905   16.5151 C   0  0  0  0  0  0  0  0  0  0  0  0
  -22.9583  -31.7812   14.9223 C   0  0  0  0  0  0  0  0  0  0  0  0
  -21.3071  -32.7553   16.5184 C   0  0  0  0  0  0  0  0  0  0  0  0
  -27.4413  -34.5916   18.9416 C   0  0  0  0  0  0  0  0  0  0  0  0
  -30.3910  -18.2065   17.1090 C   0  0  0  0  0  0  0  0  0  0  0  0
  -29.2034  -24.5956   20.2001 C   0  0  0  0  0  0  0  0  0  0  0  0
  -29.5331  -23.3688   21.0433 C   0  0  0  0  0  0  0  0  0  0  0  0
  -28.6556  -25.7325   21.0526 C   0  0  0  0  0  0  0  0  0  1  0  0
  -30.0402  -22.2175   20.1864 C   0  0  0  0  0  0  0  0  0  0  0  0
  -23.5298  -31.9224   17.3889 C   0  0  1  0  0  0  0  0  0  0  0  0
  -25.9203  -34.8351   16.9753 C   0  0  2  0  0  0  0  0  0  0  0  0
  -22.3955  -31.6720   16.3555 C   0  0  0  0  0  0  0  0  0  0  0  0
  -25.8345  -11.7057   20.8372 N   0  0  0  0  0  0  0  0  0  0  0  0
  -28.7844  -15.6922   17.9447 N   0  0  0  0  0  0  0  0  0  0  0  0
  -26.2765  -12.3575   19.7481 N   0  0  0  0  0  0  0  0  0  0  0  0
  -29.8245  -13.7769   19.8867 N   0  0  0  0  0  0  0  0  0  0  0  0
  -23.6628  -30.8219   19.6014 N   0  0  0  0  0  0  0  0  0  0  0  0
  -25.5487  -13.5586   17.8407 N   0  0  0  0  0  0  0  0  0  0  0  0
  -21.6896  -12.4416   19.9037 N   0  0  0  0  0  0  0  0  0  0  0  0
  -21.5170  -28.9835   21.9062 N   0  0  0  0  0  0  0  0  0  0  0  0
  -24.1598  -33.2336   17.2787 N   0  0  0  0  0  0  0  0  0  0  0  0
  -27.2921  -35.0209   17.5272 N   0  3  0  0  0  0  0  0  0  0  0  0
  -22.5862  -13.5067   18.0815 O   0  0  0  0  0  0  0  0  0  0  0  0
  -31.7098  -14.9681   19.1422 O   0  0  0  0  0  0  0  0  0  0  0  0
  -22.0736  -28.8200   19.6510 O   0  0  0  0  0  0  0  0  0  0  0  0
  -22.1589  -32.5615   19.2161 O   0  0  0  0  0  0  0  0  0  0  0  0
  -26.3144  -32.4519   16.9268 O   0  0  0  0  0  0  0  0  0  0  0  0
  -21.2048   -9.5521   24.6419 O   0  0  0  0  0  0  0  0  0  0  0  0
  -28.3427  -26.8516   20.2243 O   0  0  0  0  0  0  0  0  0  1  0  0
  -30.3422  -21.1148   21.0302 O   0  0  0  0  0  0  0  0  0  0  0  0
  -22.3635   -4.4267   26.3130 F   0  0  0  0  0  0  0  0  0  0  0  0
  -29.6632  -18.9751   22.6322 F   0  0  0  0  0  0  0  0  0  0  0  0
  -19.3604   -7.5136   24.3488 F   0  0  0  0  0  0  0  0  0  0  0  0
  1  2  1  0  0  0  0
  1  5  2  0  0  0  0
  2  6  2  0  0  0  0
  3  8  2  0  0  0  0
  3 17  1  0  0  0  0
  4  9  1  0  0  0  0
  4 17  2  0  0  0  0
  5 20  1  0  0  0  0
  6 22  1  0  0  0  0
  7 10  2  0  0  0  0
  7 21  1  0  0  0  0
  8 25  1  0  0  0  0
  9 25  2  0  0  0  0
 10 26  1  0  0  0  0
 11 12  2  0  0  0  0
 11 27  1  0  0  0  0
 12 29  1  0  0  0  0
 13 18  1  0  0  0  0
 13 30  2  0  0  0  0
 14 23  1  0  0  0  0
 14 26  2  0  0  0  0
 15 24  1  0  0  0  0
 15 28  2  0  0  0  0
 16 29  2  0  0  0  0
 16 31  1  0  0  0  0
 17 32  1  0  0  0  0
 18 24  2  0  0  0  0
 18 34  1  0  0  0  0
 19 32  1  0  0  0  0
 19 33  2  0  0  0  0
 19 35  1  0  0  0  0
 20 22  2  0  0  0  0
 20 40  1  0  0  0  0
 21 23  2  0  0  0  0
 21 41  1  0  0  0  0
 22 49  1  0  0  0  0
 23 42  1  0  0  0  0
 24 58  1  0  0  0  0
 25 81  1  0  0  0  0
 26 82  1  0  0  0  0
 27 31  2  0  0  0  0
 27 81  1  0  0  0  0
 28 30  1  0  0  0  0
 28 83  1  0  0  0  0
 29 84  1  0  0  0  0
 30 85  1  0  0  0  0
 31 86  1  0  0  0  0
 32 66  2  0  0  0  0
 33 68  1  0  0  0  0
 33 71  1  0  0  0  0
 34 36  1  0  0  0  0
 34 67  2  0  0  0  0
 35 72  1  0  0  0  0
 35 76  2  0  0  0  0
 36 69  1  0  0  0  0
 36 77  2  0  0  0  0
 37 50  1  0  0  0  0
 37 73  1  0  0  0  0
 37 78  2  0  0  0  0
 38 63  1  0  0  0  0
 38 70  1  0  0  0  0
 38 79  2  0  0  0  0
 39 64  1  0  0  0  0
 39 74  1  0  0  0  0
 39 80  2  0  0  0  0
 40 43  1  0  0  0  0
 41 50  1  0  0  0  0
 42 70  1  0  0  0  0
 43 45  1  0  0  0  0
 44 46  1  0  0  0  0
 44 47  1  0  0  0  0
 45 49  1  0  0  0  0
 46 51  1  0  0  0  0
 47 69  1  0  0  0  0
 48 51  1  0  0  0  0
 48 69  1  0  0  0  0
 49 73  1  0  0  0  0
 50 70  1  0  0  0  0
 51 68  1  0  0  0  0
 52 58  1  0  0  0  0
 53 64  1  0  0  0  0
 54 65  1  0  0  0  0
 55 65  1  0  0  0  0
 56 65  1  0  0  0  0
 57 75  1  0  0  0  0
 59 60  1  0  0  0  0
 59 61  1  0  0  0  0
 60 62  1  0  0  0  0
 61 82  1  0  0  0  0
 62 83  1  0  0  0  0
 63 65  1  0  0  0  0
 63 74  1  0  0  0  0
 64 75  1  0  0  0  0
 66 68  1  0  0  0  0
M  CHG  1  75   1
M  ISO  4  34 100  36 100  61 101  82 101
M  END
> <Batch ID>
0112

> <Smiles>
CCc1cc(OCCC[101CH2:1][101O:1]c2ccc3c(c2)CN(C(=O)C(NC(=O)C(C)NC)C(C)(C)C)C(C(=O)NC2CCCc4ccccc42)C3)c(F)cc1[100C:0](=N)[100C:0](=O)N1CCCC(n2nc(-c3ccc(Oc4ccc(F)cc4F)cc3)c(C(N)=O)c2N)C1

> <Shape>
0.259

> <Color>
0.123

> <Negative vol penalty>
0.000

$$$$

  -OEChem-04052301313D

 86 94  0     1  0  0  0  0  0999 V2000
  -29.7450  -30.3504   26.2706 C   0  0  0  0  0  0  0  0  0  0  0  0
  -29.3490  -29.3838   25.3518 C   0  0  0  0  0  0  0  0  0  0  0  0
  -22.9132  -10.7816   19.4996 C   0  0  0  0  0  0  0  0  0  0  0  0
  -23.5487   -9.8322   21.6284 C   0  0  0  0  0  0  0  0  0  0  0  0
  -28.7880  -31.1424   26.9036 C   0  0  0  0  0  0  0  0  0  0  0  0
  -27.9955  -29.2079   25.0663 C   0  0  0  0  0  0  0  0  0  0  0  0
  -27.1003  -28.7521   20.1029 C   0  0  0  0  0  0  0  0  0  0  0  0
  -22.0012   -9.7437   19.3089 C   0  0  0  0  0  0  0  0  0  0  0  0
  -22.6366   -8.7942   21.4377 C   0  0  0  0  0  0  0  0  0  0  0  0
  -27.3769  -27.5177   19.5167 C   0  0  0  0  0  0  0  0  0  0  0  0
  -22.4802   -5.9052   19.6884 C   0  0  0  0  0  0  0  0  0  0  0  0
  -22.9063   -4.6077   19.9723 C   0  0  0  0  0  0  0  0  0  0  0  0
  -25.0339  -26.9525   19.6153 C   0  0  0  0  0  0  0  0  0  0  0  0
  -26.8110  -19.9261   19.0327 C   0  0  0  0  0  0  0  0  0  0  0  0
  -28.1855  -20.9322   17.3194 C   0  0  0  0  0  0  0  0  0  0  0  0
  -21.1622   -4.3980   21.6311 C   0  0  0  0  0  0  0  0  0  0  0  0
  -23.6871  -10.8259   20.6594 C   0  0  0  0  0  0  0  0  0  0  0  0
  -28.7455  -18.7493   18.1901 C   0  0  0  0  0  0  0  0  0  0  0  0
  -24.3901  -13.1364   21.4810 C   0  0  0  0  0  0  0  0  0  0  0  0
  -27.4228  -30.9827   26.6186 C   0  0  0  0  0  0  0  0  0  0  0  0
  -25.7876  -29.0921   20.4602 C   0  0  0  0  0  0  0  0  0  0  0  0
  -27.0192  -29.9976   25.6971 C   0  0  0  0  0  0  0  0  0  0  0  0
  -24.7428  -28.1928   20.2035 C   0  0  0  0  0  0  0  0  0  0  0  0
  -27.0825  -20.9891   18.1714 C   0  0  0  0  0  0  0  0  0  0  0  0
  -27.6425  -18.8062   19.0421 C   0  0  0  0  0  0  0  0  0  0  0  0
  -21.8629   -8.7500   20.2779 C   0  0  0  0  0  0  0  0  0  0  0  0
  -26.3441  -26.6166   19.2754 C   0  0  0  0  0  0  0  0  0  0  0  0
  -21.3952   -6.4491   20.3759 C   0  0  0  0  0  0  0  0  0  0  0  0
  -29.0170  -19.8123   17.3288 C   0  0  0  0  0  0  0  0  0  0  0  0
  -22.2473   -3.8541   20.9437 C   0  0  0  0  0  0  0  0  0  0  0  0
  -20.7362   -5.6955   21.3472 C   0  0  0  0  0  0  0  0  0  0  0  0
  -24.6298  -11.8975   20.8567 C   0  0  0  0  0  0  0  0  0  0  0  0
  -25.5948  -13.7928   21.4151 C   0  0  0  0  0  0  0  0  0  0  0  0
  -30.7093  -18.1254   13.5353 C   0  0  0  0  0  0  0  0  0  0  0  0
  -29.6296  -17.5702   18.1912 C   0  0  0  0  0  0  0  0  0  0  0  0
  -30.9095  -19.1697   14.3468 C   0  0  0  0  0  0  0  0  0  0  0  0
  -26.5711  -23.0651   18.9804 C   0  0  0  0  0  0  0  0  0  0  0  0
  -23.1863  -13.6480   22.0680 C   0  0  0  0  0  0  0  0  0  0  0  0
  -24.3130  -29.7803   23.1907 C   0  0  0  0  0  0  0  0  0  0  0  0
  -21.8158  -30.4325   21.2257 C   0  0  0  0  0  0  0  0  0  0  0  0
  -20.2870  -29.9244   18.2172 C   0  0  0  0  0  0  0  0  0  0  0  0
  -30.0759  -15.3302   18.4640 C   0  0  0  0  0  0  0  0  0  0  0  0
  -26.4217  -31.8301   27.3631 C   0  0  0  0  0  0  0  0  0  0  0  0
  -25.5021  -30.4383   21.0672 C   0  0  0  0  0  0  0  0  0  0  0  0
  -23.3136  -28.5180   20.5498 C   0  0  0  0  0  0  0  0  0  0  0  0
  -25.0345  -31.8353   26.7260 C   0  0  0  0  0  0  0  0  0  0  0  0
  -30.1943  -12.1395   20.1402 C   0  0  0  0  0  0  0  0  0  0  0  0
  -24.6065  -30.4157   26.3675 C   0  0  0  0  0  0  0  0  0  0  0  0
  -28.7305  -11.8795   20.4954 C   0  0  0  0  0  0  0  0  0  0  0  0
  -30.3258  -12.8721   18.8085 C   0  0  0  0  0  0  0  0  0  0  0  0
  -28.0843  -13.8920   19.0984 C   0  0  0  0  0  0  0  0  0  0  0  0
  -25.5623  -29.7936   25.3424 C   0  0  1  0  0  0  0  0  0  0  0  0
  -24.1999  -30.4716   21.8614 C   0  0  1  0  0  0  0  0  0  0  0  0
  -27.9113  -13.1818   20.4518 C   0  0  1  0  0  0  0  0  0  0  0  0
  -18.2392  -30.5638   16.9152 C   0  0  0  0  0  0  0  0  0  0  0  0
  -20.1446  -28.5250   22.9222 C   0  0  0  0  0  0  0  0  0  0  0  0
  -18.4592  -28.4669   21.0717 C   0  0  0  0  0  0  0  0  0  0  0  0
  -18.9609  -30.6172   22.2324 C   0  0  0  0  0  0  0  0  0  0  0  0
  -21.8989  -31.1763   16.0739 C   0  0  0  0  0  0  0  0  0  0  0  0
  -29.8203  -19.8680   15.0911 C   0  0  0  0  0  0  0  0  0  0  0  0
  -25.7575  -24.3225   19.0542 C   0  0  0  0  0  0  0  0  0  1  0  0
  -20.6709  -29.6340   20.6508 C   0  0  1  0  0  0  0  0  0  0  0  0
  -19.6935  -30.8951   17.2122 C   0  0  2  0  0  0  0  0  0  0  0  0
  -19.5860  -29.3036   21.7144 C   0  0  0  0  0  0  0  0  0  0  0  0
  -25.8878  -11.7721   20.4258 N   0  0  0  0  0  0  0  0  0  0  0  0
  -26.2454  -22.1177   18.1632 N   0  0  0  0  0  0  0  0  0  0  0  0
  -29.1893  -16.3899   18.4817 N   0  0  0  0  0  0  0  0  0  0  0  0
  -26.4494  -12.9406   20.7798 N   0  0  0  0  0  0  0  0  0  0  0  0
  -23.0861  -29.8442   21.1473 N   0  0  0  0  0  0  0  0  0  0  0  0
  -29.5080  -14.0856   18.7927 N   0  0  0  0  0  0  0  0  0  0  0  0
  -27.3481  -17.7409   19.9224 N   0  0  0  0  0  0  0  0  0  0  0  0
  -25.9959  -15.0100   21.8391 N   0  0  0  0  0  0  0  0  0  0  0  0
  -22.0395  -12.8424   22.0502 N   0  0  0  0  0  0  0  0  0  0  0  0
  -25.2867  -30.3070   24.0177 N   0  0  0  0  0  0  0  0  0  0  0  0
  -20.1758  -30.3946   19.5086 N   0  0  0  0  0  0  0  0  0  0  0  0
  -20.4569  -30.8478   15.9332 N   0  3  0  0  0  0  0  0  0  0  0  0
  -23.1248  -14.7923   22.5782 O   0  0  0  0  0  0  0  0  0  0  0  0
  -23.5708  -28.8397   23.4476 O   0  0  0  0  0  0  0  0  0  0  0  0
  -21.5925  -31.5406   21.7195 O   0  0  0  0  0  0  0  0  0  0  0  0
  -20.7950  -28.8542   17.8897 O   0  0  0  0  0  0  0  0  0  0  0  0
  -31.2713  -15.4387   18.1807 O   0  0  0  0  0  0  0  0  0  0  0  0
  -20.9728   -7.7371   20.0923 O   0  0  0  0  0  0  0  0  0  0  0  0
  -30.0896  -19.7786   16.4884 O   0  0  0  0  0  0  0  0  0  0  0  0
  -26.6114  -25.4108   18.7040 O   0  0  0  0  0  0  0  0  0  1  0  0
  -22.6556   -2.6076   21.2151 F   0  0  0  0  0  0  0  0  0  0  0  0
  -19.6924   -6.2122   22.0101 F   0  0  0  0  0  0  0  0  0  0  0  0
  1  2  1  0  0  0  0
  1  5  2  0  0  0  0
  2  6  2  0  0  0  0
  3  8  2  0  0  0  0
  3 17  1  0  0  0  0
  4  9  1  0  0  0  0
  4 17  2  0  0  0  0
  5 20  1  0  0  0  0
  6 22  1  0  0  0  0
  7 10  2  0  0  0  0
  7 21  1  0  0  0  0
  8 26  1  0  0  0  0
  9 26  2  0  0  0  0
 10 27  1  0  0  0  0
 11 12  2  0  0  0  0
 11 28  1  0  0  0  0
 12 30  1  0  0  0  0
 13 23  1  0  0  0  0
 13 27  2  0  0  0  0
 14 24  1  0  0  0  0
 14 25  2  0  0  0  0
 15 24  2  0  0  0  0
 15 29  1  0  0  0  0
 16 30  2  0  0  0  0
 16 31  1  0  0  0  0
 17 32  1  0  0  0  0
 18 25  1  0  0  0  0
 18 29  2  0  0  0  0
 18 35  1  0  0  0  0
 19 32  1  0  0  0  0
 19 33  2  0  0  0  0
 19 38  1  0  0  0  0
 20 22  2  0  0  0  0
 20 43  1  0  0  0  0
 21 23  2  0  0  0  0
 21 44  1  0  0  0  0
 22 52  1  0  0  0  0
 23 45  1  0  0  0  0
 24 66  1  0  0  0  0
 25 71  1  0  0  0  0
 26 82  1  0  0  0  0
 27 84  1  0  0  0  0
 28 31  2  0  0  0  0
 28 82  1  0  0  0  0
 29 83  1  0  0  0  0
 30 85  1  0  0  0  0
 31 86  1  0  0  0  0
 32 65  2  0  0  0  0
 33 68  1  0  0  0  0
 33 72  1  0  0  0  0
 34 36  2  0  0  0  0
 35 67  2  0  0  0  0
 36 60  1  0  0  0  0
 37 61  1  0  0  0  0
 37 66  2  0  0  0  0
 38 73  1  0  0  0  0
 38 77  2  0  0  0  0
 39 53  1  0  0  0  0
 39 74  1  0  0  0  0
 39 78  2  0  0  0  0
 40 62  1  0  0  0  0
 40 69  1  0  0  0  0
 40 79  2  0  0  0  0
 41 63  1  0  0  0  0
 41 75  1  0  0  0  0
 41 80  2  0  0  0  0
 42 67  1  0  0  0  0
 42 70  1  0  0  0  0
 42 81  2  0  0  0  0
 43 46  1  0  0  0  0
 44 53  1  0  0  0  0
 45 69  1  0  0  0  0
 46 48  1  0  0  0  0
 47 49  1  0  0  0  0
 47 50  1  0  0  0  0
 48 52  1  0  0  0  0
 49 54  1  0  0  0  0
 50 70  1  0  0  0  0
 51 54  1  0  0  0  0
 51 70  1  0  0  0  0
 52 74  1  0  0  0  0
 53 69  1  0  0  0  0
 54 68  1  0  0  0  0
 55 63  1  0  0  0  0
 56 64  1  0  0  0  0
 57 64  1  0  0  0  0
 58 64  1  0  0  0  0
 59 76  1  0  0  0  0
 60 83  1  0  0  0  0
 61 84  1  0  0  0  0
 62 64  1  0  0  0  0
 62 75  1  0  0  0  0
 63 76  1  0  0  0  0
 65 68  1  0  0  0  0
M  CHG  1  76   1
M  ISO  4  42 100  61 101  67 100  84 101
M  END
> <Batch ID>
0112

> <Smiles>
C=CCOc1cc(NC=[101CH:1][101O:1]c2ccc3c(c2)CN(C(=O)C(NC(=O)C(C)NC)C(C)(C)C)C(C(=O)NC2CCCc4ccccc42)C3)cc(N)c1C=[100N:0][100C:0](=O)N1CCCC(n2nc(-c3ccc(Oc4ccc(F)cc4F)cc3)c(C(N)=O)c2N)C1

> <Shape>
0.289

> <Color>
0.126

> <Negative vol penalty>
0.000

$$$$

  -OEChem-04052301313D

 82 90  0     1  0  0  0  0  0999 V2000
  -25.1040  -32.1435   21.7590 C   0  0  0  0  0  0  0  0  0  0  0  0
  -25.2927  -30.7801   21.5567 C   0  0  0  0  0  0  0  0  0  0  0  0
  -22.8147  -11.3496   19.0527 C   0  0  0  0  0  0  0  0  0  0  0  0
  -23.0149  -10.1279   21.1274 C   0  0  0  0  0  0  0  0  0  0  0  0
  -24.0026  -32.5934   22.4861 C   0  0  0  0  0  0  0  0  0  0  0  0
  -24.3806  -29.8656   22.0823 C   0  0  0  0  0  0  0  0  0  0  0  0
  -23.1177  -26.2553   18.7633 C   0  0  0  0  0  0  0  0  0  0  0  0
  -21.7876  -10.4964   18.6493 C   0  0  0  0  0  0  0  0  0  0  0  0
  -21.9878   -9.2747   20.7241 C   0  0  0  0  0  0  0  0  0  0  0  0
  -24.0320  -25.2209   18.5692 C   0  0  0  0  0  0  0  0  0  0  0  0
  -18.4849  -10.1101   19.2624 C   0  0  0  0  0  0  0  0  0  0  0  0
  -17.3479  -10.6867   18.6964 C   0  0  0  0  0  0  0  0  0  0  0  0
  -28.3518  -18.3814   19.8398 C   0  0  0  0  0  0  0  0  0  0  0  0
  -22.7370  -23.8092   20.0353 C   0  0  0  0  0  0  0  0  0  0  0  0
  -17.7282   -9.4397   16.6623 C   0  0  0  0  0  0  0  0  0  0  0  0
  -23.4284  -11.1654   20.2917 C   0  0  0  0  0  0  0  0  0  0  0  0
  -29.7668  -18.3605   19.8617 C   0  0  0  0  0  0  0  0  0  0  0  0
  -24.3629  -13.2487   21.4293 C   0  0  0  0  0  0  0  0  0  0  0  0
  -23.0714  -31.6844   23.0127 C   0  0  0  0  0  0  0  0  0  0  0  0
  -22.0102  -26.0778   19.6050 C   0  0  0  0  0  0  0  0  0  0  0  0
  -23.2665  -30.3037   22.8183 C   0  0  0  0  0  0  0  0  0  0  0  0
  -21.8088  -24.8422   20.2365 C   0  0  0  0  0  0  0  0  0  0  0  0
  -21.3742   -9.4590   19.4850 C   0  0  0  0  0  0  0  0  0  0  0  0
  -23.8433  -23.9986   19.2075 C   0  0  0  0  0  0  0  0  0  0  0  0
  -19.2436   -9.1984   18.5283 C   0  0  0  0  0  0  0  0  0  0  0  0
  -16.9695  -10.3515   17.3964 C   0  0  0  0  0  0  0  0  0  0  0  0
  -18.8652   -8.8632   17.2283 C   0  0  0  0  0  0  0  0  0  0  0  0
  -24.4898  -12.0461   20.7086 C   0  0  0  0  0  0  0  0  0  0  0  0
  -27.9878  -19.7045   19.9341 C   0  0  0  0  0  0  0  0  0  0  0  0
  -30.1667  -19.6723   19.9675 C   0  0  0  0  0  0  0  0  0  0  0  0
  -25.6518  -13.7010   21.5723 C   0  0  0  0  0  0  0  0  0  0  0  0
  -26.6224  -20.2555   19.9532 C   0  0  0  0  0  0  0  0  0  0  0  0
  -26.3143  -21.5566   20.0689 C   0  0  0  0  0  0  0  0  0  0  0  0
  -30.6728  -17.1855   19.7877 C   0  0  0  0  0  0  0  0  0  0  0  0
  -23.1851  -13.8988   21.9253 C   0  0  0  0  0  0  0  0  0  0  0  0
  -20.9939  -27.4381   22.2921 C   0  0  0  0  0  0  0  0  0  0  0  0
  -18.3927  -25.5643   21.7976 C   0  0  0  0  0  0  0  0  0  0  0  0
  -17.0704  -22.7616   20.3681 C   0  0  0  0  0  0  0  0  0  0  0  0
  -30.7109  -14.7220   19.5567 C   0  0  0  0  0  0  0  0  0  0  0  0
  -21.9220  -32.2156   23.8321 C   0  0  0  0  0  0  0  0  0  0  0  0
  -21.0186  -27.1947   19.7829 C   0  0  0  0  0  0  0  0  0  0  0  0
  -20.6250  -24.5939   21.1340 C   0  0  0  0  0  0  0  0  0  0  0  0
  -20.7996  -31.2013   24.0363 C   0  0  0  0  0  0  0  0  0  0  0  0
  -30.0721  -11.4148   20.6298 C   0  0  0  0  0  0  0  0  0  0  0  0
  -21.3713  -29.8474   24.4449 C   0  0  0  0  0  0  0  0  0  0  0  0
  -28.5524  -11.3822   20.8141 C   0  0  0  0  0  0  0  0  0  0  0  0
  -30.4792  -12.2575   19.4219 C   0  0  0  0  0  0  0  0  0  0  0  0
  -28.4098  -13.5809   19.5774 C   0  0  0  0  0  0  0  0  0  0  0  0
  -22.2857  -29.2819   23.3515 C   0  0  1  0  0  0  0  0  0  0  0  0
  -20.2045  -27.0720   21.0672 C   0  0  1  0  0  0  0  0  0  0  0  0
  -27.9529  -12.8027   20.8219 C   0  0  1  0  0  0  0  0  0  0  0  0
  -31.4819  -20.3271   20.0386 C   0  0  0  0  0  0  0  0  0  0  0  0
  -14.9249  -21.4748   20.1727 C   0  0  0  0  0  0  0  0  0  0  0  0
  -18.7746  -24.5018   24.6323 C   0  0  0  0  0  0  0  0  0  0  0  0
  -17.2540  -22.6001   24.0497 C   0  0  0  0  0  0  0  0  0  0  0  0
  -16.3967  -24.9421   23.9947 C   0  0  0  0  0  0  0  0  0  0  0  0
  -17.0002  -23.0995   17.4288 C   0  0  0  0  0  0  0  0  0  0  0  0
  -24.9096  -22.0681   20.0975 C   0  0  0  0  0  0  0  0  0  1  0  0
  -17.9927  -24.1639   22.1950 C   0  0  1  0  0  0  0  0  0  0  0  0
  -15.8081  -22.5464   19.5528 C   0  0  2  0  0  0  0  0  0  0  0  0
  -17.6279  -24.0570   23.7026 C   0  0  0  0  0  0  0  0  0  0  0  0
  -25.7592  -11.7530   20.4141 N   0  0  0  0  0  0  0  0  0  0  0  0
  -26.4417  -12.7780   20.9524 N   0  0  0  0  0  0  0  0  0  0  0  0
  -19.6870  -25.7190   21.2813 N   0  0  0  0  0  0  0  0  0  0  0  0
  -29.8789  -13.5898   19.5098 N   0  0  0  0  0  0  0  0  0  0  0  0
  -26.1753  -14.7944   22.1664 N   0  0  0  0  0  0  0  0  0  0  0  0
  -21.9410  -13.2975   21.6904 N   0  0  0  0  0  0  0  0  0  0  0  0
  -30.0429  -15.9450   19.6834 N   0  0  0  0  0  0  0  0  0  0  0  0
  -21.4985  -28.7244   22.2727 N   0  0  0  0  0  0  0  0  0  0  0  0
  -16.9161  -23.7747   21.2906 N   0  0  0  0  0  0  0  0  0  0  0  0
  -16.1530  -22.1264   18.1652 N   0  3  0  0  0  0  0  0  0  0  0  0
  -31.8874  -17.3662   19.7822 O   0  0  0  0  0  0  0  0  0  0  0  0
  -23.2331  -14.9891   22.5437 O   0  0  0  0  0  0  0  0  0  0  0  0
  -21.1337  -26.6149   23.1891 O   0  0  0  0  0  0  0  0  0  0  0  0
  -17.5839  -26.4857   21.9335 O   0  0  0  0  0  0  0  0  0  0  0  0
  -18.0901  -22.0950   20.2056 O   0  0  0  0  0  0  0  0  0  0  0  0
  -31.9434  -14.6482   19.5271 O   0  0  0  0  0  0  0  0  0  0  0  0
  -29.0882  -20.4979   20.0121 O   0  0  0  0  0  0  0  0  0  0  0  0
  -20.3718   -8.6263   19.0919 O   0  0  0  0  0  0  0  0  0  0  0  0
  -24.7346  -22.9874   19.0202 O   0  0  0  0  0  0  0  0  0  1  0  0
  -15.8767  -10.9040   16.8535 F   0  0  0  0  0  0  0  0  0  0  0  0
  -19.5895   -7.9871   16.5185 F   0  0  0  0  0  0  0  0  0  0  0  0
  1  2  1  0  0  0  0
  1  5  2  0  0  0  0
  2  6  2  0  0  0  0
  3  8  2  0  0  0  0
  3 16  1  0  0  0  0
  4  9  1  0  0  0  0
  4 16  2  0  0  0  0
  5 19  1  0  0  0  0
  6 21  1  0  0  0  0
  7 10  2  0  0  0  0
  7 20  1  0  0  0  0
  8 23  1  0  0  0  0
  9 23  2  0  0  0  0
 10 24  1  0  0  0  0
 11 12  2  0  0  0  0
 11 25  1  0  0  0  0
 12 26  1  0  0  0  0
 13 17  1  0  0  0  0
 13 29  2  0  0  0  0
 14 22  1  0  0  0  0
 14 24  2  0  0  0  0
 15 26  2  0  0  0  0
 15 27  1  0  0  0  0
 16 28  1  0  0  0  0
 17 30  2  0  0  0  0
 17 34  1  0  0  0  0
 18 28  1  0  0  0  0
 18 31  2  0  0  0  0
 18 35  1  0  0  0  0
 19 21  2  0  0  0  0
 19 40  1  0  0  0  0
 20 22  2  0  0  0  0
 20 41  1  0  0  0  0
 21 49  1  0  0  0  0
 22 42  1  0  0  0  0
 23 79  1  0  0  0  0
 24 80  1  0  0  0  0
 25 27  2  0  0  0  0
 25 79  1  0  0  0  0
 26 81  1  0  0  0  0
 27 82  1  0  0  0  0
 28 62  2  0  0  0  0
 29 32  1  0  0  0  0
 29 78  1  0  0  0  0
 30 52  1  0  0  0  0
 30 78  1  0  0  0  0
 31 63  1  0  0  0  0
 31 66  1  0  0  0  0
 32 33  2  0  0  0  0
 33 58  1  0  0  0  0
 34 68  1  0  0  0  0
 34 72  2  0  0  0  0
 35 67  1  0  0  0  0
 35 73  2  0  0  0  0
 36 50  1  0  0  0  0
 36 69  1  0  0  0  0
 36 74  2  0  0  0  0
 37 59  1  0  0  0  0
 37 64  1  0  0  0  0
 37 75  2  0  0  0  0
 38 60  1  0  0  0  0
 38 70  1  0  0  0  0
 38 76  2  0  0  0  0
 39 65  1  0  0  0  0
 39 68  1  0  0  0  0
 39 77  2  0  0  0  0
 40 43  1  0  0  0  0
 41 50  1  0  0  0  0
 42 64  1  0  0  0  0
 43 45  1  0  0  0  0
 44 46  1  0  0  0  0
 44 47  1  0  0  0  0
 45 49  1  0  0  0  0
 46 51  1  0  0  0  0
 47 65  1  0  0  0  0
 48 51  1  0  0  0  0
 48 65  1  0  0  0  0
 49 69  1  0  0  0  0
 50 64  1  0  0  0  0
 51 63  1  0  0  0  0
 53 60  1  0  0  0  0
 54 61  1  0  0  0  0
 55 61  1  0  0  0  0
 56 61  1  0  0  0  0
 57 71  1  0  0  0  0
 58 80  1  0  0  0  0
 59 61  1  0  0  0  0
 59 70  1  0  0  0  0
 60 71  1  0  0  0  0
 62 63  1  0  0  0  0
M  CHG  1  71   1
M  ISO  4  39 100  58 101  68 100  80 101
M  END
> <Batch ID>
0112

> <Smiles>
CNC(C)C(=O)NC(C(=O)N1Cc2cc([101O:1][101CH2:1]C=Cc3cc(C(=O)[100NH:0][100C:0](=O)N4CCCC(n5nc(-c6ccc(Oc7ccc(F)cc7F)cc6)c(C(N)=O)c5N)C4)c(C)o3)ccc2CC1C(=O)NC1CCCc2ccccc21)C(C)(C)C

> <Shape>
0.233

> <Color>
0.114

> <Negative vol penalty>
0.000

$$$$

  -OEChem-04052301313D

 90 98  0     1  0  0  0  0  0999 V2000
  -27.4209  -24.1480   17.3068 C   0  0  0  0  0  0  0  0  0  0  0  0
  -26.2352  -24.5561   17.9092 C   0  0  0  0  0  0  0  0  0  0  0  0
  -26.6038  -13.0423   19.7372 C   0  0  0  0  0  0  0  0  0  0  0  0
  -24.3184  -13.5659   20.3201 C   0  0  0  0  0  0  0  0  0  0  0  0
  -28.6458  -24.4988   17.8728 C   0  0  0  0  0  0  0  0  0  0  0  0
  -26.2737  -25.3144   19.0788 C   0  0  0  0  0  0  0  0  0  0  0  0
  -23.0453  -29.2145   18.9727 C   0  0  0  0  0  0  0  0  0  0  0  0
  -26.5148  -11.8513   20.4578 C   0  0  0  0  0  0  0  0  0  0  0  0
  -24.2293  -12.3749   21.0407 C   0  0  0  0  0  0  0  0  0  0  0  0
  -21.7000  -28.9340   19.2075 C   0  0  0  0  0  0  0  0  0  0  0  0
  -23.7791   -9.0919   20.3772 C   0  0  0  0  0  0  0  0  0  0  0  0
  -22.6337   -8.3152   20.2034 C   0  0  0  0  0  0  0  0  0  0  0  0
  -20.8086  -22.2726   21.8637 C   0  0  0  0  0  0  0  0  0  0  0  0
  -21.9485  -29.6802   21.4879 C   0  0  0  0  0  0  0  0  0  0  0  0
  -23.4069  -23.2758   21.7053 C   0  0  0  0  0  0  0  0  0  0  0  0
  -22.1359   -8.5222   22.5585 C   0  0  0  0  0  0  0  0  0  0  0  0
  -25.5057  -13.8996   19.6684 C   0  0  0  0  0  0  0  0  0  0  0  0
  -21.0570  -23.6143   22.1532 C   0  0  0  0  0  0  0  0  0  0  0  0
  -25.2947  -15.3257   17.5638 C   0  0  0  0  0  0  0  0  0  0  0  0
  -28.6995  -25.2700   19.0446 C   0  0  0  0  0  0  0  0  0  0  0  0
  -23.8564  -29.7206   19.9986 C   0  0  0  0  0  0  0  0  0  0  0  0
  -27.5005  -25.6747   19.6618 C   0  0  0  0  0  0  0  0  0  0  0  0
  -23.3032  -29.9687   21.2629 C   0  0  0  0  0  0  0  0  0  0  0  0
  -23.1585  -21.9341   21.4159 C   0  0  0  0  0  0  0  0  0  0  0  0
  -25.3275  -11.5176   21.1095 C   0  0  0  0  0  0  0  0  0  0  0  0
  -21.1521  -29.1641   20.4660 C   0  0  0  0  0  0  0  0  0  0  0  0
  -24.1031   -9.5838   21.6417 C   0  0  0  0  0  0  0  0  0  0  0  0
  -21.8594  -21.4325   21.4951 C   0  0  0  0  0  0  0  0  0  0  0  0
  -22.3562  -24.1159   22.0739 C   0  0  0  0  0  0  0  0  0  0  0  0
  -21.8121   -8.0304   21.2940 C   0  0  0  0  0  0  0  0  0  0  0  0
  -23.2814   -9.2989   22.7323 C   0  0  0  0  0  0  0  0  0  0  0  0
  -25.5972  -15.1303   18.9247 C   0  0  0  0  0  0  0  0  0  0  0  0
  -25.5433  -16.6586   17.3447 C   0  0  0  0  0  0  0  0  0  0  0  0
  -16.8474  -27.5263   20.7131 C   0  0  0  0  0  0  0  0  0  0  0  0
  -18.4982  -26.0242   21.5933 C   0  0  0  0  0  0  0  0  0  0  0  0
  -19.9189  -24.4952   22.5453 C   0  0  0  0  0  0  0  0  0  0  0  0
  -24.8304  -14.3863   16.5852 C   0  0  0  0  0  0  0  0  0  0  0  0
  -18.1483  -27.1875   20.7262 C   0  0  0  0  0  0  0  0  0  0  0  0
  -26.4580  -28.6984   21.5120 C   0  0  0  0  0  0  0  0  0  0  0  0
  -26.3404  -31.6361   22.8827 C   0  0  0  0  0  0  0  0  0  0  0  0
  -24.4665  -34.3480   23.7662 C   0  0  0  0  0  0  0  0  0  0  0  0
  -25.5798  -21.4460   20.9203 C   0  0  0  0  0  0  0  0  0  0  0  0
  -30.0465  -25.5846   19.6455 C   0  0  0  0  0  0  0  0  0  0  0  0
  -25.2992  -30.0431   19.7218 C   0  0  0  0  0  0  0  0  0  0  0  0
  -24.1264  -30.5302   22.3924 C   0  0  0  0  0  0  0  0  0  0  0  0
  -30.0052  -26.7071   20.6792 C   0  0  0  0  0  0  0  0  0  0  0  0
  -28.2742  -20.2660   18.9142 C   0  0  0  0  0  0  0  0  0  0  0  0
  -28.8482  -26.4961   21.6505 C   0  0  0  0  0  0  0  0  0  0  0  0
  -27.8631  -18.8349   18.5603 C   0  0  0  0  0  0  0  0  0  0  0  0
  -27.8567  -20.6411   20.3350 C   0  0  0  0  0  0  0  0  0  0  0  0
  -26.0263  -18.9929   20.2889 C   0  0  0  0  0  0  0  0  0  0  0  0
  -27.5014  -26.5193   20.9176 C   0  0  1  0  0  0  0  0  0  0  0  0
  -26.1575  -30.0722   20.9827 C   0  0  1  0  0  0  0  0  0  0  0  0
  -26.3680  -18.5914   18.8447 C   0  0  2  0  0  0  0  0  0  0  0  0
  -16.2143  -28.6465   19.9513 C   0  0  0  0  0  0  0  0  0  0  0  0
  -21.0652  -18.5463   19.4963 C   0  0  0  0  0  0  0  0  0  0  0  0
  -24.6415  -36.5762   24.9073 C   0  0  0  0  0  0  0  0  0  0  0  0
  -26.4376  -30.2378   25.5929 C   0  0  0  0  0  0  0  0  0  0  0  0
  -25.6628  -32.3737   26.6445 C   0  0  0  0  0  0  0  0  0  0  0  0
  -27.8419  -32.3009   25.4326 C   0  0  0  0  0  0  0  0  0  0  0  0
  -23.6224  -35.7942   21.3260 C   0  0  0  0  0  0  0  0  0  0  0  0
  -22.9336  -25.7469   23.7056 C   0  0  0  0  0  0  0  0  0  0  0  0
  -19.2534  -27.8310   19.9429 C   0  0  0  0  0  0  0  0  0  1  0  0
  -20.6899  -19.8606   20.1471 C   0  0  0  0  0  0  0  0  0  0  0  0
  -25.6867  -32.2161   24.1136 C   0  0  1  0  0  0  0  0  0  0  0  0
  -24.6984  -35.8366   23.5797 C   0  0  2  0  0  0  0  0  0  0  0  0
  -26.3919  -31.7697   25.4254 C   0  0  0  0  0  0  0  0  0  0  0  0
  -26.0069  -16.2495   19.5277 N   0  0  0  0  0  0  0  0  0  0  0  0
  -19.7050  -25.5757   21.7170 N   0  0  0  0  0  0  0  0  0  0  0  0
  -25.9636  -17.1610   18.5410 N   0  0  0  0  0  0  0  0  0  0  0  0
  -25.5336  -30.8232   22.0739 N   0  0  0  0  0  0  0  0  0  0  0  0
  -26.4275  -20.3878   20.5299 N   0  0  0  0  0  0  0  0  0  0  0  0
  -25.4413  -17.4382   16.2473 N   0  0  0  0  0  0  0  0  0  0  0  0
  -24.6270  -13.0567   16.9791 N   0  0  0  0  0  0  0  0  0  0  0  0
  -24.2362  -21.0932   21.0429 N   0  0  0  0  0  0  0  0  0  0  0  0
  -27.1151  -27.8803   20.6129 N   0  0  0  0  0  0  0  0  0  0  0  0
  -25.6527  -33.6611   23.9153 N   0  0  0  0  0  0  0  0  0  0  0  0
  -23.6629  -36.4129   22.6760 N   0  3  0  0  0  0  0  0  0  0  0  0
  -19.2671  -24.2085   23.5457 O   0  0  0  0  0  0  0  0  0  0  0  0
  -24.6182  -14.7126   15.3927 O   0  0  0  0  0  0  0  0  0  0  0  0
  -26.1201  -28.4031   22.6524 O   0  0  0  0  0  0  0  0  0  0  0  0
  -27.5214  -31.9004   22.6437 O   0  0  0  0  0  0  0  0  0  0  0  0
  -23.3450  -33.8454   23.7821 O   0  0  0  0  0  0  0  0  0  0  0  0
  -26.0094  -22.5877   21.1041 O   0  0  0  0  0  0  0  0  0  0  0  0
  -25.2402  -10.3554   21.8125 O   0  0  0  0  0  0  0  0  0  0  0  0
  -22.6191  -25.4238   22.3528 O   0  0  0  0  0  0  0  0  0  0  0  0
  -19.8394  -28.8906   20.6980 O   0  0  0  0  0  0  0  0  0  1  0  0
  -21.5954  -20.1245   21.2164 O   0  0  0  0  0  0  0  0  0  0  0  0
  -20.7113   -7.2858   21.1266 F   0  0  0  0  0  0  0  0  0  0  0  0
  -23.5868   -9.7696   23.9493 F   0  0  0  0  0  0  0  0  0  0  0  0
  1  2  1  0  0  0  0
  1  5  2  0  0  0  0
  2  6  2  0  0  0  0
  3  8  2  0  0  0  0
  3 17  1  0  0  0  0
  4  9  1  0  0  0  0
  4 17  2  0  0  0  0
  5 20  1  0  0  0  0
  6 22  1  0  0  0  0
  7 10  2  0  0  0  0
  7 21  1  0  0  0  0
  8 25  1  0  0  0  0
  9 25  2  0  0  0  0
 10 26  1  0  0  0  0
 11 12  2  0  0  0  0
 11 27  1  0  0  0  0
 12 30  1  0  0  0  0
 13 18  1  0  0  0  0
 13 28  2  0  0  0  0
 14 23  1  0  0  0  0
 14 26  2  0  0  0  0
 15 24  2  0  0  0  0
 15 29  1  0  0  0  0
 16 30  2  0  0  0  0
 16 31  1  0  0  0  0
 17 32  1  0  0  0  0
 18 29  2  0  0  0  0
 18 36  1  0  0  0  0
 19 32  1  0  0  0  0
 19 33  2  0  0  0  0
 19 37  1  0  0  0  0
 20 22  2  0  0  0  0
 20 43  1  0  0  0  0
 21 23  2  0  0  0  0
 21 44  1  0  0  0  0
 22 52  1  0  0  0  0
 23 45  1  0  0  0  0
 24 28  1  0  0  0  0
 24 75  1  0  0  0  0
 25 85  1  0  0  0  0
 26 87  1  0  0  0  0
 27 31  2  0  0  0  0
 27 85  1  0  0  0  0
 28 88  1  0  0  0  0
 29 86  1  0  0  0  0
 30 89  1  0  0  0  0
 31 90  1  0  0  0  0
 32 68  2  0  0  0  0
 33 70  1  0  0  0  0
 33 73  1  0  0  0  0
 34 38  2  0  0  0  0
 34 55  1  0  0  0  0
 35 38  1  0  0  0  0
 35 69  2  0  0  0  0
 36 69  1  0  0  0  0
 36 79  2  0  0  0  0
 37 74  1  0  0  0  0
 37 80  2  0  0  0  0
 38 63  1  0  0  0  0
 39 53  1  0  0  0  0
 39 76  1  0  0  0  0
 39 81  2  0  0  0  0
 40 65  1  0  0  0  0
 40 71  1  0  0  0  0
 40 82  2  0  0  0  0
 41 66  1  0  0  0  0
 41 77  1  0  0  0  0
 41 83  2  0  0  0  0
 42 72  1  0  0  0  0
 42 75  1  0  0  0  0
 42 84  2  0  0  0  0
 43 46  1  0  0  0  0
 44 53  1  0  0  0  0
 45 71  1  0  0  0  0
 46 48  1  0  0  0  0
 47 49  1  0  0  0  0
 47 50  1  0  0  0  0
 48 52  1  0  0  0  0
 49 54  1  0  0  0  0
 50 72  1  0  0  0  0
 51 54  1  0  0  0  0
 51 72  1  0  0  0  0
 52 76  1  0  0  0  0
 53 71  1  0  0  0  0
 54 70  1  0  0  0  0
 56 64  1  0  0  0  0
 57 66  1  0  0  0  0
 58 67  1  0  0  0  0
 59 67  1  0  0  0  0
 60 67  1  0  0  0  0
 61 78  1  0  0  0  0
 62 86  1  0  0  0  0
 63 87  1  0  0  0  0
 64 88  1  0  0  0  0
 65 67  1  0  0  0  0
 65 77  1  0  0  0  0
 66 78  1  0  0  0  0
 68 70  1  0  0  0  0
M  CHG  1  78   1
M  ISO  4  42 100  63 101  75 100  87 101
M  END
> <Batch ID>
0112

> <Smiles>
C=CC(C=NC(=O)c1cc(OCC)c([100NH:0][100C:0](=O)N2CCCC(n3nc(-c4ccc(Oc5ccc(F)cc5F)cc4)c(C(N)=O)c3N)C2)cc1OC)[101CH2:1][101O:1]c1ccc2c(c1)CN(C(=O)C(NC(=O)C(C)NC)C(C)(C)C)C(C(=O)NC1CCCc3ccccc31)C2

> <Shape>
0.290

> <Color>
0.081

> <Negative vol penalty>
0.000

$$$$

  -OEChem-04052301313D

 95105  0     1  0  0  0  0  0999 V2000
  -26.0714  -37.8071   21.6187 C   0  0  0  0  0  0  0  0  0  0  0  0
  -26.3480  -36.8452   20.6523 C   0  0  0  0  0  0  0  0  0  0  0  0
  -23.0078  -10.5333   20.2825 C   0  0  0  0  0  0  0  0  0  0  0  0
  -24.5597   -9.5668   21.8620 C   0  0  0  0  0  0  0  0  0  0  0  0
  -26.0821  -37.4601   22.9690 C   0  0  0  0  0  0  0  0  0  0  0  0
  -26.6364  -35.5360   21.0359 C   0  0  0  0  0  0  0  0  0  0  0  0
  -25.8314  -28.7672   18.8332 C   0  0  0  0  0  0  0  0  0  0  0  0
  -21.9674   -9.8046   20.8588 C   0  0  0  0  0  0  0  0  0  0  0  0
  -23.5193   -8.8381   22.4383 C   0  0  0  0  0  0  0  0  0  0  0  0
  -26.5779  -27.6108   18.6110 C   0  0  0  0  0  0  0  0  0  0  0  0
  -21.7689   -6.0275   21.7543 C   0  0  0  0  0  0  0  0  0  0  0  0
  -21.9999   -4.6815   22.0377 C   0  0  0  0  0  0  0  0  0  0  0  0
  -26.4898  -27.1083   20.9687 C   0  0  0  0  0  0  0  0  0  0  0  0
  -28.5119  -20.2994   16.0608 C   0  0  0  0  0  0  0  0  0  0  0  0
  -28.9654  -19.3542   18.2376 C   0  0  0  0  0  0  0  0  0  0  0  0
  -21.5687   -5.1003   24.3778 C   0  0  0  0  0  0  0  0  0  0  0  0
  -24.3040  -10.4144   20.7841 C   0  0  0  0  0  0  0  0  0  0  0  0
  -25.8246  -11.1027   18.8549 C   0  0  0  0  0  0  0  0  0  0  0  0
  -26.3613  -36.1437   23.3688 C   0  0  0  0  0  0  0  0  0  0  0  0
  -25.4171  -29.1091   20.1285 C   0  0  0  0  0  0  0  0  0  0  0  0
  -26.6522  -35.1714   22.3929 C   0  0  0  0  0  0  0  0  0  0  0  0
  -25.7360  -28.2682   21.2043 C   0  0  0  0  0  0  0  0  0  0  0  0
  -28.1689  -19.0346   15.5831 C   0  0  0  0  0  0  0  0  0  0  0  0
  -28.9102  -20.4592   17.3881 C   0  0  0  0  0  0  0  0  0  0  0  0
  -28.6223  -18.0894   17.7598 C   0  0  0  0  0  0  0  0  0  0  0  0
  -22.2231   -8.9570   21.9367 C   0  0  0  0  0  0  0  0  0  0  0  0
  -26.9097  -26.7827   19.6793 C   0  0  0  0  0  0  0  0  0  0  0  0
  -21.4379   -6.9100   22.7826 C   0  0  0  0  0  0  0  0  0  0  0  0
  -28.2241  -17.9296   16.4326 C   0  0  0  0  0  0  0  0  0  0  0  0
  -21.8998   -4.2178   23.3494 C   0  0  0  0  0  0  0  0  0  0  0  0
  -21.3377   -6.4464   24.0943 C   0  0  0  0  0  0  0  0  0  0  0  0
  -25.3793  -11.1665   20.1888 C   0  0  0  0  0  0  0  0  0  0  0  0
  -26.8595  -12.0037   18.7949 C   0  0  0  0  0  0  0  0  0  0  0  0
  -28.8577  -24.1250   18.0752 C   0  0  0  0  0  0  0  0  0  0  0  0
  -28.4012  -22.8615   17.8971 C   0  0  0  0  0  0  0  0  0  0  0  0
  -30.3401  -24.3307   18.1989 C   0  0  0  0  0  0  0  0  0  0  0  0
  -28.6515  -17.1270   12.5893 C   0  0  0  0  0  0  0  0  0  0  0  0
  -25.3456  -10.3007   17.7672 C   0  0  0  0  0  0  0  0  0  0  0  0
  -25.9595  -31.5550   22.0848 C   0  0  0  0  0  0  0  0  0  0  0  0
  -23.7431  -30.0677   23.9281 C   0  0  0  0  0  0  0  0  0  0  0  0
  -22.1433  -27.1721   24.7664 C   0  0  0  0  0  0  0  0  0  0  0  0
  -29.0603  -16.9795   19.9786 C   0  0  0  0  0  0  0  0  0  0  0  0
  -26.4077  -35.8271   24.8427 C   0  0  0  0  0  0  0  0  0  0  0  0
  -24.5897  -30.3459   20.3477 C   0  0  0  0  0  0  0  0  0  0  0  0
  -25.2981  -28.5798   22.6113 C   0  0  0  0  0  0  0  0  0  0  0  0
  -31.2527  -23.1480   17.9812 C   0  0  0  0  0  0  0  0  0  0  0  0
  -29.9284  -16.9663   11.7981 C   0  0  0  0  0  0  0  0  0  0  0  0
  -26.3546  -34.3320   25.1464 C   0  0  0  0  0  0  0  0  0  0  0  0
  -30.9129  -17.8692   12.5316 C   0  0  0  0  0  0  0  0  0  0  0  0
  -29.3057  -14.4606   22.4830 C   0  0  0  0  0  0  0  0  0  0  0  0
  -27.3212  -33.5696   24.2456 C   0  0  0  0  0  0  0  0  0  0  0  0
  -28.3427  -13.3738   21.9996 C   0  0  0  0  0  0  0  0  0  0  0  0
  -30.6099  -21.8495   18.4363 C   0  0  0  0  0  0  0  0  0  0  0  0
  -30.0401  -18.9639   13.1118 C   0  0  0  0  0  0  0  0  0  0  0  0
  -28.7778  -15.8618   22.1799 C   0  0  0  0  0  0  0  0  0  0  0  0
  -27.4397  -15.0076   20.2960 C   0  0  0  0  0  0  0  0  0  0  0  0
  -26.9453  -33.7349   22.7682 C   0  0  1  0  0  0  0  0  0  0  0  0
  -24.6597  -30.8655   21.7803 C   0  0  1  0  0  0  0  0  0  0  0  0
  -27.9588  -13.5780   20.5210 C   0  0  2  0  0  0  0  0  0  0  0  0
  -26.9091  -22.5992   17.8304 C   0  0  0  0  0  0  0  0  0  0  0  0
  -20.4083  -26.2632   26.3352 C   0  0  0  0  0  0  0  0  0  0  0  0
  -25.7646  -30.1575   26.2118 C   0  0  0  0  0  0  0  0  0  0  0  0
  -24.3868  -28.4418   27.4061 C   0  0  0  0  0  0  0  0  0  0  0  0
  -23.4114  -30.6768   26.8805 C   0  0  0  0  0  0  0  0  0  0  0  0
  -20.3930  -26.3358   22.5312 C   0  0  0  0  0  0  0  0  0  0  0  0
  -26.5215  -16.3079   16.0762 C   0  0  0  0  0  0  0  0  0  0  0  0
  -27.7460  -18.8839   14.1589 C   0  0  0  0  0  0  0  0  0  0  0  0
  -28.0306  -25.3786   18.1210 C   0  0  0  0  0  0  0  0  0  1  0  0
  -23.7843  -29.0164   25.0107 C   0  0  1  0  0  0  0  0  0  0  0  0
  -20.6715  -26.8538   24.9587 C   0  0  2  0  0  0  0  0  0  0  0  0
  -24.3468  -29.5680   26.3512 C   0  0  0  0  0  0  0  0  0  0  0  0
  -26.0744  -12.0390   20.9233 N   0  0  0  0  0  0  0  0  0  0  0  0
  -26.9671  -12.5317   20.0479 N   0  0  0  0  0  0  0  0  0  0  0  0
  -29.2589  -21.7460   17.8735 N   0  0  0  0  0  0  0  0  0  0  0  0
  -28.7816  -18.2939   13.3388 N   0  0  0  0  0  0  0  0  0  0  0  0
  -24.4963  -29.8037   22.7753 N   0  0  0  0  0  0  0  0  0  0  0  0
  -28.4389  -15.9827   20.7603 N   0  0  0  0  0  0  0  0  0  0  0  0
  -27.6788  -12.3880   17.7932 N   0  0  0  0  0  0  0  0  0  0  0  0
  -25.9158   -9.0360   17.5679 N   0  0  0  0  0  0  0  0  0  0  0  0
  -28.6838  -16.9774   18.6359 N   0  0  0  0  0  0  0  0  0  0  0  0
  -25.8226  -32.8849   22.4341 N   0  0  0  0  0  0  0  0  0  0  0  0
  -22.4324  -28.4765   25.1071 N   0  0  0  0  0  0  0  0  0  0  0  0
  -20.2148  -25.8747   23.9321 N   0  3  0  0  0  0  0  0  0  0  0  0
  -30.8056  -25.4489   18.4177 O   0  0  0  0  0  0  0  0  0  0  0  0
  -27.6903  -16.3759   12.5188 O   0  0  0  0  0  0  0  0  0  0  0  0
  -24.4502  -10.7006   16.9850 O   0  0  0  0  0  0  0  0  0  0  0  0
  -27.0089  -30.9265   22.0098 O   0  0  0  0  0  0  0  0  0  0  0  0
  -23.0619  -31.0823   24.0959 O   0  0  0  0  0  0  0  0  0  0  0  0
  -22.9559  -26.3451   24.3586 O   0  0  0  0  0  0  0  0  0  0  0  0
  -29.8874  -17.7589   20.4586 O   0  0  0  0  0  0  0  0  0  0  0  0
  -21.2081   -8.2459   22.4994 O   0  0  0  0  0  0  0  0  0  0  0  0
  -27.8887  -16.6937   15.9615 O   0  0  0  0  0  0  0  0  0  0  0  0
  -27.6388  -25.6537   19.4653 O   0  0  0  0  0  0  0  0  0  1  0  0
  -22.1201   -2.9249   23.6213 F   0  0  0  0  0  0  0  0  0  0  0  0
  -21.0189   -7.2892   25.0862 F   0  0  0  0  0  0  0  0  0  0  0  0
  1  2  1  0  0  0  0
  1  5  2  0  0  0  0
  2  6  2  0  0  0  0
  3  8  2  0  0  0  0
  3 17  1  0  0  0  0
  4  9  1  0  0  0  0
  4 17  2  0  0  0  0
  5 19  1  0  0  0  0
  6 21  1  0  0  0  0
  7 10  2  0  0  0  0
  7 20  1  0  0  0  0
  8 26  1  0  0  0  0
  9 26  2  0  0  0  0
 10 27  1  0  0  0  0
 11 12  2  0  0  0  0
 11 28  1  0  0  0  0
 12 30  1  0  0  0  0
 13 22  1  0  0  0  0
 13 27  2  0  0  0  0
 14 23  2  0  0  0  0
 14 24  1  0  0  0  0
 15 24  2  0  0  0  0
 15 25  1  0  0  0  0
 16 30  2  0  0  0  0
 16 31  1  0  0  0  0
 17 32  1  0  0  0  0
 18 32  1  0  0  0  0
 18 33  2  0  0  0  0
 18 38  1  0  0  0  0
 19 21  2  0  0  0  0
 19 43  1  0  0  0  0
 20 22  2  0  0  0  0
 20 44  1  0  0  0  0
 21 57  1  0  0  0  0
 22 45  1  0  0  0  0
 23 29  1  0  0  0  0
 23 67  1  0  0  0  0
 24 74  1  0  0  0  0
 25 29  2  0  0  0  0
 25 80  1  0  0  0  0
 26 91  1  0  0  0  0
 27 93  1  0  0  0  0
 28 31  2  0  0  0  0
 28 91  1  0  0  0  0
 29 92  1  0  0  0  0
 30 94  1  0  0  0  0
 31 95  1  0  0  0  0
 32 72  2  0  0  0  0
 33 73  1  0  0  0  0
 33 78  1  0  0  0  0
 34 35  2  0  0  0  0
 34 36  1  0  0  0  0
 34 68  1  0  0  0  0
 35 60  1  0  0  0  0
 35 74  1  0  0  0  0
 36 46  1  0  0  0  0
 36 84  2  0  0  0  0
 37 47  1  0  0  0  0
 37 75  1  0  0  0  0
 37 85  2  0  0  0  0
 38 79  1  0  0  0  0
 38 86  2  0  0  0  0
 39 58  1  0  0  0  0
 39 81  1  0  0  0  0
 39 87  2  0  0  0  0
 40 69  1  0  0  0  0
 40 76  1  0  0  0  0
 40 88  2  0  0  0  0
 41 70  1  0  0  0  0
 41 82  1  0  0  0  0
 41 89  2  0  0  0  0
 42 77  1  0  0  0  0
 42 80  1  0  0  0  0
 42 90  2  0  0  0  0
 43 48  1  0  0  0  0
 44 58  1  0  0  0  0
 45 76  1  0  0  0  0
 46 53  1  0  0  0  0
 47 49  1  0  0  0  0
 48 51  1  0  0  0  0
 49 54  1  0  0  0  0
 50 52  1  0  0  0  0
 50 55  1  0  0  0  0
 51 57  1  0  0  0  0
 52 59  1  0  0  0  0
 53 74  1  0  0  0  0
 54 75  1  0  0  0  0
 55 77  1  0  0  0  0
 56 59  1  0  0  0  0
 56 77  1  0  0  0  0
 57 81  1  0  0  0  0
 58 76  1  0  0  0  0
 59 73  1  0  0  0  0
 61 70  1  0  0  0  0
 62 71  1  0  0  0  0
 63 71  1  0  0  0  0
 64 71  1  0  0  0  0
 65 83  1  0  0  0  0
 66 92  1  0  0  0  0
 67 75  1  0  0  0  0
 68 93  1  0  0  0  0
 69 71  1  0  0  0  0
 69 82  1  0  0  0  0
 70 83  1  0  0  0  0
 72 73  1  0  0  0  0
M  CHG  1  83   1
M  ISO  4  42 100  68 101  80 100  93 101
M  END
> <Batch ID>
0112

> <Smiles>
CNC(C)C(=O)NC(C(=O)N1Cc2cc([101O:1][101CH2:1]C3=C(C)N(c4cc(CN5CCCC5=O)c(OC)c([100NH:0][100C:0](=O)N5CCCC(n6nc(-c7ccc(Oc8ccc(F)cc8F)cc7)c(C(N)=O)c6N)C5)c4)CCC3=O)ccc2CC1C(=O)NC1CCCc2ccccc21)C(C)(C)C

> <Shape>
0.313

> <Color>
0.093

> <Negative vol penalty>
0.000

$$$$

  -OEChem-04052301313D

 90 99  0     1  0  0  0  0  0999 V2000
  -27.6102  -32.3112   27.5634 C   0  0  0  0  0  0  0  0  0  0  0  0
  -27.8116  -31.2742   26.6581 C   0  0  0  0  0  0  0  0  0  0  0  0
  -26.1706  -13.9663   20.5951 C   0  0  0  0  0  0  0  0  0  0  0  0
  -23.7743  -13.9222   20.9002 C   0  0  0  0  0  0  0  0  0  0  0  0
  -26.2600  -22.7308   18.4245 C   0  0  0  0  0  0  0  0  0  0  0  0
  -26.3174  -32.7579   27.8336 C   0  0  0  0  0  0  0  0  0  0  0  0
  -26.7201  -30.6826   26.0233 C   0  0  0  0  0  0  0  0  0  0  0  0
  -27.4937  -29.9960   21.0660 C   0  0  0  0  0  0  0  0  0  0  0  0
  -27.4500  -23.2052   18.9763 C   0  0  0  0  0  0  0  0  0  0  0  0
  -26.1466  -12.6251   20.2128 C   0  0  0  0  0  0  0  0  0  0  0  0
  -23.7503  -12.5810   20.5179 C   0  0  0  0  0  0  0  0  0  0  0  0
  -28.2895  -28.9149   20.6895 C   0  0  0  0  0  0  0  0  0  0  0  0
  -24.4344   -9.5794   21.9156 C   0  0  0  0  0  0  0  0  0  0  0  0
  -23.6688   -8.7007   22.6819 C   0  0  0  0  0  0  0  0  0  0  0  0
  -26.3059  -27.6401   20.1801 C   0  0  0  0  0  0  0  0  0  0  0  0
  -28.5815  -21.1918   18.2668 C   0  0  0  0  0  0  0  0  0  0  0  0
  -22.3369   -8.1660   20.7383 C   0  0  0  0  0  0  0  0  0  0  0  0
  -24.9844  -14.6149   20.9389 C   0  0  0  0  0  0  0  0  0  0  0  0
  -26.2307  -21.4869   17.7940 C   0  0  0  0  0  0  0  0  0  0  0  0
  -25.7020  -16.5613   22.4235 C   0  0  0  0  0  0  0  0  0  0  0  0
  -25.2102  -32.1780   27.1945 C   0  0  0  0  0  0  0  0  0  0  0  0
  -26.0955  -29.9033   21.0126 C   0  0  0  0  0  0  0  0  0  0  0  0
  -25.4111  -31.1211   26.2862 C   0  0  0  0  0  0  0  0  0  0  0  0
  -25.4947  -28.7223   20.5541 C   0  0  0  0  0  0  0  0  0  0  0  0
  -27.3914  -20.7174   17.7151 C   0  0  0  0  0  0  0  0  0  0  0  0
  -28.6107  -22.4357   18.8974 C   0  0  0  0  0  0  0  0  0  0  0  0
  -24.9365  -11.9324   20.1742 C   0  0  0  0  0  0  0  0  0  0  0  0
  -27.6956  -27.7357   20.2492 C   0  0  0  0  0  0  0  0  0  0  0  0
  -24.1512   -9.7515   20.5606 C   0  0  0  0  0  0  0  0  0  0  0  0
  -22.6201   -7.9940   22.0933 C   0  0  0  0  0  0  0  0  0  0  0  0
  -23.1025   -9.0448   19.9719 C   0  0  0  0  0  0  0  0  0  0  0  0
  -25.0086  -16.0002   21.3344 C   0  0  0  0  0  0  0  0  0  0  0  0
  -25.4029  -17.9007   22.3676 C   0  0  0  0  0  0  0  0  0  0  0  0
  -30.2668  -24.5540   21.8766 C   0  0  0  0  0  0  0  0  0  0  0  0
  -30.0938  -25.0774   20.6493 C   0  0  0  0  0  0  0  0  0  0  0  0
  -30.6657  -23.1536   22.1662 C   0  0  0  0  0  0  0  0  0  0  0  0
  -24.9746  -21.0161   17.2258 C   0  0  0  0  0  0  0  0  0  0  0  0
  -26.5414  -15.9284   23.3984 C   0  0  0  0  0  0  0  0  0  0  0  0
  -23.6712  -21.4125   17.8065 C   0  0  0  0  0  0  0  0  0  0  0  0
  -23.7526  -30.0768   23.1538 C   0  0  0  0  0  0  0  0  0  0  0  0
  -21.8627  -29.9205   20.5221 C   0  0  0  0  0  0  0  0  0  0  0  0
  -19.4974  -29.5100   18.0965 C   0  0  0  0  0  0  0  0  0  0  0  0
  -23.8282  -32.6629   27.5543 C   0  0  0  0  0  0  0  0  0  0  0  0
  -25.2517  -31.0877   21.3969 C   0  0  0  0  0  0  0  0  0  0  0  0
  -23.9984  -28.5788   20.4590 C   0  0  0  0  0  0  0  0  0  0  0  0
  -31.5488  -22.4398   21.1742 C   0  0  0  0  0  0  0  0  0  0  0  0
  -22.7538  -32.2345   26.5580 C   0  0  0  0  0  0  0  0  0  0  0  0
  -21.9994  -20.9325   20.9420 C   0  0  0  0  0  0  0  0  0  0  0  0
  -22.8998  -30.7544   26.2190 C   0  0  0  0  0  0  0  0  0  0  0  0
  -22.6185  -19.6422   21.4783 C   0  0  0  0  0  0  0  0  0  0  0  0
  -30.7776  -21.9404   19.9633 C   0  0  0  0  0  0  0  0  0  0  0  0
  -21.8815  -20.9053   19.4215 C   0  0  0  0  0  0  0  0  0  0  0  0
  -23.7995  -19.3424   19.2555 C   0  0  0  0  0  0  0  0  0  0  0  0
  -24.2545  -30.4707   25.5588 C   0  0  1  0  0  0  0  0  0  0  0  0
  -30.1432  -24.3417   19.3165 C   0  0  1  0  0  0  0  0  0  0  0  0
  -23.8285  -30.7048   21.7909 C   0  0  1  0  0  0  0  0  0  0  0  0
  -23.9602  -19.3441   20.7857 C   0  0  2  0  0  0  0  0  0  0  0  0
  -31.4544  -24.5494   18.5507 C   0  0  0  0  0  0  0  0  0  0  0  0
  -28.0114  -19.4325   15.6533 C   0  0  0  0  0  0  0  0  0  0  0  0
  -17.1218  -28.7716   17.7663 C   0  0  0  0  0  0  0  0  0  0  0  0
  -22.7283  -27.0100   20.8217 C   0  0  0  0  0  0  0  0  0  0  0  0
  -20.6571  -26.3395   19.5852 C   0  0  0  0  0  0  0  0  0  0  0  0
  -20.4732  -27.5305   21.7694 C   0  0  0  0  0  0  0  0  0  0  0  0
  -18.6974  -32.1595   17.0481 C   0  0  0  0  0  0  0  0  0  0  0  0
  -27.3878  -19.3824   17.0446 C   0  0  0  0  0  0  0  0  0  0  0  0
  -29.7317  -26.5403   20.5337 C   0  0  0  0  0  0  0  0  0  1  0  0
  -21.2333  -28.8053   19.7226 C   0  0  1  0  0  0  0  0  0  0  0  0
  -18.0471  -29.9518   18.0187 C   0  0  2  0  0  0  0  0  0  0  0  0
  -21.2916  -27.4393   20.4630 C   0  0  0  0  0  0  0  0  0  0  0  0
  -24.3207  -16.9088   20.6377 N   0  0  0  0  0  0  0  0  0  0  0  0
  -24.9108  -20.2305   16.1864 N   0  0  0  0  0  0  0  0  0  0  0  0
  -24.5804  -18.0543   21.2906 N   0  0  0  0  0  0  0  0  0  0  0  0
  -29.8055  -22.9118   19.4534 N   0  0  3  0  0  0  0  0  0  0  0  0
  -23.1636  -20.5842   18.7976 N   0  0  0  0  0  0  0  0  0  0  0  0
  -23.2162  -29.7626   20.8520 N   0  0  0  0  0  0  0  0  0  0  0  0
  -25.7659  -18.9502   23.1352 N   0  0  0  0  0  0  0  0  0  0  0  0
  -25.9521  -15.4446   24.5744 N   0  0  0  0  0  0  0  0  0  0  0  0
  -24.2353  -30.8787   24.1704 N   0  0  0  0  0  0  0  0  0  0  0  0
  -19.8831  -29.2499   19.3945 N   0  0  0  0  0  0  0  0  0  0  0  0
  -17.8642  -30.9368   16.9153 N   0  3  0  0  0  0  0  0  0  0  0  0
  -30.3169  -22.6266   23.2210 O   0  0  0  0  0  0  0  0  0  0  0  0
  -27.7801  -15.8106   23.2390 O   0  0  0  0  0  0  0  0  0  0  0  0
  -23.1780  -22.4342   17.3469 O   0  0  0  0  0  0  0  0  0  0  0  0
  -23.2891  -28.9489   23.2744 O   0  0  0  0  0  0  0  0  0  0  0  0
  -21.1804  -30.8990   20.8361 O   0  0  0  0  0  0  0  0  0  0  0  0
  -20.2151  -29.4025   17.1046 O   0  0  0  0  0  0  0  0  0  0  0  0
  -24.9127  -10.6237   19.8009 O   0  0  0  0  0  0  0  0  0  0  0  0
  -28.4699  -26.6787   19.8817 O   0  0  0  0  0  0  0  0  0  1  0  0
  -21.8859   -7.1490   22.8289 F   0  0  0  0  0  0  0  0  0  0  0  0
  -22.8265   -9.2051   18.6704 F   0  0  0  0  0  0  0  0  0  0  0  0
  1  2  1  0  0  0  0
  1  6  2  0  0  0  0
  2  7  2  0  0  0  0
  3 10  2  0  0  0  0
  3 18  1  0  0  0  0
  4 11  1  0  0  0  0
  4 18  2  0  0  0  0
  5  9  2  0  0  0  0
  5 19  1  0  0  0  0
  6 21  1  0  0  0  0
  7 23  1  0  0  0  0
  8 12  2  0  0  0  0
  8 22  1  0  0  0  0
  9 26  1  0  0  0  0
 10 27  1  0  0  0  0
 11 27  2  0  0  0  0
 12 28  1  0  0  0  0
 13 14  2  0  0  0  0
 13 29  1  0  0  0  0
 14 30  1  0  0  0  0
 15 24  1  0  0  0  0
 15 28  2  0  0  0  0
 16 25  1  0  0  0  0
 16 26  2  0  0  0  0
 17 30  2  0  0  0  0
 17 31  1  0  0  0  0
 18 32  1  0  0  0  0
 19 25  2  0  0  0  0
 19 37  1  0  0  0  0
 20 32  1  0  0  0  0
 20 33  2  0  0  0  0
 20 38  1  0  0  0  0
 21 23  2  0  0  0  0
 21 43  1  0  0  0  0
 22 24  2  0  0  0  0
 22 44  1  0  0  0  0
 23 54  1  0  0  0  0
 24 45  1  0  0  0  0
 25 65  1  0  0  0  0
 26 73  1  0  0  0  0
 27 87  1  0  0  0  0
 28 88  1  0  0  0  0
 29 31  2  0  0  0  0
 29 87  1  0  0  0  0
 30 89  1  0  0  0  0
 31 90  1  0  0  0  0
 32 70  2  0  0  0  0
 33 72  1  0  0  0  0
 33 76  1  0  0  0  0
 34 35  2  0  0  0  0
 34 36  1  0  0  0  0
 35 55  1  0  0  0  0
 35 66  1  0  0  0  0
 36 46  1  0  0  0  0
 36 81  2  0  0  0  0
 37 39  1  0  0  0  0
 37 71  2  0  0  0  0
 38 77  1  0  0  0  0
 38 82  2  0  0  0  0
 39 74  1  0  0  0  0
 39 83  2  0  0  0  0
 40 56  1  0  0  0  0
 40 78  1  0  0  0  0
 40 84  2  0  0  0  0
 41 67  1  0  0  0  0
 41 75  1  0  0  0  0
 41 85  2  0  0  0  0
 42 68  1  0  0  0  0
 42 79  1  0  0  0  0
 42 86  2  0  0  0  0
 43 47  1  0  0  0  0
 44 56  1  0  0  0  0
 45 75  1  0  0  0  0
 46 51  1  0  0  0  0
 47 49  1  0  0  0  0
 48 50  1  0  0  0  0
 48 52  1  0  0  0  0
 49 54  1  0  0  0  0
 50 57  1  0  0  0  0
 51 73  1  0  0  0  0
 52 74  1  0  0  0  0
 53 57  1  0  0  0  0
 53 74  1  0  0  0  0
 54 78  1  0  0  0  0
 55 58  1  0  0  0  0
 55 73  1  0  0  0  0
 56 75  1  0  0  0  0
 57 72  1  0  0  0  0
 59 65  1  0  0  0  0
 60 68  1  0  0  0  0
 61 69  1  0  0  0  0
 62 69  1  0  0  0  0
 63 69  1  0  0  0  0
 64 80  1  0  0  0  0
 66 88  1  0  0  0  0
 67 69  1  0  0  0  0
 67 79  1  0  0  0  0
 68 80  1  0  0  0  0
 70 72  1  0  0  0  0
M  CHG  1  80   1
M  ISO  4  37 100  39 100  66 101  88 101
M  END
> <Batch ID>
0112

> <Smiles>
CCc1cc(N2CCC(=O)CC([101CH2:1][101O:1]c3ccc4c(c3)CN(C(=O)C(NC(=O)C(C)NC)C(C)(C)C)C(C(=O)NC3CCCc5ccccc53)C4)=C2C)ccc1[100C:0](=N)[100C:0](=O)N1CCCC(n2nc(-c3ccc(Oc4ccc(F)cc4F)cc3)c(C(N)=O)c2N)C1

> <Shape>
0.246

> <Color>
0.087

> <Negative vol penalty>
0.000

$$$$

  -OEChem-04052301313D

 84 92  0     1  0  0  0  0  0999 V2000
  -27.9250  -36.9206   24.3598 C   0  0  0  0  0  0  0  0  0  0  0  0
  -28.4126  -36.0489   23.3914 C   0  0  0  0  0  0  0  0  0  0  0  0
  -24.4079   -9.5577   21.8444 C   0  0  0  0  0  0  0  0  0  0  0  0
  -22.8821  -10.4595   20.2026 C   0  0  0  0  0  0  0  0  0  0  0  0
  -27.1049  -36.4397   25.3796 C   0  0  0  0  0  0  0  0  0  0  0  0
  -28.0811  -34.6954   23.4430 C   0  0  0  0  0  0  0  0  0  0  0  0
  -26.8226  -29.0890   19.1650 C   0  0  0  0  0  0  0  0  0  0  0  0
  -23.5142   -8.5189   22.1045 C   0  0  0  0  0  0  0  0  0  0  0  0
  -21.9883   -9.4207   20.4626 C   0  0  0  0  0  0  0  0  0  0  0  0
  -27.2259  -27.7683   18.9736 C   0  0  0  0  0  0  0  0  0  0  0  0
  -22.6138   -5.5906   20.6735 C   0  0  0  0  0  0  0  0  0  0  0  0
  -23.1310   -4.2985   20.7661 C   0  0  0  0  0  0  0  0  0  0  0  0
  -26.2561  -20.3464   18.2349 C   0  0  0  0  0  0  0  0  0  0  0  0
  -25.7369  -27.0645   20.7363 C   0  0  0  0  0  0  0  0  0  0  0  0
  -27.0098  -19.5047   15.6842 C   0  0  0  0  0  0  0  0  0  0  0  0
  -22.3115   -4.1330   23.0329 C   0  0  0  0  0  0  0  0  0  0  0  0
  -24.0919  -10.5281   20.8935 C   0  0  0  0  0  0  0  0  0  0  0  0
  -26.2726  -21.2554   17.1770 C   0  0  0  0  0  0  0  0  0  0  0  0
  -26.0490  -11.6147   19.6702 C   0  0  0  0  0  0  0  0  0  0  0  0
  -26.7553  -35.0814   25.4382 C   0  0  0  0  0  0  0  0  0  0  0  0
  -25.8798  -29.4094   20.1524 C   0  0  0  0  0  0  0  0  0  0  0  0
  -27.2566  -34.1956   24.4653 C   0  0  0  0  0  0  0  0  0  0  0  0
  -25.3214  -28.3898   20.9364 C   0  0  0  0  0  0  0  0  0  0  0  0
  -26.6165  -19.0166   18.0175 C   0  0  0  0  0  0  0  0  0  0  0  0
  -26.6495  -20.8345   15.9017 C   0  0  0  0  0  0  0  0  0  0  0  0
  -22.3044   -8.4503   21.4136 C   0  0  0  0  0  0  0  0  0  0  0  0
  -26.6853  -26.7561   19.7613 C   0  0  0  0  0  0  0  0  0  0  0  0
  -21.9456   -6.1540   21.7607 C   0  0  0  0  0  0  0  0  0  0  0  0
  -26.9933  -18.5957   16.7421 C   0  0  0  0  0  0  0  0  0  0  0  0
  -22.9798   -3.5697   21.9457 C   0  0  0  0  0  0  0  0  0  0  0  0
  -21.7945   -5.4252   22.9403 C   0  0  0  0  0  0  0  0  0  0  0  0
  -25.0144  -11.6017   20.6249 C   0  0  0  0  0  0  0  0  0  0  0  0
  -26.6291  -12.8519   19.8094 C   0  0  0  0  0  0  0  0  0  0  0  0
  -26.6845  -23.4270   18.4334 C   0  0  0  0  0  0  0  0  0  0  0  0
  -26.3790  -24.7023   18.6849 C   0  0  0  0  0  0  0  0  0  1  0  0
  -25.8843  -22.6620   17.4412 C   0  0  0  0  0  0  0  0  0  0  0  0
  -26.4497  -10.5993   18.7407 C   0  0  0  0  0  0  0  0  0  0  0  0
  -25.9025  -31.1998   22.7788 C   0  0  0  0  0  0  0  0  0  0  0  0
  -22.7382  -30.4877   22.8217 C   0  0  0  0  0  0  0  0  0  0  0  0
  -20.2325  -28.3681   21.8857 C   0  0  0  0  0  0  0  0  0  0  0  0
  -26.2412  -18.3723   20.4238 C   0  0  0  0  0  0  0  0  0  0  0  0
  -25.9045  -34.5996   26.5865 C   0  0  0  0  0  0  0  0  0  0  0  0
  -25.4354  -30.8356   20.3282 C   0  0  0  0  0  0  0  0  0  0  0  0
  -24.2909  -28.6785   21.9962 C   0  0  0  0  0  0  0  0  0  0  0  0
  -25.2952  -33.2191   26.3558 C   0  0  0  0  0  0  0  0  0  0  0  0
  -26.0212  -16.3928   23.3751 C   0  0  0  0  0  0  0  0  0  0  0  0
  -26.3488  -32.2527   25.8241 C   0  0  0  0  0  0  0  0  0  0  0  0
  -25.8247  -14.9709   22.8442 C   0  0  0  0  0  0  0  0  0  0  0  0
  -25.2926  -17.4247   22.5160 C   0  0  0  0  0  0  0  0  0  0  0  0
  -25.4030  -15.9439   20.5502 C   0  0  0  0  0  0  0  0  0  0  0  0
  -26.8992  -32.7251   24.4731 C   0  0  1  0  0  0  0  0  0  0  0  0
  -24.8504  -31.1131   21.7096 C   0  0  1  0  0  0  0  0  0  0  0  0
  -26.1717  -14.8761   21.3454 C   0  0  2  0  0  0  0  0  0  0  0  0
  -17.7555  -28.0290   22.1021 C   0  0  0  0  0  0  0  0  0  0  0  0
  -23.1246  -29.5109   25.6864 C   0  0  0  0  0  0  0  0  0  0  0  0
  -20.9186  -28.3401   25.5109 C   0  0  0  0  0  0  0  0  0  0  0  0
  -21.0303  -30.8237   25.3054 C   0  0  0  0  0  0  0  0  0  0  0  0
  -19.8345  -28.5517   18.9588 C   0  0  0  0  0  0  0  0  0  0  0  0
  -26.3100  -16.4000   16.1356 C   0  0  0  0  0  0  0  0  0  0  0  0
  -21.8988  -29.3834   23.4177 C   0  0  1  0  0  0  0  0  0  0  0  0
  -18.8729  -28.6286   21.2627 C   0  0  2  0  0  0  0  0  0  0  0  0
  -21.7639  -29.5090   24.9615 C   0  0  0  0  0  0  0  0  0  0  0  0
  -24.9393  -12.7402   21.3193 N   0  0  0  0  0  0  0  0  0  0  0  0
  -25.9341  -13.4801   20.8006 N   0  0  0  0  0  0  0  0  0  0  0  0
  -23.8934  -30.0894   22.1343 N   0  0  0  0  0  0  0  0  0  0  0  0
  -25.6738  -17.2775   21.1096 N   0  0  0  0  0  0  0  0  0  0  0  0
  -26.6740  -21.7395   14.8170 N   0  0  0  0  0  0  0  0  0  0  0  0
  -27.6609  -13.4527   19.1795 N   0  0  0  0  0  0  0  0  0  0  0  0
  -25.7457   -9.3874   18.7305 N   0  0  0  0  0  0  0  0  0  0  0  0
  -26.5937  -18.1043   19.1015 N   0  0  0  0  0  0  0  0  0  0  0  0
  -25.9608  -32.4263   23.4127 N   0  0  0  0  0  0  0  0  0  0  0  0
  -20.6272  -29.4062   22.7029 N   0  0  0  0  0  0  0  0  0  0  0  0
  -18.8062  -28.0342   19.8977 N   0  3  0  0  0  0  0  0  0  0  0  0
  -24.9461  -23.1601   16.8285 O   0  0  0  0  0  0  0  0  0  0  0  0
  -27.4143  -10.7556   17.9542 O   0  0  0  0  0  0  0  0  0  0  0  0
  -26.6082  -30.2256   23.0124 O   0  0  0  0  0  0  0  0  0  0  0  0
  -22.3781  -31.6600   22.9549 O   0  0  0  0  0  0  0  0  0  0  0  0
  -20.8781  -27.3443   21.6719 O   0  0  0  0  0  0  0  0  0  0  0  0
  -26.4275  -19.4589   20.9774 O   0  0  0  0  0  0  0  0  0  0  0  0
  -21.4321   -7.4367   21.6669 O   0  0  0  0  0  0  0  0  0  0  0  0
  -27.0777  -25.4662   19.5770 O   0  0  0  0  0  0  0  0  0  1  0  0
  -27.3501  -17.3010   16.5092 O   0  0  0  0  0  0  0  0  0  0  0  0
  -23.4751   -2.3283   22.0340 F   0  0  0  0  0  0  0  0  0  0  0  0
  -21.1524   -5.9606   23.9876 F   0  0  0  0  0  0  0  0  0  0  0  0
  1  2  1  0  0  0  0
  1  5  2  0  0  0  0
  2  6  2  0  0  0  0
  3  8  2  0  0  0  0
  3 17  1  0  0  0  0
  4  9  1  0  0  0  0
  4 17  2  0  0  0  0
  5 20  1  0  0  0  0
  6 22  1  0  0  0  0
  7 10  2  0  0  0  0
  7 21  1  0  0  0  0
  8 26  1  0  0  0  0
  9 26  2  0  0  0  0
 10 27  1  0  0  0  0
 11 12  2  0  0  0  0
 11 28  1  0  0  0  0
 12 30  1  0  0  0  0
 13 18  1  0  0  0  0
 13 24  2  0  0  0  0
 14 23  1  0  0  0  0
 14 27  2  0  0  0  0
 15 25  1  0  0  0  0
 15 29  2  0  0  0  0
 16 30  2  0  0  0  0
 16 31  1  0  0  0  0
 17 32  1  0  0  0  0
 18 25  2  0  0  0  0
 18 36  1  0  0  0  0
 19 32  1  0  0  0  0
 19 33  2  0  0  0  0
 19 37  1  0  0  0  0
 20 22  2  0  0  0  0
 20 42  1  0  0  0  0
 21 23  2  0  0  0  0
 21 43  1  0  0  0  0
 22 51  1  0  0  0  0
 23 44  1  0  0  0  0
 24 29  1  0  0  0  0
 24 70  1  0  0  0  0
 25 67  1  0  0  0  0
 26 80  1  0  0  0  0
 27 81  1  0  0  0  0
 28 31  2  0  0  0  0
 28 80  1  0  0  0  0
 29 82  1  0  0  0  0
 30 83  1  0  0  0  0
 31 84  1  0  0  0  0
 32 63  2  0  0  0  0
 33 64  1  0  0  0  0
 33 68  1  0  0  0  0
 34 35  2  0  0  0  0
 34 36  1  0  0  0  0
 35 81  1  0  0  0  0
 36 74  2  0  0  0  0
 37 69  1  0  0  0  0
 37 75  2  0  0  0  0
 38 52  1  0  0  0  0
 38 71  1  0  0  0  0
 38 76  2  0  0  0  0
 39 60  1  0  0  0  0
 39 65  1  0  0  0  0
 39 77  2  0  0  0  0
 40 61  1  0  0  0  0
 40 72  1  0  0  0  0
 40 78  2  0  0  0  0
 41 66  1  0  0  0  0
 41 70  1  0  0  0  0
 41 79  2  0  0  0  0
 42 45  1  0  0  0  0
 43 52  1  0  0  0  0
 44 65  1  0  0  0  0
 45 47  1  0  0  0  0
 46 48  1  0  0  0  0
 46 49  1  0  0  0  0
 47 51  1  0  0  0  0
 48 53  1  0  0  0  0
 49 66  1  0  0  0  0
 50 53  1  0  0  0  0
 50 66  1  0  0  0  0
 51 71  1  0  0  0  0
 52 65  1  0  0  0  0
 53 64  1  0  0  0  0
 54 61  1  0  0  0  0
 55 62  1  0  0  0  0
 56 62  1  0  0  0  0
 57 62  1  0  0  0  0
 58 73  1  0  0  0  0
 59 82  1  0  0  0  0
 60 62  1  0  0  0  0
 60 72  1  0  0  0  0
 61 73  1  0  0  0  0
 63 64  1  0  0  0  0
M  CHG  1  73   1
M  ISO  4  35 101  41 100  70 100  81 101
M  END
> <Batch ID>
0112

> <Smiles>
CNC(C)C(=O)NC(C(=O)N1Cc2cc([101O:1][101CH:1]=CC(=O)c3cc([100NH:0][100C:0](=O)N4CCCC(n5nc(-c6ccc(Oc7ccc(F)cc7F)cc6)c(C(N)=O)c5N)C4)c(OC)cc3N)ccc2CC1C(=O)NC1CCCc2ccccc21)C(C)(C)C

> <Shape>
0.284

> <Color>
0.091

> <Negative vol penalty>
0.000

$$$$

  -OEChem-04052301313D

 86 94  0     1  0  0  0  0  0999 V2000
  -17.1552  -14.6635   20.0171 C   0  0  0  0  0  0  0  0  0  0  0  0
  -18.2447  -15.4803   19.7324 C   0  0  0  0  0  0  0  0  0  0  0  0
  -22.9856   -9.9136   19.9907 C   0  0  0  0  0  0  0  0  0  0  0  0
  -23.7658   -9.9379   22.2771 C   0  0  0  0  0  0  0  0  0  0  0  0
  -16.1606  -14.4709   19.0592 C   0  0  0  0  0  0  0  0  0  0  0  0
  -18.3409  -16.1042   18.4891 C   0  0  0  0  0  0  0  0  0  0  0  0
  -19.7067  -20.9668   18.8559 C   0  0  0  0  0  0  0  0  0  0  0  0
  -22.2235   -8.7775   20.2628 C   0  0  0  0  0  0  0  0  0  0  0  0
  -23.0036   -8.8018   22.5492 C   0  0  0  0  0  0  0  0  0  0  0  0
  -21.0556  -21.2337   19.0861 C   0  0  0  0  0  0  0  0  0  0  0  0
  -23.2301   -5.4679   22.0349 C   0  0  0  0  0  0  0  0  0  0  0  0
  -23.8335   -4.4414   22.7614 C   0  0  0  0  0  0  0  0  0  0  0  0
  -29.8198  -17.2645   19.9281 C   0  0  0  0  0  0  0  0  0  0  0  0
  -21.3554  -21.7102   16.7404 C   0  0  0  0  0  0  0  0  0  0  0  0
  -27.7369  -18.3957   21.3994 C   0  0  0  0  0  0  0  0  0  0  0  0
  -22.1507   -4.6687   24.4800 C   0  0  0  0  0  0  0  0  0  0  0  0
  -23.7568  -10.4938   20.9978 C   0  0  0  0  0  0  0  0  0  0  0  0
  -29.4507  -16.7105   21.1538 C   0  0  0  0  0  0  0  0  0  0  0  0
  -24.1427  -13.0105   20.8403 C   0  0  0  0  0  0  0  0  0  0  0  0
  -16.2398  -15.1005   17.8069 C   0  0  0  0  0  0  0  0  0  0  0  0
  -19.1735  -21.0592   17.5622 C   0  0  0  0  0  0  0  0  0  0  0  0
  -17.3472  -15.9188   17.5130 C   0  0  0  0  0  0  0  0  0  0  0  0
  -19.9989  -21.4464   16.4969 C   0  0  0  0  0  0  0  0  0  0  0  0
  -28.4092  -17.2761   21.8894 C   0  0  0  0  0  0  0  0  0  0  0  0
  -29.1475  -18.3842   19.4380 C   0  0  0  0  0  0  0  0  0  0  0  0
  -22.2325   -8.2216   21.5420 C   0  0  0  0  0  0  0  0  0  0  0  0
  -21.8808  -21.6026   18.0278 C   0  0  0  0  0  0  0  0  0  0  0  0
  -22.0870   -6.0948   22.5309 C   0  0  0  0  0  0  0  0  0  0  0  0
  -28.1061  -18.9498   20.1737 C   0  0  0  0  0  0  0  0  0  0  0  0
  -23.2938   -4.0418   23.9840 C   0  0  0  0  0  0  0  0  0  0  0  0
  -21.5473   -5.6952   23.7535 C   0  0  0  0  0  0  0  0  0  0  0  0
  -24.5448  -11.6670   20.7172 C   0  0  0  0  0  0  0  0  0  0  0  0
  -25.2449  -13.7352   20.4574 C   0  0  0  0  0  0  0  0  0  0  0  0
  -30.1719  -15.5439   21.6443 C   0  0  0  0  0  0  0  0  0  0  0  0
  -22.8854  -13.5547   21.2631 C   0  0  0  0  0  0  0  0  0  0  0  0
  -30.7714  -14.5619   20.7119 C   0  0  0  0  0  0  0  0  0  0  0  0
  -17.8023  -19.0160   15.5500 C   0  0  0  0  0  0  0  0  0  0  0  0
  -25.2969  -20.9397   19.0262 C   0  0  0  0  0  0  0  0  0  0  0  0
  -17.3210  -21.6893   13.7769 C   0  0  0  0  0  0  0  0  0  0  0  0
  -18.2776  -24.8775   13.0237 C   0  0  0  0  0  0  0  0  0  0  0  0
  -15.1642  -14.8244   16.7863 C   0  0  0  0  0  0  0  0  0  0  0  0
  -17.7105  -20.7941   17.3350 C   0  0  0  0  0  0  0  0  0  0  0  0
  -19.4709  -21.5798   15.0926 C   0  0  0  0  0  0  0  0  0  0  0  0
  -15.1523  -15.8203   15.6295 C   0  0  0  0  0  0  0  0  0  0  0  0
  -29.5388  -12.2886   18.2280 C   0  0  0  0  0  0  0  0  0  0  0  0
  -16.5659  -16.0409   15.1004 C   0  0  0  0  0  0  0  0  0  0  0  0
  -28.1091  -12.0050   18.6874 C   0  0  0  0  0  0  0  0  0  0  0  0
  -30.4769  -12.4889   19.4138 C   0  0  0  0  0  0  0  0  0  0  0  0
  -28.5966  -13.2741   20.8268 C   0  0  0  0  0  0  0  0  0  0  0  0
  -17.4746  -16.6326   16.1846 C   0  0  1  0  0  0  0  0  0  0  0  0
  -17.3883  -20.4194   15.8917 C   0  0  1  0  0  0  0  0  0  0  0  0
  -27.6143  -13.0935   19.6564 C   0  0  2  0  0  0  0  0  0  0  0  0
  -28.5109  -17.5265   24.3821 C   0  0  0  0  0  0  0  0  0  0  0  0
  -17.7181  -26.7952   11.5049 C   0  0  0  0  0  0  0  0  0  0  0  0
  -18.6695  -20.2406   11.4547 C   0  0  0  0  0  0  0  0  0  0  0  0
  -18.9366  -22.4558   10.3190 C   0  0  0  0  0  0  0  0  0  0  0  0
  -16.6552  -21.5801   10.8200 C   0  0  0  0  0  0  0  0  0  0  0  0
  -17.6529  -26.6543   15.3065 C   0  0  0  0  0  0  0  0  0  0  0  0
  -27.9951  -16.7035   23.2057 C   0  0  0  0  0  0  0  0  0  0  0  0
  -23.8274  -21.1611   19.3208 C   0  0  0  0  0  0  0  0  0  1  0  0
  -26.0763  -20.1857   20.0840 C   0  0  0  0  0  0  0  0  0  0  0  0
  -18.1031  -22.4223   12.7138 C   0  0  1  0  0  0  0  0  0  0  0  0
  -17.4781  -26.1581   12.8648 C   0  0  2  0  0  0  0  0  0  0  0  0
  -18.1018  -21.6704   11.3529 C   0  0  0  0  0  0  0  0  0  0  0  0
  -25.8040  -11.5427   20.2894 N   0  0  0  0  0  0  0  0  0  0  0  0
  -30.3387  -15.2884   22.9125 N   0  0  0  0  0  0  0  0  0  0  0  0
  -26.2026  -12.8175   20.1403 N   0  0  0  0  0  0  0  0  0  0  0  0
  -29.9599  -13.5022   20.3315 N   0  0  0  0  0  0  0  0  0  0  0  0
  -18.0351  -21.3039   14.9203 N   0  0  0  0  0  0  0  0  0  0  0  0
  -29.5312  -18.9348   18.1956 N   0  0  0  0  0  0  0  0  0  0  0  0
  -25.4784  -15.0615   20.3644 N   0  0  0  0  0  0  0  0  0  0  0  0
  -21.8605  -12.6686   21.6215 N   0  0  0  0  0  0  0  0  0  0  0  0
  -17.2168  -18.0478   16.3433 N   0  0  0  0  0  0  0  0  0  0  0  0
  -17.5458  -23.7692   12.6529 N   0  0  0  0  0  0  0  0  0  0  0  0
  -17.8596  -27.1409   13.9182 N   0  3  0  0  0  0  0  0  0  0  0  0
  -22.6718  -14.7901   21.3057 O   0  0  0  0  0  0  0  0  0  0  0  0
  -31.9257  -14.7912   20.3749 O   0  0  0  0  0  0  0  0  0  0  0  0
  -18.5933  -18.8256   14.6336 O   0  0  0  0  0  0  0  0  0  0  0  0
  -25.8244  -21.3475   17.9925 O   0  0  0  0  0  0  0  0  0  0  0  0
  -16.1191  -21.4733   13.6025 O   0  0  0  0  0  0  0  0  0  0  0  0
  -19.4367  -24.8622   13.4320 O   0  0  0  0  0  0  0  0  0  0  0  0
  -21.4887   -7.1132   21.8080 O   0  0  0  0  0  0  0  0  0  0  0  0
  -23.1980  -21.8630   18.2496 O   0  0  0  0  0  0  0  0  0  1  0  0
  -27.4305  -20.0524   19.7070 O   0  0  0  0  0  0  0  0  0  0  0  0
  -23.8724   -3.0551   24.6809 F   0  0  0  0  0  0  0  0  0  0  0  0
  -20.4486   -6.2930   24.2346 F   0  0  0  0  0  0  0  0  0  0  0  0
  1  2  1  0  0  0  0
  1  5  2  0  0  0  0
  2  6  2  0  0  0  0
  3  8  2  0  0  0  0
  3 17  1  0  0  0  0
  4  9  1  0  0  0  0
  4 17  2  0  0  0  0
  5 20  1  0  0  0  0
  6 22  1  0  0  0  0
  7 10  2  0  0  0  0
  7 21  1  0  0  0  0
  8 26  1  0  0  0  0
  9 26  2  0  0  0  0
 10 27  1  0  0  0  0
 11 12  2  0  0  0  0
 11 28  1  0  0  0  0
 12 30  1  0  0  0  0
 13 18  1  0  0  0  0
 13 25  2  0  0  0  0
 14 23  1  0  0  0  0
 14 27  2  0  0  0  0
 15 24  1  0  0  0  0
 15 29  2  0  0  0  0
 16 30  2  0  0  0  0
 16 31  1  0  0  0  0
 17 32  1  0  0  0  0
 18 24  2  0  0  0  0
 18 34  1  0  0  0  0
 19 32  1  0  0  0  0
 19 33  2  0  0  0  0
 19 35  1  0  0  0  0
 20 22  2  0  0  0  0
 20 41  1  0  0  0  0
 21 23  2  0  0  0  0
 21 42  1  0  0  0  0
 22 50  1  0  0  0  0
 23 43  1  0  0  0  0
 24 59  1  0  0  0  0
 25 29  1  0  0  0  0
 25 70  1  0  0  0  0
 26 82  1  0  0  0  0
 27 83  1  0  0  0  0
 28 31  2  0  0  0  0
 28 82  1  0  0  0  0
 29 84  1  0  0  0  0
 30 85  1  0  0  0  0
 31 86  1  0  0  0  0
 32 65  2  0  0  0  0
 33 67  1  0  0  0  0
 33 71  1  0  0  0  0
 34 36  1  0  0  0  0
 34 66  2  0  0  0  0
 35 72  1  0  0  0  0
 35 76  2  0  0  0  0
 36 68  1  0  0  0  0
 36 77  2  0  0  0  0
 37 51  1  0  0  0  0
 37 73  1  0  0  0  0
 37 78  2  0  0  0  0
 38 60  1  0  0  0  0
 38 61  1  0  0  0  0
 38 79  2  0  0  0  0
 39 62  1  0  0  0  0
 39 69  1  0  0  0  0
 39 80  2  0  0  0  0
 40 63  1  0  0  0  0
 40 74  1  0  0  0  0
 40 81  2  0  0  0  0
 41 44  1  0  0  0  0
 42 51  1  0  0  0  0
 43 69  1  0  0  0  0
 44 46  1  0  0  0  0
 45 47  1  0  0  0  0
 45 48  1  0  0  0  0
 46 50  1  0  0  0  0
 47 52  1  0  0  0  0
 48 68  1  0  0  0  0
 49 52  1  0  0  0  0
 49 68  1  0  0  0  0
 50 73  1  0  0  0  0
 51 69  1  0  0  0  0
 52 67  1  0  0  0  0
 53 59  1  0  0  0  0
 54 63  1  0  0  0  0
 55 64  1  0  0  0  0
 56 64  1  0  0  0  0
 57 64  1  0  0  0  0
 58 75  1  0  0  0  0
 60 83  1  0  0  0  0
 61 84  1  0  0  0  0
 62 64  1  0  0  0  0
 62 74  1  0  0  0  0
 63 75  1  0  0  0  0
 65 67  1  0  0  0  0
M  CHG  1  75   1
M  ISO  4  34 100  36 100  60 101  83 101
M  END
> <Batch ID>
0112

> <Smiles>
CCc1cc(OCC(=O)[101CH2:1][101O:1]c2ccc3c(c2)CN(C(=O)C(NC(=O)C(C)NC)C(C)(C)C)C(C(=O)NC2CCCc4ccccc42)C3)c(N)cc1[100C:0](=N)[100C:0](=O)N1CCCC(n2nc(-c3ccc(Oc4ccc(F)cc4F)cc3)c(C(N)=O)c2N)C1

> <Shape>
0.204

> <Color>
0.180

> <Negative vol penalty>
0.000

$$$$

  -OEChem-04052301313D

 84 92  0     1  0  0  0  0  0999 V2000
  -29.5712  -29.1766   17.1245 C   0  0  0  0  0  0  0  0  0  0  0  0
  -29.3443  -28.2764   18.1607 C   0  0  0  0  0  0  0  0  0  0  0  0
  -23.1345   -9.7976   20.2256 C   0  0  0  0  0  0  0  0  0  0  0  0
  -23.7686  -10.1502   22.5301 C   0  0  0  0  0  0  0  0  0  0  0  0
  -29.3892  -30.5425   17.3368 C   0  0  0  0  0  0  0  0  0  0  0  0
  -28.9363  -28.7419   19.4102 C   0  0  0  0  0  0  0  0  0  0  0  0
  -25.1570  -25.9969   21.3665 C   0  0  0  0  0  0  0  0  0  0  0  0
  -22.3922   -8.6781   20.6012 C   0  0  0  0  0  0  0  0  0  0  0  0
  -23.0262   -9.0307   22.9057 C   0  0  0  0  0  0  0  0  0  0  0  0
  -25.4913  -24.7710   21.9403 C   0  0  0  0  0  0  0  0  0  0  0  0
  -19.7799   -8.2643   23.4489 C   0  0  0  0  0  0  0  0  0  0  0  0
  -18.9610   -8.3787   24.5722 C   0  0  0  0  0  0  0  0  0  0  0  0
  -29.6619  -17.9024   22.6381 C   0  0  0  0  0  0  0  0  0  0  0  0
  -25.3998  -25.7781   24.1305 C   0  0  0  0  0  0  0  0  0  0  0  0
  -31.8848  -17.0213   22.2927 C   0  0  0  0  0  0  0  0  0  0  0  0
  -20.1839   -6.5926   25.6454 C   0  0  0  0  0  0  0  0  0  0  0  0
  -23.8228  -10.5337   21.1901 C   0  0  0  0  0  0  0  0  0  0  0  0
  -30.1886  -18.9192   23.4345 C   0  0  0  0  0  0  0  0  0  0  0  0
  -24.1402  -13.0214   20.7231 C   0  0  0  0  0  0  0  0  0  0  0  0
  -28.9694  -31.0241   18.5868 C   0  0  0  0  0  0  0  0  0  0  0  0
  -24.9520  -27.1270   22.1710 C   0  0  0  0  0  0  0  0  0  0  0  0
  -28.7498  -30.1156   19.6398 C   0  0  0  0  0  0  0  0  0  0  0  0
  -25.0606  -27.0165   23.5646 C   0  0  0  0  0  0  0  0  0  0  0  0
  -30.5099  -16.9534   22.0673 C   0  0  0  0  0  0  0  0  0  0  0  0
  -32.4116  -18.0382   23.0890 C   0  0  0  0  0  0  0  0  0  0  0  0
  -22.3379   -8.2946   21.9412 C   0  0  0  0  0  0  0  0  0  0  0  0
  -25.6156  -24.6621   23.3223 C   0  0  0  0  0  0  0  0  0  0  0  0
  -20.8008   -7.3141   23.4237 C   0  0  0  0  0  0  0  0  0  0  0  0
  -31.5635  -18.9871   23.6599 C   0  0  0  0  0  0  0  0  0  0  0  0
  -19.1630   -7.5428   25.6705 C   0  0  0  0  0  0  0  0  0  0  0  0
  -21.0027   -6.4782   24.5220 C   0  0  0  0  0  0  0  0  0  0  0  0
  -24.5904  -11.6899   20.8028 C   0  0  0  0  0  0  0  0  0  0  0  0
  -25.2414  -13.7321   20.3123 C   0  0  0  0  0  0  0  0  0  0  0  0
  -29.2699  -19.9084   24.0252 C   0  0  0  0  0  0  0  0  0  0  0  0
  -28.4836  -20.7332   23.3196 C   0  0  0  0  0  0  0  0  0  0  0  0
  -22.8427  -13.5670   20.9961 C   0  0  0  0  0  0  0  0  0  0  0  0
  -27.5939  -21.7080   24.0152 C   0  0  0  0  0  0  0  0  0  0  0  0
  -26.3503  -29.9683   22.4458 C   0  0  0  0  0  0  0  0  0  0  0  0
  -23.9018  -30.5407   24.4952 C   0  0  0  0  0  0  0  0  0  0  0  0
  -21.5368  -29.2794   26.6077 C   0  0  0  0  0  0  0  0  0  0  0  0
  -30.6770  -14.9000   20.6175 C   0  0  0  0  0  0  0  0  0  0  0  0
  -28.8319  -32.5132   18.7821 C   0  0  0  0  0  0  0  0  0  0  0  0
  -24.5658  -28.4359   21.5384 C   0  0  0  0  0  0  0  0  0  0  0  0
  -24.8307  -28.1950   24.4738 C   0  0  0  0  0  0  0  0  0  0  0  0
  -28.0362  -32.8932   20.0282 C   0  0  0  0  0  0  0  0  0  0  0  0
  -29.7221  -12.1483   18.5696 C   0  0  0  0  0  0  0  0  0  0  0  0
  -28.5058  -32.0796   21.2301 C   0  0  0  0  0  0  0  0  0  0  0  0
  -28.2648  -11.8933   18.9615 C   0  0  0  0  0  0  0  0  0  0  0  0
  -30.5677  -12.5661   19.7713 C   0  0  0  0  0  0  0  0  0  0  0  0
  -28.5800  -13.4442   20.9319 C   0  0  0  0  0  0  0  0  0  0  0  0
  -28.2824  -30.5797   21.0023 C   0  0  1  0  0  0  0  0  0  0  0  0
  -24.8840  -29.6413   22.4177 C   0  0  1  0  0  0  0  0  0  0  0  0
  -27.6747  -13.0838   19.7426 C   0  0  2  0  0  0  0  0  0  0  0  0
  -19.7075  -29.9951   28.1694 C   0  0  0  0  0  0  0  0  0  0  0  0
  -25.9905  -31.3480   26.5678 C   0  0  0  0  0  0  0  0  0  0  0  0
  -24.2254  -31.1285   28.3298 C   0  0  0  0  0  0  0  0  0  0  0  0
  -23.9625  -32.8102   26.5062 C   0  0  0  0  0  0  0  0  0  0  0  0
  -19.4762  -27.8527   25.0336 C   0  0  0  0  0  0  0  0  0  0  0  0
  -26.7539  -22.5848   23.1106 C   0  0  0  0  0  0  0  0  0  1  0  0
  -23.6821  -30.3539   25.9770 C   0  0  1  0  0  0  0  0  0  0  0  0
  -20.0542  -29.5727   26.7502 C   0  0  2  0  0  0  0  0  0  0  0  0
  -24.4714  -31.3882   26.8282 C   0  0  0  0  0  0  0  0  0  0  0  0
  -25.8771  -11.5598   20.4691 N   0  0  0  0  0  0  0  0  0  0  0  0
  -26.2450  -12.8187   20.1758 N   0  0  0  0  0  0  0  0  0  0  0  0
  -24.4614  -29.4547   23.8072 N   0  0  0  0  0  0  0  0  0  0  0  0
  -29.9495  -13.7014   20.4597 N   0  0  0  0  0  0  0  0  0  0  0  0
  -33.8057  -18.0933   23.3077 N   0  0  0  0  0  0  0  0  0  0  0  0
  -25.4394  -15.0431   20.0580 N   0  0  0  0  0  0  0  0  0  0  0  0
  -21.8250  -12.6961   21.4086 N   0  0  0  0  0  0  0  0  0  0  0  0
  -29.9750  -15.9204   21.2583 N   0  0  0  0  0  0  0  0  0  0  0  0
  -26.8901  -30.2399   21.2031 N   0  0  0  0  0  0  0  0  0  0  0  0
  -22.2382  -30.3880   26.1830 N   0  0  0  0  0  0  0  0  0  0  0  0
  -19.2520  -28.3635   26.4105 N   0  3  0  0  0  0  0  0  0  0  0  0
  -22.5889  -14.7881   20.8620 O   0  0  0  0  0  0  0  0  0  0  0  0
  -27.5480  -21.7908   25.2396 O   0  0  0  0  0  0  0  0  0  0  0  0
  -26.9473  -29.9753   23.5159 O   0  0  0  0  0  0  0  0  0  0  0  0
  -23.5820  -31.6082   23.9662 O   0  0  0  0  0  0  0  0  0  0  0  0
  -22.0245  -28.1782   26.8524 O   0  0  0  0  0  0  0  0  0  0  0  0
  -31.8277  -15.0218   20.1897 O   0  0  0  0  0  0  0  0  0  0  0  0
  -32.0855  -19.9803   24.4387 O   0  0  0  0  0  0  0  0  0  0  0  0
  -21.6134   -7.2023   22.3080 O   0  0  0  0  0  0  0  0  0  0  0  0
  -25.9423  -23.4669   23.8849 O   0  0  0  0  0  0  0  0  0  1  0  0
  -18.3775   -7.6538   26.7498 F   0  0  0  0  0  0  0  0  0  0  0  0
  -21.9826   -5.5642   24.5042 F   0  0  0  0  0  0  0  0  0  0  0  0
  1  2  1  0  0  0  0
  1  5  2  0  0  0  0
  2  6  2  0  0  0  0
  3  8  2  0  0  0  0
  3 17  1  0  0  0  0
  4  9  1  0  0  0  0
  4 17  2  0  0  0  0
  5 20  1  0  0  0  0
  6 22  1  0  0  0  0
  7 10  2  0  0  0  0
  7 21  1  0  0  0  0
  8 26  1  0  0  0  0
  9 26  2  0  0  0  0
 10 27  1  0  0  0  0
 11 12  2  0  0  0  0
 11 28  1  0  0  0  0
 12 30  1  0  0  0  0
 13 18  1  0  0  0  0
 13 24  2  0  0  0  0
 14 23  1  0  0  0  0
 14 27  2  0  0  0  0
 15 24  1  0  0  0  0
 15 25  2  0  0  0  0
 16 30  2  0  0  0  0
 16 31  1  0  0  0  0
 17 32  1  0  0  0  0
 18 29  2  0  0  0  0
 18 34  1  0  0  0  0
 19 32  1  0  0  0  0
 19 33  2  0  0  0  0
 19 36  1  0  0  0  0
 20 22  2  0  0  0  0
 20 42  1  0  0  0  0
 21 23  2  0  0  0  0
 21 43  1  0  0  0  0
 22 51  1  0  0  0  0
 23 44  1  0  0  0  0
 24 70  1  0  0  0  0
 25 29  1  0  0  0  0
 25 67  1  0  0  0  0
 26 81  1  0  0  0  0
 27 82  1  0  0  0  0
 28 31  2  0  0  0  0
 28 81  1  0  0  0  0
 29 80  1  0  0  0  0
 30 83  1  0  0  0  0
 31 84  1  0  0  0  0
 32 63  2  0  0  0  0
 33 64  1  0  0  0  0
 33 68  1  0  0  0  0
 34 35  2  0  0  0  0
 35 37  1  0  0  0  0
 36 69  1  0  0  0  0
 36 74  2  0  0  0  0
 37 59  1  0  0  0  0
 37 75  2  0  0  0  0
 38 52  1  0  0  0  0
 38 71  1  0  0  0  0
 38 76  2  0  0  0  0
 39 60  1  0  0  0  0
 39 65  1  0  0  0  0
 39 77  2  0  0  0  0
 40 61  1  0  0  0  0
 40 72  1  0  0  0  0
 40 78  2  0  0  0  0
 41 66  1  0  0  0  0
 41 70  1  0  0  0  0
 41 79  2  0  0  0  0
 42 45  1  0  0  0  0
 43 52  1  0  0  0  0
 44 65  1  0  0  0  0
 45 47  1  0  0  0  0
 46 48  1  0  0  0  0
 46 49  1  0  0  0  0
 47 51  1  0  0  0  0
 48 53  1  0  0  0  0
 49 66  1  0  0  0  0
 50 53  1  0  0  0  0
 50 66  1  0  0  0  0
 51 71  1  0  0  0  0
 52 65  1  0  0  0  0
 53 64  1  0  0  0  0
 54 61  1  0  0  0  0
 55 62  1  0  0  0  0
 56 62  1  0  0  0  0
 57 62  1  0  0  0  0
 58 73  1  0  0  0  0
 59 82  1  0  0  0  0
 60 62  1  0  0  0  0
 60 72  1  0  0  0  0
 61 73  1  0  0  0  0
 63 64  1  0  0  0  0
M  CHG  1  73   1
M  ISO  4  41 100  59 101  70 100  82 101
M  END
> <Batch ID>
0112

> <Smiles>
CNC(C)C(=O)NC(C(=O)N1Cc2cc([101O:1][101CH2:1]C(=O)C=Cc3cc([100NH:0][100C:0](=O)N4CCCC(n5nc(-c6ccc(Oc7ccc(F)cc7F)cc6)c(C(N)=O)c5N)C4)cc(N)c3O)ccc2CC1C(=O)NC1CCCc2ccccc21)C(C)(C)C

> <Shape>
0.232

> <Color>
0.181

> <Negative vol penalty>
0.000

$$$$

  -OEChem-04052301313D

 87 96  0     1  0  0  0  0  0999 V2000
  -17.2818  -26.5360   22.1769 C   0  0  0  0  0  0  0  0  0  0  0  0
  -18.4578  -25.9902   22.6814 C   0  0  0  0  0  0  0  0  0  0  0  0
  -24.5285   -9.6933   22.5305 C   0  0  0  0  0  0  0  0  0  0  0  0
  -24.5592   -9.2481   20.1561 C   0  0  0  0  0  0  0  0  0  0  0  0
  -31.4611  -19.3636   22.9333 C   0  0  0  0  0  0  0  0  0  0  0  0
  -17.3255  -27.7096   21.4255 C   0  0  0  0  0  0  0  0  0  0  0  0
  -19.6784  -26.6173   22.4338 C   0  0  0  0  0  0  0  0  0  0  0  0
  -24.5030  -26.8976   26.1955 C   0  0  0  0  0  0  0  0  0  0  0  0
  -30.9863  -18.3919   22.0525 C   0  0  0  0  0  0  0  0  0  0  0  0
  -24.2050   -8.3590   22.7765 C   0  0  0  0  0  0  0  0  0  0  0  0
  -24.2358   -7.9138   20.4021 C   0  0  0  0  0  0  0  0  0  0  0  0
  -25.6823  -26.1572   26.2653 C   0  0  0  0  0  0  0  0  0  0  0  0
  -21.4532   -6.4001   22.6538 C   0  0  0  0  0  0  0  0  0  0  0  0
  -20.4416   -6.1391   23.5778 C   0  0  0  0  0  0  0  0  0  0  0  0
  -29.2816  -19.4906   23.9680 C   0  0  0  0  0  0  0  0  0  0  0  0
  -26.8165  -27.8538   24.9791 C   0  0  0  0  0  0  0  0  0  0  0  0
  -22.0029   -4.8905   24.9345 C   0  0  0  0  0  0  0  0  0  0  0  0
  -24.7055  -10.1379   21.2203 C   0  0  0  0  0  0  0  0  0  0  0  0
  -30.6087  -19.9129   23.8912 C   0  0  0  0  0  0  0  0  0  0  0  0
  -24.2834  -12.6521   21.3130 C   0  0  0  0  0  0  0  0  0  0  0  0
  -18.5462  -28.3566   21.1768 C   0  0  0  0  0  0  0  0  0  0  0  0
  -24.4688  -28.1185   25.5066 C   0  0  0  0  0  0  0  0  0  0  0  0
  -19.7387  -27.7999   21.6773 C   0  0  0  0  0  0  0  0  0  0  0  0
  -25.6362  -28.6090   24.9042 C   0  0  0  0  0  0  0  0  0  0  0  0
  -29.6592  -17.9695   22.1293 C   0  0  0  0  0  0  0  0  0  0  0  0
  -24.0587   -7.4692   21.7123 C   0  0  0  0  0  0  0  0  0  0  0  0
  -26.8386  -26.6339   25.6545 C   0  0  0  0  0  0  0  0  0  0  0  0
  -22.7398   -5.9063   22.8700 C   0  0  0  0  0  0  0  0  0  0  0  0
  -20.7164   -5.3843   24.7182 C   0  0  0  0  0  0  0  0  0  0  0  0
  -28.8068  -18.5189   23.0871 C   0  0  0  0  0  0  0  0  0  0  0  0
  -23.0146   -5.1516   24.0104 C   0  0  0  0  0  0  0  0  0  0  0  0
  -25.0391  -11.5163   20.9654 C   0  0  0  0  0  0  0  0  0  0  0  0
  -25.0262  -13.7123   20.8541 C   0  0  0  0  0  0  0  0  0  0  0  0
  -29.6842  -24.0468   23.3539 C   0  0  0  0  0  0  0  0  0  0  0  0
  -29.6993  -24.7799   24.4802 C   0  0  0  0  0  0  0  0  0  0  0  0
  -31.1095  -20.9378   24.8200 C   0  0  0  0  0  0  0  0  0  0  0  0
  -23.0228  -12.7408   21.9902 C   0  0  0  0  0  0  0  0  0  0  0  0
  -22.8893  -29.2247   22.9797 C   0  0  0  0  0  0  0  0  0  0  0  0
  -24.3054  -32.0231   23.8080 C   0  0  0  0  0  0  0  0  0  0  0  0
  -26.8773  -33.6109   25.3927 C   0  0  0  0  0  0  0  0  0  0  0  0
  -29.8957  -16.3381   20.2244 C   0  0  0  0  0  0  0  0  0  0  0  0
  -18.5486  -29.5974   20.3194 C   0  0  0  0  0  0  0  0  0  0  0  0
  -23.1955  -28.9180   25.4633 C   0  0  0  0  0  0  0  0  0  0  0  0
  -25.6572  -29.9238   24.1698 C   0  0  0  0  0  0  0  0  0  0  0  0
  -30.4255  -22.7541   23.1766 C   0  0  0  0  0  0  0  0  0  0  0  0
  -30.5290  -24.3670   25.6671 C   0  0  0  0  0  0  0  0  0  0  0  0
  -19.8410  -30.4038   20.4185 C   0  0  0  0  0  0  0  0  0  0  0  0
  -29.0860  -13.8275   17.8331 C   0  0  0  0  0  0  0  0  0  0  0  0
  -21.0535  -29.4849   20.3069 C   0  0  0  0  0  0  0  0  0  0  0  0
  -27.8988  -13.0958   18.4634 C   0  0  0  0  0  0  0  0  0  0  0  0
  -31.5736  -23.3123   25.3099 C   0  0  0  0  0  0  0  0  0  0  0  0
  -30.1094  -14.2574   18.8826 C   0  0  0  0  0  0  0  0  0  0  0  0
  -28.3748  -14.3041   20.6314 C   0  0  0  0  0  0  0  0  0  0  0  0
  -21.0794  -28.4643   21.4510 C   0  0  1  0  0  0  0  0  0  0  0  0
  -23.1461  -29.9003   24.2971 C   0  0  1  0  0  0  0  0  0  0  0  0
  -27.2860  -13.9086   19.6207 C   0  0  2  0  0  0  0  0  0  0  0  0
  -27.7852  -35.9021   25.8659 C   0  0  0  0  0  0  0  0  0  0  0  0
  -25.3465  -32.1991   20.9453 C   0  0  0  0  0  0  0  0  0  0  0  0
  -26.9761  -33.9354   21.7187 C   0  0  0  0  0  0  0  0  0  0  0  0
  -24.5246  -34.3633   21.8913 C   0  0  0  0  0  0  0  0  0  0  0  0
  -26.6055  -33.2414   28.3165 C   0  0  0  0  0  0  0  0  0  0  0  0
  -28.8995  -26.0391   24.6275 C   0  0  0  0  0  0  0  0  0  1  0  0
  -25.6072  -32.7056   23.4636 C   0  0  1  0  0  0  0  0  0  0  0  0
  -26.8950  -34.7753   26.3666 C   0  0  2  0  0  0  0  0  0  0  0  0
  -25.6130  -33.2751   22.0168 C   0  0  0  0  0  0  0  0  0  0  0  0
  -26.1748  -11.8259   20.3343 N   0  0  0  0  0  0  0  0  0  0  0  0
  -26.1382  -13.1683   20.2816 N   0  0  0  0  0  0  0  0  0  0  0  0
  -31.0079  -22.2814   24.4414 N   0  0  0  0  0  0  0  0  0  0  0  0
  -24.3857  -30.6657   24.1499 N   0  0  0  0  0  0  0  0  0  0  0  0
  -29.4576  -15.0263   19.9451 N   0  0  0  0  0  0  0  0  0  0  0  0
  -24.8302  -15.0475   20.8884 N   0  0  0  0  0  0  0  0  0  0  0  0
  -21.8497  -12.7238   21.2233 N   0  0  0  0  0  0  0  0  0  0  0  0
  -29.1798  -16.9827   21.2326 N   0  0  0  0  0  0  0  0  0  0  0  0
  -21.5497  -29.0846   22.6711 N   0  0  0  0  0  0  0  0  0  0  0  0
  -25.8301  -33.7069   24.5008 N   0  0  0  0  0  0  0  0  0  0  0  0
  -27.4018  -34.3312   27.6958 N   0  3  0  0  0  0  0  0  0  0  0  0
  -31.5939  -20.5275   25.8739 O   0  0  0  0  0  0  0  0  0  0  0  0
  -22.9395  -12.8489   23.2371 O   0  0  0  0  0  0  0  0  0  0  0  0
  -23.8364  -28.8591   22.2934 O   0  0  0  0  0  0  0  0  0  0  0  0
  -23.2569  -32.6723   23.7819 O   0  0  0  0  0  0  0  0  0  0  0  0
  -27.7113  -32.7086   25.4181 O   0  0  0  0  0  0  0  0  0  0  0  0
  -30.8190  -16.8616   19.5956 O   0  0  0  0  0  0  0  0  0  0  0  0
  -23.7433   -6.1670   21.9520 O   0  0  0  0  0  0  0  0  0  0  0  0
  -27.9908  -25.9129   25.7205 O   0  0  0  0  0  0  0  0  0  1  0  0
  -19.7451   -5.1350   25.6063 F   0  0  0  0  0  0  0  0  0  0  0  0
  -27.5290  -18.1211   23.1701 F   0  0  0  0  0  0  0  0  0  0  0  0
  -24.2489   -4.6755   24.2241 F   0  0  0  0  0  0  0  0  0  0  0  0
  1  2  1  0  0  0  0
  1  6  2  0  0  0  0
  2  7  2  0  0  0  0
  3 10  2  0  0  0  0
  3 18  1  0  0  0  0
  4 11  1  0  0  0  0
  4 18  2  0  0  0  0
  5  9  2  0  0  0  0
  5 19  1  0  0  0  0
  6 21  1  0  0  0  0
  7 23  1  0  0  0  0
  8 12  2  0  0  0  0
  8 22  1  0  0  0  0
  9 25  1  0  0  0  0
 10 26  1  0  0  0  0
 11 26  2  0  0  0  0
 12 27  1  0  0  0  0
 13 14  2  0  0  0  0
 13 28  1  0  0  0  0
 14 29  1  0  0  0  0
 15 19  2  0  0  0  0
 15 30  1  0  0  0  0
 16 24  1  0  0  0  0
 16 27  2  0  0  0  0
 17 29  2  0  0  0  0
 17 31  1  0  0  0  0
 18 32  1  0  0  0  0
 19 36  1  0  0  0  0
 20 32  1  0  0  0  0
 20 33  2  0  0  0  0
 20 37  1  0  0  0  0
 21 23  2  0  0  0  0
 21 42  1  0  0  0  0
 22 24  2  0  0  0  0
 22 43  1  0  0  0  0
 23 54  1  0  0  0  0
 24 44  1  0  0  0  0
 25 30  2  0  0  0  0
 25 73  1  0  0  0  0
 26 83  1  0  0  0  0
 27 84  1  0  0  0  0
 28 31  2  0  0  0  0
 28 83  1  0  0  0  0
 29 85  1  0  0  0  0
 30 86  1  0  0  0  0
 31 87  1  0  0  0  0
 32 66  2  0  0  0  0
 33 67  1  0  0  0  0
 33 71  1  0  0  0  0
 34 35  2  0  0  0  0
 34 45  1  0  0  0  0
 35 46  1  0  0  0  0
 35 62  1  0  0  0  0
 36 68  1  0  0  0  0
 36 77  2  0  0  0  0
 37 72  1  0  0  0  0
 37 78  2  0  0  0  0
 38 55  1  0  0  0  0
 38 74  1  0  0  0  0
 38 79  2  0  0  0  0
 39 63  1  0  0  0  0
 39 69  1  0  0  0  0
 39 80  2  0  0  0  0
 40 64  1  0  0  0  0
 40 75  1  0  0  0  0
 40 81  2  0  0  0  0
 41 70  1  0  0  0  0
 41 73  1  0  0  0  0
 41 82  2  0  0  0  0
 42 47  1  0  0  0  0
 43 55  1  0  0  0  0
 44 69  1  0  0  0  0
 45 68  1  0  0  0  0
 46 51  1  0  0  0  0
 47 49  1  0  0  0  0
 48 50  1  0  0  0  0
 48 52  1  0  0  0  0
 49 54  1  0  0  0  0
 50 56  1  0  0  0  0
 51 68  1  0  0  0  0
 52 70  1  0  0  0  0
 53 56  1  0  0  0  0
 53 70  1  0  0  0  0
 54 74  1  0  0  0  0
 55 69  1  0  0  0  0
 56 67  1  0  0  0  0
 57 64  1  0  0  0  0
 58 65  1  0  0  0  0
 59 65  1  0  0  0  0
 60 65  1  0  0  0  0
 61 76  1  0  0  0  0
 62 84  1  0  0  0  0
 63 65  1  0  0  0  0
 63 75  1  0  0  0  0
 64 76  1  0  0  0  0
 66 67  1  0  0  0  0
M  CHG  1  76   1
M  ISO  4  41 100  62 101  73 100  84 101
M  END
> <Batch ID>
0112

> <Smiles>
CNC(C)C(=O)NC(C(=O)N1Cc2cc([101O:1][101CH2:1]C3=CCN(C(=O)c4ccc([100NH:0][100C:0](=O)N5CCCC(n6nc(-c7ccc(Oc8ccc(F)cc8F)cc7)c(C(N)=O)c6N)C5)c(F)c4)CC3)ccc2CC1C(=O)NC1CCCc2ccccc21)C(C)(C)C

> <Shape>
0.271

> <Color>
0.164

> <Negative vol penalty>
0.000

$$$$

  -OEChem-04052301313D

 87 95  0     1  0  0  0  0  0999 V2000
  -23.3028  -21.5799   27.8094 C   0  0  0  0  0  0  0  0  0  0  0  0
  -24.4207  -21.6306   26.9828 C   0  0  0  0  0  0  0  0  0  0  0  0
  -26.0672  -12.7576   19.6039 C   0  0  0  0  0  0  0  0  0  0  0  0
  -25.7006  -14.1355   21.5544 C   0  0  0  0  0  0  0  0  0  0  0  0
  -22.1309  -22.2366   27.4362 C   0  0  0  0  0  0  0  0  0  0  0  0
  -24.3669  -22.3372   25.7819 C   0  0  0  0  0  0  0  0  0  0  0  0
  -28.9175  -25.4823   23.1540 C   0  0  0  0  0  0  0  0  0  0  0  0
  -24.9295  -12.0134   19.9158 C   0  0  0  0  0  0  0  0  0  0  0  0
  -24.5628  -13.3912   21.8662 C   0  0  0  0  0  0  0  0  0  0  0  0
  -29.8079  -25.1644   22.1293 C   0  0  0  0  0  0  0  0  0  0  0  0
  -22.3231   -9.5238   20.3979 C   0  0  0  0  0  0  0  0  0  0  0  0
  -22.4121   -8.1343   20.3143 C   0  0  0  0  0  0  0  0  0  0  0  0
  -28.0518  -21.1971   20.1985 C   0  0  0  0  0  0  0  0  0  0  0  0
  -28.3687  -26.2738   20.5428 C   0  0  0  0  0  0  0  0  0  0  0  0
  -30.3750  -20.5426   20.0935 C   0  0  0  0  0  0  0  0  0  0  0  0
  -24.1689   -8.1471   21.9729 C   0  0  0  0  0  0  0  0  0  0  0  0
  -26.4528  -13.8187   20.4232 C   0  0  0  0  0  0  0  0  0  0  0  0
  -27.8549  -20.3268   21.2705 C   0  0  0  0  0  0  0  0  0  0  0  0
  -28.9182  -19.5644   21.7542 C   0  0  0  0  0  0  0  0  0  0  0  0
  -28.9494  -14.1141   19.9903 C   0  0  0  0  0  0  0  0  0  0  0  0
  -22.0658  -22.9598   26.2348 C   0  0  0  0  0  0  0  0  0  0  0  0
  -27.7387  -26.1901   22.8786 C   0  0  0  0  0  0  0  0  0  0  0  0
  -23.1926  -23.0032   25.3916 C   0  0  0  0  0  0  0  0  0  0  0  0
  -27.4663  -26.6017   21.5661 C   0  0  0  0  0  0  0  0  0  0  0  0
  -30.1782  -19.6722   21.1657 C   0  0  0  0  0  0  0  0  0  0  0  0
  -24.1773  -12.3302   21.0469 C   0  0  0  0  0  0  0  0  0  0  0  0
  -29.5321  -25.5576   20.8230 C   0  0  0  0  0  0  0  0  0  0  0  0
  -23.1570  -10.2250   21.2690 C   0  0  0  0  0  0  0  0  0  0  0  0
  -29.3118  -21.3050   19.6099 C   0  0  0  0  0  0  0  0  0  0  0  0
  -23.3350   -7.4459   21.1018 C   0  0  0  0  0  0  0  0  0  0  0  0
  -24.0799   -9.5366   22.0564 C   0  0  0  0  0  0  0  0  0  0  0  0
  -27.6283  -14.5875   20.1019 C   0  0  0  0  0  0  0  0  0  0  0  0
  -29.6873  -15.2276   19.6707 C   0  0  0  0  0  0  0  0  0  0  0  0
  -28.8336  -19.0157   24.1431 C   0  0  0  0  0  0  0  0  0  0  0  0
  -28.7099  -18.6532   22.8777 C   0  0  0  0  0  0  0  0  0  0  0  0
  -26.5063  -20.2465   21.8600 C   0  0  0  0  0  0  0  0  0  0  0  0
  -29.4636  -12.7865   20.1603 C   0  0  0  0  0  0  0  0  0  0  0  0
  -24.6335  -25.5726   23.1612 C   0  0  0  0  0  0  0  0  0  0  0  0
  -24.3325  -28.6777   22.2721 C   0  0  0  0  0  0  0  0  0  0  0  0
  -25.6826  -31.3810   20.6859 C   0  0  0  0  0  0  0  0  0  0  0  0
  -25.6611  -18.9246   19.9758 C   0  0  0  0  0  0  0  0  0  0  0  0
  -20.7622  -23.6142   25.8511 C   0  0  0  0  0  0  0  0  0  0  0  0
  -26.8017  -26.5485   23.9993 C   0  0  0  0  0  0  0  0  0  0  0  0
  -26.2245  -27.3811   21.2211 C   0  0  0  0  0  0  0  0  0  0  0  0
  -20.9055  -24.6530   24.7418 C   0  0  0  0  0  0  0  0  0  0  0  0
  -27.7599  -18.2303   17.1775 C   0  0  0  0  0  0  0  0  0  0  0  0
  -21.7641  -24.1060   23.6058 C   0  0  0  0  0  0  0  0  0  0  0  0
  -29.1397  -17.9807   17.7798 C   0  0  0  0  0  0  0  0  0  0  0  0
  -27.0201  -19.3197   17.9411 C   0  0  0  0  0  0  0  0  0  0  0  0
  -28.2085  -18.7360   20.0410 C   0  0  0  0  0  0  0  0  0  0  0  0
  -23.1811  -23.7801   24.0930 C   0  0  1  0  0  0  0  0  0  0  0  0
  -25.3792  -26.8259   23.5231 C   0  0  1  0  0  0  0  0  0  0  0  0
  -29.0992  -17.7189   19.2951 C   0  0  1  0  0  0  0  0  0  0  0  0
  -25.8930  -33.7558   19.9026 C   0  0  0  0  0  0  0  0  0  0  0  0
  -22.4566  -27.7320   20.0593 C   0  0  0  0  0  0  0  0  0  0  0  0
  -22.7528  -29.9580   18.9525 C   0  0  0  0  0  0  0  0  0  0  0  0
  -21.7275  -29.8223   21.2225 C   0  0  0  0  0  0  0  0  0  0  0  0
  -24.3703  -18.9726   22.0495 C   0  0  0  0  0  0  0  0  0  0  0  0
  -27.1042  -32.1907   23.1522 C   0  0  0  0  0  0  0  0  0  0  0  0
  -30.7033  -24.0795   17.7319 C   0  0  0  0  0  0  0  0  0  0  0  0
  -29.8461  -25.0582   18.5191 C   0  0  0  0  0  0  0  0  0  1  0  0
  -30.8012  -22.7274   18.4207 C   0  0  0  0  0  0  0  0  0  0  0  0
  -24.2067  -29.4053   20.9554 C   0  0  1  0  0  0  0  0  0  0  0  0
  -25.8191  -32.8326   21.1088 C   0  0  2  0  0  0  0  0  0  0  0  0
  -22.8084  -29.2131   20.3033 C   0  0  0  0  0  0  0  0  0  0  0  0
  -27.5295  -15.8995   19.8721 N   0  0  0  0  0  0  0  0  0  0  0  0
  -28.7980  -16.2601   19.6129 N   0  0  0  0  0  0  0  0  0  0  0  0
  -25.3363  -27.7019   22.3505 N   0  0  0  0  0  0  0  0  0  0  0  0
  -26.9291  -19.0058   19.3663 N   0  0  0  0  0  0  0  0  0  0  0  0
  -31.2757  -18.9130   21.6331 N   0  0  0  0  0  0  0  0  0  0  0  0
  -31.0035  -15.4145   19.4365 N   0  0  0  0  0  0  0  0  0  0  0  0
  -29.8845  -12.3915   21.4374 N   0  0  0  0  0  0  0  0  0  0  0  0
  -23.9629  -24.9913   24.2204 N   0  0  0  0  0  0  0  0  0  0  0  0
  -24.5551  -30.7965   21.2229 N   0  0  0  0  0  0  0  0  0  0  0  0
  -25.6043  -19.2999   21.3339 N   0  0  0  0  0  0  0  0  0  0  0  0
  -27.0539  -33.0214   21.9215 N   0  3  0  0  0  0  0  0  0  0  0  0
  -26.2653  -21.0132   22.7921 O   0  0  0  0  0  0  0  0  0  0  0  0
  -29.5626  -11.9802   19.2045 O   0  0  0  0  0  0  0  0  0  0  0  0
  -24.6631  -25.1641   22.0063 O   0  0  0  0  0  0  0  0  0  0  0  0
  -23.5730  -28.9694   23.1992 O   0  0  0  0  0  0  0  0  0  0  0  0
  -26.4930  -30.8227   19.9497 O   0  0  0  0  0  0  0  0  0  0  0  0
  -24.6475  -18.5716   19.3623 O   0  0  0  0  0  0  0  0  0  0  0  0
  -23.0669  -11.6044   21.3514 O   0  0  0  0  0  0  0  0  0  0  0  0
  -30.3991  -25.2480   19.8209 O   0  0  0  0  0  0  0  0  0  1  0  0
  -29.5052  -22.1602   18.5564 O   0  0  0  0  0  0  0  0  0  0  0  0
  -23.4193   -6.1115   21.0225 F   0  0  0  0  0  0  0  0  0  0  0  0
  -24.8828  -10.2046   22.8960 F   0  0  0  0  0  0  0  0  0  0  0  0
  1  2  1  0  0  0  0
  1  5  2  0  0  0  0
  2  6  2  0  0  0  0
  3  8  2  0  0  0  0
  3 17  1  0  0  0  0
  4  9  1  0  0  0  0
  4 17  2  0  0  0  0
  5 21  1  0  0  0  0
  6 23  1  0  0  0  0
  7 10  2  0  0  0  0
  7 22  1  0  0  0  0
  8 26  1  0  0  0  0
  9 26  2  0  0  0  0
 10 27  1  0  0  0  0
 11 12  2  0  0  0  0
 11 28  1  0  0  0  0
 12 30  1  0  0  0  0
 13 18  1  0  0  0  0
 13 29  2  0  0  0  0
 14 24  1  0  0  0  0
 14 27  2  0  0  0  0
 15 25  2  0  0  0  0
 15 29  1  0  0  0  0
 16 30  2  0  0  0  0
 16 31  1  0  0  0  0
 17 32  1  0  0  0  0
 18 19  2  0  0  0  0
 18 36  1  0  0  0  0
 19 25  1  0  0  0  0
 19 35  1  0  0  0  0
 20 32  1  0  0  0  0
 20 33  2  0  0  0  0
 20 37  1  0  0  0  0
 21 23  2  0  0  0  0
 21 42  1  0  0  0  0
 22 24  2  0  0  0  0
 22 43  1  0  0  0  0
 23 51  1  0  0  0  0
 24 44  1  0  0  0  0
 25 70  1  0  0  0  0
 26 83  1  0  0  0  0
 27 84  1  0  0  0  0
 28 31  2  0  0  0  0
 28 83  1  0  0  0  0
 29 85  1  0  0  0  0
 30 86  1  0  0  0  0
 31 87  1  0  0  0  0
 32 66  2  0  0  0  0
 33 67  1  0  0  0  0
 33 71  1  0  0  0  0
 34 35  2  0  0  0  0
 36 75  1  0  0  0  0
 36 77  2  0  0  0  0
 37 72  1  0  0  0  0
 37 78  2  0  0  0  0
 38 52  1  0  0  0  0
 38 73  1  0  0  0  0
 38 79  2  0  0  0  0
 39 63  1  0  0  0  0
 39 68  1  0  0  0  0
 39 80  2  0  0  0  0
 40 64  1  0  0  0  0
 40 74  1  0  0  0  0
 40 81  2  0  0  0  0
 41 69  1  0  0  0  0
 41 75  1  0  0  0  0
 41 82  2  0  0  0  0
 42 45  1  0  0  0  0
 43 52  1  0  0  0  0
 44 68  1  0  0  0  0
 45 47  1  0  0  0  0
 46 48  1  0  0  0  0
 46 49  1  0  0  0  0
 47 51  1  0  0  0  0
 48 53  1  0  0  0  0
 49 69  1  0  0  0  0
 50 53  1  0  0  0  0
 50 69  1  0  0  0  0
 51 73  1  0  0  0  0
 52 68  1  0  0  0  0
 53 67  1  0  0  0  0
 54 64  1  0  0  0  0
 55 65  1  0  0  0  0
 56 65  1  0  0  0  0
 57 65  1  0  0  0  0
 58 75  1  0  0  0  0
 59 76  1  0  0  0  0
 60 61  1  0  0  0  0
 60 62  1  0  0  0  0
 61 84  1  0  0  0  0
 62 85  1  0  0  0  0
 63 65  1  0  0  0  0
 63 74  1  0  0  0  0
 64 76  1  0  0  0  0
 66 67  1  0  0  0  0
M  CHG  1  76   1
M  ISO  4  41 100  61 101  75 100  84 101
M  END
> <Batch ID>
0112

> <Smiles>
C=Cc1c(N)cc(OCC[101CH2:1][101O:1]c2ccc3c(c2)CN(C(=O)C(NC(=O)C(C)NC)C(C)(C)C)C(C(=O)NC2CCCc4ccccc42)C3)cc1C(=O)[100N:0](C)[100C:0](=O)N1CCCC(n2nc(-c3ccc(Oc4ccc(F)cc4F)cc3)c(C(N)=O)c2N)C1

> <Shape>
0.260

> <Color>
0.073

> <Negative vol penalty>
0.000

$$$$

  -OEChem-04052301313D

 89 98  0     1  0  0  0  0  0999 V2000
  -18.4018  -32.0169   25.3774 C   0  0  0  0  0  0  0  0  0  0  0  0
  -19.7647  -32.2168   25.1829 C   0  0  0  0  0  0  0  0  0  0  0  0
  -23.9107  -12.9772   20.4931 C   0  0  0  0  0  0  0  0  0  0  0  0
  -26.2296  -13.2968   21.0912 C   0  0  0  0  0  0  0  0  0  0  0  0
  -17.8253  -30.7894   25.0538 C   0  0  0  0  0  0  0  0  0  0  0  0
  -20.5522  -31.1888   24.6656 C   0  0  0  0  0  0  0  0  0  0  0  0
  -26.2965  -30.0991   20.5266 C   0  0  0  0  0  0  0  0  0  0  0  0
  -24.1218  -11.6010   20.4102 C   0  0  0  0  0  0  0  0  0  0  0  0
  -26.4406  -11.9205   21.0083 C   0  0  0  0  0  0  0  0  0  0  0  0
  -27.5209  -29.4323   20.5372 C   0  0  0  0  0  0  0  0  0  0  0  0
  -23.9638   -7.9692   20.3934 C   0  0  0  0  0  0  0  0  0  0  0  0
  -23.0166   -7.1312   20.9818 C   0  0  0  0  0  0  0  0  0  0  0  0
  -27.9421  -24.3175   22.5212 C   0  0  0  0  0  0  0  0  0  0  0  0
  -26.4017  -27.3805   19.9400 C   0  0  0  0  0  0  0  0  0  0  0  0
  -29.3772  -24.2338   20.5794 C   0  0  0  0  0  0  0  0  0  0  0  0
  -23.4485   -8.1507   23.1292 C   0  0  0  0  0  0  0  0  0  0  0  0
  -24.9646  -13.8252   20.8336 C   0  0  0  0  0  0  0  0  0  0  0  0
  -27.1261  -23.3349   21.9605 C   0  0  0  0  0  0  0  0  0  0  0  0
  -24.3536  -15.9802   22.0543 C   0  0  0  0  0  0  0  0  0  0  0  0
  -18.6043  -29.7491   24.5232 C   0  0  0  0  0  0  0  0  0  0  0  0
  -25.1122  -29.4081   20.2328 C   0  0  0  0  0  0  0  0  0  0  0  0
  -19.9858  -29.9458   24.3358 C   0  0  0  0  0  0  0  0  0  0  0  0
  -25.1640  -28.0414   19.9238 C   0  0  0  0  0  0  0  0  0  0  0  0
  -29.0676  -24.7670   21.8306 C   0  0  0  0  0  0  0  0  0  0  0  0
  -27.4357  -22.8017   20.7093 C   0  0  0  0  0  0  0  0  0  0  0  0
  -25.3867  -11.0726   20.6678 C   0  0  0  0  0  0  0  0  0  0  0  0
  -27.5733  -28.0722   20.2468 C   0  0  0  0  0  0  0  0  0  0  0  0
  -24.6535   -8.8979   21.1729 C   0  0  0  0  0  0  0  0  0  0  0  0
  -28.5613  -23.2512   20.0187 C   0  0  0  0  0  0  0  0  0  0  0  0
  -22.7589   -7.2219   22.3496 C   0  0  0  0  0  0  0  0  0  0  0  0
  -24.3958   -8.9886   22.5408 C   0  0  0  0  0  0  0  0  0  0  0  0
  -24.7474  -15.2470   20.9189 C   0  0  0  0  0  0  0  0  0  0  0  0
  -24.2879  -17.2807   21.6174 C   0  0  0  0  0  0  0  0  0  0  0  0
  -30.1235  -25.9911   23.7840 C   0  0  0  0  0  0  0  0  0  0  0  0
  -24.9570  -23.6911   23.0482 C   0  0  0  0  0  0  0  0  0  0  0  0
  -25.9580  -22.8922   22.7130 C   0  0  0  0  0  0  0  0  0  0  0  0
  -24.0725  -15.5264   23.3849 C   0  0  0  0  0  0  0  0  0  0  0  0
  -22.4260  -28.7873   21.8147 C   0  0  0  0  0  0  0  0  0  0  0  0
  -21.4943  -27.5471   18.9657 C   0  0  0  0  0  0  0  0  0  0  0  0
  -22.3893  -26.1913   15.9645 C   0  0  0  0  0  0  0  0  0  0  0  0
  -26.3979  -21.5748   18.7692 C   0  0  0  0  0  0  0  0  0  0  0  0
  -17.9451  -28.4240   24.2327 C   0  0  0  0  0  0  0  0  0  0  0  0
  -23.8029  -30.1476   20.1992 C   0  0  0  0  0  0  0  0  0  0  0  0
  -23.9238  -27.2581   19.5820 C   0  0  0  0  0  0  0  0  0  0  0  0
  -31.0923  -27.1423   23.9171 C   0  0  0  0  0  0  0  0  0  0  0  0
  -18.7803  -27.5112   23.3386 C   0  0  0  0  0  0  0  0  0  0  0  0
  -31.7430  -27.2163   22.5488 C   0  0  0  0  0  0  0  0  0  0  0  0
  -24.4837  -19.1970   16.9364 C   0  0  0  0  0  0  0  0  0  0  0  0
  -20.2275  -27.4719   23.8192 C   0  0  0  0  0  0  0  0  0  0  0  0
  -24.3493  -18.0177   17.9025 C   0  0  0  0  0  0  0  0  0  0  0  0
  -25.8516  -19.8681   17.0476 C   0  0  0  0  0  0  0  0  0  0  0  0
  -26.1023  -19.0919   19.3723 C   0  0  0  0  0  0  0  0  0  0  0  0
  -20.8686  -28.8633   23.7536 C   0  0  1  0  0  0  0  0  0  0  0  0
  -22.5958  -29.2344   20.3903 C   0  0  1  0  0  0  0  0  0  0  0  0
  -24.7177  -18.4243   19.3429 C   0  0  2  0  0  0  0  0  0  0  0  0
  -30.6474  -26.7413   21.6009 C   0  0  2  0  0  0  0  0  0  0  0  0
  -30.0567  -21.0151   17.6270 C   0  0  0  0  0  0  0  0  0  0  0  0
  -21.4057  -25.2403   13.8608 C   0  0  0  0  0  0  0  0  0  0  0  0
  -20.8119  -24.9713   20.4521 C   0  0  0  0  0  0  0  0  0  0  0  0
  -20.7537  -23.7943   18.2432 C   0  0  0  0  0  0  0  0  0  0  0  0
  -19.1467  -25.6439   18.7116 C   0  0  0  0  0  0  0  0  0  0  0  0
  -23.6650  -28.2714   14.2898 C   0  0  0  0  0  0  0  0  0  0  0  0
  -29.7681  -27.9090   21.1480 C   0  0  0  0  0  0  0  0  0  1  0  0
  -30.1524  -22.1051   18.6731 C   0  0  0  0  0  0  0  0  0  0  0  0
  -21.5825  -26.1900   18.3104 C   0  0  1  0  0  0  0  0  0  0  0  0
  -21.9329  -26.4904   14.5479 C   0  0  2  0  0  0  0  0  0  0  0  0
  -20.5970  -25.1639   18.9376 C   0  0  0  0  0  0  0  0  0  0  0  0
  -24.9195  -16.0177   19.8416 N   0  0  0  0  0  0  0  0  0  0  0  0
  -24.6325  -17.2487   20.2982 N   0  0  0  0  0  0  0  0  0  0  0  0
  -29.9063  -25.7747   22.4065 N   0  0  0  0  0  0  0  0  0  0  0  0
  -22.6668  -28.0245   19.5685 N   0  0  0  0  0  0  0  0  0  0  0  0
  -26.1305  -20.2293   18.4393 N   0  0  0  0  0  0  0  0  0  0  0  0
  -23.9695  -18.4372   22.2369 N   0  0  0  0  0  0  0  0  0  0  0  0
  -24.1888  -14.1575   23.6625 N   0  0  0  0  0  0  0  0  0  0  0  0
  -26.6162  -21.8029   20.1275 N   0  0  0  0  0  0  0  0  0  0  0  0
  -21.2357  -29.1870   22.3917 N   0  0  0  0  0  0  0  0  0  0  0  0
  -21.3844  -26.4127   16.8823 N   0  0  0  0  0  0  0  0  0  0  0  0
  -23.0652  -27.0278   13.7415 N   0  3  0  0  0  0  0  0  0  0  0  0
  -29.6428  -25.4296   24.7577 O   0  0  0  0  0  0  0  0  0  0  0  0
  -23.7124  -16.3092   24.2966 O   0  0  0  0  0  0  0  0  0  0  0  0
  -23.3088  -28.1272   22.3501 O   0  0  0  0  0  0  0  0  0  0  0  0
  -20.4266  -28.1642   18.9374 O   0  0  0  0  0  0  0  0  0  0  0  0
  -23.5227  -25.7969   16.2299 O   0  0  0  0  0  0  0  0  0  0  0  0
  -26.4040  -22.4638   17.9139 O   0  0  0  0  0  0  0  0  0  0  0  0
  -25.5930   -9.7296   20.5872 O   0  0  0  0  0  0  0  0  0  0  0  0
  -28.7669  -27.4188   20.2571 O   0  0  0  0  0  0  0  0  0  1  0  0
  -28.8839  -22.7446   18.7948 O   0  0  0  0  0  0  0  0  0  0  0  0
  -21.8482   -6.4182   22.9142 F   0  0  0  0  0  0  0  0  0  0  0  0
  -25.0543   -9.8797   23.2946 F   0  0  0  0  0  0  0  0  0  0  0  0
  1  2  1  0  0  0  0
  1  5  2  0  0  0  0
  2  6  2  0  0  0  0
  3  8  2  0  0  0  0
  3 17  1  0  0  0  0
  4  9  1  0  0  0  0
  4 17  2  0  0  0  0
  5 20  1  0  0  0  0
  6 22  1  0  0  0  0
  7 10  2  0  0  0  0
  7 21  1  0  0  0  0
  8 26  1  0  0  0  0
  9 26  2  0  0  0  0
 10 27  1  0  0  0  0
 11 12  2  0  0  0  0
 11 28  1  0  0  0  0
 12 30  1  0  0  0  0
 13 18  1  0  0  0  0
 13 24  2  0  0  0  0
 14 23  1  0  0  0  0
 14 27  2  0  0  0  0
 15 24  1  0  0  0  0
 15 29  2  0  0  0  0
 16 30  2  0  0  0  0
 16 31  1  0  0  0  0
 17 32  1  0  0  0  0
 18 25  2  0  0  0  0
 18 36  1  0  0  0  0
 19 32  1  0  0  0  0
 19 33  2  0  0  0  0
 19 37  1  0  0  0  0
 20 22  2  0  0  0  0
 20 42  1  0  0  0  0
 21 23  2  0  0  0  0
 21 43  1  0  0  0  0
 22 53  1  0  0  0  0
 23 44  1  0  0  0  0
 24 70  1  0  0  0  0
 25 29  1  0  0  0  0
 25 75  1  0  0  0  0
 26 85  1  0  0  0  0
 27 86  1  0  0  0  0
 28 31  2  0  0  0  0
 28 85  1  0  0  0  0
 29 87  1  0  0  0  0
 30 88  1  0  0  0  0
 31 89  1  0  0  0  0
 32 68  2  0  0  0  0
 33 69  1  0  0  0  0
 33 73  1  0  0  0  0
 34 45  1  0  0  0  0
 34 70  1  0  0  0  0
 34 79  2  0  0  0  0
 35 36  2  0  0  0  0
 37 74  1  0  0  0  0
 37 80  2  0  0  0  0
 38 54  1  0  0  0  0
 38 76  1  0  0  0  0
 38 81  2  0  0  0  0
 39 65  1  0  0  0  0
 39 71  1  0  0  0  0
 39 82  2  0  0  0  0
 40 66  1  0  0  0  0
 40 77  1  0  0  0  0
 40 83  2  0  0  0  0
 41 72  1  0  0  0  0
 41 75  1  0  0  0  0
 41 84  2  0  0  0  0
 42 46  1  0  0  0  0
 43 54  1  0  0  0  0
 44 71  1  0  0  0  0
 45 47  1  0  0  0  0
 46 49  1  0  0  0  0
 47 56  1  0  0  0  0
 48 50  1  0  0  0  0
 48 51  1  0  0  0  0
 49 53  1  0  0  0  0
 50 55  1  0  0  0  0
 51 72  1  0  0  0  0
 52 55  1  0  0  0  0
 52 72  1  0  0  0  0
 53 76  1  0  0  0  0
 54 71  1  0  0  0  0
 55 69  1  0  0  0  0
 56 63  1  0  0  0  0
 56 70  1  0  0  0  0
 57 64  1  0  0  0  0
 58 66  1  0  0  0  0
 59 67  1  0  0  0  0
 60 67  1  0  0  0  0
 61 67  1  0  0  0  0
 62 78  1  0  0  0  0
 63 86  1  0  0  0  0
 64 87  1  0  0  0  0
 65 67  1  0  0  0  0
 65 77  1  0  0  0  0
 66 78  1  0  0  0  0
 68 69  1  0  0  0  0
M  CHG  1  78   1
M  ISO  4  41 100  63 101  75 100  86 101
M  END
> <Batch ID>
0112

> <Smiles>
C=Cc1cc(N2C(=O)CCC2[101CH2:1][101O:1]c2ccc3c(c2)CN(C(=O)C(NC(=O)C(C)NC)C(C)(C)C)C(C(=O)NC2CCCc4ccccc42)C3)cc(OCC)c1[100NH:0][100C:0](=O)N1CCCC(n2nc(-c3ccc(Oc4ccc(F)cc4F)cc3)c(C(N)=O)c2N)C1

> <Shape>
0.224

> <Color>
0.091

> <Negative vol penalty>
0.000

$$$$

  -OEChem-04052301313D

 85 93  0     1  0  0  0  0  0999 V2000
  -30.3667  -12.4216   19.4384 C   0  0  0  0  0  0  0  0  0  0  0  0
  -30.1021  -13.7860   19.5007 C   0  0  0  0  0  0  0  0  0  0  0  0
  -29.5856  -24.9068   20.7785 C   0  0  0  0  0  0  0  0  0  0  0  0
  -29.5450  -25.5647   18.4541 C   0  0  0  0  0  0  0  0  0  0  0  0
  -29.3145  -11.5071   19.4578 C   0  0  0  0  0  0  0  0  0  0  0  0
  -28.7850  -14.2367   19.5814 C   0  0  0  0  0  0  0  0  0  0  0  0
  -24.8536  -19.5138   22.4119 C   0  0  0  0  0  0  0  0  0  0  0  0
  -30.0422  -23.6408   20.4122 C   0  0  0  0  0  0  0  0  0  0  0  0
  -30.0016  -24.2986   18.0878 C   0  0  0  0  0  0  0  0  0  0  0  0
  -23.9104  -20.4716   22.0421 C   0  0  0  0  0  0  0  0  0  0  0  0
  -28.7324  -20.7862   19.1629 C   0  0  0  0  0  0  0  0  0  0  0  0
  -28.1329  -19.6818   19.7682 C   0  0  0  0  0  0  0  0  0  0  0  0
  -20.6407  -27.3405   22.8154 C   0  0  0  0  0  0  0  0  0  0  0  0
  -22.1771  -18.7972   22.1482 C   0  0  0  0  0  0  0  0  0  0  0  0
  -18.3497  -27.1841   22.0644 C   0  0  0  0  0  0  0  0  0  0  0  0
  -30.2732  -19.0128   20.6675 C   0  0  0  0  0  0  0  0  0  0  0  0
  -29.3370  -25.8688   19.7994 C   0  0  0  0  0  0  0  0  0  0  0  0
  -20.6107  -28.7212   22.6195 C   0  0  0  0  0  0  0  0  0  0  0  0
  -19.4501  -29.3334   22.1461 C   0  0  0  0  0  0  0  0  0  0  0  0
  -29.6462  -28.3070   20.4832 C   0  0  0  0  0  0  0  0  0  0  0  0
  -27.9843  -11.9464   19.5485 C   0  0  0  0  0  0  0  0  0  0  0  0
  -24.4666  -18.1858   22.6425 C   0  0  0  0  0  0  0  0  0  0  0  0
  -27.7139  -13.3272   19.6006 C   0  0  0  0  0  0  0  0  0  0  0  0
  -23.1169  -17.8250   22.5234 C   0  0  0  0  0  0  0  0  0  0  0  0
  -18.3196  -28.5648   21.8685 C   0  0  0  0  0  0  0  0  0  0  0  0
  -30.2502  -23.3366   19.0668 C   0  0  0  0  0  0  0  0  0  0  0  0
  -22.5724  -20.1128   21.9073 C   0  0  0  0  0  0  0  0  0  0  0  0
  -30.1024  -21.0040   19.3099 C   0  0  0  0  0  0  0  0  0  0  0  0
  -19.5102  -26.5719   22.5377 C   0  0  0  0  0  0  0  0  0  0  0  0
  -28.9032  -18.7951   20.5205 C   0  0  0  0  0  0  0  0  0  0  0  0
  -30.8727  -20.1173   20.0622 C   0  0  0  0  0  0  0  0  0  0  0  0
  -28.8648  -27.1767   20.1771 C   0  0  0  0  0  0  0  0  0  0  0  0
  -28.7308  -29.2882   20.7760 C   0  0  0  0  0  0  0  0  0  0  0  0
  -19.7237  -31.3607   20.7933 C   0  0  0  0  0  0  0  0  0  0  0  0
  -19.4206  -30.7802   21.9418 C   0  0  0  0  0  0  0  0  0  0  0  0
  -21.8166  -29.4839   22.9233 C   0  0  0  0  0  0  0  0  0  0  0  0
  -31.0720  -28.4566   20.5011 C   0  0  0  0  0  0  0  0  0  0  0  0
  -23.1581  -28.8824   22.7847 C   0  0  0  0  0  0  0  0  0  0  0  0
  -25.1691  -15.3826   21.3188 C   0  0  0  0  0  0  0  0  0  0  0  0
  -23.3915  -14.2197   23.7704 C   0  0  0  0  0  0  0  0  0  0  0  0
  -20.9474  -14.7631   26.0894 C   0  0  0  0  0  0  0  0  0  0  0  0
  -26.8778  -10.9220   19.5185 C   0  0  0  0  0  0  0  0  0  0  0  0
  -25.4919  -17.1704   23.0668 C   0  0  0  0  0  0  0  0  0  0  0  0
  -22.6468  -16.4172   22.7795 C   0  0  0  0  0  0  0  0  0  0  0  0
  -25.5300  -11.4675   19.9834 C   0  0  0  0  0  0  0  0  0  0  0  0
  -24.2756  -30.6808   19.7932 C   0  0  0  0  0  0  0  0  0  0  0  0
  -25.2430  -12.8132   19.3251 C   0  0  0  0  0  0  0  0  0  0  0  0
  -25.6426  -30.0428   19.5605 C   0  0  0  0  0  0  0  0  0  0  0  0
  -23.2686  -29.6831   20.3633 C   0  0  0  0  0  0  0  0  0  0  0  0
  -25.1085  -28.3638   21.3705 C   0  0  0  0  0  0  0  0  0  0  0  0
  -26.2998  -13.8541   19.7138 C   0  0  1  0  0  0  0  0  0  0  0  0
  -25.0667  -15.7344   22.7760 C   0  0  1  0  0  0  0  0  0  0  0  0
  -26.1504  -29.3616   20.8412 C   0  0  1  0  0  0  0  0  0  0  0  0
  -19.6859  -13.6125   27.9285 C   0  0  0  0  0  0  0  0  0  0  0  0
  -21.7333  -12.7220   21.6926 C   0  0  0  0  0  0  0  0  0  0  0  0
  -19.9737  -12.3853   23.4415 C   0  0  0  0  0  0  0  0  0  0  0  0
  -22.2479  -11.4107   23.7590 C   0  0  0  0  0  0  0  0  0  0  0  0
  -21.9302  -16.6789   28.1199 C   0  0  0  0  0  0  0  0  0  0  0  0
  -20.5845  -23.1314   22.1255 C   0  0  0  0  0  0  0  0  0  0  0  0
  -21.9013  -22.3941   21.9391 C   0  0  0  0  0  0  0  0  0  1  0  0
  -20.7961  -24.5715   22.5654 C   0  0  0  0  0  0  0  0  0  0  0  0
  -21.9286  -13.9092   23.9769 C   0  0  1  0  0  0  0  0  0  0  0  0
  -20.8895  -14.4738   27.5785 C   0  0  2  0  0  0  0  0  0  0  0  0
  -21.4797  -12.6330   23.2107 C   0  0  0  0  0  0  0  0  0  0  0  0
  -27.5539  -27.4163   20.2673 N   0  0  0  0  0  0  0  0  0  0  0  0
  -21.7928  -30.7227   23.3273 N   0  0  0  0  0  0  0  0  0  0  0  0
  -27.5045  -28.7084   20.6334 N   0  0  0  0  0  0  0  0  0  0  0  0
  -23.8002  -29.0022   21.5535 N   0  0  0  0  0  0  0  0  0  0  0  0
  -23.6882  -15.4591   23.1859 N   0  0  0  0  0  0  0  0  0  0  0  0
  -17.1285  -29.1558   21.3877 N   0  0  0  0  0  0  0  0  0  0  0  0
  -28.8633  -30.5816   21.1390 N   0  0  0  0  0  0  0  0  0  0  0  0
  -31.8644  -27.3477   20.1742 N   0  0  0  0  0  0  0  0  0  0  0  0
  -26.0505  -14.3531   21.0492 N   0  0  0  0  0  0  0  0  0  0  0  0
  -21.7254  -13.8423   25.4201 N   0  0  0  0  0  0  0  0  0  0  0  0
  -20.7976  -15.7455   28.3501 N   0  3  0  0  0  0  0  0  0  0  0  0
  -31.6273  -29.5370   20.8141 O   0  0  0  0  0  0  0  0  0  0  0  0
  -23.6270  -28.3055   23.7675 O   0  0  0  0  0  0  0  0  0  0  0  0
  -24.4971  -15.9985   20.4999 O   0  0  0  0  0  0  0  0  0  0  0  0
  -24.2400  -13.3960   24.1214 O   0  0  0  0  0  0  0  0  0  0  0  0
  -20.3582  -15.7091   25.5712 O   0  0  0  0  0  0  0  0  0  0  0  0
  -30.6960  -22.1014   18.7091 O   0  0  0  0  0  0  0  0  0  0  0  0
  -21.6499  -21.0456   21.5458 O   0  0  0  0  0  0  0  0  0  1  0  0
  -19.5398  -25.2152   22.7301 O   0  0  0  0  0  0  0  0  0  0  0  0
  -28.3271  -17.7354   21.1029 F   0  0  0  0  0  0  0  0  0  0  0  0
  -32.1890  -20.3219   20.2080 F   0  0  0  0  0  0  0  0  0  0  0  0
  1  2  1  0  0  0  0
  1  5  2  0  0  0  0
  2  6  2  0  0  0  0
  3  8  2  0  0  0  0
  3 17  1  0  0  0  0
  4  9  1  0  0  0  0
  4 17  2  0  0  0  0
  5 21  1  0  0  0  0
  6 23  1  0  0  0  0
  7 10  2  0  0  0  0
  7 22  1  0  0  0  0
  8 26  1  0  0  0  0
  9 26  2  0  0  0  0
 10 27  1  0  0  0  0
 11 12  2  0  0  0  0
 11 28  1  0  0  0  0
 12 30  1  0  0  0  0
 13 18  1  0  0  0  0
 13 29  2  0  0  0  0
 14 24  1  0  0  0  0
 14 27  2  0  0  0  0
 15 25  2  0  0  0  0
 15 29  1  0  0  0  0
 16 30  2  0  0  0  0
 16 31  1  0  0  0  0
 17 32  1  0  0  0  0
 18 19  2  0  0  0  0
 18 36  1  0  0  0  0
 19 25  1  0  0  0  0
 19 35  1  0  0  0  0
 20 32  1  0  0  0  0
 20 33  2  0  0  0  0
 20 37  1  0  0  0  0
 21 23  2  0  0  0  0
 21 42  1  0  0  0  0
 22 24  2  0  0  0  0
 22 43  1  0  0  0  0
 23 51  1  0  0  0  0
 24 44  1  0  0  0  0
 25 70  1  0  0  0  0
 26 81  1  0  0  0  0
 27 82  1  0  0  0  0
 28 31  2  0  0  0  0
 28 81  1  0  0  0  0
 29 83  1  0  0  0  0
 30 84  1  0  0  0  0
 31 85  1  0  0  0  0
 32 65  2  0  0  0  0
 33 67  1  0  0  0  0
 33 71  1  0  0  0  0
 34 35  2  0  0  0  0
 36 38  1  0  0  0  0
 36 66  2  0  0  0  0
 37 72  1  0  0  0  0
 37 76  2  0  0  0  0
 38 68  1  0  0  0  0
 38 77  2  0  0  0  0
 39 52  1  0  0  0  0
 39 73  1  0  0  0  0
 39 78  2  0  0  0  0
 40 62  1  0  0  0  0
 40 69  1  0  0  0  0
 40 79  2  0  0  0  0
 41 63  1  0  0  0  0
 41 74  1  0  0  0  0
 41 80  2  0  0  0  0
 42 45  1  0  0  0  0
 43 52  1  0  0  0  0
 44 69  1  0  0  0  0
 45 47  1  0  0  0  0
 46 48  1  0  0  0  0
 46 49  1  0  0  0  0
 47 51  1  0  0  0  0
 48 53  1  0  0  0  0
 49 68  1  0  0  0  0
 50 53  1  0  0  0  0
 50 68  1  0  0  0  0
 51 73  1  0  0  0  0
 52 69  1  0  0  0  0
 53 67  1  0  0  0  0
 54 63  1  0  0  0  0
 55 64  1  0  0  0  0
 56 64  1  0  0  0  0
 57 64  1  0  0  0  0
 58 75  1  0  0  0  0
 59 60  1  0  0  0  0
 59 61  1  0  0  0  0
 60 82  1  0  0  0  0
 61 83  1  0  0  0  0
 62 64  1  0  0  0  0
 62 74  1  0  0  0  0
 63 75  1  0  0  0  0
 65 67  1  0  0  0  0
M  CHG  1  75   1
M  ISO  4  36 100  38 100  60 101  82 101
M  END
> <Batch ID>
0112

> <Smiles>
C=Cc1c(N)cc(OCC[101CH2:1][101O:1]c2ccc3c(c2)CN(C(=O)C(NC(=O)C(C)NC)C(C)(C)C)C(C(=O)NC2CCCc4ccccc42)C3)cc1[100C:0](=N)[100C:0](=O)N1CCCC(n2nc(-c3ccc(Oc4ccc(F)cc4F)cc3)c(C(N)=O)c2N)C1

> <Shape>
0.273

> <Color>
0.071

> <Negative vol penalty>
0.000

$$$$

  -OEChem-04052301313D

 88 97  0     1  0  0  0  0  0999 V2000
  -18.8838  -28.1701   22.4163 C   0  0  0  0  0  0  0  0  0  0  0  0
  -19.9404  -28.0253   21.5230 C   0  0  0  0  0  0  0  0  0  0  0  0
  -27.3198  -11.3869   20.6690 C   0  0  0  0  0  0  0  0  0  0  0  0
  -26.6512  -12.8522   18.8682 C   0  0  0  0  0  0  0  0  0  0  0  0
  -18.7172  -27.2515   23.4518 C   0  0  0  0  0  0  0  0  0  0  0  0
  -20.8316  -26.9623   21.6653 C   0  0  0  0  0  0  0  0  0  0  0  0
  -23.6345  -23.8817   17.1754 C   0  0  0  0  0  0  0  0  0  0  0  0
  -29.3920  -23.4507   19.7784 C   0  0  0  0  0  0  0  0  0  0  0  0
  -29.5243  -22.2790   20.5235 C   0  0  0  0  0  0  0  0  0  0  0  0
  -26.2392  -10.5504   20.3896 C   0  0  0  0  0  0  0  0  0  0  0  0
  -25.5706  -12.0156   18.5887 C   0  0  0  0  0  0  0  0  0  0  0  0
  -24.9128  -23.9788   16.6273 C   0  0  0  0  0  0  0  0  0  0  0  0
  -22.9121  -10.4976   20.9827 C   0  0  0  0  0  0  0  0  0  0  0  0
  -22.1551  -10.0364   22.0597 C   0  0  0  0  0  0  0  0  0  0  0  0
  -30.0257  -22.2510   17.7793 C   0  0  0  0  0  0  0  0  0  0  0  0
  -25.6603  -22.1960   18.0702 C   0  0  0  0  0  0  0  0  0  0  0  0
  -22.6907   -7.7579   21.4604 C   0  0  0  0  0  0  0  0  0  0  0  0
  -27.5258  -12.5379   19.9083 C   0  0  0  0  0  0  0  0  0  0  0  0
  -30.1579  -21.0793   18.5244 C   0  0  0  0  0  0  0  0  0  0  0  0
  -29.9382  -13.3273   19.6539 C   0  0  0  0  0  0  0  0  0  0  0  0
  -19.6011  -26.1712   23.6012 C   0  0  0  0  0  0  0  0  0  0  0  0
  -23.3618  -22.9468   18.1844 C   0  0  0  0  0  0  0  0  0  0  0  0
  -20.6774  -26.0292   22.7046 C   0  0  0  0  0  0  0  0  0  0  0  0
  -24.3772  -22.0872   18.6276 C   0  0  0  0  0  0  0  0  0  0  0  0
  -29.6427  -23.4367   18.4062 C   0  0  0  0  0  0  0  0  0  0  0  0
  -29.9072  -21.0933   19.8965 C   0  0  0  0  0  0  0  0  0  0  0  0
  -25.3646  -10.8647   19.3494 C   0  0  0  0  0  0  0  0  0  0  0  0
  -25.9266  -23.1379   17.0767 C   0  0  0  0  0  0  0  0  0  0  0  0
  -23.5584   -9.5890   20.1446 C   0  0  0  0  0  0  0  0  0  0  0  0
  -22.0444   -8.6666   22.2985 C   0  0  0  0  0  0  0  0  0  0  0  0
  -23.4477   -8.2192   20.3834 C   0  0  0  0  0  0  0  0  0  0  0  0
  -28.6415  -13.4027   20.1969 C   0  0  0  0  0  0  0  0  0  0  0  0
  -30.6184  -14.3644   20.2440 C   0  0  0  0  0  0  0  0  0  0  0  0
  -29.7141  -25.9541   18.1114 C   0  0  0  0  0  0  0  0  0  0  0  0
  -30.5593  -19.8589   17.8342 C   0  0  0  0  0  0  0  0  0  0  0  0
  -30.4794  -12.4026   18.7011 C   0  0  0  0  0  0  0  0  0  0  0  0
  -29.7338  -18.9560   17.2599 C   0  0  0  0  0  0  0  0  0  0  0  0
  -22.4104  -23.1272   21.2119 C   0  0  0  0  0  0  0  0  0  0  0  0
  -22.2764  -19.8963   20.9546 C   0  0  0  0  0  0  0  0  0  0  0  0
  -23.5293  -16.7052   19.8304 C   0  0  0  0  0  0  0  0  0  0  0  0
  -29.8139  -19.7910   22.0510 C   0  0  0  0  0  0  0  0  0  0  0  0
  -19.4081  -25.2307   24.7643 C   0  0  0  0  0  0  0  0  0  0  0  0
  -21.9711  -22.8364   18.7464 C   0  0  0  0  0  0  0  0  0  0  0  0
  -24.1310  -21.0528   19.6943 C   0  0  0  0  0  0  0  0  0  0  0  0
  -29.4749  -26.8947   16.9542 C   0  0  0  0  0  0  0  0  0  0  0  0
  -20.1772  -23.9198   24.6217 C   0  0  0  0  0  0  0  0  0  0  0  0
  -29.5949  -25.9961   15.7380 C   0  0  0  0  0  0  0  0  0  0  0  0
  -29.9804  -17.0680   24.3388 C   0  0  0  0  0  0  0  0  0  0  0  0
  -21.6129  -24.1884   24.1818 C   0  0  0  0  0  0  0  0  0  0  0  0
  -29.7792  -15.8368   23.4524 C   0  0  0  0  0  0  0  0  0  0  0  0
  -29.1282  -18.2473   23.8736 C   0  0  0  0  0  0  0  0  0  0  0  0
  -29.0808  -17.3728   21.5709 C   0  0  0  0  0  0  0  0  0  0  0  0
  -21.6506  -24.8752   22.8113 C   0  0  1  0  0  0  0  0  0  0  0  0
  -21.9352  -22.1975   20.1313 C   0  0  1  0  0  0  0  0  0  0  0  0
  -29.9674  -16.1791   21.9614 C   0  0  2  0  0  0  0  0  0  0  0  0
  -29.1028  -24.6426   16.2381 C   0  0  2  0  0  0  0  0  0  0  0  0
  -30.2903  -17.7259   16.5942 C   0  0  0  0  0  0  0  0  0  0  0  0
  -28.2350  -19.0702   17.2028 C   0  0  0  0  0  0  0  0  0  0  0  0
  -22.5773  -14.3972   20.0846 C   0  0  0  0  0  0  0  0  0  0  0  0
  -24.0519  -19.7506   23.4317 C   0  0  0  0  0  0  0  0  0  0  0  0
  -24.5297  -17.3596   22.8631 C   0  0  0  0  0  0  0  0  0  0  0  0
  -22.1961  -18.0750   23.3784 C   0  0  0  0  0  0  0  0  0  0  0  0
  -23.6039  -16.2271   16.9107 C   0  0  0  0  0  0  0  0  0  0  0  0
  -27.5868  -24.5139   16.0735 C   0  0  0  0  0  0  0  0  0  1  0  0
  -23.2481  -18.7643   21.1852 C   0  0  1  0  0  0  0  0  0  0  0  0
  -22.7310  -15.5987   19.1650 C   0  0  2  0  0  0  0  0  0  0  0  0
  -23.5119  -18.5081   22.6959 C   0  0  0  0  0  0  0  0  0  0  0  0
  -28.5038  -14.4081   21.0653 N   0  0  0  0  0  0  0  0  0  0  0  0
  -29.7228  -14.9740   21.0726 N   0  0  0  0  0  0  0  0  0  0  0  0
  -29.5059  -24.6398   17.6417 N   0  0  0  0  0  0  0  0  0  0  0  0
  -22.7562  -20.9880   20.2172 N   0  0  0  0  0  0  0  0  0  0  0  0
  -29.3622  -18.5162   22.4531 N   0  0  0  0  0  0  0  0  0  0  0  0
  -31.8892  -14.8052   20.1299 N   0  0  0  0  0  0  0  0  0  0  0  0
  -29.6429  -11.3982   18.1954 N   0  0  0  0  0  0  0  0  0  0  0  0
  -30.0327  -19.9192   20.6797 N   0  0  0  0  0  0  0  0  0  0  0  0
  -21.4128  -23.9128   21.7569 N   0  0  0  0  0  0  0  0  0  0  0  0
  -22.7106  -17.6127   20.4687 N   0  0  0  0  0  0  0  0  0  0  0  0
  -23.4086  -15.1505   17.9156 N   0  3  0  0  0  0  0  0  0  0  0  0
  -30.0031  -26.3576   19.2287 O   0  0  0  0  0  0  0  0  0  0  0  0
  -31.6740  -12.4552   18.3222 O   0  0  0  0  0  0  0  0  0  0  0  0
  -23.5941  -23.1303   21.5288 O   0  0  0  0  0  0  0  0  0  0  0  0
  -21.1315  -19.8119   21.4059 O   0  0  0  0  0  0  0  0  0  0  0  0
  -24.7566  -16.7570   19.7913 O   0  0  0  0  0  0  0  0  0  0  0  0
  -30.0195  -20.6937   22.8664 O   0  0  0  0  0  0  0  0  0  0  0  0
  -24.3102  -10.0485   19.0763 O   0  0  0  0  0  0  0  0  0  0  0  0
  -27.1754  -23.2310   16.5439 O   0  0  0  0  0  0  0  0  0  1  0  0
  -21.3187   -8.2239   23.3337 F   0  0  0  0  0  0  0  0  0  0  0  0
  -24.0673   -7.3415   19.5824 F   0  0  0  0  0  0  0  0  0  0  0  0
  1  2  1  0  0  0  0
  1  5  2  0  0  0  0
  2  6  2  0  0  0  0
  3 10  2  0  0  0  0
  3 18  1  0  0  0  0
  4 11  1  0  0  0  0
  4 18  2  0  0  0  0
  5 21  1  0  0  0  0
  6 23  1  0  0  0  0
  7 12  2  0  0  0  0
  7 22  1  0  0  0  0
  8  9  2  0  0  0  0
  8 25  1  0  0  0  0
  9 26  1  0  0  0  0
 10 27  1  0  0  0  0
 11 27  2  0  0  0  0
 12 28  1  0  0  0  0
 13 14  2  0  0  0  0
 13 29  1  0  0  0  0
 14 30  1  0  0  0  0
 15 19  1  0  0  0  0
 15 25  2  0  0  0  0
 16 24  1  0  0  0  0
 16 28  2  0  0  0  0
 17 30  2  0  0  0  0
 17 31  1  0  0  0  0
 18 32  1  0  0  0  0
 19 26  2  0  0  0  0
 19 35  1  0  0  0  0
 20 32  1  0  0  0  0
 20 33  2  0  0  0  0
 20 36  1  0  0  0  0
 21 23  2  0  0  0  0
 21 42  1  0  0  0  0
 22 24  2  0  0  0  0
 22 43  1  0  0  0  0
 23 53  1  0  0  0  0
 24 44  1  0  0  0  0
 25 70  1  0  0  0  0
 26 75  1  0  0  0  0
 27 85  1  0  0  0  0
 28 86  1  0  0  0  0
 29 31  2  0  0  0  0
 29 85  1  0  0  0  0
 30 87  1  0  0  0  0
 31 88  1  0  0  0  0
 32 68  2  0  0  0  0
 33 69  1  0  0  0  0
 33 73  1  0  0  0  0
 34 45  1  0  0  0  0
 34 70  1  0  0  0  0
 34 79  2  0  0  0  0
 35 37  2  0  0  0  0
 36 74  1  0  0  0  0
 36 80  2  0  0  0  0
 37 57  1  0  0  0  0
 37 58  1  0  0  0  0
 38 54  1  0  0  0  0
 38 76  1  0  0  0  0
 38 81  2  0  0  0  0
 39 65  1  0  0  0  0
 39 71  1  0  0  0  0
 39 82  2  0  0  0  0
 40 66  1  0  0  0  0
 40 77  1  0  0  0  0
 40 83  2  0  0  0  0
 41 72  1  0  0  0  0
 41 75  1  0  0  0  0
 41 84  2  0  0  0  0
 42 46  1  0  0  0  0
 43 54  1  0  0  0  0
 44 71  1  0  0  0  0
 45 47  1  0  0  0  0
 46 49  1  0  0  0  0
 47 56  1  0  0  0  0
 48 50  1  0  0  0  0
 48 51  1  0  0  0  0
 49 53  1  0  0  0  0
 50 55  1  0  0  0  0
 51 72  1  0  0  0  0
 52 55  1  0  0  0  0
 52 72  1  0  0  0  0
 53 76  1  0  0  0  0
 54 71  1  0  0  0  0
 55 69  1  0  0  0  0
 56 64  1  0  0  0  0
 56 70  1  0  0  0  0
 59 66  1  0  0  0  0
 60 67  1  0  0  0  0
 61 67  1  0  0  0  0
 62 67  1  0  0  0  0
 63 78  1  0  0  0  0
 64 86  1  0  0  0  0
 65 67  1  0  0  0  0
 65 77  1  0  0  0  0
 66 78  1  0  0  0  0
 68 69  1  0  0  0  0
M  CHG  1  78   1
M  ISO  4  41 100  64 101  75 100  86 101
M  END
> <Batch ID>
0112

> <Smiles>
CNC(C)C(=O)NC(C(=O)N1Cc2cc([101O:1][101CH2:1]C3CCC(=O)N3c3ccc([100NH:0][100C:0](=O)N4CCCC(n5nc(-c6ccc(Oc7ccc(F)cc7F)cc6)c(C(N)=O)c5N)C4)c(C=C(C)C)c3)ccc2CC1C(=O)NC1CCCc2ccccc21)C(C)(C)C

> <Shape>
0.214

> <Color>
0.052

> <Negative vol penalty>
0.000

$$$$

  -OEChem-04052301313D

 81 89  0     1  0  0  0  0  0999 V2000
  -21.5655  -12.1277   21.2746 C   0  0  0  0  0  0  0  0  0  0  0  0
  -21.7292  -13.4296   21.7367 C   0  0  0  0  0  0  0  0  0  0  0  0
  -20.1542  -26.0365   20.1984 C   0  0  0  0  0  0  0  0  0  0  0  0
  -26.4369  -29.1029   22.1986 C   0  0  0  0  0  0  0  0  0  0  0  0
  -24.8839  -29.4817   20.3871 C   0  0  0  0  0  0  0  0  0  0  0  0
  -20.9541  -25.0119   20.7043 C   0  0  0  0  0  0  0  0  0  0  0  0
  -22.6661  -11.4124   20.8046 C   0  0  0  0  0  0  0  0  0  0  0  0
  -22.9939  -14.0168   21.7299 C   0  0  0  0  0  0  0  0  0  0  0  0
  -22.9224  -18.7642   19.9687 C   0  0  0  0  0  0  0  0  0  0  0  0
  -19.2223  -26.6659   21.0237 C   0  0  0  0  0  0  0  0  0  0  0  0
  -27.4100  -28.7061   21.2814 C   0  0  0  0  0  0  0  0  0  0  0  0
  -25.8569  -29.0849   19.4698 C   0  0  0  0  0  0  0  0  0  0  0  0
  -22.4733  -19.7586   20.8366 C   0  0  0  0  0  0  0  0  0  0  0  0
  -28.1511  -25.9479   19.4737 C   0  0  0  0  0  0  0  0  0  0  0  0
  -28.8871  -24.7999   19.7668 C   0  0  0  0  0  0  0  0  0  0  0  0
  -19.8900  -25.2458   22.8607 C   0  0  0  0  0  0  0  0  0  0  0  0
  -24.7587  -20.3639   21.3160 C   0  0  0  0  0  0  0  0  0  0  0  0
  -30.9243  -26.0984   19.7367 C   0  0  0  0  0  0  0  0  0  0  0  0
  -25.1738  -29.4907   21.7514 C   0  0  0  0  0  0  0  0  0  0  0  0
  -20.8220  -24.6165   22.0354 C   0  0  0  0  0  0  0  0  0  0  0  0
  -23.9295  -31.2031   23.1752 C   0  0  0  0  0  0  0  0  0  0  0  0
  -23.9434  -11.9945   20.7831 C   0  0  0  0  0  0  0  0  0  0  0  0
  -24.2955  -18.5546   19.7759 C   0  0  0  0  0  0  0  0  0  0  0  0
  -24.1129  -13.3082   21.2604 C   0  0  0  0  0  0  0  0  0  0  0  0
  -25.2226  -19.3679   20.4432 C   0  0  0  0  0  0  0  0  0  0  0  0
  -19.0902  -26.2705   22.3549 C   0  0  0  0  0  0  0  0  0  0  0  0
  -27.1200  -28.6971   19.9170 C   0  0  0  0  0  0  0  0  0  0  0  0
  -23.3916  -20.5567   21.5126 C   0  0  0  0  0  0  0  0  0  0  0  0
  -28.8016  -27.1712   19.3120 C   0  0  0  0  0  0  0  0  0  0  0  0
  -30.2737  -24.8752   19.8983 C   0  0  0  0  0  0  0  0  0  0  0  0
  -30.1882  -27.2464   19.4435 C   0  0  0  0  0  0  0  0  0  0  0  0
  -24.1680  -29.9001   22.6984 C   0  0  0  0  0  0  0  0  0  0  0  0
  -22.8773  -31.0625   24.0467 C   0  0  0  0  0  0  0  0  0  0  0  0
  -16.0416  -28.0679   23.4870 C   0  0  0  0  0  0  0  0  0  0  0  0
  -21.6675  -23.5349   22.5684 C   0  0  0  0  0  0  0  0  0  0  0  0
  -16.9459  -27.4610   22.7150 C   0  0  0  0  0  0  0  0  0  0  0  0
  -22.1657  -22.5196   21.8517 C   0  0  0  0  0  0  0  0  0  1  0  0
  -24.5991  -32.4307   22.8584 C   0  0  0  0  0  0  0  0  0  0  0  0
  -26.2887  -16.1324   20.2895 C   0  0  0  0  0  0  0  0  0  0  0  0
  -28.4086  -18.0653   18.7753 C   0  0  0  0  0  0  0  0  0  0  0  0
  -29.3197  -21.2317   17.8862 C   0  0  0  0  0  0  0  0  0  0  0  0
  -18.4623  -27.1627   24.5689 C   0  0  0  0  0  0  0  0  0  0  0  0
  -25.1110  -11.1655   20.3099 C   0  0  0  0  0  0  0  0  0  0  0  0
  -24.7634  -17.4955   18.8159 C   0  0  0  0  0  0  0  0  0  0  0  0
  -26.7072  -19.1968   20.2554 C   0  0  0  0  0  0  0  0  0  0  0  0
  -26.3534  -11.9917   19.9870 C   0  0  0  0  0  0  0  0  0  0  0  0
  -20.8485  -27.9102   27.0053 C   0  0  0  0  0  0  0  0  0  0  0  0
  -26.6278  -12.9999   21.0983 C   0  0  0  0  0  0  0  0  0  0  0  0
  -21.9547  -28.6262   26.2309 C   0  0  0  0  0  0  0  0  0  0  0  0
  -20.2844  -26.7445   26.2011 C   0  0  0  0  0  0  0  0  0  0  0  0
  -20.8662  -27.8528   24.0665 C   0  0  0  0  0  0  0  0  0  0  0  0
  -25.4647  -13.9883   21.2459 C   0  0  1  0  0  0  0  0  0  0  0  0
  -26.1905  -17.0302   19.0886 C   0  0  1  0  0  0  0  0  0  0  0  0
  -21.4668  -29.0479   24.8337 C   0  0  2  0  0  0  0  0  0  0  0  0
  -31.1215  -22.4988   16.6840 C   0  0  0  0  0  0  0  0  0  0  0  0
  -30.2580  -17.7083   21.1758 C   0  0  0  0  0  0  0  0  0  0  0  0
  -31.5634  -19.6895   20.3765 C   0  0  0  0  0  0  0  0  0  0  0  0
  -31.4068  -17.6454   18.9553 C   0  0  0  0  0  0  0  0  0  0  0  0
  -27.4090  -22.2760   15.8819 C   0  0  0  0  0  0  0  0  0  0  0  0
  -29.3803  -19.1352   19.2112 C   0  0  1  0  0  0  0  0  0  0  0  0
  -29.7687  -21.8154   16.5588 C   0  0  2  0  0  0  0  0  0  0  0  0
  -30.6242  -18.5468   19.9349 C   0  0  0  0  0  0  0  0  0  0  0  0
  -23.3345  -28.9982   23.2237 N   0  0  0  0  0  0  0  0  0  0  0  0
  -22.5620  -29.7356   24.0396 N   0  0  0  0  0  0  0  0  0  0  0  0
  -27.1152  -18.1435   19.3111 N   0  0  0  0  0  0  0  0  0  0  0  0
  -19.8366  -27.1848   24.8794 N   0  0  0  0  0  0  0  0  0  0  0  0
  -22.2003  -31.9458   24.8109 N   0  0  0  0  0  0  0  0  0  0  0  0
  -25.6597  -32.3962   21.9429 N   0  0  0  0  0  0  0  0  0  0  0  0
  -25.5169  -14.9896   20.2022 N   0  0  0  0  0  0  0  0  0  0  0  0
  -29.6955  -19.9115   18.0169 N   0  0  0  0  0  0  0  0  0  0  0  0
  -18.1230  -26.9251   23.2116 N   0  0  0  0  0  0  0  0  0  0  0  0
  -28.7790  -22.8179   16.0725 N   0  3  0  0  0  0  0  0  0  0  0  0
  -24.2774  -33.5230   23.3844 O   0  0  0  0  0  0  0  0  0  0  0  0
  -27.0124  -16.4522   21.2253 O   0  0  0  0  0  0  0  0  0  0  0  0
  -28.7812  -17.1964   17.9830 O   0  0  0  0  0  0  0  0  0  0  0  0
  -28.7010  -21.8829   18.7251 O   0  0  0  0  0  0  0  0  0  0  0  0
  -17.5957  -27.3213   25.4385 O   0  0  0  0  0  0  0  0  0  0  0  0
  -28.0694  -28.3102   19.0217 O   0  0  0  0  0  0  0  0  0  0  0  0
  -22.9559  -21.5276   22.3608 O   0  0  0  0  0  0  0  0  0  1  0  0
  -30.9803  -23.7730   20.1813 F   0  0  0  0  0  0  0  0  0  0  0  0
  -30.8187  -28.4190   19.2905 F   0  0  0  0  0  0  0  0  0  0  0  0
  1  2  1  0  0  0  0
  1  7  2  0  0  0  0
  2  8  2  0  0  0  0
  3  6  1  0  0  0  0
  3 10  2  0  0  0  0
  4 11  2  0  0  0  0
  4 19  1  0  0  0  0
  5 12  1  0  0  0  0
  5 19  2  0  0  0  0
  6 20  2  0  0  0  0
  7 22  1  0  0  0  0
  8 24  1  0  0  0  0
  9 13  2  0  0  0  0
  9 23  1  0  0  0  0
 10 26  1  0  0  0  0
 11 27  1  0  0  0  0
 12 27  2  0  0  0  0
 13 28  1  0  0  0  0
 14 15  2  0  0  0  0
 14 29  1  0  0  0  0
 15 30  1  0  0  0  0
 16 20  1  0  0  0  0
 16 26  2  0  0  0  0
 17 25  1  0  0  0  0
 17 28  2  0  0  0  0
 18 30  2  0  0  0  0
 18 31  1  0  0  0  0
 19 32  1  0  0  0  0
 20 35  1  0  0  0  0
 21 32  1  0  0  0  0
 21 33  2  0  0  0  0
 21 38  1  0  0  0  0
 22 24  2  0  0  0  0
 22 43  1  0  0  0  0
 23 25  2  0  0  0  0
 23 44  1  0  0  0  0
 24 52  1  0  0  0  0
 25 45  1  0  0  0  0
 26 71  1  0  0  0  0
 27 78  1  0  0  0  0
 28 79  1  0  0  0  0
 29 31  2  0  0  0  0
 29 78  1  0  0  0  0
 30 80  1  0  0  0  0
 31 81  1  0  0  0  0
 32 63  2  0  0  0  0
 33 64  1  0  0  0  0
 33 67  1  0  0  0  0
 34 36  2  0  0  0  0
 35 37  2  0  0  0  0
 36 71  1  0  0  0  0
 37 79  1  0  0  0  0
 38 68  1  0  0  0  0
 38 73  2  0  0  0  0
 39 53  1  0  0  0  0
 39 69  1  0  0  0  0
 39 74  2  0  0  0  0
 40 60  1  0  0  0  0
 40 65  1  0  0  0  0
 40 75  2  0  0  0  0
 41 61  1  0  0  0  0
 41 70  1  0  0  0  0
 41 76  2  0  0  0  0
 42 66  1  0  0  0  0
 42 71  1  0  0  0  0
 42 77  2  0  0  0  0
 43 46  1  0  0  0  0
 44 53  1  0  0  0  0
 45 65  1  0  0  0  0
 46 48  1  0  0  0  0
 47 49  1  0  0  0  0
 47 50  1  0  0  0  0
 48 52  1  0  0  0  0
 49 54  1  0  0  0  0
 50 66  1  0  0  0  0
 51 54  1  0  0  0  0
 51 66  1  0  0  0  0
 52 69  1  0  0  0  0
 53 65  1  0  0  0  0
 54 64  1  0  0  0  0
 55 61  1  0  0  0  0
 56 62  1  0  0  0  0
 57 62  1  0  0  0  0
 58 62  1  0  0  0  0
 59 72  1  0  0  0  0
 60 62  1  0  0  0  0
 60 70  1  0  0  0  0
 61 72  1  0  0  0  0
 63 64  1  0  0  0  0
M  CHG  1  72   1
M  ISO  4  37 101  42 100  71 100  79 101
M  END
> <Batch ID>
0112

> <Smiles>
C=C[100N:0](c1cccc(C=[101CH:1][101O:1]c2ccc3c(c2)CN(C(=O)C(NC(=O)C(C)NC)C(C)(C)C)C(C(=O)NC2CCCc4ccccc42)C3)c1)[100C:0](=O)N1CCCC(n2nc(-c3ccc(Oc4ccc(F)cc4F)cc3)c(C(N)=O)c2N)C1

> <Shape>
0.260

> <Color>
0.074

> <Negative vol penalty>
0.000

$$$$

  -OEChem-04052301313D

 88 96  0     1  0  0  0  0  0999 V2000
  -16.7816  -28.7915   23.5579 C   0  0  0  0  0  0  0  0  0  0  0  0
  -17.9061  -27.9908   23.3854 C   0  0  0  0  0  0  0  0  0  0  0  0
  -23.1591  -10.1694   21.2114 C   0  0  0  0  0  0  0  0  0  0  0  0
  -24.7628   -8.6091   22.1228 C   0  0  0  0  0  0  0  0  0  0  0  0
  -16.9079  -30.1800   23.5485 C   0  0  0  0  0  0  0  0  0  0  0  0
  -19.1575  -28.5781   23.2024 C   0  0  0  0  0  0  0  0  0  0  0  0
  -22.7680  -26.3627   25.9774 C   0  0  0  0  0  0  0  0  0  0  0  0
  -22.2332   -9.1357   21.0710 C   0  0  0  0  0  0  0  0  0  0  0  0
  -23.8368   -7.5754   21.9825 C   0  0  0  0  0  0  0  0  0  0  0  0
  -23.2764  -25.1513   25.5107 C   0  0  0  0  0  0  0  0  0  0  0  0
  -21.1160   -6.4303   23.6278 C   0  0  0  0  0  0  0  0  0  0  0  0
  -20.9651   -5.5478   24.6973 C   0  0  0  0  0  0  0  0  0  0  0  0
  -26.8363  -18.4355   21.5744 C   0  0  0  0  0  0  0  0  0  0  0  0
  -25.1932  -26.3084   24.6129 C   0  0  0  0  0  0  0  0  0  0  0  0
  -21.6191   -3.7094   23.2727 C   0  0  0  0  0  0  0  0  0  0  0  0
  -24.4240   -9.9061   21.7372 C   0  0  0  0  0  0  0  0  0  0  0  0
  -27.8288  -18.9551   20.7435 C   0  0  0  0  0  0  0  0  0  0  0  0
  -25.5593  -11.8095   23.0004 C   0  0  0  0  0  0  0  0  0  0  0  0
  -18.1628  -30.7846   23.3749 C   0  0  0  0  0  0  0  0  0  0  0  0
  -23.4643  -27.5595   25.7554 C   0  0  0  0  0  0  0  0  0  0  0  0
  -19.3004  -29.9760   23.1893 C   0  0  0  0  0  0  0  0  0  0  0  0
  -24.6928  -27.5334   25.0800 C   0  0  0  0  0  0  0  0  0  0  0  0
  -27.4720  -21.1494   21.6894 C   0  0  0  0  0  0  0  0  0  0  0  0
  -22.5719   -7.8388   21.4565 C   0  0  0  0  0  0  0  0  0  0  0  0
  -24.4877  -25.1244   24.8258 C   0  0  0  0  0  0  0  0  0  0  0  0
  -21.5184   -5.9524   22.3806 C   0  0  0  0  0  0  0  0  0  0  0  0
  -26.1615  -19.2728   22.4628 C   0  0  0  0  0  0  0  0  0  0  0  0
  -28.1467  -20.3120   20.8009 C   0  0  0  0  0  0  0  0  0  0  0  0
  -26.4794  -20.6298   22.5203 C   0  0  0  0  0  0  0  0  0  0  0  0
  -21.2166   -4.1874   24.5198 C   0  0  0  0  0  0  0  0  0  0  0  0
  -21.7699   -4.5919   22.2031 C   0  0  0  0  0  0  0  0  0  0  0  0
  -25.3811  -10.9733   21.8820 C   0  0  0  0  0  0  0  0  0  0  0  0
  -26.5837  -12.6507   22.6404 C   0  0  0  0  0  0  0  0  0  0  0  0
  -30.3448  -21.4178   16.8307 C   0  0  0  0  0  0  0  0  0  0  0  0
  -28.5282  -18.0513   19.8130 C   0  0  0  0  0  0  0  0  0  0  0  0
  -29.8920  -21.8683   18.0059 C   0  0  0  0  0  0  0  0  0  0  0  0
  -24.8614  -11.8244   24.2527 C   0  0  0  0  0  0  0  0  0  0  0  0
  -22.8443  -30.2592   24.1963 C   0  0  0  0  0  0  0  0  0  0  0  0
  -25.6490  -31.2105   25.5196 C   0  0  0  0  0  0  0  0  0  0  0  0
  -28.6656  -30.3374   26.8555 C   0  0  0  0  0  0  0  0  0  0  0  0
  -28.9453  -16.0026   18.8536 C   0  0  0  0  0  0  0  0  0  0  0  0
  -18.2427  -32.2899   23.3247 C   0  0  0  0  0  0  0  0  0  0  0  0
  -22.9155  -28.8545   26.2886 C   0  0  0  0  0  0  0  0  0  0  0  0
  -25.4891  -28.7878   24.8336 C   0  0  0  0  0  0  0  0  0  0  0  0
  -19.6594  -32.8308   23.4995 C   0  0  0  0  0  0  0  0  0  0  0  0
  -29.7673  -12.4938   18.7220 C   0  0  0  0  0  0  0  0  0  0  0  0
  -20.6382  -32.0577   22.6213 C   0  0  0  0  0  0  0  0  0  0  0  0
  -28.6909  -11.8521   19.5973 C   0  0  0  0  0  0  0  0  0  0  0  0
  -29.2220  -13.6929   17.9524 C   0  0  0  0  0  0  0  0  0  0  0  0
  -27.5083  -14.0906   19.6999 C   0  0  0  0  0  0  0  0  0  0  0  0
  -20.6786  -30.5756   23.0128 C   0  0  1  0  0  0  0  0  0  0  0  0
  -23.4563  -30.0790   25.5566 C   0  0  1  0  0  0  0  0  0  0  0  0
  -28.0306  -12.8957   20.5159 C   0  0  1  0  0  0  0  0  0  0  0  0
  -27.8121  -22.6043   21.7514 C   0  0  0  0  0  0  0  0  0  0  0  0
  -30.7590  -31.3361   27.8134 C   0  0  0  0  0  0  0  0  0  0  0  0
  -26.5824  -31.9438   22.7088 C   0  0  0  0  0  0  0  0  0  0  0  0
  -28.9271  -32.0214   23.5830 C   0  0  0  0  0  0  0  0  0  0  0  0
  -27.2107  -33.5935   24.4802 C   0  0  0  0  0  0  0  0  0  0  0  0
  -28.2360  -29.0201   29.4706 C   0  0  0  0  0  0  0  0  0  0  0  0
  -24.9311  -17.3560   23.1466 C   0  0  0  0  0  0  0  0  0  0  0  0
  -28.7043  -21.3050   18.7132 C   0  0  0  0  0  0  0  0  0  0  0  0
  -24.0416  -22.9343   24.0131 C   0  0  0  0  0  0  0  0  0  1  0  0
  -24.6294  -22.0716   22.9132 C   0  0  0  0  0  0  0  0  0  0  0  0
  -27.1004  -31.1473   25.1094 C   0  0  1  0  0  0  0  0  0  0  0  0
  -29.3748  -30.7861   28.1204 C   0  0  2  0  0  0  0  0  0  0  0  0
  -27.4394  -32.1529   23.9731 C   0  0  0  0  0  0  0  0  0  0  0  0
  -26.2245  -11.2576   20.8860 N   0  0  0  0  0  0  0  0  0  0  0  0
  -28.2480  -16.7908   19.7491 N   0  0  0  0  0  0  0  0  0  0  0  0
  -26.9425  -12.2818   21.3773 N   0  0  0  0  0  0  0  0  0  0  0  0
  -24.9077  -30.0300   25.3688 N   0  0  0  0  0  0  0  0  0  0  0  0
  -28.5731  -14.6458   18.8540 N   0  0  0  0  0  0  0  0  0  0  0  0
  -27.2034  -13.6626   23.2842 N   0  0  0  0  0  0  0  0  0  0  0  0
  -23.8360  -10.8912   24.4573 N   0  0  0  0  0  0  0  0  0  0  0  0
  -21.4688  -30.3908   24.2111 N   0  0  0  0  0  0  0  0  0  0  0  0
  -27.8780  -31.3392   26.3288 N   0  0  0  0  0  0  0  0  0  0  0  0
  -29.5223  -29.6427   29.0649 N   0  3  0  0  0  0  0  0  0  0  0  0
  -25.1279  -12.6519   25.1571 O   0  0  0  0  0  0  0  0  0  0  0  0
  -23.5667  -30.2790   23.2066 O   0  0  0  0  0  0  0  0  0  0  0  0
  -25.1916  -32.2662   25.9643 O   0  0  0  0  0  0  0  0  0  0  0  0
  -28.8000  -29.2121   26.3799 O   0  0  0  0  0  0  0  0  0  0  0  0
  -29.8230  -16.4301   18.1000 O   0  0  0  0  0  0  0  0  0  0  0  0
  -21.6686   -6.8299   21.3199 O   0  0  0  0  0  0  0  0  0  0  0  0
  -25.1941  -18.7524   23.2686 O   0  0  0  0  0  0  0  0  0  0  0  0
  -29.1175  -20.8216   19.9887 O   0  0  0  0  0  0  0  0  0  0  0  0
  -24.9859  -23.9434   24.3687 O   0  0  0  0  0  0  0  0  0  1  0  0
  -25.8132  -21.4473   23.3949 O   0  0  0  0  0  0  0  0  0  0  0  0
  -21.0732   -3.3402   25.5474 F   0  0  0  0  0  0  0  0  0  0  0  0
  -22.1579   -4.1270   21.0076 F   0  0  0  0  0  0  0  0  0  0  0  0
  1  2  1  0  0  0  0
  1  5  2  0  0  0  0
  2  6  2  0  0  0  0
  3  8  2  0  0  0  0
  3 16  1  0  0  0  0
  4  9  1  0  0  0  0
  4 16  2  0  0  0  0
  5 19  1  0  0  0  0
  6 21  1  0  0  0  0
  7 10  2  0  0  0  0
  7 20  1  0  0  0  0
  8 24  1  0  0  0  0
  9 24  2  0  0  0  0
 10 25  1  0  0  0  0
 11 12  2  0  0  0  0
 11 26  1  0  0  0  0
 12 30  1  0  0  0  0
 13 17  2  0  0  0  0
 13 27  1  0  0  0  0
 14 22  1  0  0  0  0
 14 25  2  0  0  0  0
 15 30  2  0  0  0  0
 15 31  1  0  0  0  0
 16 32  1  0  0  0  0
 17 28  1  0  0  0  0
 17 35  1  0  0  0  0
 18 32  1  0  0  0  0
 18 33  2  0  0  0  0
 18 37  1  0  0  0  0
 19 21  2  0  0  0  0
 19 42  1  0  0  0  0
 20 22  2  0  0  0  0
 20 43  1  0  0  0  0
 21 51  1  0  0  0  0
 22 44  1  0  0  0  0
 23 28  2  0  0  0  0
 23 29  1  0  0  0  0
 23 54  1  0  0  0  0
 24 82  1  0  0  0  0
 25 85  1  0  0  0  0
 26 31  2  0  0  0  0
 26 82  1  0  0  0  0
 27 29  2  0  0  0  0
 27 83  1  0  0  0  0
 28 84  1  0  0  0  0
 29 86  1  0  0  0  0
 30 87  1  0  0  0  0
 31 88  1  0  0  0  0
 32 67  2  0  0  0  0
 33 69  1  0  0  0  0
 33 72  1  0  0  0  0
 34 36  2  0  0  0  0
 35 68  2  0  0  0  0
 36 61  1  0  0  0  0
 37 73  1  0  0  0  0
 37 77  2  0  0  0  0
 38 52  1  0  0  0  0
 38 74  1  0  0  0  0
 38 78  2  0  0  0  0
 39 64  1  0  0  0  0
 39 70  1  0  0  0  0
 39 79  2  0  0  0  0
 40 65  1  0  0  0  0
 40 75  1  0  0  0  0
 40 80  2  0  0  0  0
 41 68  1  0  0  0  0
 41 71  1  0  0  0  0
 41 81  2  0  0  0  0
 42 45  1  0  0  0  0
 43 52  1  0  0  0  0
 44 70  1  0  0  0  0
 45 47  1  0  0  0  0
 46 48  1  0  0  0  0
 46 49  1  0  0  0  0
 47 51  1  0  0  0  0
 48 53  1  0  0  0  0
 49 71  1  0  0  0  0
 50 53  1  0  0  0  0
 50 71  1  0  0  0  0
 51 74  1  0  0  0  0
 52 70  1  0  0  0  0
 53 69  1  0  0  0  0
 55 65  1  0  0  0  0
 56 66  1  0  0  0  0
 57 66  1  0  0  0  0
 58 66  1  0  0  0  0
 59 76  1  0  0  0  0
 60 83  1  0  0  0  0
 61 84  1  0  0  0  0
 62 63  1  0  0  0  0
 62 85  1  0  0  0  0
 63 86  1  0  0  0  0
 64 66  1  0  0  0  0
 64 75  1  0  0  0  0
 65 76  1  0  0  0  0
 67 69  1  0  0  0  0
M  CHG  1  76   1
M  ISO  4  41 100  62 101  68 100  85 101
M  END
> <Batch ID>
0112

> <Smiles>
C=CCOc1c(C=[100N:0][100C:0](=O)N2CCCC(n3nc(-c4ccc(Oc5ccc(F)cc5F)cc4)c(C(N)=O)c3N)C2)cc(OC)c(OC[101CH2:1][101O:1]c2ccc3c(c2)CN(C(=O)C(NC(=O)C(C)NC)C(C)(C)C)C(C(=O)NC2CCCc4ccccc42)C3)c1C

> <Shape>
0.271

> <Color>
0.109

> <Negative vol penalty>
0.000

$$$$

  -OEChem-04052301313D

 91100  0     1  0  0  0  0  0999 V2000
  -22.3124   -8.6126   21.9610 C   0  0  0  0  0  0  0  0  0  0  0  0
  -23.6911   -8.7152   22.1161 C   0  0  0  0  0  0  0  0  0  0  0  0
  -22.8060  -28.0417   22.0399 C   0  0  0  0  0  0  0  0  0  0  0  0
  -23.4895  -30.2905   21.4806 C   0  0  0  0  0  0  0  0  0  0  0  0
  -21.6415   -9.4850   21.1049 C   0  0  0  0  0  0  0  0  0  0  0  0
  -24.3999   -9.6896   21.4143 C   0  0  0  0  0  0  0  0  0  0  0  0
  -30.1176  -13.9613   22.0278 C   0  0  0  0  0  0  0  0  0  0  0  0
  -21.7709  -28.5513   22.8237 C   0  0  0  0  0  0  0  0  0  0  0  0
  -22.4544  -30.8001   22.2644 C   0  0  0  0  0  0  0  0  0  0  0  0
  -31.2810  -14.3087   21.3426 C   0  0  0  0  0  0  0  0  0  0  0  0
  -18.6866  -29.8497   22.3394 C   0  0  0  0  0  0  0  0  0  0  0  0
  -17.4274  -29.2638   22.2108 C   0  0  0  0  0  0  0  0  0  0  0  0
  -30.0060  -15.8122   19.9522 C   0  0  0  0  0  0  0  0  0  0  0  0
  -17.4648  -28.6695   24.5522 C   0  0  0  0  0  0  0  0  0  0  0  0
  -23.6654  -28.9113   21.3683 C   0  0  0  0  0  0  0  0  0  0  0  0
  -24.6176  -27.5403   19.4393 C   0  0  0  0  0  0  0  0  0  0  0  0
  -22.3412  -10.4768   20.3996 C   0  0  0  0  0  0  0  0  0  0  0  0
  -28.8858  -14.5296   21.6726 C   0  0  0  0  0  0  0  0  0  0  0  0
  -23.7380  -10.5752   20.5469 C   0  0  0  0  0  0  0  0  0  0  0  0
  -28.8288  -15.4723   20.6362 C   0  0  0  0  0  0  0  0  0  0  0  0
  -21.5950  -29.9305   22.9360 C   0  0  0  0  0  0  0  0  0  0  0  0
  -31.2249  -15.2321   20.3027 C   0  0  0  0  0  0  0  0  0  0  0  0
  -19.3351  -29.8453   23.5744 C   0  0  0  0  0  0  0  0  0  0  0  0
  -16.8164  -28.6738   23.3172 C   0  0  0  0  0  0  0  0  0  0  0  0
  -18.7241  -29.2553   24.6808 C   0  0  0  0  0  0  0  0  0  0  0  0
  -24.7352  -28.3855   20.5589 C   0  0  0  0  0  0  0  0  0  0  0  0
  -25.9118  -27.3304   19.0301 C   0  0  0  0  0  0  0  0  0  0  0  0
  -33.3562  -22.4699   16.8429 C   0  0  0  0  0  0  0  0  0  0  0  0
  -33.8008  -24.0251   18.7954 C   0  0  0  0  0  0  0  0  0  0  0  0
  -31.1595  -21.8586   17.9280 C   0  0  0  0  0  0  0  0  0  0  0  0
  -32.6283  -21.6995   17.6825 C   0  0  0  0  0  0  0  0  0  0  0  0
  -33.9481  -22.8622   18.1128 C   0  0  0  0  0  0  0  0  0  0  0  0
  -30.5870  -22.9417   18.4990 C   0  0  0  0  0  0  0  0  0  0  0  0
  -32.5605  -24.7473   18.5030 C   0  0  0  0  0  0  0  0  0  0  0  0
  -31.2309  -24.2386   19.0057 C   0  0  0  0  0  0  0  0  0  0  0  0
  -32.5472  -25.9062   17.8303 C   0  0  0  0  0  0  0  0  0  0  0  0
  -32.7455  -16.8832   19.6452 C   0  0  0  0  0  0  0  0  0  1  0  0
  -23.4435  -26.9938   18.8241 C   0  0  0  0  0  0  0  0  0  0  0  0
  -33.8416  -17.3287   19.0203 C   0  0  0  0  0  0  0  0  0  0  0  0
  -34.1836  -18.7839   19.0918 C   0  0  0  0  0  0  0  0  0  0  0  0
  -26.1243  -13.3960   20.5804 C   0  0  0  0  0  0  0  0  0  0  0  0
  -25.1515  -16.4638   20.9861 C   0  0  0  0  0  0  0  0  0  0  0  0
  -26.5066  -19.7556   20.3987 C   0  0  0  0  0  0  0  0  0  0  0  0
  -31.2196  -26.1225   20.3128 C   0  0  0  0  0  0  0  0  0  0  0  0
  -21.5791  -11.3663   19.4496 C   0  0  0  0  0  0  0  0  0  0  0  0
  -27.6443  -14.1643   22.4393 C   0  0  0  0  0  0  0  0  0  0  0  0
  -27.5345  -16.1263   20.2294 C   0  0  0  0  0  0  0  0  0  0  0  0
  -22.3531  -12.6131   19.0291 C   0  0  0  0  0  0  0  0  0  0  0  0
  -30.2159  -29.5913   20.3961 C   0  0  0  0  0  0  0  0  0  0  0  0
  -23.7814  -12.2479   18.6375 C   0  0  0  0  0  0  0  0  0  0  0  0
  -28.6897  -29.5119   20.3917 C   0  0  0  0  0  0  0  0  0  0  0  0
  -30.8342  -28.4323   21.1714 C   0  0  0  0  0  0  0  0  0  0  0  0
  -28.8679  -27.0009   20.6843 C   0  0  0  0  0  0  0  0  0  0  0  0
  -24.5386  -11.6351   19.8219 C   0  0  1  0  0  0  0  0  0  0  0  0
  -26.3610  -14.4194   21.6548 C   0  0  1  0  0  0  0  0  0  0  0  0
  -28.2093  -28.1398   19.8867 C   0  0  1  0  0  0  0  0  0  0  0  0
  -31.3073  -26.6703   17.5135 C   0  0  0  0  0  0  0  0  0  0  0  0
  -26.0260  -21.9435   21.5298 C   0  0  0  0  0  0  0  0  0  0  0  0
  -23.1404  -16.8595   18.7258 C   0  0  0  0  0  0  0  0  0  0  0  0
  -23.7847  -19.2782   18.6697 C   0  0  0  0  0  0  0  0  0  0  0  0
  -22.7591  -18.3098   20.7272 C   0  0  0  0  0  0  0  0  0  0  0  0
  -29.3636  -20.1833   21.0421 C   0  0  0  0  0  0  0  0  0  0  0  0
  -28.4986  -23.4337   17.6203 C   0  0  0  0  0  0  0  0  0  0  0  0
  -33.2341  -19.6687   19.8904 C   0  0  0  0  0  0  0  0  0  0  0  0
  -33.6144  -21.1456   19.8669 C   0  0  0  0  0  0  0  0  0  0  0  0
  -25.1388  -17.7041   20.1255 C   0  0  1  0  0  0  0  0  0  0  0  0
  -26.9654  -20.7503   21.4496 C   0  0  2  0  0  0  0  0  0  0  0  0
  -23.7254  -18.0176   19.5586 C   0  0  0  0  0  0  0  0  0  0  0  0
  -26.0039  -28.6915   20.8430 N   0  0  0  0  0  0  0  0  0  0  0  0
  -30.6125  -24.9597   19.8764 N   0  0  0  0  0  0  0  0  0  0  0  0
  -26.6954  -28.0349   19.8960 N   0  0  0  0  0  0  0  0  0  0  0  0
  -33.6563  -21.6414   18.5077 N   0  0  0  0  0  0  0  0  0  0  0  0
  -26.3471  -15.7316   21.0051 N   0  0  0  0  0  0  0  0  0  0  0  0
  -30.3297  -27.1458   20.6888 N   0  0  0  0  0  0  0  0  0  0  0  0
  -26.4446  -26.6136   18.0178 N   0  0  0  0  0  0  0  0  0  0  0  0
  -22.8235  -27.7244   17.8012 N   0  0  0  0  0  0  0  0  0  0  0  0
  -24.9601  -12.6695   20.7421 N   0  0  0  0  0  0  0  0  0  0  0  0
  -25.7061  -18.7725   20.9409 N   0  0  0  0  0  0  0  0  0  0  0  0
  -28.3325  -21.2493   21.1287 N   0  3  0  0  0  0  0  0  0  0  0  0
  -22.9490  -25.8980   19.1824 O   0  0  0  0  0  0  0  0  0  0  0  0
  -35.1785  -19.2318   18.5248 O   0  0  0  0  0  0  0  0  0  0  0  0
  -26.9371  -13.2755   19.6712 O   0  0  0  0  0  0  0  0  0  0  0  0
  -24.1403  -16.1599   21.6238 O   0  0  0  0  0  0  0  0  0  0  0  0
  -26.8234  -19.8441   19.2145 O   0  0  0  0  0  0  0  0  0  0  0  0
  -32.4417  -26.2767   20.3778 O   0  0  0  0  0  0  0  0  0  0  0  0
  -34.6806  -16.5023   18.3044 O   0  0  0  0  0  0  0  0  0  0  0  0
  -20.5849  -30.4281   23.7006 O   0  0  0  0  0  0  0  0  0  0  0  0
  -32.3589  -15.5725   19.6318 O   0  0  0  0  0  0  0  0  0  1  0  0
  -29.2089  -22.9224   18.7143 O   0  0  0  0  0  0  0  0  0  0  0  0
  -15.6064  -28.1126   23.1939 F   0  0  0  0  0  0  0  0  0  0  0  0
  -19.3416  -29.2491   25.8701 F   0  0  0  0  0  0  0  0  0  0  0  0
  1  2  1  0  0  0  0
  1  5  2  0  0  0  0
  2  6  2  0  0  0  0
  3  8  2  0  0  0  0
  3 15  1  0  0  0  0
  4  9  1  0  0  0  0
  4 15  2  0  0  0  0
  5 17  1  0  0  0  0
  6 19  1  0  0  0  0
  7 10  2  0  0  0  0
  7 18  1  0  0  0  0
  8 21  1  0  0  0  0
  9 21  2  0  0  0  0
 10 22  1  0  0  0  0
 11 12  2  0  0  0  0
 11 23  1  0  0  0  0
 12 24  1  0  0  0  0
 13 20  1  0  0  0  0
 13 22  2  0  0  0  0
 14 24  2  0  0  0  0
 14 25  1  0  0  0  0
 15 26  1  0  0  0  0
 16 26  1  0  0  0  0
 16 27  2  0  0  0  0
 16 38  1  0  0  0  0
 17 19  2  0  0  0  0
 17 45  1  0  0  0  0
 18 20  2  0  0  0  0
 18 46  1  0  0  0  0
 19 54  1  0  0  0  0
 20 47  1  0  0  0  0
 21 87  1  0  0  0  0
 22 88  1  0  0  0  0
 23 25  2  0  0  0  0
 23 87  1  0  0  0  0
 24 90  1  0  0  0  0
 25 91  1  0  0  0  0
 26 69  2  0  0  0  0
 27 71  1  0  0  0  0
 27 75  1  0  0  0  0
 28 31  2  0  0  0  0
 28 32  1  0  0  0  0
 29 32  2  0  0  0  0
 29 34  1  0  0  0  0
 30 31  1  0  0  0  0
 30 33  2  0  0  0  0
 31 72  1  0  0  0  0
 32 72  1  0  0  0  0
 33 35  1  0  0  0  0
 33 89  1  0  0  0  0
 34 35  1  0  0  0  0
 34 36  2  0  0  0  0
 35 70  2  0  0  0  0
 36 57  1  0  0  0  0
 37 39  2  0  0  0  0
 37 88  1  0  0  0  0
 38 76  1  0  0  0  0
 38 80  2  0  0  0  0
 39 40  1  0  0  0  0
 39 86  1  0  0  0  0
 40 64  1  0  0  0  0
 40 81  2  0  0  0  0
 41 55  1  0  0  0  0
 41 77  1  0  0  0  0
 41 82  2  0  0  0  0
 42 66  1  0  0  0  0
 42 73  1  0  0  0  0
 42 83  2  0  0  0  0
 43 67  1  0  0  0  0
 43 78  1  0  0  0  0
 43 84  2  0  0  0  0
 44 70  1  0  0  0  0
 44 74  1  0  0  0  0
 44 85  2  0  0  0  0
 45 48  1  0  0  0  0
 46 55  1  0  0  0  0
 47 73  1  0  0  0  0
 48 50  1  0  0  0  0
 49 51  1  0  0  0  0
 49 52  1  0  0  0  0
 50 54  1  0  0  0  0
 51 56  1  0  0  0  0
 52 74  1  0  0  0  0
 53 56  1  0  0  0  0
 53 74  1  0  0  0  0
 54 77  1  0  0  0  0
 55 73  1  0  0  0  0
 56 71  1  0  0  0  0
 58 67  1  0  0  0  0
 59 68  1  0  0  0  0
 60 68  1  0  0  0  0
 61 68  1  0  0  0  0
 62 79  1  0  0  0  0
 63 89  1  0  0  0  0
 64 65  1  0  0  0  0
 65 72  1  0  0  0  0
 66 68  1  0  0  0  0
 66 78  1  0  0  0  0
 67 79  1  0  0  0  0
 69 71  1  0  0  0  0
M  CHG  1  79   1
M  ISO  4  37 101  44 100  70 100  88 101
M  END
> <Batch ID>
0112

> <Smiles>
C=CC1=CC2=CC(=CC(OC)=C1[100NH:0][100C:0](=O)N1CCCC(n3nc(-c4ccc(Oc5ccc(F)cc5F)cc4)c(C(N)=O)c3N)C1)N2CCC(=O)C(=O)[101CH2:1][101O:1]c1ccc2c(c1)CN(C(=O)C(NC(=O)C(C)NC)C(C)(C)C)C(C(=O)NC1CCCc3ccccc31)C2

> <Shape>
0.278

> <Color>
0.081

> <Negative vol penalty>
0.000

$$$$

  -OEChem-04052301313D

 91100  0     1  0  0  0  0  0999 V2000
  -27.5547  -31.6968   27.8545 C   0  0  0  0  0  0  0  0  0  0  0  0
  -27.6359  -30.5492   27.0723 C   0  0  0  0  0  0  0  0  0  0  0  0
  -22.8335  -10.0290   20.1049 C   0  0  0  0  0  0  0  0  0  0  0  0
  -24.5930   -9.0983   21.4742 C   0  0  0  0  0  0  0  0  0  0  0  0
  -26.3767  -32.4424   27.8762 C   0  0  0  0  0  0  0  0  0  0  0  0
  -26.5387  -30.1459   26.3121 C   0  0  0  0  0  0  0  0  0  0  0  0
  -27.8307  -28.7744   21.6116 C   0  0  0  0  0  0  0  0  0  0  0  0
  -21.8782   -9.4988   20.9721 C   0  0  0  0  0  0  0  0  0  0  0  0
  -23.6377   -8.5681   22.3414 C   0  0  0  0  0  0  0  0  0  0  0  0
  -28.3978  -27.5110   21.4502 C   0  0  0  0  0  0  0  0  0  0  0  0
  -21.5520   -5.9085   22.4249 C   0  0  0  0  0  0  0  0  0  0  0  0
  -21.7223   -4.5907   22.8492 C   0  0  0  0  0  0  0  0  0  0  0  0
  -26.2654  -26.6541   20.7171 C   0  0  0  0  0  0  0  0  0  0  0  0
  -28.1805  -18.7272   19.2098 C   0  0  0  0  0  0  0  0  0  0  0  0
  -21.8252   -5.3426   25.1429 C   0  0  0  0  0  0  0  0  0  0  0  0
  -24.1909   -9.8288   20.3560 C   0  0  0  0  0  0  0  0  0  0  0  0
  -25.3287  -10.0972   18.0886 C   0  0  0  0  0  0  0  0  0  0  0  0
  -25.2678  -32.0534   27.1083 C   0  0  0  0  0  0  0  0  0  0  0  0
  -26.4718  -28.9850   21.3370 C   0  0  0  0  0  0  0  0  0  0  0  0
  -25.3443  -30.8863   26.3245 C   0  0  0  0  0  0  0  0  0  0  0  0
  -25.6840  -27.9217   20.8734 C   0  0  0  0  0  0  0  0  0  0  0  0
  -25.5691  -19.4133   18.5078 C   0  0  0  0  0  0  0  0  0  0  0  0
  -26.5566  -20.3968   18.5676 C   0  0  0  0  0  0  0  0  0  0  0  0
  -25.8874  -18.0868   18.7990 C   0  0  0  0  0  0  0  0  0  0  0  0
  -27.8622  -20.0537   18.9186 C   0  0  0  0  0  0  0  0  0  0  0  0
  -27.1931  -17.7438   19.1500 C   0  0  0  0  0  0  0  0  0  0  0  0
  -22.2803   -8.7684   22.0903 C   0  0  0  0  0  0  0  0  0  0  0  0
  -27.6145  -26.4500   21.0056 C   0  0  0  0  0  0  0  0  0  0  0  0
  -21.5184   -6.9434   23.3596 C   0  0  0  0  0  0  0  0  0  0  0  0
  -21.8589   -4.3078   24.2082 C   0  0  0  0  0  0  0  0  0  0  0  0
  -21.6549   -6.6604   24.7186 C   0  0  0  0  0  0  0  0  0  0  0  0
  -25.1781  -10.3757   19.4603 C   0  0  0  0  0  0  0  0  0  0  0  0
  -26.4008  -10.8621   17.6986 C   0  0  0  0  0  0  0  0  0  0  0  0
  -29.3810  -23.9243   18.1990 C   0  0  0  0  0  0  0  0  0  0  0  0
  -28.6737  -23.4846   19.2554 C   0  0  0  0  0  0  0  0  0  0  0  0
  -28.8067  -22.1473   19.8550 C   0  0  0  0  0  0  0  0  0  0  0  0
  -30.4870  -23.2017   17.5169 C   0  0  0  0  0  0  0  0  0  0  0  0
  -28.8110  -22.0018   21.1960 C   0  0  0  0  0  0  0  0  0  0  0  0
  -24.5675   -9.2251   17.2426 C   0  0  0  0  0  0  0  0  0  0  0  0
  -23.9529  -29.8979   23.0473 C   0  0  0  0  0  0  0  0  0  0  0  0
  -22.4744  -29.8756   20.1602 C   0  0  0  0  0  0  0  0  0  0  0  0
  -22.4355  -27.7600   17.2378 C   0  0  0  0  0  0  0  0  0  0  0  0
  -28.7942  -15.9140   19.8092 C   0  0  0  0  0  0  0  0  0  0  0  0
  -24.0001  -32.8652   27.2007 C   0  0  0  0  0  0  0  0  0  0  0  0
  -25.8815  -30.3599   21.4907 C   0  0  0  0  0  0  0  0  0  0  0  0
  -24.2249  -28.1000   20.5453 C   0  0  0  0  0  0  0  0  0  0  0  0
  -31.0752  -21.9675   18.1559 C   0  0  0  0  0  0  0  0  0  0  0  0
  -23.0091  -32.5773   26.0759 C   0  0  0  0  0  0  0  0  0  0  0  0
  -30.4440  -12.7858   19.3974 C   0  0  0  0  0  0  0  0  0  0  0  0
  -22.8528  -31.0734   25.8740 C   0  0  0  0  0  0  0  0  0  0  0  0
  -29.2946  -11.7882   19.2359 C   0  0  0  0  0  0  0  0  0  0  0  0
  -30.0920  -20.8045   18.1658 C   0  0  0  0  0  0  0  0  0  0  0  0
  -30.1031  -13.8862   20.4007 C   0  0  0  0  0  0  0  0  0  0  0  0
  -27.6931  -13.5959   19.9804 C   0  0  0  0  0  0  0  0  0  0  0  0
  -24.1840  -30.4301   25.4669 C   0  0  1  0  0  0  0  0  0  0  0  0
  -24.3670  -30.3428   21.6732 C   0  0  1  0  0  0  0  0  0  0  0  0
  -27.9647  -12.5053   18.9314 C   0  0  2  0  0  0  0  0  0  0  0  0
  -24.1685  -19.7807   18.1300 C   0  0  0  0  0  0  0  0  0  0  0  0
  -26.2125  -21.8198   18.2558 C   0  0  0  0  0  0  0  0  0  0  0  0
  -24.8274  -17.0320   18.7330 C   0  0  0  0  0  0  0  0  0  0  0  0
  -28.9406  -20.6905   21.8799 C   0  0  0  0  0  0  0  0  0  0  0  0
  -21.9501  -28.3035   14.8365 C   0  0  0  0  0  0  0  0  0  0  0  0
  -19.6250  -29.0261   20.8455 C   0  0  0  0  0  0  0  0  0  0  0  0
  -19.4742  -27.9584   18.5859 C   0  0  0  0  0  0  0  0  0  0  0  0
  -19.8296  -30.4199   18.7791 C   0  0  0  0  0  0  0  0  0  0  0  0
  -25.0220  -26.6362   16.3398 C   0  0  0  0  0  0  0  0  0  0  0  0
  -27.6029  -24.3776   19.8390 C   0  0  0  0  0  0  0  0  0  1  0  0
  -21.7231  -28.8455   19.3517 C   0  0  1  0  0  0  0  0  0  0  0  0
  -23.0338  -28.0762   15.8790 C   0  0  2  0  0  0  0  0  0  0  0  0
  -20.1836  -29.0550   19.4088 C   0  0  0  0  0  0  0  0  0  0  0  0
  -26.0824  -11.2492   19.9114 N   0  0  0  0  0  0  0  0  0  0  0  0
  -26.8114  -11.5261   18.8169 N   0  0  0  0  0  0  0  0  0  0  0  0
  -28.8889  -21.0474   18.9851 N   0  0  0  0  0  0  0  0  0  0  0  0
  -23.6924  -29.4617   20.7178 N   0  0  0  0  0  0  0  0  0  0  0  0
  -28.8331  -14.5236   20.0461 N   0  0  0  0  0  0  0  0  0  0  0  0
  -27.0229  -11.0246   16.5116 N   0  0  0  0  0  0  0  0  0  0  0  0
  -23.4989   -8.5138   17.8051 N   0  0  0  0  0  0  0  0  0  0  0  0
  -27.5391  -16.4024   19.4477 N   0  0  0  0  0  0  0  0  0  0  0  0
  -24.4590  -30.6798   24.0681 N   0  0  0  0  0  0  0  0  0  0  0  0
  -22.2834  -28.8951   18.0056 N   0  0  0  0  0  0  0  0  0  0  0  0
  -23.8993  -26.9531   15.4200 N   0  3  0  0  0  0  0  0  0  0  0  0
  -30.9314  -23.6470   16.4587 O   0  0  0  0  0  0  0  0  0  0  0  0
  -24.8374   -9.0685   16.0277 O   0  0  0  0  0  0  0  0  0  0  0  0
  -23.2268  -28.9187   23.1721 O   0  0  0  0  0  0  0  0  0  0  0  0
  -22.0014  -31.0079   20.2861 O   0  0  0  0  0  0  0  0  0  0  0  0
  -22.1300  -26.6204   17.5822 O   0  0  0  0  0  0  0  0  0  0  0  0
  -29.8060  -16.6150   19.8923 O   0  0  0  0  0  0  0  0  0  0  0  0
  -21.3484   -8.2511   22.9368 O   0  0  0  0  0  0  0  0  0  0  0  0
  -28.1654  -25.2157   20.8478 O   0  0  0  0  0  0  0  0  0  1  0  0
  -22.0209   -3.0421   24.6157 F   0  0  0  0  0  0  0  0  0  0  0  0
  -21.6222   -7.6503   25.6213 F   0  0  0  0  0  0  0  0  0  0  0  0
  1  2  1  0  0  0  0
  1  5  2  0  0  0  0
  2  6  2  0  0  0  0
  3  8  2  0  0  0  0
  3 16  1  0  0  0  0
  4  9  1  0  0  0  0
  4 16  2  0  0  0  0
  5 18  1  0  0  0  0
  6 20  1  0  0  0  0
  7 10  2  0  0  0  0
  7 19  1  0  0  0  0
  8 27  1  0  0  0  0
  9 27  2  0  0  0  0
 10 28  1  0  0  0  0
 11 12  2  0  0  0  0
 11 29  1  0  0  0  0
 12 30  1  0  0  0  0
 13 21  1  0  0  0  0
 13 28  2  0  0  0  0
 14 25  1  0  0  0  0
 14 26  2  0  0  0  0
 15 30  2  0  0  0  0
 15 31  1  0  0  0  0
 16 32  1  0  0  0  0
 17 32  1  0  0  0  0
 17 33  2  0  0  0  0
 17 39  1  0  0  0  0
 18 20  2  0  0  0  0
 18 44  1  0  0  0  0
 19 21  2  0  0  0  0
 19 45  1  0  0  0  0
 20 55  1  0  0  0  0
 21 46  1  0  0  0  0
 22 23  1  0  0  0  0
 22 24  2  0  0  0  0
 22 58  1  0  0  0  0
 23 25  2  0  0  0  0
 23 59  1  0  0  0  0
 24 26  1  0  0  0  0
 24 60  1  0  0  0  0
 25 73  1  0  0  0  0
 26 78  1  0  0  0  0
 27 88  1  0  0  0  0
 28 89  1  0  0  0  0
 29 31  2  0  0  0  0
 29 88  1  0  0  0  0
 30 90  1  0  0  0  0
 31 91  1  0  0  0  0
 32 71  2  0  0  0  0
 33 72  1  0  0  0  0
 33 76  1  0  0  0  0
 34 35  2  0  0  0  0
 34 37  1  0  0  0  0
 35 36  1  0  0  0  0
 35 67  1  0  0  0  0
 36 38  2  0  0  0  0
 36 73  1  0  0  0  0
 37 47  1  0  0  0  0
 37 82  2  0  0  0  0
 38 61  1  0  0  0  0
 39 77  1  0  0  0  0
 39 83  2  0  0  0  0
 40 56  1  0  0  0  0
 40 79  1  0  0  0  0
 40 84  2  0  0  0  0
 41 68  1  0  0  0  0
 41 74  1  0  0  0  0
 41 85  2  0  0  0  0
 42 69  1  0  0  0  0
 42 80  1  0  0  0  0
 42 86  2  0  0  0  0
 43 75  1  0  0  0  0
 43 78  1  0  0  0  0
 43 87  2  0  0  0  0
 44 48  1  0  0  0  0
 45 56  1  0  0  0  0
 46 74  1  0  0  0  0
 47 52  1  0  0  0  0
 48 50  1  0  0  0  0
 49 51  1  0  0  0  0
 49 53  1  0  0  0  0
 50 55  1  0  0  0  0
 51 57  1  0  0  0  0
 52 73  1  0  0  0  0
 53 75  1  0  0  0  0
 54 57  1  0  0  0  0
 54 75  1  0  0  0  0
 55 79  1  0  0  0  0
 56 74  1  0  0  0  0
 57 72  1  0  0  0  0
 62 69  1  0  0  0  0
 63 70  1  0  0  0  0
 64 70  1  0  0  0  0
 65 70  1  0  0  0  0
 66 81  1  0  0  0  0
 67 89  1  0  0  0  0
 68 70  1  0  0  0  0
 68 80  1  0  0  0  0
 69 81  1  0  0  0  0
 71 72  1  0  0  0  0
M  CHG  1  81   1
M  ISO  4  43 100  67 101  78 100  89 101
M  END
> <Batch ID>
0112

> <Smiles>
C=CC1=C([101CH2:1][101O:1]c2ccc3c(c2)CN(C(=O)C(NC(=O)C(C)NC)C(C)(C)C)C(C(=O)NC2CCCc4ccccc42)C3)CC(=O)CCN1c1cc([100NH:0][100C:0](=O)N2CCCC(n3nc(-c4ccc(Oc5ccc(F)cc5F)cc4)c(C(N)=O)c3N)C2)c(C)c(C)c1C

> <Shape>
0.300

> <Color>
0.094

> <Negative vol penalty>
0.000

$$$$

  -OEChem-04052301313D

 91100  0     1  0  0  0  0  0999 V2000
  -27.0024  -35.7253   17.9230 C   0  0  0  0  0  0  0  0  0  0  0  0
  -27.4870  -34.4829   18.3191 C   0  0  0  0  0  0  0  0  0  0  0  0
  -23.2767  -10.2175   20.2163 C   0  0  0  0  0  0  0  0  0  0  0  0
  -24.8091   -8.5778   21.1109 C   0  0  0  0  0  0  0  0  0  0  0  0
  -26.0511  -36.3820   18.7025 C   0  0  0  0  0  0  0  0  0  0  0  0
  -27.0214  -33.8969   19.4956 C   0  0  0  0  0  0  0  0  0  0  0  0
  -25.9415  -28.9825   18.9230 C   0  0  0  0  0  0  0  0  0  0  0  0
  -22.2040   -9.3768   20.5129 C   0  0  0  0  0  0  0  0  0  0  0  0
  -23.7364   -7.7371   21.4075 C   0  0  0  0  0  0  0  0  0  0  0  0
  -27.0141  -28.0920   18.9125 C   0  0  0  0  0  0  0  0  0  0  0  0
  -21.3626   -7.4800   23.7991 C   0  0  0  0  0  0  0  0  0  0  0  0
  -21.3503   -6.8646   25.0508 C   0  0  0  0  0  0  0  0  0  0  0  0
  -29.8904  -18.6915   21.6106 C   0  0  0  0  0  0  0  0  0  0  0  0
  -26.5713  -27.5409   21.2189 C   0  0  0  0  0  0  0  0  0  0  0  0
  -28.9474  -19.5809   19.1403 C   0  0  0  0  0  0  0  0  0  0  0  0
  -21.3614   -4.6965   23.9849 C   0  0  0  0  0  0  0  0  0  0  0  0
  -24.5793   -9.8180   20.5152 C   0  0  0  0  0  0  0  0  0  0  0  0
  -29.8946  -20.0540   21.3120 C   0  0  0  0  0  0  0  0  0  0  0  0
  -26.0628  -11.1705   18.9412 C   0  0  0  0  0  0  0  0  0  0  0  0
  -25.5664  -35.7994   19.8842 C   0  0  0  0  0  0  0  0  0  0  0  0
  -25.1812  -29.1674   20.0868 C   0  0  0  0  0  0  0  0  0  0  0  0
  -26.0637  -34.5470   20.2924 C   0  0  0  0  0  0  0  0  0  0  0  0
  -25.4880  -28.4325   21.2408 C   0  0  0  0  0  0  0  0  0  0  0  0
  -29.4231  -20.4987   20.0768 C   0  0  0  0  0  0  0  0  0  0  0  0
  -29.4147  -17.7737   20.6741 C   0  0  0  0  0  0  0  0  0  0  0  0
  -22.4338   -8.1366   21.1085 C   0  0  0  0  0  0  0  0  0  0  0  0
  -27.3310  -27.3731   20.0614 C   0  0  0  0  0  0  0  0  0  0  0  0
  -21.3742   -6.7036   22.6403 C   0  0  0  0  0  0  0  0  0  0  0  0
  -28.9432  -18.2184   19.4390 C   0  0  0  0  0  0  0  0  0  0  0  0
  -21.3497   -5.4729   25.1437 C   0  0  0  0  0  0  0  0  0  0  0  0
  -21.3737   -5.3119   22.7332 C   0  0  0  0  0  0  0  0  0  0  0  0
  -25.6879  -10.6858   20.2086 C   0  0  0  0  0  0  0  0  0  0  0  0
  -27.1695  -11.9468   19.1840 C   0  0  0  0  0  0  0  0  0  0  0  0
  -29.0083  -24.2002   20.3058 C   0  0  0  0  0  0  0  0  0  0  0  0
  -28.7209  -22.8825   20.4516 C   0  0  0  0  0  0  0  0  0  0  0  0
  -30.1757  -24.5754   19.4336 C   0  0  0  0  0  0  0  0  0  0  0  0
  -29.8990  -21.0879   23.5360 C   0  0  0  0  0  0  0  0  0  0  0  0
  -27.4163  -23.1177   22.4613 C   0  0  0  0  0  0  0  0  0  0  0  0
  -30.4004  -20.9833   22.3150 C   0  0  0  0  0  0  0  0  0  0  0  0
  -27.6133  -22.4766   21.3049 C   0  0  0  0  0  0  0  0  0  0  0  0
  -25.4640  -10.9398   17.6590 C   0  0  0  0  0  0  0  0  0  0  0  0
  -24.5794  -31.6290   22.0056 C   0  0  0  0  0  0  0  0  0  0  0  0
  -22.5347  -29.5362   23.4060 C   0  0  0  0  0  0  0  0  0  0  0  0
  -22.5588  -26.0481   24.3280 C   0  0  0  0  0  0  0  0  0  0  0  0
  -29.8561  -15.7991   22.1748 C   0  0  0  0  0  0  0  0  0  0  0  0
  -24.5730  -36.5687   20.7185 C   0  0  0  0  0  0  0  0  0  0  0  0
  -24.0107  -30.1120   20.0740 C   0  0  0  0  0  0  0  0  0  0  0  0
  -24.6904  -28.5795   22.5100 C   0  0  0  0  0  0  0  0  0  0  0  0
  -31.0082  -23.4748   18.8217 C   0  0  0  0  0  0  0  0  0  0  0  0
  -23.8547  -35.7100   21.7561 C   0  0  0  0  0  0  0  0  0  0  0  0
  -29.9944  -12.4426   23.3549 C   0  0  0  0  0  0  0  0  0  0  0  0
  -24.8520  -34.8319   22.5052 C   0  0  0  0  0  0  0  0  0  0  0  0
  -28.9172  -11.7262   22.5372 C   0  0  0  0  0  0  0  0  0  0  0  0
  -30.1827  -22.2313   18.5452 C   0  0  0  0  0  0  0  0  0  0  0  0
  -29.5792  -13.8682   23.7143 C   0  0  0  0  0  0  0  0  0  0  0  0
  -28.0837  -13.9819   21.7599 C   0  0  0  0  0  0  0  0  0  0  0  0
  -25.5648  -33.8677   21.5493 C   0  0  1  0  0  0  0  0  0  0  0  0
  -23.6238  -30.6029   21.4656 C   0  0  1  0  0  0  0  0  0  0  0  0
  -28.4839  -12.5646   21.3186 C   0  0  2  0  0  0  0  0  0  0  0  0
  -20.6704  -24.4155   24.5855 C   0  0  0  0  0  0  0  0  0  0  0  0
  -22.6232  -30.3415   26.3477 C   0  0  0  0  0  0  0  0  0  0  0  0
  -22.1642  -27.9535   26.9433 C   0  0  0  0  0  0  0  0  0  0  0  0
  -20.4898  -29.2530   25.6279 C   0  0  0  0  0  0  0  0  0  0  0  0
  -23.7882  -24.1475   22.4214 C   0  0  0  0  0  0  0  0  0  0  0  0
  -27.0844  -17.0272   18.5549 C   0  0  0  0  0  0  0  0  0  0  0  0
  -28.2881  -25.3718   20.9184 C   0  0  0  0  0  0  0  0  0  1  0  0
  -22.6399  -28.5203   24.5178 C   0  0  1  0  0  0  0  0  0  0  0  0
  -21.7715  -24.9289   23.6707 C   0  0  2  0  0  0  0  0  0  0  0  0
  -22.0017  -29.0239   25.8431 C   0  0  0  0  0  0  0  0  0  0  0  0
  -26.4914  -11.1178   21.1842 N   0  0  0  0  0  0  0  0  0  0  0  0
  -27.3822  -11.8820   20.5296 N   0  0  0  0  0  0  0  0  0  0  0  0
  -29.4163  -21.8803   19.7458 N   0  0  0  0  0  0  0  0  0  0  0  0
  -23.5594  -29.5200   22.4492 N   0  0  0  0  0  0  0  0  0  0  0  0
  -29.1861  -14.6035   22.5103 N   0  0  0  0  0  0  0  0  0  0  0  0
  -27.9718  -12.6715   18.3756 N   0  0  0  0  0  0  0  0  0  0  0  0
  -25.9098   -9.8492   16.8999 N   0  0  0  0  0  0  0  0  0  0  0  0
  -29.4183  -16.3928   20.9914 N   0  0  0  0  0  0  0  0  0  0  0  0
  -24.7004  -32.7560   21.2152 N   0  0  0  0  0  0  0  0  0  0  0  0
  -22.0524  -27.2885   24.0020 N   0  0  0  0  0  0  0  0  0  0  0  0
  -22.6722  -23.7902   23.3344 N   0  3  0  0  0  0  0  0  0  0  0  0
  -30.4866  -25.7553   19.2703 O   0  0  0  0  0  0  0  0  0  0  0  0
  -24.5719  -11.6885   17.1930 O   0  0  0  0  0  0  0  0  0  0  0  0
  -25.1626  -31.4148   23.0619 O   0  0  0  0  0  0  0  0  0  0  0  0
  -21.5748  -30.3106   23.3833 O   0  0  0  0  0  0  0  0  0  0  0  0
  -23.5240  -25.8423   25.0606 O   0  0  0  0  0  0  0  0  0  0  0  0
  -30.7707  -16.2477   22.8707 O   0  0  0  0  0  0  0  0  0  0  0  0
  -21.3872   -7.3161   21.3983 O   0  0  0  0  0  0  0  0  0  0  0  0
  -28.4755  -17.3369   18.5104 O   0  0  0  0  0  0  0  0  0  0  0  0
  -28.3778  -26.5036   20.0540 O   0  0  0  0  0  0  0  0  0  1  0  0
  -21.3395   -4.8821   26.3458 F   0  0  0  0  0  0  0  0  0  0  0  0
  -21.3860   -4.5607   21.6235 F   0  0  0  0  0  0  0  0  0  0  0  0
  1  2  1  0  0  0  0
  1  5  2  0  0  0  0
  2  6  2  0  0  0  0
  3  8  2  0  0  0  0
  3 17  1  0  0  0  0
  4  9  1  0  0  0  0
  4 17  2  0  0  0  0
  5 20  1  0  0  0  0
  6 22  1  0  0  0  0
  7 10  2  0  0  0  0
  7 21  1  0  0  0  0
  8 26  1  0  0  0  0
  9 26  2  0  0  0  0
 10 27  1  0  0  0  0
 11 12  2  0  0  0  0
 11 28  1  0  0  0  0
 12 30  1  0  0  0  0
 13 18  1  0  0  0  0
 13 25  2  0  0  0  0
 14 23  1  0  0  0  0
 14 27  2  0  0  0  0
 15 24  1  0  0  0  0
 15 29  2  0  0  0  0
 16 30  2  0  0  0  0
 16 31  1  0  0  0  0
 17 32  1  0  0  0  0
 18 24  2  0  0  0  0
 18 39  1  0  0  0  0
 19 32  1  0  0  0  0
 19 33  2  0  0  0  0
 19 41  1  0  0  0  0
 20 22  2  0  0  0  0
 20 46  1  0  0  0  0
 21 23  2  0  0  0  0
 21 47  1  0  0  0  0
 22 57  1  0  0  0  0
 23 48  1  0  0  0  0
 24 72  1  0  0  0  0
 25 29  1  0  0  0  0
 25 77  1  0  0  0  0
 26 87  1  0  0  0  0
 27 89  1  0  0  0  0
 28 31  2  0  0  0  0
 28 87  1  0  0  0  0
 29 88  1  0  0  0  0
 30 90  1  0  0  0  0
 31 91  1  0  0  0  0
 32 70  2  0  0  0  0
 33 71  1  0  0  0  0
 33 75  1  0  0  0  0
 34 35  2  0  0  0  0
 34 36  1  0  0  0  0
 34 66  1  0  0  0  0
 35 40  1  0  0  0  0
 35 72  1  0  0  0  0
 36 49  1  0  0  0  0
 36 81  2  0  0  0  0
 37 39  2  0  0  0  0
 38 40  2  0  0  0  0
 41 76  1  0  0  0  0
 41 82  2  0  0  0  0
 42 58  1  0  0  0  0
 42 78  1  0  0  0  0
 42 83  2  0  0  0  0
 43 67  1  0  0  0  0
 43 73  1  0  0  0  0
 43 84  2  0  0  0  0
 44 68  1  0  0  0  0
 44 79  1  0  0  0  0
 44 85  2  0  0  0  0
 45 74  1  0  0  0  0
 45 77  1  0  0  0  0
 45 86  2  0  0  0  0
 46 50  1  0  0  0  0
 47 58  1  0  0  0  0
 48 73  1  0  0  0  0
 49 54  1  0  0  0  0
 50 52  1  0  0  0  0
 51 53  1  0  0  0  0
 51 55  1  0  0  0  0
 52 57  1  0  0  0  0
 53 59  1  0  0  0  0
 54 72  1  0  0  0  0
 55 74  1  0  0  0  0
 56 59  1  0  0  0  0
 56 74  1  0  0  0  0
 57 78  1  0  0  0  0
 58 73  1  0  0  0  0
 59 71  1  0  0  0  0
 60 68  1  0  0  0  0
 61 69  1  0  0  0  0
 62 69  1  0  0  0  0
 63 69  1  0  0  0  0
 64 80  1  0  0  0  0
 65 88  1  0  0  0  0
 66 89  1  0  0  0  0
 67 69  1  0  0  0  0
 67 79  1  0  0  0  0
 68 80  1  0  0  0  0
 70 71  1  0  0  0  0
M  CHG  1  80   1
M  ISO  4  45 100  66 101  77 100  89 101
M  END
> <Batch ID>
0112

> <Smiles>
C=CC1=C([101CH2:1][101O:1]c2ccc3c(c2)CN(C(=O)C(NC(=O)C(C)NC)C(C)(C)C)C(C(=O)NC2CCCc4ccccc42)C3)C(=O)CCN1c1cc(OC)c([100NH:0][100C:0](=O)N2CCCC(n3nc(-c4ccc(Oc5ccc(F)cc5F)cc4)c(C(N)=O)c3N)C2)cc1C=C

> <Shape>
0.310

> <Color>
0.102

> <Negative vol penalty>
0.000

$$$$

  -OEChem-04052301313D

 85 93  0     1  0  0  0  0  0999 V2000
  -22.2650  -10.9741   21.9240 C   0  0  0  0  0  0  0  0  0  0  0  0
  -21.9708  -12.2795   22.3048 C   0  0  0  0  0  0  0  0  0  0  0  0
  -29.6525  -28.7745   20.0268 C   0  0  0  0  0  0  0  0  0  0  0  0
  -28.0386  -27.2380   19.0931 C   0  0  0  0  0  0  0  0  0  0  0  0
  -23.4876  -10.6842   21.3197 C   0  0  0  0  0  0  0  0  0  0  0  0
  -22.8996  -13.2955   22.0824 C   0  0  0  0  0  0  0  0  0  0  0  0
  -20.7816  -17.4790   20.1698 C   0  0  0  0  0  0  0  0  0  0  0  0
  -30.6456  -27.8019   19.9107 C   0  0  0  0  0  0  0  0  0  0  0  0
  -29.0317  -26.2654   18.9770 C   0  0  0  0  0  0  0  0  0  0  0  0
  -20.0971  -18.3087   21.0568 C   0  0  0  0  0  0  0  0  0  0  0  0
  -33.5272  -25.6019   20.1934 C   0  0  0  0  0  0  0  0  0  0  0  0
  -34.3846  -25.4157   21.2777 C   0  0  0  0  0  0  0  0  0  0  0  0
  -22.0129  -19.7710   21.1581 C   0  0  0  0  0  0  0  0  0  0  0  0
  -19.1815  -28.9650   22.9568 C   0  0  0  0  0  0  0  0  0  0  0  0
  -17.7912  -27.0990   22.3068 C   0  0  0  0  0  0  0  0  0  0  0  0
  -32.4956  -24.8531   22.6749 C   0  0  0  0  0  0  0  0  0  0  0  0
  -28.3490  -28.4925   19.6180 C   0  0  0  0  0  0  0  0  0  0  0  0
  -20.1846  -26.9881   21.9963 C   0  0  0  0  0  0  0  0  0  0  0  0
  -26.9599  -30.4606   18.7785 C   0  0  0  0  0  0  0  0  0  0  0  0
  -24.4278  -11.6989   21.0811 C   0  0  0  0  0  0  0  0  0  0  0  0
  -22.0931  -17.7837   19.7781 C   0  0  0  0  0  0  0  0  0  0  0  0
  -24.1364  -13.0187   21.4756 C   0  0  0  0  0  0  0  0  0  0  0  0
  -22.7110  -18.9449   20.2640 C   0  0  0  0  0  0  0  0  0  0  0  0
  -20.3136  -28.2690   22.5332 C   0  0  0  0  0  0  0  0  0  0  0  0
  -30.3352  -26.5474   19.3858 C   0  0  0  0  0  0  0  0  0  0  0  0
  -20.7137  -19.4533   21.5533 C   0  0  0  0  0  0  0  0  0  0  0  0
  -32.1539  -25.4137   20.3499 C   0  0  0  0  0  0  0  0  0  0  0  0
  -18.9234  -26.4031   21.8831 C   0  0  0  0  0  0  0  0  0  0  0  0
  -33.8689  -25.0413   22.5185 C   0  0  0  0  0  0  0  0  0  0  0  0
  -17.9203  -28.3800   22.8437 C   0  0  0  0  0  0  0  0  0  0  0  0
  -31.6381  -25.0393   21.5906 C   0  0  0  0  0  0  0  0  0  0  0  0
  -27.3226  -29.4966   19.7382 C   0  0  0  0  0  0  0  0  0  0  0  0
  -25.9424  -31.1683   19.3703 C   0  0  0  0  0  0  0  0  0  0  0  0
  -21.5502  -25.8600   20.2999 C   0  0  0  0  0  0  0  0  0  0  0  0
  -21.3627  -26.2487   21.5500 C   0  0  0  0  0  0  0  0  0  0  0  0
  -27.4947  -30.6952   17.4691 C   0  0  0  0  0  0  0  0  0  0  0  0
  -24.9137  -16.3486   20.0753 C   0  0  0  0  0  0  0  0  0  0  0  0
  -25.9151  -18.7845   18.1816 C   0  0  0  0  0  0  0  0  0  0  0  0
  -25.4149  -21.9621   17.0417 C   0  0  0  0  0  0  0  0  0  0  0  0
  -21.9700  -29.8210   23.6259 C   0  0  0  0  0  0  0  0  0  0  0  0
  -25.7552  -11.3291   20.4678 C   0  0  0  0  0  0  0  0  0  0  0  0
  -22.8083  -16.8927   18.7998 C   0  0  0  0  0  0  0  0  0  0  0  0
  -24.1103  -19.3275   19.8588 C   0  0  0  0  0  0  0  0  0  0  0  0
  -26.5315  -12.5272   19.9274 C   0  0  0  0  0  0  0  0  0  0  0  0
  -24.3161  -32.4989   23.6737 C   0  0  0  0  0  0  0  0  0  0  0  0
  -26.5335  -13.6645   20.9439 C   0  0  0  0  0  0  0  0  0  0  0  0
  -25.3169  -32.1236   22.5784 C   0  0  0  0  0  0  0  0  0  0  0  0
  -23.8200  -31.2701   24.4339 C   0  0  0  0  0  0  0  0  0  0  0  0
  -24.2808  -29.8200   22.4963 C   0  0  0  0  0  0  0  0  0  0  0  0
  -25.1079  -14.1525   21.2287 C   0  0  1  0  0  0  0  0  0  0  0  0
  -24.3264  -17.0260   18.8695 C   0  0  1  0  0  0  0  0  0  0  0  0
  -24.7595  -31.0182   21.6603 C   0  0  2  0  0  0  0  0  0  0  0  0
  -26.4216  -23.6941   15.5304 C   0  0  0  0  0  0  0  0  0  0  0  0
  -28.0457  -19.3769   20.2839 C   0  0  0  0  0  0  0  0  0  0  0  0
  -28.3742  -21.6186   19.2185 C   0  0  0  0  0  0  0  0  0  0  0  0
  -28.8402  -19.5414   17.9183 C   0  0  0  0  0  0  0  0  0  0  0  0
  -23.0131  -22.0175   15.3133 C   0  0  0  0  0  0  0  0  0  0  0  0
  -18.1270  -21.6986   22.7087 C   0  0  0  0  0  0  0  0  0  0  0  0
  -18.7086  -22.7964   21.8248 C   0  0  0  0  0  0  0  0  0  0  0  0
  -18.6276  -20.3208   22.2958 C   0  0  0  0  0  0  0  0  0  1  0  0
  -18.1755  -24.1693   22.2095 C   0  0  0  0  0  0  0  0  0  0  0  0
  -26.4456  -20.1771   18.4223 C   0  0  1  0  0  0  0  0  0  0  0  0
  -25.4329  -22.5438   15.6396 C   0  0  2  0  0  0  0  0  0  0  0  0
  -27.9007  -20.1706   18.9701 C   0  0  0  0  0  0  0  0  0  0  0  0
  -26.5949  -29.5816   20.8550 N   0  0  0  0  0  0  0  0  0  0  0  0
  -25.7647  -30.6074   20.6008 N   0  0  0  0  0  0  0  0  0  0  0  0
  -24.7703  -18.4209   18.9049 N   0  0  0  0  0  0  0  0  0  0  0  0
  -23.3025  -30.2676   23.5000 N   0  0  0  0  0  0  0  0  0  0  0  0
  -25.1914  -32.2096   18.9531 N   0  0  0  0  0  0  0  0  0  0  0  0
  -28.5378  -29.8756   17.0167 N   0  0  0  0  0  0  0  0  0  0  0  0
  -21.5798  -28.8918   22.6621 N   0  0  0  0  0  0  0  0  0  0  0  0
  -24.6379  -14.9967   20.1512 N   0  0  0  0  0  0  0  0  0  0  0  0
  -26.2839  -20.8986   17.1646 N   0  0  0  0  0  0  0  0  0  0  0  0
  -24.0804  -23.0500   15.2715 N   0  3  0  0  0  0  0  0  0  0  0  0
  -27.0717  -31.6152   16.7287 O   0  0  0  0  0  0  0  0  0  0  0  0
  -25.5698  -17.0036   20.8766 O   0  0  0  0  0  0  0  0  0  0  0  0
  -26.4909  -18.0488   17.3760 O   0  0  0  0  0  0  0  0  0  0  0  0
  -24.7040  -22.4089   17.9392 O   0  0  0  0  0  0  0  0  0  0  0  0
  -21.2213  -30.2528   24.5062 O   0  0  0  0  0  0  0  0  0  0  0  0
  -31.3041  -25.5982   19.2722 O   0  0  0  0  0  0  0  0  0  0  0  0
  -20.0481  -20.2646   22.4197 O   0  0  0  0  0  0  0  0  0  1  0  0
  -18.7649  -25.1454   21.3616 O   0  0  0  0  0  0  0  0  0  0  0  0
  -34.6925  -24.8610   23.5592 F   0  0  0  0  0  0  0  0  0  0  0  0
  -16.8337  -29.0482   23.2523 F   0  0  0  0  0  0  0  0  0  0  0  0
  -30.3199  -24.8559   21.7467 F   0  0  0  0  0  0  0  0  0  0  0  0
  1  2  1  0  0  0  0
  1  5  2  0  0  0  0
  2  6  2  0  0  0  0
  3  8  2  0  0  0  0
  3 17  1  0  0  0  0
  4  9  1  0  0  0  0
  4 17  2  0  0  0  0
  5 20  1  0  0  0  0
  6 22  1  0  0  0  0
  7 10  2  0  0  0  0
  7 21  1  0  0  0  0
  8 25  1  0  0  0  0
  9 25  2  0  0  0  0
 10 26  1  0  0  0  0
 11 12  2  0  0  0  0
 11 27  1  0  0  0  0
 12 29  1  0  0  0  0
 13 23  1  0  0  0  0
 13 26  2  0  0  0  0
 14 24  2  0  0  0  0
 14 30  1  0  0  0  0
 15 28  1  0  0  0  0
 15 30  2  0  0  0  0
 16 29  2  0  0  0  0
 16 31  1  0  0  0  0
 17 32  1  0  0  0  0
 18 24  1  0  0  0  0
 18 28  2  0  0  0  0
 18 35  1  0  0  0  0
 19 32  1  0  0  0  0
 19 33  2  0  0  0  0
 19 36  1  0  0  0  0
 20 22  2  0  0  0  0
 20 41  1  0  0  0  0
 21 23  2  0  0  0  0
 21 42  1  0  0  0  0
 22 50  1  0  0  0  0
 23 43  1  0  0  0  0
 24 71  1  0  0  0  0
 25 80  1  0  0  0  0
 26 81  1  0  0  0  0
 27 31  2  0  0  0  0
 27 80  1  0  0  0  0
 28 82  1  0  0  0  0
 29 83  1  0  0  0  0
 30 84  1  0  0  0  0
 31 85  1  0  0  0  0
 32 65  2  0  0  0  0
 33 66  1  0  0  0  0
 33 69  1  0  0  0  0
 34 35  2  0  0  0  0
 36 70  1  0  0  0  0
 36 75  2  0  0  0  0
 37 51  1  0  0  0  0
 37 72  1  0  0  0  0
 37 76  2  0  0  0  0
 38 62  1  0  0  0  0
 38 67  1  0  0  0  0
 38 77  2  0  0  0  0
 39 63  1  0  0  0  0
 39 73  1  0  0  0  0
 39 78  2  0  0  0  0
 40 68  1  0  0  0  0
 40 71  1  0  0  0  0
 40 79  2  0  0  0  0
 41 44  1  0  0  0  0
 42 51  1  0  0  0  0
 43 67  1  0  0  0  0
 44 46  1  0  0  0  0
 45 47  1  0  0  0  0
 45 48  1  0  0  0  0
 46 50  1  0  0  0  0
 47 52  1  0  0  0  0
 48 68  1  0  0  0  0
 49 52  1  0  0  0  0
 49 68  1  0  0  0  0
 50 72  1  0  0  0  0
 51 67  1  0  0  0  0
 52 66  1  0  0  0  0
 53 63  1  0  0  0  0
 54 64  1  0  0  0  0
 55 64  1  0  0  0  0
 56 64  1  0  0  0  0
 57 74  1  0  0  0  0
 58 59  1  0  0  0  0
 58 60  1  0  0  0  0
 59 61  1  0  0  0  0
 60 81  1  0  0  0  0
 61 82  1  0  0  0  0
 62 64  1  0  0  0  0
 62 73  1  0  0  0  0
 63 74  1  0  0  0  0
 65 66  1  0  0  0  0
M  CHG  1  74   1
M  ISO  4  40 100  60 101  71 100  81 101
M  END
> <Batch ID>
0112

> <Smiles>
C=Cc1c([100NH:0][100C:0](=O)N2CCCC(n3nc(-c4ccc(Oc5ccc(F)cc5F)cc4)c(C(N)=O)c3N)C2)cc(F)cc1OCCC[101CH2:1][101O:1]c1ccc2c(c1)CN(C(=O)C(NC(=O)C(C)NC)C(C)(C)C)C(C(=O)NC1CCCc3ccccc31)C2

> <Shape>
0.232

> <Color>
0.073

> <Negative vol penalty>
0.000

$$$$

  -OEChem-04052301313D

 82 90  0     1  0  0  0  0  0999 V2000
  -20.0376   -9.5459   19.0434 C   0  0  0  0  0  0  0  0  0  0  0  0
  -19.4443  -10.7691   18.7481 C   0  0  0  0  0  0  0  0  0  0  0  0
  -28.8810  -26.7367   19.6254 C   0  0  0  0  0  0  0  0  0  0  0  0
  -26.9587  -26.1120   18.3020 C   0  0  0  0  0  0  0  0  0  0  0  0
  -20.9148   -9.4402   20.1219 C   0  0  0  0  0  0  0  0  0  0  0  0
  -19.7272  -11.8872   19.5319 C   0  0  0  0  0  0  0  0  0  0  0  0
  -20.4396  -18.9996   19.0610 C   0  0  0  0  0  0  0  0  0  0  0  0
  -29.3641  -25.4310   19.5401 C   0  0  0  0  0  0  0  0  0  0  0  0
  -27.4418  -24.8063   18.2167 C   0  0  0  0  0  0  0  0  0  0  0  0
  -19.9729  -20.1706   19.6567 C   0  0  0  0  0  0  0  0  0  0  0  0
  -31.2845  -22.3493   19.3668 C   0  0  0  0  0  0  0  0  0  0  0  0
  -32.6381  -22.1761   19.0784 C   0  0  0  0  0  0  0  0  0  0  0  0
  -20.2263  -26.9982   21.8550 C   0  0  0  0  0  0  0  0  0  0  0  0
  -21.5652  -19.8876   21.4466 C   0  0  0  0  0  0  0  0  0  0  0  0
  -32.3414  -23.3443   16.9844 C   0  0  0  0  0  0  0  0  0  0  0  0
  -19.3943  -28.7672   23.2096 C   0  0  0  0  0  0  0  0  0  0  0  0
  -27.6783  -27.0772   19.0064 C   0  0  0  0  0  0  0  0  0  0  0  0
  -19.0435  -26.3050   22.0870 C   0  0  0  0  0  0  0  0  0  0  0  0
  -27.4413  -29.4893   18.2106 C   0  0  0  0  0  0  0  0  0  0  0  0
  -21.2161  -10.5597   20.9134 C   0  0  0  0  0  0  0  0  0  0  0  0
  -21.4669  -18.2568   19.6604 C   0  0  0  0  0  0  0  0  0  0  0  0
  -20.6083  -11.7961   20.6228 C   0  0  0  0  0  0  0  0  0  0  0  0
  -22.0449  -18.7090   20.8552 C   0  0  0  0  0  0  0  0  0  0  0  0
  -20.4129  -28.2533   22.4233 C   0  0  0  0  0  0  0  0  0  0  0  0
  -28.6445  -24.4658   18.8357 C   0  0  0  0  0  0  0  0  0  0  0  0
  -20.5337  -20.6133   20.8511 C   0  0  0  0  0  0  0  0  0  0  0  0
  -30.4592  -23.0198   18.4640 C   0  0  0  0  0  0  0  0  0  0  0  0
  -33.1666  -22.6736   17.8872 C   0  0  0  0  0  0  0  0  0  0  0  0
  -30.9877  -23.5174   17.2728 C   0  0  0  0  0  0  0  0  0  0  0  0
  -27.1785  -28.4258   19.0946 C   0  0  0  0  0  0  0  0  0  0  0  0
  -18.0863  -26.9060   22.8884 C   0  0  0  0  0  0  0  0  0  0  0  0
  -26.7384  -30.5490   18.7297 C   0  0  0  0  0  0  0  0  0  0  0  0
  -18.8424  -24.9749   21.4881 C   0  0  0  0  0  0  0  0  0  0  0  0
  -19.8194  -24.1040   21.1910 C   0  0  0  0  0  0  0  0  0  0  0  0
  -28.2484  -29.5169   17.0259 C   0  0  0  0  0  0  0  0  0  0  0  0
  -21.7141  -15.3151   20.8389 C   0  0  0  0  0  0  0  0  0  0  0  0
  -24.8431  -16.1168   21.1368 C   0  0  0  0  0  0  0  0  0  0  0  0
  -27.1871  -18.5790   21.4368 C   0  0  0  0  0  0  0  0  0  0  0  0
  -21.9386  -30.2466   22.7041 C   0  0  0  0  0  0  0  0  0  0  0  0
  -22.1338  -10.3859   22.0976 C   0  0  0  0  0  0  0  0  0  0  0  0
  -21.9773  -17.0101   18.9913 C   0  0  0  0  0  0  0  0  0  0  0  0
  -23.1640  -17.9587   21.5284 C   0  0  0  0  0  0  0  0  0  0  0  0
  -22.6707  -11.7034   22.6507 C   0  0  0  0  0  0  0  0  0  0  0  0
  -25.1747  -31.9907   23.0847 C   0  0  0  0  0  0  0  0  0  0  0  0
  -21.5435  -12.7210   22.7944 C   0  0  0  0  0  0  0  0  0  0  0  0
  -26.0260  -31.5709   21.8854 C   0  0  0  0  0  0  0  0  0  0  0  0
  -23.6842  -32.0112   22.7748 C   0  0  0  0  0  0  0  0  0  0  0  0
  -24.1158  -29.9614   21.4026 C   0  0  0  0  0  0  0  0  0  0  0  0
  -20.9092  -13.0373   21.4345 C   0  0  1  0  0  0  0  0  0  0  0  0
  -22.6769  -16.0578   19.9563 C   0  0  1  0  0  0  0  0  0  0  0  0
  -25.2186  -30.8439   20.7971 C   0  0  2  0  0  0  0  0  0  0  0  0
  -29.6588  -18.9243   21.6996 C   0  0  0  0  0  0  0  0  0  0  0  0
  -24.6412  -15.3098   24.0724 C   0  0  0  0  0  0  0  0  0  0  0  0
  -26.7812  -16.5417   24.4861 C   0  0  0  0  0  0  0  0  0  0  0  0
  -26.7483  -14.5885   22.9347 C   0  0  0  0  0  0  0  0  0  0  0  0
  -27.3656  -20.0788   18.8916 C   0  0  0  0  0  0  0  0  0  0  0  0
  -15.9725  -26.9423   23.9778 C   0  0  0  0  0  0  0  0  0  0  0  0
  -19.5668  -22.7677   20.5696 C   0  0  0  0  0  0  0  0  0  1  0  0
  -25.6833  -16.7642   22.2110 C   0  0  1  0  0  0  0  0  0  0  0  0
  -28.5037  -18.8094   20.7171 C   0  0  2  0  0  0  0  0  0  0  0  0
  -25.9411  -15.8144   23.4146 C   0  0  0  0  0  0  0  0  0  0  0  0
  -18.2316  -28.1236   23.4576 N   0  0  0  0  0  0  0  0  0  0  0  0
  -26.3718  -28.7777   20.0993 N   0  0  0  0  0  0  0  0  0  0  0  0
  -26.1217  -30.0744   19.8498 N   0  0  0  0  0  0  0  0  0  0  0  0
  -23.6241  -16.7422   20.8386 N   0  0  0  0  0  0  0  0  0  0  0  0
  -23.2161  -30.7057   22.3004 N   0  0  0  0  0  0  0  0  0  0  0  0
  -26.5940  -31.8312   18.3329 N   0  0  0  0  0  0  0  0  0  0  0  0
  -28.9012  -28.3400   16.6347 N   0  0  0  0  0  0  0  0  0  0  0  0
  -21.6072  -28.9843   22.2053 N   0  0  0  0  0  0  0  0  0  0  0  0
  -21.7513  -13.9426   20.6824 N   0  0  0  0  0  0  0  0  0  0  0  0
  -26.8961  -17.2361   21.5517 N   0  0  0  0  0  0  0  0  0  0  0  0
  -28.4428  -20.0638   19.9146 N   0  3  0  0  0  0  0  0  0  0  0  0
  -28.3999  -30.5587   16.3439 O   0  0  0  0  0  0  0  0  0  0  0  0
  -20.9920  -15.9408   21.6063 O   0  0  0  0  0  0  0  0  0  0  0  0
  -25.2565  -15.0980   20.5776 O   0  0  0  0  0  0  0  0  0  0  0  0
  -26.4887  -19.4982   21.8584 O   0  0  0  0  0  0  0  0  0  0  0  0
  -21.2134  -30.9166   23.4425 O   0  0  0  0  0  0  0  0  0  0  0  0
  -29.1157  -23.1916   18.7521 O   0  0  0  0  0  0  0  0  0  0  0  0
  -20.0796  -21.7555   21.4349 O   0  0  0  0  0  0  0  0  0  1  0  0
  -16.9042  -26.2609   23.1469 O   0  0  0  0  0  0  0  0  0  0  0  0
  -34.4669  -22.5087   17.6111 F   0  0  0  0  0  0  0  0  0  0  0  0
  -30.2001  -24.1635   16.4022 F   0  0  0  0  0  0  0  0  0  0  0  0
  1  2  1  0  0  0  0
  1  5  2  0  0  0  0
  2  6  2  0  0  0  0
  3  8  2  0  0  0  0
  3 17  1  0  0  0  0
  4  9  1  0  0  0  0
  4 17  2  0  0  0  0
  5 20  1  0  0  0  0
  6 22  1  0  0  0  0
  7 10  2  0  0  0  0
  7 21  1  0  0  0  0
  8 25  1  0  0  0  0
  9 25  2  0  0  0  0
 10 26  1  0  0  0  0
 11 12  2  0  0  0  0
 11 27  1  0  0  0  0
 12 28  1  0  0  0  0
 13 18  1  0  0  0  0
 13 24  2  0  0  0  0
 14 23  1  0  0  0  0
 14 26  2  0  0  0  0
 15 28  2  0  0  0  0
 15 29  1  0  0  0  0
 16 24  1  0  0  0  0
 16 62  2  0  0  0  0
 17 30  1  0  0  0  0
 18 31  2  0  0  0  0
 18 33  1  0  0  0  0
 19 30  1  0  0  0  0
 19 32  2  0  0  0  0
 19 35  1  0  0  0  0
 20 22  2  0  0  0  0
 20 40  1  0  0  0  0
 21 23  2  0  0  0  0
 21 41  1  0  0  0  0
 22 49  1  0  0  0  0
 23 42  1  0  0  0  0
 24 69  1  0  0  0  0
 25 78  1  0  0  0  0
 26 79  1  0  0  0  0
 27 29  2  0  0  0  0
 27 78  1  0  0  0  0
 28 81  1  0  0  0  0
 29 82  1  0  0  0  0
 30 63  2  0  0  0  0
 31 62  1  0  0  0  0
 31 80  1  0  0  0  0
 32 64  1  0  0  0  0
 32 67  1  0  0  0  0
 33 34  2  0  0  0  0
 34 58  1  0  0  0  0
 35 68  1  0  0  0  0
 35 73  2  0  0  0  0
 36 50  1  0  0  0  0
 36 70  1  0  0  0  0
 36 74  2  0  0  0  0
 37 59  1  0  0  0  0
 37 65  1  0  0  0  0
 37 75  2  0  0  0  0
 38 60  1  0  0  0  0
 38 71  1  0  0  0  0
 38 76  2  0  0  0  0
 39 66  1  0  0  0  0
 39 69  1  0  0  0  0
 39 77  2  0  0  0  0
 40 43  1  0  0  0  0
 41 50  1  0  0  0  0
 42 65  1  0  0  0  0
 43 45  1  0  0  0  0
 44 46  1  0  0  0  0
 44 47  1  0  0  0  0
 45 49  1  0  0  0  0
 46 51  1  0  0  0  0
 47 66  1  0  0  0  0
 48 51  1  0  0  0  0
 48 66  1  0  0  0  0
 49 70  1  0  0  0  0
 50 65  1  0  0  0  0
 51 64  1  0  0  0  0
 52 60  1  0  0  0  0
 53 61  1  0  0  0  0
 54 61  1  0  0  0  0
 55 61  1  0  0  0  0
 56 72  1  0  0  0  0
 57 80  1  0  0  0  0
 58 79  1  0  0  0  0
 59 61  1  0  0  0  0
 59 71  1  0  0  0  0
 60 72  1  0  0  0  0
 63 64  1  0  0  0  0
M  CHG  1  72   1
M  ISO  4  39 100  58 101  69 100  79 101
M  END
> <Batch ID>
0112

> <Smiles>
CNC(C)C(=O)NC(C(=O)N1Cc2cc([101O:1][101CH2:1]C=Cc3cc([100NH:0][100C:0](=O)N4CCCC(n5nc(-c6ccc(Oc7ccc(F)cc7F)cc6)c(C(N)=O)c5N)C4)cnc3OC)ccc2CC1C(=O)NC1CCCc2ccccc21)C(C)(C)C

> <Shape>
0.217

> <Color>
0.075

> <Negative vol penalty>
0.000

$$$$

  -OEChem-04052301313D

 93102  0     1  0  0  0  0  0999 V2000
  -16.5099  -29.6547   23.4878 C   0  0  0  0  0  0  0  0  0  0  0  0
  -17.5099  -30.5748   23.1938 C   0  0  0  0  0  0  0  0  0  0  0  0
  -25.0930  -19.5128   20.1487 C   0  0  0  0  0  0  0  0  0  0  0  0
  -25.6360  -18.1771   18.2101 C   0  0  0  0  0  0  0  0  0  0  0  0
  -16.8371  -28.3149   23.6857 C   0  0  0  0  0  0  0  0  0  0  0  0
  -18.8357  -30.1534   23.0859 C   0  0  0  0  0  0  0  0  0  0  0  0
  -26.8550  -29.0139   21.1380 C   0  0  0  0  0  0  0  0  0  0  0  0
  -25.7690  -20.5977   19.5905 C   0  0  0  0  0  0  0  0  0  0  0  0
  -26.3119  -19.2621   17.6518 C   0  0  0  0  0  0  0  0  0  0  0  0
  -27.6773  -27.8990   20.9815 C   0  0  0  0  0  0  0  0  0  0  0  0
  -27.8725  -21.7888   15.5546 C   0  0  0  0  0  0  0  0  0  0  0  0
  -27.6462  -22.0714   14.2076 C   0  0  0  0  0  0  0  0  0  0  0  0
  -25.8738  -26.7300   19.8860 C   0  0  0  0  0  0  0  0  0  0  0  0
  -25.2977  -22.3986   14.6708 C   0  0  0  0  0  0  0  0  0  0  0  0
  -25.0266  -18.3024   19.4585 C   0  0  0  0  0  0  0  0  0  0  0  0
  -22.9695  -17.1198   20.3953 C   0  0  0  0  0  0  0  0  0  0  0  0
  -18.1694  -27.8800   23.5923 C   0  0  0  0  0  0  0  0  0  0  0  0
  -25.5302  -28.9913   20.6787 C   0  0  0  0  0  0  0  0  0  0  0  0
  -19.1829  -28.8013   23.2585 C   0  0  0  0  0  0  0  0  0  0  0  0
  -25.0375  -27.8468   20.0356 C   0  0  0  0  0  0  0  0  0  0  0  0
  -26.3784  -20.4724   18.3420 C   0  0  0  0  0  0  0  0  0  0  0  0
  -27.1859  -26.7558   20.3580 C   0  0  0  0  0  0  0  0  0  0  0  0
  -26.8114  -21.8110   16.4598 C   0  0  0  0  0  0  0  0  0  0  0  0
  -26.3588  -22.3763   13.7657 C   0  0  0  0  0  0  0  0  0  0  0  0
  -25.5240  -22.1159   16.0178 C   0  0  0  0  0  0  0  0  0  0  0  0
  -24.3290  -17.1811   20.0348 C   0  0  0  0  0  0  0  0  0  0  0  0
  -22.8031  -15.8503   20.8925 C   0  0  0  0  0  0  0  0  0  0  0  0
  -31.4818  -17.0812   21.1711 C   0  0  0  0  0  0  0  0  0  0  0  0
  -29.8727  -18.0316   19.4363 C   0  0  0  0  0  0  0  0  0  0  0  0
  -28.3741  -18.2586   21.4622 C   0  0  0  0  0  0  0  0  0  0  0  0
  -30.6896  -15.8453   21.3480 C   0  0  0  0  0  0  0  0  0  0  0  0
  -30.9882  -18.0501   20.3693 C   0  0  0  0  0  0  0  0  0  0  0  0
  -29.3617  -18.7862   20.4413 C   0  0  0  0  0  0  0  0  0  0  0  0
  -29.3522  -15.8623   21.6801 C   0  0  0  0  0  0  0  0  0  0  0  0
  -28.4626  -17.0287   22.0207 C   0  0  0  0  0  0  0  0  0  0  0  0
  -32.7069  -14.6467   20.8105 C   0  0  0  0  0  0  0  0  0  0  0  0
  -31.4122  -14.5951   21.1299 C   0  0  0  0  0  0  0  0  0  0  0  0
  -21.9485  -18.1208   20.2901 C   0  0  0  0  0  0  0  0  0  0  0  0
  -30.6075  -22.2255   20.5385 C   0  0  0  0  0  0  0  0  0  0  0  0
  -29.5807  -23.2204   20.0376 C   0  0  0  0  0  0  0  0  0  0  0  0
  -22.6754  -29.2564   22.0511 C   0  0  0  0  0  0  0  0  0  0  0  0
  -21.6288  -29.2240   18.9809 C   0  0  0  0  0  0  0  0  0  0  0  0
  -22.3994  -27.4164   15.9550 C   0  0  0  0  0  0  0  0  0  0  0  0
  -28.0042  -14.2095   20.5671 C   0  0  0  0  0  0  0  0  0  0  0  0
  -18.4663  -26.4169   23.8082 C   0  0  0  0  0  0  0  0  0  0  0  0
  -24.6643  -30.2116   20.8312 C   0  0  0  0  0  0  0  0  0  0  0  0
  -23.6289  -27.7789   19.5066 C   0  0  0  0  0  0  0  0  0  0  0  0
  -19.9366  -26.1471   24.1112 C   0  0  0  0  0  0  0  0  0  0  0  0
  -25.1725  -12.6900   19.0762 C   0  0  0  0  0  0  0  0  0  0  0  0
  -20.8157  -26.8500   23.0877 C   0  0  0  0  0  0  0  0  0  0  0  0
  -24.0655  -12.8126   20.1184 C   0  0  0  0  0  0  0  0  0  0  0  0
  -26.5127  -12.4184   19.7427 C   0  0  0  0  0  0  0  0  0  0  0  0
  -25.8244  -13.6701   21.7748 C   0  0  0  0  0  0  0  0  0  0  0  0
  -20.6358  -28.3714   23.1662 C   0  0  1  0  0  0  0  0  0  0  0  0
  -23.1726  -29.8953   20.7852 C   0  0  1  0  0  0  0  0  0  0  0  0
  -24.3897  -13.8332   21.2222 C   0  0  1  0  0  0  0  0  0  0  0  0
  -22.1404  -28.0783   13.5483 C   0  0  0  0  0  0  0  0  0  0  0  0
  -18.9386  -27.7979   19.1791 C   0  0  0  0  0  0  0  0  0  0  0  0
  -19.3046  -26.9334   16.8582 C   0  0  0  0  0  0  0  0  0  0  0  0
  -19.1367  -29.3896   17.2603 C   0  0  0  0  0  0  0  0  0  0  0  0
  -28.7839  -13.8969   22.9608 C   0  0  0  0  0  0  0  0  0  0  0  0
  -25.2532  -26.8830   15.3807 C   0  0  0  0  0  0  0  0  0  0  0  0
  -28.0865  -17.1160   24.3072 C   0  0  0  0  0  0  0  0  0  0  0  0
  -30.2715  -21.4157   21.7732 C   0  0  0  0  0  0  0  0  0  0  0  0
  -28.2835  -23.3531   20.8069 C   0  0  0  0  0  0  0  0  0  0  0  0
  -30.9709  -20.0609   21.8051 C   0  0  0  0  0  0  0  0  0  0  0  0
  -27.3498  -24.3887   20.1957 C   0  0  0  0  0  0  0  0  0  1  0  0
  -21.2109  -28.1506   18.0051 C   0  0  1  0  0  0  0  0  0  0  0  0
  -23.0988  -27.9625   14.7234 C   0  0  2  0  0  0  0  0  0  0  0  0
  -19.6668  -28.0627   17.8462 C   0  0  0  0  0  0  0  0  0  0  0  0
  -24.9799  -16.0414   20.2821 N   0  0  0  0  0  0  0  0  0  0  0  0
  -24.0254  -15.2519   20.8034 N   0  0  0  0  0  0  0  0  0  0  0  0
  -30.5804  -19.2633   20.6612 N   0  0  0  0  0  0  0  0  0  0  0  0
  -22.8193  -28.9954   19.6854 N   0  0  0  0  0  0  0  0  0  0  0  0
  -26.8405  -13.4401   20.7364 N   0  0  0  0  0  0  0  0  0  0  0  0
  -21.7319  -15.1988   21.3929 N   0  0  0  0  0  0  0  0  0  0  0  0
  -21.1916  -18.1819   19.1121 N   0  0  0  0  0  0  0  0  0  0  0  0
  -21.3203  -28.9859   22.0502 N   0  0  0  0  0  0  0  0  0  0  0  0
  -21.9246  -28.4277   16.7632 N   0  0  0  0  0  0  0  0  0  0  0  0
  -28.6488  -14.6766   21.7259 N   0  0  0  0  0  0  0  0  0  0  0  0
  -24.2228  -27.0679   14.3266 N   0  3  0  0  0  0  0  0  0  0  0  0
  -21.7253  -18.9475   21.2068 O   0  0  0  0  0  0  0  0  0  0  0  0
  -31.6527  -22.1389   19.9073 O   0  0  0  0  0  0  0  0  0  0  0  0
  -29.8711  -23.8649   19.0383 O   0  0  0  0  0  0  0  0  0  0  0  0
  -23.4632  -29.0246   22.9606 O   0  0  0  0  0  0  0  0  0  0  0  0
  -20.9286  -30.2316   19.1080 O   0  0  0  0  0  0  0  0  0  0  0  0
  -22.2823  -26.2131   16.1760 O   0  0  0  0  0  0  0  0  0  0  0  0
  -28.4432  -14.4620   19.4364 O   0  0  0  0  0  0  0  0  0  0  0  0
  -27.0378  -21.5310   17.7969 O   0  0  0  0  0  0  0  0  0  0  0  0
  -27.9863  -25.6659   20.2045 O   0  0  0  0  0  0  0  0  0  1  0  0
  -27.5640  -16.7626   23.0569 O   0  0  0  0  0  0  0  0  0  0  0  0
  -26.1419  -22.6492   12.4724 F   0  0  0  0  0  0  0  0  0  0  0  0
  -24.5008  -22.1399   16.8829 F   0  0  0  0  0  0  0  0  0  0  0  0
  1  2  1  0  0  0  0
  1  5  2  0  0  0  0
  2  6  2  0  0  0  0
  3  8  2  0  0  0  0
  3 15  1  0  0  0  0
  4  9  1  0  0  0  0
  4 15  2  0  0  0  0
  5 17  1  0  0  0  0
  6 19  1  0  0  0  0
  7 10  2  0  0  0  0
  7 18  1  0  0  0  0
  8 21  1  0  0  0  0
  9 21  2  0  0  0  0
 10 22  1  0  0  0  0
 11 12  2  0  0  0  0
 11 23  1  0  0  0  0
 12 24  1  0  0  0  0
 13 20  1  0  0  0  0
 13 22  2  0  0  0  0
 14 24  2  0  0  0  0
 14 25  1  0  0  0  0
 15 26  1  0  0  0  0
 16 26  1  0  0  0  0
 16 27  2  0  0  0  0
 16 38  1  0  0  0  0
 17 19  2  0  0  0  0
 17 45  1  0  0  0  0
 18 20  2  0  0  0  0
 18 46  1  0  0  0  0
 19 54  1  0  0  0  0
 20 47  1  0  0  0  0
 21 89  1  0  0  0  0
 22 90  1  0  0  0  0
 23 25  2  0  0  0  0
 23 89  1  0  0  0  0
 24 92  1  0  0  0  0
 25 93  1  0  0  0  0
 26 71  2  0  0  0  0
 27 72  1  0  0  0  0
 27 76  1  0  0  0  0
 28 31  1  0  0  0  0
 28 32  2  0  0  0  0
 29 32  1  0  0  0  0
 29 33  2  0  0  0  0
 30 33  1  0  0  0  0
 30 35  2  0  0  0  0
 31 34  2  0  0  0  0
 31 37  1  0  0  0  0
 32 73  1  0  0  0  0
 33 73  1  0  0  0  0
 34 35  1  0  0  0  0
 34 80  1  0  0  0  0
 35 91  1  0  0  0  0
 36 37  2  0  0  0  0
 38 77  1  0  0  0  0
 38 82  2  0  0  0  0
 39 40  1  0  0  0  0
 39 64  1  0  0  0  0
 39 83  2  0  0  0  0
 40 65  1  0  0  0  0
 40 84  2  0  0  0  0
 41 55  1  0  0  0  0
 41 78  1  0  0  0  0
 41 85  2  0  0  0  0
 42 68  1  0  0  0  0
 42 74  1  0  0  0  0
 42 86  2  0  0  0  0
 43 69  1  0  0  0  0
 43 79  1  0  0  0  0
 43 87  2  0  0  0  0
 44 75  1  0  0  0  0
 44 80  1  0  0  0  0
 44 88  2  0  0  0  0
 45 48  1  0  0  0  0
 46 55  1  0  0  0  0
 47 74  1  0  0  0  0
 48 50  1  0  0  0  0
 49 51  1  0  0  0  0
 49 52  1  0  0  0  0
 50 54  1  0  0  0  0
 51 56  1  0  0  0  0
 52 75  1  0  0  0  0
 53 56  1  0  0  0  0
 53 75  1  0  0  0  0
 54 78  1  0  0  0  0
 55 74  1  0  0  0  0
 56 72  1  0  0  0  0
 57 69  1  0  0  0  0
 58 70  1  0  0  0  0
 59 70  1  0  0  0  0
 60 70  1  0  0  0  0
 61 80  1  0  0  0  0
 62 81  1  0  0  0  0
 63 91  1  0  0  0  0
 64 66  1  0  0  0  0
 65 67  1  0  0  0  0
 66 73  1  0  0  0  0
 67 90  1  0  0  0  0
 68 70  1  0  0  0  0
 68 79  1  0  0  0  0
 69 81  1  0  0  0  0
 71 72  1  0  0  0  0
M  CHG  1  81   1
M  ISO  4  44 100  67 101  80 100  90 101
M  END
> <Batch ID>
0112

> <Smiles>
C=CC1=CC2=CC(=CC(OC)=C1[100N:0](C)[100C:0](=O)N1CCCC(n3nc(-c4ccc(Oc5ccc(F)cc5F)cc4)c(C(N)=O)c3N)C1)N2CCC(=O)C(=O)C[101CH2:1][101O:1]c1ccc2c(c1)CN(C(=O)C(NC(=O)C(C)NC)C(C)(C)C)C(C(=O)NC1CCCc3ccccc31)C2

> <Shape>
0.254

> <Color>
0.108

> <Negative vol penalty>
0.000

$$$$

  -OEChem-04052301313D

 87 95  0     1  0  0  0  0  0999 V2000
  -18.4116  -25.2325   21.8934 C   0  0  0  0  0  0  0  0  0  0  0  0
  -19.7745  -24.9841   21.7659 C   0  0  0  0  0  0  0  0  0  0  0  0
  -26.5582  -12.9795   21.6318 C   0  0  0  0  0  0  0  0  0  0  0  0
  -26.1387  -13.8678   19.4246 C   0  0  0  0  0  0  0  0  0  0  0  0
  -17.9183  -26.5222   21.7006 C   0  0  0  0  0  0  0  0  0  0  0  0
  -20.6448  -26.0251   21.4444 C   0  0  0  0  0  0  0  0  0  0  0  0
  -26.4028  -26.7471   23.4013 C   0  0  0  0  0  0  0  0  0  0  0  0
  -25.2556  -12.4830   21.6796 C   0  0  0  0  0  0  0  0  0  0  0  0
  -24.8361  -13.3713   19.4723 C   0  0  0  0  0  0  0  0  0  0  0  0
  -27.6352  -26.4569   22.8177 C   0  0  0  0  0  0  0  0  0  0  0  0
  -23.5524   -9.8348   20.4471 C   0  0  0  0  0  0  0  0  0  0  0  0
  -23.3719   -8.5319   20.9113 C   0  0  0  0  0  0  0  0  0  0  0  0
  -27.8025  -28.7379   22.0507 C   0  0  0  0  0  0  0  0  0  0  0  0
  -29.2636  -20.9852   17.0287 C   0  0  0  0  0  0  0  0  0  0  0  0
  -29.7144  -22.6170   18.7524 C   0  0  0  0  0  0  0  0  0  0  0  0
  -21.9741   -9.3624   22.6984 C   0  0  0  0  0  0  0  0  0  0  0  0
  -26.9998  -13.6720   20.5043 C   0  0  0  0  0  0  0  0  0  0  0  0
  -29.4900  -13.5246   19.9708 C   0  0  0  0  0  0  0  0  0  0  0  0
  -18.7842  -27.5815   21.3861 C   0  0  0  0  0  0  0  0  0  0  0  0
  -25.8549  -28.0344   23.3046 C   0  0  0  0  0  0  0  0  0  0  0  0
  -20.1624  -27.3299   21.2459 C   0  0  0  0  0  0  0  0  0  0  0  0
  -26.5641  -29.0426   22.6362 C   0  0  0  0  0  0  0  0  0  0  0  0
  -28.8147  -22.0009   16.1846 C   0  0  0  0  0  0  0  0  0  0  0  0
  -29.7134  -21.2933   18.3127 C   0  0  0  0  0  0  0  0  0  0  0  0
  -24.3945  -12.6789   20.5998 C   0  0  0  0  0  0  0  0  0  0  0  0
  -28.3339  -27.4515   22.1397 C   0  0  0  0  0  0  0  0  0  0  0  0
  -22.9439  -10.9015   21.1086 C   0  0  0  0  0  0  0  0  0  0  0  0
  -29.2655  -23.6327   17.9083 C   0  0  0  0  0  0  0  0  0  0  0  0
  -22.5828   -8.2957   22.0369 C   0  0  0  0  0  0  0  0  0  0  0  0
  -22.1547  -10.6653   22.2342 C   0  0  0  0  0  0  0  0  0  0  0  0
  -28.8157  -23.3246   16.6243 C   0  0  0  0  0  0  0  0  0  0  0  0
  -28.3451  -14.1856   20.4546 C   0  0  0  0  0  0  0  0  0  0  0  0
  -30.5076  -14.4312   20.1414 C   0  0  0  0  0  0  0  0  0  0  0  0
  -30.7335  -25.8614   19.9899 C   0  0  0  0  0  0  0  0  0  0  0  0
  -29.6219  -12.2088   19.4167 C   0  0  0  0  0  0  0  0  0  0  0  0
  -30.5063  -25.4338   18.7377 C   0  0  0  0  0  0  0  0  0  0  0  0
  -23.2169  -29.2588   22.0220 C   0  0  0  0  0  0  0  0  0  0  0  0
  -24.2546  -31.9810   23.4487 C   0  0  0  0  0  0  0  0  0  0  0  0
  -26.8697  -33.7780   24.7052 C   0  0  0  0  0  0  0  0  0  0  0  0
  -30.6481  -20.3957   20.4730 C   0  0  0  0  0  0  0  0  0  0  0  0
  -18.1985  -28.9494   21.1404 C   0  0  0  0  0  0  0  0  0  0  0  0
  -24.5370  -28.3383   23.9626 C   0  0  0  0  0  0  0  0  0  0  0  0
  -26.0290  -30.4458   22.5214 C   0  0  0  0  0  0  0  0  0  0  0  0
  -19.2346  -30.0700   21.1706 C   0  0  0  0  0  0  0  0  0  0  0  0
  -31.8286  -18.0984   22.9237 C   0  0  0  0  0  0  0  0  0  0  0  0
  -20.4605  -29.6859   20.3481 C   0  0  0  0  0  0  0  0  0  0  0  0
  -31.1783  -16.7728   22.5211 C   0  0  0  0  0  0  0  0  0  0  0  0
  -30.8963  -19.2841   22.6816 C   0  0  0  0  0  0  0  0  0  0  0  0
  -29.6960  -18.0485   20.9203 C   0  0  0  0  0  0  0  0  0  0  0  0
  -21.1413  -28.4378   20.9226 C   0  0  1  0  0  0  0  0  0  0  0  0
  -23.8341  -29.5510   23.3604 C   0  0  1  0  0  0  0  0  0  0  0  0
  -30.6211  -16.8317   21.0852 C   0  0  2  0  0  0  0  0  0  0  0  0
  -31.5432  -25.4796   17.6591 C   0  0  0  0  0  0  0  0  0  0  0  0
  -27.4127  -35.9848   25.7694 C   0  0  0  0  0  0  0  0  0  0  0  0
  -24.0177  -33.3472   20.7307 C   0  0  0  0  0  0  0  0  0  0  0  0
  -25.4372  -35.2079   21.6202 C   0  0  0  0  0  0  0  0  0  0  0  0
  -23.2234  -34.7227   22.6625 C   0  0  0  0  0  0  0  0  0  0  0  0
  -27.8589  -32.4764   27.1722 C   0  0  0  0  0  0  0  0  0  0  0  0
  -26.4034  -21.2961   13.2883 C   0  0  0  0  0  0  0  0  0  0  0  0
  -26.1608  -20.8357   15.7234 C   0  0  0  0  0  0  0  0  0  0  0  0
  -28.3414  -21.6258   14.8171 C   0  0  0  0  0  0  0  0  0  0  0  0
  -29.7412  -25.8355   21.1084 C   0  0  0  0  0  0  0  0  0  1  0  0
  -25.1481  -33.1277   23.0416 C   0  0  1  0  0  0  0  0  0  0  0  0
  -27.0387  -34.5309   26.0125 C   0  0  2  0  0  0  0  0  0  0  0  0
  -24.4660  -34.0745   22.0141 C   0  0  0  0  0  0  0  0  0  0  0  0
  -28.6098  -15.4169   20.8993 N   0  0  0  0  0  0  0  0  0  0  0  0
  -29.9328  -15.5368   20.6957 N   0  0  0  0  0  0  0  0  0  0  0  0
  -24.7335  -30.6917   23.1760 N   0  0  0  0  0  0  0  0  0  0  0  0
  -30.4111  -19.2771   21.2998 N   0  0  0  0  0  0  0  0  0  0  0  0
  -31.8291  -14.3824   19.8699 N   0  0  0  0  0  0  0  0  0  0  0  0
  -28.4754  -11.4093   19.3136 N   0  0  0  0  0  0  0  0  0  0  0  0
  -30.1693  -20.2615   19.1702 N   0  0  0  0  0  0  0  0  0  0  0  0
  -21.9222  -28.7809   22.0917 N   0  0  0  0  0  0  0  0  0  0  0  0
  -25.5587  -33.7841   24.2781 N   0  0  0  0  0  0  0  0  0  0  0  0
  -28.1085  -33.9021   26.8377 N   0  3  0  0  0  0  0  0  0  0  0  0
  -26.8609  -21.6646   14.6767 N   0  3  0  0  0  0  0  0  0  0  0  0
  -30.7267  -11.7495   19.0398 O   0  0  0  0  0  0  0  0  0  0  0  0
  -23.8666  -29.4540   21.0015 O   0  0  0  0  0  0  0  0  0  0  0  0
  -23.1748  -32.2201   23.9951 O   0  0  0  0  0  0  0  0  0  0  0  0
  -27.8075  -33.2415   24.1194 O   0  0  0  0  0  0  0  0  0  0  0  0
  -31.2566  -21.3878   20.8822 O   0  0  0  0  0  0  0  0  0  0  0  0
  -23.1235  -12.1943   20.6460 O   0  0  0  0  0  0  0  0  0  0  0  0
  -29.2797  -24.9180   18.3677 O   0  0  0  0  0  0  0  0  0  0  0  0
  -29.5367  -27.1707   21.5686 O   0  0  0  0  0  0  0  0  0  1  0  0
  -22.4082   -7.0443   22.4817 F   0  0  0  0  0  0  0  0  0  0  0  0
  -21.5666  -11.6859   22.8731 F   0  0  0  0  0  0  0  0  0  0  0  0
  -28.2625  -24.5912   15.5829 Cl  0  0  0  0  0  0  0  0  0  0  0  0
  1  2  1  0  0  0  0
  1  5  2  0  0  0  0
  2  6  2  0  0  0  0
  3  8  2  0  0  0  0
  3 17  1  0  0  0  0
  4  9  1  0  0  0  0
  4 17  2  0  0  0  0
  5 19  1  0  0  0  0
  6 21  1  0  0  0  0
  7 10  2  0  0  0  0
  7 20  1  0  0  0  0
  8 25  1  0  0  0  0
  9 25  2  0  0  0  0
 10 26  1  0  0  0  0
 11 12  2  0  0  0  0
 11 27  1  0  0  0  0
 12 29  1  0  0  0  0
 13 22  1  0  0  0  0
 13 26  2  0  0  0  0
 14 23  2  0  0  0  0
 14 24  1  0  0  0  0
 15 24  2  0  0  0  0
 15 28  1  0  0  0  0
 16 29  2  0  0  0  0
 16 30  1  0  0  0  0
 17 32  1  0  0  0  0
 18 32  1  0  0  0  0
 18 33  2  0  0  0  0
 18 35  1  0  0  0  0
 19 21  2  0  0  0  0
 19 41  1  0  0  0  0
 20 22  2  0  0  0  0
 20 42  1  0  0  0  0
 21 50  1  0  0  0  0
 22 43  1  0  0  0  0
 23 31  1  0  0  0  0
 23 61  1  0  0  0  0
 24 72  1  0  0  0  0
 25 82  1  0  0  0  0
 26 84  1  0  0  0  0
 27 30  2  0  0  0  0
 27 82  1  0  0  0  0
 28 31  2  0  0  0  0
 28 83  1  0  0  0  0
 29 85  1  0  0  0  0
 30 86  1  0  0  0  0
 31 87  1  0  0  0  0
 32 66  2  0  0  0  0
 33 67  1  0  0  0  0
 33 70  1  0  0  0  0
 34 36  2  0  0  0  0
 34 62  1  0  0  0  0
 35 71  1  0  0  0  0
 35 77  2  0  0  0  0
 36 53  1  0  0  0  0
 36 83  1  0  0  0  0
 37 51  1  0  0  0  0
 37 73  1  0  0  0  0
 37 78  2  0  0  0  0
 38 63  1  0  0  0  0
 38 68  1  0  0  0  0
 38 79  2  0  0  0  0
 39 64  1  0  0  0  0
 39 74  1  0  0  0  0
 39 80  2  0  0  0  0
 40 69  1  0  0  0  0
 40 72  1  0  0  0  0
 40 81  2  0  0  0  0
 41 44  1  0  0  0  0
 42 51  1  0  0  0  0
 43 68  1  0  0  0  0
 44 46  1  0  0  0  0
 45 47  1  0  0  0  0
 45 48  1  0  0  0  0
 46 50  1  0  0  0  0
 47 52  1  0  0  0  0
 48 69  1  0  0  0  0
 49 52  1  0  0  0  0
 49 69  1  0  0  0  0
 50 73  1  0  0  0  0
 51 68  1  0  0  0  0
 52 67  1  0  0  0  0
 54 64  1  0  0  0  0
 55 65  1  0  0  0  0
 56 65  1  0  0  0  0
 57 65  1  0  0  0  0
 58 75  1  0  0  0  0
 59 76  1  0  0  0  0
 60 76  1  0  0  0  0
 61 76  1  0  0  0  0
 62 84  1  0  0  0  0
 63 65  1  0  0  0  0
 63 74  1  0  0  0  0
 64 75  1  0  0  0  0
 66 67  1  0  0  0  0
M  CHG  2  75   1  76   1
M  ISO  4  40 100  62 101  72 100  84 101
M  END
> <Batch ID>
0112

> <Smiles>
CNC(C)C(=O)NC(C(=O)N1Cc2cc([101O:1][101CH2:1]C=C(C)Oc3cc([100NH:0][100C:0](=O)N4CCCC(n5nc(-c6ccc(Oc7ccc(F)cc7F)cc6)c(C(N)=O)c5N)C4)cc(CN(C)C)c3Cl)ccc2CC1C(=O)NC1CCCc2ccccc21)C(C)(C)C

> <Shape>
0.340

> <Color>
0.089

> <Negative vol penalty>
0.000

$$$$

  -OEChem-04052301313D

 84 92  0     1  0  0  0  0  0999 V2000
  -19.6952  -31.0244   21.1020 C   0  0  0  0  0  0  0  0  0  0  0  0
  -20.9806  -30.9733   21.6317 C   0  0  0  0  0  0  0  0  0  0  0  0
  -24.1041   -9.9537   22.4559 C   0  0  0  0  0  0  0  0  0  0  0  0
  -24.4195  -11.6615   24.1355 C   0  0  0  0  0  0  0  0  0  0  0  0
  -18.8323  -29.9413   21.2636 C   0  0  0  0  0  0  0  0  0  0  0  0
  -21.4034  -29.8394   22.3243 C   0  0  0  0  0  0  0  0  0  0  0  0
  -27.1676  -26.1033   20.1545 C   0  0  0  0  0  0  0  0  0  0  0  0
  -28.1796  -18.3027   22.7636 C   0  0  0  0  0  0  0  0  0  0  0  0
  -23.6822   -9.0618   23.4419 C   0  0  0  0  0  0  0  0  0  0  0  0
  -23.9976  -10.7696   25.1216 C   0  0  0  0  0  0  0  0  0  0  0  0
  -28.3829  -25.4576   19.9261 C   0  0  0  0  0  0  0  0  0  0  0  0
  -28.3746  -19.1308   21.6582 C   0  0  0  0  0  0  0  0  0  0  0  0
  -22.6598   -9.0528   28.0338 C   0  0  0  0  0  0  0  0  0  0  0  0
  -21.7541   -9.5191   28.9866 C   0  0  0  0  0  0  0  0  0  0  0  0
  -29.9528  -17.5440   20.7480 C   0  0  0  0  0  0  0  0  0  0  0  0
  -27.9087  -23.9073   21.7205 C   0  0  0  0  0  0  0  0  0  0  0  0
  -20.1630  -10.0073   27.2352 C   0  0  0  0  0  0  0  0  0  0  0  0
  -24.4727  -11.2536   22.8027 C   0  0  0  0  0  0  0  0  0  0  0  0
  -29.7578  -16.7160   21.8535 C   0  0  0  0  0  0  0  0  0  0  0  0
  -24.1072  -13.0585   21.0375 C   0  0  0  0  0  0  0  0  0  0  0  0
  -19.2481  -28.7896   21.9502 C   0  0  0  0  0  0  0  0  0  0  0  0
  -26.3102  -25.6434   21.1579 C   0  0  0  0  0  0  0  0  0  0  0  0
  -20.5448  -28.7403   22.4965 C   0  0  0  0  0  0  0  0  0  0  0  0
  -26.6845  -24.5424   21.9457 C   0  0  0  0  0  0  0  0  0  0  0  0
  -28.8712  -17.0953   22.8613 C   0  0  0  0  0  0  0  0  0  0  0  0
  -23.6290   -9.4697   24.7747 C   0  0  0  0  0  0  0  0  0  0  0  0
  -29.2612  -18.7514   20.6504 C   0  0  0  0  0  0  0  0  0  0  0  0
  -28.7526  -24.3625   20.7073 C   0  0  0  0  0  0  0  0  0  0  0  0
  -22.3172   -9.0638   26.6817 C   0  0  0  0  0  0  0  0  0  0  0  0
  -20.5057   -9.9963   28.5873 C   0  0  0  0  0  0  0  0  0  0  0  0
  -21.0688   -9.5410   26.2824 C   0  0  0  0  0  0  0  0  0  0  0  0
  -24.9091  -12.1752   21.7847 C   0  0  0  0  0  0  0  0  0  0  0  0
  -24.9908  -13.7091   20.2114 C   0  0  0  0  0  0  0  0  0  0  0  0
  -31.0383  -21.9861   19.2580 C   0  0  0  0  0  0  0  0  0  0  0  0
  -29.9531  -22.6966   19.5863 C   0  0  0  0  0  0  0  0  0  1  0  0
  -30.4966  -15.4618   21.9268 C   0  0  0  0  0  0  0  0  0  0  0  0
  -22.6902  -13.2720   21.0858 C   0  0  0  0  0  0  0  0  0  0  0  0
  -30.8944  -14.7310   20.7017 C   0  0  0  0  0  0  0  0  0  0  0  0
  -23.0398  -26.0529   22.9502 C   0  0  0  0  0  0  0  0  0  0  0  0
  -23.4831  -23.0398   22.5823 C   0  0  0  0  0  0  0  0  0  0  0  0
  -23.9177  -20.2404   21.2123 C   0  0  0  0  0  0  0  0  0  0  0  0
  -18.2638  -27.6628   22.1404 C   0  0  0  0  0  0  0  0  0  0  0  0
  -25.0193  -26.3461   21.4798 C   0  0  0  0  0  0  0  0  0  0  0  0
  -25.7462  -24.1040   23.0367 C   0  0  0  0  0  0  0  0  0  0  0  0
  -18.9161  -26.3492   22.5636 C   0  0  0  0  0  0  0  0  0  0  0  0
  -29.1791  -13.1292   17.9908 C   0  0  0  0  0  0  0  0  0  0  0  0
  -19.9174  -26.5887   23.6892 C   0  0  0  0  0  0  0  0  0  0  0  0
  -27.8306  -12.7493   18.6016 C   0  0  0  0  0  0  0  0  0  0  0  0
  -30.3035  -13.0337   19.0169 C   0  0  0  0  0  0  0  0  0  0  0  0
  -28.7114  -13.4629   20.8688 C   0  0  0  0  0  0  0  0  0  0  0  0
  -21.0486  -27.5180   23.2327 C   0  0  1  0  0  0  0  0  0  0  0  0
  -23.9020  -25.3836   21.9206 C   0  0  1  0  0  0  0  0  0  0  0  0
  -27.5467  -13.5741   19.8695 C   0  0  2  0  0  0  0  0  0  0  0  0
  -23.6622  -17.7498   21.0414 C   0  0  0  0  0  0  0  0  0  0  0  0
  -24.4229  -22.8464   25.4777 C   0  0  0  0  0  0  0  0  0  0  0  0
  -24.3741  -20.3534   25.2526 C   0  0  0  0  0  0  0  0  0  0  0  0
  -22.2695  -21.6684   24.9986 C   0  0  0  0  0  0  0  0  0  0  0  0
  -22.5575  -20.4432   18.5917 C   0  0  0  0  0  0  0  0  0  0  0  0
  -31.0228  -20.8539   18.2708 C   0  0  0  0  0  0  0  0  0  0  0  0
  -30.7316  -19.5190   18.9462 C   0  0  0  0  0  0  0  0  0  0  0  0
  -24.0153  -21.7583   23.1721 C   0  0  1  0  0  0  0  0  0  0  0  0
  -23.1023  -19.1016   20.6269 C   0  0  2  0  0  0  0  0  0  0  0  0
  -23.7861  -21.6724   24.7075 C   0  0  0  0  0  0  0  0  0  0  0  0
  -26.2027  -12.2546   21.4618 N   0  0  0  0  0  0  0  0  0  0  0  0
  -30.8529  -14.9084   23.0525 N   0  0  0  0  0  0  0  0  0  0  0  0
  -26.2204  -13.1955   20.5024 N   0  0  0  0  0  0  0  0  0  0  0  0
  -29.9861  -13.7979   20.2216 N   0  0  0  0  0  0  0  0  0  0  0  0
  -24.3589  -24.1317   22.5474 N   0  0  0  0  0  0  0  0  0  0  0  0
  -28.6614  -16.2721   23.9899 N   0  0  0  0  0  0  0  0  0  0  0  0
  -24.8283  -14.6644   19.2716 N   0  0  0  0  0  0  0  0  0  0  0  0
  -21.9317  -12.5192   21.9926 N   0  0  0  0  0  0  0  0  0  0  0  0
  -22.0009  -26.7931   22.4189 N   0  0  0  0  0  0  0  0  0  0  0  0
  -23.4001  -20.6739   22.4145 N   0  0  0  0  0  0  0  0  0  0  0  0
  -23.1044  -19.1748   19.1384 N   0  3  0  0  0  0  0  0  0  0  0  0
  -22.1117  -14.0939   20.3353 O   0  0  0  0  0  0  0  0  0  0  0  0
  -31.9884  -15.0299   20.2412 O   0  0  0  0  0  0  0  0  0  0  0  0
  -23.2962  -25.9079   24.1397 O   0  0  0  0  0  0  0  0  0  0  0  0
  -22.3210  -23.0763   22.1684 O   0  0  0  0  0  0  0  0  0  0  0  0
  -24.9164  -20.6970   20.6603 O   0  0  0  0  0  0  0  0  0  0  0  0
  -23.2172   -8.5998   25.7370 O   0  0  0  0  0  0  0  0  0  0  0  0
  -29.9384  -23.7339   20.4759 O   0  0  0  0  0  0  0  0  0  1  0  0
  -29.4520  -19.5648   19.5642 O   0  0  0  0  0  0  0  0  0  0  0  0
  -19.6354  -10.4426   29.5025 F   0  0  0  0  0  0  0  0  0  0  0  0
  -20.7335   -9.5529   24.9850 F   0  0  0  0  0  0  0  0  0  0  0  0
  1  2  1  0  0  0  0
  1  5  2  0  0  0  0
  2  6  2  0  0  0  0
  3  9  2  0  0  0  0
  3 18  1  0  0  0  0
  4 10  1  0  0  0  0
  4 18  2  0  0  0  0
  5 21  1  0  0  0  0
  6 23  1  0  0  0  0
  7 11  2  0  0  0  0
  7 22  1  0  0  0  0
  8 12  2  0  0  0  0
  8 25  1  0  0  0  0
  9 26  1  0  0  0  0
 10 26  2  0  0  0  0
 11 28  1  0  0  0  0
 12 27  1  0  0  0  0
 13 14  2  0  0  0  0
 13 29  1  0  0  0  0
 14 30  1  0  0  0  0
 15 19  1  0  0  0  0
 15 27  2  0  0  0  0
 16 24  1  0  0  0  0
 16 28  2  0  0  0  0
 17 30  2  0  0  0  0
 17 31  1  0  0  0  0
 18 32  1  0  0  0  0
 19 25  2  0  0  0  0
 19 36  1  0  0  0  0
 20 32  1  0  0  0  0
 20 33  2  0  0  0  0
 20 37  1  0  0  0  0
 21 23  2  0  0  0  0
 21 42  1  0  0  0  0
 22 24  2  0  0  0  0
 22 43  1  0  0  0  0
 23 51  1  0  0  0  0
 24 44  1  0  0  0  0
 25 69  1  0  0  0  0
 26 80  1  0  0  0  0
 27 82  1  0  0  0  0
 28 81  1  0  0  0  0
 29 31  2  0  0  0  0
 29 80  1  0  0  0  0
 30 83  1  0  0  0  0
 31 84  1  0  0  0  0
 32 64  2  0  0  0  0
 33 66  1  0  0  0  0
 33 70  1  0  0  0  0
 34 35  2  0  0  0  0
 34 59  1  0  0  0  0
 35 81  1  0  0  0  0
 36 38  1  0  0  0  0
 36 65  2  0  0  0  0
 37 71  1  0  0  0  0
 37 75  2  0  0  0  0
 38 67  1  0  0  0  0
 38 76  2  0  0  0  0
 39 52  1  0  0  0  0
 39 72  1  0  0  0  0
 39 77  2  0  0  0  0
 40 61  1  0  0  0  0
 40 68  1  0  0  0  0
 40 78  2  0  0  0  0
 41 62  1  0  0  0  0
 41 73  1  0  0  0  0
 41 79  2  0  0  0  0
 42 45  1  0  0  0  0
 43 52  1  0  0  0  0
 44 68  1  0  0  0  0
 45 47  1  0  0  0  0
 46 48  1  0  0  0  0
 46 49  1  0  0  0  0
 47 51  1  0  0  0  0
 48 53  1  0  0  0  0
 49 67  1  0  0  0  0
 50 53  1  0  0  0  0
 50 67  1  0  0  0  0
 51 72  1  0  0  0  0
 52 68  1  0  0  0  0
 53 66  1  0  0  0  0
 54 62  1  0  0  0  0
 55 63  1  0  0  0  0
 56 63  1  0  0  0  0
 57 63  1  0  0  0  0
 58 74  1  0  0  0  0
 59 60  1  0  0  0  0
 60 82  1  0  0  0  0
 61 63  1  0  0  0  0
 61 73  1  0  0  0  0
 62 74  1  0  0  0  0
 64 66  1  0  0  0  0
M  CHG  1  74   1
M  ISO  4  35 101  36 100  38 100  81 101
M  END
> <Batch ID>
0112

> <Smiles>
CNC(C)C(=O)NC(C(=O)N1Cc2cc([101O:1][101CH:1]=CCCOc3ccc(N)c([100C:0](=N)[100C:0](=O)N4CCCC(n5nc(-c6ccc(Oc7ccc(F)cc7F)cc6)c(C(N)=O)c5N)C4)c3)ccc2CC1C(=O)NC1CCCc2ccccc21)C(C)(C)C

> <Shape>
0.217

> <Color>
0.114

> <Negative vol penalty>
0.000

$$$$

  -OEChem-04052301313D

 87 96  0     1  0  0  0  0  0999 V2000
  -19.2094  -28.8819   23.3155 C   0  0  0  0  0  0  0  0  0  0  0  0
  -20.5320  -28.4961   23.1225 C   0  0  0  0  0  0  0  0  0  0  0  0
  -32.5553  -22.6502   18.3867 C   0  0  0  0  0  0  0  0  0  0  0  0
  -24.3554  -13.8186   22.1920 C   0  0  0  0  0  0  0  0  0  0  0  0
  -26.2812  -13.9843   20.7425 C   0  0  0  0  0  0  0  0  0  0  0  0
  -18.1746  -28.0993   22.8051 C   0  0  0  0  0  0  0  0  0  0  0  0
  -20.8205  -27.3267   22.4198 C   0  0  0  0  0  0  0  0  0  0  0  0
  -24.5618  -27.9495   19.0642 C   0  0  0  0  0  0  0  0  0  0  0  0
  -32.6436  -24.0407   18.3216 C   0  0  0  0  0  0  0  0  0  0  0  0
  -31.4732  -22.0494   19.0300 C   0  0  0  0  0  0  0  0  0  0  0  0
  -23.8849  -12.7397   21.4435 C   0  0  0  0  0  0  0  0  0  0  0  0
  -25.8107  -12.9054   19.9941 C   0  0  0  0  0  0  0  0  0  0  0  0
  -25.8650  -27.9649   19.5593 C   0  0  0  0  0  0  0  0  0  0  0  0
  -24.5247   -9.4309   21.1686 C   0  0  0  0  0  0  0  0  0  0  0  0
  -24.0493   -8.3185   21.8629 C   0  0  0  0  0  0  0  0  0  0  0  0
  -26.1419  -25.6653   18.8852 C   0  0  0  0  0  0  0  0  0  0  0  0
  -30.5678  -24.2297   19.5433 C   0  0  0  0  0  0  0  0  0  0  0  0
  -21.8846   -8.5969   20.8266 C   0  0  0  0  0  0  0  0  0  0  0  0
  -25.5535  -14.4409   21.8415 C   0  0  0  0  0  0  0  0  0  0  0  0
  -26.3662  -15.5633   23.9833 C   0  0  0  0  0  0  0  0  0  0  0  0
  -18.4508  -26.9249   22.0875 C   0  0  0  0  0  0  0  0  0  0  0  0
  -24.0342  -26.7865   18.4848 C   0  0  0  0  0  0  0  0  0  0  0  0
  -19.7883  -26.5269   21.9005 C   0  0  0  0  0  0  0  0  0  0  0  0
  -24.8326  -25.6385   18.3812 C   0  0  0  0  0  0  0  0  0  0  0  0
  -31.6499  -24.8304   18.8999 C   0  0  0  0  0  0  0  0  0  0  0  0
  -30.4795  -22.8391   19.6083 C   0  0  0  0  0  0  0  0  0  0  0  0
  -24.6125  -12.2831   20.3446 C   0  0  0  0  0  0  0  0  0  0  0  0
  -26.6543  -26.8219   19.4724 C   0  0  0  0  0  0  0  0  0  0  0  0
  -23.6801  -10.1264   20.3033 C   0  0  0  0  0  0  0  0  0  0  0  0
  -22.7293   -7.9015   21.6919 C   0  0  0  0  0  0  0  0  0  0  0  0
  -22.3601   -9.7094   20.1324 C   0  0  0  0  0  0  0  0  0  0  0  0
  -26.0398  -15.5558   22.6139 C   0  0  0  0  0  0  0  0  0  0  0  0
  -26.7755  -16.8507   24.2317 C   0  0  0  0  0  0  0  0  0  0  0  0
  -30.9097  -28.2913   20.7920 C   0  0  0  0  0  0  0  0  0  0  0  0
  -30.1088  -27.8376   19.8108 C   0  0  0  0  0  0  0  0  0  0  0  0
  -32.3898  -28.1778   20.8161 C   0  0  0  0  0  0  0  0  0  0  0  0
  -26.3051  -14.5015   24.9448 C   0  0  0  0  0  0  0  0  0  0  0  0
  -21.6082  -24.8464   19.1588 C   0  0  0  0  0  0  0  0  0  0  0  0
  -22.4319  -23.4726   16.3381 C   0  0  0  0  0  0  0  0  0  0  0  0
  -23.0931  -21.5509   13.5964 C   0  0  0  0  0  0  0  0  0  0  0  0
  -29.1332  -20.8622   20.4231 C   0  0  0  0  0  0  0  0  0  0  0  0
  -17.2975  -26.0866   21.5955 C   0  0  0  0  0  0  0  0  0  0  0  0
  -22.6356  -26.7942   17.9314 C   0  0  0  0  0  0  0  0  0  0  0  0
  -24.3203  -24.3706   17.7499 C   0  0  0  0  0  0  0  0  0  0  0  0
  -33.1310  -28.1858   19.5031 C   0  0  0  0  0  0  0  0  0  0  0  0
  -17.6980  -25.0595   20.5396 C   0  0  0  0  0  0  0  0  0  0  0  0
  -25.6700  -21.0345   22.0664 C   0  0  0  0  0  0  0  0  0  0  0  0
  -18.9584  -24.3155   20.9695 C   0  0  0  0  0  0  0  0  0  0  0  0
  -25.8076  -19.8907   23.0684 C   0  0  0  0  0  0  0  0  0  0  0  0
  -33.0673  -26.8443   18.7912 C   0  0  0  0  0  0  0  0  0  0  0  0
  -27.0208  -21.5995   21.6457 C   0  0  0  0  0  0  0  0  0  0  0  0
  -27.5588  -19.1747   21.3505 C   0  0  0  0  0  0  0  0  0  0  0  0
  -20.1422  -25.2782   21.1223 C   0  0  1  0  0  0  0  0  0  0  0  0
  -30.5141  -27.0153   18.5943 C   0  0  1  0  0  0  0  0  0  0  0  0
  -22.0271  -25.3993   17.8259 C   0  0  1  0  0  0  0  0  0  0  0  0
  -27.0041  -18.9661   22.7683 C   0  0  2  0  0  0  0  0  0  0  0  0
  -30.6051  -27.8360   17.3032 C   0  0  0  0  0  0  0  0  0  0  0  0
  -22.7291  -19.2466   12.6718 C   0  0  0  0  0  0  0  0  0  0  0  0
  -24.5953  -22.3879   18.1963 C   0  0  0  0  0  0  0  0  0  0  0  0
  -24.8577  -20.4431   16.6415 C   0  0  0  0  0  0  0  0  0  0  0  0
  -22.6820  -20.8270   17.7997 C   0  0  0  0  0  0  0  0  0  0  0  0
  -21.5778  -22.5945   11.2784 C   0  0  0  0  0  0  0  0  0  0  0  0
  -28.6213  -28.0801   19.9239 C   0  0  0  0  0  0  0  0  0  1  0  0
  -23.3752  -22.3703   15.9210 C   0  0  1  0  0  0  0  0  0  0  0  0
  -22.1977  -20.6696   12.7444 C   0  0  2  0  0  0  0  0  0  0  0  0
  -23.8807  -21.5337   17.1301 C   0  0  0  0  0  0  0  0  0  0  0  0
  -26.2255  -16.7441   22.0330 N   0  0  0  0  0  0  0  0  0  0  0  0
  -26.6729  -17.5104   23.0424 N   0  0  0  0  0  0  0  0  0  0  0  0
  -31.7385  -26.2272   18.8339 N   0  0  3  0  0  0  0  0  0  0  0  0
  -22.9443  -24.4262   17.2292 N   0  0  0  0  0  0  0  0  0  0  0  0
  -27.9401  -20.5746   21.1302 N   0  0  0  0  0  0  0  0  0  0  0  0
  -27.2093  -17.4715   25.3492 N   0  0  0  0  0  0  0  0  0  0  0  0
  -27.4355  -13.6914   25.1184 N   0  0  0  0  0  0  0  0  0  0  0  0
  -29.3808  -22.2281   20.2630 N   0  0  0  0  0  0  0  0  0  0  0  0
  -20.6818  -25.6256   19.8251 N   0  0  0  0  0  0  0  0  0  0  0  0
  -22.6706  -21.5915   14.9084 N   0  0  0  0  0  0  0  0  0  0  0  0
  -22.1079  -21.2090   11.3580 N   0  3  0  0  0  0  0  0  0  0  0  0
  -32.9799  -28.1331   21.8939 O   0  0  0  0  0  0  0  0  0  0  0  0
  -25.2729  -14.2675   25.6181 O   0  0  0  0  0  0  0  0  0  0  0  0
  -22.0889  -23.7903   19.5529 O   0  0  0  0  0  0  0  0  0  0  0  0
  -21.2851  -23.4912   15.8842 O   0  0  0  0  0  0  0  0  0  0  0  0
  -24.0718  -22.1410   13.1443 O   0  0  0  0  0  0  0  0  0  0  0  0
  -29.8732  -19.9669   20.0098 O   0  0  0  0  0  0  0  0  0  0  0  0
  -24.1538  -11.2302   19.6141 O   0  0  0  0  0  0  0  0  0  0  0  0
  -27.9265  -26.8341   19.9554 O   0  0  0  0  0  0  0  0  0  1  0  0
  -22.2733   -6.8323   22.3575 F   0  0  0  0  0  0  0  0  0  0  0  0
  -21.5442  -10.3728   19.3016 F   0  0  0  0  0  0  0  0  0  0  0  0
  1  2  1  0  0  0  0
  1  6  2  0  0  0  0
  2  7  2  0  0  0  0
  3  9  2  0  0  0  0
  3 10  1  0  0  0  0
  4 11  2  0  0  0  0
  4 19  1  0  0  0  0
  5 12  1  0  0  0  0
  5 19  2  0  0  0  0
  6 21  1  0  0  0  0
  7 23  1  0  0  0  0
  8 13  2  0  0  0  0
  8 22  1  0  0  0  0
  9 25  1  0  0  0  0
 10 26  2  0  0  0  0
 11 27  1  0  0  0  0
 12 27  2  0  0  0  0
 13 28  1  0  0  0  0
 14 15  2  0  0  0  0
 14 29  1  0  0  0  0
 15 30  1  0  0  0  0
 16 24  1  0  0  0  0
 16 28  2  0  0  0  0
 17 25  2  0  0  0  0
 17 26  1  0  0  0  0
 18 30  2  0  0  0  0
 18 31  1  0  0  0  0
 19 32  1  0  0  0  0
 20 32  1  0  0  0  0
 20 33  2  0  0  0  0
 20 37  1  0  0  0  0
 21 23  2  0  0  0  0
 21 42  1  0  0  0  0
 22 24  2  0  0  0  0
 22 43  1  0  0  0  0
 23 53  1  0  0  0  0
 24 44  1  0  0  0  0
 25 69  1  0  0  0  0
 26 74  1  0  0  0  0
 27 84  1  0  0  0  0
 28 85  1  0  0  0  0
 29 31  2  0  0  0  0
 29 84  1  0  0  0  0
 30 86  1  0  0  0  0
 31 87  1  0  0  0  0
 32 67  2  0  0  0  0
 33 68  1  0  0  0  0
 33 72  1  0  0  0  0
 34 35  2  0  0  0  0
 34 36  1  0  0  0  0
 35 54  1  0  0  0  0
 35 63  1  0  0  0  0
 36 45  1  0  0  0  0
 36 78  2  0  0  0  0
 37 73  1  0  0  0  0
 37 79  2  0  0  0  0
 38 55  1  0  0  0  0
 38 75  1  0  0  0  0
 38 80  2  0  0  0  0
 39 64  1  0  0  0  0
 39 70  1  0  0  0  0
 39 81  2  0  0  0  0
 40 65  1  0  0  0  0
 40 76  1  0  0  0  0
 40 82  2  0  0  0  0
 41 71  1  0  0  0  0
 41 74  1  0  0  0  0
 41 83  2  0  0  0  0
 42 46  1  0  0  0  0
 43 55  1  0  0  0  0
 44 70  1  0  0  0  0
 45 50  1  0  0  0  0
 46 48  1  0  0  0  0
 47 49  1  0  0  0  0
 47 51  1  0  0  0  0
 48 53  1  0  0  0  0
 49 56  1  0  0  0  0
 50 69  1  0  0  0  0
 51 71  1  0  0  0  0
 52 56  1  0  0  0  0
 52 71  1  0  0  0  0
 53 75  1  0  0  0  0
 54 57  1  0  0  0  0
 54 69  1  0  0  0  0
 55 70  1  0  0  0  0
 56 68  1  0  0  0  0
 58 65  1  0  0  0  0
 59 66  1  0  0  0  0
 60 66  1  0  0  0  0
 61 66  1  0  0  0  0
 62 77  1  0  0  0  0
 63 85  1  0  0  0  0
 64 66  1  0  0  0  0
 64 76  1  0  0  0  0
 65 77  1  0  0  0  0
 67 68  1  0  0  0  0
M  CHG  1  77   1
M  ISO  4  41 100  63 101  74 100  85 101
M  END
> <Batch ID>
0112

> <Smiles>
CNC(C)C(=O)NC(C(=O)N1Cc2cc([101O:1][101CH2:1]C3=C(C)N(c4cccc([100NH:0][100C:0](=O)N5CCCC(n6nc(-c7ccc(Oc8ccc(F)cc8F)cc7)c(C(N)=O)c6N)C5)c4)CCC(=O)C3)ccc2CC1C(=O)NC1CCCc2ccccc21)C(C)(C)C

> <Shape>
0.219

> <Color>
0.073

> <Negative vol penalty>
0.000

$$$$

  -OEChem-04052301313D

 86 95  0     1  0  0  0  0  0999 V2000
  -30.6867  -35.8975   21.3607 C   0  0  0  0  0  0  0  0  0  0  0  0
  -30.5975  -34.5932   20.8850 C   0  0  0  0  0  0  0  0  0  0  0  0
  -23.2491   -9.8615   21.6265 C   0  0  0  0  0  0  0  0  0  0  0  0
  -23.9641  -10.9415   23.6660 C   0  0  0  0  0  0  0  0  0  0  0  0
  -30.0219  -36.2580   22.5320 C   0  0  0  0  0  0  0  0  0  0  0  0
  -29.8442  -33.6484   21.5809 C   0  0  0  0  0  0  0  0  0  0  0  0
  -26.5736  -29.0581   19.1853 C   0  0  0  0  0  0  0  0  0  0  0  0
  -22.5590   -8.9072   22.3737 C   0  0  0  0  0  0  0  0  0  0  0  0
  -23.2738   -9.9872   24.4133 C   0  0  0  0  0  0  0  0  0  0  0  0
  -26.8461  -27.7015   19.0150 C   0  0  0  0  0  0  0  0  0  0  0  0
  -19.6270   -8.6951   24.0445 C   0  0  0  0  0  0  0  0  0  0  0  0
  -18.3335   -8.3660   23.6395 C   0  0  0  0  0  0  0  0  0  0  0  0
  -25.6824  -27.2157   21.0714 C   0  0  0  0  0  0  0  0  0  0  0  0
  -31.5091  -19.8142   21.5501 C   0  0  0  0  0  0  0  0  0  0  0  0
  -31.8384  -17.5211   20.8646 C   0  0  0  0  0  0  0  0  0  0  0  0
  -29.6039  -18.4265   21.0195 C   0  0  0  0  0  0  0  0  0  0  0  0
  -19.0142   -6.0682   23.3327 C   0  0  0  0  0  0  0  0  0  0  0  0
  -23.9517  -10.8787   22.2726 C   0  0  0  0  0  0  0  0  0  0  0  0
  -24.1697  -13.0930   21.0247 C   0  0  0  0  0  0  0  0  0  0  0  0
  -29.2522  -35.3196   23.2374 C   0  0  0  0  0  0  0  0  0  0  0  0
  -25.8617  -29.5057   20.3075 C   0  0  0  0  0  0  0  0  0  0  0  0
  -29.1695  -33.9964   22.7634 C   0  0  0  0  0  0  0  0  0  0  0  0
  -25.4000  -28.5783   21.2524 C   0  0  0  0  0  0  0  0  0  0  0  0
  -32.3637  -18.7480   21.2700 C   0  0  0  0  0  0  0  0  0  0  0  0
  -30.1291  -19.6534   21.4249 C   0  0  0  0  0  0  0  0  0  0  0  0
  -30.4585  -17.3603   20.7393 C   0  0  0  0  0  0  0  0  0  0  0  0
  -22.5713   -8.9700   23.7671 C   0  0  0  0  0  0  0  0  0  0  0  0
  -26.4029  -26.7804   19.9596 C   0  0  0  0  0  0  0  0  0  0  0  0
  -20.6142   -7.7108   24.0936 C   0  0  0  0  0  0  0  0  0  0  0  0
  -18.0271   -7.0525   23.2836 C   0  0  0  0  0  0  0  0  0  0  0  0
  -20.3078   -6.3974   23.7377 C   0  0  0  0  0  0  0  0  0  0  0  0
  -24.6654  -11.8645   21.5012 C   0  0  0  0  0  0  0  0  0  0  0  0
  -25.2299  -13.6550   20.3564 C   0  0  0  0  0  0  0  0  0  0  0  0
  -27.7177  -23.5201   20.7195 C   0  0  0  0  0  0  0  0  0  0  0  0
  -27.4619  -22.2051   20.8054 C   0  0  0  0  0  0  0  0  0  0  0  0
  -22.8674  -13.6741   21.1729 C   0  0  0  0  0  0  0  0  0  0  0  0
  -26.5063  -31.4352   22.7499 C   0  0  0  0  0  0  0  0  0  0  0  0
  -23.3702  -30.9726   23.4377 C   0  0  0  0  0  0  0  0  0  0  0  0
  -20.5991  -29.0028   23.1417 C   0  0  0  0  0  0  0  0  0  0  0  0
  -30.6329  -14.9551   20.0106 C   0  0  0  0  0  0  0  0  0  0  0  0
  -28.5900  -35.7441   24.5243 C   0  0  0  0  0  0  0  0  0  0  0  0
  -25.5528  -30.9696   20.4630 C   0  0  0  0  0  0  0  0  0  0  0  0
  -24.6141  -29.0053   22.4642 C   0  0  0  0  0  0  0  0  0  0  0  0
  -29.1282  -23.7813   20.3010 C   0  0  0  0  0  0  0  0  0  0  0  0
  -27.5074  -34.7786   24.9996 C   0  0  0  0  0  0  0  0  0  0  0  0
  -29.6852  -11.6778   18.9918 C   0  0  0  0  0  0  0  0  0  0  0  0
  -28.0045  -33.3386   24.9212 C   0  0  0  0  0  0  0  0  0  0  0  0
  -28.2540  -11.5353   19.5146 C   0  0  0  0  0  0  0  0  0  0  0  0
  -30.5648  -12.4717   19.9560 C   0  0  0  0  0  0  0  0  0  0  0  0
  -28.5983  -13.6387   20.8725 C   0  0  0  0  0  0  0  0  0  0  0  0
  -29.5781  -22.4144   19.8216 C   0  0  0  0  0  0  0  0  0  0  0  0
  -28.3420  -32.9494   23.4768 C   0  0  1  0  0  0  0  0  0  0  0  0
  -25.2644  -31.3693   21.9067 C   0  0  1  0  0  0  0  0  0  0  0  0
  -27.6578  -12.9020   19.9048 C   0  0  2  0  0  0  0  0  0  0  0  0
  -33.8391  -18.9200   21.4041 C   0  0  0  0  0  0  0  0  0  0  0  0
  -26.1691  -21.5319   21.1205 C   0  0  0  0  0  0  0  0  0  0  0  0
  -18.1936  -28.8683   23.8437 C   0  0  0  0  0  0  0  0  0  0  0  0
  -24.2375  -30.1331   26.2400 C   0  0  0  0  0  0  0  0  0  0  0  0
  -21.9678  -29.1278   26.5658 C   0  0  0  0  0  0  0  0  0  0  0  0
  -22.1986  -31.5796   26.1685 C   0  0  0  0  0  0  0  0  0  0  0  0
  -19.6571  -29.0501   20.3364 C   0  0  0  0  0  0  0  0  0  0  0  0
  -29.2100  -20.8004   21.7261 C   0  0  0  0  0  0  0  0  0  0  0  0
  -26.8091  -24.6706   20.9793 C   0  0  0  0  0  0  0  0  0  1  0  0
  -22.5917  -29.9719   24.2573 C   0  0  1  0  0  0  0  0  0  0  0  0
  -19.1647  -29.3315   22.7689 C   0  0  2  0  0  0  0  0  0  0  0  0
  -22.7654  -30.1950   25.7862 C   0  0  0  0  0  0  0  0  0  0  0  0
  -25.9411  -11.6576   21.1641 N   0  0  0  0  0  0  0  0  0  0  0  0
  -26.2560  -12.7636   20.4686 N   0  0  0  0  0  0  0  0  0  0  0  0
  -24.3429  -30.4481   22.5749 N   0  0  0  0  0  0  0  0  0  0  0  0
  -29.9387  -13.7561   20.2772 N   0  0  0  0  0  0  0  0  0  0  0  0
  -25.3751  -14.8197   19.6895 N   0  0  0  0  0  0  0  0  0  0  0  0
  -21.8957  -12.9623   21.8895 N   0  0  0  0  0  0  0  0  0  0  0  0
  -29.9249  -16.1140   20.3274 N   0  0  0  0  0  0  0  0  0  0  0  0
  -27.1326  -32.6668   22.7338 N   0  0  0  0  0  0  0  0  0  0  0  0
  -21.2103  -30.0520   23.7948 N   0  0  0  0  0  0  0  0  0  0  0  0
  -28.6377  -21.4351   20.4922 N   0  3  1  0  0  0  0  0  0  0  0  0
  -18.7976  -28.6675   21.4862 N   0  3  0  0  0  0  0  0  0  0  0  0
  -22.5691  -14.7840   20.6703 O   0  0  0  0  0  0  0  0  0  0  0  0
  -26.8686  -30.4425   23.3704 O   0  0  0  0  0  0  0  0  0  0  0  0
  -23.1193  -32.1748   23.5534 O   0  0  0  0  0  0  0  0  0  0  0  0
  -21.1236  -27.9218   22.8828 O   0  0  0  0  0  0  0  0  0  0  0  0
  -31.7609  -14.9546   19.5110 O   0  0  0  0  0  0  0  0  0  0  0  0
  -21.8977   -8.0390   24.4966 O   0  0  0  0  0  0  0  0  0  0  0  0
  -26.6681  -25.4557   19.7961 O   0  0  0  0  0  0  0  0  0  1  0  0
  -16.7845   -6.7363   22.8961 F   0  0  0  0  0  0  0  0  0  0  0  0
  -21.2517   -5.4473   23.7840 F   0  0  0  0  0  0  0  0  0  0  0  0
  1  2  1  0  0  0  0
  1  5  2  0  0  0  0
  2  6  2  0  0  0  0
  3  8  2  0  0  0  0
  3 18  1  0  0  0  0
  4  9  1  0  0  0  0
  4 18  2  0  0  0  0
  5 20  1  0  0  0  0
  6 22  1  0  0  0  0
  7 10  2  0  0  0  0
  7 21  1  0  0  0  0
  8 27  1  0  0  0  0
  9 27  2  0  0  0  0
 10 28  1  0  0  0  0
 11 12  2  0  0  0  0
 11 29  1  0  0  0  0
 12 30  1  0  0  0  0
 13 23  1  0  0  0  0
 13 28  2  0  0  0  0
 14 24  2  0  0  0  0
 14 25  1  0  0  0  0
 15 24  1  0  0  0  0
 15 26  2  0  0  0  0
 16 25  2  0  0  0  0
 16 26  1  0  0  0  0
 17 30  2  0  0  0  0
 17 31  1  0  0  0  0
 18 32  1  0  0  0  0
 19 32  1  0  0  0  0
 19 33  2  0  0  0  0
 19 36  1  0  0  0  0
 20 22  2  0  0  0  0
 20 41  1  0  0  0  0
 21 23  2  0  0  0  0
 21 42  1  0  0  0  0
 22 52  1  0  0  0  0
 23 43  1  0  0  0  0
 24 55  1  0  0  0  0
 25 62  1  0  0  0  0
 26 73  1  0  0  0  0
 27 83  1  0  0  0  0
 28 84  1  0  0  0  0
 29 31  2  0  0  0  0
 29 83  1  0  0  0  0
 30 85  1  0  0  0  0
 31 86  1  0  0  0  0
 32 67  2  0  0  0  0
 33 68  1  0  0  0  0
 33 71  1  0  0  0  0
 34 35  2  0  0  0  0
 34 44  1  0  0  0  0
 34 63  1  0  0  0  0
 35 56  1  0  0  0  0
 35 76  1  0  0  0  0
 36 72  1  0  0  0  0
 36 78  2  0  0  0  0
 37 53  1  0  0  0  0
 37 74  1  0  0  0  0
 37 79  2  0  0  0  0
 38 64  1  0  0  0  0
 38 69  1  0  0  0  0
 38 80  2  0  0  0  0
 39 65  1  0  0  0  0
 39 75  1  0  0  0  0
 39 81  2  0  0  0  0
 40 70  1  0  0  0  0
 40 73  1  0  0  0  0
 40 82  2  0  0  0  0
 41 45  1  0  0  0  0
 42 53  1  0  0  0  0
 43 69  1  0  0  0  0
 44 51  1  0  0  0  0
 45 47  1  0  0  0  0
 46 48  1  0  0  0  0
 46 49  1  0  0  0  0
 47 52  1  0  0  0  0
 48 54  1  0  0  0  0
 49 70  1  0  0  0  0
 50 54  1  0  0  0  0
 50 70  1  0  0  0  0
 51 76  1  0  0  0  0
 52 74  1  0  0  0  0
 53 69  1  0  0  0  0
 54 68  1  0  0  0  0
 57 65  1  0  0  0  0
 58 66  1  0  0  0  0
 59 66  1  0  0  0  0
 60 66  1  0  0  0  0
 61 77  1  0  0  0  0
 62 76  1  0  0  0  0
 63 84  1  0  0  0  0
 64 66  1  0  0  0  0
 64 75  1  0  0  0  0
 65 77  1  0  0  0  0
 67 68  1  0  0  0  0
M  CHG  2  76   1  77   1
M  ISO  4  40 100  63 101  73 100  84 101
M  END
> <Batch ID>
0112

> <Smiles>
CNC(C)C(=O)NC(C(=O)N1Cc2cc([101O:1][101CH2:1]C3=C(C)N(Cc4cc(C)cc([100NH:0][100C:0](=O)N5CCCC(n6nc(-c7ccc(Oc8ccc(F)cc8F)cc7)c(C(N)=O)c6N)C5)c4)CC3)ccc2CC1C(=O)NC1CCCc2ccccc21)C(C)(C)C

> <Shape>
0.313

> <Color>
0.179

> <Negative vol penalty>
0.000

$$$$

  -OEChem-04052301313D

 91100  0     1  0  0  0  0  0999 V2000
  -30.0699  -35.7055   19.8102 C   0  0  0  0  0  0  0  0  0  0  0  0
  -29.9656  -34.4906   20.4800 C   0  0  0  0  0  0  0  0  0  0  0  0
  -23.8609   -9.1242   21.0954 C   0  0  0  0  0  0  0  0  0  0  0  0
  -25.3800   -9.6428   22.9011 C   0  0  0  0  0  0  0  0  0  0  0  0
  -29.0097  -36.6106   19.8412 C   0  0  0  0  0  0  0  0  0  0  0  0
  -28.8014  -34.1805   21.1821 C   0  0  0  0  0  0  0  0  0  0  0  0
  -27.2275  -29.4419   20.3377 C   0  0  0  0  0  0  0  0  0  0  0  0
  -23.5555   -7.9060   21.7022 C   0  0  0  0  0  0  0  0  0  0  0  0
  -25.0745   -8.4245   23.5080 C   0  0  0  0  0  0  0  0  0  0  0  0
  -27.8963  -28.4196   21.0095 C   0  0  0  0  0  0  0  0  0  0  0  0
  -21.6187   -6.8069   24.2466 C   0  0  0  0  0  0  0  0  0  0  0  0
  -20.2758   -6.4362   24.3163 C   0  0  0  0  0  0  0  0  0  0  0  0
  -26.1142  -28.3285   22.6328 C   0  0  0  0  0  0  0  0  0  0  0  0
  -29.9898  -18.9765   21.2205 C   0  0  0  0  0  0  0  0  0  0  0  0
  -27.7228  -20.3565   22.0803 C   0  0  0  0  0  0  0  0  0  0  0  0
  -20.7579   -4.4485   23.0303 C   0  0  0  0  0  0  0  0  0  0  0  0
  -24.7733   -9.9926   21.6949 C   0  0  0  0  0  0  0  0  0  0  0  0
  -24.1986  -12.2982   20.7667 C   0  0  0  0  0  0  0  0  0  0  0  0
  -27.8283  -36.3073   20.5360 C   0  0  0  0  0  0  0  0  0  0  0  0
  -26.0001  -29.9235   20.8154 C   0  0  0  0  0  0  0  0  0  0  0  0
  -27.7250  -35.0829   21.2235 C   0  0  0  0  0  0  0  0  0  0  0  0
  -25.4305  -29.3553   21.9638 C   0  0  0  0  0  0  0  0  0  0  0  0
  -30.1187  -20.2429   21.7908 C   0  0  0  0  0  0  0  0  0  0  0  0
  -28.9853  -20.9329   22.2207 C   0  0  0  0  0  0  0  0  0  0  0  0
  -28.7273  -18.4001   21.0800 C   0  0  0  0  0  0  0  0  0  0  0  0
  -24.1622   -7.5562   22.9085 C   0  0  0  0  0  0  0  0  0  0  0  0
  -27.3411  -27.8647   22.1588 C   0  0  0  0  0  0  0  0  0  0  0  0
  -22.5312   -5.9985   23.5687 C   0  0  0  0  0  0  0  0  0  0  0  0
  -27.5939  -19.0901   21.5099 C   0  0  0  0  0  0  0  0  0  0  0  0
  -19.8454   -5.2569   23.7082 C   0  0  0  0  0  0  0  0  0  0  0  0
  -22.1008   -4.8193   22.9605 C   0  0  0  0  0  0  0  0  0  0  0  0
  -25.0897  -11.2509   21.0682 C   0  0  0  0  0  0  0  0  0  0  0  0
  -24.9854  -13.2612   20.1835 C   0  0  0  0  0  0  0  0  0  0  0  0
  -28.8854  -24.6429   22.6805 C   0  0  0  0  0  0  0  0  0  0  0  0
  -29.0567  -23.4374   22.0825 C   0  0  0  0  0  0  0  0  0  0  0  0
  -28.8085  -24.6699   24.1803 C   0  0  0  0  0  0  0  0  0  0  0  0
  -30.0082  -24.2990   20.0449 C   0  0  0  0  0  0  0  0  0  0  0  0
  -29.2456  -23.3760   20.6394 C   0  0  0  0  0  0  0  0  0  0  0  0
  -22.7860  -12.3922   20.9935 C   0  0  0  0  0  0  0  0  0  0  0  0
  -24.9515  -32.7303   21.8764 C   0  0  0  0  0  0  0  0  0  0  0  0
  -22.0862  -31.2100   21.9034 C   0  0  0  0  0  0  0  0  0  0  0  0
  -20.8403  -27.9563   22.8406 C   0  0  0  0  0  0  0  0  0  0  0  0
  -29.6451  -16.3050   20.0243 C   0  0  0  0  0  0  0  0  0  0  0  0
  -26.7274  -37.3373   20.5804 C   0  0  0  0  0  0  0  0  0  0  0  0
  -25.2784  -31.0084   20.0641 C   0  0  0  0  0  0  0  0  0  0  0  0
  -24.1055  -29.8228   22.5061 C   0  0  0  0  0  0  0  0  0  0  0  0
  -29.2786  -23.4494   24.9288 C   0  0  0  0  0  0  0  0  0  0  0  0
  -25.3838  -36.7736   21.0355 C   0  0  0  0  0  0  0  0  0  0  0  0
  -29.7755  -13.0623   18.5597 C   0  0  0  0  0  0  0  0  0  0  0  0
  -25.5629  -35.9006   22.2735 C   0  0  0  0  0  0  0  0  0  0  0  0
  -28.4948  -12.3881   19.0570 C   0  0  0  0  0  0  0  0  0  0  0  0
  -28.8052  -22.1823   24.2462 C   0  0  0  0  0  0  0  0  0  0  0  0
  -30.3901  -13.9682   19.6253 C   0  0  0  0  0  0  0  0  0  0  0  0
  -28.1938  -14.2898   20.6940 C   0  0  0  0  0  0  0  0  0  0  0  0
  -26.4688  -34.6998   21.9755 C   0  0  1  0  0  0  0  0  0  0  0  0
  -24.2826  -31.7739   20.9301 C   0  0  1  0  0  0  0  0  0  0  0  0
  -27.5030  -13.4178   19.6329 C   0  0  2  0  0  0  0  0  0  0  0  0
  -32.2613  -20.2340   23.0930 C   0  0  0  0  0  0  0  0  0  0  0  0
  -18.8478  -26.6727   22.0163 C   0  0  0  0  0  0  0  0  0  0  0  0
  -20.6518  -32.4735   24.2817 C   0  0  0  0  0  0  0  0  0  0  0  0
  -19.4415  -30.3071   24.6136 C   0  0  0  0  0  0  0  0  0  0  0  0
  -19.1368  -31.5925   22.4976 C   0  0  0  0  0  0  0  0  0  0  0  0
  -22.4994  -25.6104   22.1314 C   0  0  0  0  0  0  0  0  0  0  0  0
  -25.8740  -17.7564   22.4686 C   0  0  0  0  0  0  0  0  0  0  0  0
  -31.4828  -20.8371   21.9280 C   0  0  0  0  0  0  0  0  0  0  0  0
  -28.8117  -25.9999   22.0343 C   0  0  0  0  0  0  0  0  0  1  0  0
  -21.3210  -30.3890   22.9131 C   0  0  1  0  0  0  0  0  0  0  0  0
  -20.3521  -26.8658   21.9042 C   0  0  2  0  0  0  0  0  0  0  0  0
  -20.1662  -31.1914   23.5765 C   0  0  0  0  0  0  0  0  0  0  0  0
  -26.3463  -11.5227   20.7063 N   0  0  0  0  0  0  0  0  0  0  0  0
  -26.2505  -12.7518   20.1713 N   0  0  0  0  0  0  0  0  0  0  0  0
  -29.0982  -22.2273   22.8070 N   0  0  0  0  0  0  0  0  0  0  0  0
  -23.4415  -30.8902   21.7399 N   0  0  0  0  0  0  0  0  0  0  0  0
  -29.3938  -14.9200   20.1215 N   0  0  0  0  0  0  0  0  0  0  0  0
  -24.7115  -14.4855   19.6849 N   0  0  0  0  0  0  0  0  0  0  0  0
  -22.3387  -12.9342   22.2062 N   0  0  0  0  0  0  0  0  0  0  0  0
  -28.6123  -17.1131   20.4986 N   0  0  0  0  0  0  0  0  0  0  0  0
  -25.7369  -33.6814   21.2533 N   0  0  0  0  0  0  0  0  0  0  0  0
  -20.8870  -29.1839   22.2146 N   0  0  0  0  0  0  0  0  0  0  0  0
  -21.0173  -25.5714   22.2251 N   0  3  0  0  0  0  0  0  0  0  0  0
  -28.4483  -25.6819   24.7794 O   0  0  0  0  0  0  0  0  0  0  0  0
  -21.9455  -11.9919   20.1528 O   0  0  0  0  0  0  0  0  0  0  0  0
  -24.7676  -32.6149   23.0824 O   0  0  0  0  0  0  0  0  0  0  0  0
  -21.5012  -32.0975   21.2775 O   0  0  0  0  0  0  0  0  0  0  0  0
  -21.1459  -27.7413   24.0115 O   0  0  0  0  0  0  0  0  0  0  0  0
  -30.6874  -16.7423   19.5300 O   0  0  0  0  0  0  0  0  0  0  0  0
  -23.8642   -6.3676   23.5010 O   0  0  0  0  0  0  0  0  0  0  0  0
  -26.3510  -18.5452   21.3808 O   0  0  0  0  0  0  0  0  0  0  0  0
  -27.9922  -26.8672   22.8168 O   0  0  0  0  0  0  0  0  0  1  0  0
  -18.5561   -4.9002   23.7765 F   0  0  0  0  0  0  0  0  0  0  0  0
  -22.9729   -4.0380   22.3089 F   0  0  0  0  0  0  0  0  0  0  0  0
  1  2  1  0  0  0  0
  1  5  2  0  0  0  0
  2  6  2  0  0  0  0
  3  8  2  0  0  0  0
  3 17  1  0  0  0  0
  4  9  1  0  0  0  0
  4 17  2  0  0  0  0
  5 19  1  0  0  0  0
  6 21  1  0  0  0  0
  7 10  2  0  0  0  0
  7 20  1  0  0  0  0
  8 26  1  0  0  0  0
  9 26  2  0  0  0  0
 10 27  1  0  0  0  0
 11 12  2  0  0  0  0
 11 28  1  0  0  0  0
 12 30  1  0  0  0  0
 13 22  1  0  0  0  0
 13 27  2  0  0  0  0
 14 23  1  0  0  0  0
 14 25  2  0  0  0  0
 15 24  1  0  0  0  0
 15 29  2  0  0  0  0
 16 30  2  0  0  0  0
 16 31  1  0  0  0  0
 17 32  1  0  0  0  0
 18 32  1  0  0  0  0
 18 33  2  0  0  0  0
 18 39  1  0  0  0  0
 19 21  2  0  0  0  0
 19 44  1  0  0  0  0
 20 22  2  0  0  0  0
 20 45  1  0  0  0  0
 21 55  1  0  0  0  0
 22 46  1  0  0  0  0
 23 24  2  0  0  0  0
 23 65  1  0  0  0  0
 24 72  1  0  0  0  0
 25 29  1  0  0  0  0
 25 77  1  0  0  0  0
 26 87  1  0  0  0  0
 27 89  1  0  0  0  0
 28 31  2  0  0  0  0
 28 87  1  0  0  0  0
 29 88  1  0  0  0  0
 30 90  1  0  0  0  0
 31 91  1  0  0  0  0
 32 70  2  0  0  0  0
 33 71  1  0  0  0  0
 33 75  1  0  0  0  0
 34 35  2  0  0  0  0
 34 36  1  0  0  0  0
 34 66  1  0  0  0  0
 35 38  1  0  0  0  0
 35 72  1  0  0  0  0
 36 47  1  0  0  0  0
 36 81  2  0  0  0  0
 37 38  2  0  0  0  0
 39 76  1  0  0  0  0
 39 82  2  0  0  0  0
 40 56  1  0  0  0  0
 40 78  1  0  0  0  0
 40 83  2  0  0  0  0
 41 67  1  0  0  0  0
 41 73  1  0  0  0  0
 41 84  2  0  0  0  0
 42 68  1  0  0  0  0
 42 79  1  0  0  0  0
 42 85  2  0  0  0  0
 43 74  1  0  0  0  0
 43 77  1  0  0  0  0
 43 86  2  0  0  0  0
 44 48  1  0  0  0  0
 45 56  1  0  0  0  0
 46 73  1  0  0  0  0
 47 52  1  0  0  0  0
 48 50  1  0  0  0  0
 49 51  1  0  0  0  0
 49 53  1  0  0  0  0
 50 55  1  0  0  0  0
 51 57  1  0  0  0  0
 52 72  1  0  0  0  0
 53 74  1  0  0  0  0
 54 57  1  0  0  0  0
 54 74  1  0  0  0  0
 55 78  1  0  0  0  0
 56 73  1  0  0  0  0
 57 71  1  0  0  0  0
 58 65  1  0  0  0  0
 59 68  1  0  0  0  0
 60 69  1  0  0  0  0
 61 69  1  0  0  0  0
 62 69  1  0  0  0  0
 63 80  1  0  0  0  0
 64 88  1  0  0  0  0
 66 89  1  0  0  0  0
 67 69  1  0  0  0  0
 67 79  1  0  0  0  0
 68 80  1  0  0  0  0
 70 71  1  0  0  0  0
M  CHG  1  80   1
M  ISO  4  43 100  66 101  77 100  89 101
M  END
> <Batch ID>
0112

> <Smiles>
C=CC1=C([101CH2:1][101O:1]c2ccc3c(c2)CN(C(=O)C(NC(=O)C(C)NC)C(C)(C)C)C(C(=O)NC2CCCc4ccccc42)C3)C(=O)CCN1c1cc(OC)c([100NH:0][100C:0](=O)N2CCCC(n3nc(-c4ccc(Oc5ccc(F)cc5F)cc4)c(C(N)=O)c3N)C2)cc1CC

> <Shape>
0.310

> <Color>
0.115

> <Negative vol penalty>
0.000

$$$$

  -OEChem-04052301313D

 93102  0     1  0  0  0  0  0999 V2000
  -30.5378  -35.6921   21.0518 C   0  0  0  0  0  0  0  0  0  0  0  0
  -30.3896  -34.4410   20.4615 C   0  0  0  0  0  0  0  0  0  0  0  0
  -22.8528  -11.4948   17.7214 C   0  0  0  0  0  0  0  0  0  0  0  0
  -22.4348  -10.7722   19.9886 C   0  0  0  0  0  0  0  0  0  0  0  0
  -30.0089  -35.9305   22.3196 C   0  0  0  0  0  0  0  0  0  0  0  0
  -29.7134  -33.4273   21.1393 C   0  0  0  0  0  0  0  0  0  0  0  0
  -26.1738  -29.0783   18.6769 C   0  0  0  0  0  0  0  0  0  0  0  0
  -21.8782  -10.6103   17.2597 C   0  0  0  0  0  0  0  0  0  0  0  0
  -21.4600   -9.8876   19.5269 C   0  0  0  0  0  0  0  0  0  0  0  0
  -26.4188  -27.7469   18.3434 C   0  0  0  0  0  0  0  0  0  0  0  0
  -18.2417  -10.0408   18.5074 C   0  0  0  0  0  0  0  0  0  0  0  0
  -17.0318   -9.9932   19.1997 C   0  0  0  0  0  0  0  0  0  0  0  0
  -25.4880  -27.0523   20.4577 C   0  0  0  0  0  0  0  0  0  0  0  0
  -29.2315  -19.7453   17.0535 C   0  0  0  0  0  0  0  0  0  0  0  0
  -28.6013  -20.1089   19.3574 C   0  0  0  0  0  0  0  0  0  0  0  0
  -17.3965   -7.6529   19.6760 C   0  0  0  0  0  0  0  0  0  0  0  0
  -26.7534  -21.5822   16.7601 C   0  0  0  0  0  0  0  0  0  0  0  0
  -23.1312  -11.5758   19.0859 C   0  0  0  0  0  0  0  0  0  0  0  0
  -30.0257  -18.2467   18.7740 C   0  0  0  0  0  0  0  0  0  0  0  0
  -23.9539  -13.8281   19.9564 C   0  0  0  0  0  0  0  0  0  0  0  0
  -29.3175  -34.9220   23.0092 C   0  0  0  0  0  0  0  0  0  0  0  0
  -25.5931  -29.4079   19.9101 C   0  0  0  0  0  0  0  0  0  0  0  0
  -29.1759  -33.6520   22.4181 C   0  0  0  0  0  0  0  0  0  0  0  0
  -25.2344  -28.3884   20.8034 C   0  0  0  0  0  0  0  0  0  0  0  0
  -29.9711  -18.6251   17.4326 C   0  0  0  0  0  0  0  0  0  0  0  0
  -27.0720  -23.6976   17.4627 C   0  0  0  0  0  0  0  0  0  0  0  0
  -28.5467  -20.4873   18.0160 C   0  0  0  0  0  0  0  0  0  0  0  0
  -21.1817   -9.8067   18.1625 C   0  0  0  0  0  0  0  0  0  0  0  0
  -26.0785  -26.7339   19.2350 C   0  0  0  0  0  0  0  0  0  0  0  0
  -19.0291   -8.8945   18.3993 C   0  0  0  0  0  0  0  0  0  0  0  0
  -29.3409  -18.9886   19.7365 C   0  0  0  0  0  0  0  0  0  0  0  0
  -26.2774  -22.8685   16.6330 C   0  0  0  0  0  0  0  0  0  0  0  0
  -16.6091   -8.7992   19.7840 C   0  0  0  0  0  0  0  0  0  0  0  0
  -18.6064   -7.7005   18.9837 C   0  0  0  0  0  0  0  0  0  0  0  0
  -24.1383  -12.4889   19.5634 C   0  0  0  0  0  0  0  0  0  0  0  0
  -28.0095  -22.8927   18.0714 C   0  0  0  0  0  0  0  0  0  0  0  0
  -25.2070  -14.2536   20.3240 C   0  0  0  0  0  0  0  0  0  0  0  0
  -28.1003  -17.4503   24.0179 C   0  0  0  0  0  0  0  0  0  0  0  0
  -28.3692  -17.2827   22.7184 C   0  0  0  0  0  0  0  0  0  0  0  0
  -30.8101  -17.0534   19.1835 C   0  0  0  0  0  0  0  0  0  0  0  0
  -22.7570  -14.6168   19.9866 C   0  0  0  0  0  0  0  0  0  0  0  0
  -26.5146  -31.0889   22.4456 C   0  0  0  0  0  0  0  0  0  0  0  0
  -23.4719  -30.5415   23.4276 C   0  0  0  0  0  0  0  0  0  0  0  0
  -20.6751  -28.5942   23.2464 C   0  0  0  0  0  0  0  0  0  0  0  0
  -30.6742  -14.6024   19.4959 C   0  0  0  0  0  0  0  0  0  0  0  0
  -28.8044  -35.2126   24.3974 C   0  0  0  0  0  0  0  0  0  0  0  0
  -25.3109  -30.8471   20.2436 C   0  0  0  0  0  0  0  0  0  0  0  0
  -24.5900  -28.6881   22.1314 C   0  0  0  0  0  0  0  0  0  0  0  0
  -27.7763  -34.1981   24.8915 C   0  0  0  0  0  0  0  0  0  0  0  0
  -29.4928  -11.6524   21.0447 C   0  0  0  0  0  0  0  0  0  0  0  0
  -28.2542  -32.7761   24.6156 C   0  0  0  0  0  0  0  0  0  0  0  0
  -27.9771  -11.7182   20.8382 C   0  0  0  0  0  0  0  0  0  0  0  0
  -30.2545  -12.1821   19.8306 C   0  0  0  0  0  0  0  0  0  0  0  0
  -28.3401  -13.5811   19.1702 C   0  0  0  0  0  0  0  0  0  0  0  0
  -28.4273  -32.5343   23.1113 C   0  0  1  0  0  0  0  0  0  0  0  0
  -25.1865  -31.0997   21.7430 C   0  0  1  0  0  0  0  0  0  0  0  0
  -27.5275  -13.1242   20.3926 C   0  0  1  0  0  0  0  0  0  0  0  0
  -29.0798  -23.2466   19.0306 C   0  0  0  0  0  0  0  0  0  0  0  0
  -29.7576  -16.9579   15.5721 C   0  0  0  0  0  0  0  0  0  0  0  0
  -18.3617  -28.3763   24.1941 C   0  0  0  0  0  0  0  0  0  0  0  0
  -24.6406  -29.4329   26.0190 C   0  0  0  0  0  0  0  0  0  0  0  0
  -22.4160  -28.3865   26.4929 C   0  0  0  0  0  0  0  0  0  0  0  0
  -22.6138  -30.8670   26.3183 C   0  0  0  0  0  0  0  0  0  0  0  0
  -19.4278  -28.9144   20.5817 C   0  0  0  0  0  0  0  0  0  0  0  0
  -30.6949  -17.8500   16.3800 C   0  0  0  0  0  0  0  0  0  0  0  0
  -26.9187  -25.1792   17.6434 C   0  0  0  0  0  0  0  0  0  1  0  0
  -28.1365  -18.3268   21.6774 C   0  0  0  0  0  0  0  0  0  0  0  0
  -22.7841  -29.4597   24.2249 C   0  0  1  0  0  0  0  0  0  0  0  0
  -19.2099  -28.9498   23.0696 C   0  0  2  0  0  0  0  0  0  0  0  0
  -23.1275  -29.5307   25.7396 C   0  0  0  0  0  0  0  0  0  0  0  0
  -25.4085  -12.0901   19.6710 N   0  0  0  0  0  0  0  0  0  0  0  0
  -27.8065  -21.6090   17.6366 N   0  0  0  0  0  0  0  0  0  0  0  0
  -26.0336  -13.1852   20.1358 N   0  0  0  0  0  0  0  0  0  0  0  0
  -24.3402  -30.1111   22.4144 N   0  0  0  0  0  0  0  0  0  0  0  0
  -29.7767  -13.5205   19.4789 N   0  0  0  0  0  0  0  0  0  0  0  0
  -25.6715  -15.4338   20.7866 N   0  0  0  0  0  0  0  0  0  0  0  0
  -21.5555  -14.0238   19.5753 N   0  0  0  0  0  0  0  0  0  0  0  0
  -30.1116  -15.8457   19.1867 N   0  0  0  0  0  0  0  0  0  0  0  0
  -27.1415  -32.3198   22.4826 N   0  0  0  0  0  0  0  0  0  0  0  0
  -21.3604  -29.5770   23.9288 N   0  0  0  0  0  0  0  0  0  0  0  0
  -18.6993  -28.4144   21.7759 N   0  3  0  0  0  0  0  0  0  0  0  0
  -32.0018  -17.1835   19.4496 O   0  0  0  0  0  0  0  0  0  0  0  0
  -22.7559  -15.8169   20.3516 O   0  0  0  0  0  0  0  0  0  0  0  0
  -26.9385  -30.0416   22.9202 O   0  0  0  0  0  0  0  0  0  0  0  0
  -23.2415  -31.7247   23.6893 O   0  0  0  0  0  0  0  0  0  0  0  0
  -21.1621  -27.5475   22.8248 O   0  0  0  0  0  0  0  0  0  0  0  0
  -31.8654  -14.4787   19.7976 O   0  0  0  0  0  0  0  0  0  0  0  0
  -25.2459  -23.2225   15.8530 O   0  0  0  0  0  0  0  0  0  0  0  0
  -20.2304   -8.9436   17.7123 O   0  0  0  0  0  0  0  0  0  0  0  0
  -26.3171  -25.4336   18.9122 O   0  0  0  0  0  0  0  0  0  1  0  0
  -29.3803  -18.6362   21.0526 O   0  0  0  0  0  0  0  0  0  0  0  0
  -15.4479   -8.7540   20.4502 F   0  0  0  0  0  0  0  0  0  0  0  0
  -19.3591   -6.5962   18.8843 F   0  0  0  0  0  0  0  0  0  0  0  0
  1  2  1  0  0  0  0
  1  5  2  0  0  0  0
  2  6  2  0  0  0  0
  3  8  2  0  0  0  0
  3 18  1  0  0  0  0
  4  9  1  0  0  0  0
  4 18  2  0  0  0  0
  5 21  1  0  0  0  0
  6 23  1  0  0  0  0
  7 10  2  0  0  0  0
  7 22  1  0  0  0  0
  8 28  1  0  0  0  0
  9 28  2  0  0  0  0
 10 29  1  0  0  0  0
 11 12  2  0  0  0  0
 11 30  1  0  0  0  0
 12 33  1  0  0  0  0
 13 24  1  0  0  0  0
 13 29  2  0  0  0  0
 14 25  2  0  0  0  0
 14 27  1  0  0  0  0
 15 27  2  0  0  0  0
 15 31  1  0  0  0  0
 16 33  2  0  0  0  0
 16 34  1  0  0  0  0
 17 32  2  0  0  0  0
 17 72  1  0  0  0  0
 18 35  1  0  0  0  0
 19 25  1  0  0  0  0
 19 31  2  0  0  0  0
 19 40  1  0  0  0  0
 20 35  1  0  0  0  0
 20 37  2  0  0  0  0
 20 41  1  0  0  0  0
 21 23  2  0  0  0  0
 21 46  1  0  0  0  0
 22 24  2  0  0  0  0
 22 47  1  0  0  0  0
 23 55  1  0  0  0  0
 24 48  1  0  0  0  0
 25 65  1  0  0  0  0
 26 32  1  0  0  0  0
 26 36  2  0  0  0  0
 26 66  1  0  0  0  0
 27 72  1  0  0  0  0
 28 89  1  0  0  0  0
 29 90  1  0  0  0  0
 30 34  2  0  0  0  0
 30 89  1  0  0  0  0
 31 91  1  0  0  0  0
 32 88  1  0  0  0  0
 33 92  1  0  0  0  0
 34 93  1  0  0  0  0
 35 71  2  0  0  0  0
 36 58  1  0  0  0  0
 36 72  1  0  0  0  0
 37 73  1  0  0  0  0
 37 76  1  0  0  0  0
 38 39  2  0  0  0  0
 39 67  1  0  0  0  0
 40 78  1  0  0  0  0
 40 82  2  0  0  0  0
 41 77  1  0  0  0  0
 41 83  2  0  0  0  0
 42 56  1  0  0  0  0
 42 79  1  0  0  0  0
 42 84  2  0  0  0  0
 43 68  1  0  0  0  0
 43 74  1  0  0  0  0
 43 85  2  0  0  0  0
 44 69  1  0  0  0  0
 44 80  1  0  0  0  0
 44 86  2  0  0  0  0
 45 75  1  0  0  0  0
 45 78  1  0  0  0  0
 45 87  2  0  0  0  0
 46 49  1  0  0  0  0
 47 56  1  0  0  0  0
 48 74  1  0  0  0  0
 49 51  1  0  0  0  0
 50 52  1  0  0  0  0
 50 53  1  0  0  0  0
 51 55  1  0  0  0  0
 52 57  1  0  0  0  0
 53 75  1  0  0  0  0
 54 57  1  0  0  0  0
 54 75  1  0  0  0  0
 55 79  1  0  0  0  0
 56 74  1  0  0  0  0
 57 73  1  0  0  0  0
 59 65  1  0  0  0  0
 60 69  1  0  0  0  0
 61 70  1  0  0  0  0
 62 70  1  0  0  0  0
 63 70  1  0  0  0  0
 64 81  1  0  0  0  0
 66 90  1  0  0  0  0
 67 91  1  0  0  0  0
 68 70  1  0  0  0  0
 68 80  1  0  0  0  0
 69 81  1  0  0  0  0
 71 73  1  0  0  0  0
M  CHG  1  81   1
M  ISO  4  45 100  66 101  78 100  90 101
M  END
> <Batch ID>
0112

> <Smiles>
C=CCOc1cc(N2CC(=O)C([101CH2:1][101O:1]c3ccc4c(c3)CN(C(=O)C(NC(=O)C(C)NC)C(C)(C)C)C(C(=O)NC3CCCc5ccccc53)C4)=C2C)cc(CC)c1C(=O)[100NH:0][100C:0](=O)N1CCCC(n2nc(-c3ccc(Oc4ccc(F)cc4F)cc3)c(C(N)=O)c2N)C1

> <Shape>
0.253

> <Color>
0.117

> <Negative vol penalty>
0.000

$$$$

  -OEChem-04052301313D

 84 92  0     1  0  0  0  0  0999 V2000
  -30.4836  -31.8625   13.9525 C   0  0  0  0  0  0  0  0  0  0  0  0
  -29.9478  -30.8950   14.7964 C   0  0  0  0  0  0  0  0  0  0  0  0
  -24.5972   -8.7291   20.7737 C   0  0  0  0  0  0  0  0  0  0  0  0
  -22.9170  -10.4615   20.6598 C   0  0  0  0  0  0  0  0  0  0  0  0
  -30.9599  -33.0612   14.4819 C   0  0  0  0  0  0  0  0  0  0  0  0
  -29.8890  -31.1251   16.1705 C   0  0  0  0  0  0  0  0  0  0  0  0
  -25.4283  -29.8061   18.1722 C   0  0  0  0  0  0  0  0  0  0  0  0
  -30.2211  -20.2994   19.5450 C   0  0  0  0  0  0  0  0  0  0  0  0
  -29.3323  -21.3724   19.6094 C   0  0  0  0  0  0  0  0  0  0  0  0
  -23.6126   -7.7953   21.0961 C   0  0  0  0  0  0  0  0  0  0  0  0
  -21.9323   -9.5276   20.9822 C   0  0  0  0  0  0  0  0  0  0  0  0
  -25.2082  -28.4479   18.3976 C   0  0  0  0  0  0  0  0  0  0  0  0
  -21.8447   -6.8830   23.8287 C   0  0  0  0  0  0  0  0  0  0  0  0
  -22.1121   -5.9934   24.8691 C   0  0  0  0  0  0  0  0  0  0  0  0
  -25.7458  -28.7539   20.7293 C   0  0  0  0  0  0  0  0  0  0  0  0
  -27.5507  -19.8599   20.2220 C   0  0  0  0  0  0  0  0  0  0  0  0
  -21.8574   -4.1354   23.3459 C   0  0  0  0  0  0  0  0  0  0  0  0
  -24.2495  -10.0622   20.5556 C   0  0  0  0  0  0  0  0  0  0  0  0
  -25.7160  -11.3794   18.9364 C   0  0  0  0  0  0  0  0  0  0  0  0
  -30.8981  -33.3101   15.8620 C   0  0  0  0  0  0  0  0  0  0  0  0
  -25.8201  -30.6477   19.2233 C   0  0  0  0  0  0  0  0  0  0  0  0
  -30.3662  -32.3277   16.7190 C   0  0  0  0  0  0  0  0  0  0  0  0
  -25.9678  -30.1229   20.5151 C   0  0  0  0  0  0  0  0  0  0  0  0
  -29.7747  -19.0066   19.8189 C   0  0  0  0  0  0  0  0  0  0  0  0
  -28.4396  -18.7868   20.1575 C   0  0  0  0  0  0  0  0  0  0  0  0
  -27.9971  -21.1527   19.9480 C   0  0  0  0  0  0  0  0  0  0  0  0
  -22.2801   -8.1945   21.2004 C   0  0  0  0  0  0  0  0  0  0  0  0
  -25.3698  -27.9211   19.6757 C   0  0  0  0  0  0  0  0  0  0  0  0
  -21.5835   -6.3989   22.5468 C   0  0  0  0  0  0  0  0  0  0  0  0
  -22.1185   -4.6196   24.6277 C   0  0  0  0  0  0  0  0  0  0  0  0
  -21.5900   -5.0251   22.3054 C   0  0  0  0  0  0  0  0  0  0  0  0
  -25.2662  -11.0275   20.2231 C   0  0  0  0  0  0  0  0  0  0  0  0
  -26.6811  -12.3312   19.1584 C   0  0  0  0  0  0  0  0  0  0  0  0
  -26.1500  -24.4198   19.9509 C   0  0  0  0  0  0  0  0  0  0  0  0
  -26.2148  -25.7419   19.7634 C   0  0  0  0  0  0  0  0  0  1  0  0
  -25.2987  -10.8898   17.6550 C   0  0  0  0  0  0  0  0  0  0  0  0
  -27.3721  -23.5817   19.7763 C   0  0  0  0  0  0  0  0  0  0  0  0
  -28.3751  -32.4386   19.8296 C   0  0  0  0  0  0  0  0  0  0  0  0
  -28.3772  -16.9475   21.8233 C   0  0  0  0  0  0  0  0  0  0  0  0
  -26.6133  -33.4004   22.3778 C   0  0  0  0  0  0  0  0  0  0  0  0
  -24.0946  -32.7249   24.5794 C   0  0  0  0  0  0  0  0  0  0  0  0
  -31.4688  -34.6013   16.3931 C   0  0  0  0  0  0  0  0  0  0  0  0
  -26.0276  -32.1156   18.9691 C   0  0  0  0  0  0  0  0  0  0  0  0
  -26.3672  -30.9879   21.6816 C   0  0  0  0  0  0  0  0  0  0  0  0
  -31.0270  -34.9217   17.8187 C   0  0  0  0  0  0  0  0  0  0  0  0
  -28.9550  -13.7942   23.4242 C   0  0  0  0  0  0  0  0  0  0  0  0
  -31.1607  -33.6901   18.7086 C   0  0  0  0  0  0  0  0  0  0  0  0
  -28.0609  -12.8283   22.6478 C   0  0  0  0  0  0  0  0  0  0  0  0
  -28.3146  -15.1735   23.5447 C   0  0  0  0  0  0  0  0  0  0  0  0
  -27.0360  -14.8173   21.4567 C   0  0  0  0  0  0  0  0  0  0  0  0
  -30.2625  -32.5506   18.2122 C   0  0  1  0  0  0  0  0  0  0  0  0
  -26.9233  -32.7813   20.0092 C   0  0  1  0  0  0  0  0  0  0  0  0
  -27.6593  -13.4207   21.2854 C   0  0  2  0  0  0  0  0  0  0  0  0
  -31.0427  -17.4627   18.3039 C   0  0  0  0  0  0  0  0  0  0  0  0
  -22.9118  -33.6840   26.5740 C   0  0  0  0  0  0  0  0  0  0  0  0
  -28.9854  -32.6479   24.1433 C   0  0  0  0  0  0  0  0  0  0  0  0
  -27.4481  -32.7166   26.1182 C   0  0  0  0  0  0  0  0  0  0  0  0
  -27.8479  -34.7826   24.7785 C   0  0  0  0  0  0  0  0  0  0  0  0
  -21.5016  -32.7931   23.1544 C   0  0  0  0  0  0  0  0  0  0  0  0
  -27.9396  -17.4117   20.4569 C   0  0  0  0  0  0  0  0  0  0  0  0
  -30.7448  -17.8735   19.7427 C   0  0  0  0  0  0  0  0  0  0  0  0
  -26.4414  -32.9236   23.7998 C   0  0  1  0  0  0  0  0  0  0  0  0
  -22.9233  -33.5636   25.0581 C   0  0  2  0  0  0  0  0  0  0  0  0
  -27.6751  -33.2507   24.6878 C   0  0  0  0  0  0  0  0  0  0  0  0
  -25.8941  -11.7007   21.1909 N   0  0  0  0  0  0  0  0  0  0  0  0
  -26.7483  -12.4852   20.5119 N   0  0  0  0  0  0  0  0  0  0  0  0
  -26.5647  -32.4155   21.3811 N   0  0  0  0  0  0  0  0  0  0  0  0
  -27.9271  -15.6918   22.2316 N   0  0  0  0  0  0  0  0  0  0  0  0
  -27.4703  -13.0429   18.3259 N   0  0  0  0  0  0  0  0  0  0  0  0
  -24.2953   -9.9125   17.6077 N   0  0  0  0  0  0  0  0  0  0  0  0
  -27.0946  -22.2424   20.0155 N   0  0  0  0  0  0  0  0  0  0  0  0
  -28.8871  -32.7880   18.5946 N   0  0  0  0  0  0  0  0  0  0  0  0
  -25.1910  -33.5045   24.2768 N   0  0  0  0  0  0  0  0  0  0  0  0
  -21.6359  -32.9499   24.6256 N   0  3  0  0  0  0  0  0  0  0  0  0
  -25.8123  -11.2948   16.5847 O   0  0  0  0  0  0  0  0  0  0  0  0
  -28.4456  -24.0819   19.4615 O   0  0  0  0  0  0  0  0  0  0  0  0
  -28.9861  -31.8986   20.7444 O   0  0  0  0  0  0  0  0  0  0  0  0
  -29.1000  -17.6793   22.5048 O   0  0  0  0  0  0  0  0  0  0  0  0
  -26.7772  -34.6032   22.1589 O   0  0  0  0  0  0  0  0  0  0  0  0
  -24.0435  -31.5005   24.4870 O   0  0  0  0  0  0  0  0  0  0  0  0
  -21.3190   -7.2835   21.5147 O   0  0  0  0  0  0  0  0  0  0  0  0
  -25.1562  -26.5957   19.8983 O   0  0  0  0  0  0  0  0  0  1  0  0
  -22.3769   -3.7654   25.6267 F   0  0  0  0  0  0  0  0  0  0  0  0
  -21.3410   -4.5541   21.0758 F   0  0  0  0  0  0  0  0  0  0  0  0
  1  2  1  0  0  0  0
  1  5  2  0  0  0  0
  2  6  2  0  0  0  0
  3 10  2  0  0  0  0
  3 18  1  0  0  0  0
  4 11  1  0  0  0  0
  4 18  2  0  0  0  0
  5 20  1  0  0  0  0
  6 22  1  0  0  0  0
  7 12  2  0  0  0  0
  7 21  1  0  0  0  0
  8  9  2  0  0  0  0
  8 24  1  0  0  0  0
  9 26  1  0  0  0  0
 10 27  1  0  0  0  0
 11 27  2  0  0  0  0
 12 28  1  0  0  0  0
 13 14  2  0  0  0  0
 13 29  1  0  0  0  0
 14 30  1  0  0  0  0
 15 23  1  0  0  0  0
 15 28  2  0  0  0  0
 16 25  1  0  0  0  0
 16 26  2  0  0  0  0
 17 30  2  0  0  0  0
 17 31  1  0  0  0  0
 18 32  1  0  0  0  0
 19 32  1  0  0  0  0
 19 33  2  0  0  0  0
 19 36  1  0  0  0  0
 20 22  2  0  0  0  0
 20 42  1  0  0  0  0
 21 23  2  0  0  0  0
 21 43  1  0  0  0  0
 22 51  1  0  0  0  0
 23 44  1  0  0  0  0
 24 25  2  0  0  0  0
 24 61  1  0  0  0  0
 25 60  1  0  0  0  0
 26 71  1  0  0  0  0
 27 81  1  0  0  0  0
 28 82  1  0  0  0  0
 29 31  2  0  0  0  0
 29 81  1  0  0  0  0
 30 83  1  0  0  0  0
 31 84  1  0  0  0  0
 32 65  2  0  0  0  0
 33 66  1  0  0  0  0
 33 69  1  0  0  0  0
 34 35  2  0  0  0  0
 34 37  1  0  0  0  0
 35 82  1  0  0  0  0
 36 70  1  0  0  0  0
 36 75  2  0  0  0  0
 37 71  1  0  0  0  0
 37 76  2  0  0  0  0
 38 52  1  0  0  0  0
 38 72  1  0  0  0  0
 38 77  2  0  0  0  0
 39 60  1  0  0  0  0
 39 68  1  0  0  0  0
 39 78  2  0  0  0  0
 40 62  1  0  0  0  0
 40 67  1  0  0  0  0
 40 79  2  0  0  0  0
 41 63  1  0  0  0  0
 41 73  1  0  0  0  0
 41 80  2  0  0  0  0
 42 45  1  0  0  0  0
 43 52  1  0  0  0  0
 44 67  1  0  0  0  0
 45 47  1  0  0  0  0
 46 48  1  0  0  0  0
 46 49  1  0  0  0  0
 47 51  1  0  0  0  0
 48 53  1  0  0  0  0
 49 68  1  0  0  0  0
 50 53  1  0  0  0  0
 50 68  1  0  0  0  0
 51 72  1  0  0  0  0
 52 67  1  0  0  0  0
 53 66  1  0  0  0  0
 54 61  1  0  0  0  0
 55 63  1  0  0  0  0
 56 64  1  0  0  0  0
 57 64  1  0  0  0  0
 58 64  1  0  0  0  0
 59 74  1  0  0  0  0
 62 64  1  0  0  0  0
 62 73  1  0  0  0  0
 63 74  1  0  0  0  0
 65 66  1  0  0  0  0
M  CHG  1  74   1
M  ISO  4  35 101  39 100  60 100  82 101
M  END
> <Batch ID>
0112

> <Smiles>
CCc1ccc(NC(=O)C=[101CH:1][101O:1]c2ccc3c(c2)CN(C(=O)C(NC(=O)C(C)NC)C(C)(C)C)C(C(=O)NC2CCCc4ccccc42)C3)cc1[100CH2:0][100C:0](=O)N1CCCC(n2nc(-c3ccc(Oc4ccc(F)cc4F)cc3)c(C(N)=O)c2N)C1

> <Shape>
0.259

> <Color>
0.111

> <Negative vol penalty>
0.000

$$$$

  -OEChem-04052301313D

 84 92  0     1  0  0  0  0  0999 V2000
  -28.9939  -33.7755   26.3002 C   0  0  0  0  0  0  0  0  0  0  0  0
  -29.0342  -32.6182   25.5293 C   0  0  0  0  0  0  0  0  0  0  0  0
  -24.4795   -8.4877   20.5726 C   0  0  0  0  0  0  0  0  0  0  0  0
  -22.7746  -10.1892   20.7598 C   0  0  0  0  0  0  0  0  0  0  0  0
  -27.7725  -34.2567   26.7699 C   0  0  0  0  0  0  0  0  0  0  0  0
  -27.8532  -31.9406   25.2286 C   0  0  0  0  0  0  0  0  0  0  0  0
  -27.5994  -30.5419   20.3681 C   0  0  0  0  0  0  0  0  0  0  0  0
  -23.5507   -7.5160   20.9448 C   0  0  0  0  0  0  0  0  0  0  0  0
  -21.8457   -9.2175   21.1319 C   0  0  0  0  0  0  0  0  0  0  0  0
  -28.3321  -29.4177   19.9900 C   0  0  0  0  0  0  0  0  0  0  0  0
  -21.7145   -4.6369   22.1950 C   0  0  0  0  0  0  0  0  0  0  0  0
  -22.1089   -3.6881   23.1384 C   0  0  0  0  0  0  0  0  0  0  0  0
  -26.3260  -28.0822   20.0951 C   0  0  0  0  0  0  0  0  0  0  0  0
  -22.5131   -5.4500   24.7414 C   0  0  0  0  0  0  0  0  0  0  0  0
  -24.0915   -9.8243   20.4801 C   0  0  0  0  0  0  0  0  0  0  0  0
  -25.3457  -11.2679   18.7917 C   0  0  0  0  0  0  0  0  0  0  0  0
  -26.5749  -33.5900   26.4667 C   0  0  0  0  0  0  0  0  0  0  0  0
  -26.2242  -30.4423   20.6236 C   0  0  0  0  0  0  0  0  0  0  0  0
  -26.6147  -32.4125   25.6958 C   0  0  0  0  0  0  0  0  0  0  0  0
  -25.5776  -29.2072   20.4739 C   0  0  0  0  0  0  0  0  0  0  0  0
  -22.2337   -7.8809   21.2244 C   0  0  0  0  0  0  0  0  0  0  0  0
  -27.6960  -28.1870   19.8562 C   0  0  0  0  0  0  0  0  0  0  0  0
  -21.7195   -5.9922   22.5248 C   0  0  0  0  0  0  0  0  0  0  0  0
  -22.5081   -4.0946   24.4115 C   0  0  0  0  0  0  0  0  0  0  0  0
  -22.1188   -6.3988   23.7980 C   0  0  0  0  0  0  0  0  0  0  0  0
  -25.0508  -10.8287   20.0963 C   0  0  0  0  0  0  0  0  0  0  0  0
  -26.3172  -12.2237   18.9627 C   0  0  0  0  0  0  0  0  0  0  0  0
  -30.0381  -19.5534   22.8370 C   0  0  0  0  0  0  0  0  0  0  0  0
  -28.9158  -20.5953   20.5252 C   0  0  0  0  0  0  0  0  0  0  0  0
  -29.7074  -21.4396   21.1965 C   0  0  0  0  0  0  0  0  0  0  0  0
  -29.2235  -18.8255   22.0607 C   0  0  0  0  0  0  0  0  0  0  0  0
  -30.3456  -20.9539   22.4463 C   0  0  0  0  0  0  0  0  0  0  0  0
  -24.7911  -10.8495   17.5375 C   0  0  0  0  0  0  0  0  0  0  0  0
  -24.3737  -30.9245   23.1627 C   0  0  0  0  0  0  0  0  0  0  0  0
  -29.1124  -24.8631   20.1331 C   0  0  0  0  0  0  0  0  0  0  0  0
  -21.9834  -30.3877   21.0366 C   0  0  0  0  0  0  0  0  0  0  0  0
  -20.9867  -28.9778   18.0928 C   0  0  0  0  0  0  0  0  0  0  0  0
  -28.0661  -16.7394   21.5974 C   0  0  0  0  0  0  0  0  0  0  0  0
  -25.2837  -34.1218   27.0365 C   0  0  0  0  0  0  0  0  0  0  0  0
  -25.4429  -31.6699   21.0046 C   0  0  0  0  0  0  0  0  0  0  0  0
  -24.0994  -29.0513   20.7168 C   0  0  0  0  0  0  0  0  0  0  0  0
  -24.0393  -33.5533   26.3595 C   0  0  0  0  0  0  0  0  0  0  0  0
  -29.0524  -13.4688   23.0078 C   0  0  0  0  0  0  0  0  0  0  0  0
  -24.1568  -32.0397   26.2109 C   0  0  0  0  0  0  0  0  0  0  0  0
  -28.0746  -12.5369   22.2984 C   0  0  0  0  0  0  0  0  0  0  0  0
  -28.4377  -14.8394   23.2887 C   0  0  0  0  0  0  0  0  0  0  0  0
  -26.9004  -14.5671   21.3637 C   0  0  0  0  0  0  0  0  0  0  0  0
  -25.3525  -31.6633   25.3277 C   0  0  1  0  0  0  0  0  0  0  0  0
  -24.1452  -31.3480   21.7393 C   0  0  1  0  0  0  0  0  0  0  0  0
  -27.5179  -13.2004   21.0298 C   0  0  2  0  0  0  0  0  0  0  0  0
  -18.9640  -28.6757   16.6386 C   0  0  0  0  0  0  0  0  0  0  0  0
  -20.9287  -28.2580   22.9502 C   0  0  0  0  0  0  0  0  0  0  0  0
  -19.5314  -27.3643   21.0748 C   0  0  0  0  0  0  0  0  0  0  0  0
  -19.1630  -29.6877   21.9047 C   0  0  0  0  0  0  0  0  0  0  0  0
  -31.3683  -23.0064   22.7319 C   0  0  0  0  0  0  0  0  0  0  0  0
  -22.2494  -30.4196   15.8376 C   0  0  0  0  0  0  0  0  0  0  0  0
  -27.9535  -25.8257   19.9732 C   0  0  0  0  0  0  0  0  0  1  0  0
  -28.7556  -23.4761   20.6268 C   0  0  0  0  0  0  0  0  0  0  0  0
  -21.2359  -29.1682   20.5537 C   0  0  1  0  0  0  0  0  0  0  0  0
  -20.1850  -29.5342   16.9300 C   0  0  2  0  0  0  0  0  0  0  0  0
  -20.2430  -28.6218   21.6181 C   0  0  0  0  0  0  0  0  0  0  0  0
  -25.7762  -11.4539   21.0273 N   0  0  0  0  0  0  0  0  0  0  0  0
  -31.1318  -21.6503   23.2020 N   0  0  0  0  0  0  0  0  0  0  0  0
  -26.5367  -12.2958   20.3069 N   0  0  0  0  0  0  0  0  0  0  0  0
  -23.3801  -30.2795   21.0935 N   0  0  0  0  0  0  0  0  0  0  0  0
  -27.8529  -15.4303   22.0741 N   0  0  0  0  0  0  0  0  0  0  0  0
  -26.9965  -13.0011   18.0929 N   0  0  0  0  0  0  0  0  0  0  0  0
  -23.8018   -9.8567   17.5424 N   0  0  0  0  0  0  0  0  0  0  0  0
  -28.9070  -17.5332   22.3728 N   0  0  0  0  0  0  0  0  0  0  0  0
  -25.0326  -31.8655   23.9308 N   0  0  0  0  0  0  0  0  0  0  0  0
  -20.6102  -29.5463   19.2912 N   0  0  0  0  0  0  0  0  0  0  0  0
  -21.0254  -29.5889   15.7005 N   0  3  0  0  0  0  0  0  0  0  0  0
  -25.1735  -11.3298   16.4436 O   0  0  0  0  0  0  0  0  0  0  0  0
  -23.9801  -29.8260   23.5368 O   0  0  0  0  0  0  0  0  0  0  0  0
  -30.2712  -25.1881   19.8785 O   0  0  0  0  0  0  0  0  0  0  0  0
  -21.3518  -31.4014   21.3449 O   0  0  0  0  0  0  0  0  0  0  0  0
  -21.8572  -28.1216   17.9525 O   0  0  0  0  0  0  0  0  0  0  0  0
  -27.5356  -17.1622   20.5638 O   0  0  0  0  0  0  0  0  0  0  0  0
  -28.6419  -19.3024   20.9007 O   0  0  0  0  0  0  0  0  0  0  0  0
  -21.3270   -6.9329   21.5874 O   0  0  0  0  0  0  0  0  0  0  0  0
  -28.4090  -27.0880   19.4879 O   0  0  0  0  0  0  0  0  0  1  0  0
  -29.9127  -22.6760   20.7487 O   0  0  0  0  0  0  0  0  0  0  0  0
  -22.8853   -3.1833   25.3178 F   0  0  0  0  0  0  0  0  0  0  0  0
  -22.1246   -7.6993   24.1210 F   0  0  0  0  0  0  0  0  0  0  0  0
  1  2  1  0  0  0  0
  1  5  2  0  0  0  0
  2  6  2  0  0  0  0
  3  8  2  0  0  0  0
  3 15  1  0  0  0  0
  4  9  1  0  0  0  0
  4 15  2  0  0  0  0
  5 17  1  0  0  0  0
  6 19  1  0  0  0  0
  7 10  2  0  0  0  0
  7 18  1  0  0  0  0
  8 21  1  0  0  0  0
  9 21  2  0  0  0  0
 10 22  1  0  0  0  0
 11 12  2  0  0  0  0
 11 23  1  0  0  0  0
 12 24  1  0  0  0  0
 13 20  1  0  0  0  0
 13 22  2  0  0  0  0
 14 24  2  0  0  0  0
 14 25  1  0  0  0  0
 15 26  1  0  0  0  0
 16 26  1  0  0  0  0
 16 27  2  0  0  0  0
 16 33  1  0  0  0  0
 17 19  2  0  0  0  0
 17 39  1  0  0  0  0
 18 20  2  0  0  0  0
 18 40  1  0  0  0  0
 19 48  1  0  0  0  0
 20 41  1  0  0  0  0
 21 80  1  0  0  0  0
 22 81  1  0  0  0  0
 23 25  2  0  0  0  0
 23 80  1  0  0  0  0
 24 83  1  0  0  0  0
 25 84  1  0  0  0  0
 26 62  2  0  0  0  0
 27 64  1  0  0  0  0
 27 67  1  0  0  0  0
 28 31  2  0  0  0  0
 28 32  1  0  0  0  0
 29 30  2  0  0  0  0
 29 79  1  0  0  0  0
 30 32  1  0  0  0  0
 30 82  1  0  0  0  0
 31 69  1  0  0  0  0
 31 79  1  0  0  0  0
 32 63  2  0  0  0  0
 33 68  1  0  0  0  0
 33 73  2  0  0  0  0
 34 49  1  0  0  0  0
 34 70  1  0  0  0  0
 34 74  2  0  0  0  0
 35 57  1  0  0  0  0
 35 58  1  0  0  0  0
 35 75  2  0  0  0  0
 36 59  1  0  0  0  0
 36 65  1  0  0  0  0
 36 76  2  0  0  0  0
 37 60  1  0  0  0  0
 37 71  1  0  0  0  0
 37 77  2  0  0  0  0
 38 66  1  0  0  0  0
 38 69  1  0  0  0  0
 38 78  2  0  0  0  0
 39 42  1  0  0  0  0
 40 49  1  0  0  0  0
 41 65  1  0  0  0  0
 42 44  1  0  0  0  0
 43 45  1  0  0  0  0
 43 46  1  0  0  0  0
 44 48  1  0  0  0  0
 45 50  1  0  0  0  0
 46 66  1  0  0  0  0
 47 50  1  0  0  0  0
 47 66  1  0  0  0  0
 48 70  1  0  0  0  0
 49 65  1  0  0  0  0
 50 64  1  0  0  0  0
 51 60  1  0  0  0  0
 52 61  1  0  0  0  0
 53 61  1  0  0  0  0
 54 61  1  0  0  0  0
 55 63  1  0  0  0  0
 56 72  1  0  0  0  0
 57 81  1  0  0  0  0
 58 82  1  0  0  0  0
 59 61  1  0  0  0  0
 59 71  1  0  0  0  0
 60 72  1  0  0  0  0
 62 64  1  0  0  0  0
M  CHG  1  72   1
M  ISO  4  38 100  57 101  69 100  81 101
M  END
> <Batch ID>
0112

> <Smiles>
CNc1cc(=[100N:0][100C:0](=O)N2CCCC(n3nc(-c4ccc(Oc5ccc(F)cc5F)cc4)c(C(N)=O)c3N)C2)occ1OCC(=O)[101CH2:1][101O:1]c1ccc2c(c1)CN(C(=O)C(NC(=O)C(C)NC)C(C)(C)C)C(C(=O)NC1CCCc3ccccc31)C2

> <Shape>
0.319

> <Color>
0.116

> <Negative vol penalty>
0.000

$$$$

  -OEChem-04052301313D

 84 92  0     1  0  0  0  0  0999 V2000
  -17.9006  -24.7590   24.1092 C   0  0  0  0  0  0  0  0  0  0  0  0
  -19.2356  -24.5301   23.7916 C   0  0  0  0  0  0  0  0  0  0  0  0
  -25.2295  -16.2711   21.7446 C   0  0  0  0  0  0  0  0  0  0  0  0
  -27.3050  -17.1018   20.8286 C   0  0  0  0  0  0  0  0  0  0  0  0
  -17.3235  -25.9989   23.8381 C   0  0  0  0  0  0  0  0  0  0  0  0
  -19.9939  -25.5407   23.2017 C   0  0  0  0  0  0  0  0  0  0  0  0
  -24.5823  -25.9998   25.2948 C   0  0  0  0  0  0  0  0  0  0  0  0
  -28.3153  -26.5547   17.0356 C   0  0  0  0  0  0  0  0  0  0  0  0
  -25.3880  -15.0849   21.0280 C   0  0  0  0  0  0  0  0  0  0  0  0
  -27.4636  -15.9156   20.1121 C   0  0  0  0  0  0  0  0  0  0  0  0
  -25.5487  -25.0667   24.9216 C   0  0  0  0  0  0  0  0  0  0  0  0
  -28.9647  -25.6159   17.8371 C   0  0  0  0  0  0  0  0  0  0  0  0
  -28.5970  -12.9612   18.3218 C   0  0  0  0  0  0  0  0  0  0  0  0
  -29.8567  -12.3622   18.3282 C   0  0  0  0  0  0  0  0  0  0  0  0
  -26.4949  -26.6695   23.3870 C   0  0  0  0  0  0  0  0  0  0  0  0
  -26.2551  -26.1503   18.2311 C   0  0  0  0  0  0  0  0  0  0  0  0
  -29.7444  -12.1519   20.7324 C   0  0  0  0  0  0  0  0  0  0  0  0
  -26.1880  -17.2796   21.6448 C   0  0  0  0  0  0  0  0  0  0  0  0
  -26.4878  -18.7820   23.6845 C   0  0  0  0  0  0  0  0  0  0  0  0
  -18.0778  -27.0283   23.2535 C   0  0  0  0  0  0  0  0  0  0  0  0
  -24.5584  -27.2731   24.7080 C   0  0  0  0  0  0  0  0  0  0  0  0
  -19.4260  -26.7951   22.9213 C   0  0  0  0  0  0  0  0  0  0  0  0
  -25.5288  -27.6178   23.7564 C   0  0  0  0  0  0  0  0  0  0  0  0
  -26.9605  -26.8220   17.2326 C   0  0  0  0  0  0  0  0  0  0  0  0
  -26.9045  -25.2115   19.0326 C   0  0  0  0  0  0  0  0  0  0  0  0
  -26.5051  -14.9071   20.2118 C   0  0  0  0  0  0  0  0  0  0  0  0
  -26.5034  -25.4005   23.9654 C   0  0  0  0  0  0  0  0  0  0  0  0
  -28.2593  -24.9442   18.8356 C   0  0  0  0  0  0  0  0  0  0  0  0
  -27.9111  -13.1556   19.5207 C   0  0  0  0  0  0  0  0  0  0  0  0
  -30.4304  -11.9576   19.5335 C   0  0  0  0  0  0  0  0  0  0  0  0
  -28.4848  -12.7509   20.7260 C   0  0  0  0  0  0  0  0  0  0  0  0
  -26.0245  -18.5054   22.3843 C   0  0  0  0  0  0  0  0  0  0  0  0
  -26.0800  -20.0709   23.9273 C   0  0  0  0  0  0  0  0  0  0  0  0
  -30.1542  -23.6511   21.5952 C   0  0  0  0  0  0  0  0  0  0  0  0
  -27.2213  -17.9485   24.5917 C   0  0  0  0  0  0  0  0  0  0  0  0
  -29.6160  -23.8554   22.8131 C   0  0  0  0  0  0  0  0  0  0  0  0
  -22.4725  -28.8860   22.9328 C   0  0  0  0  0  0  0  0  0  0  0  0
  -24.6007  -31.3027   23.3230 C   0  0  0  0  0  0  0  0  0  0  0  0
  -27.8115  -32.2589   23.9734 C   0  0  0  0  0  0  0  0  0  0  0  0
  -24.8254  -24.6964   20.3586 C   0  0  0  0  0  0  0  0  0  0  0  0
  -17.3975  -28.3364   22.9359 C   0  0  0  0  0  0  0  0  0  0  0  0
  -23.5257  -28.2774   25.1410 C   0  0  0  0  0  0  0  0  0  0  0  0
  -25.5589  -28.9784   23.1113 C   0  0  0  0  0  0  0  0  0  0  0  0
  -18.3719  -29.4768   22.6527 C   0  0  0  0  0  0  0  0  0  0  0  0
  -22.6510  -23.1989   22.7475 C   0  0  0  0  0  0  0  0  0  0  0  0
  -19.4670  -29.0177   21.6951 C   0  0  0  0  0  0  0  0  0  0  0  0
  -23.3148  -21.8531   23.0484 C   0  0  0  0  0  0  0  0  0  0  0  0
  -22.7998  -23.5887   21.2779 C   0  0  0  0  0  0  0  0  0  0  0  0
  -24.8401  -22.2240   21.0678 C   0  0  0  0  0  0  0  0  0  0  0  0
  -20.2881  -27.8744   22.3033 C   0  0  1  0  0  0  0  0  0  0  0  0
  -23.2816  -29.3687   24.1032 C   0  0  1  0  0  0  0  0  0  0  0  0
  -24.7727  -21.8198   22.5496 C   0  0  2  0  0  0  0  0  0  0  0  0
  -29.8841  -22.8774   23.9293 C   0  0  0  0  0  0  0  0  0  0  0  0
  -29.2535  -34.3014   24.1884 C   0  0  0  0  0  0  0  0  0  0  0  0
  -24.6374  -31.5934   20.2858 C   0  0  0  0  0  0  0  0  0  0  0  0
  -26.7370  -32.9387   20.5097 C   0  0  0  0  0  0  0  0  0  0  0  0
  -24.6178  -33.7566   21.5407 C   0  0  0  0  0  0  0  0  0  0  0  0
  -28.4668  -31.6416   26.7927 C   0  0  0  0  0  0  0  0  0  0  0  0
  -30.0210  -24.4975   20.3696 C   0  0  0  0  0  0  0  0  0  0  0  0
  -28.7126  -25.0016   23.1805 C   0  0  0  0  0  0  0  0  0  1  0  0
  -25.8188  -31.7860   22.5735 C   0  0  1  0  0  0  0  0  0  0  0  0
  -28.3805  -33.2967   24.9240 C   0  0  2  0  0  0  0  0  0  0  0  0
  -25.4513  -32.4923   21.2380 C   0  0  0  0  0  0  0  0  0  0  0  0
  -25.3722  -19.5356   21.8393 N   0  0  0  0  0  0  0  0  0  0  0  0
  -25.4226  -20.4722   22.8018 N   0  0  0  0  0  0  0  0  0  0  0  0
  -24.5245  -29.9235   23.5633 N   0  0  0  0  0  0  0  0  0  0  0  0
  -24.2076  -23.5388   20.8774 N   0  0  0  0  0  0  0  0  0  0  0  0
  -26.3045  -27.7720   16.4225 N   0  0  0  0  0  0  0  0  0  0  0  0
  -26.2232  -20.8888   24.9918 N   0  0  0  0  0  0  0  0  0  0  0  0
  -27.5591  -16.6512   24.1826 N   0  0  0  0  0  0  0  0  0  0  0  0
  -26.1744  -24.5378   20.0430 N   0  0  0  0  0  0  0  0  0  0  0  0
  -21.2292  -28.3892   23.2748 N   0  0  0  0  0  0  0  0  0  0  0  0
  -26.5664  -32.6227   23.5059 N   0  0  0  0  0  0  0  0  0  0  0  0
  -29.2059  -32.6384   25.9758 N   0  3  0  0  0  0  0  0  0  0  0  0
  -27.5526  -18.3367   25.7376 O   0  0  0  0  0  0  0  0  0  0  0  0
  -22.9408  -28.9602   21.8028 O   0  0  0  0  0  0  0  0  0  0  0  0
  -23.7517  -32.1198   23.6881 O   0  0  0  0  0  0  0  0  0  0  0  0
  -28.4131  -31.2303   23.6725 O   0  0  0  0  0  0  0  0  0  0  0  0
  -24.2105  -25.7583   20.2310 O   0  0  0  0  0  0  0  0  0  0  0  0
  -26.6602  -13.7497   19.5126 O   0  0  0  0  0  0  0  0  0  0  0  0
  -28.9160  -24.0242   19.6105 O   0  0  0  0  0  0  0  0  0  0  0  0
  -27.4474  -24.4914   23.5988 O   0  0  0  0  0  0  0  0  0  1  0  0
  -31.6394  -11.3810   19.5394 F   0  0  0  0  0  0  0  0  0  0  0  0
  -27.8301  -12.9340   21.8809 F   0  0  0  0  0  0  0  0  0  0  0  0
  1  2  1  0  0  0  0
  1  5  2  0  0  0  0
  2  6  2  0  0  0  0
  3  9  2  0  0  0  0
  3 18  1  0  0  0  0
  4 10  1  0  0  0  0
  4 18  2  0  0  0  0
  5 20  1  0  0  0  0
  6 22  1  0  0  0  0
  7 11  2  0  0  0  0
  7 21  1  0  0  0  0
  8 12  2  0  0  0  0
  8 24  1  0  0  0  0
  9 26  1  0  0  0  0
 10 26  2  0  0  0  0
 11 27  1  0  0  0  0
 12 28  1  0  0  0  0
 13 14  2  0  0  0  0
 13 29  1  0  0  0  0
 14 30  1  0  0  0  0
 15 23  1  0  0  0  0
 15 27  2  0  0  0  0
 16 24  2  0  0  0  0
 16 25  1  0  0  0  0
 17 30  2  0  0  0  0
 17 31  1  0  0  0  0
 18 32  1  0  0  0  0
 19 32  1  0  0  0  0
 19 33  2  0  0  0  0
 19 35  1  0  0  0  0
 20 22  2  0  0  0  0
 20 41  1  0  0  0  0
 21 23  2  0  0  0  0
 21 42  1  0  0  0  0
 22 50  1  0  0  0  0
 23 43  1  0  0  0  0
 24 68  1  0  0  0  0
 25 28  2  0  0  0  0
 25 71  1  0  0  0  0
 26 80  1  0  0  0  0
 27 82  1  0  0  0  0
 28 81  1  0  0  0  0
 29 31  2  0  0  0  0
 29 80  1  0  0  0  0
 30 83  1  0  0  0  0
 31 84  1  0  0  0  0
 32 64  2  0  0  0  0
 33 65  1  0  0  0  0
 33 69  1  0  0  0  0
 34 36  2  0  0  0  0
 34 59  1  0  0  0  0
 35 70  1  0  0  0  0
 35 75  2  0  0  0  0
 36 53  1  0  0  0  0
 36 60  1  0  0  0  0
 37 51  1  0  0  0  0
 37 72  1  0  0  0  0
 37 76  2  0  0  0  0
 38 61  1  0  0  0  0
 38 66  1  0  0  0  0
 38 77  2  0  0  0  0
 39 62  1  0  0  0  0
 39 73  1  0  0  0  0
 39 78  2  0  0  0  0
 40 67  1  0  0  0  0
 40 71  1  0  0  0  0
 40 79  2  0  0  0  0
 41 44  1  0  0  0  0
 42 51  1  0  0  0  0
 43 66  1  0  0  0  0
 44 46  1  0  0  0  0
 45 47  1  0  0  0  0
 45 48  1  0  0  0  0
 46 50  1  0  0  0  0
 47 52  1  0  0  0  0
 48 67  1  0  0  0  0
 49 52  1  0  0  0  0
 49 67  1  0  0  0  0
 50 72  1  0  0  0  0
 51 66  1  0  0  0  0
 52 65  1  0  0  0  0
 54 62  1  0  0  0  0
 55 63  1  0  0  0  0
 56 63  1  0  0  0  0
 57 63  1  0  0  0  0
 58 74  1  0  0  0  0
 59 81  1  0  0  0  0
 60 82  1  0  0  0  0
 61 63  1  0  0  0  0
 61 73  1  0  0  0  0
 62 74  1  0  0  0  0
 64 65  1  0  0  0  0
M  CHG  1  74   1
M  ISO  4  40 100  60 101  71 100  82 101
M  END
> <Batch ID>
0112

> <Smiles>
CNC(C)C(=O)NC(C(=O)N1Cc2cc([101O:1][101CH2:1]C(C)=CCOc3ccc(N)cc3[100NH:0][100C:0](=O)N3CCCC(n4nc(-c5ccc(Oc6ccc(F)cc6F)cc5)c(C(N)=O)c4N)C3)ccc2CC1C(=O)NC1CCCc2ccccc21)C(C)(C)C

> <Shape>
0.210

> <Color>
0.056

> <Negative vol penalty>
0.000

$$$$

  -OEChem-04052301313D

 92101  0     1  0  0  0  0  0999 V2000
  -16.8021  -29.6015   23.6071 C   0  0  0  0  0  0  0  0  0  0  0  0
  -16.9028  -28.3140   23.0897 C   0  0  0  0  0  0  0  0  0  0  0  0
  -29.3089  -21.3907   20.3001 C   0  0  0  0  0  0  0  0  0  0  0  0
  -31.0852  -20.7861   18.7782 C   0  0  0  0  0  0  0  0  0  0  0  0
  -17.9566  -30.3258   23.9010 C   0  0  0  0  0  0  0  0  0  0  0  0
  -18.1583  -27.7505   22.8650 C   0  0  0  0  0  0  0  0  0  0  0  0
  -19.7146  -21.8601   23.4873 C   0  0  0  0  0  0  0  0  0  0  0  0
  -29.0824  -22.5585   19.5719 C   0  0  0  0  0  0  0  0  0  0  0  0
  -30.8587  -21.9539   18.0499 C   0  0  0  0  0  0  0  0  0  0  0  0
  -19.8468  -20.8224   22.5656 C   0  0  0  0  0  0  0  0  0  0  0  0
  -28.2762  -25.8765   18.3209 C   0  0  0  0  0  0  0  0  0  0  0  0
  -28.1022  -27.0632   19.0330 C   0  0  0  0  0  0  0  0  0  0  0  0
  -25.0564  -13.8335   20.9015 C   0  0  0  0  0  0  0  0  0  0  0  0
  -23.6669  -11.8583   20.9695 C   0  0  0  0  0  0  0  0  0  0  0  0
  -22.2180  -21.2470   22.4369 C   0  0  0  0  0  0  0  0  0  0  0  0
  -25.9560  -11.6994   20.2133 C   0  0  0  0  0  0  0  0  0  0  0  0
  -30.3059  -26.8113   19.9910 C   0  0  0  0  0  0  0  0  0  0  0  0
  -30.3104  -20.5044   19.9033 C   0  0  0  0  0  0  0  0  0  0  0  0
  -23.8303  -13.2280   21.1762 C   0  0  0  0  0  0  0  0  0  0  0  0
  -30.9110  -19.1994   22.0114 C   0  0  0  0  0  0  0  0  0  0  0  0
  -19.2269  -29.7672   23.6888 C   0  0  0  0  0  0  0  0  0  0  0  0
  -20.8332  -22.6074   23.8831 C   0  0  0  0  0  0  0  0  0  0  0  0
  -19.3310  -28.4685   23.1551 C   0  0  0  0  0  0  0  0  0  0  0  0
  -22.0977  -22.2920   23.3657 C   0  0  0  0  0  0  0  0  0  0  0  0
  -26.1193  -13.0692   20.4199 C   0  0  0  0  0  0  0  0  0  0  0  0
  -29.8573  -22.8402   18.4467 C   0  0  0  0  0  0  0  0  0  0  0  0
  -21.0981  -20.5176   22.0381 C   0  0  0  0  0  0  0  0  0  0  0  0
  -29.4649  -25.1571   18.4439 C   0  0  0  0  0  0  0  0  0  0  0  0
  -24.7298  -11.0939   20.4880 C   0  0  0  0  0  0  0  0  0  0  0  0
  -29.1171  -27.5306   19.8680 C   0  0  0  0  0  0  0  0  0  0  0  0
  -30.4798  -25.6246   19.2789 C   0  0  0  0  0  0  0  0  0  0  0  0
  -30.5452  -19.2982   20.6556 C   0  0  0  0  0  0  0  0  0  0  0  0
  -31.0102  -17.8492   22.2428 C   0  0  0  0  0  0  0  0  0  0  0  0
  -20.9491  -17.1566   20.7250 C   0  0  0  0  0  0  0  0  0  0  0  0
  -21.6554  -16.2627   21.4595 C   0  0  0  0  0  0  0  0  0  0  0  0
  -20.6850  -16.8791   19.2760 C   0  0  0  0  0  0  0  0  0  0  0  0
  -24.2243   -7.8299   17.4569 C   0  0  0  0  0  0  0  0  0  0  0  0
  -24.6167   -7.9680   18.7281 C   0  0  0  0  0  0  0  0  0  0  0  0
  -22.7064  -14.0353   21.6864 C   0  0  0  0  0  0  0  0  0  0  0  0
  -31.1404  -20.2356   22.9755 C   0  0  0  0  0  0  0  0  0  0  0  0
  -21.6810  -25.6631   23.6653 C   0  0  0  0  0  0  0  0  0  0  0  0
  -24.1837  -24.6948   25.4878 C   0  0  0  0  0  0  0  0  0  0  0  0
  -26.2031  -22.1429   26.5155 C   0  0  0  0  0  0  0  0  0  0  0  0
  -28.5208  -13.0709   19.6590 C   0  0  0  0  0  0  0  0  0  0  0  0
  -20.4463  -30.6064   23.9774 C   0  0  0  0  0  0  0  0  0  0  0  0
  -20.6782  -23.7062   24.8985 C   0  0  0  0  0  0  0  0  0  0  0  0
  -23.3332  -23.0507   23.7734 C   0  0  0  0  0  0  0  0  0  0  0  0
  -21.0758  -15.5338   18.7411 C   0  0  0  0  0  0  0  0  0  0  0  0
  -21.7373  -29.7961   24.0615 C   0  0  0  0  0  0  0  0  0  0  0  0
  -32.0021  -13.7302   20.0103 C   0  0  0  0  0  0  0  0  0  0  0  0
  -21.8318  -28.8196   22.8934 C   0  0  0  0  0  0  0  0  0  0  0  0
  -32.0565  -15.2225   20.3450 C   0  0  0  0  0  0  0  0  0  0  0  0
  -22.3387  -15.0585   19.4222 C   0  0  0  0  0  0  0  0  0  0  0  0
  -30.8941  -13.4139   19.0072 C   0  0  0  0  0  0  0  0  0  0  0  0
  -29.6156  -15.3977   19.7138 C   0  0  0  0  0  0  0  0  0  0  0  0
  -20.6749  -27.8134   22.9206 C   0  0  1  0  0  0  0  0  0  0  0  0
  -21.8025  -24.7357   24.8413 C   0  0  1  0  0  0  0  0  0  0  0  0
  -30.6741  -15.7556   20.7698 C   0  0  2  0  0  0  0  0  0  0  0  0
  -21.9375  -16.5257   22.9236 C   0  0  0  0  0  0  0  0  0  0  0  0
  -28.1849  -21.6663   27.9793 C   0  0  0  0  0  0  0  0  0  0  0  0
  -26.0259  -25.9270   23.3907 C   0  0  0  0  0  0  0  0  0  0  0  0
  -27.9162  -24.6202   24.3843 C   0  0  0  0  0  0  0  0  0  0  0  0
  -26.7250  -26.3280   25.7582 C   0  0  0  0  0  0  0  0  0  0  0  0
  -24.6478  -20.2844   28.2143 C   0  0  0  0  0  0  0  0  0  0  0  0
  -20.3120  -18.4183   21.2440 C   0  0  0  0  0  0  0  0  0  1  0  0
  -25.3482   -9.1598   19.2501 C   0  0  0  0  0  0  0  0  0  0  0  0
  -25.5636  -24.1510   25.2067 C   0  0  1  0  0  0  0  0  0  0  0  0
  -26.6673  -21.7197   27.8975 C   0  0  2  0  0  0  0  0  0  0  0  0
  -26.5343  -25.2433   24.6756 C   0  0  0  0  0  0  0  0  0  0  0  0
  -30.4207  -18.1057   20.0669 N   0  0  0  0  0  0  0  0  0  0  0  0
  -30.7099  -17.2448   21.0576 N   0  0  0  0  0  0  0  0  0  0  0  0
  -22.2308  -15.1036   20.8913 N   0  0  0  0  0  0  0  0  0  0  0  0
  -23.1290  -24.1203   24.7643 N   0  0  0  0  0  0  0  0  0  0  0  0
  -29.6133  -13.9454   19.4782 N   0  0  0  0  0  0  0  0  0  0  0  0
  -31.3242  -17.1319   23.3424 N   0  0  0  0  0  0  0  0  0  0  0  0
  -30.0576  -20.6855   23.7433 N   0  0  0  0  0  0  0  0  0  0  0  0
  -27.3651  -13.6842   20.1414 N   0  0  0  0  0  0  0  0  0  0  0  0
  -20.9192  -26.7891   23.9132 N   0  0  0  0  0  0  0  0  0  0  0  0
  -26.0065  -23.5054   26.4377 N   0  0  0  0  0  0  0  0  0  0  0  0
  -26.1307  -20.3706   28.2335 N   0  3  0  0  0  0  0  0  0  0  0  0
  -20.1156  -17.7016   18.5604 O   0  0  0  0  0  0  0  0  0  0  0  0
  -22.2755  -13.6933   22.7873 O   0  0  0  0  0  0  0  0  0  0  0  0
  -32.2687  -20.7587   23.1394 O   0  0  0  0  0  0  0  0  0  0  0  0
  -22.2383  -25.3790   22.6116 O   0  0  0  0  0  0  0  0  0  0  0  0
  -24.0457  -25.5913   26.3238 O   0  0  0  0  0  0  0  0  0  0  0  0
  -26.0356  -21.3450   25.5958 O   0  0  0  0  0  0  0  0  0  0  0  0
  -28.6125  -11.8620   19.4305 O   0  0  0  0  0  0  0  0  0  0  0  0
  -29.6364  -23.9795   17.7357 O   0  0  0  0  0  0  0  0  0  0  0  0
  -21.2299  -19.5057   21.1378 O   0  0  0  0  0  0  0  0  0  1  0  0
  -24.5709   -9.7574   20.2867 O   0  0  0  0  0  0  0  0  0  0  0  0
  -28.9505  -28.6710   20.5506 F   0  0  0  0  0  0  0  0  0  0  0  0
  -31.6245  -24.9385   19.4002 F   0  0  0  0  0  0  0  0  0  0  0  0
  1  2  1  0  0  0  0
  1  5  2  0  0  0  0
  2  6  2  0  0  0  0
  3  8  2  0  0  0  0
  3 18  1  0  0  0  0
  4  9  1  0  0  0  0
  4 18  2  0  0  0  0
  5 21  1  0  0  0  0
  6 23  1  0  0  0  0
  7 10  2  0  0  0  0
  7 22  1  0  0  0  0
  8 26  1  0  0  0  0
  9 26  2  0  0  0  0
 10 27  1  0  0  0  0
 11 12  2  0  0  0  0
 11 28  1  0  0  0  0
 12 30  1  0  0  0  0
 13 19  2  0  0  0  0
 13 25  1  0  0  0  0
 14 19  1  0  0  0  0
 14 29  2  0  0  0  0
 15 24  1  0  0  0  0
 15 27  2  0  0  0  0
 16 25  2  0  0  0  0
 16 29  1  0  0  0  0
 17 30  2  0  0  0  0
 17 31  1  0  0  0  0
 18 32  1  0  0  0  0
 19 39  1  0  0  0  0
 20 32  1  0  0  0  0
 20 33  2  0  0  0  0
 20 40  1  0  0  0  0
 21 23  2  0  0  0  0
 21 45  1  0  0  0  0
 22 24  2  0  0  0  0
 22 46  1  0  0  0  0
 23 56  1  0  0  0  0
 24 47  1  0  0  0  0
 25 77  1  0  0  0  0
 26 88  1  0  0  0  0
 27 89  1  0  0  0  0
 28 31  2  0  0  0  0
 28 88  1  0  0  0  0
 29 90  1  0  0  0  0
 30 91  1  0  0  0  0
 31 92  1  0  0  0  0
 32 70  2  0  0  0  0
 33 71  1  0  0  0  0
 33 75  1  0  0  0  0
 34 35  2  0  0  0  0
 34 36  1  0  0  0  0
 34 65  1  0  0  0  0
 35 59  1  0  0  0  0
 35 72  1  0  0  0  0
 36 48  1  0  0  0  0
 36 81  2  0  0  0  0
 37 38  2  0  0  0  0
 38 66  1  0  0  0  0
 39 72  1  0  0  0  0
 39 82  2  0  0  0  0
 40 76  1  0  0  0  0
 40 83  2  0  0  0  0
 41 57  1  0  0  0  0
 41 78  1  0  0  0  0
 41 84  2  0  0  0  0
 42 67  1  0  0  0  0
 42 73  1  0  0  0  0
 42 85  2  0  0  0  0
 43 68  1  0  0  0  0
 43 79  1  0  0  0  0
 43 86  2  0  0  0  0
 44 74  1  0  0  0  0
 44 77  1  0  0  0  0
 44 87  2  0  0  0  0
 45 49  1  0  0  0  0
 46 57  1  0  0  0  0
 47 73  1  0  0  0  0
 48 53  1  0  0  0  0
 49 51  1  0  0  0  0
 50 52  1  0  0  0  0
 50 54  1  0  0  0  0
 51 56  1  0  0  0  0
 52 58  1  0  0  0  0
 53 72  1  0  0  0  0
 54 74  1  0  0  0  0
 55 58  1  0  0  0  0
 55 74  1  0  0  0  0
 56 78  1  0  0  0  0
 57 73  1  0  0  0  0
 58 71  1  0  0  0  0
 60 68  1  0  0  0  0
 61 69  1  0  0  0  0
 62 69  1  0  0  0  0
 63 69  1  0  0  0  0
 64 80  1  0  0  0  0
 65 89  1  0  0  0  0
 66 90  1  0  0  0  0
 67 69  1  0  0  0  0
 67 79  1  0  0  0  0
 68 80  1  0  0  0  0
 70 71  1  0  0  0  0
M  CHG  1  80   1
M  ISO  4  44 100  65 101  77 100  89 101
M  END
> <Batch ID>
0112

> <Smiles>
C=CCOc1cc([100NH:0][100C:0](=O)N2CCCC(n3nc(-c4ccc(Oc5ccc(F)cc5F)cc4)c(C(N)=O)c3N)C2)cc(C(=O)N2CCC(=O)C([101CH2:1][101O:1]c3ccc4c(c3)CN(C(=O)C(NC(=O)C(C)NC)C(C)(C)C)C(C(=O)NC3CCCc5ccccc53)C4)=C2C)c1

> <Shape>
0.246

> <Color>
0.046

> <Negative vol penalty>
0.000

$$$$

  -OEChem-04052301313D

 89 98  0     1  0  0  0  0  0999 V2000
  -31.2815  -35.2883   23.8737 C   0  0  0  0  0  0  0  0  0  0  0  0
  -31.2041  -34.1695   23.0505 C   0  0  0  0  0  0  0  0  0  0  0  0
  -23.0594   -9.6727   19.7112 C   0  0  0  0  0  0  0  0  0  0  0  0
  -24.8150   -8.5900   20.9693 C   0  0  0  0  0  0  0  0  0  0  0  0
  -30.4216  -35.4107   24.9644 C   0  0  0  0  0  0  0  0  0  0  0  0
  -30.2674  -33.1718   23.3181 C   0  0  0  0  0  0  0  0  0  0  0  0
  -27.2480  -29.7630   19.2232 C   0  0  0  0  0  0  0  0  0  0  0  0
  -22.1303   -8.7730   20.2334 C   0  0  0  0  0  0  0  0  0  0  0  0
  -23.8858   -7.6903   21.4916 C   0  0  0  0  0  0  0  0  0  0  0  0
  -27.4600  -28.4734   18.7375 C   0  0  0  0  0  0  0  0  0  0  0  0
  -21.5270   -7.6721   23.9115 C   0  0  0  0  0  0  0  0  0  0  0  0
  -21.5839   -7.4050   25.2794 C   0  0  0  0  0  0  0  0  0  0  0  0
  -25.8809  -27.6144   20.3461 C   0  0  0  0  0  0  0  0  0  0  0  0
  -28.1699  -19.1900   18.7461 C   0  0  0  0  0  0  0  0  0  0  0  0
  -27.4482  -20.4178   16.7946 C   0  0  0  0  0  0  0  0  0  0  0  0
  -27.3703  -18.0031   16.7996 C   0  0  0  0  0  0  0  0  0  0  0  0
  -21.9727   -5.0678   24.8069 C   0  0  0  0  0  0  0  0  0  0  0  0
  -24.4018   -9.5812   20.0791 C   0  0  0  0  0  0  0  0  0  0  0  0
  -25.6846  -10.7076   18.1834 C   0  0  0  0  0  0  0  0  0  0  0  0
  -29.4673  -34.4186   25.2398 C   0  0  0  0  0  0  0  0  0  0  0  0
  -26.3574  -29.9869   20.2830 C   0  0  0  0  0  0  0  0  0  0  0  0
  -29.3948  -33.2804   24.4142 C   0  0  0  0  0  0  0  0  0  0  0  0
  -25.6574  -28.9081   20.8417 C   0  0  0  0  0  0  0  0  0  0  0  0
  -27.9553  -20.4042   18.0940 C   0  0  0  0  0  0  0  0  0  0  0  0
  -27.8774  -17.9894   18.0989 C   0  0  0  0  0  0  0  0  0  0  0  0
  -22.5434   -7.7818   21.1236 C   0  0  0  0  0  0  0  0  0  0  0  0
  -26.7786  -27.3986   19.3008 C   0  0  0  0  0  0  0  0  0  0  0  0
  -21.6929   -6.6370   22.9913 C   0  0  0  0  0  0  0  0  0  0  0  0
  -27.1557  -19.2173   16.1474 C   0  0  0  0  0  0  0  0  0  0  0  0
  -21.8067   -6.1029   25.7271 C   0  0  0  0  0  0  0  0  0  0  0  0
  -21.9158   -5.3348   23.4391 C   0  0  0  0  0  0  0  0  0  0  0  0
  -25.3622  -10.5099   19.5395 C   0  0  0  0  0  0  0  0  0  0  0  0
  -26.6445  -11.6899   18.1984 C   0  0  0  0  0  0  0  0  0  0  0  0
  -27.7103  -23.9099   19.3502 C   0  0  0  0  0  0  0  0  0  0  0  0
  -27.3236  -22.6503   19.0276 C   0  0  0  0  0  0  0  0  0  0  0  0
  -29.1805  -24.2285   19.3107 C   0  0  0  0  0  0  0  0  0  0  0  0
  -25.0254  -23.1919   18.5576 C   0  0  0  0  0  0  0  0  0  0  0  0
  -25.9086  -22.3075   19.0316 C   0  0  0  0  0  0  0  0  0  0  0  0
  -25.1629  -10.0612   17.0148 C   0  0  0  0  0  0  0  0  0  0  0  0
  -26.6267  -31.1359   23.2344 C   0  0  0  0  0  0  0  0  0  0  0  0
  -23.3931  -30.8798   23.2110 C   0  0  0  0  0  0  0  0  0  0  0  0
  -20.6144  -29.3878   21.9074 C   0  0  0  0  0  0  0  0  0  0  0  0
  -28.5962  -16.5653   20.0487 C   0  0  0  0  0  0  0  0  0  0  0  0
  -28.5912  -34.5723   26.4577 C   0  0  0  0  0  0  0  0  0  0  0  0
  -26.1197  -31.3873   20.7777 C   0  0  0  0  0  0  0  0  0  0  0  0
  -24.6753  -29.0978   21.9678 C   0  0  0  0  0  0  0  0  0  0  0  0
  -30.1428  -23.1607   18.8500 C   0  0  0  0  0  0  0  0  0  0  0  0
  -27.3750  -33.6496   26.4536 C   0  0  0  0  0  0  0  0  0  0  0  0
  -29.2479  -13.6932   22.0495 C   0  0  0  0  0  0  0  0  0  0  0  0
  -27.7830  -32.2304   26.0712 C   0  0  0  0  0  0  0  0  0  0  0  0
  -28.3216  -12.6252   21.4633 C   0  0  0  0  0  0  0  0  0  0  0  0
  -29.6455  -21.7680   19.1930 C   0  0  0  0  0  0  0  0  0  0  0  0
  -28.5983  -15.0758   22.0377 C   0  0  0  0  0  0  0  0  0  0  0  0
  -27.1527  -14.4388   20.1473 C   0  0  0  0  0  0  0  0  0  0  0  0
  -28.3754  -32.1887   24.6574 C   0  0  1  0  0  0  0  0  0  0  0  0
  -25.5761  -31.4336   22.2023 C   0  0  1  0  0  0  0  0  0  0  0  0
  -27.7882  -13.0406   20.0781 C   0  0  2  0  0  0  0  0  0  0  0  0
  -18.1137  -29.3580   22.1149 C   0  0  0  0  0  0  0  0  0  0  0  0
  -23.6283  -29.2539   25.7822 C   0  0  0  0  0  0  0  0  0  0  0  0
  -21.2788  -28.4693   25.4186 C   0  0  0  0  0  0  0  0  0  0  0  0
  -21.7431  -30.8969   25.7557 C   0  0  0  0  0  0  0  0  0  0  0  0
  -20.2552  -30.2632   19.1032 C   0  0  0  0  0  0  0  0  0  0  0  0
  -26.4677  -20.5067   14.2712 C   0  0  0  0  0  0  0  0  0  0  0  0
  -26.8354  -25.0653   19.7574 C   0  0  0  0  0  0  0  0  0  1  0  0
  -22.4036  -29.7997   23.5758 C   0  0  1  0  0  0  0  0  0  0  0  0
  -19.3075  -29.9656   21.3949 C   0  0  2  0  0  0  0  0  0  0  0  0
  -22.2833  -29.6008   25.1132 C   0  0  0  0  0  0  0  0  0  0  0  0
  -26.0607  -11.3028   20.3564 N   0  0  0  0  0  0  0  0  0  0  0  0
  -26.8317  -12.0082   19.5113 N   0  0  0  0  0  0  0  0  0  0  0  0
  -28.2531  -21.6271   18.7529 N   0  0  0  0  0  0  0  0  0  0  0  0
  -24.4820  -30.4852   22.4209 N   0  0  0  0  0  0  0  0  0  0  0  0
  -28.1209  -15.4032   20.6925 N   0  0  0  0  0  0  0  0  0  0  0  0
  -27.3383  -12.3037   17.2164 N   0  0  0  0  0  0  0  0  0  0  0  0
  -25.7983   -8.9001   16.5537 N   0  0  0  0  0  0  0  0  0  0  0  0
  -28.0972  -16.7559   18.7606 N   0  0  0  0  0  0  0  0  0  0  0  0
  -27.3225  -32.2490   23.6663 N   0  0  0  0  0  0  0  0  0  0  0  0
  -21.1502  -30.1558   22.9195 N   0  0  0  0  0  0  0  0  0  0  0  0
  -19.1609  -29.7007   19.9357 N   0  3  0  0  0  0  0  0  0  0  0  0
  -29.5883  -25.3564   19.5881 O   0  0  0  0  0  0  0  0  0  0  0  0
  -24.1730  -10.5093   16.3882 O   0  0  0  0  0  0  0  0  0  0  0  0
  -26.7928  -29.9820   23.6122 O   0  0  0  0  0  0  0  0  0  0  0  0
  -23.2030  -32.0327   23.6064 O   0  0  0  0  0  0  0  0  0  0  0  0
  -21.1084  -28.3563   21.4576 O   0  0  0  0  0  0  0  0  0  0  0  0
  -29.4085  -17.3204   20.5891 O   0  0  0  0  0  0  0  0  0  0  0  0
  -21.6370   -6.9038   21.6336 O   0  0  0  0  0  0  0  0  0  0  0  0
  -26.6619  -19.2306   14.8792 O   0  0  0  0  0  0  0  0  0  0  0  0
  -26.9842  -26.1388   18.8291 O   0  0  0  0  0  0  0  0  0  1  0  0
  -21.8629   -5.8469   27.0407 F   0  0  0  0  0  0  0  0  0  0  0  0
  -22.0772   -4.3365   22.5598 F   0  0  0  0  0  0  0  0  0  0  0  0
  1  2  1  0  0  0  0
  1  5  2  0  0  0  0
  2  6  2  0  0  0  0
  3  8  2  0  0  0  0
  3 18  1  0  0  0  0
  4  9  1  0  0  0  0
  4 18  2  0  0  0  0
  5 20  1  0  0  0  0
  6 22  1  0  0  0  0
  7 10  2  0  0  0  0
  7 21  1  0  0  0  0
  8 26  1  0  0  0  0
  9 26  2  0  0  0  0
 10 27  1  0  0  0  0
 11 12  2  0  0  0  0
 11 28  1  0  0  0  0
 12 30  1  0  0  0  0
 13 23  1  0  0  0  0
 13 27  2  0  0  0  0
 14 24  1  0  0  0  0
 14 25  2  0  0  0  0
 15 24  2  0  0  0  0
 15 29  1  0  0  0  0
 16 25  1  0  0  0  0
 16 29  2  0  0  0  0
 17 30  2  0  0  0  0
 17 31  1  0  0  0  0
 18 32  1  0  0  0  0
 19 32  1  0  0  0  0
 19 33  2  0  0  0  0
 19 39  1  0  0  0  0
 20 22  2  0  0  0  0
 20 44  1  0  0  0  0
 21 23  2  0  0  0  0
 21 45  1  0  0  0  0
 22 55  1  0  0  0  0
 23 46  1  0  0  0  0
 24 70  1  0  0  0  0
 25 75  1  0  0  0  0
 26 85  1  0  0  0  0
 27 87  1  0  0  0  0
 28 31  2  0  0  0  0
 28 85  1  0  0  0  0
 29 86  1  0  0  0  0
 30 88  1  0  0  0  0
 31 89  1  0  0  0  0
 32 68  2  0  0  0  0
 33 69  1  0  0  0  0
 33 73  1  0  0  0  0
 34 35  2  0  0  0  0
 34 36  1  0  0  0  0
 34 64  1  0  0  0  0
 35 38  1  0  0  0  0
 35 70  1  0  0  0  0
 36 47  1  0  0  0  0
 36 79  2  0  0  0  0
 37 38  2  0  0  0  0
 39 74  1  0  0  0  0
 39 80  2  0  0  0  0
 40 56  1  0  0  0  0
 40 76  1  0  0  0  0
 40 81  2  0  0  0  0
 41 65  1  0  0  0  0
 41 71  1  0  0  0  0
 41 82  2  0  0  0  0
 42 66  1  0  0  0  0
 42 77  1  0  0  0  0
 42 83  2  0  0  0  0
 43 72  1  0  0  0  0
 43 75  1  0  0  0  0
 43 84  2  0  0  0  0
 44 48  1  0  0  0  0
 45 56  1  0  0  0  0
 46 71  1  0  0  0  0
 47 52  1  0  0  0  0
 48 50  1  0  0  0  0
 49 51  1  0  0  0  0
 49 53  1  0  0  0  0
 50 55  1  0  0  0  0
 51 57  1  0  0  0  0
 52 70  1  0  0  0  0
 53 72  1  0  0  0  0
 54 57  1  0  0  0  0
 54 72  1  0  0  0  0
 55 76  1  0  0  0  0
 56 71  1  0  0  0  0
 57 69  1  0  0  0  0
 58 66  1  0  0  0  0
 59 67  1  0  0  0  0
 60 67  1  0  0  0  0
 61 67  1  0  0  0  0
 62 78  1  0  0  0  0
 63 86  1  0  0  0  0
 64 87  1  0  0  0  0
 65 67  1  0  0  0  0
 65 77  1  0  0  0  0
 66 78  1  0  0  0  0
 68 69  1  0  0  0  0
M  CHG  1  78   1
M  ISO  4  43 100  64 101  75 100  87 101
M  END
> <Batch ID>
0112

> <Smiles>
C=CC1=C([101CH2:1][101O:1]c2ccc3c(c2)CN(C(=O)C(NC(=O)C(C)NC)C(C)(C)C)C(C(=O)NC2CCCc4ccccc42)C3)C(=O)CCN1c1cc([100NH:0][100C:0](=O)N2CCCC(n3nc(-c4ccc(Oc5ccc(F)cc5F)cc4)c(C(N)=O)c3N)C2)cc(OC)c1

> <Shape>
0.288

> <Color>
0.099

> <Negative vol penalty>
0.000

$$$$

  -OEChem-04052301313D

 87 96  0     1  0  0  0  0  0999 V2000
  -26.2245  -22.8346   14.7431 C   0  0  0  0  0  0  0  0  0  0  0  0
  -25.2659  -23.4799   15.5178 C   0  0  0  0  0  0  0  0  0  0  0  0
  -23.5627  -13.5801   20.1694 C   0  0  0  0  0  0  0  0  0  0  0  0
  -25.1485  -14.5611   21.7056 C   0  0  0  0  0  0  0  0  0  0  0  0
  -27.4689  -22.5256   15.2906 C   0  0  0  0  0  0  0  0  0  0  0  0
  -25.5510  -23.8156   16.8409 C   0  0  0  0  0  0  0  0  0  0  0  0
  -24.0759  -28.5160   18.0136 C   0  0  0  0  0  0  0  0  0  0  0  0
  -24.4945  -12.5977   19.8347 C   0  0  0  0  0  0  0  0  0  0  0  0
  -26.0804  -13.5786   21.3710 C   0  0  0  0  0  0  0  0  0  0  0  0
  -22.7186  -28.7137   18.2635 C   0  0  0  0  0  0  0  0  0  0  0  0
  -28.2368  -12.9474   18.8446 C   0  0  0  0  0  0  0  0  0  0  0  0
  -29.5487  -13.3543   18.6021 C   0  0  0  0  0  0  0  0  0  0  0  0
  -20.0463  -27.2092   22.2629 C   0  0  0  0  0  0  0  0  0  0  0  0
  -23.1529  -28.6551   20.6356 C   0  0  0  0  0  0  0  0  0  0  0  0
  -30.3187  -11.9498   20.4109 C   0  0  0  0  0  0  0  0  0  0  0  0
  -23.8897  -14.5619   21.1048 C   0  0  0  0  0  0  0  0  0  0  0  0
  -20.5427  -26.4704   23.3755 C   0  0  0  0  0  0  0  0  0  0  0  0
  -21.6508  -15.3833   22.0106 C   0  0  0  0  0  0  0  0  0  0  0  0
  -27.7728  -22.8663   16.6180 C   0  0  0  0  0  0  0  0  0  0  0  0
  -24.9818  -28.3752   19.0747 C   0  0  0  0  0  0  0  0  0  0  0  0
  -26.8002  -23.5096   17.4070 C   0  0  0  0  0  0  0  0  0  0  0  0
  -24.5215  -28.4583   20.3966 C   0  0  0  0  0  0  0  0  0  0  0  0
  -25.7534  -12.5969   20.4355 C   0  0  0  0  0  0  0  0  0  0  0  0
  -22.2565  -28.7804   19.5746 C   0  0  0  0  0  0  0  0  0  0  0  0
  -27.9658  -12.0418   19.8703 C   0  0  0  0  0  0  0  0  0  0  0  0
  -30.5897  -12.8555   19.3852 C   0  0  0  0  0  0  0  0  0  0  0  0
  -29.0067  -11.5430   20.6534 C   0  0  0  0  0  0  0  0  0  0  0  0
  -22.9277  -15.5774   21.4505 C   0  0  0  0  0  0  0  0  0  0  0  0
  -20.2659  -25.1252   23.2684 C   0  0  0  0  0  0  0  0  0  0  0  0
  -21.1394  -16.6507   22.1468 C   0  0  0  0  0  0  0  0  0  0  0  0
  -19.4092  -26.4003   21.3475 C   0  0  0  0  0  0  0  0  0  0  0  0
  -18.1432  -25.7965   19.2353 C   0  0  0  0  0  0  0  0  0  0  0  0
  -21.2531  -27.0379   24.4924 C   0  0  0  0  0  0  0  0  0  0  0  0
  -20.9864  -14.1662   22.3752 C   0  0  0  0  0  0  0  0  0  0  0  0
  -26.9345  -26.0714   20.0664 C   0  0  0  0  0  0  0  0  0  0  0  0
  -27.9060  -28.3378   22.1740 C   0  0  0  0  0  0  0  0  0  0  0  0
  -27.1881  -31.2036   23.8823 C   0  0  0  0  0  0  0  0  0  0  0  0
  -21.5217  -21.8246   23.5772 C   0  0  0  0  0  0  0  0  0  0  0  0
  -29.1148  -22.4694   17.1804 C   0  0  0  0  0  0  0  0  0  0  0  0
  -26.4467  -28.1892   18.7885 C   0  0  0  0  0  0  0  0  0  0  0  0
  -25.4562  -28.3335   21.5710 C   0  0  0  0  0  0  0  0  0  0  0  0
  -17.5981  -26.5788   18.0639 C   0  0  0  0  0  0  0  0  0  0  0  0
  -29.4711  -23.1946   18.4755 C   0  0  0  0  0  0  0  0  0  0  0  0
  -17.5508  -28.0037   18.5820 C   0  0  0  0  0  0  0  0  0  0  0  0
  -22.7698  -21.0818   20.3581 C   0  0  0  0  0  0  0  0  0  0  0  0
  -28.2878  -23.1808   19.4380 C   0  0  0  0  0  0  0  0  0  0  0  0
  -22.8282  -19.5554   20.4010 C   0  0  0  0  0  0  0  0  0  0  0  0
  -23.2065  -21.7109   21.6824 C   0  0  0  0  0  0  0  0  0  0  0  0
  -22.5329  -19.6668   22.9034 C   0  0  0  0  0  0  0  0  0  0  0  0
  -27.0806  -23.9123   18.8386 C   0  0  1  0  0  0  0  0  0  0  0  0
  -27.2044  -27.5446   19.9451 C   0  0  1  0  0  0  0  0  0  0  0  0
  -22.0418  -19.0084   21.6049 C   0  0  2  0  0  0  0  0  0  0  0  0
  -18.7138  -28.0699   19.5656 C   0  0  2  0  0  0  0  0  0  0  0  0
  -28.1651  -32.7948   25.5590 C   0  0  0  0  0  0  0  0  0  0  0  0
  -27.3608  -26.3233   24.3998 C   0  0  0  0  0  0  0  0  0  0  0  0
  -27.4294  -28.2173   26.0357 C   0  0  0  0  0  0  0  0  0  0  0  0
  -29.4551  -27.6587   24.6914 C   0  0  0  0  0  0  0  0  0  0  0  0
  -23.0175  -23.8613   23.7156 C   0  0  0  0  0  0  0  0  0  0  0  0
  -27.0530  -33.4698   21.9835 C   0  0  0  0  0  0  0  0  0  0  0  0
  -20.6044  -24.0263   24.2012 C   0  0  0  0  0  0  0  0  0  0  0  0
  -20.0113  -28.4647   18.8566 C   0  0  0  0  0  0  0  0  0  1  0  0
  -27.4817  -28.7615   23.5594 C   0  0  1  0  0  0  0  0  0  0  0  0
  -27.9809  -32.4827   24.0820 C   0  0  2  0  0  0  0  0  0  0  0  0
  -27.9136  -27.7406   24.6496 C   0  0  0  0  0  0  0  0  0  0  0  0
  -23.2100  -16.8666   21.2448 N   0  0  0  0  0  0  0  0  0  0  0  0
  -22.1033  -17.4940   21.6779 N   0  0  0  0  0  0  0  0  0  0  0  0
  -18.7719  -26.7137   20.1040 N   0  0  0  0  0  0  0  0  0  0  0  0
  -26.8784  -28.1464   21.2396 N   0  0  0  0  0  0  0  0  0  0  0  0
  -22.4656  -21.1272   22.8090 N   0  0  0  0  0  0  0  0  0  0  0  0
  -19.9636  -17.1150   22.6205 N   0  0  0  0  0  0  0  0  0  0  0  0
  -21.6552  -12.9521   22.1681 N   0  0  0  0  0  0  0  0  0  0  0  0
  -27.2584  -25.3452   18.9363 N   0  0  0  0  0  0  0  0  0  0  0  0
  -28.0130  -30.1060   23.7557 N   0  0  0  0  0  0  0  0  0  0  0  0
  -21.7108  -23.2066   23.7276 N   0  0  0  0  0  0  0  0  0  0  0  0
  -27.2797  -33.6319   23.4428 N   0  3  0  0  0  0  0  0  0  0  0  0
  -18.0357  -24.5811   19.3124 O   0  0  0  0  0  0  0  0  0  0  0  0
  -21.5100  -28.2481   24.6011 O   0  0  0  0  0  0  0  0  0  0  0  0
  -19.8274  -14.1547   22.8547 O   0  0  0  0  0  0  0  0  0  0  0  0
  -26.4683  -25.6264   21.1086 O   0  0  0  0  0  0  0  0  0  0  0  0
  -29.1056  -28.1893   21.9278 O   0  0  0  0  0  0  0  0  0  0  0  0
  -25.9599  -31.1800   23.8462 O   0  0  0  0  0  0  0  0  0  0  0  0
  -20.5657  -21.2440   24.1073 O   0  0  0  0  0  0  0  0  0  0  0  0
  -26.6628  -11.6382   20.1094 O   0  0  0  0  0  0  0  0  0  0  0  0
  -20.9321  -28.9727   19.8213 O   0  0  0  0  0  0  0  0  0  1  0  0
  -31.8497  -13.2451   19.1511 F   0  0  0  0  0  0  0  0  0  0  0  0
  -28.7527  -10.6718   21.6395 F   0  0  0  0  0  0  0  0  0  0  0  0
  -19.4111  -24.7576   21.8309 S   0  0  0  0  0  0  0  0  0  0  0  0
  1  2  1  0  0  0  0
  1  5  2  0  0  0  0
  2  6  2  0  0  0  0
  3  8  2  0  0  0  0
  3 16  1  0  0  0  0
  4  9  1  0  0  0  0
  4 16  2  0  0  0  0
  5 19  1  0  0  0  0
  6 21  1  0  0  0  0
  7 10  2  0  0  0  0
  7 20  1  0  0  0  0
  8 23  1  0  0  0  0
  9 23  2  0  0  0  0
 10 24  1  0  0  0  0
 11 12  2  0  0  0  0
 11 25  1  0  0  0  0
 12 26  1  0  0  0  0
 13 17  1  0  0  0  0
 13 31  2  0  0  0  0
 14 22  1  0  0  0  0
 14 24  2  0  0  0  0
 15 26  2  0  0  0  0
 15 27  1  0  0  0  0
 16 28  1  0  0  0  0
 17 29  2  0  0  0  0
 17 33  1  0  0  0  0
 18 28  1  0  0  0  0
 18 30  2  0  0  0  0
 18 34  1  0  0  0  0
 19 21  2  0  0  0  0
 19 39  1  0  0  0  0
 20 22  2  0  0  0  0
 20 40  1  0  0  0  0
 21 50  1  0  0  0  0
 22 41  1  0  0  0  0
 23 83  1  0  0  0  0
 24 84  1  0  0  0  0
 25 27  2  0  0  0  0
 25 83  1  0  0  0  0
 26 85  1  0  0  0  0
 27 86  1  0  0  0  0
 28 65  2  0  0  0  0
 29 60  1  0  0  0  0
 29 87  1  0  0  0  0
 30 66  1  0  0  0  0
 30 70  1  0  0  0  0
 31 67  1  0  0  0  0
 31 87  1  0  0  0  0
 32 42  1  0  0  0  0
 32 67  1  0  0  0  0
 32 76  2  0  0  0  0
 33 77  2  0  0  0  0
 34 71  1  0  0  0  0
 34 78  2  0  0  0  0
 35 51  1  0  0  0  0
 35 72  1  0  0  0  0
 35 79  2  0  0  0  0
 36 62  1  0  0  0  0
 36 68  1  0  0  0  0
 36 80  2  0  0  0  0
 37 63  1  0  0  0  0
 37 73  1  0  0  0  0
 37 81  2  0  0  0  0
 38 69  1  0  0  0  0
 38 74  1  0  0  0  0
 38 82  2  0  0  0  0
 39 43  1  0  0  0  0
 40 51  1  0  0  0  0
 41 68  1  0  0  0  0
 42 44  1  0  0  0  0
 43 46  1  0  0  0  0
 44 53  1  0  0  0  0
 45 47  1  0  0  0  0
 45 48  1  0  0  0  0
 46 50  1  0  0  0  0
 47 52  1  0  0  0  0
 48 69  1  0  0  0  0
 49 52  1  0  0  0  0
 49 69  1  0  0  0  0
 50 72  1  0  0  0  0
 51 68  1  0  0  0  0
 52 66  1  0  0  0  0
 53 61  1  0  0  0  0
 53 67  1  0  0  0  0
 54 63  1  0  0  0  0
 55 64  1  0  0  0  0
 56 64  1  0  0  0  0
 57 64  1  0  0  0  0
 58 74  1  0  0  0  0
 59 75  1  0  0  0  0
 60 74  1  0  0  0  0
 61 84  1  0  0  0  0
 62 64  1  0  0  0  0
 62 73  1  0  0  0  0
 63 75  1  0  0  0  0
 65 66  1  0  0  0  0
M  CHG  1  75   1
M  ISO  4  38 100  61 101  74 100  84 101
M  END
> <Batch ID>
0112

> <Smiles>
CNC(C)C(=O)NC(C(=O)N1Cc2cc([101O:1][101CH2:1]C3CCC(=O)N3c3cc(C=O)c(C[100N:0](C)[100C:0](=O)N4CCCC(n5nc(-c6ccc(Oc7ccc(F)cc7F)cc6)c(C(N)=O)c5N)C4)s3)ccc2CC1C(=O)NC1CCCc2ccccc21)C(C)(C)C

> <Shape>
0.216

> <Color>
0.067

> <Negative vol penalty>
0.000

$$$$

  -OEChem-04052301313D

 84 92  0     1  0  0  0  0  0999 V2000
  -21.6940  -33.9331   24.6633 C   0  0  0  0  0  0  0  0  0  0  0  0
  -22.8074  -33.1584   24.3540 C   0  0  0  0  0  0  0  0  0  0  0  0
  -26.9233  -12.8605   20.9121 C   0  0  0  0  0  0  0  0  0  0  0  0
  -27.2083  -12.8038   18.5136 C   0  0  0  0  0  0  0  0  0  0  0  0
  -31.9147  -22.9081   16.3987 C   0  0  0  0  0  0  0  0  0  0  0  0
  -20.4310  -33.3453   24.7193 C   0  0  0  0  0  0  0  0  0  0  0  0
  -22.6585  -31.7951   24.1015 C   0  0  0  0  0  0  0  0  0  0  0  0
  -25.2826  -30.2722   20.0469 C   0  0  0  0  0  0  0  0  0  0  0  0
  -26.4045  -11.5661   20.8811 C   0  0  0  0  0  0  0  0  0  0  0  0
  -26.6896  -11.5093   18.4826 C   0  0  0  0  0  0  0  0  0  0  0  0
  -31.9369  -23.8779   17.4010 C   0  0  0  0  0  0  0  0  0  0  0  0
  -26.6545  -30.0847   20.2099 C   0  0  0  0  0  0  0  0  0  0  0  0
  -24.6705   -8.4104   21.3894 C   0  0  0  0  0  0  0  0  0  0  0  0
  -23.5229   -8.1518   22.1389 C   0  0  0  0  0  0  0  0  0  0  0  0
  -26.2994  -27.7074   20.4130 C   0  0  0  0  0  0  0  0  0  0  0  0
  -22.3181   -9.8169   20.8688 C   0  0  0  0  0  0  0  0  0  0  0  0
  -27.3251  -13.4794   19.7284 C   0  0  0  0  0  0  0  0  0  0  0  0
  -30.8625  -21.9945   16.3355 C   0  0  0  0  0  0  0  0  0  0  0  0
  -29.2097  -15.1889   19.9110 C   0  0  0  0  0  0  0  0  0  0  0  0
  -20.2652  -31.9761   24.4579 C   0  0  0  0  0  0  0  0  0  0  0  0
  -24.4062  -29.1779   20.0766 C   0  0  0  0  0  0  0  0  0  0  0  0
  -21.3922  -31.1882   24.1554 C   0  0  0  0  0  0  0  0  0  0  0  0
  -24.9171  -27.8833   20.2475 C   0  0  0  0  0  0  0  0  0  0  0  0
  -29.8327  -22.0506   17.2746 C   0  0  0  0  0  0  0  0  0  0  0  0
  -26.2877  -10.8905   19.6663 C   0  0  0  0  0  0  0  0  0  0  0  0
  -27.1628  -28.8025   20.3959 C   0  0  0  0  0  0  0  0  0  0  0  0
  -24.6419   -9.3723   20.3795 C   0  0  0  0  0  0  0  0  0  0  0  0
  -30.9071  -23.9341   18.3401 C   0  0  0  0  0  0  0  0  0  0  0  0
  -22.3468   -8.8550   21.8787 C   0  0  0  0  0  0  0  0  0  0  0  0
  -23.4657  -10.0755   20.1193 C   0  0  0  0  0  0  0  0  0  0  0  0
  -29.8550  -23.0204   18.2769 C   0  0  0  0  0  0  0  0  0  0  0  0
  -27.8605  -14.8167   19.7597 C   0  0  0  0  0  0  0  0  0  0  0  0
  -29.1931  -16.5619   19.8758 C   0  0  0  0  0  0  0  0  0  0  0  0
  -31.8226  -20.0819   15.1374 C   0  0  0  0  0  0  0  0  0  0  0  0
  -30.8741  -20.9954   15.2734 C   0  0  0  0  0  0  0  0  0  0  0  0
  -30.2389  -27.0924   19.9195 C   0  0  0  0  0  0  0  0  0  0  0  0
  -29.1543  -27.8283   19.6506 C   0  0  0  0  0  0  0  0  0  1  0  0
  -30.3739  -14.3671   20.0692 C   0  0  0  0  0  0  0  0  0  0  0  0
  -21.9817  -28.2955   21.9333 C   0  0  0  0  0  0  0  0  0  0  0  0
  -21.6689  -25.9300   19.7358 C   0  0  0  0  0  0  0  0  0  0  0  0
  -23.1266  -24.0036   17.3252 C   0  0  0  0  0  0  0  0  0  0  0  0
  -27.4407  -21.3565   17.6523 C   0  0  0  0  0  0  0  0  0  0  0  0
  -18.8866  -31.3761   24.5767 C   0  0  0  0  0  0  0  0  0  0  0  0
  -22.9317  -29.3940   19.8725 C   0  0  0  0  0  0  0  0  0  0  0  0
  -24.0207  -26.6731   20.2669 C   0  0  0  0  0  0  0  0  0  0  0  0
  -18.7634  -29.9995   23.9284 C   0  0  0  0  0  0  0  0  0  0  0  0
  -25.3198  -19.8152   20.0613 C   0  0  0  0  0  0  0  0  0  0  0  0
  -19.9389  -29.1137   24.3290 C   0  0  0  0  0  0  0  0  0  0  0  0
  -25.9027  -18.4080   20.2101 C   0  0  0  0  0  0  0  0  0  0  0  0
  -25.4029  -20.3141   18.6198 C   0  0  0  0  0  0  0  0  0  0  0  0
  -27.3224  -18.8386   18.1641 C   0  0  0  0  0  0  0  0  0  0  0  0
  -21.2679  -29.7110   23.8510 C   0  0  1  0  0  0  0  0  0  0  0  0
  -22.0783  -28.2611   20.4342 C   0  0  1  0  0  0  0  0  0  0  0  0
  -27.3200  -18.3189   19.6110 C   0  0  2  0  0  0  0  0  0  0  0  0
  -22.6279  -22.1298   15.7323 C   0  0  0  0  0  0  0  0  0  0  0  0
  -21.7769  -23.9402   22.0465 C   0  0  0  0  0  0  0  0  0  0  0  0
  -22.2313  -22.1315   20.3760 C   0  0  0  0  0  0  0  0  0  0  0  0
  -20.0863  -23.4015   20.2840 C   0  0  0  0  0  0  0  0  0  0  0  0
  -23.7505  -25.6845   14.9706 C   0  0  0  0  0  0  0  0  0  0  0  0
  -30.9324  -26.2446   18.9026 C   0  0  0  0  0  0  0  0  0  0  0  0
  -22.2309  -24.5380   19.5761 C   0  0  1  0  0  0  0  0  0  0  0  0
  -22.6798  -23.6379   15.9213 C   0  0  2  0  0  0  0  0  0  0  0  0
  -21.5983  -23.5256   20.5723 C   0  0  0  0  0  0  0  0  0  0  0  0
  -27.0461  -15.8683   19.6376 N   0  0  0  0  0  0  0  0  0  0  0  0
  -27.8859  -16.9148   19.7122 N   0  0  0  0  0  0  0  0  0  0  0  0
  -22.5858  -26.9369   20.0694 N   0  0  0  0  0  0  0  0  0  0  0  0
  -26.7753  -20.2038   18.1207 N   0  0  0  0  0  0  0  0  0  0  0  0
  -30.1694  -17.4896   19.9691 N   0  0  0  0  0  0  0  0  0  0  0  0
  -30.2120  -12.9750   20.0836 N   0  0  0  0  0  0  0  0  0  0  0  0
  -28.7521  -21.1350   17.2332 N   0  0  0  0  0  0  0  0  0  0  0  0
  -21.4512  -29.4682   22.4361 N   0  0  0  0  0  0  0  0  0  0  0  0
  -22.0534  -24.1848   18.1718 N   0  0  0  0  0  0  0  0  0  0  0  0
  -23.6200  -24.2057   14.9140 N   0  3  0  0  0  0  0  0  0  0  0  0
  -31.5215  -14.8533   20.2105 O   0  0  0  0  0  0  0  0  0  0  0  0
  -22.3591  -27.3290   22.5854 O   0  0  0  0  0  0  0  0  0  0  0  0
  -20.4620  -26.1183   19.5638 O   0  0  0  0  0  0  0  0  0  0  0  0
  -24.3094  -24.1137   17.6404 O   0  0  0  0  0  0  0  0  0  0  0  0
  -26.8970  -22.4639   17.6505 O   0  0  0  0  0  0  0  0  0  0  0  0
  -25.7818   -9.6273   19.6357 O   0  0  0  0  0  0  0  0  0  0  0  0
  -28.5014  -28.6168   20.5559 O   0  0  0  0  0  0  0  0  0  1  0  0
  -30.9312  -24.8871   19.3246 O   0  0  0  0  0  0  0  0  0  0  0  0
  -21.2444   -8.6055   22.5975 F   0  0  0  0  0  0  0  0  0  0  0  0
  -23.4318  -10.9999   19.1496 F   0  0  0  0  0  0  0  0  0  0  0  0
  -28.8674  -23.0811   19.1831 F   0  0  0  0  0  0  0  0  0  0  0  0
  1  2  1  0  0  0  0
  1  6  2  0  0  0  0
  2  7  2  0  0  0  0
  3  9  2  0  0  0  0
  3 17  1  0  0  0  0
  4 10  1  0  0  0  0
  4 17  2  0  0  0  0
  5 11  2  0  0  0  0
  5 18  1  0  0  0  0
  6 20  1  0  0  0  0
  7 22  1  0  0  0  0
  8 12  2  0  0  0  0
  8 21  1  0  0  0  0
  9 25  1  0  0  0  0
 10 25  2  0  0  0  0
 11 28  1  0  0  0  0
 12 26  1  0  0  0  0
 13 14  2  0  0  0  0
 13 27  1  0  0  0  0
 14 29  1  0  0  0  0
 15 23  1  0  0  0  0
 15 26  2  0  0  0  0
 16 29  2  0  0  0  0
 16 30  1  0  0  0  0
 17 32  1  0  0  0  0
 18 24  2  0  0  0  0
 18 35  1  0  0  0  0
 19 32  1  0  0  0  0
 19 33  2  0  0  0  0
 19 38  1  0  0  0  0
 20 22  2  0  0  0  0
 20 43  1  0  0  0  0
 21 23  2  0  0  0  0
 21 44  1  0  0  0  0
 22 52  1  0  0  0  0
 23 45  1  0  0  0  0
 24 31  1  0  0  0  0
 24 70  1  0  0  0  0
 25 79  1  0  0  0  0
 26 80  1  0  0  0  0
 27 30  2  0  0  0  0
 27 79  1  0  0  0  0
 28 31  2  0  0  0  0
 28 81  1  0  0  0  0
 29 82  1  0  0  0  0
 30 83  1  0  0  0  0
 31 84  1  0  0  0  0
 32 64  2  0  0  0  0
 33 65  1  0  0  0  0
 33 68  1  0  0  0  0
 34 35  2  0  0  0  0
 36 37  2  0  0  0  0
 36 60  1  0  0  0  0
 37 80  1  0  0  0  0
 38 69  1  0  0  0  0
 38 74  2  0  0  0  0
 39 53  1  0  0  0  0
 39 71  1  0  0  0  0
 39 75  2  0  0  0  0
 40 61  1  0  0  0  0
 40 66  1  0  0  0  0
 40 76  2  0  0  0  0
 41 62  1  0  0  0  0
 41 72  1  0  0  0  0
 41 77  2  0  0  0  0
 42 67  1  0  0  0  0
 42 70  1  0  0  0  0
 42 78  2  0  0  0  0
 43 46  1  0  0  0  0
 44 53  1  0  0  0  0
 45 66  1  0  0  0  0
 46 48  1  0  0  0  0
 47 49  1  0  0  0  0
 47 50  1  0  0  0  0
 48 52  1  0  0  0  0
 49 54  1  0  0  0  0
 50 67  1  0  0  0  0
 51 54  1  0  0  0  0
 51 67  1  0  0  0  0
 52 71  1  0  0  0  0
 53 66  1  0  0  0  0
 54 65  1  0  0  0  0
 55 62  1  0  0  0  0
 56 63  1  0  0  0  0
 57 63  1  0  0  0  0
 58 63  1  0  0  0  0
 59 73  1  0  0  0  0
 60 81  1  0  0  0  0
 61 63  1  0  0  0  0
 61 72  1  0  0  0  0
 62 73  1  0  0  0  0
 64 65  1  0  0  0  0
M  CHG  1  73   1
M  ISO  4  37 101  42 100  70 100  80 101
M  END
> <Batch ID>
0112

> <Smiles>
C=Cc1ccc(OCC=[101CH:1][101O:1]c2ccc3c(c2)CN(C(=O)C(NC(=O)C(C)NC)C(C)(C)C)C(C(=O)NC2CCCc4ccccc42)C3)c(F)c1[100NH:0][100C:0](=O)N1CCCC(n2nc(-c3ccc(Oc4ccc(F)cc4F)cc3)c(C(N)=O)c2N)C1

> <Shape>
0.248

> <Color>
0.102

> <Negative vol penalty>
0.000

$$$$

  -OEChem-04052301313D

 84 92  0     1  0  0  0  0  0999 V2000
  -19.9092  -12.4222   18.6615 C   0  0  0  0  0  0  0  0  0  0  0  0
  -20.4034  -13.6775   18.3217 C   0  0  0  0  0  0  0  0  0  0  0  0
  -24.0306  -32.5962   23.5959 C   0  0  0  0  0  0  0  0  0  0  0  0
  -25.7656  -31.0339   24.2173 C   0  0  0  0  0  0  0  0  0  0  0  0
  -20.5391  -11.6715   19.6533 C   0  0  0  0  0  0  0  0  0  0  0  0
  -21.5271  -14.1832   18.9742 C   0  0  0  0  0  0  0  0  0  0  0  0
  -27.2619  -18.3188   17.8231 C   0  0  0  0  0  0  0  0  0  0  0  0
  -24.1962  -33.2629   24.8099 C   0  0  0  0  0  0  0  0  0  0  0  0
  -25.9312  -31.7006   25.4313 C   0  0  0  0  0  0  0  0  0  0  0  0
  -27.9147  -19.4284   18.3585 C   0  0  0  0  0  0  0  0  0  0  0  0
  -26.3511  -35.4966   26.1514 C   0  0  0  0  0  0  0  0  0  0  0  0
  -26.4019  -36.8902   26.1240 C   0  0  0  0  0  0  0  0  0  0  0  0
  -23.5210  -22.0633   20.8134 C   0  0  0  0  0  0  0  0  0  0  0  0
  -25.4196  -20.7013   21.4277 C   0  0  0  0  0  0  0  0  0  0  0  0
  -28.9677  -18.0090   20.0003 C   0  0  0  0  0  0  0  0  0  0  0  0
  -24.4647  -36.9892   27.5643 C   0  0  0  0  0  0  0  0  0  0  0  0
  -24.8153  -31.4817   23.2996 C   0  0  0  0  0  0  0  0  0  0  0  0
  -24.1341  -20.8133   20.8977 C   0  0  0  0  0  0  0  0  0  0  0  0
  -25.3128  -31.0525   20.8347 C   0  0  0  0  0  0  0  0  0  0  0  0
  -21.6768  -12.1642   20.3117 C   0  0  0  0  0  0  0  0  0  0  0  0
  -27.4490  -17.0456   18.3801 C   0  0  0  0  0  0  0  0  0  0  0  0
  -22.1719  -13.4390   19.9767 C   0  0  0  0  0  0  0  0  0  0  0  0
  -28.3182  -16.8846   19.4686 C   0  0  0  0  0  0  0  0  0  0  0  0
  -24.1934  -23.2014   21.2588 C   0  0  0  0  0  0  0  0  0  0  0  0
  -25.1465  -32.8151   25.7276 C   0  0  0  0  0  0  0  0  0  0  0  0
  -28.7654  -19.2740   19.4491 C   0  0  0  0  0  0  0  0  0  0  0  0
  -25.3571  -34.8492   26.8853 C   0  0  0  0  0  0  0  0  0  0  0  0
  -26.0919  -21.8393   21.8732 C   0  0  0  0  0  0  0  0  0  0  0  0
  -25.4587  -37.6366   26.8304 C   0  0  0  0  0  0  0  0  0  0  0  0
  -24.4139  -35.5955   27.5917 C   0  0  0  0  0  0  0  0  0  0  0  0
  -25.4788  -23.0894   21.7888 C   0  0  0  0  0  0  0  0  0  0  0  0
  -24.6444  -30.7922   22.0460 C   0  0  0  0  0  0  0  0  0  0  0  0
  -24.7996  -30.1313   19.9546 C   0  0  0  0  0  0  0  0  0  0  0  0
  -23.5909  -18.4225   20.9650 C   0  0  0  0  0  0  0  0  0  0  0  0
  -23.4335  -19.6267   20.4325 C   0  0  0  0  0  0  0  0  0  0  0  0
  -26.3086  -32.0386   20.5321 C   0  0  0  0  0  0  0  0  0  0  0  0
  -25.5563  -14.9086   19.7781 C   0  0  0  0  0  0  0  0  0  0  0  0
  -28.2259  -13.0677   19.6957 C   0  0  0  0  0  0  0  0  0  0  0  0
  -31.6317  -12.9082   19.5494 C   0  0  0  0  0  0  0  0  0  0  0  0
  -22.2972  -24.7529   20.6725 C   0  0  0  0  0  0  0  0  0  0  0  0
  -22.2954  -11.3364   21.4101 C   0  0  0  0  0  0  0  0  0  0  0  0
  -26.7583  -15.8547   17.7741 C   0  0  0  0  0  0  0  0  0  0  0  0
  -28.5688  -15.5359   20.0905 C   0  0  0  0  0  0  0  0  0  0  0  0
  -23.7036  -11.7854   21.7918 C   0  0  0  0  0  0  0  0  0  0  0  0
  -20.8374  -27.5859   19.0850 C   0  0  0  0  0  0  0  0  0  0  0  0
  -23.7541  -13.3009   21.9575 C   0  0  0  0  0  0  0  0  0  0  0  0
  -21.7125  -28.7525   19.5491 C   0  0  0  0  0  0  0  0  0  0  0  0
  -20.6467  -26.5462   20.1879 C   0  0  0  0  0  0  0  0  0  0  0  0
  -22.7637  -27.2140   21.2564 C   0  0  0  0  0  0  0  0  0  0  0  0
  -23.4034  -14.0114   20.6446 C   0  0  1  0  0  0  0  0  0  0  0  0
  -26.6232  -14.6849   18.7440 C   0  0  1  0  0  0  0  0  0  0  0  0
  -23.0378  -28.2551   20.1589 C   0  0  2  0  0  0  0  0  0  0  0  0
  -33.5281  -11.2647   19.5364 C   0  0  0  0  0  0  0  0  0  0  0  0
  -27.8709  -12.6382   22.6956 C   0  0  0  0  0  0  0  0  0  0  0  0
  -30.2365  -11.8237   22.7883 C   0  0  0  0  0  0  0  0  0  0  0  0
  -28.5490  -10.5953   21.4223 C   0  0  0  0  0  0  0  0  0  0  0  0
  -32.5419  -13.8028   16.8791 C   0  0  0  0  0  0  0  0  0  0  0  0
  -29.7178  -21.7357   21.9279 C   0  0  0  0  0  0  0  0  0  0  0  0
  -29.6981  -20.3213   21.3698 C   0  0  0  0  0  0  0  0  0  1  0  0
  -28.3873  -22.4445   21.7289 C   0  0  0  0  0  0  0  0  0  0  0  0
  -29.3958  -12.8390   20.6219 C   0  0  1  0  0  0  0  0  0  0  0  0
  -32.5651  -12.0787   18.6862 C   0  0  2  0  0  0  0  0  0  0  0  0
  -29.0070  -11.9999   21.8717 C   0  0  0  0  0  0  0  0  0  0  0  0
  -23.7729  -29.7848   21.9480 N   0  0  0  0  0  0  0  0  0  0  0  0
  -23.8902  -29.4039   20.6645 N   0  0  0  0  0  0  0  0  0  0  0  0
  -27.8655  -14.4031   19.4663 N   0  0  0  0  0  0  0  0  0  0  0  0
  -21.9444  -26.1183   20.7150 N   0  0  0  0  0  0  0  0  0  0  0  0
  -25.0420  -29.8807   18.6504 N   0  0  0  0  0  0  0  0  0  0  0  0
  -26.7224  -32.9053   21.5529 N   0  0  0  0  0  0  0  0  0  0  0  0
  -23.5680  -24.4699   21.1720 N   0  0  0  0  0  0  0  0  0  0  0  0
  -24.5309  -13.9832   19.7378 N   0  0  0  0  0  0  0  0  0  0  0  0
  -30.4508  -12.2450   19.8079 N   0  0  0  0  0  0  0  0  0  0  0  0
  -33.3621  -12.9617   17.7884 N   0  3  0  0  0  0  0  0  0  0  0  0
  -26.8044  -32.1587   19.3862 O   0  0  0  0  0  0  0  0  0  0  0  0
  -25.6567  -15.8501   20.5560 O   0  0  0  0  0  0  0  0  0  0  0  0
  -27.6574  -12.0975   19.1886 O   0  0  0  0  0  0  0  0  0  0  0  0
  -31.9228  -14.0306   19.9568 O   0  0  0  0  0  0  0  0  0  0  0  0
  -21.5394  -23.9012   20.2010 O   0  0  0  0  0  0  0  0  0  0  0  0
  -25.3084  -33.4656   26.9122 O   0  0  0  0  0  0  0  0  0  0  0  0
  -29.4033  -20.3554   19.9740 O   0  0  0  0  0  0  0  0  0  1  0  0
  -27.3551  -21.7283   22.3933 O   0  0  0  0  0  0  0  0  0  0  0  0
  -25.5086  -38.9749   26.8052 F   0  0  0  0  0  0  0  0  0  0  0  0
  -23.4573  -34.9792   28.2995 F   0  0  0  0  0  0  0  0  0  0  0  0
  -26.1300  -24.1807   22.2180 F   0  0  0  0  0  0  0  0  0  0  0  0
  1  2  1  0  0  0  0
  1  5  2  0  0  0  0
  2  6  2  0  0  0  0
  3  8  2  0  0  0  0
  3 17  1  0  0  0  0
  4  9  1  0  0  0  0
  4 17  2  0  0  0  0
  5 20  1  0  0  0  0
  6 22  1  0  0  0  0
  7 10  2  0  0  0  0
  7 21  1  0  0  0  0
  8 25  1  0  0  0  0
  9 25  2  0  0  0  0
 10 26  1  0  0  0  0
 11 12  2  0  0  0  0
 11 27  1  0  0  0  0
 12 29  1  0  0  0  0
 13 18  1  0  0  0  0
 13 24  2  0  0  0  0
 14 18  2  0  0  0  0
 14 28  1  0  0  0  0
 15 23  1  0  0  0  0
 15 26  2  0  0  0  0
 16 29  2  0  0  0  0
 16 30  1  0  0  0  0
 17 32  1  0  0  0  0
 18 35  1  0  0  0  0
 19 32  1  0  0  0  0
 19 33  2  0  0  0  0
 19 36  1  0  0  0  0
 20 22  2  0  0  0  0
 20 41  1  0  0  0  0
 21 23  2  0  0  0  0
 21 42  1  0  0  0  0
 22 50  1  0  0  0  0
 23 43  1  0  0  0  0
 24 31  1  0  0  0  0
 24 70  1  0  0  0  0
 25 79  1  0  0  0  0
 26 80  1  0  0  0  0
 27 30  2  0  0  0  0
 27 79  1  0  0  0  0
 28 31  2  0  0  0  0
 28 81  1  0  0  0  0
 29 82  1  0  0  0  0
 30 83  1  0  0  0  0
 31 84  1  0  0  0  0
 32 64  2  0  0  0  0
 33 65  1  0  0  0  0
 33 68  1  0  0  0  0
 34 35  2  0  0  0  0
 36 69  1  0  0  0  0
 36 74  2  0  0  0  0
 37 51  1  0  0  0  0
 37 71  1  0  0  0  0
 37 75  2  0  0  0  0
 38 61  1  0  0  0  0
 38 66  1  0  0  0  0
 38 76  2  0  0  0  0
 39 62  1  0  0  0  0
 39 72  1  0  0  0  0
 39 77  2  0  0  0  0
 40 67  1  0  0  0  0
 40 70  1  0  0  0  0
 40 78  2  0  0  0  0
 41 44  1  0  0  0  0
 42 51  1  0  0  0  0
 43 66  1  0  0  0  0
 44 46  1  0  0  0  0
 45 47  1  0  0  0  0
 45 48  1  0  0  0  0
 46 50  1  0  0  0  0
 47 52  1  0  0  0  0
 48 67  1  0  0  0  0
 49 52  1  0  0  0  0
 49 67  1  0  0  0  0
 50 71  1  0  0  0  0
 51 66  1  0  0  0  0
 52 65  1  0  0  0  0
 53 62  1  0  0  0  0
 54 63  1  0  0  0  0
 55 63  1  0  0  0  0
 56 63  1  0  0  0  0
 57 73  1  0  0  0  0
 58 59  1  0  0  0  0
 58 60  1  0  0  0  0
 59 80  1  0  0  0  0
 60 81  1  0  0  0  0
 61 63  1  0  0  0  0
 61 72  1  0  0  0  0
 62 73  1  0  0  0  0
 64 65  1  0  0  0  0
M  CHG  1  73   1
M  ISO  4  40 100  59 101  70 100  80 101
M  END
> <Batch ID>
0112

> <Smiles>
C=Cc1cc([100NH:0][100C:0](=O)N2CCCC(n3nc(-c4ccc(Oc5ccc(F)cc5F)cc4)c(C(N)=O)c3N)C2)c(F)c(OCC[101CH2:1][101O:1]c2ccc3c(c2)CN(C(=O)C(NC(=O)C(C)NC)C(C)(C)C)C(C(=O)NC2CCCc4ccccc42)C3)c1

> <Shape>
0.230

> <Color>
0.062

> <Negative vol penalty>
0.000

$$$$

  -OEChem-04052301313D

 84 92  0     1  0  0  0  0  0999 V2000
  -27.8304  -30.6672   27.0001 C   0  0  0  0  0  0  0  0  0  0  0  0
  -27.6929  -29.4715   26.3024 C   0  0  0  0  0  0  0  0  0  0  0  0
  -24.6467  -13.1277   24.1529 C   0  0  0  0  0  0  0  0  0  0  0  0
  -23.9785  -15.1141   22.9509 C   0  0  0  0  0  0  0  0  0  0  0  0
  -26.9834  -31.7384   26.7189 C   0  0  0  0  0  0  0  0  0  0  0  0
  -26.7076  -29.3459   25.3237 C   0  0  0  0  0  0  0  0  0  0  0  0
  -28.4278  -27.1289   21.1082 C   0  0  0  0  0  0  0  0  0  0  0  0
  -24.2470  -13.7185   25.3515 C   0  0  0  0  0  0  0  0  0  0  0  0
  -23.5788  -15.7049   24.1496 C   0  0  0  0  0  0  0  0  0  0  0  0
  -28.5715  -25.7424   21.1311 C   0  0  0  0  0  0  0  0  0  0  0  0
  -21.3526  -14.2895   27.0036 C   0  0  0  0  0  0  0  0  0  0  0  0
  -20.6056  -13.5146   27.8908 C   0  0  0  0  0  0  0  0  0  0  0  0
  -26.4778  -25.5119   19.9554 C   0  0  0  0  0  0  0  0  0  0  0  0
  -30.3989  -19.0398   18.9957 C   0  0  0  0  0  0  0  0  0  0  0  0
  -28.1241  -18.7205   19.7442 C   0  0  0  0  0  0  0  0  0  0  0  0
  -22.3181  -13.7892   29.5727 C   0  0  0  0  0  0  0  0  0  0  0  0
  -24.5125  -13.8255   22.9526 C   0  0  0  0  0  0  0  0  0  0  0  0
  -29.1436  -17.1123   18.2571 C   0  0  0  0  0  0  0  0  0  0  0  0
  -24.1404  -12.4293   20.8502 C   0  0  0  0  0  0  0  0  0  0  0  0
  -25.9934  -31.6291   25.7295 C   0  0  0  0  0  0  0  0  0  0  0  0
  -27.3007  -27.7180   20.5173 C   0  0  0  0  0  0  0  0  0  0  0  0
  -25.8457  -30.4162   25.0299 C   0  0  0  0  0  0  0  0  0  0  0  0
  -26.3234  -26.9063   19.9239 C   0  0  0  0  0  0  0  0  0  0  0  0
  -30.3203  -17.8613   18.2539 C   0  0  0  0  0  0  0  0  0  0  0  0
  -29.3008  -19.4695   19.7409 C   0  0  0  0  0  0  0  0  0  0  0  0
  -23.7130  -15.0071   25.3499 C   0  0  0  0  0  0  0  0  0  0  0  0
  -27.5951  -24.9335   20.5572 C   0  0  0  0  0  0  0  0  0  0  0  0
  -22.5825  -14.8141   27.4010 C   0  0  0  0  0  0  0  0  0  0  0  0
  -28.0454  -17.5419   19.0023 C   0  0  0  0  0  0  0  0  0  0  0  0
  -21.0882  -13.2645   29.1753 C   0  0  0  0  0  0  0  0  0  0  0  0
  -23.0652  -14.5640   28.6855 C   0  0  0  0  0  0  0  0  0  0  0  0
  -24.9257  -13.2159   21.7141 C   0  0  0  0  0  0  0  0  0  0  0  0
  -24.9894  -12.0947   19.8237 C   0  0  0  0  0  0  0  0  0  0  0  0
  -29.0269  -21.7353   19.8700 C   0  0  0  0  0  0  0  0  0  0  0  0
  -29.0559  -15.8784   17.4839 C   0  0  0  0  0  0  0  0  0  0  0  0
  -22.7664  -12.0362   20.9654 C   0  0  0  0  0  0  0  0  0  0  0  0
  -29.9696  -14.7425   17.7445 C   0  0  0  0  0  0  0  0  0  0  0  0
  -24.9210  -29.5498   21.5590 C   0  0  0  0  0  0  0  0  0  0  0  0
  -24.1506  -29.6660   18.4102 C   0  0  0  0  0  0  0  0  0  0  0  0
  -24.3354  -28.2148   15.3268 C   0  0  0  0  0  0  0  0  0  0  0  0
  -25.0706  -32.7984   25.4937 C   0  0  0  0  0  0  0  0  0  0  0  0
  -27.1736  -29.2162   20.4771 C   0  0  0  0  0  0  0  0  0  0  0  0
  -25.1045  -27.4900   19.2590 C   0  0  0  0  0  0  0  0  0  0  0  0
  -24.2966  -32.7085   24.1810 C   0  0  0  0  0  0  0  0  0  0  0  0
  -29.6079  -11.3539   18.8598 C   0  0  0  0  0  0  0  0  0  0  0  0
  -23.7032  -31.3142   24.0056 C   0  0  0  0  0  0  0  0  0  0  0  0
  -28.3138  -11.3859   19.6722 C   0  0  0  0  0  0  0  0  0  0  0  0
  -30.3838  -12.6602   18.9941 C   0  0  0  0  0  0  0  0  0  0  0  0
  -28.2901  -13.9103   19.4440 C   0  0  0  0  0  0  0  0  0  0  0  0
  -24.8050  -30.2494   23.9439 C   0  0  1  0  0  0  0  0  0  0  0  0
  -25.7337  -29.6893   20.3029 C   0  0  1  0  0  0  0  0  0  0  0  0
  -27.4654  -12.6182   19.3110 C   0  0  2  0  0  0  0  0  0  0  0  0
  -31.5129  -17.4254   17.4664 C   0  0  0  0  0  0  0  0  0  0  0  0
  -23.5754  -28.5242   12.9553 C   0  0  0  0  0  0  0  0  0  0  0  0
  -21.3494  -28.7410   19.1898 C   0  0  0  0  0  0  0  0  0  0  0  0
  -20.9476  -28.1619   16.7875 C   0  0  0  0  0  0  0  0  0  0  0  0
  -21.4091  -30.5253   17.4385 C   0  0  0  0  0  0  0  0  0  0  0  0
  -27.1187  -28.3737   14.3332 C   0  0  0  0  0  0  0  0  0  0  0  0
  -25.8175  -17.3419   19.8097 C   0  0  0  0  0  0  0  0  0  0  0  0
  -29.0622  -23.0618   20.5681 C   0  0  0  0  0  0  0  0  0  1  0  0
  -23.2895  -28.8360   17.4889 C   0  0  1  0  0  0  0  0  0  0  0  0
  -24.6830  -28.7860   13.9640 C   0  0  2  0  0  0  0  0  0  0  0  0
  -21.7708  -29.0547   17.7403 C   0  0  0  0  0  0  0  0  0  0  0  0
  -26.1774  -13.3717   21.2747 N   0  0  0  0  0  0  0  0  0  0  0  0
  -28.1845  -15.6946   16.5324 N   0  0  0  0  0  0  0  0  0  0  0  0
  -29.3811  -20.6566   20.4884 N   0  0  0  0  0  0  0  0  0  0  0  0
  -26.1851  -12.6782   20.1236 N   0  0  0  0  0  0  0  0  0  0  0  0
  -29.5397  -13.8111   18.6793 N   0  0  0  0  0  0  0  0  0  0  0  0
  -25.0225  -28.9599   19.2510 N   0  0  0  0  0  0  0  0  0  0  0  0
  -24.8223  -11.3611   18.7028 N   0  0  0  0  0  0  0  0  0  0  0  0
  -22.0396  -12.4674   22.0835 N   0  0  0  0  0  0  0  0  0  0  0  0
  -25.4309  -30.2448   22.6390 N   0  0  0  0  0  0  0  0  0  0  0  0
  -23.7220  -29.1513   16.1317 N   0  0  0  0  0  0  0  0  0  0  0  0
  -25.9406  -28.1728   13.4507 N   0  3  0  0  0  0  0  0  0  0  0  0
  -22.2046  -11.3101   20.1106 O   0  0  0  0  0  0  0  0  0  0  0  0
  -31.0127  -14.7470   17.1039 O   0  0  0  0  0  0  0  0  0  0  0  0
  -23.9057  -28.8637   21.5486 O   0  0  0  0  0  0  0  0  0  0  0  0
  -24.0583  -30.8957   18.3796 O   0  0  0  0  0  0  0  0  0  0  0  0
  -24.5801  -27.0530   15.6442 O   0  0  0  0  0  0  0  0  0  0  0  0
  -23.3227  -15.5839   26.5193 O   0  0  0  0  0  0  0  0  0  0  0  0
  -26.8862  -16.8252   19.0198 O   0  0  0  0  0  0  0  0  0  0  0  0
  -27.7326  -23.5798   20.5789 O   0  0  0  0  0  0  0  0  0  1  0  0
  -20.3700  -12.5217   30.0277 F   0  0  0  0  0  0  0  0  0  0  0  0
  -24.2455  -15.0664   29.0734 F   0  0  0  0  0  0  0  0  0  0  0  0
  1  2  1  0  0  0  0
  1  5  2  0  0  0  0
  2  6  2  0  0  0  0
  3  8  2  0  0  0  0
  3 17  1  0  0  0  0
  4  9  1  0  0  0  0
  4 17  2  0  0  0  0
  5 20  1  0  0  0  0
  6 22  1  0  0  0  0
  7 10  2  0  0  0  0
  7 21  1  0  0  0  0
  8 26  1  0  0  0  0
  9 26  2  0  0  0  0
 10 27  1  0  0  0  0
 11 12  2  0  0  0  0
 11 28  1  0  0  0  0
 12 30  1  0  0  0  0
 13 23  1  0  0  0  0
 13 27  2  0  0  0  0
 14 24  2  0  0  0  0
 14 25  1  0  0  0  0
 15 25  2  0  0  0  0
 15 29  1  0  0  0  0
 16 30  2  0  0  0  0
 16 31  1  0  0  0  0
 17 32  1  0  0  0  0
 18 24  1  0  0  0  0
 18 29  2  0  0  0  0
 18 35  1  0  0  0  0
 19 32  1  0  0  0  0
 19 33  2  0  0  0  0
 19 36  1  0  0  0  0
 20 22  2  0  0  0  0
 20 41  1  0  0  0  0
 21 23  2  0  0  0  0
 21 42  1  0  0  0  0
 22 50  1  0  0  0  0
 23 43  1  0  0  0  0
 24 53  1  0  0  0  0
 25 66  1  0  0  0  0
 26 80  1  0  0  0  0
 27 82  1  0  0  0  0
 28 31  2  0  0  0  0
 28 80  1  0  0  0  0
 29 81  1  0  0  0  0
 30 83  1  0  0  0  0
 31 84  1  0  0  0  0
 32 64  2  0  0  0  0
 33 67  1  0  0  0  0
 33 70  1  0  0  0  0
 34 60  1  0  0  0  0
 34 66  2  0  0  0  0
 35 37  1  0  0  0  0
 35 65  2  0  0  0  0
 36 71  1  0  0  0  0
 36 75  2  0  0  0  0
 37 68  1  0  0  0  0
 37 76  2  0  0  0  0
 38 51  1  0  0  0  0
 38 72  1  0  0  0  0
 38 77  2  0  0  0  0
 39 61  1  0  0  0  0
 39 69  1  0  0  0  0
 39 78  2  0  0  0  0
 40 62  1  0  0  0  0
 40 73  1  0  0  0  0
 40 79  2  0  0  0  0
 41 44  1  0  0  0  0
 42 51  1  0  0  0  0
 43 69  1  0  0  0  0
 44 46  1  0  0  0  0
 45 47  1  0  0  0  0
 45 48  1  0  0  0  0
 46 50  1  0  0  0  0
 47 52  1  0  0  0  0
 48 68  1  0  0  0  0
 49 52  1  0  0  0  0
 49 68  1  0  0  0  0
 50 72  1  0  0  0  0
 51 69  1  0  0  0  0
 52 67  1  0  0  0  0
 54 62  1  0  0  0  0
 55 63  1  0  0  0  0
 56 63  1  0  0  0  0
 57 63  1  0  0  0  0
 58 74  1  0  0  0  0
 59 81  1  0  0  0  0
 60 82  1  0  0  0  0
 61 63  1  0  0  0  0
 61 73  1  0  0  0  0
 62 74  1  0  0  0  0
 64 67  1  0  0  0  0
M  CHG  1  74   1
M  ISO  4  35 100  37 100  60 101  82 101
M  END
> <Batch ID>
0112

> <Smiles>
CNC(C)C(=O)NC(C(=O)N1Cc2cc([101O:1][101CH:1]=CNc3cc(C)c([100C:0](=N)[100C:0](=O)N4CCCC(n5nc(-c6ccc(Oc7ccc(F)cc7F)cc6)c(C(N)=O)c5N)C4)c(OC)c3)ccc2CC1C(=O)NC1CCCc2ccccc21)C(C)(C)C

> <Shape>
0.242

> <Color>
0.084

> <Negative vol penalty>
0.000

$$$$

  -OEChem-04052301313D

 85 93  0     1  0  0  0  0  0999 V2000
  -29.0967  -27.3809   17.9120 C   0  0  0  0  0  0  0  0  0  0  0  0
  -28.8828  -26.0707   18.3282 C   0  0  0  0  0  0  0  0  0  0  0  0
  -28.7460  -20.1909   21.6835 C   0  0  0  0  0  0  0  0  0  0  0  0
  -30.9468  -20.9281   21.0126 C   0  0  0  0  0  0  0  0  0  0  0  0
  -28.2675  -28.4021   18.3740 C   0  0  0  0  0  0  0  0  0  0  0  0
  -27.8401  -25.7812   19.2077 C   0  0  0  0  0  0  0  0  0  0  0  0
  -24.4074  -20.7105   19.3058 C   0  0  0  0  0  0  0  0  0  0  0  0
  -28.7712  -21.0877   22.7516 C   0  0  0  0  0  0  0  0  0  0  0  0
  -30.9720  -21.8249   22.0806 C   0  0  0  0  0  0  0  0  0  0  0  0
  -24.4646  -19.5539   20.0822 C   0  0  0  0  0  0  0  0  0  0  0  0
  -31.4662  -24.5644   24.4192 C   0  0  0  0  0  0  0  0  0  0  0  0
  -31.9144  -25.8611   24.1678 C   0  0  0  0  0  0  0  0  0  0  0  0
  -25.7212  -13.6292   20.3343 C   0  0  0  0  0  0  0  0  0  0  0  0
  -22.8132  -20.4820   21.5758 C   0  0  0  0  0  0  0  0  0  0  0  0
  -30.1368  -26.1637   22.5597 C   0  0  0  0  0  0  0  0  0  0  0  0
  -25.3543  -11.5573   21.1359 C   0  0  0  0  0  0  0  0  0  0  0  0
  -29.8338  -20.1111   20.8140 C   0  0  0  0  0  0  0  0  0  0  0  0
  -26.2769  -12.3330   20.4693 C   0  0  0  0  0  0  0  0  0  0  0  0
  -29.3309  -19.4259   18.4088 C   0  0  0  0  0  0  0  0  0  0  0  0
  -27.2082  -28.1235   19.2520 C   0  0  0  0  0  0  0  0  0  0  0  0
  -23.5592  -21.7678   19.6652 C   0  0  0  0  0  0  0  0  0  0  0  0
  -26.9968  -26.7999   19.6830 C   0  0  0  0  0  0  0  0  0  0  0  0
  -22.7451  -21.6499   20.8008 C   0  0  0  0  0  0  0  0  0  0  0  0
  -29.8842  -21.9047   22.9502 C   0  0  0  0  0  0  0  0  0  0  0  0
  -23.6696  -19.4407   21.2190 C   0  0  0  0  0  0  0  0  0  0  0  0
  -30.3533  -24.0673   23.7408 C   0  0  0  0  0  0  0  0  0  0  0  0
  -31.2497  -26.6608   23.2380 C   0  0  0  0  0  0  0  0  0  0  0  0
  -29.6886  -24.8670   22.8111 C   0  0  0  0  0  0  0  0  0  0  0  0
  -29.8085  -19.1845   19.7109 C   0  0  0  0  0  0  0  0  0  0  0  0
  -24.4759  -13.6061   20.9227 C   0  0  0  0  0  0  0  0  0  0  0  0
  -29.5272  -18.2392   17.7456 C   0  0  0  0  0  0  0  0  0  0  0  0
  -23.4000  -17.1236   21.3894 C   0  0  0  0  0  0  0  0  0  1  0  0
  -27.6005  -11.8516   19.9967 C   0  0  0  0  0  0  0  0  0  0  0  0
  -28.7610  -20.6163   17.8487 C   0  0  0  0  0  0  0  0  0  0  0  0
  -23.5111  -14.7205   21.0339 C   0  0  0  0  0  0  0  0  0  0  0  0
  -23.9287  -15.9527   21.7642 C   0  0  0  0  0  0  0  0  0  0  0  0
  -23.9885  -24.8092   20.4832 C   0  0  0  0  0  0  0  0  0  0  0  0
  -20.7468  -24.8854   20.3925 C   0  0  0  0  0  0  0  0  0  0  0  0
  -17.8019  -23.1726   20.5927 C   0  0  0  0  0  0  0  0  0  0  0  0
  -29.9159  -12.5760   19.5094 C   0  0  0  0  0  0  0  0  0  0  0  0
  -26.3678  -29.2675   19.7616 C   0  0  0  0  0  0  0  0  0  0  0  0
  -23.4893  -22.9977   18.8023 C   0  0  0  0  0  0  0  0  0  0  0  0
  -21.8028  -22.7481   21.2185 C   0  0  0  0  0  0  0  0  0  0  0  0
  -25.0535  -28.8217   20.3974 C   0  0  0  0  0  0  0  0  0  0  0  0
  -32.3762  -14.3844   17.7279 C   0  0  0  0  0  0  0  0  0  0  0  0
  -25.2914  -27.6592   21.3560 C   0  0  0  0  0  0  0  0  0  0  0  0
  -31.9473  -15.8440   17.9005 C   0  0  0  0  0  0  0  0  0  0  0  0
  -32.1294  -13.5668   18.9950 C   0  0  0  0  0  0  0  0  0  0  0  0
  -30.3408  -15.1017   19.7039 C   0  0  0  0  0  0  0  0  0  0  0  0
  -25.8609  -26.4424   20.6168 C   0  0  1  0  0  0  0  0  0  0  0  0
  -22.9689  -24.2224   19.5484 C   0  0  1  0  0  0  0  0  0  0  0  0
  -30.5039  -15.9503   18.4325 C   0  0  1  0  0  0  0  0  0  0  0  0
  -23.0403  -12.3563   23.5435 C   0  0  0  0  0  0  0  0  0  0  0  0
  -15.3166  -23.5121   20.5184 C   0  0  0  0  0  0  0  0  0  0  0  0
  -20.8189  -26.0149   23.2261 C   0  0  0  0  0  0  0  0  0  0  0  0
  -18.3911  -25.4425   23.4412 C   0  0  0  0  0  0  0  0  0  0  0  0
  -19.1353  -27.0860   21.7186 C   0  0  0  0  0  0  0  0  0  0  0  0
  -17.5179  -21.4289   18.2183 C   0  0  0  0  0  0  0  0  0  0  0  0
  -23.0775  -11.8881   22.0989 C   0  0  0  0  0  0  0  0  0  0  0  0
  -19.6432  -24.6311   21.3906 C   0  0  1  0  0  0  0  0  0  0  0  0
  -16.5652  -23.1891   19.7125 C   0  0  2  0  0  0  0  0  0  0  0  0
  -19.5162  -25.7735   22.4376 C   0  0  0  0  0  0  0  0  0  0  0  0
  -30.2730  -17.9421   19.8677 N   0  0  0  0  0  0  0  0  0  0  0  0
  -24.2636  -12.3417   21.4068 N   0  0  0  0  0  0  0  0  0  0  0  0
  -30.0882  -17.3921   18.6555 N   0  0  0  0  0  0  0  0  0  0  0  0
  -21.7751  -23.9334   20.3457 N   0  0  0  0  0  0  0  0  0  0  0  0
  -30.7386  -13.7131   19.4278 N   0  0  0  0  0  0  0  0  0  0  0  0
  -29.2727  -17.8481   16.4788 N   0  0  0  0  0  0  0  0  0  0  0  0
  -28.6321  -21.7453   18.6692 N   0  0  0  0  0  0  0  0  0  0  0  0
  -28.5931  -12.8262   19.8911 N   0  0  0  0  0  0  0  0  0  0  0  0
  -24.8121  -25.7516   19.8975 N   0  0  0  0  0  0  0  0  0  0  0  0
  -18.4327  -24.3986   20.6102 N   0  0  0  0  0  0  0  0  0  0  0  0
  -16.3745  -21.8618   19.0622 N   0  3  0  0  0  0  0  0  0  0  0  0
  -27.7556  -10.6547   19.7703 O   0  0  0  0  0  0  0  0  0  0  0  0
  -28.3622  -20.6720   16.6607 O   0  0  0  0  0  0  0  0  0  0  0  0
  -22.4095  -14.6075   20.5061 O   0  0  0  0  0  0  0  0  0  0  0  0
  -24.0243  -24.4358   21.6498 O   0  0  0  0  0  0  0  0  0  0  0  0
  -20.6948  -25.8879   19.6757 O   0  0  0  0  0  0  0  0  0  0  0  0
  -18.1693  -22.1732   21.2065 O   0  0  0  0  0  0  0  0  0  0  0  0
  -30.3140  -11.4409   19.2296 O   0  0  0  0  0  0  0  0  0  0  0  0
  -24.8643  -15.8470   22.7710 O   0  0  0  0  0  0  0  0  0  0  0  0
  -29.9091  -22.7800   23.9921 O   0  0  0  0  0  0  0  0  0  0  0  0
  -23.7240  -18.3132   21.9790 O   0  0  0  0  0  0  0  0  0  1  0  0
  -31.6794  -27.9065   22.9978 F   0  0  0  0  0  0  0  0  0  0  0  0
  -28.6182  -24.3954   22.1572 F   0  0  0  0  0  0  0  0  0  0  0  0
  1  2  1  0  0  0  0
  1  5  2  0  0  0  0
  2  6  2  0  0  0  0
  3  8  2  0  0  0  0
  3 17  1  0  0  0  0
  4  9  1  0  0  0  0
  4 17  2  0  0  0  0
  5 20  1  0  0  0  0
  6 22  1  0  0  0  0
  7 10  2  0  0  0  0
  7 21  1  0  0  0  0
  8 24  1  0  0  0  0
  9 24  2  0  0  0  0
 10 25  1  0  0  0  0
 11 12  2  0  0  0  0
 11 26  1  0  0  0  0
 12 27  1  0  0  0  0
 13 18  1  0  0  0  0
 13 30  2  0  0  0  0
 14 23  1  0  0  0  0
 14 25  2  0  0  0  0
 15 27  2  0  0  0  0
 15 28  1  0  0  0  0
 16 18  2  0  0  0  0
 16 64  1  0  0  0  0
 17 29  1  0  0  0  0
 18 33  1  0  0  0  0
 19 29  1  0  0  0  0
 19 31  2  0  0  0  0
 19 34  1  0  0  0  0
 20 22  2  0  0  0  0
 20 41  1  0  0  0  0
 21 23  2  0  0  0  0
 21 42  1  0  0  0  0
 22 50  1  0  0  0  0
 23 43  1  0  0  0  0
 24 82  1  0  0  0  0
 25 83  1  0  0  0  0
 26 28  2  0  0  0  0
 26 82  1  0  0  0  0
 27 84  1  0  0  0  0
 28 85  1  0  0  0  0
 29 63  2  0  0  0  0
 30 35  1  0  0  0  0
 30 64  1  0  0  0  0
 31 65  1  0  0  0  0
 31 68  1  0  0  0  0
 32 36  2  0  0  0  0
 32 83  1  0  0  0  0
 33 70  1  0  0  0  0
 33 74  2  0  0  0  0
 34 69  1  0  0  0  0
 34 75  2  0  0  0  0
 35 36  1  0  0  0  0
 35 76  2  0  0  0  0
 36 81  1  0  0  0  0
 37 51  1  0  0  0  0
 37 71  1  0  0  0  0
 37 77  2  0  0  0  0
 38 60  1  0  0  0  0
 38 66  1  0  0  0  0
 38 78  2  0  0  0  0
 39 61  1  0  0  0  0
 39 72  1  0  0  0  0
 39 79  2  0  0  0  0
 40 67  1  0  0  0  0
 40 70  1  0  0  0  0
 40 80  2  0  0  0  0
 41 44  1  0  0  0  0
 42 51  1  0  0  0  0
 43 66  1  0  0  0  0
 44 46  1  0  0  0  0
 45 47  1  0  0  0  0
 45 48  1  0  0  0  0
 46 50  1  0  0  0  0
 47 52  1  0  0  0  0
 48 67  1  0  0  0  0
 49 52  1  0  0  0  0
 49 67  1  0  0  0  0
 50 71  1  0  0  0  0
 51 66  1  0  0  0  0
 52 65  1  0  0  0  0
 53 59  1  0  0  0  0
 54 61  1  0  0  0  0
 55 62  1  0  0  0  0
 56 62  1  0  0  0  0
 57 62  1  0  0  0  0
 58 73  1  0  0  0  0
 59 64  1  0  0  0  0
 60 62  1  0  0  0  0
 60 72  1  0  0  0  0
 61 73  1  0  0  0  0
 63 65  1  0  0  0  0
M  CHG  1  73   1
M  ISO  4  32 101  40 100  70 100  83 101
M  END
> <Batch ID>
0112

> <Smiles>
CCn1cc(C(=O)[100NH:0][100C:0](=O)N2CCCC(n3nc(-c4ccc(Oc5ccc(F)cc5F)cc4)c(C(N)=O)c3N)C2)cc1C(=O)C(=O)[101CH2:1][101O:1]c1ccc2c(c1)CN(C(=O)C(NC(=O)C(C)NC)C(C)(C)C)C(C(=O)NC1CCCc3ccccc31)C2

> <Shape>
0.184

> <Color>
0.070

> <Negative vol penalty>
0.000

$$$$

  -OEChem-04052301313D

 87 96  0     1  0  0  0  0  0999 V2000
  -21.8340  -28.3827   22.9251 C   0  0  0  0  0  0  0  0  0  0  0  0
  -22.7485  -28.1725   23.9522 C   0  0  0  0  0  0  0  0  0  0  0  0
  -22.8567  -10.0799   20.0694 C   0  0  0  0  0  0  0  0  0  0  0  0
  -24.2815   -9.5127   21.9363 C   0  0  0  0  0  0  0  0  0  0  0  0
  -20.8161  -27.4571   22.6994 C   0  0  0  0  0  0  0  0  0  0  0  0
  -22.6450  -27.0371   24.7549 C   0  0  0  0  0  0  0  0  0  0  0  0
  -27.9145  -21.4648   26.2411 C   0  0  0  0  0  0  0  0  0  0  0  0
  -22.1545   -8.8873   20.2430 C   0  0  0  0  0  0  0  0  0  0  0  0
  -23.5793   -8.3201   22.1099 C   0  0  0  0  0  0  0  0  0  0  0  0
  -28.7077  -20.3372   26.4546 C   0  0  0  0  0  0  0  0  0  0  0  0
  -20.6476   -7.3331   23.4707 C   0  0  0  0  0  0  0  0  0  0  0  0
  -20.2848   -6.9797   24.7703 C   0  0  0  0  0  0  0  0  0  0  0  0
  -30.9178  -13.0132   25.0717 C   0  0  0  0  0  0  0  0  0  0  0  0
  -33.0281  -13.6262   26.0756 C   0  0  0  0  0  0  0  0  0  0  0  0
  -26.7266  -19.0004   26.8240 C   0  0  0  0  0  0  0  0  0  0  0  0
  -32.8167  -13.5312   23.6707 C   0  0  0  0  0  0  0  0  0  0  0  0
  -21.5683   -4.9421   24.5745 C   0  0  0  0  0  0  0  0  0  0  0  0
  -23.9203  -10.3926   20.9161 C   0  0  0  0  0  0  0  0  0  0  0  0
  -31.6917  -13.2492   26.2079 C   0  0  0  0  0  0  0  0  0  0  0  0
  -24.1306  -12.9324   20.8023 C   0  0  0  0  0  0  0  0  0  0  0  0
  -20.7058  -26.3048   23.4936 C   0  0  0  0  0  0  0  0  0  0  0  0
  -26.5221  -21.3610   26.3032 C   0  0  0  0  0  0  0  0  0  0  0  0
  -21.6238  -26.0958   24.5405 C   0  0  0  0  0  0  0  0  0  0  0  0
  -25.9266  -20.1238   26.5988 C   0  0  0  0  0  0  0  0  0  0  0  0
  -31.4803  -13.1541   23.8031 C   0  0  0  0  0  0  0  0  0  0  0  0
  -22.5157   -8.0074   21.2632 C   0  0  0  0  0  0  0  0  0  0  0  0
  -28.1152  -19.1082   26.7455 C   0  0  0  0  0  0  0  0  0  0  0  0
  -21.4707   -6.4910   22.7229 C   0  0  0  0  0  0  0  0  0  0  0  0
  -33.5906  -13.7672   24.8069 C   0  0  0  0  0  0  0  0  0  0  0  0
  -20.7452   -5.7842   25.3222 C   0  0  0  0  0  0  0  0  0  0  0  0
  -21.9310   -5.2956   23.2748 C   0  0  0  0  0  0  0  0  0  0  0  0
  -24.6464  -11.6242   20.7369 C   0  0  0  0  0  0  0  0  0  0  0  0
  -25.2148  -13.7413   20.5642 C   0  0  0  0  0  0  0  0  0  0  0  0
  -29.5323  -16.2943   28.4667 C   0  0  0  0  0  0  0  0  0  0  0  0
  -28.8142  -17.3789   28.1576 C   0  0  0  0  0  0  0  0  0  1  0  0
  -31.0989  -13.1018   27.5457 C   0  0  0  0  0  0  0  0  0  0  0  0
  -22.7911  -13.3767   21.0557 C   0  0  0  0  0  0  0  0  0  0  0  0
  -23.2094  -23.0969   26.0052 C   0  0  0  0  0  0  0  0  0  0  0  0
  -22.8979  -20.3487   24.6782 C   0  0  0  0  0  0  0  0  0  0  0  0
  -21.9876  -17.7015   22.7287 C   0  0  0  0  0  0  0  0  0  0  0  0
  -31.0972  -13.0099   21.3174 C   0  0  0  0  0  0  0  0  0  0  0  0
  -19.5604  -25.3565   23.2418 C   0  0  0  0  0  0  0  0  0  0  0  0
  -25.6306  -22.5622   26.1409 C   0  0  0  0  0  0  0  0  0  0  0  0
  -24.4261  -20.0667   26.6895 C   0  0  0  0  0  0  0  0  0  0  0  0
  -29.4784  -15.5678   29.7765 C   0  0  0  0  0  0  0  0  0  0  0  0
  -30.4196  -15.5544   27.5146 C   0  0  0  0  0  0  0  0  0  0  0  0
  -19.7449  -23.9907   23.8980 C   0  0  0  0  0  0  0  0  0  0  0  0
  -29.4206  -13.7885   18.2744 C   0  0  0  0  0  0  0  0  0  0  0  0
  -20.2037  -24.1507   25.3440 C   0  0  0  0  0  0  0  0  0  0  0  0
  -27.9581  -13.4466   18.5685 C   0  0  0  0  0  0  0  0  0  0  0  0
  -29.7688  -14.1362   29.3614 C   0  0  0  0  0  0  0  0  0  0  0  0
  -30.3788  -12.8072   18.9472 C   0  0  0  0  0  0  0  0  0  0  0  0
  -28.7110  -12.2879   20.6845 C   0  0  0  0  0  0  0  0  0  0  0  0
  -21.5593  -24.8638   25.4169 C   0  0  1  0  0  0  0  0  0  0  0  0
  -24.3001  -22.2359   25.4392 C   0  0  1  0  0  0  0  0  0  0  0  0
  -27.7100  -13.2868   20.0812 C   0  0  2  0  0  0  0  0  0  0  0  0
  -19.9734  -16.3990   21.9911 C   0  0  0  0  0  0  0  0  0  0  0  0
  -22.7905  -18.9796   27.4018 C   0  0  0  0  0  0  0  0  0  0  0  0
  -21.4884  -17.1242   26.3386 C   0  0  0  0  0  0  0  0  0  0  0  0
  -20.5565  -19.4378   26.3753 C   0  0  0  0  0  0  0  0  0  0  0  0
  -22.4521  -18.3715   19.8837 C   0  0  0  0  0  0  0  0  0  0  0  0
  -35.4051  -14.2610   23.3511 C   0  0  0  0  0  0  0  0  0  0  0  0
  -22.4920  -18.9055   24.8383 C   0  0  1  0  0  0  0  0  0  0  0  0
  -20.9098  -17.5534   21.6699 C   0  0  2  0  0  0  0  0  0  0  0  0
  -21.8575  -18.6190   26.2285 C   0  0  0  0  0  0  0  0  0  0  0  0
  -25.9564  -11.5988   20.4774 N   0  0  0  0  0  0  0  0  0  0  0  0
  -26.2728  -12.9011   20.3776 N   0  0  0  0  0  0  0  0  0  0  0  0
  -30.5061  -14.2234   28.1092 N   0  0  0  0  0  0  0  0  0  0  0  0
  -23.8266  -20.8504   25.5981 N   0  0  0  0  0  0  0  0  0  0  0  0
  -30.0869  -12.7105   20.3791 N   0  0  0  0  0  0  0  0  0  0  0  0
  -25.3567  -15.0821   20.4982 N   0  0  0  0  0  0  0  0  0  0  0  0
  -21.9271  -13.5495   19.9658 N   0  0  0  0  0  0  0  0  0  0  0  0
  -30.6939  -12.9150   22.6489 N   0  0  0  0  0  0  0  0  0  0  0  0
  -22.6302  -23.9489   25.0843 N   0  0  0  0  0  0  0  0  0  0  0  0
  -21.6206  -18.5989   23.7091 N   0  0  0  0  0  0  0  0  0  0  0  0
  -21.5251  -17.3024   20.3360 N   0  3  0  0  0  0  0  0  0  0  0  0
  -31.1576  -11.9912   28.0695 O   0  0  0  0  0  0  0  0  0  0  0  0
  -22.3779  -13.6292   22.2128 O   0  0  0  0  0  0  0  0  0  0  0  0
  -22.9131  -22.9956   27.1899 O   0  0  0  0  0  0  0  0  0  0  0  0
  -22.4023  -21.0171   23.7666 O   0  0  0  0  0  0  0  0  0  0  0  0
  -23.0474  -17.0802   22.6918 O   0  0  0  0  0  0  0  0  0  0  0  0
  -32.2285  -13.3536   20.9654 O   0  0  0  0  0  0  0  0  0  0  0  0
  -21.8306   -6.8437   21.4330 O   0  0  0  0  0  0  0  0  0  0  0  0
  -28.8953  -18.0104   26.9483 O   0  0  0  0  0  0  0  0  0  1  0  0
  -34.8944  -14.1355   24.6775 O   0  0  0  0  0  0  0  0  0  0  0  0
  -20.3980   -5.4457   26.5709 F   0  0  0  0  0  0  0  0  0  0  0  0
  -22.7229   -4.4831   22.5617 F   0  0  0  0  0  0  0  0  0  0  0  0
  1  2  1  0  0  0  0
  1  5  2  0  0  0  0
  2  6  2  0  0  0  0
  3  8  2  0  0  0  0
  3 18  1  0  0  0  0
  4  9  1  0  0  0  0
  4 18  2  0  0  0  0
  5 21  1  0  0  0  0
  6 23  1  0  0  0  0
  7 10  2  0  0  0  0
  7 22  1  0  0  0  0
  8 26  1  0  0  0  0
  9 26  2  0  0  0  0
 10 27  1  0  0  0  0
 11 12  2  0  0  0  0
 11 28  1  0  0  0  0
 12 30  1  0  0  0  0
 13 19  1  0  0  0  0
 13 25  2  0  0  0  0
 14 19  2  0  0  0  0
 14 29  1  0  0  0  0
 15 24  1  0  0  0  0
 15 27  2  0  0  0  0
 16 25  1  0  0  0  0
 16 29  2  0  0  0  0
 17 30  2  0  0  0  0
 17 31  1  0  0  0  0
 18 32  1  0  0  0  0
 19 36  1  0  0  0  0
 20 32  1  0  0  0  0
 20 33  2  0  0  0  0
 20 37  1  0  0  0  0
 21 23  2  0  0  0  0
 21 42  1  0  0  0  0
 22 24  2  0  0  0  0
 22 43  1  0  0  0  0
 23 54  1  0  0  0  0
 24 44  1  0  0  0  0
 25 73  1  0  0  0  0
 26 83  1  0  0  0  0
 27 84  1  0  0  0  0
 28 31  2  0  0  0  0
 28 83  1  0  0  0  0
 29 85  1  0  0  0  0
 30 86  1  0  0  0  0
 31 87  1  0  0  0  0
 32 66  2  0  0  0  0
 33 67  1  0  0  0  0
 33 71  1  0  0  0  0
 34 35  2  0  0  0  0
 34 45  1  0  0  0  0
 34 46  1  0  0  0  0
 35 84  1  0  0  0  0
 36 68  1  0  0  0  0
 36 77  2  0  0  0  0
 37 72  1  0  0  0  0
 37 78  2  0  0  0  0
 38 55  1  0  0  0  0
 38 74  1  0  0  0  0
 38 79  2  0  0  0  0
 39 63  1  0  0  0  0
 39 69  1  0  0  0  0
 39 80  2  0  0  0  0
 40 64  1  0  0  0  0
 40 75  1  0  0  0  0
 40 81  2  0  0  0  0
 41 70  1  0  0  0  0
 41 73  1  0  0  0  0
 41 82  2  0  0  0  0
 42 47  1  0  0  0  0
 43 55  1  0  0  0  0
 44 69  1  0  0  0  0
 45 51  1  0  0  0  0
 46 68  1  0  0  0  0
 47 49  1  0  0  0  0
 48 50  1  0  0  0  0
 48 52  1  0  0  0  0
 49 54  1  0  0  0  0
 50 56  1  0  0  0  0
 51 68  1  0  0  0  0
 52 70  1  0  0  0  0
 53 56  1  0  0  0  0
 53 70  1  0  0  0  0
 54 74  1  0  0  0  0
 55 69  1  0  0  0  0
 56 67  1  0  0  0  0
 57 64  1  0  0  0  0
 58 65  1  0  0  0  0
 59 65  1  0  0  0  0
 60 65  1  0  0  0  0
 61 76  1  0  0  0  0
 62 85  1  0  0  0  0
 63 65  1  0  0  0  0
 63 75  1  0  0  0  0
 64 76  1  0  0  0  0
 66 67  1  0  0  0  0
M  CHG  1  76   1
M  ISO  4  35 101  41 100  73 100  84 101
M  END
> <Batch ID>
0112

> <Smiles>
CNC(C)C(=O)NC(C(=O)N1Cc2cc([101O:1][101CH:1]=C3CCN(C(=O)c4cc([100NH:0][100C:0](=O)N5CCCC(n6nc(-c7ccc(Oc8ccc(F)cc8F)cc7)c(C(N)=O)c6N)C5)cc(OC)c4)C3)ccc2CC1C(=O)NC1CCCc2ccccc21)C(C)(C)C

> <Shape>
0.176

> <Color>
0.144

> <Negative vol penalty>
0.000

$$$$

  -OEChem-04052301313D

 85 93  0     1  0  0  0  0  0999 V2000
  -24.6919  -38.4368   19.1914 C   0  0  0  0  0  0  0  0  0  0  0  0
  -25.4605  -37.4288   18.6181 C   0  0  0  0  0  0  0  0  0  0  0  0
  -23.4847   -9.0290   20.2917 C   0  0  0  0  0  0  0  0  0  0  0  0
  -23.0857  -10.6865   22.0035 C   0  0  0  0  0  0  0  0  0  0  0  0
  -24.1932  -38.2818   20.4841 C   0  0  0  0  0  0  0  0  0  0  0  0
  -25.7317  -36.2656   19.3378 C   0  0  0  0  0  0  0  0  0  0  0  0
  -26.7732  -29.2396   18.4067 C   0  0  0  0  0  0  0  0  0  0  0  0
  -22.7029   -8.1134   20.9960 C   0  0  0  0  0  0  0  0  0  0  0  0
  -22.3038   -9.7709   22.7079 C   0  0  0  0  0  0  0  0  0  0  0  0
  -27.6866  -28.2349   18.7231 C   0  0  0  0  0  0  0  0  0  0  0  0
  -23.0521   -6.0819   23.6747 C   0  0  0  0  0  0  0  0  0  0  0  0
  -23.5431   -4.7838   23.8140 C   0  0  0  0  0  0  0  0  0  0  0  0
  -26.7062  -28.0435   20.9189 C   0  0  0  0  0  0  0  0  0  0  0  0
  -30.2619  -18.3512   20.3429 C   0  0  0  0  0  0  0  0  0  0  0  0
  -28.1792  -20.0336   19.5593 C   0  0  0  0  0  0  0  0  0  0  0  0
  -21.5999   -3.9253   22.6633 C   0  0  0  0  0  0  0  0  0  0  0  0
  -23.6761  -10.3156   20.7955 C   0  0  0  0  0  0  0  0  0  0  0  0
  -24.0504  -12.1721   19.0864 C   0  0  0  0  0  0  0  0  0  0  0  0
  -24.4503  -37.1121   21.2164 C   0  0  0  0  0  0  0  0  0  0  0  0
  -25.8249  -29.6621   19.3493 C   0  0  0  0  0  0  0  0  0  0  0  0
  -25.2371  -36.0954   20.6420 C   0  0  0  0  0  0  0  0  0  0  0  0
  -25.7802  -29.0520   20.6110 C   0  0  0  0  0  0  0  0  0  0  0  0
  -30.3784  -19.7307   20.5126 C   0  0  0  0  0  0  0  0  0  0  0  0
  -29.1041  -17.8128   19.7814 C   0  0  0  0  0  0  0  0  0  0  0  0
  -29.3370  -20.5720   20.1208 C   0  0  0  0  0  0  0  0  0  0  0  0
  -22.1124   -8.4843   22.2041 C   0  0  0  0  0  0  0  0  0  0  0  0
  -27.6551  -27.6387   19.9803 C   0  0  0  0  0  0  0  0  0  0  0  0
  -21.8350   -6.3018   23.0297 C   0  0  0  0  0  0  0  0  0  0  0  0
  -28.0627  -18.6540   19.3896 C   0  0  0  0  0  0  0  0  0  0  0  0
  -22.8170   -3.7055   23.3083 C   0  0  0  0  0  0  0  0  0  0  0  0
  -21.1089   -5.2235   22.5240 C   0  0  0  0  0  0  0  0  0  0  0  0
  -24.4840  -11.2617   20.0687 C   0  0  0  0  0  0  0  0  0  0  0  0
  -25.1905  -12.8382   18.7083 C   0  0  0  0  0  0  0  0  0  0  0  0
  -28.9714  -24.3038   20.2791 C   0  0  0  0  0  0  0  0  0  0  0  0
  -28.1972  -25.3639   20.0261 C   0  0  0  0  0  0  0  0  0  1  0  0
  -22.7346  -12.3957   18.5626 C   0  0  0  0  0  0  0  0  0  0  0  0
  -28.4882  -22.9319   19.9463 C   0  0  0  0  0  0  0  0  0  0  0  0
  -25.2008  -32.4054   20.8288 C   0  0  0  0  0  0  0  0  0  0  0  0
  -22.6345  -30.7676   21.9487 C   0  0  0  0  0  0  0  0  0  0  0  0
  -21.2169  -27.7505   22.6799 C   0  0  0  0  0  0  0  0  0  0  0  0
  -29.9489  -15.4460   19.9572 C   0  0  0  0  0  0  0  0  0  0  0  0
  -23.9294  -37.0101   22.6281 C   0  0  0  0  0  0  0  0  0  0  0  0
  -24.8293  -30.7285   18.9832 C   0  0  0  0  0  0  0  0  0  0  0  0
  -24.7688  -29.4553   21.6515 C   0  0  0  0  0  0  0  0  0  0  0  0
  -23.9486  -35.5882   23.1832 C   0  0  0  0  0  0  0  0  0  0  0  0
  -30.0542  -11.8934   19.7443 C   0  0  0  0  0  0  0  0  0  0  0  0
  -25.2881  -34.9193   22.8914 C   0  0  0  0  0  0  0  0  0  0  0  0
  -28.5788  -11.4872   19.7289 C   0  0  0  0  0  0  0  0  0  0  0  0
  -30.3037  -13.0894   20.6614 C   0  0  0  0  0  0  0  0  0  0  0  0
  -27.9770  -13.8517   20.3879 C   0  0  0  0  0  0  0  0  0  0  0  0
  -25.5322  -34.8085   21.3816 C   0  0  1  0  0  0  0  0  0  0  0  0
  -24.2395  -31.4378   20.1982 C   0  0  1  0  0  0  0  0  0  0  0  0
  -27.6657  -12.6919   19.4278 C   0  0  2  0  0  0  0  0  0  0  0  0
  -31.6306  -20.2801   21.1153 C   0  0  0  0  0  0  0  0  0  0  0  0
  -19.1239  -26.7332   23.6188 C   0  0  0  0  0  0  0  0  0  0  0  0
  -23.5141  -31.5594   24.7611 C   0  0  0  0  0  0  0  0  0  0  0  0
  -22.0003  -29.7795   25.6604 C   0  0  0  0  0  0  0  0  0  0  0  0
  -21.0481  -31.6867   24.3647 C   0  0  0  0  0  0  0  0  0  0  0  0
  -20.6581  -26.2940   20.1649 C   0  0  0  0  0  0  0  0  0  0  0  0
  -25.8666  -17.8081   19.7321 C   0  0  0  0  0  0  0  0  0  0  0  0
  -22.3631  -29.8991   23.1534 C   0  0  1  0  0  0  0  0  0  0  0  0
  -19.8495  -27.1755   22.3576 C   0  0  2  0  0  0  0  0  0  0  0  0
  -22.2519  -30.7247   24.4662 C   0  0  0  0  0  0  0  0  0  0  0  0
  -25.7972  -11.3395   20.3001 N   0  0  0  0  0  0  0  0  0  0  0  0
  -26.1985  -12.3067   19.4577 N   0  0  0  0  0  0  0  0  0  0  0  0
  -23.8206  -30.5068   21.2480 N   0  0  0  0  0  0  0  0  0  0  0  0
  -29.4062  -14.1936   20.3146 N   0  0  0  0  0  0  0  0  0  0  0  0
  -25.4190  -13.8207   17.8113 N   0  0  0  0  0  0  0  0  0  0  0  0
  -21.6766  -11.6240   19.0620 N   0  0  0  0  0  0  0  0  0  0  0  0
  -29.4359  -21.9754   20.2854 N   0  0  0  0  0  0  0  0  0  0  0  0
  -29.0002  -16.4093   19.6161 N   0  0  0  0  0  0  0  0  0  0  0  0
  -24.7637  -33.7162   20.8241 N   0  0  0  0  0  0  0  0  0  0  0  0
  -21.1716  -29.1199   22.8347 N   0  0  0  0  0  0  0  0  0  0  0  0
  -19.9826  -25.9976   21.4544 N   0  3  0  0  0  0  0  0  0  0  0  0
  -22.5067  -13.2429   17.6660 O   0  0  0  0  0  0  0  0  0  0  0  0
  -27.3865  -22.7517   19.4411 O   0  0  0  0  0  0  0  0  0  0  0  0
  -26.2598  -31.9929   21.2869 O   0  0  0  0  0  0  0  0  0  0  0  0
  -21.8205  -31.6403   21.6367 O   0  0  0  0  0  0  0  0  0  0  0  0
  -22.2239  -27.0541   22.7875 O   0  0  0  0  0  0  0  0  0  0  0  0
  -31.1668  -15.6409   19.9277 O   0  0  0  0  0  0  0  0  0  0  0  0
  -21.3493   -7.5912   22.8915 O   0  0  0  0  0  0  0  0  0  0  0  0
  -28.5458  -26.6583   20.2920 O   0  0  0  0  0  0  0  0  0  1  0  0
  -26.9235  -18.1483   18.8376 O   0  0  0  0  0  0  0  0  0  0  0  0
  -23.2893   -2.4591   23.4409 F   0  0  0  0  0  0  0  0  0  0  0  0
  -19.9396   -5.4286   21.9024 F   0  0  0  0  0  0  0  0  0  0  0  0
  1  2  1  0  0  0  0
  1  5  2  0  0  0  0
  2  6  2  0  0  0  0
  3  8  2  0  0  0  0
  3 17  1  0  0  0  0
  4  9  1  0  0  0  0
  4 17  2  0  0  0  0
  5 19  1  0  0  0  0
  6 21  1  0  0  0  0
  7 10  2  0  0  0  0
  7 20  1  0  0  0  0
  8 26  1  0  0  0  0
  9 26  2  0  0  0  0
 10 27  1  0  0  0  0
 11 12  2  0  0  0  0
 11 28  1  0  0  0  0
 12 30  1  0  0  0  0
 13 22  1  0  0  0  0
 13 27  2  0  0  0  0
 14 23  1  0  0  0  0
 14 24  2  0  0  0  0
 15 25  1  0  0  0  0
 15 29  2  0  0  0  0
 16 30  2  0  0  0  0
 16 31  1  0  0  0  0
 17 32  1  0  0  0  0
 18 32  1  0  0  0  0
 18 33  2  0  0  0  0
 18 36  1  0  0  0  0
 19 21  2  0  0  0  0
 19 42  1  0  0  0  0
 20 22  2  0  0  0  0
 20 43  1  0  0  0  0
 21 51  1  0  0  0  0
 22 44  1  0  0  0  0
 23 25  2  0  0  0  0
 23 54  1  0  0  0  0
 24 29  1  0  0  0  0
 24 71  1  0  0  0  0
 25 70  1  0  0  0  0
 26 81  1  0  0  0  0
 27 82  1  0  0  0  0
 28 31  2  0  0  0  0
 28 81  1  0  0  0  0
 29 83  1  0  0  0  0
 30 84  1  0  0  0  0
 31 85  1  0  0  0  0
 32 64  2  0  0  0  0
 33 65  1  0  0  0  0
 33 68  1  0  0  0  0
 34 35  2  0  0  0  0
 34 37  1  0  0  0  0
 35 82  1  0  0  0  0
 36 69  1  0  0  0  0
 36 75  2  0  0  0  0
 37 70  1  0  0  0  0
 37 76  2  0  0  0  0
 38 52  1  0  0  0  0
 38 72  1  0  0  0  0
 38 77  2  0  0  0  0
 39 61  1  0  0  0  0
 39 66  1  0  0  0  0
 39 78  2  0  0  0  0
 40 62  1  0  0  0  0
 40 73  1  0  0  0  0
 40 79  2  0  0  0  0
 41 67  1  0  0  0  0
 41 71  1  0  0  0  0
 41 80  2  0  0  0  0
 42 45  1  0  0  0  0
 43 52  1  0  0  0  0
 44 66  1  0  0  0  0
 45 47  1  0  0  0  0
 46 48  1  0  0  0  0
 46 49  1  0  0  0  0
 47 51  1  0  0  0  0
 48 53  1  0  0  0  0
 49 67  1  0  0  0  0
 50 53  1  0  0  0  0
 50 67  1  0  0  0  0
 51 72  1  0  0  0  0
 52 66  1  0  0  0  0
 53 65  1  0  0  0  0
 55 62  1  0  0  0  0
 56 63  1  0  0  0  0
 57 63  1  0  0  0  0
 58 63  1  0  0  0  0
 59 74  1  0  0  0  0
 60 83  1  0  0  0  0
 61 63  1  0  0  0  0
 61 73  1  0  0  0  0
 62 74  1  0  0  0  0
 64 65  1  0  0  0  0
M  CHG  1  74   1
M  ISO  4  35 101  41 100  71 100  82 101
M  END
> <Batch ID>
0112

> <Smiles>
CNC(C)C(=O)NC(C(=O)N1Cc2cc([101O:1][101CH:1]=CC(=O)Nc3cc(OC)c([100NH:0][100C:0](=O)N4CCCC(n5nc(-c6ccc(Oc7ccc(F)cc7F)cc6)c(C(N)=O)c5N)C4)cc3C)ccc2CC1C(=O)NC1CCCc2ccccc21)C(C)(C)C

> <Shape>
0.329

> <Color>
0.122

> <Negative vol penalty>
0.000

$$$$

  -OEChem-04052301313D

 85 93  0     1  0  0  0  0  0999 V2000
  -16.7442  -27.5449   17.5148 C   0  0  0  0  0  0  0  0  0  0  0  0
  -17.3127  -26.3590   17.9683 C   0  0  0  0  0  0  0  0  0  0  0  0
  -22.6241  -10.3563   20.6768 C   0  0  0  0  0  0  0  0  0  0  0  0
  -23.6093  -10.5245   22.8764 C   0  0  0  0  0  0  0  0  0  0  0  0
  -17.4878  -28.7242   17.5315 C   0  0  0  0  0  0  0  0  0  0  0  0
  -18.6257  -26.3515   18.4379 C   0  0  0  0  0  0  0  0  0  0  0  0
  -20.8938  -22.9181   22.9737 C   0  0  0  0  0  0  0  0  0  0  0  0
  -21.7476   -9.3771   21.1442 C   0  0  0  0  0  0  0  0  0  0  0  0
  -22.7327   -9.5453   23.3438 C   0  0  0  0  0  0  0  0  0  0  0  0
  -21.6156  -21.7253   22.9764 C   0  0  0  0  0  0  0  0  0  0  0  0
  -19.5017   -9.3558   24.3159 C   0  0  0  0  0  0  0  0  0  0  0  0
  -18.8721   -9.5826   25.5397 C   0  0  0  0  0  0  0  0  0  0  0  0
  -30.3317  -16.6107   19.1866 C   0  0  0  0  0  0  0  0  0  0  0  0
  -23.6713  -22.9768   23.1403 C   0  0  0  0  0  0  0  0  0  0  0  0
  -28.8791  -18.5346   19.3475 C   0  0  0  0  0  0  0  0  0  0  0  0
  -19.8824   -7.5771   26.4311 C   0  0  0  0  0  0  0  0  0  0  0  0
  -23.5550  -10.9300   21.5429 C   0  0  0  0  0  0  0  0  0  0  0  0
  -30.0071  -16.2561   20.4959 C   0  0  0  0  0  0  0  0  0  0  0  0
  -24.2525  -13.3333   21.0477 C   0  0  0  0  0  0  0  0  0  0  0  0
  -18.8073  -28.7330   18.0105 C   0  0  0  0  0  0  0  0  0  0  0  0
  -21.5571  -24.1516   23.0435 C   0  0  0  0  0  0  0  0  0  0  0  0
  -19.3881  -27.5317   18.4598 C   0  0  0  0  0  0  0  0  0  0  0  0
  -22.9555  -24.1837   23.1409 C   0  0  0  0  0  0  0  0  0  0  0  0
  -29.1184  -17.0406   21.2311 C   0  0  0  0  0  0  0  0  0  0  0  0
  -29.7678  -17.7500   18.6124 C   0  0  0  0  0  0  0  0  0  0  0  0
  -21.8019   -8.9716   22.4777 C   0  0  0  0  0  0  0  0  0  0  0  0
  -23.0047  -21.7546   23.0567 C   0  0  0  0  0  0  0  0  0  0  0  0
  -20.3216   -8.2396   24.1496 C   0  0  0  0  0  0  0  0  0  0  0  0
  -28.5544  -18.1799   20.6569 C   0  0  0  0  0  0  0  0  0  0  0  0
  -19.0625   -8.6933   26.5973 C   0  0  0  0  0  0  0  0  0  0  0  0
  -20.5120   -7.3503   25.2072 C   0  0  0  0  0  0  0  0  0  0  0  0
  -24.4611  -11.9411   21.0605 C   0  0  0  0  0  0  0  0  0  0  0  0
  -25.4001  -13.8474   20.4953 C   0  0  0  0  0  0  0  0  0  0  0  0
  -25.3849  -19.2992   21.9285 C   0  0  0  0  0  0  0  0  0  0  0  0
  -24.6195  -20.3890   22.0576 C   0  0  0  0  0  0  0  0  0  1  0  0
  -30.6109  -15.0610   21.0700 C   0  0  0  0  0  0  0  0  0  0  0  0
  -23.1224  -14.0938   21.4952 C   0  0  0  0  0  0  0  0  0  0  0  0
  -30.9870  -13.9062   20.2225 C   0  0  0  0  0  0  0  0  0  0  0  0
  -21.7897  -26.6843   21.1369 C   0  0  0  0  0  0  0  0  0  0  0  0
  -23.3920  -27.9480   23.6584 C   0  0  0  0  0  0  0  0  0  0  0  0
  -25.2285  -27.4159   26.4852 C   0  0  0  0  0  0  0  0  0  0  0  0
  -19.5875  -30.0230   17.9649 C   0  0  0  0  0  0  0  0  0  0  0  0
  -20.7624  -25.4285   23.0665 C   0  0  0  0  0  0  0  0  0  0  0  0
  -23.7141  -25.4812   23.2383 C   0  0  0  0  0  0  0  0  0  0  0  0
  -20.8468  -30.0039   18.8276 C   0  0  0  0  0  0  0  0  0  0  0  0
  -29.2411  -11.5679   18.1390 C   0  0  0  0  0  0  0  0  0  0  0  0
  -21.6300  -28.7148   18.6004 C   0  0  0  0  0  0  0  0  0  0  0  0
  -27.8352  -11.5426   18.7379 C   0  0  0  0  0  0  0  0  0  0  0  0
  -30.3032  -11.7642   19.2159 C   0  0  0  0  0  0  0  0  0  0  0  0
  -28.6817  -12.9603   20.6612 C   0  0  0  0  0  0  0  0  0  0  0  0
  -20.8011  -27.4880   18.9997 C   0  0  1  0  0  0  0  0  0  0  0  0
  -21.5711  -26.6437   22.6229 C   0  0  1  0  0  0  0  0  0  0  0  0
  -27.5799  -12.7914   19.6005 C   0  0  2  0  0  0  0  0  0  0  0  0
  -29.4909  -17.5373   23.6603 C   0  0  0  0  0  0  0  0  0  0  0  0
  -26.4307  -28.6443   28.3137 C   0  0  0  0  0  0  0  0  0  0  0  0
  -25.6757  -28.5730   21.7337 C   0  0  0  0  0  0  0  0  0  0  0  0
  -27.1660  -28.9008   23.7185 C   0  0  0  0  0  0  0  0  0  0  0  0
  -25.1843  -30.3801   23.3913 C   0  0  0  0  0  0  0  0  0  0  0  0
  -23.4940  -26.2393   28.5748 C   0  0  0  0  0  0  0  0  0  0  0  0
  -28.7664  -16.6698   22.6368 C   0  0  0  0  0  0  0  0  0  0  0  0
  -26.3730  -19.1123   20.8229 C   0  0  0  0  0  0  0  0  0  0  0  0
  -24.8348  -27.9789   24.1014 C   0  0  1  0  0  0  0  0  0  0  0  0
  -25.1215  -28.0025   27.8812 C   0  0  2  0  0  0  0  0  0  0  0  0
  -25.7013  -28.9336   23.2325 C   0  0  0  0  0  0  0  0  0  0  0  0
  -25.6478  -11.5929   20.5562 N   0  0  0  0  0  0  0  0  0  0  0  0
  -30.8593  -14.9277   22.3435 N   0  0  0  0  0  0  0  0  0  0  0  0
  -26.1952  -12.7737   20.2212 N   0  0  0  0  0  0  0  0  0  0  0  0
  -30.0113  -12.9364   20.0387 N   0  0  0  0  0  0  0  0  0  0  0  0
  -22.8927  -26.7029   23.2507 N   0  0  0  0  0  0  0  0  0  0  0  0
  -30.0949  -18.1084   17.2878 N   0  0  0  0  0  0  0  0  0  0  0  0
  -25.7965  -15.1086   20.2221 N   0  0  0  0  0  0  0  0  0  0  0  0
  -22.0273  -13.4073   22.0373 N   0  0  0  0  0  0  0  0  0  0  0  0
  -20.7891  -27.3327   20.4385 N   0  0  0  0  0  0  0  0  0  0  0  0
  -24.8188  -28.3129   25.5215 N   0  0  0  0  0  0  0  0  0  0  0  0
  -24.7722  -26.9388   28.8648 N   0  3  0  0  0  0  0  0  0  0  0  0
  -23.0780  -15.3439   21.4015 O   0  0  0  0  0  0  0  0  0  0  0  0
  -32.1251  -13.9307   19.7726 O   0  0  0  0  0  0  0  0  0  0  0  0
  -22.7928  -26.1671   20.6594 O   0  0  0  0  0  0  0  0  0  0  0  0
  -22.7303  -28.9888   23.6803 O   0  0  0  0  0  0  0  0  0  0  0  0
  -25.6383  -26.2772   26.2708 O   0  0  0  0  0  0  0  0  0  0  0  0
  -20.9466   -8.0163   22.9342 O   0  0  0  0  0  0  0  0  0  0  0  0
  -23.7118  -20.5919   23.0589 O   0  0  0  0  0  0  0  0  0  1  0  0
  -27.6792  -18.9626   21.3636 O   0  0  0  0  0  0  0  0  0  0  0  0
  -18.4590   -8.9120   27.7730 F   0  0  0  0  0  0  0  0  0  0  0  0
  -21.2995   -6.2770   25.0539 F   0  0  0  0  0  0  0  0  0  0  0  0
  1  2  1  0  0  0  0
  1  5  2  0  0  0  0
  2  6  2  0  0  0  0
  3  8  2  0  0  0  0
  3 17  1  0  0  0  0
  4  9  1  0  0  0  0
  4 17  2  0  0  0  0
  5 20  1  0  0  0  0
  6 22  1  0  0  0  0
  7 10  2  0  0  0  0
  7 21  1  0  0  0  0
  8 26  1  0  0  0  0
  9 26  2  0  0  0  0
 10 27  1  0  0  0  0
 11 12  2  0  0  0  0
 11 28  1  0  0  0  0
 12 30  1  0  0  0  0
 13 18  1  0  0  0  0
 13 25  2  0  0  0  0
 14 23  1  0  0  0  0
 14 27  2  0  0  0  0
 15 25  1  0  0  0  0
 15 29  2  0  0  0  0
 16 30  2  0  0  0  0
 16 31  1  0  0  0  0
 17 32  1  0  0  0  0
 18 24  2  0  0  0  0
 18 36  1  0  0  0  0
 19 32  1  0  0  0  0
 19 33  2  0  0  0  0
 19 37  1  0  0  0  0
 20 22  2  0  0  0  0
 20 42  1  0  0  0  0
 21 23  2  0  0  0  0
 21 43  1  0  0  0  0
 22 51  1  0  0  0  0
 23 44  1  0  0  0  0
 24 29  1  0  0  0  0
 24 60  1  0  0  0  0
 25 70  1  0  0  0  0
 26 81  1  0  0  0  0
 27 82  1  0  0  0  0
 28 31  2  0  0  0  0
 28 81  1  0  0  0  0
 29 83  1  0  0  0  0
 30 84  1  0  0  0  0
 31 85  1  0  0  0  0
 32 65  2  0  0  0  0
 33 67  1  0  0  0  0
 33 71  1  0  0  0  0
 34 35  2  0  0  0  0
 34 61  1  0  0  0  0
 35 82  1  0  0  0  0
 36 38  1  0  0  0  0
 36 66  2  0  0  0  0
 37 72  1  0  0  0  0
 37 76  2  0  0  0  0
 38 68  1  0  0  0  0
 38 77  2  0  0  0  0
 39 52  1  0  0  0  0
 39 73  1  0  0  0  0
 39 78  2  0  0  0  0
 40 62  1  0  0  0  0
 40 69  1  0  0  0  0
 40 79  2  0  0  0  0
 41 63  1  0  0  0  0
 41 74  1  0  0  0  0
 41 80  2  0  0  0  0
 42 45  1  0  0  0  0
 43 52  1  0  0  0  0
 44 69  1  0  0  0  0
 45 47  1  0  0  0  0
 46 48  1  0  0  0  0
 46 49  1  0  0  0  0
 47 51  1  0  0  0  0
 48 53  1  0  0  0  0
 49 68  1  0  0  0  0
 50 53  1  0  0  0  0
 50 68  1  0  0  0  0
 51 73  1  0  0  0  0
 52 69  1  0  0  0  0
 53 67  1  0  0  0  0
 54 60  1  0  0  0  0
 55 63  1  0  0  0  0
 56 64  1  0  0  0  0
 57 64  1  0  0  0  0
 58 64  1  0  0  0  0
 59 75  1  0  0  0  0
 61 83  1  0  0  0  0
 62 64  1  0  0  0  0
 62 74  1  0  0  0  0
 63 75  1  0  0  0  0
 65 67  1  0  0  0  0
M  CHG  1  75   1
M  ISO  4  35 101  36 100  38 100  82 101
M  END
> <Batch ID>
0112

> <Smiles>
CCc1c(OCC=[101CH:1][101O:1]c2ccc3c(c2)CN(C(=O)C(NC(=O)C(C)NC)C(C)(C)C)C(C(=O)NC2CCCc4ccccc42)C3)cc(N)cc1[100C:0](=N)[100C:0](=O)N1CCCC(n2nc(-c3ccc(Oc4ccc(F)cc4F)cc3)c(C(N)=O)c2N)C1

> <Shape>
0.213

> <Color>
0.122

> <Negative vol penalty>
0.000

$$$$

  -OEChem-04052301313D

 84 92  0     1  0  0  0  0  0999 V2000
  -21.2220  -22.2470   20.2506 C   0  0  0  0  0  0  0  0  0  0  0  0
  -22.3440  -21.4381   20.4000 C   0  0  0  0  0  0  0  0  0  0  0  0
  -24.9729  -30.9156   21.1215 C   0  0  0  0  0  0  0  0  0  0  0  0
  -24.6439  -29.2708   22.8603 C   0  0  0  0  0  0  0  0  0  0  0  0
  -20.0898  -22.0177   21.0312 C   0  0  0  0  0  0  0  0  0  0  0  0
  -22.3347  -20.4000   21.3309 C   0  0  0  0  0  0  0  0  0  0  0  0
  -24.2574  -16.1019   19.4668 C   0  0  0  0  0  0  0  0  0  0  0  0
  -30.9048  -19.9586   20.1456 C   0  0  0  0  0  0  0  0  0  0  0  0
  -24.3416  -31.8766   21.9110 C   0  0  0  0  0  0  0  0  0  0  0  0
  -24.0126  -30.2319   23.6499 C   0  0  0  0  0  0  0  0  0  0  0  0
  -25.6461  -16.0078   19.3865 C   0  0  0  0  0  0  0  0  0  0  0  0
  -30.7125  -21.3223   19.9242 C   0  0  0  0  0  0  0  0  0  0  0  0
  -23.1378  -34.8535   23.6151 C   0  0  0  0  0  0  0  0  0  0  0  0
  -23.7318  -36.1125   23.7035 C   0  0  0  0  0  0  0  0  0  0  0  0
  -28.8237  -19.4815   19.0149 C   0  0  0  0  0  0  0  0  0  0  0  0
  -25.6691  -14.7039   21.4159 C   0  0  0  0  0  0  0  0  0  0  0  0
  -25.7232  -35.1076   24.6318 C   0  0  0  0  0  0  0  0  0  0  0  0
  -25.1241  -29.6127   21.5961 C   0  0  0  0  0  0  0  0  0  0  0  0
  -28.6313  -20.8452   18.7936 C   0  0  0  0  0  0  0  0  0  0  0  0
  -27.1492  -28.3122   20.7504 C   0  0  0  0  0  0  0  0  0  0  0  0
  -20.0631  -20.9701   21.9653 C   0  0  0  0  0  0  0  0  0  0  0  0
  -23.5640  -15.5059   20.5300 C   0  0  0  0  0  0  0  0  0  0  0  0
  -21.2015  -20.1572   22.1256 C   0  0  0  0  0  0  0  0  0  0  0  0
  -24.2714  -14.7897   21.5060 C   0  0  0  0  0  0  0  0  0  0  0  0
  -29.9604  -19.0382   19.6909 C   0  0  0  0  0  0  0  0  0  0  0  0
  -23.8614  -31.5348   23.1752 C   0  0  0  0  0  0  0  0  0  0  0  0
  -26.3524  -15.3112   20.3627 C   0  0  0  0  0  0  0  0  0  0  0  0
  -29.5757  -21.7656   19.2482 C   0  0  0  0  0  0  0  0  0  0  0  0
  -23.8364  -33.7216   24.0352 C   0  0  0  0  0  0  0  0  0  0  0  0
  -25.0245  -36.2395   24.2118 C   0  0  0  0  0  0  0  0  0  0  0  0
  -25.1291  -33.8487   24.5435 C   0  0  0  0  0  0  0  0  0  0  0  0
  -25.7757  -28.6193   20.7808 C   0  0  0  0  0  0  0  0  0  0  0  0
  -27.2557  -27.3068   19.8207 C   0  0  0  0  0  0  0  0  0  0  0  0
  -27.4359  -21.2833   18.0854 C   0  0  0  0  0  0  0  0  0  0  0  0
  -26.5037  -22.1265   18.5742 C   0  0  0  0  0  0  0  0  0  0  0  0
  -29.6641  -17.1984   21.0147 C   0  0  0  0  0  0  0  0  0  0  0  0
  -28.2320  -28.8844   21.4959 C   0  0  0  0  0  0  0  0  0  0  0  0
  -25.3453  -22.4854   17.7243 C   0  0  0  0  0  0  0  0  0  0  0  0
  -21.7146  -16.5772   22.8829 C   0  0  0  0  0  0  0  0  0  0  0  0
  -21.2859  -13.4144   23.4615 C   0  0  0  0  0  0  0  0  0  0  0  0
  -22.4696  -10.2276   23.1610 C   0  0  0  0  0  0  0  0  0  0  0  0
  -18.8334  -20.7906   22.8198 C   0  0  0  0  0  0  0  0  0  0  0  0
  -22.0635  -15.5939   20.5878 C   0  0  0  0  0  0  0  0  0  0  0  0
  -23.5722  -14.1147   22.6567 C   0  0  0  0  0  0  0  0  0  0  0  0
  -18.7699  -19.4350   23.5187 C   0  0  0  0  0  0  0  0  0  0  0  0
  -23.9119  -25.5277   16.4807 C   0  0  0  0  0  0  0  0  0  0  0  0
  -20.1125  -19.1028   24.1623 C   0  0  0  0  0  0  0  0  0  0  0  0
  -24.3501  -26.5705   17.5085 C   0  0  0  0  0  0  0  0  0  0  0  0
  -23.6518  -24.1744   17.1343 C   0  0  0  0  0  0  0  0  0  0  0  0
  -25.2537  -24.6946   18.9542 C   0  0  0  0  0  0  0  0  0  0  0  0
  -21.2210  -19.0056   23.1072 C   0  0  1  0  0  0  0  0  0  0  0  0
  -21.5064  -15.3849   21.9925 C   0  0  1  0  0  0  0  0  0  0  0  0
  -25.5524  -26.0675   18.3271 C   0  0  2  0  0  0  0  0  0  0  0  0
  -21.9171   -7.8557   23.7663 C   0  0  0  0  0  0  0  0  0  0  0  0
  -22.1356  -13.9540   26.3419 C   0  0  0  0  0  0  0  0  0  0  0  0
  -22.4822  -11.4910   26.6276 C   0  0  0  0  0  0  0  0  0  0  0  0
  -20.2104  -12.3762   26.1004 C   0  0  0  0  0  0  0  0  0  0  0  0
  -22.3626   -9.4053   20.3200 C   0  0  0  0  0  0  0  0  0  0  0  0
  -29.9556  -23.6477   17.8450 C   0  0  0  0  0  0  0  0  0  0  0  0
  -29.7975  -15.7382   21.3552 C   0  0  0  0  0  0  0  0  0  0  0  0
  -28.4216  -15.1146   21.5184 C   0  0  0  0  0  0  0  0  0  1  0  0
  -21.9886  -12.3767   24.3032 C   0  0  1  0  0  0  0  0  0  0  0  0
  -21.7995   -8.9426   22.7091 C   0  0  2  0  0  0  0  0  0  0  0  0
  -21.7178  -12.5637   25.8228 C   0  0  0  0  0  0  0  0  0  0  0  0
  -25.0609  -27.8699   19.9373 N   0  0  0  0  0  0  0  0  0  0  0  0
  -30.1550  -17.6646   19.9130 N   0  0  0  0  0  0  0  0  0  0  0  0
  -25.9889  -27.0818   19.3681 N   0  0  0  0  0  0  0  0  0  0  0  0
  -24.7980  -23.7438   17.9323 N   0  0  0  0  0  0  0  0  0  0  0  0
  -22.1050  -14.2345   22.6726 N   0  0  0  0  0  0  0  0  0  0  0  0
  -28.3084  -26.6021   19.3543 N   0  0  0  0  0  0  0  0  0  0  0  0
  -27.9465  -29.9084   22.4094 N   0  0  0  0  0  0  0  0  0  0  0  0
  -21.1427  -17.7416   22.4068 N   0  0  0  0  0  0  0  0  0  0  0  0
  -21.5777  -11.0789   23.7783 N   0  0  0  0  0  0  0  0  0  0  0  0
  -22.4271   -8.4455   21.4521 N   0  3  0  0  0  0  0  0  0  0  0  0
  -29.4197  -28.5105   21.3442 O   0  0  0  0  0  0  0  0  0  0  0  0
  -24.9921  -21.6284   16.9248 O   0  0  0  0  0  0  0  0  0  0  0  0
  -22.3460  -16.4499   23.9253 O   0  0  0  0  0  0  0  0  0  0  0  0
  -20.0552  -13.4896   23.4971 O   0  0  0  0  0  0  0  0  0  0  0  0
  -23.6654  -10.4520   22.9873 O   0  0  0  0  0  0  0  0  0  0  0  0
  -23.2455  -32.4724   23.9461 O   0  0  0  0  0  0  0  0  0  0  0  0
  -29.4123  -23.1042   19.0457 O   0  0  0  0  0  0  0  0  0  0  0  0
  -27.7080  -15.2183   20.2870 O   0  0  0  0  0  0  0  0  0  1  0  0
  -25.5955  -37.4483   24.2952 F   0  0  0  0  0  0  0  0  0  0  0  0
  -25.8057  -32.7648   24.9475 F   0  0  0  0  0  0  0  0  0  0  0  0
  1  2  1  0  0  0  0
  1  5  2  0  0  0  0
  2  6  2  0  0  0  0
  3  9  2  0  0  0  0
  3 18  1  0  0  0  0
  4 10  1  0  0  0  0
  4 18  2  0  0  0  0
  5 21  1  0  0  0  0
  6 23  1  0  0  0  0
  7 11  2  0  0  0  0
  7 22  1  0  0  0  0
  8 12  2  0  0  0  0
  8 25  1  0  0  0  0
  9 26  1  0  0  0  0
 10 26  2  0  0  0  0
 11 27  1  0  0  0  0
 12 28  1  0  0  0  0
 13 14  2  0  0  0  0
 13 29  1  0  0  0  0
 14 30  1  0  0  0  0
 15 19  1  0  0  0  0
 15 25  2  0  0  0  0
 16 24  1  0  0  0  0
 16 27  2  0  0  0  0
 17 30  2  0  0  0  0
 17 31  1  0  0  0  0
 18 32  1  0  0  0  0
 19 28  2  0  0  0  0
 19 34  1  0  0  0  0
 20 32  1  0  0  0  0
 20 33  2  0  0  0  0
 20 37  1  0  0  0  0
 21 23  2  0  0  0  0
 21 42  1  0  0  0  0
 22 24  2  0  0  0  0
 22 43  1  0  0  0  0
 23 51  1  0  0  0  0
 24 44  1  0  0  0  0
 25 66  1  0  0  0  0
 26 80  1  0  0  0  0
 27 82  1  0  0  0  0
 28 81  1  0  0  0  0
 29 31  2  0  0  0  0
 29 80  1  0  0  0  0
 30 83  1  0  0  0  0
 31 84  1  0  0  0  0
 32 65  2  0  0  0  0
 33 67  1  0  0  0  0
 33 70  1  0  0  0  0
 34 35  2  0  0  0  0
 35 38  1  0  0  0  0
 36 60  1  0  0  0  0
 36 66  2  0  0  0  0
 37 71  1  0  0  0  0
 37 75  2  0  0  0  0
 38 68  1  0  0  0  0
 38 76  2  0  0  0  0
 39 52  1  0  0  0  0
 39 72  1  0  0  0  0
 39 77  2  0  0  0  0
 40 62  1  0  0  0  0
 40 69  1  0  0  0  0
 40 78  2  0  0  0  0
 41 63  1  0  0  0  0
 41 73  1  0  0  0  0
 41 79  2  0  0  0  0
 42 45  1  0  0  0  0
 43 52  1  0  0  0  0
 44 69  1  0  0  0  0
 45 47  1  0  0  0  0
 46 48  1  0  0  0  0
 46 49  1  0  0  0  0
 47 51  1  0  0  0  0
 48 53  1  0  0  0  0
 49 68  1  0  0  0  0
 50 53  1  0  0  0  0
 50 68  1  0  0  0  0
 51 72  1  0  0  0  0
 52 69  1  0  0  0  0
 53 67  1  0  0  0  0
 54 63  1  0  0  0  0
 55 64  1  0  0  0  0
 56 64  1  0  0  0  0
 57 64  1  0  0  0  0
 58 74  1  0  0  0  0
 59 81  1  0  0  0  0
 60 61  1  0  0  0  0
 61 82  1  0  0  0  0
 62 64  1  0  0  0  0
 62 73  1  0  0  0  0
 63 74  1  0  0  0  0
 65 67  1  0  0  0  0
M  CHG  1  74   1
M  ISO  4  35 100  38 100  61 101  82 101
M  END
> <Batch ID>
0112

> <Smiles>
CNC(C)C(=O)NC(C(=O)N1Cc2cc([101O:1][101CH2:1]C=CNc3ccc(OC)c(C=[100CH:0][100C:0](=O)N4CCCC(n5nc(-c6ccc(Oc7ccc(F)cc7F)cc6)c(C(N)=O)c5N)C4)c3)ccc2CC1C(=O)NC1CCCc2ccccc21)C(C)(C)C

> <Shape>
0.235

> <Color>
0.081

> <Negative vol penalty>
0.000

$$$$

  -OEChem-04052301313D

 91100  0     1  0  0  0  0  0999 V2000
  -29.3048  -29.6451   27.0658 C   0  0  0  0  0  0  0  0  0  0  0  0
  -28.9290  -28.8183   26.0119 C   0  0  0  0  0  0  0  0  0  0  0  0
  -22.6037  -11.9404   21.7256 C   0  0  0  0  0  0  0  0  0  0  0  0
  -24.0338  -10.0952   22.3476 C   0  0  0  0  0  0  0  0  0  0  0  0
  -28.3637  -30.4830   27.6628 C   0  0  0  0  0  0  0  0  0  0  0  0
  -27.6116  -28.8282   25.5551 C   0  0  0  0  0  0  0  0  0  0  0  0
  -27.3088  -28.9305   20.5011 C   0  0  0  0  0  0  0  0  0  0  0  0
  -21.7532  -11.6399   22.7895 C   0  0  0  0  0  0  0  0  0  0  0  0
  -23.1833   -9.7947   23.4115 C   0  0  0  0  0  0  0  0  0  0  0  0
  -27.5264  -27.7304   19.8257 C   0  0  0  0  0  0  0  0  0  0  0  0
  -20.2181   -8.2355   23.8669 C   0  0  0  0  0  0  0  0  0  0  0  0
  -19.8782   -6.8976   24.0669 C   0  0  0  0  0  0  0  0  0  0  0  0
  -30.0297  -20.0511   20.2345 C   0  0  0  0  0  0  0  0  0  0  0  0
  -30.8735  -17.7899   20.1247 C   0  0  0  0  0  0  0  0  0  0  0  0
  -28.5065  -18.1837   20.4066 C   0  0  0  0  0  0  0  0  0  0  0  0
  -25.1434  -27.4361   19.5934 C   0  0  0  0  0  0  0  0  0  0  0  0
  -20.8565   -6.9790   26.2744 C   0  0  0  0  0  0  0  0  0  0  0  0
  -23.7440  -11.1680   21.5046 C   0  0  0  0  0  0  0  0  0  0  0  0
  -31.1000  -19.1661   20.1040 C   0  0  0  0  0  0  0  0  0  0  0  0
  -28.7330  -19.5599   20.3859 C   0  0  0  0  0  0  0  0  0  0  0  0
  -24.2967  -11.4973   19.0360 C   0  0  0  0  0  0  0  0  0  0  0  0
  -27.0364  -30.5102   27.2066 C   0  0  0  0  0  0  0  0  0  0  0  0
  -26.0044  -29.3878   20.7376 C   0  0  0  0  0  0  0  0  0  0  0  0
  -26.6516  -29.6663   26.1473 C   0  0  0  0  0  0  0  0  0  0  0  0
  -24.9120  -28.6436   20.2697 C   0  0  0  0  0  0  0  0  0  0  0  0
  -29.5767  -17.2987   20.2761 C   0  0  0  0  0  0  0  0  0  0  0  0
  -22.0429  -10.5671   23.6325 C   0  0  0  0  0  0  0  0  0  0  0  0
  -26.4435  -26.9815   19.3743 C   0  0  0  0  0  0  0  0  0  0  0  0
  -20.8773   -8.9452   24.8706 C   0  0  0  0  0  0  0  0  0  0  0  0
  -20.1974   -6.2694   25.2707 C   0  0  0  0  0  0  0  0  0  0  0  0
  -21.1965   -8.3170   26.0744 C   0  0  0  0  0  0  0  0  0  0  0  0
  -24.6227  -11.4776   20.4054 C   0  0  0  0  0  0  0  0  0  0  0  0
  -25.4679  -11.8466   18.4093 C   0  0  0  0  0  0  0  0  0  0  0  0
  -26.2737  -23.4380   18.6977 C   0  0  0  0  0  0  0  0  0  0  0  0
  -26.7739  -22.6765   19.7012 C   0  0  0  0  0  0  0  0  0  0  0  0
  -26.2439  -22.8949   17.3011 C   0  0  0  0  0  0  0  0  0  0  0  0
  -32.4523  -19.6783   19.9455 C   0  0  0  0  0  0  0  0  0  0  0  0
  -32.7850  -20.9226   19.5335 C   0  0  0  0  0  0  0  0  0  0  0  0
  -27.6012  -20.4954   20.5234 C   0  0  0  0  0  0  0  0  0  0  0  0
  -23.0470  -11.2242   18.3884 C   0  0  0  0  0  0  0  0  0  0  0  0
  -24.2765  -29.9939   23.3358 C   0  0  0  0  0  0  0  0  0  0  0  0
  -22.1304  -31.1082   21.1736 C   0  0  0  0  0  0  0  0  0  0  0  0
  -20.8757  -30.0949   17.9462 C   0  0  0  0  0  0  0  0  0  0  0  0
  -30.2971  -14.8865   20.1821 C   0  0  0  0  0  0  0  0  0  0  0  0
  -26.0436  -31.3980   27.9144 C   0  0  0  0  0  0  0  0  0  0  0  0
  -25.7871  -30.6978   21.4441 C   0  0  0  0  0  0  0  0  0  0  0  0
  -23.4925  -29.1008   20.4803 C   0  0  0  0  0  0  0  0  0  0  0  0
  -26.6200  -21.4567   17.1040 C   0  0  0  0  0  0  0  0  0  0  0  0
  -24.7565  -31.6226   27.1251 C   0  0  0  0  0  0  0  0  0  0  0  0
  -30.2205  -11.5572   18.9224 C   0  0  0  0  0  0  0  0  0  0  0  0
  -24.2307  -30.3010   26.5740 C   0  0  0  0  0  0  0  0  0  0  0  0
  -28.7456  -11.1629   19.0295 C   0  0  0  0  0  0  0  0  0  0  0  0
  -27.7073  -21.0727   18.0813 C   0  0  0  0  0  0  0  0  0  0  0  0
  -30.6609  -12.4298   20.0964 C   0  0  0  0  0  0  0  0  0  0  0  0
  -28.3538  -13.2217   20.4419 C   0  0  0  0  0  0  0  0  0  0  0  0
  -25.2379  -29.6667   25.6072 C   0  0  1  0  0  0  0  0  0  0  0  0
  -24.4057  -30.8110   22.0814 C   0  0  1  0  0  0  0  0  0  0  0  0
  -27.8471  -12.3960   19.2481 C   0  0  2  0  0  0  0  0  0  0  0  0
  -26.8177  -23.2076   21.1183 C   0  0  0  0  0  0  0  0  0  0  0  0
  -34.1911  -21.4033   19.3762 C   0  0  0  0  0  0  0  0  0  0  0  0
  -19.9131  -31.4548   16.0696 C   0  0  0  0  0  0  0  0  0  0  0  0
  -19.4430  -30.4435   22.4565 C   0  0  0  0  0  0  0  0  0  0  0  0
  -18.4824  -30.2069   20.1566 C   0  0  0  0  0  0  0  0  0  0  0  0
  -19.4011  -32.4027   20.9028 C   0  0  0  0  0  0  0  0  0  0  0  0
  -22.8325  -29.0156   16.0058 C   0  0  0  0  0  0  0  0  0  0  0  0
  -25.6522  -24.8011   18.8495 C   0  0  0  0  0  0  0  0  0  1  0  0
  -20.9900  -30.5041   20.3903 C   0  0  1  0  0  0  0  0  0  0  0  0
  -21.1543  -30.7635   16.6121 C   0  0  2  0  0  0  0  0  0  0  0  0
  -19.6016  -30.8737   20.9845 C   0  0  0  0  0  0  0  0  0  0  0  0
  -25.9008  -11.7895   20.6357 N   0  0  0  0  0  0  0  0  0  0  0  0
  -26.3884  -12.0083   19.4027 N   0  0  0  0  0  0  0  0  0  0  0  0
  -27.3509  -21.4068   19.4716 N   0  0  0  0  0  0  0  0  0  0  0  0
  -23.3316  -30.3851   21.1819 N   0  0  0  0  0  0  0  0  0  0  0  0
  -29.7664  -13.5805   20.2399 N   0  0  0  0  0  0  0  0  0  0  0  0
  -25.7899  -12.0281   17.1109 N   0  0  0  0  0  0  0  0  0  0  0  0
  -21.9444  -10.8800   19.1822 N   0  0  0  0  0  0  0  0  0  0  0  0
  -29.3470  -15.9006   20.2980 N   0  0  0  0  0  0  0  0  0  0  0  0
  -25.1876  -30.3264   24.3201 N   0  0  0  0  0  0  0  0  0  0  0  0
  -21.1784  -30.9237   19.0058 N   0  0  0  0  0  0  0  0  0  0  0  0
  -21.6058  -29.7553   15.6117 N   0  3  0  0  0  0  0  0  0  0  0  0
  -25.8695  -23.5847   16.3541 O   0  0  0  0  0  0  0  0  0  0  0  0
  -26.9624  -20.3915   21.5702 O   0  0  0  0  0  0  0  0  0  0  0  0
  -22.9163  -11.2677   17.1416 O   0  0  0  0  0  0  0  0  0  0  0  0
  -23.4132  -29.1271   23.4060 O   0  0  0  0  0  0  0  0  0  0  0  0
  -21.9638  -32.1856   21.7508 O   0  0  0  0  0  0  0  0  0  0  0  0
  -20.4304  -28.9532   18.0390 O   0  0  0  0  0  0  0  0  0  0  0  0
  -31.5020  -15.0904   20.0128 O   0  0  0  0  0  0  0  0  0  0  0  0
  -21.2134  -10.2737   24.6708 O   0  0  0  0  0  0  0  0  0  0  0  0
  -26.6531  -25.8094   18.7155 O   0  0  0  0  0  0  0  0  0  1  0  0
  -19.8695   -4.9850   25.4632 F   0  0  0  0  0  0  0  0  0  0  0  0
  -21.8287   -8.9939   27.0428 F   0  0  0  0  0  0  0  0  0  0  0  0
  1  2  1  0  0  0  0
  1  5  2  0  0  0  0
  2  6  2  0  0  0  0
  3  8  2  0  0  0  0
  3 18  1  0  0  0  0
  4  9  1  0  0  0  0
  4 18  2  0  0  0  0
  5 22  1  0  0  0  0
  6 24  1  0  0  0  0
  7 10  2  0  0  0  0
  7 23  1  0  0  0  0
  8 27  1  0  0  0  0
  9 27  2  0  0  0  0
 10 28  1  0  0  0  0
 11 12  2  0  0  0  0
 11 29  1  0  0  0  0
 12 30  1  0  0  0  0
 13 19  2  0  0  0  0
 13 20  1  0  0  0  0
 14 19  1  0  0  0  0
 14 26  2  0  0  0  0
 15 20  2  0  0  0  0
 15 26  1  0  0  0  0
 16 25  1  0  0  0  0
 16 28  2  0  0  0  0
 17 30  2  0  0  0  0
 17 31  1  0  0  0  0
 18 32  1  0  0  0  0
 19 37  1  0  0  0  0
 20 39  1  0  0  0  0
 21 32  1  0  0  0  0
 21 33  2  0  0  0  0
 21 40  1  0  0  0  0
 22 24  2  0  0  0  0
 22 45  1  0  0  0  0
 23 25  2  0  0  0  0
 23 46  1  0  0  0  0
 24 56  1  0  0  0  0
 25 47  1  0  0  0  0
 26 77  1  0  0  0  0
 27 88  1  0  0  0  0
 28 89  1  0  0  0  0
 29 31  2  0  0  0  0
 29 88  1  0  0  0  0
 30 90  1  0  0  0  0
 31 91  1  0  0  0  0
 32 70  2  0  0  0  0
 33 71  1  0  0  0  0
 33 75  1  0  0  0  0
 34 35  2  0  0  0  0
 34 36  1  0  0  0  0
 34 66  1  0  0  0  0
 35 59  1  0  0  0  0
 35 72  1  0  0  0  0
 36 48  1  0  0  0  0
 36 81  2  0  0  0  0
 37 38  2  0  0  0  0
 38 60  1  0  0  0  0
 39 72  1  0  0  0  0
 39 82  2  0  0  0  0
 40 76  1  0  0  0  0
 40 83  2  0  0  0  0
 41 57  1  0  0  0  0
 41 78  1  0  0  0  0
 41 84  2  0  0  0  0
 42 67  1  0  0  0  0
 42 73  1  0  0  0  0
 42 85  2  0  0  0  0
 43 68  1  0  0  0  0
 43 79  1  0  0  0  0
 43 86  2  0  0  0  0
 44 74  1  0  0  0  0
 44 77  1  0  0  0  0
 44 87  2  0  0  0  0
 45 49  1  0  0  0  0
 46 57  1  0  0  0  0
 47 73  1  0  0  0  0
 48 53  1  0  0  0  0
 49 51  1  0  0  0  0
 50 52  1  0  0  0  0
 50 54  1  0  0  0  0
 51 56  1  0  0  0  0
 52 58  1  0  0  0  0
 53 72  1  0  0  0  0
 54 74  1  0  0  0  0
 55 58  1  0  0  0  0
 55 74  1  0  0  0  0
 56 78  1  0  0  0  0
 57 73  1  0  0  0  0
 58 71  1  0  0  0  0
 61 68  1  0  0  0  0
 62 69  1  0  0  0  0
 63 69  1  0  0  0  0
 64 69  1  0  0  0  0
 65 80  1  0  0  0  0
 66 89  1  0  0  0  0
 67 69  1  0  0  0  0
 67 79  1  0  0  0  0
 68 80  1  0  0  0  0
 70 71  1  0  0  0  0
M  CHG  1  80   1
M  ISO  4  44 100  66 101  77 100  89 101
M  END
> <Batch ID>
0112

> <Smiles>
CC=Cc1cc([100NH:0][100C:0](=O)N2CCCC(n3nc(-c4ccc(Oc5ccc(F)cc5F)cc4)c(C(N)=O)c3N)C2)cc(C(=O)N2CCC(=O)C([101CH2:1][101O:1]c3ccc4c(c3)CN(C(=O)C(NC(=O)C(C)NC)C(C)(C)C)C(C(=O)NC3CCCc5ccccc53)C4)=C2C)c1

> <Shape>
0.256

> <Color>
0.105

> <Negative vol penalty>
0.000

$$$$

  -OEChem-04052301313D

 84 93  0     1  0  0  0  0  0999 V2000
  -18.7088  -33.6350   23.8065 C   0  0  0  0  0  0  0  0  0  0  0  0
  -19.8955  -33.6459   23.0807 C   0  0  0  0  0  0  0  0  0  0  0  0
  -23.8350  -13.9795   20.9178 C   0  0  0  0  0  0  0  0  0  0  0  0
  -26.2510  -13.9744   20.9071 C   0  0  0  0  0  0  0  0  0  0  0  0
  -18.4003  -32.5452   24.6197 C   0  0  0  0  0  0  0  0  0  0  0  0
  -20.7751  -32.5675   23.1683 C   0  0  0  0  0  0  0  0  0  0  0  0
  -25.4990  -28.8825   19.2413 C   0  0  0  0  0  0  0  0  0  0  0  0
  -23.8343  -12.6696   21.3970 C   0  0  0  0  0  0  0  0  0  0  0  0
  -26.2503  -12.6644   21.3864 C   0  0  0  0  0  0  0  0  0  0  0  0
  -26.8201  -28.4388   19.2820 C   0  0  0  0  0  0  0  0  0  0  0  0
  -24.2687   -9.5599   20.1460 C   0  0  0  0  0  0  0  0  0  0  0  0
  -23.3912   -8.6534   19.5511 C   0  0  0  0  0  0  0  0  0  0  0  0
  -29.1881  -24.9048   16.3246 C   0  0  0  0  0  0  0  0  0  0  0  0
  -26.1455  -26.5753   20.6573 C   0  0  0  0  0  0  0  0  0  0  0  0
  -28.6011  -22.8969   17.5113 C   0  0  0  0  0  0  0  0  0  0  0  0
  -22.3165   -8.2935   21.6848 C   0  0  0  0  0  0  0  0  0  0  0  0
  -28.6367  -24.3312   15.1903 C   0  0  0  0  0  0  0  0  0  0  0  0
  -25.0433  -14.6319   20.6728 C   0  0  0  0  0  0  0  0  0  0  0  0
  -25.0508  -17.1690   20.9384 C   0  0  0  0  0  0  0  0  0  0  0  0
  -19.2720  -31.4486   24.7099 C   0  0  0  0  0  0  0  0  0  0  0  0
  -24.4913  -28.1808   19.9184 C   0  0  0  0  0  0  0  0  0  0  0  0
  -20.4787  -31.4626   23.9845 C   0  0  0  0  0  0  0  0  0  0  0  0
  -24.8120  -27.0108   20.6215 C   0  0  0  0  0  0  0  0  0  0  0  0
  -29.1660  -24.1674   17.5032 C   0  0  0  0  0  0  0  0  0  0  0  0
  -25.0419  -12.0120   21.6314 C   0  0  0  0  0  0  0  0  0  0  0  0
  -27.1440  -27.2867   19.9925 C   0  0  0  0  0  0  0  0  0  0  0  0
  -24.1702   -9.8331   21.5103 C   0  0  0  0  0  0  0  0  0  0  0  0
  -22.4151   -8.0202   20.3205 C   0  0  0  0  0  0  0  0  0  0  0  0
  -23.1941   -9.2000   22.2797 C   0  0  0  0  0  0  0  0  0  0  0  0
  -25.0447  -15.9849   20.1772 C   0  0  0  0  0  0  0  0  0  0  0  0
  -28.0758  -22.4132   16.3238 C   0  0  0  0  0  0  0  0  0  0  0  0
  -25.0497  -18.1770   20.0055 C   0  0  0  0  0  0  0  0  0  0  0  0
  -29.7699  -24.0837   19.9643 C   0  0  0  0  0  0  0  0  0  0  0  0
  -25.0570  -17.3424   22.3617 C   0  0  0  0  0  0  0  0  0  0  0  0
  -22.4847  -28.8652   22.2867 C   0  0  0  0  0  0  0  0  0  0  0  0
  -21.2652  -25.9445   21.5764 C   0  0  0  0  0  0  0  0  0  0  0  0
  -21.7574  -22.8504   20.2232 C   0  0  0  0  0  0  0  0  0  0  0  0
  -26.9217  -20.4359   15.2730 C   0  0  0  0  0  0  0  0  0  0  0  0
  -18.9180  -30.3143   25.6387 C   0  0  0  0  0  0  0  0  0  0  0  0
  -23.0668  -28.6577   19.8425 C   0  0  0  0  0  0  0  0  0  0  0  0
  -23.7638  -26.2100   21.3485 C   0  0  0  0  0  0  0  0  0  0  0  0
  -30.4625  -25.0259   20.9203 C   0  0  0  0  0  0  0  0  0  0  0  0
  -19.7270  -29.0447   25.3858 C   0  0  0  0  0  0  0  0  0  0  0  0
  -31.2001  -25.9817   20.0018 C   0  0  0  0  0  0  0  0  0  0  0  0
  -24.3097  -18.0316   15.0001 C   0  0  0  0  0  0  0  0  0  0  0  0
  -21.2081  -29.3768   25.2347 C   0  0  0  0  0  0  0  0  0  0  0  0
  -24.2686  -17.3822   16.3853 C   0  0  0  0  0  0  0  0  0  0  0  0
  -25.7377  -18.3663   14.5729 C   0  0  0  0  0  0  0  0  0  0  0  0
  -26.4619  -18.5169   16.9228 C   0  0  0  0  0  0  0  0  0  0  0  0
  -21.4467  -30.3005   24.0341 C   0  0  1  0  0  0  0  0  0  0  0  0
  -22.2049  -28.1509   20.9947 C   0  0  1  0  0  0  0  0  0  0  0  0
  -25.0390  -18.2208   17.4240 C   0  0  2  0  0  0  0  0  0  0  0  0
  -30.3142  -26.0492   18.7628 C   0  0  2  0  0  0  0  0  0  0  0  0
  -20.5877  -20.6666   19.8230 C   0  0  0  0  0  0  0  0  0  0  0  0
  -21.6114  -25.2224   24.5206 C   0  0  0  0  0  0  0  0  0  0  0  0
  -21.3445  -22.8143   23.8895 C   0  0  0  0  0  0  0  0  0  0  0  0
  -19.4769  -24.4200   23.4937 C   0  0  0  0  0  0  0  0  0  0  0  0
  -22.0501  -23.0985   17.2886 C   0  0  0  0  0  0  0  0  0  0  0  0
  -29.2538  -27.1436   18.9044 C   0  0  0  0  0  0  0  0  0  1  0  0
  -21.5381  -24.5320   22.0339 C   0  0  1  0  0  0  0  0  0  0  0  0
  -20.9277  -22.0333   19.2493 C   0  0  2  0  0  0  0  0  0  0  0  0
  -21.0130  -24.2631   23.4724 C   0  0  0  0  0  0  0  0  0  0  0  0
  -28.0792  -23.1000   15.1594 N   0  0  0  0  0  0  0  0  0  0  0  0
  -25.0399  -16.2174   18.8619 N   0  0  0  0  0  0  0  0  0  0  0  0
  -25.0429  -17.5594   18.7895 N   0  0  0  0  0  0  0  0  0  0  0  0
  -29.7232  -24.7151   18.7032 N   0  0  0  0  0  0  0  0  0  0  0  0
  -22.3864  -26.7204   21.2498 N   0  0  0  0  0  0  0  0  0  0  0  0
  -26.4040  -19.1656   15.6034 N   0  0  0  0  0  0  0  0  0  0  0  0
  -25.0537  -19.5225   20.1148 N   0  0  0  0  0  0  0  0  0  0  0  0
  -25.0574  -16.2002   23.1739 N   0  0  0  0  0  0  0  0  0  0  0  0
  -27.5038  -21.1170   16.3415 N   0  0  0  0  0  0  0  0  0  0  0  0
  -21.3977  -29.5473   22.7993 N   0  0  0  0  0  0  0  0  0  0  0  0
  -20.9677  -23.6559   21.0162 N   0  0  0  0  0  0  0  0  0  0  0  0
  -21.6721  -21.8356   17.9735 N   0  3  0  0  0  0  0  0  0  0  0  0
  -29.3337  -22.9990   20.3218 O   0  0  0  0  0  0  0  0  0  0  0  0
  -25.0455  -18.4766   22.8974 O   0  0  0  0  0  0  0  0  0  0  0  0
  -23.6035  -28.8011   22.7825 O   0  0  0  0  0  0  0  0  0  0  0  0
  -20.0998  -26.3424   21.5044 O   0  0  0  0  0  0  0  0  0  0  0  0
  -22.9831  -22.7783   20.2777 O   0  0  0  0  0  0  0  0  0  0  0  0
  -26.8293  -20.8977   14.1328 O   0  0  0  0  0  0  0  0  0  0  0  0
  -25.0416  -10.7339   22.0992 O   0  0  0  0  0  0  0  0  0  0  0  0
  -28.4328  -26.8518   20.0345 O   0  0  0  0  0  0  0  0  0  1  0  0
  -21.5715   -7.1510   19.7488 F   0  0  0  0  0  0  0  0  0  0  0  0
  -23.0938   -9.4594   23.5906 F   0  0  0  0  0  0  0  0  0  0  0  0
  1  2  1  0  0  0  0
  1  5  2  0  0  0  0
  2  6  2  0  0  0  0
  3  8  2  0  0  0  0
  3 18  1  0  0  0  0
  4  9  1  0  0  0  0
  4 18  2  0  0  0  0
  5 20  1  0  0  0  0
  6 22  1  0  0  0  0
  7 10  2  0  0  0  0
  7 21  1  0  0  0  0
  8 25  1  0  0  0  0
  9 25  2  0  0  0  0
 10 26  1  0  0  0  0
 11 12  2  0  0  0  0
 11 27  1  0  0  0  0
 12 28  1  0  0  0  0
 13 17  2  0  0  0  0
 13 24  1  0  0  0  0
 14 23  1  0  0  0  0
 14 26  2  0  0  0  0
 15 24  2  0  0  0  0
 15 31  1  0  0  0  0
 16 28  2  0  0  0  0
 16 29  1  0  0  0  0
 17 63  1  0  0  0  0
 18 30  1  0  0  0  0
 19 30  1  0  0  0  0
 19 32  2  0  0  0  0
 19 34  1  0  0  0  0
 20 22  2  0  0  0  0
 20 39  1  0  0  0  0
 21 23  2  0  0  0  0
 21 40  1  0  0  0  0
 22 50  1  0  0  0  0
 23 41  1  0  0  0  0
 24 66  1  0  0  0  0
 25 81  1  0  0  0  0
 26 82  1  0  0  0  0
 27 29  2  0  0  0  0
 27 81  1  0  0  0  0
 28 83  1  0  0  0  0
 29 84  1  0  0  0  0
 30 64  2  0  0  0  0
 31 63  2  0  0  0  0
 31 71  1  0  0  0  0
 32 65  1  0  0  0  0
 32 69  1  0  0  0  0
 33 42  1  0  0  0  0
 33 66  1  0  0  0  0
 33 75  2  0  0  0  0
 34 70  1  0  0  0  0
 34 76  2  0  0  0  0
 35 51  1  0  0  0  0
 35 72  1  0  0  0  0
 35 77  2  0  0  0  0
 36 60  1  0  0  0  0
 36 67  1  0  0  0  0
 36 78  2  0  0  0  0
 37 61  1  0  0  0  0
 37 73  1  0  0  0  0
 37 79  2  0  0  0  0
 38 68  1  0  0  0  0
 38 71  1  0  0  0  0
 38 80  2  0  0  0  0
 39 43  1  0  0  0  0
 40 51  1  0  0  0  0
 41 67  1  0  0  0  0
 42 44  1  0  0  0  0
 43 46  1  0  0  0  0
 44 53  1  0  0  0  0
 45 47  1  0  0  0  0
 45 48  1  0  0  0  0
 46 50  1  0  0  0  0
 47 52  1  0  0  0  0
 48 68  1  0  0  0  0
 49 52  1  0  0  0  0
 49 68  1  0  0  0  0
 50 72  1  0  0  0  0
 51 67  1  0  0  0  0
 52 65  1  0  0  0  0
 53 59  1  0  0  0  0
 53 66  1  0  0  0  0
 54 61  1  0  0  0  0
 55 62  1  0  0  0  0
 56 62  1  0  0  0  0
 57 62  1  0  0  0  0
 58 74  1  0  0  0  0
 59 82  1  0  0  0  0
 60 62  1  0  0  0  0
 60 73  1  0  0  0  0
 61 74  1  0  0  0  0
 64 65  1  0  0  0  0
M  CHG  1  74   1
M  ISO  4  38 100  59 101  71 100  82 101
M  END
> <Batch ID>
0112

> <Smiles>
CNC(C)C(=O)NC(C(=O)N1Cc2cc([101O:1][101CH2:1]C3CCC(=O)N3c3ccnc([100NH:0][100C:0](=O)N4CCCC(n5nc(-c6ccc(Oc7ccc(F)cc7F)cc6)c(C(N)=O)c5N)C4)c3)ccc2CC1C(=O)NC1CCCc2ccccc21)C(C)(C)C

> <Shape>
0.197

> <Color>
0.090

> <Negative vol penalty>
0.000

$$$$

  -OEChem-04052301313D

 88 97  0     1  0  0  0  0  0999 V2000
  -24.6505  -28.9920   19.1910 C   0  0  0  0  0  0  0  0  0  0  0  0
  -25.2766  -27.7969   19.5304 C   0  0  0  0  0  0  0  0  0  0  0  0
  -23.0193   -9.9213   19.9041 C   0  0  0  0  0  0  0  0  0  0  0  0
  -23.8542   -9.7768   22.1666 C   0  0  0  0  0  0  0  0  0  0  0  0
  -25.1962  -30.2059   19.6064 C   0  0  0  0  0  0  0  0  0  0  0  0
  -26.4493  -27.8150   20.2846 C   0  0  0  0  0  0  0  0  0  0  0  0
  -28.1890  -23.7118   24.4849 C   0  0  0  0  0  0  0  0  0  0  0  0
  -22.2606   -8.7692   20.1104 C   0  0  0  0  0  0  0  0  0  0  0  0
  -23.0955   -8.6247   22.3730 C   0  0  0  0  0  0  0  0  0  0  0  0
  -29.0586  -22.6235   24.4291 C   0  0  0  0  0  0  0  0  0  0  0  0
  -19.8732   -7.8521   23.0368 C   0  0  0  0  0  0  0  0  0  0  0  0
  -19.1545   -7.7561   24.2284 C   0  0  0  0  0  0  0  0  0  0  0  0
  -32.2238  -16.3274   22.6005 C   0  0  0  0  0  0  0  0  0  0  0  0
  -30.8322  -24.0033   25.3066 C   0  0  0  0  0  0  0  0  0  0  0  0
  -30.0774  -17.1782   23.3121 C   0  0  0  0  0  0  0  0  0  0  0  0
  -20.3795   -5.7554   24.8060 C   0  0  0  0  0  0  0  0  0  0  0  0
  -23.8162  -10.4251   20.9321 C   0  0  0  0  0  0  0  0  0  0  0  0
  -32.8580  -17.1449   23.5359 C   0  0  0  0  0  0  0  0  0  0  0  0
  -24.2056  -12.9461   20.9504 C   0  0  0  0  0  0  0  0  0  0  0  0
  -26.3709  -30.2385   20.3743 C   0  0  0  0  0  0  0  0  0  0  0  0
  -28.6381  -24.9590   24.9424 C   0  0  0  0  0  0  0  0  0  0  0  0
  -27.0119  -29.0306   20.7095 C   0  0  0  0  0  0  0  0  0  0  0  0
  -29.9656  -25.1052   25.3696 C   0  0  0  0  0  0  0  0  0  0  0  0
  -32.1019  -17.9790   24.3595 C   0  0  0  0  0  0  0  0  0  0  0  0
  -30.8335  -16.3441   22.4885 C   0  0  0  0  0  0  0  0  0  0  0  0
  -30.7116  -17.9957   24.2476 C   0  0  0  0  0  0  0  0  0  0  0  0
  -22.2986   -8.1209   21.3449 C   0  0  0  0  0  0  0  0  0  0  0  0
  -30.3812  -22.7699   24.8373 C   0  0  0  0  0  0  0  0  0  0  0  0
  -20.8450   -6.8997   22.7298 C   0  0  0  0  0  0  0  0  0  0  0  0
  -19.4077   -6.7078   25.1130 C   0  0  0  0  0  0  0  0  0  0  0  0
  -21.0981   -5.8514   23.6144 C   0  0  0  0  0  0  0  0  0  0  0  0
  -24.6006  -11.6148   20.7194 C   0  0  0  0  0  0  0  0  0  0  0  0
  -25.3004  -13.6957   20.5952 C   0  0  0  0  0  0  0  0  0  0  0  0
  -35.0739  -19.8233   24.9842 C   0  0  0  0  0  0  0  0  0  0  0  0
  -35.1187  -17.4328   22.6296 C   0  0  0  0  0  0  0  0  0  0  0  0
  -34.3118  -17.1024   23.6266 C   0  0  0  0  0  0  0  0  0  0  0  0
  -22.9604  -13.4593   21.4422 C   0  0  0  0  0  0  0  0  0  0  0  0
  -28.8968  -27.8573   23.6631 C   0  0  0  0  0  0  0  0  0  0  0  0
  -29.7367  -28.6898   26.6837 C   0  0  0  0  0  0  0  0  0  0  0  0
  -30.9982  -27.7348   29.7074 C   0  0  0  0  0  0  0  0  0  0  0  0
  -30.7896  -14.6276   20.6452 C   0  0  0  0  0  0  0  0  0  0  0  0
  -26.9490  -31.5770   20.7601 C   0  0  0  0  0  0  0  0  0  0  0  0
  -27.6806  -26.1163   25.0216 C   0  0  0  0  0  0  0  0  0  0  0  0
  -30.4918  -26.4178   25.8880 C   0  0  0  0  0  0  0  0  0  0  0  0
  -35.6369  -20.9553   24.1602 C   0  0  0  0  0  0  0  0  0  0  0  0
  -27.9892  -31.4930   21.8742 C   0  0  0  0  0  0  0  0  0  0  0  0
  -34.5458  -21.2202   23.1269 C   0  0  0  0  0  0  0  0  0  0  0  0
  -29.5486  -12.3810   18.1774 C   0  0  0  0  0  0  0  0  0  0  0  0
  -28.9802  -30.3673   21.5955 C   0  0  0  0  0  0  0  0  0  0  0  0
  -28.1182  -12.0909   18.6377 C   0  0  0  0  0  0  0  0  0  0  0  0
  -30.5073  -12.5204   19.3586 C   0  0  0  0  0  0  0  0  0  0  0  0
  -28.6621  -13.1960   20.8445 C   0  0  0  0  0  0  0  0  0  0  0  0
  -28.2719  -29.0081   21.5474 C   0  0  1  0  0  0  0  0  0  0  0  0
  -28.3803  -27.4719   25.0204 C   0  0  1  0  0  0  0  0  0  0  0  0
  -27.6477  -13.1117   19.6923 C   0  0  2  0  0  0  0  0  0  0  0  0
  -33.2532  -20.8202   23.8317 C   0  0  2  0  0  0  0  0  0  0  0  0
  -31.6012  -28.6454   31.9668 C   0  0  0  0  0  0  0  0  0  0  0  0
  -32.2579  -29.9398   25.5042 C   0  0  0  0  0  0  0  0  0  0  0  0
  -33.2369  -29.9698   27.8084 C   0  0  0  0  0  0  0  0  0  0  0  0
  -31.1753  -31.2844   27.3138 C   0  0  0  0  0  0  0  0  0  0  0  0
  -29.0532  -25.9668   31.0676 C   0  0  0  0  0  0  0  0  0  0  0  0
  -32.7764  -18.8612   25.3699 C   0  0  0  0  0  0  0  0  0  0  0  0
  -32.6130  -21.9952   24.5638 C   0  0  0  0  0  0  0  0  0  1  0  0
  -31.0350  -28.7637   27.4504 C   0  0  1  0  0  0  0  0  0  0  0  0
  -30.5180  -27.9890   31.1249 C   0  0  2  0  0  0  0  0  0  0  0  0
  -31.9172  -29.9651   27.0076 C   0  0  0  0  0  0  0  0  0  0  0  0
  -25.8488  -11.5208   20.2533 N   0  0  0  0  0  0  0  0  0  0  0  0
  -26.2475  -12.8026   20.1885 N   0  0  0  0  0  0  0  0  0  0  0  0
  -33.7011  -19.7878   24.7492 N   0  0  0  0  0  0  0  0  0  0  0  0
  -29.5186  -27.5212   25.9402 N   0  0  0  0  0  0  0  0  0  0  0  0
  -29.9987  -13.5070   20.3141 N   0  0  0  0  0  0  0  0  0  0  0  0
  -29.9279  -18.8328   25.0726 N   0  0  0  0  0  0  0  0  0  0  0  0
  -25.5355  -15.0250   20.5941 N   0  0  0  0  0  0  0  0  0  0  0  0
  -21.9417  -12.5505   21.7593 N   0  0  0  0  0  0  0  0  0  0  0  0
  -30.1886  -15.5137   21.5386 N   0  0  0  0  0  0  0  0  0  0  0  0
  -27.9816  -28.5418   22.8864 N   0  0  0  0  0  0  0  0  0  0  0  0
  -30.6742  -28.7763   28.8639 N   0  0  0  0  0  0  0  0  0  0  0  0
  -30.1278  -26.7073   31.7774 N   0  3  0  0  0  0  0  0  0  0  0  0
  -35.7315  -19.1170   25.7339 O   0  0  0  0  0  0  0  0  0  0  0  0
  -22.7515  -14.6885   21.5804 O   0  0  0  0  0  0  0  0  0  0  0  0
  -30.0415  -27.5572   23.3446 O   0  0  0  0  0  0  0  0  0  0  0  0
  -28.9420  -29.6311   26.7479 O   0  0  0  0  0  0  0  0  0  0  0  0
  -31.6037  -26.7160   29.3819 O   0  0  0  0  0  0  0  0  0  0  0  0
  -31.9059  -14.8031   20.1502 O   0  0  0  0  0  0  0  0  0  0  0  0
  -21.5582   -6.9968   21.5467 O   0  0  0  0  0  0  0  0  0  0  0  0
  -31.2322  -21.7094   24.7833 O   0  0  0  0  0  0  0  0  0  1  0  0
  -18.7185   -6.6166   26.2580 F   0  0  0  0  0  0  0  0  0  0  0  0
  -22.0313   -4.9341   23.3254 F   0  0  0  0  0  0  0  0  0  0  0  0
  1  2  1  0  0  0  0
  1  5  2  0  0  0  0
  2  6  2  0  0  0  0
  3  8  2  0  0  0  0
  3 17  1  0  0  0  0
  4  9  1  0  0  0  0
  4 17  2  0  0  0  0
  5 20  1  0  0  0  0
  6 22  1  0  0  0  0
  7 10  2  0  0  0  0
  7 21  1  0  0  0  0
  8 27  1  0  0  0  0
  9 27  2  0  0  0  0
 10 28  1  0  0  0  0
 11 12  2  0  0  0  0
 11 29  1  0  0  0  0
 12 30  1  0  0  0  0
 13 18  1  0  0  0  0
 13 25  2  0  0  0  0
 14 23  1  0  0  0  0
 14 28  2  0  0  0  0
 15 25  1  0  0  0  0
 15 26  2  0  0  0  0
 16 30  2  0  0  0  0
 16 31  1  0  0  0  0
 17 32  1  0  0  0  0
 18 24  2  0  0  0  0
 18 36  1  0  0  0  0
 19 32  1  0  0  0  0
 19 33  2  0  0  0  0
 19 37  1  0  0  0  0
 20 22  2  0  0  0  0
 20 42  1  0  0  0  0
 21 23  2  0  0  0  0
 21 43  1  0  0  0  0
 22 53  1  0  0  0  0
 23 44  1  0  0  0  0
 24 26  1  0  0  0  0
 24 62  1  0  0  0  0
 25 75  1  0  0  0  0
 26 72  1  0  0  0  0
 27 85  1  0  0  0  0
 28 86  1  0  0  0  0
 29 31  2  0  0  0  0
 29 85  1  0  0  0  0
 30 87  1  0  0  0  0
 31 88  1  0  0  0  0
 32 67  2  0  0  0  0
 33 68  1  0  0  0  0
 33 73  1  0  0  0  0
 34 45  1  0  0  0  0
 34 69  1  0  0  0  0
 34 79  2  0  0  0  0
 35 36  2  0  0  0  0
 37 74  1  0  0  0  0
 37 80  2  0  0  0  0
 38 54  1  0  0  0  0
 38 76  1  0  0  0  0
 38 81  2  0  0  0  0
 39 64  1  0  0  0  0
 39 70  1  0  0  0  0
 39 82  2  0  0  0  0
 40 65  1  0  0  0  0
 40 77  1  0  0  0  0
 40 83  2  0  0  0  0
 41 71  1  0  0  0  0
 41 75  1  0  0  0  0
 41 84  2  0  0  0  0
 42 46  1  0  0  0  0
 43 54  1  0  0  0  0
 44 70  1  0  0  0  0
 45 47  1  0  0  0  0
 46 49  1  0  0  0  0
 47 56  1  0  0  0  0
 48 50  1  0  0  0  0
 48 51  1  0  0  0  0
 49 53  1  0  0  0  0
 50 55  1  0  0  0  0
 51 71  1  0  0  0  0
 52 55  1  0  0  0  0
 52 71  1  0  0  0  0
 53 76  1  0  0  0  0
 54 70  1  0  0  0  0
 55 68  1  0  0  0  0
 56 63  1  0  0  0  0
 56 69  1  0  0  0  0
 57 65  1  0  0  0  0
 58 66  1  0  0  0  0
 59 66  1  0  0  0  0
 60 66  1  0  0  0  0
 61 78  1  0  0  0  0
 62 69  1  0  0  0  0
 63 86  1  0  0  0  0
 64 66  1  0  0  0  0
 64 77  1  0  0  0  0
 65 78  1  0  0  0  0
 67 68  1  0  0  0  0
M  CHG  1  78   1
M  ISO  4  41 100  63 101  75 100  86 101
M  END
> <Batch ID>
0112

> <Smiles>
C=Cc1cc([100NH:0][100C:0](=O)N2CCCC(n3nc(-c4ccc(Oc5ccc(F)cc5F)cc4)c(C(N)=O)c3N)C2)cc(N)c1CN1C(=O)CCC1[101CH2:1][101O:1]c1ccc2c(c1)CN(C(=O)C(NC(=O)C(C)NC)C(C)(C)C)C(C(=O)NC1CCCc3ccccc31)C2

> <Shape>
0.216

> <Color>
0.189

> <Negative vol penalty>
0.000

$$$$

  -OEChem-04052301313D

 90 99  0     1  0  0  0  0  0999 V2000
  -28.0366  -37.1301   20.9837 C   0  0  0  0  0  0  0  0  0  0  0  0
  -28.3572  -35.8732   20.4809 C   0  0  0  0  0  0  0  0  0  0  0  0
  -23.8013   -9.8018   21.5875 C   0  0  0  0  0  0  0  0  0  0  0  0
  -24.3560  -10.9407   23.6448 C   0  0  0  0  0  0  0  0  0  0  0  0
  -27.4162  -37.2448   22.2270 C   0  0  0  0  0  0  0  0  0  0  0  0
  -28.0586  -34.7302   21.2217 C   0  0  0  0  0  0  0  0  0  0  0  0
  -26.3570  -29.2677   19.0373 C   0  0  0  0  0  0  0  0  0  0  0  0
  -23.2724   -8.7383   22.3189 C   0  0  0  0  0  0  0  0  0  0  0  0
  -23.8270   -9.8773   24.3761 C   0  0  0  0  0  0  0  0  0  0  0  0
  -27.0652  -28.0905   18.7997 C   0  0  0  0  0  0  0  0  0  0  0  0
  -20.4208   -8.0443   23.9981 C   0  0  0  0  0  0  0  0  0  0  0  0
  -19.1907   -7.5270   23.5924 C   0  0  0  0  0  0  0  0  0  0  0  0
  -30.8516  -18.8830   19.7279 C   0  0  0  0  0  0  0  0  0  0  0  0
  -26.3689  -27.2449   20.9490 C   0  0  0  0  0  0  0  0  0  0  0  0
  -28.8940  -20.7106   20.5092 C   0  0  0  0  0  0  0  0  0  0  0  0
  -20.2157   -5.3682   23.2373 C   0  0  0  0  0  0  0  0  0  0  0  0
  -24.3432  -10.9030   22.2505 C   0  0  0  0  0  0  0  0  0  0  0  0
  -31.0827  -20.2521   19.5945 C   0  0  0  0  0  0  0  0  0  0  0  0
  -24.2073  -13.1474   21.0456 C   0  0  0  0  0  0  0  0  0  0  0  0
  -27.1011  -36.1021   22.9791 C   0  0  0  0  0  0  0  0  0  0  0  0
  -25.6572  -29.4470   20.2392 C   0  0  0  0  0  0  0  0  0  0  0  0
  -27.4346  -34.8298   22.4769 C   0  0  0  0  0  0  0  0  0  0  0  0
  -25.6505  -28.4242   21.1983 C   0  0  0  0  0  0  0  0  0  0  0  0
  -30.1039  -21.1659   19.9852 C   0  0  0  0  0  0  0  0  0  0  0  0
  -29.6417  -18.4277   20.2519 C   0  0  0  0  0  0  0  0  0  0  0  0
  -23.2852   -8.7761   23.7132 C   0  0  0  0  0  0  0  0  0  0  0  0
  -27.0736  -27.0800   19.7568 C   0  0  0  0  0  0  0  0  0  0  0  0
  -21.5485   -7.2237   24.0234 C   0  0  0  0  0  0  0  0  0  0  0  0
  -28.6629  -19.3415   20.6426 C   0  0  0  0  0  0  0  0  0  0  0  0
  -19.0881   -6.1889   23.2120 C   0  0  0  0  0  0  0  0  0  0  0  0
  -21.4459   -5.8856   23.6430 C   0  0  0  0  0  0  0  0  0  0  0  0
  -24.8903  -12.0016   21.4956 C   0  0  0  0  0  0  0  0  0  0  0  0
  -25.1630  -13.8790   20.3838 C   0  0  0  0  0  0  0  0  0  0  0  0
  -29.8442  -24.7969   19.7513 C   0  0  0  0  0  0  0  0  0  0  0  0
  -29.0708  -25.8745   19.9256 C   0  0  0  0  0  0  0  0  0  1  0  0
  -32.3569  -20.6960   19.0433 C   0  0  0  0  0  0  0  0  0  0  0  0
  -22.8320  -13.5174   21.2110 C   0  0  0  0  0  0  0  0  0  0  0  0
  -25.8449  -31.4992   22.6594 C   0  0  0  0  0  0  0  0  0  0  0  0
  -23.1582  -29.9752   23.6501 C   0  0  0  0  0  0  0  0  0  0  0  0
  -21.2321  -27.1588   23.5803 C   0  0  0  0  0  0  0  0  0  0  0  0
  -30.2978  -16.0047   20.0398 C   0  0  0  0  0  0  0  0  0  0  0  0
  -26.4731  -36.2785   24.3390 C   0  0  0  0  0  0  0  0  0  0  0  0
  -24.8762  -30.7118   20.4690 C   0  0  0  0  0  0  0  0  0  0  0  0
  -24.8986  -28.5591   22.4963 C   0  0  0  0  0  0  0  0  0  0  0  0
  -31.2759  -24.6918   20.1703 C   0  0  0  0  0  0  0  0  0  0  0  0
  -25.8516  -34.9993   24.8935 C   0  0  0  0  0  0  0  0  0  0  0  0
  -29.8600  -12.6401   18.9607 C   0  0  0  0  0  0  0  0  0  0  0  0
  -26.8078  -33.8233   24.7218 C   0  0  0  0  0  0  0  0  0  0  0  0
  -28.4718  -12.2682   19.4869 C   0  0  0  0  0  0  0  0  0  0  0  0
  -31.4123  -23.2186   20.5416 C   0  0  0  0  0  0  0  0  0  0  0  0
  -30.6136  -13.5421   19.9365 C   0  0  0  0  0  0  0  0  0  0  0  0
  -28.4973  -14.3737   20.8846 C   0  0  0  0  0  0  0  0  0  0  0  0
  -27.1043  -33.5651   23.2396 C   0  0  1  0  0  0  0  0  0  0  0  0
  -29.3769  -23.4644   19.2240 C   0  0  1  0  0  0  0  0  0  0  0  0
  -24.6216  -30.9969   21.9459 C   0  0  1  0  0  0  0  0  0  0  0  0
  -27.6747  -13.5188   19.9067 C   0  0  2  0  0  0  0  0  0  0  0  0
  -29.5069  -23.4161   17.7025 C   0  0  0  0  0  0  0  0  0  0  0  0
  -26.2766  -18.2969   23.1339 C   0  0  0  0  0  0  0  0  0  0  0  0
  -19.1131  -26.1977   24.5203 C   0  0  0  0  0  0  0  0  0  0  0  0
  -24.5560  -29.5139   26.3228 C   0  0  0  0  0  0  0  0  0  0  0  0
  -22.8269  -27.7812   26.8487 C   0  0  0  0  0  0  0  0  0  0  0  0
  -22.1457  -30.1559   26.5032 C   0  0  0  0  0  0  0  0  0  0  0  0
  -20.0404  -26.8519   20.8887 C   0  0  0  0  0  0  0  0  0  0  0  0
  -27.1486  -19.3451   22.4763 C   0  0  0  0  0  0  0  0  0  0  0  0
  -22.8688  -28.7721   24.5147 C   0  0  1  0  0  0  0  0  0  0  0  0
  -19.7421  -26.9626   23.3661 C   0  0  2  0  0  0  0  0  0  0  0  0
  -23.1152  -29.0537   26.0238 C   0  0  0  0  0  0  0  0  0  0  0  0
  -26.1801  -12.0007   21.1488 N   0  0  0  0  0  0  0  0  0  0  0  0
  -26.3153  -13.1549   20.4739 N   0  0  0  0  0  0  0  0  0  0  0  0
  -30.3134  -22.5289   19.8599 N   0  0  3  0  0  0  0  0  0  0  0  0
  -24.1553  -29.8170   22.6771 N   0  0  0  0  0  0  0  0  0  0  0  0
  -29.7990  -14.7080   20.2858 N   0  0  0  0  0  0  0  0  0  0  0  0
  -25.1217  -15.0645   19.7395 N   0  0  0  0  0  0  0  0  0  0  0  0
  -32.4398  -20.8628   17.6655 N   0  0  0  0  0  0  0  0  0  0  0  0
  -21.9873  -12.6506   21.9178 N   0  0  0  0  0  0  0  0  0  0  0  0
  -29.4217  -17.0341   20.3825 N   0  0  0  0  0  0  0  0  0  0  0  0
  -25.9975  -32.8719   22.6160 N   0  0  0  0  0  0  0  0  0  0  0  0
  -21.5052  -28.3607   24.1985 N   0  0  0  0  0  0  0  0  0  0  0  0
  -19.4953  -26.2022   22.1084 N   0  3  0  0  0  0  0  0  0  0  0  0
  -33.3393  -20.9020   19.7745 O   0  0  0  0  0  0  0  0  0  0  0  0
  -22.3622  -14.5772   20.7318 O   0  0  0  0  0  0  0  0  0  0  0  0
  -26.5940  -30.7007   23.2097 O   0  0  0  0  0  0  0  0  0  0  0  0
  -22.5181  -31.0148   23.8265 O   0  0  0  0  0  0  0  0  0  0  0  0
  -22.0695  -26.3274   23.2371 O   0  0  0  0  0  0  0  0  0  0  0  0
  -31.4086  -16.1879   19.5352 O   0  0  0  0  0  0  0  0  0  0  0  0
  -22.7689   -7.7386   24.4271 O   0  0  0  0  0  0  0  0  0  0  0  0
  -27.7646  -25.9303   19.5276 O   0  0  0  0  0  0  0  0  0  1  0  0
  -27.4737  -18.9169   21.1556 O   0  0  0  0  0  0  0  0  0  0  0  0
  -17.9064   -5.6918   22.8239 F   0  0  0  0  0  0  0  0  0  0  0  0
  -22.5255   -5.0920   23.6663 F   0  0  0  0  0  0  0  0  0  0  0  0
  1  2  1  0  0  0  0
  1  5  2  0  0  0  0
  2  6  2  0  0  0  0
  3  8  2  0  0  0  0
  3 17  1  0  0  0  0
  4  9  1  0  0  0  0
  4 17  2  0  0  0  0
  5 20  1  0  0  0  0
  6 22  1  0  0  0  0
  7 10  2  0  0  0  0
  7 21  1  0  0  0  0
  8 26  1  0  0  0  0
  9 26  2  0  0  0  0
 10 27  1  0  0  0  0
 11 12  2  0  0  0  0
 11 28  1  0  0  0  0
 12 30  1  0  0  0  0
 13 18  2  0  0  0  0
 13 25  1  0  0  0  0
 14 23  1  0  0  0  0
 14 27  2  0  0  0  0
 15 24  2  0  0  0  0
 15 29  1  0  0  0  0
 16 30  2  0  0  0  0
 16 31  1  0  0  0  0
 17 32  1  0  0  0  0
 18 24  1  0  0  0  0
 18 36  1  0  0  0  0
 19 32  1  0  0  0  0
 19 33  2  0  0  0  0
 19 37  1  0  0  0  0
 20 22  2  0  0  0  0
 20 42  1  0  0  0  0
 21 23  2  0  0  0  0
 21 43  1  0  0  0  0
 22 53  1  0  0  0  0
 23 44  1  0  0  0  0
 24 70  1  0  0  0  0
 25 29  2  0  0  0  0
 25 76  1  0  0  0  0
 26 86  1  0  0  0  0
 27 87  1  0  0  0  0
 28 31  2  0  0  0  0
 28 86  1  0  0  0  0
 29 88  1  0  0  0  0
 30 89  1  0  0  0  0
 31 90  1  0  0  0  0
 32 68  2  0  0  0  0
 33 69  1  0  0  0  0
 33 73  1  0  0  0  0
 34 35  2  0  0  0  0
 34 45  1  0  0  0  0
 34 54  1  0  0  0  0
 35 87  1  0  0  0  0
 36 74  1  0  0  0  0
 36 80  2  0  0  0  0
 37 75  1  0  0  0  0
 37 81  2  0  0  0  0
 38 55  1  0  0  0  0
 38 77  1  0  0  0  0
 38 82  2  0  0  0  0
 39 65  1  0  0  0  0
 39 71  1  0  0  0  0
 39 83  2  0  0  0  0
 40 66  1  0  0  0  0
 40 78  1  0  0  0  0
 40 84  2  0  0  0  0
 41 72  1  0  0  0  0
 41 76  1  0  0  0  0
 41 85  2  0  0  0  0
 42 46  1  0  0  0  0
 43 55  1  0  0  0  0
 44 71  1  0  0  0  0
 45 50  1  0  0  0  0
 46 48  1  0  0  0  0
 47 49  1  0  0  0  0
 47 51  1  0  0  0  0
 48 53  1  0  0  0  0
 49 56  1  0  0  0  0
 50 70  1  0  0  0  0
 51 72  1  0  0  0  0
 52 56  1  0  0  0  0
 52 72  1  0  0  0  0
 53 77  1  0  0  0  0
 54 57  1  0  0  0  0
 54 70  1  0  0  0  0
 55 71  1  0  0  0  0
 56 69  1  0  0  0  0
 58 64  1  0  0  0  0
 59 66  1  0  0  0  0
 60 67  1  0  0  0  0
 61 67  1  0  0  0  0
 62 67  1  0  0  0  0
 63 79  1  0  0  0  0
 64 88  1  0  0  0  0
 65 67  1  0  0  0  0
 65 78  1  0  0  0  0
 66 79  1  0  0  0  0
 68 69  1  0  0  0  0
M  CHG  1  79   1
M  ISO  4  35 101  41 100  76 100  87 101
M  END
> <Batch ID>
0112

> <Smiles>
CCOc1cc(N2CCC(=[101CH:1][101O:1]c3ccc4c(c3)CN(C(=O)C(NC(=O)C(C)NC)C(C)(C)C)C(C(=O)NC3CCCc5ccccc53)C4)C2C)c(C(N)=O)cc1[100NH:0][100C:0](=O)N1CCCC(n2nc(-c3ccc(Oc4ccc(F)cc4F)cc3)c(C(N)=O)c2N)C1

> <Shape>
0.357

> <Color>
0.141

> <Negative vol penalty>
0.000

$$$$

  -OEChem-04052301313D

 82 91  0     1  0  0  0  0  0999 V2000
  -27.5374  -34.1137   26.7189 C   0  0  0  0  0  0  0  0  0  0  0  0
  -27.8719  -32.9151   26.0971 C   0  0  0  0  0  0  0  0  0  0  0  0
  -23.1668  -10.4229   20.7467 C   0  0  0  0  0  0  0  0  0  0  0  0
  -24.6205   -9.1024   22.1539 C   0  0  0  0  0  0  0  0  0  0  0  0
  -26.1990  -34.4852   26.8399 C   0  0  0  0  0  0  0  0  0  0  0  0
  -26.8680  -32.0866   25.5968 C   0  0  0  0  0  0  0  0  0  0  0  0
  -27.1490  -28.5748   20.5875 C   0  0  0  0  0  0  0  0  0  0  0  0
  -29.5650  -20.4279   19.3063 C   0  0  0  0  0  0  0  0  0  0  0  0
  -29.5620  -19.0320   19.2306 C   0  0  0  0  0  0  0  0  0  0  0  0
  -22.2991   -9.3377   20.6247 C   0  0  0  0  0  0  0  0  0  0  0  0
  -23.7527   -8.0171   22.0319 C   0  0  0  0  0  0  0  0  0  0  0  0
  -27.4055  -27.2162   20.4075 C   0  0  0  0  0  0  0  0  0  0  0  0
  -20.8129   -7.0186   23.3665 C   0  0  0  0  0  0  0  0  0  0  0  0
  -20.4980   -6.3091   24.5254 C   0  0  0  0  0  0  0  0  0  0  0  0
  -27.4728  -20.5450   18.0786 C   0  0  0  0  0  0  0  0  0  0  0  0
  -25.0334  -26.7809   20.3582 C   0  0  0  0  0  0  0  0  0  0  0  0
  -21.4225   -4.3023   23.5481 C   0  0  0  0  0  0  0  0  0  0  0  0
  -24.3276  -10.3052   21.5112 C   0  0  0  0  0  0  0  0  0  0  0  0
  -25.1920  -12.4348   22.6182 C   0  0  0  0  0  0  0  0  0  0  0  0
  -25.1788  -33.6655   26.3323 C   0  0  0  0  0  0  0  0  0  0  0  0
  -25.8305  -29.0459   20.6652 C   0  0  0  0  0  0  0  0  0  0  0  0
  -25.5147  -32.4468   25.7124 C   0  0  0  0  0  0  0  0  0  0  0  0
  -27.4734  -19.1604   18.0148 C   0  0  0  0  0  0  0  0  0  0  0  0
  -24.7627  -28.1462   20.5366 C   0  0  0  0  0  0  0  0  0  0  0  0
  -28.5281  -21.1794   18.7346 C   0  0  0  0  0  0  0  0  0  0  0  0
  -28.5063  -18.4103   18.5800 C   0  0  0  0  0  0  0  0  0  0  0  0
  -22.5920   -8.1348   21.2673 C   0  0  0  0  0  0  0  0  0  0  0  0
  -26.3477  -26.3187   20.2957 C   0  0  0  0  0  0  0  0  0  0  0  0
  -21.4326   -6.3699   22.2983 C   0  0  0  0  0  0  0  0  0  0  0  0
  -20.8028   -4.9510   24.6163 C   0  0  0  0  0  0  0  0  0  0  0  0
  -21.7374   -5.0117   22.3892 C   0  0  0  0  0  0  0  0  0  0  0  0
  -25.2247  -11.4257   21.6372 C   0  0  0  0  0  0  0  0  0  0  0  0
  -26.2463  -13.2561   22.3013 C   0  0  0  0  0  0  0  0  0  0  0  0
  -27.9787  -23.0939   19.8563 C   0  0  0  0  0  0  0  0  0  0  0  0
  -24.2894  -12.6137   23.7177 C   0  0  0  0  0  0  0  0  0  0  0  0
  -24.1060  -30.5300   22.8850 C   0  0  0  0  0  0  0  0  0  0  0  0
  -21.8982  -30.6804   20.5132 C   0  0  0  0  0  0  0  0  0  0  0  0
  -20.6895  -29.3903   17.5940 C   0  0  0  0  0  0  0  0  0  0  0  0
  -29.2434  -16.0372   18.5236 C   0  0  0  0  0  0  0  0  0  0  0  0
  -23.7439  -34.0866   26.5287 C   0  0  0  0  0  0  0  0  0  0  0  0
  -25.5703  -30.5179   20.8328 C   0  0  0  0  0  0  0  0  0  0  0  0
  -26.4865  -18.2855   17.3116 C   0  0  0  0  0  0  0  0  0  0  0  0
  -23.3289  -28.6039   20.5931 C   0  0  0  0  0  0  0  0  0  0  0  0
  -22.7602  -33.3312   25.6388 C   0  0  0  0  0  0  0  0  0  0  0  0
  -30.0615  -12.6444   19.0650 C   0  0  0  0  0  0  0  0  0  0  0  0
  -23.0512  -31.8341   25.6722 C   0  0  0  0  0  0  0  0  0  0  0  0
  -28.8646  -12.0898   19.8327 C   0  0  0  0  0  0  0  0  0  0  0  0
  -26.9271  -16.8899   17.7716 C   0  0  0  0  0  0  0  0  0  0  0  0
  -29.6098  -13.6437   18.0088 C   0  0  0  0  0  0  0  0  0  0  0  0
  -27.6296  -14.2703   19.3679 C   0  0  0  0  0  0  0  0  0  0  0  0
  -24.4555  -31.5330   25.1349 C   0  0  1  0  0  0  0  0  0  0  0  0
  -24.1918  -30.8187   21.4129 C   0  0  1  0  0  0  0  0  0  0  0  0
  -28.0316  -13.2318   20.4353 C   0  0  1  0  0  0  0  0  0  0  0  0
  -18.8510  -29.7018   15.9146 C   0  0  0  0  0  0  0  0  0  0  0  0
  -19.9191  -29.3900   22.4440 C   0  0  0  0  0  0  0  0  0  0  0  0
  -18.4545  -28.8652   20.4824 C   0  0  0  0  0  0  0  0  0  0  0  0
  -18.9667  -31.2386   21.0547 C   0  0  0  0  0  0  0  0  0  0  0  0
  -22.6157  -29.9276   15.4122 C   0  0  0  0  0  0  0  0  0  0  0  0
  -27.9523  -24.5793   20.0592 C   0  0  0  0  0  0  0  0  0  1  0  0
  -20.7741  -29.7903   20.0409 C   0  0  1  0  0  0  0  0  0  0  0  0
  -20.2814  -30.0550   16.2917 C   0  0  2  0  0  0  0  0  0  0  0  0
  -19.5555  -29.8118   21.0063 C   0  0  0  0  0  0  0  0  0  0  0  0
  -26.2208  -11.5891   20.7624 N   0  0  0  0  0  0  0  0  0  0  0  0
  -28.5559  -22.5754   18.8187 N   0  0  0  0  0  0  0  0  0  0  0  0
  -26.8237  -12.7104   21.1926 N   0  0  0  0  0  0  0  0  0  0  0  0
  -28.2717  -17.0304   18.3837 N   0  0  0  0  0  0  0  0  0  0  0  0
  -23.1261  -30.0520   20.7645 N   0  0  0  0  0  0  0  0  0  0  0  0
  -28.7905  -14.7110   18.5849 N   0  0  0  0  0  0  0  0  0  0  0  0
  -26.7265  -14.3846   22.8655 N   0  0  0  0  0  0  0  0  0  0  0  0
  -23.2625  -11.6771   23.8984 N   0  0  0  0  0  0  0  0  0  0  0  0
  -24.4674  -31.5940   23.6891 N   0  0  0  0  0  0  0  0  0  0  0  0
  -20.4647  -30.2113   18.6788 N   0  0  0  0  0  0  0  0  0  0  0  0
  -21.1800  -29.6210   15.1848 N   0  3  0  0  0  0  0  0  0  0  0  0
  -24.3806  -13.5846   24.5067 O   0  0  0  0  0  0  0  0  0  0  0  0
  -23.7376  -29.4241   23.2632 O   0  0  0  0  0  0  0  0  0  0  0  0
  -21.6963  -31.8899   20.6471 O   0  0  0  0  0  0  0  0  0  0  0  0
  -21.1572  -28.2549   17.6444 O   0  0  0  0  0  0  0  0  0  0  0  0
  -30.4543  -16.2913   18.5238 O   0  0  0  0  0  0  0  0  0  0  0  0
  -21.7453   -7.0757   21.1487 O   0  0  0  0  0  0  0  0  0  0  0  0
  -26.5978  -24.9790   20.1190 O   0  0  0  0  0  0  0  0  0  1  0  0
  -20.5017   -4.2702   25.7298 F   0  0  0  0  0  0  0  0  0  0  0  0
  -22.3337   -4.3834   21.3668 F   0  0  0  0  0  0  0  0  0  0  0  0
  1  2  1  0  0  0  0
  1  5  2  0  0  0  0
  2  6  2  0  0  0  0
  3 10  2  0  0  0  0
  3 18  1  0  0  0  0
  4 11  1  0  0  0  0
  4 18  2  0  0  0  0
  5 20  1  0  0  0  0
  6 22  1  0  0  0  0
  7 12  2  0  0  0  0
  7 21  1  0  0  0  0
  8  9  2  0  0  0  0
  8 25  1  0  0  0  0
  9 26  1  0  0  0  0
 10 27  1  0  0  0  0
 11 27  2  0  0  0  0
 12 28  1  0  0  0  0
 13 14  2  0  0  0  0
 13 29  1  0  0  0  0
 14 30  1  0  0  0  0
 15 23  1  0  0  0  0
 15 25  2  0  0  0  0
 16 24  1  0  0  0  0
 16 28  2  0  0  0  0
 17 30  2  0  0  0  0
 17 31  1  0  0  0  0
 18 32  1  0  0  0  0
 19 32  1  0  0  0  0
 19 33  2  0  0  0  0
 19 35  1  0  0  0  0
 20 22  2  0  0  0  0
 20 40  1  0  0  0  0
 21 24  2  0  0  0  0
 21 41  1  0  0  0  0
 22 51  1  0  0  0  0
 23 26  2  0  0  0  0
 23 42  1  0  0  0  0
 24 43  1  0  0  0  0
 25 64  1  0  0  0  0
 26 66  1  0  0  0  0
 27 79  1  0  0  0  0
 28 80  1  0  0  0  0
 29 31  2  0  0  0  0
 29 79  1  0  0  0  0
 30 81  1  0  0  0  0
 31 82  1  0  0  0  0
 32 63  2  0  0  0  0
 33 65  1  0  0  0  0
 33 69  1  0  0  0  0
 34 59  1  0  0  0  0
 34 64  2  0  0  0  0
 35 70  1  0  0  0  0
 35 74  2  0  0  0  0
 36 52  1  0  0  0  0
 36 71  1  0  0  0  0
 36 75  2  0  0  0  0
 37 60  1  0  0  0  0
 37 67  1  0  0  0  0
 37 76  2  0  0  0  0
 38 61  1  0  0  0  0
 38 72  1  0  0  0  0
 38 77  2  0  0  0  0
 39 66  1  0  0  0  0
 39 68  1  0  0  0  0
 39 78  2  0  0  0  0
 40 44  1  0  0  0  0
 41 52  1  0  0  0  0
 42 48  1  0  0  0  0
 43 67  1  0  0  0  0
 44 46  1  0  0  0  0
 45 47  1  0  0  0  0
 45 49  1  0  0  0  0
 46 51  1  0  0  0  0
 47 53  1  0  0  0  0
 48 66  1  0  0  0  0
 49 68  1  0  0  0  0
 50 53  1  0  0  0  0
 50 68  1  0  0  0  0
 51 71  1  0  0  0  0
 52 67  1  0  0  0  0
 53 65  1  0  0  0  0
 54 61  1  0  0  0  0
 55 62  1  0  0  0  0
 56 62  1  0  0  0  0
 57 62  1  0  0  0  0
 58 73  1  0  0  0  0
 59 80  1  0  0  0  0
 60 62  1  0  0  0  0
 60 72  1  0  0  0  0
 61 73  1  0  0  0  0
 63 65  1  0  0  0  0
M  CHG  1  73   1
M  ISO  4  39 100  59 101  66 100  80 101
M  END
> <Batch ID>
0112

> <Smiles>
CNC(C)C(=O)NC(C(=O)N1Cc2cc([101O:1][101CH:1]=CNc3ccc4c(c3)CC[100N:0]4[100C:0](=O)N3CCCC(n4nc(-c5ccc(Oc6ccc(F)cc6F)cc5)c(C(N)=O)c4N)C3)ccc2CC1C(=O)NC1CCCc2ccccc21)C(C)(C)C

> <Shape>
0.301

> <Color>
0.137

> <Negative vol penalty>
0.000

$$$$

  -OEChem-04052301313D

 85 93  0     1  0  0  0  0  0999 V2000
  -29.5734  -22.7643   25.3334 C   0  0  0  0  0  0  0  0  0  0  0  0
  -29.7586  -23.7554   24.3762 C   0  0  0  0  0  0  0  0  0  0  0  0
  -26.3253  -12.7912   21.3067 C   0  0  0  0  0  0  0  0  0  0  0  0
  -25.1467  -14.0153   19.5893 C   0  0  0  0  0  0  0  0  0  0  0  0
  -28.3022  -22.2354   25.5466 C   0  0  0  0  0  0  0  0  0  0  0  0
  -28.6707  -24.2265   23.6403 C   0  0  0  0  0  0  0  0  0  0  0  0
  -28.4259  -28.2324   19.0555 C   0  0  0  0  0  0  0  0  0  0  0  0
  -25.1843  -12.0247   21.5435 C   0  0  0  0  0  0  0  0  0  0  0  0
  -24.0056  -13.2488   19.8260 C   0  0  0  0  0  0  0  0  0  0  0  0
  -28.4733  -28.2061   17.6624 C   0  0  0  0  0  0  0  0  0  0  0  0
  -23.6110   -9.3934   20.1175 C   0  0  0  0  0  0  0  0  0  0  0  0
  -23.7725   -8.0143   20.2502 C   0  0  0  0  0  0  0  0  0  0  0  0
  -26.0625  -28.2446   17.5856 C   0  0  0  0  0  0  0  0  0  0  0  0
  -27.1798  -22.8028   16.8546 C   0  0  0  0  0  0  0  0  0  0  0  0
  -28.9567  -22.9632   18.9993 C   0  0  0  0  0  0  0  0  0  0  0  0
  -22.8546   -8.1215   22.4825 C   0  0  0  0  0  0  0  0  0  0  0  0
  -26.3065  -13.7866   20.3296 C   0  0  0  0  0  0  0  0  0  0  0  0
  -28.5221  -14.3013   19.1747 C   0  0  0  0  0  0  0  0  0  0  0  0
  -27.2009  -22.6920   24.8038 C   0  0  0  0  0  0  0  0  0  0  0  0
  -27.1942  -28.2540   19.7255 C   0  0  0  0  0  0  0  0  0  0  0  0
  -27.3756  -23.7223   23.8576 C   0  0  0  0  0  0  0  0  0  0  0  0
  -26.0022  -28.2737   18.9873 C   0  0  0  0  0  0  0  0  0  0  0  0
  -27.0966  -21.8825   17.8995 C   0  0  0  0  0  0  0  0  0  0  0  0
  -28.1514  -23.8032   16.8820 C   0  0  0  0  0  0  0  0  0  0  0  0
  -27.9851  -21.9627   18.9718 C   0  0  0  0  0  0  0  0  0  0  0  0
  -24.0245  -12.2535   20.8032 C   0  0  0  0  0  0  0  0  0  0  0  0
  -27.2915  -28.2093   16.9272 C   0  0  0  0  0  0  0  0  0  0  0  0
  -23.0714  -10.1366   21.1674 C   0  0  0  0  0  0  0  0  0  0  0  0
  -23.3943   -7.3783   21.4326 C   0  0  0  0  0  0  0  0  0  0  0  0
  -29.0398  -23.8834   17.9543 C   0  0  0  0  0  0  0  0  0  0  0  0
  -22.6932   -9.5006   22.3498 C   0  0  0  0  0  0  0  0  0  0  0  0
  -27.4847  -14.5791   20.0849 C   0  0  0  0  0  0  0  0  0  0  0  0
  -29.3969  -15.3501   19.3206 C   0  0  0  0  0  0  0  0  0  0  0  0
  -28.6808  -13.1943   18.2774 C   0  0  0  0  0  0  0  0  0  0  0  0
  -25.7148  -26.3142   21.7633 C   0  0  0  0  0  0  0  0  0  0  0  0
  -23.5555  -28.7315   21.8912 C   0  0  0  0  0  0  0  0  0  0  0  0
  -27.4345  -24.8004   14.6833 C   0  0  0  0  0  0  0  0  0  0  0  0
  -22.1652  -31.4573   20.3799 C   0  0  0  0  0  0  0  0  0  0  0  0
  -28.7330  -20.9922   21.1730 C   0  0  0  0  0  0  0  0  0  0  0  0
  -25.8458  -22.0902   25.0810 C   0  0  0  0  0  0  0  0  0  0  0  0
  -27.1605  -28.3091   21.2282 C   0  0  0  0  0  0  0  0  0  0  0  0
  -24.6545  -28.3170   19.6583 C   0  0  0  0  0  0  0  0  0  0  0  0
  -24.8462  -22.3321   23.9546 C   0  0  0  0  0  0  0  0  0  0  0  0
  -30.9129  -18.5397   22.5552 C   0  0  0  0  0  0  0  0  0  0  0  0
  -24.8432  -23.8040   23.5696 C   0  0  0  0  0  0  0  0  0  0  0  0
  -30.3793  -17.2210   21.9909 C   0  0  0  0  0  0  0  0  0  0  0  0
  -29.7839  -19.5179   22.8750 C   0  0  0  0  0  0  0  0  0  0  0  0
  -28.3178  -18.4540   21.2052 C   0  0  0  0  0  0  0  0  0  0  0  0
  -26.2125  -24.2285   23.0239 C   0  0  1  0  0  0  0  0  0  0  0  0
  -25.8436  -27.8103   21.8151 C   0  0  1  0  0  0  0  0  0  0  0  0
  -29.4219  -17.4610   20.8070 C   0  0  2  0  0  0  0  0  0  0  0  0
  -26.0461  -20.8211   17.8439 C   0  0  0  0  0  0  0  0  0  0  0  0
  -20.3953  -33.2051   20.7121 C   0  0  0  0  0  0  0  0  0  0  0  0
  -21.4035  -26.6779   21.2122 C   0  0  0  0  0  0  0  0  0  0  0  0
  -19.8763  -28.5742   20.6291 C   0  0  0  0  0  0  0  0  0  0  0  0
  -20.7428  -28.3434   22.9569 C   0  0  0  0  0  0  0  0  0  0  0  0
  -24.1507  -33.6503   20.2934 C   0  0  0  0  0  0  0  0  0  0  0  0
  -27.8633  -25.9596   13.7944 C   0  0  0  0  0  0  0  0  0  0  0  0
  -26.7486  -26.9771   13.5777 C   0  0  0  0  0  0  0  0  0  0  0  0
  -26.2467  -27.5505   14.8949 C   0  0  0  0  0  0  0  0  0  1  0  0
  -22.3094  -29.0938   21.1199 C   0  0  1  0  0  0  0  0  0  0  0  0
  -21.8627  -32.8516   20.8984 C   0  0  2  0  0  0  0  0  0  0  0  0
  -21.1082  -28.1695   21.4666 C   0  0  0  0  0  0  0  0  0  0  0  0
  -27.6809  -15.7152   20.7593 N   0  0  0  0  0  0  0  0  0  0  0  0
  -28.8517  -16.1605   20.2725 N   0  0  0  0  0  0  0  0  0  0  0  0
  -24.6738  -28.3635   21.1296 N   0  0  0  0  0  0  0  0  0  0  0  0
  -28.9203  -19.6994   21.7062 N   0  0  0  0  0  0  0  0  0  0  0  0
  -30.5716  -15.6488   18.7263 N   0  0  0  0  0  0  0  0  0  0  0  0
  -27.6882  -12.2051   18.2547 N   0  0  0  0  0  0  0  0  0  0  0  0
  -28.2343  -24.7358   15.8208 N   0  0  0  0  0  0  0  0  0  0  0  0
  -27.9178  -21.0370   20.0425 N   0  0  0  0  0  0  0  0  0  0  0  0
  -26.2335  -25.6663   22.8681 N   0  0  0  0  0  0  0  0  0  0  0  0
  -22.0676  -30.5095   21.3766 N   0  0  0  0  0  0  0  0  0  0  0  0
  -22.6851  -33.8627   20.1757 N   0  3  0  0  0  0  0  0  0  0  0  0
  -29.6815  -13.0772   17.5301 O   0  0  0  0  0  0  0  0  0  0  0  0
  -25.1828  -25.7868   20.7934 O   0  0  0  0  0  0  0  0  0  0  0  0
  -23.5396  -28.7804   23.1236 O   0  0  0  0  0  0  0  0  0  0  0  0
  -26.5041  -24.0596   14.3836 O   0  0  0  0  0  0  0  0  0  0  0  0
  -22.4551  -31.2311   19.2072 O   0  0  0  0  0  0  0  0  0  0  0  0
  -29.2790  -21.9827   21.6655 O   0  0  0  0  0  0  0  0  0  0  0  0
  -22.9109  -11.5056   21.0338 O   0  0  0  0  0  0  0  0  0  0  0  0
  -27.3349  -28.1830   15.5674 O   0  0  0  0  0  0  0  0  0  1  0  0
  -23.5480   -6.0538   21.5593 F   0  0  0  0  0  0  0  0  0  0  0  0
  -29.9768  -24.8416   17.9907 F   0  0  0  0  0  0  0  0  0  0  0  0
  -22.1731  -10.2092   23.3614 F   0  0  0  0  0  0  0  0  0  0  0  0
  1  2  1  0  0  0  0
  1  5  2  0  0  0  0
  2  6  2  0  0  0  0
  3  8  2  0  0  0  0
  3 17  1  0  0  0  0
  4  9  1  0  0  0  0
  4 17  2  0  0  0  0
  5 19  1  0  0  0  0
  6 21  1  0  0  0  0
  7 10  2  0  0  0  0
  7 20  1  0  0  0  0
  8 26  1  0  0  0  0
  9 26  2  0  0  0  0
 10 27  1  0  0  0  0
 11 12  2  0  0  0  0
 11 28  1  0  0  0  0
 12 29  1  0  0  0  0
 13 22  1  0  0  0  0
 13 27  2  0  0  0  0
 14 23  2  0  0  0  0
 14 24  1  0  0  0  0
 15 25  2  0  0  0  0
 15 30  1  0  0  0  0
 16 29  2  0  0  0  0
 16 31  1  0  0  0  0
 17 32  1  0  0  0  0
 18 32  1  0  0  0  0
 18 33  2  0  0  0  0
 18 34  1  0  0  0  0
 19 21  2  0  0  0  0
 19 40  1  0  0  0  0
 20 22  2  0  0  0  0
 20 41  1  0  0  0  0
 21 49  1  0  0  0  0
 22 42  1  0  0  0  0
 23 25  1  0  0  0  0
 23 52  1  0  0  0  0
 24 30  2  0  0  0  0
 24 70  1  0  0  0  0
 25 71  1  0  0  0  0
 26 81  1  0  0  0  0
 27 82  1  0  0  0  0
 28 31  2  0  0  0  0
 28 81  1  0  0  0  0
 29 83  1  0  0  0  0
 30 84  1  0  0  0  0
 31 85  1  0  0  0  0
 32 64  2  0  0  0  0
 33 65  1  0  0  0  0
 33 68  1  0  0  0  0
 34 69  1  0  0  0  0
 34 75  2  0  0  0  0
 35 50  1  0  0  0  0
 35 72  1  0  0  0  0
 35 76  2  0  0  0  0
 36 61  1  0  0  0  0
 36 66  1  0  0  0  0
 36 77  2  0  0  0  0
 37 58  1  0  0  0  0
 37 70  1  0  0  0  0
 37 78  2  0  0  0  0
 38 62  1  0  0  0  0
 38 73  1  0  0  0  0
 38 79  2  0  0  0  0
 39 67  1  0  0  0  0
 39 71  1  0  0  0  0
 39 80  2  0  0  0  0
 40 43  1  0  0  0  0
 41 50  1  0  0  0  0
 42 66  1  0  0  0  0
 43 45  1  0  0  0  0
 44 46  1  0  0  0  0
 44 47  1  0  0  0  0
 45 49  1  0  0  0  0
 46 51  1  0  0  0  0
 47 67  1  0  0  0  0
 48 51  1  0  0  0  0
 48 67  1  0  0  0  0
 49 72  1  0  0  0  0
 50 66  1  0  0  0  0
 51 65  1  0  0  0  0
 53 62  1  0  0  0  0
 54 63  1  0  0  0  0
 55 63  1  0  0  0  0
 56 63  1  0  0  0  0
 57 74  1  0  0  0  0
 58 59  1  0  0  0  0
 59 60  1  0  0  0  0
 60 82  1  0  0  0  0
 61 63  1  0  0  0  0
 61 73  1  0  0  0  0
 62 74  1  0  0  0  0
 64 65  1  0  0  0  0
M  CHG  1  74   1
M  ISO  4  39 100  60 101  71 100  82 101
M  END
> <Batch ID>
0112

> <Smiles>
CNC(C)C(=O)NC(C(=O)N1Cc2cc([101O:1][101CH2:1]CCC(=O)Nc3cc(C)c([100NH:0][100C:0](=O)N4CCCC(n5nc(-c6ccc(Oc7ccc(F)cc7F)cc6)c(C(N)=O)c5N)C4)cc3F)ccc2CC1C(=O)NC1CCCc2ccccc21)C(C)(C)C

> <Shape>
0.231

> <Color>
0.069

> <Negative vol penalty>
0.000

$$$$

  -OEChem-04052301313D

 89 98  0     1  0  0  0  0  0999 V2000
  -21.8392  -28.3825   22.9354 C   0  0  0  0  0  0  0  0  0  0  0  0
  -22.7541  -28.1715   23.9619 C   0  0  0  0  0  0  0  0  0  0  0  0
  -22.8556  -10.0809   20.0696 C   0  0  0  0  0  0  0  0  0  0  0  0
  -24.2811   -9.5124   21.9355 C   0  0  0  0  0  0  0  0  0  0  0  0
  -20.8209  -27.4572   22.7096 C   0  0  0  0  0  0  0  0  0  0  0  0
  -22.6506  -27.0357   24.7641 C   0  0  0  0  0  0  0  0  0  0  0  0
  -27.9193  -21.4612   26.2450 C   0  0  0  0  0  0  0  0  0  0  0  0
  -22.1532   -8.8884   20.2428 C   0  0  0  0  0  0  0  0  0  0  0  0
  -23.5787   -8.3198   22.1088 C   0  0  0  0  0  0  0  0  0  0  0  0
  -28.7122  -20.3333   26.4575 C   0  0  0  0  0  0  0  0  0  0  0  0
  -20.6474   -7.3329   23.4703 C   0  0  0  0  0  0  0  0  0  0  0  0
  -20.2851   -6.9789   24.7699 C   0  0  0  0  0  0  0  0  0  0  0  0
  -30.9198  -13.0094   25.0698 C   0  0  0  0  0  0  0  0  0  0  0  0
  -33.0306  -13.6213   26.0730 C   0  0  0  0  0  0  0  0  0  0  0  0
  -26.7310  -18.9968   26.8271 C   0  0  0  0  0  0  0  0  0  0  0  0
  -32.8182  -13.5276   23.6682 C   0  0  0  0  0  0  0  0  0  0  0  0
  -21.5679   -4.9411   24.5724 C   0  0  0  0  0  0  0  0  0  0  0  0
  -23.9197  -10.3929   20.9159 C   0  0  0  0  0  0  0  0  0  0  0  0
  -31.6942  -13.2446   26.2058 C   0  0  0  0  0  0  0  0  0  0  0  0
  -24.1306  -12.9327   20.8034 C   0  0  0  0  0  0  0  0  0  0  0  0
  -20.7106  -26.3046   23.5033 C   0  0  0  0  0  0  0  0  0  0  0  0
  -26.5269  -21.3578   26.3077 C   0  0  0  0  0  0  0  0  0  0  0  0
  -21.6291  -26.0948   24.5496 C   0  0  0  0  0  0  0  0  0  0  0  0
  -25.9311  -20.1205   26.6028 C   0  0  0  0  0  0  0  0  0  0  0  0
  -31.4818  -13.1508   23.8010 C   0  0  0  0  0  0  0  0  0  0  0  0
  -22.5147   -8.0079   21.2624 C   0  0  0  0  0  0  0  0  0  0  0  0
  -28.1195  -19.1042   26.7481 C   0  0  0  0  0  0  0  0  0  0  0  0
  -21.4699   -6.4910   22.7217 C   0  0  0  0  0  0  0  0  0  0  0  0
  -33.5927  -13.7629   24.8042 C   0  0  0  0  0  0  0  0  0  0  0  0
  -20.7453   -5.7830   25.3210 C   0  0  0  0  0  0  0  0  0  0  0  0
  -21.9301   -5.2951   23.2728 C   0  0  0  0  0  0  0  0  0  0  0  0
  -24.6461  -11.6244   20.7371 C   0  0  0  0  0  0  0  0  0  0  0  0
  -25.2149  -13.7414   20.5652 C   0  0  0  0  0  0  0  0  0  0  0  0
  -29.5366  -16.2891   28.4671 C   0  0  0  0  0  0  0  0  0  0  0  0
  -36.5505  -17.1188   25.0981 C   0  0  0  0  0  0  0  0  0  0  0  0
  -28.8187  -17.3741   28.1590 C   0  0  0  0  0  0  0  0  0  1  0  0
  -36.5440  -15.7813   25.1155 C   0  0  0  0  0  0  0  0  0  0  0  0
  -31.1020  -13.0966   27.5438 C   0  0  0  0  0  0  0  0  0  0  0  0
  -22.7914  -13.3772   21.0576 C   0  0  0  0  0  0  0  0  0  0  0  0
  -23.2145  -23.0947   26.0120 C   0  0  0  0  0  0  0  0  0  0  0  0
  -22.9017  -20.3473   24.6837 C   0  0  0  0  0  0  0  0  0  0  0  0
  -21.9898  -17.7013   22.7332 C   0  0  0  0  0  0  0  0  0  0  0  0
  -31.0975  -13.0081   21.3154 C   0  0  0  0  0  0  0  0  0  0  0  0
  -19.5648  -25.3567   23.2515 C   0  0  0  0  0  0  0  0  0  0  0  0
  -25.6356  -22.5592   26.1464 C   0  0  0  0  0  0  0  0  0  0  0  0
  -24.4307  -20.0638   26.6943 C   0  0  0  0  0  0  0  0  0  0  0  0
  -29.4832  -15.5619   29.7766 C   0  0  0  0  0  0  0  0  0  0  0  0
  -30.4234  -15.5495   27.5143 C   0  0  0  0  0  0  0  0  0  0  0  0
  -19.7493  -23.9905   23.9069 C   0  0  0  0  0  0  0  0  0  0  0  0
  -29.4197  -13.7887   18.2735 C   0  0  0  0  0  0  0  0  0  0  0  0
  -20.2088  -24.1496   25.3527 C   0  0  0  0  0  0  0  0  0  0  0  0
  -27.9573  -13.4471   18.5681 C   0  0  0  0  0  0  0  0  0  0  0  0
  -29.7730  -14.1304   29.3606 C   0  0  0  0  0  0  0  0  0  0  0  0
  -30.3780  -12.8068   18.9454 C   0  0  0  0  0  0  0  0  0  0  0  0
  -28.7109  -12.2870   20.6832 C   0  0  0  0  0  0  0  0  0  0  0  0
  -21.5646  -24.8623   25.4254 C   0  0  1  0  0  0  0  0  0  0  0  0
  -24.3047  -22.2336   25.4451 C   0  0  1  0  0  0  0  0  0  0  0  0
  -27.7098  -13.2865   20.0809 C   0  0  2  0  0  0  0  0  0  0  0  0
  -19.9750  -16.3997   21.9958 C   0  0  0  0  0  0  0  0  0  0  0  0
  -22.7951  -18.9767   27.4066 C   0  0  0  0  0  0  0  0  0  0  0  0
  -21.4920  -17.1223   26.3430 C   0  0  0  0  0  0  0  0  0  0  0  0
  -20.5607  -19.4361   26.3814 C   0  0  0  0  0  0  0  0  0  0  0  0
  -22.4532  -18.3728   19.8884 C   0  0  0  0  0  0  0  0  0  0  0  0
  -35.4423  -14.9605   25.6989 C   0  0  0  0  0  0  0  0  0  0  0  0
  -22.4954  -18.9041   24.8432 C   0  0  1  0  0  0  0  0  0  0  0  0
  -20.9115  -17.5541   21.6749 C   0  0  2  0  0  0  0  0  0  0  0  0
  -21.8615  -18.6170   26.2336 C   0  0  0  0  0  0  0  0  0  0  0  0
  -25.9559  -11.5988   20.4770 N   0  0  0  0  0  0  0  0  0  0  0  0
  -26.2727  -12.9010   20.3777 N   0  0  0  0  0  0  0  0  0  0  0  0
  -30.5097  -14.2181   28.1082 N   0  0  0  0  0  0  0  0  0  0  0  0
  -23.8309  -20.8482   25.6035 N   0  0  0  0  0  0  0  0  0  0  0  0
  -30.0867  -12.7094   20.3774 N   0  0  0  0  0  0  0  0  0  0  0  0
  -25.3572  -15.0823   20.4999 N   0  0  0  0  0  0  0  0  0  0  0  0
  -21.9269  -13.5508   19.9682 N   0  0  0  0  0  0  0  0  0  0  0  0
  -30.6948  -12.9125   22.6470 N   0  0  0  0  0  0  0  0  0  0  0  0
  -22.6351  -23.9473   25.0918 N   0  0  0  0  0  0  0  0  0  0  0  0
  -21.6234  -18.5983   23.7143 N   0  0  0  0  0  0  0  0  0  0  0  0
  -21.5261  -17.3036   20.3406 N   0  3  0  0  0  0  0  0  0  0  0  0
  -31.1606  -11.9858   28.0669 O   0  0  0  0  0  0  0  0  0  0  0  0
  -22.3787  -13.6292   22.2150 O   0  0  0  0  0  0  0  0  0  0  0  0
  -22.9187  -22.9929   27.1969 O   0  0  0  0  0  0  0  0  0  0  0  0
  -22.4058  -21.0163   23.7728 O   0  0  0  0  0  0  0  0  0  0  0  0
  -23.0494  -17.0797   22.6956 O   0  0  0  0  0  0  0  0  0  0  0  0
  -32.2288  -13.3517   20.9631 O   0  0  0  0  0  0  0  0  0  0  0  0
  -21.8293   -6.8442   21.4319 O   0  0  0  0  0  0  0  0  0  0  0  0
  -28.8994  -18.0062   26.9500 O   0  0  0  0  0  0  0  0  0  1  0  0
  -34.8964  -14.1309   24.6744 O   0  0  0  0  0  0  0  0  0  0  0  0
  -20.3986   -5.4439   26.5696 F   0  0  0  0  0  0  0  0  0  0  0  0
  -22.7215   -4.4828   22.5589 F   0  0  0  0  0  0  0  0  0  0  0  0
  1  2  1  0  0  0  0
  1  5  2  0  0  0  0
  2  6  2  0  0  0  0
  3  8  2  0  0  0  0
  3 18  1  0  0  0  0
  4  9  1  0  0  0  0
  4 18  2  0  0  0  0
  5 21  1  0  0  0  0
  6 23  1  0  0  0  0
  7 10  2  0  0  0  0
  7 22  1  0  0  0  0
  8 26  1  0  0  0  0
  9 26  2  0  0  0  0
 10 27  1  0  0  0  0
 11 12  2  0  0  0  0
 11 28  1  0  0  0  0
 12 30  1  0  0  0  0
 13 19  2  0  0  0  0
 13 25  1  0  0  0  0
 14 19  1  0  0  0  0
 14 29  2  0  0  0  0
 15 24  1  0  0  0  0
 15 27  2  0  0  0  0
 16 25  2  0  0  0  0
 16 29  1  0  0  0  0
 17 30  2  0  0  0  0
 17 31  1  0  0  0  0
 18 32  1  0  0  0  0
 19 38  1  0  0  0  0
 20 32  1  0  0  0  0
 20 33  2  0  0  0  0
 20 39  1  0  0  0  0
 21 23  2  0  0  0  0
 21 44  1  0  0  0  0
 22 24  2  0  0  0  0
 22 45  1  0  0  0  0
 23 56  1  0  0  0  0
 24 46  1  0  0  0  0
 25 75  1  0  0  0  0
 26 85  1  0  0  0  0
 27 86  1  0  0  0  0
 28 31  2  0  0  0  0
 28 85  1  0  0  0  0
 29 87  1  0  0  0  0
 30 88  1  0  0  0  0
 31 89  1  0  0  0  0
 32 68  2  0  0  0  0
 33 69  1  0  0  0  0
 33 73  1  0  0  0  0
 34 36  2  0  0  0  0
 34 47  1  0  0  0  0
 34 48  1  0  0  0  0
 35 37  2  0  0  0  0
 36 86  1  0  0  0  0
 37 64  1  0  0  0  0
 38 70  1  0  0  0  0
 38 79  2  0  0  0  0
 39 74  1  0  0  0  0
 39 80  2  0  0  0  0
 40 57  1  0  0  0  0
 40 76  1  0  0  0  0
 40 81  2  0  0  0  0
 41 65  1  0  0  0  0
 41 71  1  0  0  0  0
 41 82  2  0  0  0  0
 42 66  1  0  0  0  0
 42 77  1  0  0  0  0
 42 83  2  0  0  0  0
 43 72  1  0  0  0  0
 43 75  1  0  0  0  0
 43 84  2  0  0  0  0
 44 49  1  0  0  0  0
 45 57  1  0  0  0  0
 46 71  1  0  0  0  0
 47 53  1  0  0  0  0
 48 70  1  0  0  0  0
 49 51  1  0  0  0  0
 50 52  1  0  0  0  0
 50 54  1  0  0  0  0
 51 56  1  0  0  0  0
 52 58  1  0  0  0  0
 53 70  1  0  0  0  0
 54 72  1  0  0  0  0
 55 58  1  0  0  0  0
 55 72  1  0  0  0  0
 56 76  1  0  0  0  0
 57 71  1  0  0  0  0
 58 69  1  0  0  0  0
 59 66  1  0  0  0  0
 60 67  1  0  0  0  0
 61 67  1  0  0  0  0
 62 67  1  0  0  0  0
 63 78  1  0  0  0  0
 64 87  1  0  0  0  0
 65 67  1  0  0  0  0
 65 77  1  0  0  0  0
 66 78  1  0  0  0  0
 68 69  1  0  0  0  0
M  CHG  1  78   1
M  ISO  4  36 101  43 100  75 100  86 101
M  END
> <Batch ID>
0112

> <Smiles>
C=CCOc1cc([100NH:0][100C:0](=O)N2CCCC(n3nc(-c4ccc(Oc5ccc(F)cc5F)cc4)c(C(N)=O)c3N)C2)cc(C(=O)N2CCC(=[101CH:1][101O:1]c3ccc4c(c3)CN(C(=O)C(NC(=O)C(C)NC)C(C)(C)C)C(C(=O)NC3CCCc5ccccc53)C4)C2)c1

> <Shape>
0.174

> <Color>
0.141

> <Negative vol penalty>
0.000

$$$$

  -OEChem-04052301313D

 88 96  0     1  0  0  0  0  0999 V2000
  -34.3545  -25.9705    6.3584 C   0  0  0  0  0  0  0  0  0  0  0  0
  -34.2997  -25.2915    7.5715 C   0  0  0  0  0  0  0  0  0  0  0  0
  -23.0536   -9.8869   19.9526 C   0  0  0  0  0  0  0  0  0  0  0  0
  -23.8681   -9.8717   22.2271 C   0  0  0  0  0  0  0  0  0  0  0  0
  -33.9388  -27.2993    6.2853 C   0  0  0  0  0  0  0  0  0  0  0  0
  -33.8300  -25.9414    8.7123 C   0  0  0  0  0  0  0  0  0  0  0  0
  -30.6103  -23.0899   11.3857 C   0  0  0  0  0  0  0  0  0  0  0  0
  -22.3133   -8.7331   20.2099 C   0  0  0  0  0  0  0  0  0  0  0  0
  -23.1277   -8.7178   22.4844 C   0  0  0  0  0  0  0  0  0  0  0  0
  -31.1599  -22.0918   12.1893 C   0  0  0  0  0  0  0  0  0  0  0  0
  -19.9131   -7.9212   23.1568 C   0  0  0  0  0  0  0  0  0  0  0  0
  -19.1843   -7.8723   24.3450 C   0  0  0  0  0  0  0  0  0  0  0  0
  -29.7816  -17.3349   19.9526 C   0  0  0  0  0  0  0  0  0  0  0  0
  -27.6950  -18.4162   21.4557 C   0  0  0  0  0  0  0  0  0  0  0  0
  -30.9175  -23.5198   14.1183 C   0  0  0  0  0  0  0  0  0  0  0  0
  -20.4385   -5.9257   25.0342 C   0  0  0  0  0  0  0  0  0  0  0  0
  -23.8310  -10.4562   20.9612 C   0  0  0  0  0  0  0  0  0  0  0  0
  -29.4292  -16.7580   21.1726 C   0  0  0  0  0  0  0  0  0  0  0  0
  -28.3859  -17.2986   21.9242 C   0  0  0  0  0  0  0  0  0  0  0  0
  -24.1756  -12.9816   20.8556 C   0  0  0  0  0  0  0  0  0  0  0  0
  -33.4548  -27.9628    7.4237 C   0  0  0  0  0  0  0  0  0  0  0  0
  -30.2196  -24.3165   11.9416 C   0  0  0  0  0  0  0  0  0  0  0  0
  -33.4087  -27.2807    8.6546 C   0  0  0  0  0  0  0  0  0  0  0  0
  -30.3608  -24.5308   13.3201 C   0  0  0  0  0  0  0  0  0  0  0  0
  -29.0908  -18.4525   19.4841 C   0  0  0  0  0  0  0  0  0  0  0  0
  -22.3503   -8.1486   21.4758 C   0  0  0  0  0  0  0  0  0  0  0  0
  -31.3163  -22.3078   13.5553 C   0  0  0  0  0  0  0  0  0  0  0  0
  -20.9046   -6.9724   22.9072 C   0  0  0  0  0  0  0  0  0  0  0  0
  -28.0475  -18.9931   20.2356 C   0  0  0  0  0  0  0  0  0  0  0  0
  -19.4470   -6.8745   25.2838 C   0  0  0  0  0  0  0  0  0  0  0  0
  -21.1674   -5.9747   23.8459 C   0  0  0  0  0  0  0  0  0  0  0  0
  -24.5964  -11.6478   20.6958 C   0  0  0  0  0  0  0  0  0  0  0  0
  -25.2604  -13.7321   20.4731 C   0  0  0  0  0  0  0  0  0  0  0  0
  -27.9906  -17.3972   24.3427 C   0  0  0  0  0  0  0  0  0  0  0  0
  -27.9919  -16.7220   23.2036 C   0  0  0  0  0  0  0  0  0  0  0  0
  -30.1764  -15.5910   21.6276 C   0  0  0  0  0  0  0  0  0  0  0  0
  -22.9166  -13.4962   21.3094 C   0  0  0  0  0  0  0  0  0  0  0  0
  -30.7768  -14.6399   20.6642 C   0  0  0  0  0  0  0  0  0  0  0  0
  -31.1024  -27.3437   11.5407 C   0  0  0  0  0  0  0  0  0  0  0  0
  -28.6139  -27.9263   13.5383 C   0  0  0  0  0  0  0  0  0  0  0  0
  -30.4718  -18.6119   17.3840 C   0  0  0  0  0  0  0  0  0  0  0  0
  -26.5288  -26.7734   15.9817 C   0  0  0  0  0  0  0  0  0  0  0  0
  -33.0611  -29.4139    7.3057 C   0  0  0  0  0  0  0  0  0  0  0  0
  -29.6037  -25.3729   11.0657 C   0  0  0  0  0  0  0  0  0  0  0  0
  -29.9383  -25.8226   13.9692 C   0  0  0  0  0  0  0  0  0  0  0  0
  -32.2248  -29.9156    8.4801 C   0  0  0  0  0  0  0  0  0  0  0  0
  -29.5417  -12.4044   18.1475 C   0  0  0  0  0  0  0  0  0  0  0  0
  -32.8423  -29.4731    9.8028 C   0  0  0  0  0  0  0  0  0  0  0  0
  -28.1237  -12.0879   18.6215 C   0  0  0  0  0  0  0  0  0  0  0  0
  -30.4946  -12.5926   19.3235 C   0  0  0  0  0  0  0  0  0  0  0  0
  -28.6241  -13.3158   20.7819 C   0  0  0  0  0  0  0  0  0  0  0  0
  -32.8822  -27.9438    9.9089 C   0  0  1  0  0  0  0  0  0  0  0  0
  -29.7157  -26.7763   11.6534 C   0  0  1  0  0  0  0  0  0  0  0  0
  -27.6270  -13.1463   19.6224 C   0  0  2  0  0  0  0  0  0  0  0  0
  -24.6196  -27.4923   17.4430 C   0  0  0  0  0  0  0  0  0  0  0  0
  -30.5515  -29.5037   15.2896 C   0  0  0  0  0  0  0  0  0  0  0  0
  -28.8712  -29.3777   17.1413 C   0  0  0  0  0  0  0  0  0  0  0  0
  -28.2986  -30.5549   15.0179 C   0  0  0  0  0  0  0  0  0  0  0  0
  -24.7325  -24.7132   14.8469 C   0  0  0  0  0  0  0  0  0  0  0  0
  -26.2097  -19.8452   18.9898 C   0  0  0  0  0  0  0  0  0  0  0  0
  -30.5329  -19.5123   16.1579 C   0  0  0  0  0  0  0  0  0  0  0  0
  -31.6267  -19.0987   15.1794 C   0  0  0  0  0  0  0  0  0  0  0  0
  -31.6371  -19.9831   13.9411 C   0  0  0  0  0  0  0  0  0  1  0  0
  -28.4462  -28.0310   15.0349 C   0  0  1  0  0  0  0  0  0  0  0  0
  -25.0194  -26.8367   16.1304 C   0  0  2  0  0  0  0  0  0  0  0  0
  -29.0517  -29.3431   15.6087 C   0  0  0  0  0  0  0  0  0  0  0  0
  -25.8507  -11.5532   20.2465 N   0  0  0  0  0  0  0  0  0  0  0  0
  -30.3648  -15.3121   22.8869 N   0  0  0  0  0  0  0  0  0  0  0  0
  -26.2273  -12.8371   20.1208 N   0  0  0  0  0  0  0  0  0  0  0  0
  -29.9760  -13.5765   20.2717 N   0  0  0  0  0  0  0  0  0  0  0  0
  -29.3473  -26.8270   13.0697 N   0  0  0  0  0  0  0  0  0  0  0  0
  -25.4720  -15.0638   20.4070 N   0  0  0  0  0  0  0  0  0  0  0  0
  -21.9110  -12.5861   21.6626 N   0  0  0  0  0  0  0  0  0  0  0  0
  -29.4606  -19.0284   18.2454 N   0  0  0  0  0  0  0  0  0  0  0  0
  -31.5729  -27.4262   10.2441 N   0  0  0  0  0  0  0  0  0  0  0  0
  -27.0209  -27.8654   15.2986 N   0  0  0  0  0  0  0  0  0  0  0  0
  -24.4373  -25.4653   16.0936 N   0  3  0  0  0  0  0  0  0  0  0  0
  -22.6846  -14.7268   21.3834 O   0  0  0  0  0  0  0  0  0  0  0  0
  -31.9221  -14.8950   20.3154 O   0  0  0  0  0  0  0  0  0  0  0  0
  -31.7006  -27.6830   12.5550 O   0  0  0  0  0  0  0  0  0  0  0  0
  -28.1066  -28.7841   12.8114 O   0  0  0  0  0  0  0  0  0  0  0  0
  -31.2365  -17.6650   17.5353 O   0  0  0  0  0  0  0  0  0  0  0  0
  -27.2042  -25.8497   16.4302 O   0  0  0  0  0  0  0  0  0  0  0  0
  -21.6279   -7.0228   21.7273 O   0  0  0  0  0  0  0  0  0  0  0  0
  -27.3605  -20.0855   19.7967 O   0  0  0  0  0  0  0  0  0  0  0  0
  -31.8531  -21.3356   14.3417 O   0  0  0  0  0  0  0  0  0  1  0  0
  -18.7480   -6.8286   26.4255 F   0  0  0  0  0  0  0  0  0  0  0  0
  -22.1195   -5.0611   23.6122 F   0  0  0  0  0  0  0  0  0  0  0  0
  1  2  1  0  0  0  0
  1  5  2  0  0  0  0
  2  6  2  0  0  0  0
  3  8  2  0  0  0  0
  3 17  1  0  0  0  0
  4  9  1  0  0  0  0
  4 17  2  0  0  0  0
  5 21  1  0  0  0  0
  6 23  1  0  0  0  0
  7 10  2  0  0  0  0
  7 22  1  0  0  0  0
  8 26  1  0  0  0  0
  9 26  2  0  0  0  0
 10 27  1  0  0  0  0
 11 12  2  0  0  0  0
 11 28  1  0  0  0  0
 12 30  1  0  0  0  0
 13 18  1  0  0  0  0
 13 25  2  0  0  0  0
 14 19  1  0  0  0  0
 14 29  2  0  0  0  0
 15 24  1  0  0  0  0
 15 27  2  0  0  0  0
 16 30  2  0  0  0  0
 16 31  1  0  0  0  0
 17 32  1  0  0  0  0
 18 19  2  0  0  0  0
 18 36  1  0  0  0  0
 19 35  1  0  0  0  0
 20 32  1  0  0  0  0
 20 33  2  0  0  0  0
 20 37  1  0  0  0  0
 21 23  2  0  0  0  0
 21 43  1  0  0  0  0
 22 24  2  0  0  0  0
 22 44  1  0  0  0  0
 23 52  1  0  0  0  0
 24 45  1  0  0  0  0
 25 29  1  0  0  0  0
 25 74  1  0  0  0  0
 26 84  1  0  0  0  0
 27 86  1  0  0  0  0
 28 31  2  0  0  0  0
 28 84  1  0  0  0  0
 29 85  1  0  0  0  0
 30 87  1  0  0  0  0
 31 88  1  0  0  0  0
 32 67  2  0  0  0  0
 33 69  1  0  0  0  0
 33 72  1  0  0  0  0
 34 35  2  0  0  0  0
 36 38  1  0  0  0  0
 36 68  2  0  0  0  0
 37 73  1  0  0  0  0
 37 78  2  0  0  0  0
 38 70  1  0  0  0  0
 38 79  2  0  0  0  0
 39 53  1  0  0  0  0
 39 75  1  0  0  0  0
 39 80  2  0  0  0  0
 40 64  1  0  0  0  0
 40 71  1  0  0  0  0
 40 81  2  0  0  0  0
 41 61  1  0  0  0  0
 41 74  1  0  0  0  0
 41 82  2  0  0  0  0
 42 65  1  0  0  0  0
 42 76  1  0  0  0  0
 42 83  2  0  0  0  0
 43 46  1  0  0  0  0
 44 53  1  0  0  0  0
 45 71  1  0  0  0  0
 46 48  1  0  0  0  0
 47 49  1  0  0  0  0
 47 50  1  0  0  0  0
 48 52  1  0  0  0  0
 49 54  1  0  0  0  0
 50 70  1  0  0  0  0
 51 54  1  0  0  0  0
 51 70  1  0  0  0  0
 52 75  1  0  0  0  0
 53 71  1  0  0  0  0
 54 69  1  0  0  0  0
 55 65  1  0  0  0  0
 56 66  1  0  0  0  0
 57 66  1  0  0  0  0
 58 66  1  0  0  0  0
 59 77  1  0  0  0  0
 60 85  1  0  0  0  0
 61 62  1  0  0  0  0
 62 63  1  0  0  0  0
 63 86  1  0  0  0  0
 64 66  1  0  0  0  0
 64 76  1  0  0  0  0
 65 77  1  0  0  0  0
 67 69  1  0  0  0  0
M  CHG  1  77   1
M  ISO  4  36 100  38 100  63 101  86 101
M  END
> <Batch ID>
0112

> <Smiles>
C=Cc1cc(OC)c(NC(=O)CC[101CH2:1][101O:1]c2ccc3c(c2)CN(C(=O)C(NC(=O)C(C)NC)C(C)(C)C)C(C(=O)NC2CCCc4ccccc42)C3)cc1[100C:0](=N)[100C:0](=O)N1CCCC(n2nc(-c3ccc(Oc4ccc(F)cc4F)cc3)c(C(N)=O)c2N)C1

> <Shape>
0.202

> <Color>
0.178

> <Negative vol penalty>
0.000

$$$$

  -OEChem-04052301313D

 84 92  0     1  0  0  0  0  0999 V2000
  -27.4597  -36.8667   25.0722 C   0  0  0  0  0  0  0  0  0  0  0  0
  -28.0938  -35.9435   24.2470 C   0  0  0  0  0  0  0  0  0  0  0  0
  -26.7021   -9.2124   22.0504 C   0  0  0  0  0  0  0  0  0  0  0  0
  -24.8150   -9.0845   20.5472 C   0  0  0  0  0  0  0  0  0  0  0  0
  -26.3571  -36.4786   25.8322 C   0  0  0  0  0  0  0  0  0  0  0  0
  -27.6263  -34.6314   24.1821 C   0  0  0  0  0  0  0  0  0  0  0  0
  -26.9761  -29.1563   19.6086 C   0  0  0  0  0  0  0  0  0  0  0  0
  -26.2040   -8.1253   22.7684 C   0  0  0  0  0  0  0  0  0  0  0  0
  -24.3168   -7.9973   21.2653 C   0  0  0  0  0  0  0  0  0  0  0  0
  -27.2809  -27.8000   19.5019 C   0  0  0  0  0  0  0  0  0  0  0  0
  -22.6282   -7.4788   24.1481 C   0  0  0  0  0  0  0  0  0  0  0  0
  -21.2676   -7.4735   24.4550 C   0  0  0  0  0  0  0  0  0  0  0  0
  -25.3193  -27.2634   20.7995 C   0  0  0  0  0  0  0  0  0  0  0  0
  -20.9980   -5.4119   23.2246 C   0  0  0  0  0  0  0  0  0  0  0  0
  -26.0076   -9.6921   20.9398 C   0  0  0  0  0  0  0  0  0  0  0  0
  -27.3996  -10.7779   19.0983 C   0  0  0  0  0  0  0  0  0  0  0  0
  -25.8699  -35.1636   25.7693 C   0  0  0  0  0  0  0  0  0  0  0  0
  -25.8448  -29.5776   20.3219 C   0  0  0  0  0  0  0  0  0  0  0  0
  -26.5170  -34.2251   24.9430 C   0  0  0  0  0  0  0  0  0  0  0  0
  -25.0010  -28.6255   20.9115 C   0  0  0  0  0  0  0  0  0  0  0  0
  -25.0113   -7.5178   22.3759 C   0  0  0  0  0  0  0  0  0  0  0  0
  -26.4540  -26.8534   20.0998 C   0  0  0  0  0  0  0  0  0  0  0  0
  -23.1738   -6.4506   23.3794 C   0  0  0  0  0  0  0  0  0  0  0  0
  -20.4525   -6.4401   23.9933 C   0  0  0  0  0  0  0  0  0  0  0  0
  -22.3587   -5.4171   22.9176 C   0  0  0  0  0  0  0  0  0  0  0  0
  -26.5215  -10.8153   20.1980 C   0  0  0  0  0  0  0  0  0  0  0  0
  -27.5802  -12.0962   18.7580 C   0  0  0  0  0  0  0  0  0  0  0  0
  -29.0530  -23.1592   20.0723 C   0  0  0  0  0  0  0  0  0  0  0  0
  -28.5235  -20.8979   19.3678 C   0  0  0  0  0  0  0  0  0  0  0  0
  -29.2710  -21.7276   20.1252 C   0  0  0  0  0  0  0  0  0  0  0  0
  -28.1143  -23.7073   19.2872 C   0  0  0  0  0  0  0  0  0  0  0  0
  -27.4566  -21.4953   18.4716 C   0  0  0  0  0  0  0  0  0  0  0  0
  -28.6729  -19.4588   19.3502 C   0  0  0  0  0  0  0  0  0  0  0  0
  -28.5137  -18.7079   20.4375 C   0  0  0  0  0  0  0  0  0  0  0  0
  -27.9985   -9.6520   18.4430 C   0  0  0  0  0  0  0  0  0  0  0  0
  -28.6890  -17.2473   20.3083 C   0  0  0  0  0  0  0  0  0  0  0  0
  -25.3583  -31.3729   22.8996 C   0  0  0  0  0  0  0  0  0  0  0  0
  -22.2383  -30.9885   22.0997 C   0  0  0  0  0  0  0  0  0  0  0  0
  -19.8657  -29.1305   20.4980 C   0  0  0  0  0  0  0  0  0  0  0  0
  -24.7040  -34.7787   26.6452 C   0  0  0  0  0  0  0  0  0  0  0  0
  -25.5152  -31.0429   20.4051 C   0  0  0  0  0  0  0  0  0  0  0  0
  -23.7633  -29.0248   21.6712 C   0  0  0  0  0  0  0  0  0  0  0  0
  -24.0411  -33.4663   26.2349 C   0  0  0  0  0  0  0  0  0  0  0  0
  -25.1602  -16.2587   20.2576 C   0  0  0  0  0  0  0  0  0  0  0  0
  -25.0946  -32.3938   25.9770 C   0  0  0  0  0  0  0  0  0  0  0  0
  -25.2820  -14.7385   20.1948 C   0  0  0  0  0  0  0  0  0  0  0  0
  -26.2826  -16.8887   21.0809 C   0  0  0  0  0  0  0  0  0  0  0  0
  -27.7696  -14.9752   20.5637 C   0  0  0  0  0  0  0  0  0  0  0  0
  -26.0243  -32.7989   24.8267 C   0  0  1  0  0  0  0  0  0  0  0  0
  -24.6198  -31.3875   21.5911 C   0  0  1  0  0  0  0  0  0  0  0  0
  -26.6772  -14.3241   19.7010 C   0  0  1  0  0  0  0  0  0  0  0  0
  -30.3679  -21.3273   21.0783 C   0  0  0  0  0  0  0  0  0  0  0  0
  -17.3974  -29.0479   20.0528 C   0  0  0  0  0  0  0  0  0  0  0  0
  -24.9238  -22.9959   18.0531 C   0  0  0  0  0  0  0  0  0  0  0  0
  -26.6031  -23.1910   16.1855 C   0  0  0  0  0  0  0  0  0  0  0  0
  -21.7608  -29.9955   24.9450 C   0  0  0  0  0  0  0  0  0  0  0  0
  -19.5718  -29.0554   24.1752 C   0  0  0  0  0  0  0  0  0  0  0  0
  -19.9822  -31.5131   24.0575 C   0  0  0  0  0  0  0  0  0  0  0  0
  -20.2688  -29.3353   17.5732 C   0  0  0  0  0  0  0  0  0  0  0  0
  -27.9221  -25.1798   19.2634 C   0  0  0  0  0  0  0  0  0  1  0  0
  -21.1657  -29.9797   22.4327 C   0  0  1  0  0  0  0  0  0  0  0  0
  -18.7500  -29.5248   19.5471 C   0  0  2  0  0  0  0  0  0  0  0  0
  -26.2950  -23.5115   17.6408 C   0  0  0  0  0  0  0  0  0  0  0  0
  -20.6444  -30.1282   23.8900 C   0  0  0  0  0  0  0  0  0  0  0  0
  -26.1688  -12.0590   20.5341 N   0  0  0  0  0  0  0  0  0  0  0  0
  -26.8288  -12.8152   19.6404 N   0  0  0  0  0  0  0  0  0  0  0  0
  -27.3146  -22.8923   18.4884 N   0  0  0  0  0  0  0  0  0  0  0  0
  -27.6047  -16.4317   20.6272 N   0  0  0  0  0  0  0  0  0  0  0  0
  -23.4872  -30.4698   21.7298 N   0  0  0  0  0  0  0  0  0  0  0  0
  -28.3069  -12.6990   17.7932 N   0  0  0  0  0  0  0  0  0  0  0  0
  -27.7059   -8.3674   18.9209 N   0  0  0  0  0  0  0  0  0  0  0  0
  -25.3713  -32.5909   23.5520 N   0  0  0  0  0  0  0  0  0  0  0  0
  -20.1346  -30.1279   21.4113 N   0  0  0  0  0  0  0  0  0  0  0  0
  -18.9838  -28.9317   18.2000 N   0  3  0  0  0  0  0  0  0  0  0  0
  -26.7663  -20.7486   17.7742 O   0  0  0  0  0  0  0  0  0  0  0  0
  -28.7832   -9.7823   17.4730 O   0  0  0  0  0  0  0  0  0  0  0  0
  -29.7879  -16.8377   19.9298 O   0  0  0  0  0  0  0  0  0  0  0  0
  -25.8767  -30.3331   23.2891 O   0  0  0  0  0  0  0  0  0  0  0  0
  -21.9755  -32.1923   22.1585 O   0  0  0  0  0  0  0  0  0  0  0  0
  -20.4385  -28.0447   20.4391 O   0  0  0  0  0  0  0  0  0  0  0  0
  -24.5250   -6.4568   23.0762 O   0  0  0  0  0  0  0  0  0  0  0  0
  -26.7495  -25.5290   19.9978 O   0  0  0  0  0  0  0  0  0  1  0  0
  -19.1462   -6.4343   24.2894 F   0  0  0  0  0  0  0  0  0  0  0  0
  -22.8773   -4.4260   22.1797 F   0  0  0  0  0  0  0  0  0  0  0  0
  1  2  1  0  0  0  0
  1  5  2  0  0  0  0
  2  6  2  0  0  0  0
  3  8  2  0  0  0  0
  3 15  1  0  0  0  0
  4  9  1  0  0  0  0
  4 15  2  0  0  0  0
  5 17  1  0  0  0  0
  6 19  1  0  0  0  0
  7 10  2  0  0  0  0
  7 18  1  0  0  0  0
  8 21  1  0  0  0  0
  9 21  2  0  0  0  0
 10 22  1  0  0  0  0
 11 12  2  0  0  0  0
 11 23  1  0  0  0  0
 12 24  1  0  0  0  0
 13 20  1  0  0  0  0
 13 22  2  0  0  0  0
 14 24  2  0  0  0  0
 14 25  1  0  0  0  0
 15 26  1  0  0  0  0
 16 26  1  0  0  0  0
 16 27  2  0  0  0  0
 16 35  1  0  0  0  0
 17 19  2  0  0  0  0
 17 40  1  0  0  0  0
 18 20  2  0  0  0  0
 18 41  1  0  0  0  0
 19 49  1  0  0  0  0
 20 42  1  0  0  0  0
 21 81  1  0  0  0  0
 22 82  1  0  0  0  0
 23 25  2  0  0  0  0
 23 81  1  0  0  0  0
 24 83  1  0  0  0  0
 25 84  1  0  0  0  0
 26 65  2  0  0  0  0
 27 66  1  0  0  0  0
 27 70  1  0  0  0  0
 28 30  1  0  0  0  0
 28 31  2  0  0  0  0
 29 30  2  0  0  0  0
 29 32  1  0  0  0  0
 29 33  1  0  0  0  0
 30 52  1  0  0  0  0
 31 60  1  0  0  0  0
 31 67  1  0  0  0  0
 32 67  1  0  0  0  0
 32 75  2  0  0  0  0
 33 34  2  0  0  0  0
 34 36  1  0  0  0  0
 35 71  1  0  0  0  0
 35 76  2  0  0  0  0
 36 68  1  0  0  0  0
 36 77  2  0  0  0  0
 37 50  1  0  0  0  0
 37 72  1  0  0  0  0
 37 78  2  0  0  0  0
 38 61  1  0  0  0  0
 38 69  1  0  0  0  0
 38 79  2  0  0  0  0
 39 62  1  0  0  0  0
 39 73  1  0  0  0  0
 39 80  2  0  0  0  0
 40 43  1  0  0  0  0
 41 50  1  0  0  0  0
 42 69  1  0  0  0  0
 43 45  1  0  0  0  0
 44 46  1  0  0  0  0
 44 47  1  0  0  0  0
 45 49  1  0  0  0  0
 46 51  1  0  0  0  0
 47 68  1  0  0  0  0
 48 51  1  0  0  0  0
 48 68  1  0  0  0  0
 49 72  1  0  0  0  0
 50 69  1  0  0  0  0
 51 66  1  0  0  0  0
 53 62  1  0  0  0  0
 54 63  1  0  0  0  0
 55 63  1  0  0  0  0
 56 64  1  0  0  0  0
 57 64  1  0  0  0  0
 58 64  1  0  0  0  0
 59 74  1  0  0  0  0
 60 82  1  0  0  0  0
 61 64  1  0  0  0  0
 61 73  1  0  0  0  0
 62 74  1  0  0  0  0
 63 67  1  0  0  0  0
 65 66  1  0  0  0  0
M  CHG  1  74   1
M  ISO  4  34 100  36 100  60 101  82 101
M  END
> <Batch ID>
0112

> <Smiles>
CNC(C)C(=O)NC(C(=O)N1Cc2cc([101O:1][101CH2:1]c3cc(C)c(C=[100CH:0][100C:0](=O)N4CCCC(n5nc(-c6ccc(Oc7ccc(F)cc7F)cc6)c(C(N)=O)c5N)C4)c(=O)n3C(C)C)ccc2CC1C(=O)NC1CCCc2ccccc21)C(C)(C)C

> <Shape>
0.305

> <Color>
0.069

> <Negative vol penalty>
0.000

$$$$

  -OEChem-04052301313D

 84 92  0     1  0  0  0  0  0999 V2000
  -29.6893  -12.4881   20.0179 C   0  0  0  0  0  0  0  0  0  0  0  0
  -29.5398  -13.5886   20.8558 C   0  0  0  0  0  0  0  0  0  0  0  0
  -26.3327  -22.0947   21.3574 C   0  0  0  0  0  0  0  0  0  0  0  0
  -28.5332  -22.5597   20.4750 C   0  0  0  0  0  0  0  0  0  0  0  0
  -28.8168  -12.3062   18.9457 C   0  0  0  0  0  0  0  0  0  0  0  0
  -28.5185  -14.5085   20.6212 C   0  0  0  0  0  0  0  0  0  0  0  0
  -24.0560  -18.9032   24.0982 C   0  0  0  0  0  0  0  0  0  0  0  0
  -26.4079  -20.7939   20.8597 C   0  0  0  0  0  0  0  0  0  0  0  0
  -28.6085  -21.2588   19.9773 C   0  0  0  0  0  0  0  0  0  0  0  0
  -23.6444  -20.2352   24.1053 C   0  0  0  0  0  0  0  0  0  0  0  0
  -29.5295  -17.9491   18.7874 C   0  0  0  0  0  0  0  0  0  0  0  0
  -30.7173  -17.2455   18.9864 C   0  0  0  0  0  0  0  0  0  0  0  0
  -20.7672  -26.6967   21.5569 C   0  0  0  0  0  0  0  0  0  0  0  0
  -22.1479  -19.7762   22.2699 C   0  0  0  0  0  0  0  0  0  0  0  0
  -18.8179  -27.4349   23.4111 C   0  0  0  0  0  0  0  0  0  0  0  0
  -30.4445  -17.4612   21.3772 C   0  0  0  0  0  0  0  0  0  0  0  0
  -27.3953  -22.9776   21.1650 C   0  0  0  0  0  0  0  0  0  0  0  0
  -20.5279  -28.0460   21.8175 C   0  0  0  0  0  0  0  0  0  0  0  0
  -27.7314  -24.7725   22.9463 C   0  0  0  0  0  0  0  0  0  0  0  0
  -27.7783  -13.2191   18.7036 C   0  0  0  0  0  0  0  0  0  0  0  0
  -23.5238  -17.9987   23.1682 C   0  0  0  0  0  0  0  0  0  0  0  0
  -27.6321  -14.3393   19.5439 C   0  0  0  0  0  0  0  0  0  0  0  0
  -22.5526  -18.4327   22.2547 C   0  0  0  0  0  0  0  0  0  0  0  0
  -19.0571  -26.0856   23.1504 C   0  0  0  0  0  0  0  0  0  0  0  0
  -20.0317  -25.7166   22.2233 C   0  0  0  0  0  0  0  0  0  0  0  0
  -19.5533  -28.4151   22.7446 C   0  0  0  0  0  0  0  0  0  0  0  0
  -27.5458  -20.3759   20.1697 C   0  0  0  0  0  0  0  0  0  0  0  0
  -22.6923  -20.6726   23.1892 C   0  0  0  0  0  0  0  0  0  0  0  0
  -28.7992  -18.4088   19.8833 C   0  0  0  0  0  0  0  0  0  0  0  0
  -31.1748  -17.0015   20.2813 C   0  0  0  0  0  0  0  0  0  0  0  0
  -29.2566  -18.1648   21.1782 C   0  0  0  0  0  0  0  0  0  0  0  0
  -27.3179  -24.3217   21.6784 C   0  0  0  0  0  0  0  0  0  0  0  0
  -27.4469  -26.1162   22.9426 C   0  0  0  0  0  0  0  0  0  0  0  0
  -21.4900  -23.9564   22.1911 C   0  0  0  0  0  0  0  0  0  0  0  0
  -21.3272  -29.0647   21.0894 C   0  0  0  0  0  0  0  0  0  0  0  0
  -28.3200  -24.0420   24.0305 C   0  0  0  0  0  0  0  0  0  0  0  0
  -24.7261  -16.2372   20.8112 C   0  0  0  0  0  0  0  0  0  0  0  0
  -21.7109  -15.0477   20.6857 C   0  0  0  0  0  0  0  0  0  0  0  0
  -18.3904  -15.4954   21.3345 C   0  0  0  0  0  0  0  0  0  0  0  0
  -23.5133  -29.4631   20.0003 C   0  0  0  0  0  0  0  0  0  0  0  0
  -26.8893  -13.0059   17.5041 C   0  0  0  0  0  0  0  0  0  0  0  0
  -23.9587  -16.5590   23.1910 C   0  0  0  0  0  0  0  0  0  0  0  0
  -21.9353  -17.4967   21.2490 C   0  0  0  0  0  0  0  0  0  0  0  0
  -25.6020  -13.8253   17.5466 C   0  0  0  0  0  0  0  0  0  0  0  0
  -27.0272  -29.8481   19.9635 C   0  0  0  0  0  0  0  0  0  0  0  0
  -25.9012  -15.2695   17.9363 C   0  0  0  0  0  0  0  0  0  0  0  0
  -27.5417  -28.5217   20.5294 C   0  0  0  0  0  0  0  0  0  0  0  0
  -25.8038  -29.6474   19.0702 C   0  0  0  0  0  0  0  0  0  0  0  0
  -25.2228  -27.5611   20.2396 C   0  0  0  0  0  0  0  0  0  0  0  0
  -26.5212  -15.3458   19.3368 C   0  0  1  0  0  0  0  0  0  0  0  0
  -23.7280  -15.8440   21.8632 C   0  0  1  0  0  0  0  0  0  0  0  0
  -26.4113  -27.7172   21.2021 C   0  0  1  0  0  0  0  0  0  0  0  0
  -18.2574  -25.0537   23.8764 C   0  0  0  0  0  0  0  0  0  0  0  0
  -16.1645  -14.3639   21.0850 C   0  0  0  0  0  0  0  0  0  0  0  0
  -21.6981  -15.7337   17.7126 C   0  0  0  0  0  0  0  0  0  0  0  0
  -19.2073  -15.4819   17.7364 C   0  0  0  0  0  0  0  0  0  0  0  0
  -20.6618  -13.5293   18.2790 C   0  0  0  0  0  0  0  0  0  0  0  0
  -17.9494  -15.4614   24.2608 C   0  0  0  0  0  0  0  0  0  0  0  0
  -21.8779  -22.5290   21.9456 C   0  0  0  0  0  0  0  0  0  1  0  0
  -20.4462  -15.4159   19.9482 C   0  0  1  0  0  0  0  0  0  0  0  0
  -17.3623  -14.5936   21.9934 C   0  0  2  0  0  0  0  0  0  0  0  0
  -20.5162  -15.0585   18.4366 C   0  0  0  0  0  0  0  0  0  0  0  0
  -26.8093  -25.2996   20.9241 N   0  0  0  0  0  0  0  0  0  0  0  0
  -20.2866  -24.3622   21.9488 N   0  0  0  0  0  0  0  0  0  0  0  0
  -26.9012  -26.3783   21.7204 N   0  0  0  0  0  0  0  0  0  0  0  0
  -22.3979  -16.1002   21.3069 N   0  0  0  0  0  0  0  0  0  0  0  0
  -24.7767  -28.8861   19.7834 N   0  0  0  0  0  0  0  0  0  0  0  0
  -19.2944  -29.7761   23.0215 N   0  0  0  0  0  0  0  0  0  0  0  0
  -27.6126  -27.0873   23.8656 N   0  0  0  0  0  0  0  0  0  0  0  0
  -28.5438  -22.6681   23.8669 N   0  0  0  0  0  0  0  0  0  0  0  0
  -22.6165  -28.6729   20.7279 N   0  0  0  0  0  0  0  0  0  0  0  0
  -25.5004  -15.1894   20.3507 N   0  0  0  0  0  0  0  0  0  0  0  0
  -19.3525  -14.7691   20.6651 N   0  0  0  0  0  0  0  0  0  0  0  0
  -16.8782  -15.2024   23.2646 N   0  3  0  0  0  0  0  0  0  0  0  0
  -20.8133  -30.1465   20.8187 O   0  0  0  0  0  0  0  0  0  0  0  0
  -28.6230  -24.5880   25.1185 O   0  0  0  0  0  0  0  0  0  0  0  0
  -24.7881  -17.4045   20.4434 O   0  0  0  0  0  0  0  0  0  0  0  0
  -22.0719  -13.8686   20.7157 O   0  0  0  0  0  0  0  0  0  0  0  0
  -18.3426  -16.7216   21.4034 O   0  0  0  0  0  0  0  0  0  0  0  0
  -23.2211  -30.5989   19.6130 O   0  0  0  0  0  0  0  0  0  0  0  0
  -27.6197  -19.1065   19.6841 O   0  0  0  0  0  0  0  0  0  0  0  0
  -22.2892  -21.9724   23.1936 O   0  0  0  0  0  0  0  0  0  1  0  0
  -32.3147  -16.3245   20.4723 F   0  0  0  0  0  0  0  0  0  0  0  0
  -28.5587  -18.6029   22.2350 F   0  0  0  0  0  0  0  0  0  0  0  0
  1  2  1  0  0  0  0
  1  5  2  0  0  0  0
  2  6  2  0  0  0  0
  3  8  2  0  0  0  0
  3 17  1  0  0  0  0
  4  9  1  0  0  0  0
  4 17  2  0  0  0  0
  5 20  1  0  0  0  0
  6 22  1  0  0  0  0
  7 10  2  0  0  0  0
  7 21  1  0  0  0  0
  8 27  1  0  0  0  0
  9 27  2  0  0  0  0
 10 28  1  0  0  0  0
 11 12  2  0  0  0  0
 11 29  1  0  0  0  0
 12 30  1  0  0  0  0
 13 18  2  0  0  0  0
 13 25  1  0  0  0  0
 14 23  1  0  0  0  0
 14 28  2  0  0  0  0
 15 24  1  0  0  0  0
 15 26  2  0  0  0  0
 16 30  2  0  0  0  0
 16 31  1  0  0  0  0
 17 32  1  0  0  0  0
 18 26  1  0  0  0  0
 18 35  1  0  0  0  0
 19 32  1  0  0  0  0
 19 33  2  0  0  0  0
 19 36  1  0  0  0  0
 20 22  2  0  0  0  0
 20 41  1  0  0  0  0
 21 23  2  0  0  0  0
 21 42  1  0  0  0  0
 22 50  1  0  0  0  0
 23 43  1  0  0  0  0
 24 25  2  0  0  0  0
 24 53  1  0  0  0  0
 25 64  1  0  0  0  0
 26 68  1  0  0  0  0
 27 81  1  0  0  0  0
 28 82  1  0  0  0  0
 29 31  2  0  0  0  0
 29 81  1  0  0  0  0
 30 83  1  0  0  0  0
 31 84  1  0  0  0  0
 32 63  2  0  0  0  0
 33 65  1  0  0  0  0
 33 69  1  0  0  0  0
 34 59  1  0  0  0  0
 34 64  2  0  0  0  0
 35 71  1  0  0  0  0
 35 75  2  0  0  0  0
 36 70  1  0  0  0  0
 36 76  2  0  0  0  0
 37 51  1  0  0  0  0
 37 72  1  0  0  0  0
 37 77  2  0  0  0  0
 38 60  1  0  0  0  0
 38 66  1  0  0  0  0
 38 78  2  0  0  0  0
 39 61  1  0  0  0  0
 39 73  1  0  0  0  0
 39 79  2  0  0  0  0
 40 67  1  0  0  0  0
 40 71  1  0  0  0  0
 40 80  2  0  0  0  0
 41 44  1  0  0  0  0
 42 51  1  0  0  0  0
 43 66  1  0  0  0  0
 44 46  1  0  0  0  0
 45 47  1  0  0  0  0
 45 48  1  0  0  0  0
 46 50  1  0  0  0  0
 47 52  1  0  0  0  0
 48 67  1  0  0  0  0
 49 52  1  0  0  0  0
 49 67  1  0  0  0  0
 50 72  1  0  0  0  0
 51 66  1  0  0  0  0
 52 65  1  0  0  0  0
 54 61  1  0  0  0  0
 55 62  1  0  0  0  0
 56 62  1  0  0  0  0
 57 62  1  0  0  0  0
 58 74  1  0  0  0  0
 59 82  1  0  0  0  0
 60 62  1  0  0  0  0
 60 73  1  0  0  0  0
 61 74  1  0  0  0  0
 63 65  1  0  0  0  0
M  CHG  1  74   1
M  ISO  4  40 100  59 101  71 100  82 101
M  END
> <Batch ID>
0112

> <Smiles>
CNC(C)C(=O)NC(C(=O)N1Cc2cc([101O:1][101CH:1]=CNc3cc(C(=O)[100NH:0][100C:0](=O)N4CCCC(n5nc(-c6ccc(Oc7ccc(F)cc7F)cc6)c(C(N)=O)c5N)C4)c(N)cc3C)ccc2CC1C(=O)NC1CCCc2ccccc21)C(C)(C)C

> <Shape>
0.216

> <Color>
0.065

> <Negative vol penalty>
0.000

$$$$

  -OEChem-04052301313D

 80 88  0     1  0  0  0  0  0999 V2000
  -19.9926  -22.0577   16.8272 C   0  0  0  0  0  0  0  0  0  0  0  0
  -20.9371  -21.7098   17.7876 C   0  0  0  0  0  0  0  0  0  0  0  0
  -23.0557   -9.8788   19.9568 C   0  0  0  0  0  0  0  0  0  0  0  0
  -23.8709   -9.8698   22.2311 C   0  0  0  0  0  0  0  0  0  0  0  0
  -19.5069  -23.3633   16.7696 C   0  0  0  0  0  0  0  0  0  0  0  0
  -21.3972  -22.6678   18.6904 C   0  0  0  0  0  0  0  0  0  0  0  0
  -21.5950  -20.9241   23.4407 C   0  0  0  0  0  0  0  0  0  0  0  0
  -22.3179   -8.7239   20.2167 C   0  0  0  0  0  0  0  0  0  0  0  0
  -23.1330   -8.7150   22.4910 C   0  0  0  0  0  0  0  0  0  0  0  0
  -22.6719  -20.1037   23.7735 C   0  0  0  0  0  0  0  0  0  0  0  0
  -19.9203   -7.9131   23.1660 C   0  0  0  0  0  0  0  0  0  0  0  0
  -19.1919   -7.8650   24.3545 C   0  0  0  0  0  0  0  0  0  0  0  0
  -23.7749  -21.9821   24.8099 C   0  0  0  0  0  0  0  0  0  0  0  0
  -20.4504   -5.9225   25.0473 C   0  0  0  0  0  0  0  0  0  0  0  0
  -30.2546  -17.7129   25.7354 C   0  0  0  0  0  0  0  0  0  0  0  0
  -23.8323  -10.4517   20.9640 C   0  0  0  0  0  0  0  0  0  0  0  0
  -24.1715  -12.9776   20.8532 C   0  0  0  0  0  0  0  0  0  0  0  0
  -19.9542  -24.3354   17.6783 C   0  0  0  0  0  0  0  0  0  0  0  0
  -21.6047  -22.2845   23.7810 C   0  0  0  0  0  0  0  0  0  0  0  0
  -20.9181  -23.9880   18.6441 C   0  0  0  0  0  0  0  0  0  0  0  0
  -22.6957  -22.8171   24.4825 C   0  0  0  0  0  0  0  0  0  0  0  0
  -22.3565   -8.1421   21.4838 C   0  0  0  0  0  0  0  0  0  0  0  0
  -23.7634  -20.6332   24.4556 C   0  0  0  0  0  0  0  0  0  0  0  0
  -20.9137   -6.9658   22.9180 C   0  0  0  0  0  0  0  0  0  0  0  0
  -19.4570   -6.8698   25.2952 C   0  0  0  0  0  0  0  0  0  0  0  0
  -21.1788   -5.9705   23.8586 C   0  0  0  0  0  0  0  0  0  0  0  0
  -24.5951  -11.6443   20.6960 C   0  0  0  0  0  0  0  0  0  0  0  0
  -29.1950  -18.1051   24.9556 C   0  0  0  0  0  0  0  0  0  0  0  0
  -25.2547  -13.7296   20.4688 C   0  0  0  0  0  0  0  0  0  0  0  0
  -30.2957  -16.6886   23.8578 C   0  0  0  0  0  0  0  0  0  0  0  0
  -28.1437  -19.0809   25.2884 C   0  0  0  0  0  0  0  0  0  0  0  0
  -30.7477  -15.8088   22.8435 C   0  0  0  0  0  0  0  0  0  0  0  0
  -30.1669  -15.6017   21.6176 C   0  0  0  0  0  0  0  0  0  0  0  0
  -27.1392  -19.4440   24.4757 C   0  0  0  0  0  0  0  0  0  0  0  0
  -22.9117  -13.4906   21.3064 C   0  0  0  0  0  0  0  0  0  0  0  0
  -30.7691  -14.6498   20.6561 C   0  0  0  0  0  0  0  0  0  0  0  0
  -21.5315  -25.0072   22.1423 C   0  0  0  0  0  0  0  0  0  0  0  0
  -21.3037  -26.3261   25.0971 C   0  0  0  0  0  0  0  0  0  0  0  0
  -21.8782  -26.0413   28.4491 C   0  0  0  0  0  0  0  0  0  0  0  0
  -19.4353  -25.7454   17.5469 C   0  0  0  0  0  0  0  0  0  0  0  0
  -20.4234  -23.1502   23.4383 C   0  0  0  0  0  0  0  0  0  0  0  0
  -22.7460  -24.2666   24.8887 C   0  0  0  0  0  0  0  0  0  0  0  0
  -19.6959  -26.6077   18.7792 C   0  0  0  0  0  0  0  0  0  0  0  0
  -29.5382  -12.4058   18.1449 C   0  0  0  0  0  0  0  0  0  0  0  0
  -21.1374  -26.4436   19.2504 C   0  0  0  0  0  0  0  0  0  0  0  0
  -28.1210  -12.0873   18.6200 C   0  0  0  0  0  0  0  0  0  0  0  0
  -30.4909  -12.5988   19.3202 C   0  0  0  0  0  0  0  0  0  0  0  0
  -28.6193  -13.3212   20.7775 C   0  0  0  0  0  0  0  0  0  0  0  0
  -21.4233  -24.9928   19.6566 C   0  0  1  0  0  0  0  0  0  0  0  0
  -20.7674  -24.6353   23.3816 C   0  0  1  0  0  0  0  0  0  0  0  0
  -27.6222  -13.1469   19.6186 C   0  0  2  0  0  0  0  0  0  0  0  0
  -21.6184  -27.2975   30.6060 C   0  0  0  0  0  0  0  0  0  0  0  0
  -23.6951  -28.0738   24.3645 C   0  0  0  0  0  0  0  0  0  0  0  0
  -23.9760  -28.5886   26.7985 C   0  0  0  0  0  0  0  0  0  0  0  0
  -21.8830  -29.2573   25.6175 C   0  0  0  0  0  0  0  0  0  0  0  0
  -20.0947  -23.9664   29.5772 C   0  0  0  0  0  0  0  0  0  0  0  0
  -26.1011  -20.4515   24.8535 C   0  0  0  0  0  0  0  0  0  1  0  0
  -22.2916  -26.8152   26.1286 C   0  0  1  0  0  0  0  0  0  0  0  0
  -20.9854  -26.2988   29.6496 C   0  0  2  0  0  0  0  0  0  0  0  0
  -22.9616  -28.1568   25.7181 C   0  0  0  0  0  0  0  0  0  0  0  0
  -25.8494  -11.5514   20.2465 N   0  0  0  0  0  0  0  0  0  0  0  0
  -29.2269  -17.4455   23.7536 N   0  0  0  0  0  0  0  0  0  0  0  0
  -26.2233  -12.8358   20.1180 N   0  0  0  0  0  0  0  0  0  0  0  0
  -29.9705  -13.5837   20.2663 N   0  0  0  0  0  0  0  0  0  0  0  0
  -21.5696  -25.0738   24.5254 N   0  0  0  0  0  0  0  0  0  0  0  0
  -25.4635  -15.0615   20.4000 N   0  0  0  0  0  0  0  0  0  0  0  0
  -21.9080  -12.5791   21.6617 N   0  0  0  0  0  0  0  0  0  0  0  0
  -20.8697  -24.7158   20.9648 N   0  0  0  0  0  0  0  0  0  0  0  0
  -21.5667  -26.8718   27.3934 N   0  0  0  0  0  0  0  0  0  0  0  0
  -20.7364  -25.0305   30.3914 N   0  3  0  0  0  0  0  0  0  0  0  0
  -22.6771  -14.7207   21.3779 O   0  0  0  0  0  0  0  0  0  0  0  0
  -31.9137  -14.9065   20.3065 O   0  0  0  0  0  0  0  0  0  0  0  0
  -22.6387  -25.5217   22.2468 O   0  0  0  0  0  0  0  0  0  0  0  0
  -20.3281  -27.0261   24.8145 O   0  0  0  0  0  0  0  0  0  0  0  0
  -22.7659  -25.1913   28.4493 O   0  0  0  0  0  0  0  0  0  0  0  0
  -30.9746  -16.7944   25.0329 O   0  0  0  0  0  0  0  0  0  0  0  0
  -21.6365   -7.0153   21.7378 O   0  0  0  0  0  0  0  0  0  0  0  0
  -24.8162  -19.8348   24.7811 O   0  0  0  0  0  0  0  0  0  1  0  0
  -18.7585   -6.8247   26.4372 F   0  0  0  0  0  0  0  0  0  0  0  0
  -22.1328   -5.0585   23.6265 F   0  0  0  0  0  0  0  0  0  0  0  0
  1  2  1  0  0  0  0
  1  5  2  0  0  0  0
  2  6  2  0  0  0  0
  3  8  2  0  0  0  0
  3 16  1  0  0  0  0
  4  9  1  0  0  0  0
  4 16  2  0  0  0  0
  5 18  1  0  0  0  0
  6 20  1  0  0  0  0
  7 10  2  0  0  0  0
  7 19  1  0  0  0  0
  8 22  1  0  0  0  0
  9 22  2  0  0  0  0
 10 23  1  0  0  0  0
 11 12  2  0  0  0  0
 11 24  1  0  0  0  0
 12 25  1  0  0  0  0
 13 21  1  0  0  0  0
 13 23  2  0  0  0  0
 14 25  2  0  0  0  0
 14 26  1  0  0  0  0
 15 28  2  0  0  0  0
 15 76  1  0  0  0  0
 16 27  1  0  0  0  0
 17 27  1  0  0  0  0
 17 29  2  0  0  0  0
 17 35  1  0  0  0  0
 18 20  2  0  0  0  0
 18 40  1  0  0  0  0
 19 21  2  0  0  0  0
 19 41  1  0  0  0  0
 20 49  1  0  0  0  0
 21 42  1  0  0  0  0
 22 77  1  0  0  0  0
 23 78  1  0  0  0  0
 24 26  2  0  0  0  0
 24 77  1  0  0  0  0
 25 79  1  0  0  0  0
 26 80  1  0  0  0  0
 27 61  2  0  0  0  0
 28 31  1  0  0  0  0
 28 62  1  0  0  0  0
 29 63  1  0  0  0  0
 29 66  1  0  0  0  0
 30 32  1  0  0  0  0
 30 62  2  0  0  0  0
 30 76  1  0  0  0  0
 31 34  2  0  0  0  0
 32 33  2  0  0  0  0
 33 36  1  0  0  0  0
 34 57  1  0  0  0  0
 35 67  1  0  0  0  0
 35 71  2  0  0  0  0
 36 64  1  0  0  0  0
 36 72  2  0  0  0  0
 37 50  1  0  0  0  0
 37 68  1  0  0  0  0
 37 73  2  0  0  0  0
 38 58  1  0  0  0  0
 38 65  1  0  0  0  0
 38 74  2  0  0  0  0
 39 59  1  0  0  0  0
 39 69  1  0  0  0  0
 39 75  2  0  0  0  0
 40 43  1  0  0  0  0
 41 50  1  0  0  0  0
 42 65  1  0  0  0  0
 43 45  1  0  0  0  0
 44 46  1  0  0  0  0
 44 47  1  0  0  0  0
 45 49  1  0  0  0  0
 46 51  1  0  0  0  0
 47 64  1  0  0  0  0
 48 51  1  0  0  0  0
 48 64  1  0  0  0  0
 49 68  1  0  0  0  0
 50 65  1  0  0  0  0
 51 63  1  0  0  0  0
 52 59  1  0  0  0  0
 53 60  1  0  0  0  0
 54 60  1  0  0  0  0
 55 60  1  0  0  0  0
 56 70  1  0  0  0  0
 57 78  1  0  0  0  0
 58 60  1  0  0  0  0
 58 69  1  0  0  0  0
 59 70  1  0  0  0  0
 61 63  1  0  0  0  0
M  CHG  1  70   1
M  ISO  4  33 100  36 100  57 101  78 101
M  END
> <Batch ID>
0112

> <Smiles>
CNC(C)C(=O)NC(C(=O)N1Cc2cc([101O:1][101CH2:1]C=Cc3coc(C=[100CH:0][100C:0](=O)N4CCCC(n5nc(-c6ccc(Oc7ccc(F)cc7F)cc6)c(C(N)=O)c5N)C4)n3)ccc2CC1C(=O)NC1CCCc2ccccc21)C(C)(C)C

> <Shape>
0.177

> <Color>
0.197

> <Negative vol penalty>
0.000

$$$$

  -OEChem-04052301313D

 87 96  0     1  0  0  0  0  0999 V2000
  -28.1281  -37.9665   24.5775 C   0  0  0  0  0  0  0  0  0  0  0  0
  -28.6921  -36.7332   24.8881 C   0  0  0  0  0  0  0  0  0  0  0  0
  -23.4588   -9.6242   22.5170 C   0  0  0  0  0  0  0  0  0  0  0  0
  -24.3323  -10.7228   20.5505 C   0  0  0  0  0  0  0  0  0  0  0  0
  -26.7430  -38.0943   24.4826 C   0  0  0  0  0  0  0  0  0  0  0  0
  -27.8711  -35.6272   25.1052 C   0  0  0  0  0  0  0  0  0  0  0  0
  -28.5203  -29.6820   21.0897 C   0  0  0  0  0  0  0  0  0  0  0  0
  -22.6240   -8.8484   21.7128 C   0  0  0  0  0  0  0  0  0  0  0  0
  -23.4976   -9.9469   19.7463 C   0  0  0  0  0  0  0  0  0  0  0  0
  -28.7239  -28.4322   20.5042 C   0  0  0  0  0  0  0  0  0  0  0  0
  -22.8981   -6.1069   19.7527 C   0  0  0  0  0  0  0  0  0  0  0  0
  -22.8204   -4.7414   20.0264 C   0  0  0  0  0  0  0  0  0  0  0  0
  -29.3127  -18.9083   17.8285 C   0  0  0  0  0  0  0  0  0  0  0  0
  -29.0486  -16.9617   19.2349 C   0  0  0  0  0  0  0  0  0  0  0  0
  -28.0481  -19.0637   19.8812 C   0  0  0  0  0  0  0  0  0  0  0  0
  -26.8405  -27.5390   21.7301 C   0  0  0  0  0  0  0  0  0  0  0  0
  -20.4472   -4.9564   20.4249 C   0  0  0  0  0  0  0  0  0  0  0  0
  -24.3129  -10.5615   21.9359 C   0  0  0  0  0  0  0  0  0  0  0  0
  -29.5582  -17.5588   18.0819 C   0  0  0  0  0  0  0  0  0  0  0  0
  -28.5577  -19.6607   18.7281 C   0  0  0  0  0  0  0  0  0  0  0  0
  -26.1759  -10.9061   23.6442 C   0  0  0  0  0  0  0  0  0  0  0  0
  -25.9050  -36.9871   24.6891 C   0  0  0  0  0  0  0  0  0  0  0  0
  -27.4652  -29.8691   21.9871 C   0  0  0  0  0  0  0  0  0  0  0  0
  -26.4734  -35.7406   25.0143 C   0  0  0  0  0  0  0  0  0  0  0  0
  -26.6240  -28.7917   22.3103 C   0  0  0  0  0  0  0  0  0  0  0  0
  -28.2936  -17.7142   20.1346 C   0  0  0  0  0  0  0  0  0  0  0  0
  -22.6434   -9.0097   20.3274 C   0  0  0  0  0  0  0  0  0  0  0  0
  -27.8863  -27.3634   20.8238 C   0  0  0  0  0  0  0  0  0  0  0  0
  -21.7504   -6.8972   19.8151 C   0  0  0  0  0  0  0  0  0  0  0  0
  -21.5950   -4.1661   20.3625 C   0  0  0  0  0  0  0  0  0  0  0  0
  -20.5250   -6.3220   20.1513 C   0  0  0  0  0  0  0  0  0  0  0  0
  -25.1751  -11.3636   22.7662 C   0  0  0  0  0  0  0  0  0  0  0  0
  -26.7022  -12.0508   24.1912 C   0  0  0  0  0  0  0  0  0  0  0  0
  -29.1910  -24.0459   20.3994 C   0  0  0  0  0  0  0  0  0  0  0  0
  -31.3292  -17.2743   16.4091 C   0  0  0  0  0  0  0  0  0  0  0  0
  -30.3451  -16.7738   17.1433 C   0  0  0  0  0  0  0  0  0  0  0  0
  -28.9205  -25.2657   20.8755 C   0  0  0  0  0  0  0  0  0  1  0  0
  -28.2981  -21.0840   18.4608 C   0  0  0  0  0  0  0  0  0  0  0  0
  -26.5926   -9.5662   23.9389 C   0  0  0  0  0  0  0  0  0  0  0  0
  -25.6042  -32.2374   24.2240 C   0  0  0  0  0  0  0  0  0  0  0  0
  -23.5022  -30.4949   22.8255 C   0  0  0  0  0  0  0  0  0  0  0  0
  -20.6867  -29.2451   21.3597 C   0  0  0  0  0  0  0  0  0  0  0  0
  -27.0088  -17.7112   22.3015 C   0  0  0  0  0  0  0  0  0  0  0  0
  -24.4113  -37.1847   24.6223 C   0  0  0  0  0  0  0  0  0  0  0  0
  -27.2460  -31.1819   22.6887 C   0  0  0  0  0  0  0  0  0  0  0  0
  -25.5231  -29.0306   23.3072 C   0  0  0  0  0  0  0  0  0  0  0  0
  -30.0956  -23.0457   21.0535 C   0  0  0  0  0  0  0  0  0  0  0  0
  -28.5444  -23.4338   19.1976 C   0  0  0  0  0  0  0  0  0  0  0  0
  -23.6292  -35.8797   24.4982 C   0  0  0  0  0  0  0  0  0  0  0  0
  -25.5151  -16.5513   25.3183 C   0  0  0  0  0  0  0  0  0  0  0  0
  -24.1455  -34.8506   25.4989 C   0  0  0  0  0  0  0  0  0  0  0  0
  -25.3550  -15.0467   25.0885 C   0  0  0  0  0  0  0  0  0  0  0  0
  -29.4744  -21.7243   20.6315 C   0  0  0  0  0  0  0  0  0  0  0  0
  -25.2696  -17.3497   24.0392 C   0  0  0  0  0  0  0  0  0  0  0  0
  -25.9001  -15.4164   22.6485 C   0  0  0  0  0  0  0  0  0  0  0  0
  -25.6172  -34.5120   25.2323 C   0  0  1  0  0  0  0  0  0  0  0  0
  -25.7586  -31.4973   22.9279 C   0  0  1  0  0  0  0  0  0  0  0  0
  -26.2015  -14.5660   23.8934 C   0  0  2  0  0  0  0  0  0  0  0  0
  -18.2417  -28.8755   21.7870 C   0  0  0  0  0  0  0  0  0  0  0  0
  -24.1784  -28.1285   24.6273 C   0  0  0  0  0  0  0  0  0  0  0  0
  -21.8602  -27.2646   24.2433 C   0  0  0  0  0  0  0  0  0  0  0  0
  -22.1987  -29.4679   25.3629 C   0  0  0  0  0  0  0  0  0  0  0  0
  -19.9096  -30.9777   19.0897 C   0  0  0  0  0  0  0  0  0  0  0  0
  -22.6446  -29.2561   22.8833 C   0  0  1  0  0  0  0  0  0  0  0  0
  -19.2884  -29.8174   21.2127 C   0  0  2  0  0  0  0  0  0  0  0  0
  -22.7379  -28.5343   24.2572 C   0  0  0  0  0  0  0  0  0  0  0  0
  -25.0699  -12.6950   22.7531 N   0  0  0  0  0  0  0  0  0  0  0  0
  -26.0113  -13.0840   23.6298 N   0  0  0  0  0  0  0  0  0  0  0  0
  -28.7509  -22.0071   19.3936 N   0  0  0  0  0  0  0  0  0  0  0  0
  -24.8753  -30.3242   23.0399 N   0  0  0  0  0  0  0  0  0  0  0  0
  -26.1085  -16.8409   22.9519 N   0  0  0  0  0  0  0  0  0  0  0  0
  -27.6838  -12.2642   25.0930 N   0  0  0  0  0  0  0  0  0  0  0  0
  -25.9458   -8.5069   23.2878 N   0  0  0  0  0  0  0  0  0  0  0  0
  -27.7768  -17.1077   21.3063 N   0  0  0  0  0  0  0  0  0  0  0  0
  -25.7322  -33.6083   24.1078 N   0  0  0  0  0  0  0  0  0  0  0  0
  -21.2957  -29.6762   22.5193 N   0  0  0  0  0  0  0  0  0  0  0  0
  -18.9727  -30.0504   19.7750 N   0  3  0  0  0  0  0  0  0  0  0  0
  -27.7036  -21.3629   17.4213 O   0  0  0  0  0  0  0  0  0  0  0  0
  -27.5002   -9.3151   24.7676 O   0  0  0  0  0  0  0  0  0  0  0  0
  -25.3835  -31.6118   25.2543 O   0  0  0  0  0  0  0  0  0  0  0  0
  -22.9710  -31.5863   22.6021 O   0  0  0  0  0  0  0  0  0  0  0  0
  -21.1872  -28.4880   20.5309 O   0  0  0  0  0  0  0  0  0  0  0  0
  -27.1117  -18.8976   22.6237 O   0  0  0  0  0  0  0  0  0  0  0  0
  -21.8291   -8.2526   19.5424 O   0  0  0  0  0  0  0  0  0  0  0  0
  -28.0879  -26.1472   20.2450 O   0  0  0  0  0  0  0  0  0  1  0  0
  -21.5202   -2.8545   20.6238 F   0  0  0  0  0  0  0  0  0  0  0  0
  -19.4187   -7.0759   20.2117 F   0  0  0  0  0  0  0  0  0  0  0  0
  1  2  1  0  0  0  0
  1  5  2  0  0  0  0
  2  6  2  0  0  0  0
  3  8  2  0  0  0  0
  3 18  1  0  0  0  0
  4  9  1  0  0  0  0
  4 18  2  0  0  0  0
  5 22  1  0  0  0  0
  6 24  1  0  0  0  0
  7 10  2  0  0  0  0
  7 23  1  0  0  0  0
  8 27  1  0  0  0  0
  9 27  2  0  0  0  0
 10 28  1  0  0  0  0
 11 12  2  0  0  0  0
 11 29  1  0  0  0  0
 12 30  1  0  0  0  0
 13 19  2  0  0  0  0
 13 20  1  0  0  0  0
 14 19  1  0  0  0  0
 14 26  2  0  0  0  0
 15 20  2  0  0  0  0
 15 26  1  0  0  0  0
 16 25  1  0  0  0  0
 16 28  2  0  0  0  0
 17 30  2  0  0  0  0
 17 31  1  0  0  0  0
 18 32  1  0  0  0  0
 19 36  1  0  0  0  0
 20 38  1  0  0  0  0
 21 32  1  0  0  0  0
 21 33  2  0  0  0  0
 21 39  1  0  0  0  0
 22 24  2  0  0  0  0
 22 44  1  0  0  0  0
 23 25  2  0  0  0  0
 23 45  1  0  0  0  0
 24 56  1  0  0  0  0
 25 46  1  0  0  0  0
 26 74  1  0  0  0  0
 27 84  1  0  0  0  0
 28 85  1  0  0  0  0
 29 31  2  0  0  0  0
 29 84  1  0  0  0  0
 30 86  1  0  0  0  0
 31 87  1  0  0  0  0
 32 67  2  0  0  0  0
 33 68  1  0  0  0  0
 33 72  1  0  0  0  0
 34 37  2  0  0  0  0
 34 47  1  0  0  0  0
 34 48  1  0  0  0  0
 35 36  2  0  0  0  0
 37 85  1  0  0  0  0
 38 69  1  0  0  0  0
 38 78  2  0  0  0  0
 39 73  1  0  0  0  0
 39 79  2  0  0  0  0
 40 57  1  0  0  0  0
 40 75  1  0  0  0  0
 40 80  2  0  0  0  0
 41 64  1  0  0  0  0
 41 70  1  0  0  0  0
 41 81  2  0  0  0  0
 42 65  1  0  0  0  0
 42 76  1  0  0  0  0
 42 82  2  0  0  0  0
 43 71  1  0  0  0  0
 43 74  1  0  0  0  0
 43 83  2  0  0  0  0
 44 49  1  0  0  0  0
 45 57  1  0  0  0  0
 46 70  1  0  0  0  0
 47 53  1  0  0  0  0
 48 69  1  0  0  0  0
 49 51  1  0  0  0  0
 50 52  1  0  0  0  0
 50 54  1  0  0  0  0
 51 56  1  0  0  0  0
 52 58  1  0  0  0  0
 53 69  1  0  0  0  0
 54 71  1  0  0  0  0
 55 58  1  0  0  0  0
 55 71  1  0  0  0  0
 56 75  1  0  0  0  0
 57 70  1  0  0  0  0
 58 68  1  0  0  0  0
 59 65  1  0  0  0  0
 60 66  1  0  0  0  0
 61 66  1  0  0  0  0
 62 66  1  0  0  0  0
 63 77  1  0  0  0  0
 64 66  1  0  0  0  0
 64 76  1  0  0  0  0
 65 77  1  0  0  0  0
 67 68  1  0  0  0  0
M  CHG  1  77   1
M  ISO  4  37 101  43 100  74 100  85 101
M  END
> <Batch ID>
0112

> <Smiles>
C=Cc1cc([100NH:0][100C:0](=O)N2CCCC(n3nc(-c4ccc(Oc5ccc(F)cc5F)cc4)c(C(N)=O)c3N)C2)cc(C(=O)N2CCC(=[101CH:1][101O:1]c3ccc4c(c3)CN(C(=O)C(NC(=O)C(C)NC)C(C)(C)C)C(C(=O)NC3CCCc5ccccc53)C4)C2)c1

> <Shape>
0.261

> <Color>
0.059

> <Negative vol penalty>
0.000

$$$$

  -OEChem-04052301313D

 85 93  0     1  0  0  0  0  0999 V2000
  -30.6591  -35.5233   22.8125 C   0  0  0  0  0  0  0  0  0  0  0  0
  -30.7198  -34.3021   22.1488 C   0  0  0  0  0  0  0  0  0  0  0  0
  -23.1890   -9.2816   20.6581 C   0  0  0  0  0  0  0  0  0  0  0  0
  -23.1285  -10.8748   22.4733 C   0  0  0  0  0  0  0  0  0  0  0  0
  -29.7735  -35.6943   23.8757 C   0  0  0  0  0  0  0  0  0  0  0  0
  -29.8956  -33.2508   22.5488 C   0  0  0  0  0  0  0  0  0  0  0  0
  -27.3400  -29.0032   18.9526 C   0  0  0  0  0  0  0  0  0  0  0  0
  -22.4612   -8.3753   21.4292 C   0  0  0  0  0  0  0  0  0  0  0  0
  -22.4006   -9.9686   23.2444 C   0  0  0  0  0  0  0  0  0  0  0  0
  -27.7019  -27.6920   18.6468 C   0  0  0  0  0  0  0  0  0  0  0  0
  -20.9281   -5.5049   23.0522 C   0  0  0  0  0  0  0  0  0  0  0  0
  -21.3542   -4.1769   23.0695 C   0  0  0  0  0  0  0  0  0  0  0  0
  -28.8846  -17.3963   22.0465 C   0  0  0  0  0  0  0  0  0  0  0  0
  -26.2024  -26.8859   20.3560 C   0  0  0  0  0  0  0  0  0  0  0  0
  -29.1624  -19.7573   22.4772 C   0  0  0  0  0  0  0  0  0  0  0  0
  -23.4867   -4.8729   23.9669 C   0  0  0  0  0  0  0  0  0  0  0  0
  -23.5227  -10.5313   21.1802 C   0  0  0  0  0  0  0  0  0  0  0  0
  -29.0265  -17.6291   20.6786 C   0  0  0  0  0  0  0  0  0  0  0  0
  -23.7624  -12.4446   19.5100 C   0  0  0  0  0  0  0  0  0  0  0  0
  -28.9312  -34.6476   24.2826 C   0  0  0  0  0  0  0  0  0  0  0  0
  -26.4132  -29.2666   19.9715 C   0  0  0  0  0  0  0  0  0  0  0  0
  -28.9989  -33.4075   23.6193 C   0  0  0  0  0  0  0  0  0  0  0  0
  -25.8286  -28.2013   20.6710 C   0  0  0  0  0  0  0  0  0  0  0  0
  -29.2365  -18.9260   20.2100 C   0  0  0  0  0  0  0  0  0  0  0  0
  -22.0669   -8.7189   22.7223 C   0  0  0  0  0  0  0  0  0  0  0  0
  -27.1353  -26.6332   19.3505 C   0  0  0  0  0  0  0  0  0  0  0  0
  -21.7813   -6.5170   23.4921 C   0  0  0  0  0  0  0  0  0  0  0  0
  -29.3044  -19.9902   21.1093 C   0  0  0  0  0  0  0  0  0  0  0  0
  -22.6335   -3.8609   23.5269 C   0  0  0  0  0  0  0  0  0  0  0  0
  -28.9525  -18.4604   22.9459 C   0  0  0  0  0  0  0  0  0  0  0  0
  -23.0606   -6.2010   23.9495 C   0  0  0  0  0  0  0  0  0  0  0  0
  -24.2751  -11.4676   20.3843 C   0  0  0  0  0  0  0  0  0  0  0  0
  -24.8754  -13.0680   19.0011 C   0  0  0  0  0  0  0  0  0  0  0  0
  -28.9509  -16.4981   19.7633 C   0  0  0  0  0  0  0  0  0  0  0  0
  -22.4017  -12.7604   19.1868 C   0  0  0  0  0  0  0  0  0  0  0  0
  -29.9025  -15.3672   19.8577 C   0  0  0  0  0  0  0  0  0  0  0  0
  -26.5057  -30.8263   22.7396 C   0  0  0  0  0  0  0  0  0  0  0  0
  -28.4701  -23.3105   19.9062 C   0  0  0  0  0  0  0  0  0  0  0  0
  -23.3214  -30.2078   22.7486 C   0  0  0  0  0  0  0  0  0  0  0  0
  -20.7470  -28.2509   21.6576 C   0  0  0  0  0  0  0  0  0  0  0  0
  -28.0239  -34.8649   25.4677 C   0  0  0  0  0  0  0  0  0  0  0  0
  -26.0134  -30.6853   20.2711 C   0  0  0  0  0  0  0  0  0  0  0  0
  -24.8136  -28.4297   21.7601 C   0  0  0  0  0  0  0  0  0  0  0  0
  -26.9181  -33.8194   25.5879 C   0  0  0  0  0  0  0  0  0  0  0  0
  -29.7649  -11.8334   19.2659 C   0  0  0  0  0  0  0  0  0  0  0  0
  -27.4875  -32.4164   25.4022 C   0  0  0  0  0  0  0  0  0  0  0  0
  -28.2880  -11.4983   19.4712 C   0  0  0  0  0  0  0  0  0  0  0  0
  -30.2196  -12.9486   20.2019 C   0  0  0  0  0  0  0  0  0  0  0  0
  -27.9172  -13.8635   20.3041 C   0  0  0  0  0  0  0  0  0  0  0  0
  -28.1034  -32.2511   24.0077 C   0  0  1  0  0  0  0  0  0  0  0  0
  -25.4452  -30.8620   21.6758 C   0  0  1  0  0  0  0  0  0  0  0  0
  -27.4144  -12.7602   19.3568 C   0  0  2  0  0  0  0  0  0  0  0  0
  -29.3891  -19.1849   18.7446 C   0  0  0  0  0  0  0  0  0  0  0  0
  -18.2622  -27.9687   21.8653 C   0  0  0  0  0  0  0  0  0  0  0  0
  -23.6946  -28.9804   25.5171 C   0  0  0  0  0  0  0  0  0  0  0  0
  -21.4530  -27.8951   25.2616 C   0  0  0  0  0  0  0  0  0  0  0  0
  -21.6391  -30.3826   25.2661 C   0  0  0  0  0  0  0  0  0  0  0  0
  -20.3378  -28.6939   18.7602 C   0  0  0  0  0  0  0  0  0  0  0  0
  -27.4437  -24.4042   20.1199 C   0  0  0  0  0  0  0  0  0  1  0  0
  -28.5114  -22.2276   20.9647 C   0  0  0  0  0  0  0  0  0  0  0  0
  -22.4523  -29.0825   23.2560 C   0  0  1  0  0  0  0  0  0  0  0  0
  -19.3924  -28.6038   21.0703 C   0  0  2  0  0  0  0  0  0  0  0  0
  -22.3303  -29.0806   24.8060 C   0  0  0  0  0  0  0  0  0  0  0  0
  -25.6100  -11.4665   20.4306 N   0  0  0  0  0  0  0  0  0  0  0  0
  -28.0574  -16.4032   18.8178 N   0  0  0  0  0  0  0  0  0  0  0  0
  -25.9455  -12.4504   19.5788 N   0  0  0  0  0  0  0  0  0  0  0  0
  -29.3482  -14.1170   20.0945 N   0  0  0  0  0  0  0  0  0  0  0  0
  -24.4600  -29.8349   22.0203 N   0  0  0  0  0  0  0  0  0  0  0  0
  -25.0334  -14.0787   18.1202 N   0  0  0  0  0  0  0  0  0  0  0  0
  -21.3806  -12.0218   19.8000 N   0  0  0  0  0  0  0  0  0  0  0  0
  -27.0664  -32.0585   23.0168 N   0  0  0  0  0  0  0  0  0  0  0  0
  -21.1779  -29.2037   22.5565 N   0  0  0  0  0  0  0  0  0  0  0  0
  -19.2996  -28.1296   19.6605 N   0  3  0  0  0  0  0  0  0  0  0  0
  -22.1007  -13.6597   18.3657 O   0  0  0  0  0  0  0  0  0  0  0  0
  -31.0830  -15.6582   19.7165 O   0  0  0  0  0  0  0  0  0  0  0  0
  -26.7929  -29.7599   23.2708 O   0  0  0  0  0  0  0  0  0  0  0  0
  -29.2234  -23.3028   18.9338 O   0  0  0  0  0  0  0  0  0  0  0  0
  -22.9980  -31.3747   22.9835 O   0  0  0  0  0  0  0  0  0  0  0  0
  -21.3599  -27.2302   21.3526 O   0  0  0  0  0  0  0  0  0  0  0  0
  -21.3565   -7.8349   23.4750 O   0  0  0  0  0  0  0  0  0  0  0  0
  -27.4872  -25.3525   19.0545 O   0  0  0  0  0  0  0  0  0  1  0  0
  -29.5106  -21.2754   20.6669 O   0  0  0  0  0  0  0  0  0  0  0  0
  -23.0420   -2.5853   23.5450 F   0  0  0  0  0  0  0  0  0  0  0  0
  -28.8164  -18.2368   24.2595 F   0  0  0  0  0  0  0  0  0  0  0  0
  -23.8843   -7.1688   24.3745 F   0  0  0  0  0  0  0  0  0  0  0  0
  1  2  1  0  0  0  0
  1  5  2  0  0  0  0
  2  6  2  0  0  0  0
  3  8  2  0  0  0  0
  3 17  1  0  0  0  0
  4  9  1  0  0  0  0
  4 17  2  0  0  0  0
  5 20  1  0  0  0  0
  6 22  1  0  0  0  0
  7 10  2  0  0  0  0
  7 21  1  0  0  0  0
  8 25  1  0  0  0  0
  9 25  2  0  0  0  0
 10 26  1  0  0  0  0
 11 12  2  0  0  0  0
 11 27  1  0  0  0  0
 12 29  1  0  0  0  0
 13 18  2  0  0  0  0
 13 30  1  0  0  0  0
 14 23  1  0  0  0  0
 14 26  2  0  0  0  0
 15 28  1  0  0  0  0
 15 30  2  0  0  0  0
 16 29  2  0  0  0  0
 16 31  1  0  0  0  0
 17 32  1  0  0  0  0
 18 24  1  0  0  0  0
 18 34  1  0  0  0  0
 19 32  1  0  0  0  0
 19 33  2  0  0  0  0
 19 35  1  0  0  0  0
 20 22  2  0  0  0  0
 20 41  1  0  0  0  0
 21 23  2  0  0  0  0
 21 42  1  0  0  0  0
 22 50  1  0  0  0  0
 23 43  1  0  0  0  0
 24 28  2  0  0  0  0
 24 53  1  0  0  0  0
 25 80  1  0  0  0  0
 26 81  1  0  0  0  0
 27 31  2  0  0  0  0
 27 80  1  0  0  0  0
 28 82  1  0  0  0  0
 29 83  1  0  0  0  0
 30 84  1  0  0  0  0
 31 85  1  0  0  0  0
 32 64  2  0  0  0  0
 33 66  1  0  0  0  0
 33 69  1  0  0  0  0
 34 36  1  0  0  0  0
 34 65  2  0  0  0  0
 35 70  1  0  0  0  0
 35 74  2  0  0  0  0
 36 67  1  0  0  0  0
 36 75  2  0  0  0  0
 37 51  1  0  0  0  0
 37 71  1  0  0  0  0
 37 76  2  0  0  0  0
 38 59  1  0  0  0  0
 38 60  1  0  0  0  0
 38 77  2  0  0  0  0
 39 61  1  0  0  0  0
 39 68  1  0  0  0  0
 39 78  2  0  0  0  0
 40 62  1  0  0  0  0
 40 72  1  0  0  0  0
 40 79  2  0  0  0  0
 41 44  1  0  0  0  0
 42 51  1  0  0  0  0
 43 68  1  0  0  0  0
 44 46  1  0  0  0  0
 45 47  1  0  0  0  0
 45 48  1  0  0  0  0
 46 50  1  0  0  0  0
 47 52  1  0  0  0  0
 48 67  1  0  0  0  0
 49 52  1  0  0  0  0
 49 67  1  0  0  0  0
 50 71  1  0  0  0  0
 51 68  1  0  0  0  0
 52 66  1  0  0  0  0
 54 62  1  0  0  0  0
 55 63  1  0  0  0  0
 56 63  1  0  0  0  0
 57 63  1  0  0  0  0
 58 73  1  0  0  0  0
 59 81  1  0  0  0  0
 60 82  1  0  0  0  0
 61 63  1  0  0  0  0
 61 72  1  0  0  0  0
 62 73  1  0  0  0  0
 64 66  1  0  0  0  0
M  CHG  1  73   1
M  ISO  4  34 100  36 100  59 101  81 101
M  END
> <Batch ID>
0112

> <Smiles>
CNC(C)C(=O)NC(C(=O)N1Cc2cc([101O:1][101CH2:1]C(=O)COc3cc(F)cc([100C:0](=N)[100C:0](=O)N4CCCC(n5nc(-c6ccc(Oc7ccc(F)cc7F)cc6)c(C(N)=O)c5N)C4)c3C)ccc2CC1C(=O)NC1CCCc2ccccc21)C(C)(C)C

> <Shape>
0.328

> <Color>
0.132

> <Negative vol penalty>
0.000

$$$$

  -OEChem-04052301313D

 87 96  0     1  0  0  0  0  0999 V2000
  -29.3880  -36.9994   20.0619 C   0  0  0  0  0  0  0  0  0  0  0  0
  -29.5694  -35.6303   19.8944 C   0  0  0  0  0  0  0  0  0  0  0  0
  -24.1873   -9.2123   21.6596 C   0  0  0  0  0  0  0  0  0  0  0  0
  -24.6618  -10.6275   23.5594 C   0  0  0  0  0  0  0  0  0  0  0  0
  -28.5177  -37.4711   21.0438 C   0  0  0  0  0  0  0  0  0  0  0  0
  -28.8814  -34.7321   20.7094 C   0  0  0  0  0  0  0  0  0  0  0  0
  -26.7297  -29.2229   19.1203 C   0  0  0  0  0  0  0  0  0  0  0  0
  -30.5111  -20.1411   20.0263 C   0  0  0  0  0  0  0  0  0  0  0  0
  -30.3103  -18.7883   19.7525 C   0  0  0  0  0  0  0  0  0  0  0  0
  -23.8172   -8.1797   22.5212 C   0  0  0  0  0  0  0  0  0  0  0  0
  -24.2916   -9.5949   24.4210 C   0  0  0  0  0  0  0  0  0  0  0  0
  -27.2301  -27.9337   19.2973 C   0  0  0  0  0  0  0  0  0  0  0  0
  -21.1277   -7.3380   24.3897 C   0  0  0  0  0  0  0  0  0  0  0  0
  -19.9587   -6.6361   24.0958 C   0  0  0  0  0  0  0  0  0  0  0  0
  -25.8789  -27.6880   21.2804 C   0  0  0  0  0  0  0  0  0  0  0  0
  -28.1262  -20.4475   20.2616 C   0  0  0  0  0  0  0  0  0  0  0  0
  -21.2309   -4.5894   23.9232 C   0  0  0  0  0  0  0  0  0  0  0  0
  -24.6096  -10.4362   22.1787 C   0  0  0  0  0  0  0  0  0  0  0  0
  -24.1595  -12.5029   20.7526 C   0  0  0  0  0  0  0  0  0  0  0  0
  -27.8113  -36.5781   21.8648 C   0  0  0  0  0  0  0  0  0  0  0  0
  -25.8068  -29.7593   20.0296 C   0  0  0  0  0  0  0  0  0  0  0  0
  -28.0018  -35.1923   21.7041 C   0  0  0  0  0  0  0  0  0  0  0  0
  -25.3663  -28.9834   21.1113 C   0  0  0  0  0  0  0  0  0  0  0  0
  -29.4190  -20.9708   20.2810 C   0  0  0  0  0  0  0  0  0  0  0  0
  -29.0175  -18.2650   19.7332 C   0  0  0  0  0  0  0  0  0  0  0  0
  -23.8693   -8.3710   23.9019 C   0  0  0  0  0  0  0  0  0  0  0  0
  -26.8069  -27.1671   20.3791 C   0  0  0  0  0  0  0  0  0  0  0  0
  -22.3484   -6.6656   24.4503 C   0  0  0  0  0  0  0  0  0  0  0  0
  -27.9254  -19.0946   19.9878 C   0  0  0  0  0  0  0  0  0  0  0  0
  -20.0103   -5.2618   23.8626 C   0  0  0  0  0  0  0  0  0  0  0  0
  -22.4000   -5.2914   24.2171 C   0  0  0  0  0  0  0  0  0  0  0  0
  -24.9926  -11.5030   21.2891 C   0  0  0  0  0  0  0  0  0  0  0  0
  -24.9961  -13.2666   19.9758 C   0  0  0  0  0  0  0  0  0  0  0  0
  -29.2301  -24.5702   20.8981 C   0  0  0  0  0  0  0  0  0  0  0  0
  -28.6426  -25.7580   20.7183 C   0  0  0  0  0  0  0  0  0  1  0  0
  -22.7549  -12.7219   20.9397 C   0  0  0  0  0  0  0  0  0  0  0  0
  -25.7959  -32.2441   22.0118 C   0  0  0  0  0  0  0  0  0  0  0  0
  -22.7041  -31.3731   22.4641 C   0  0  0  0  0  0  0  0  0  0  0  0
  -20.3407  -28.9138   22.3506 C   0  0  0  0  0  0  0  0  0  0  0  0
  -29.8154  -15.9400   19.1819 C   0  0  0  0  0  0  0  0  0  0  0  0
  -26.9176  -37.1360   22.9439 C   0  0  0  0  0  0  0  0  0  0  0  0
  -25.2563  -31.1417   19.8097 C   0  0  0  0  0  0  0  0  0  0  0  0
  -24.3617  -29.5053   22.1046 C   0  0  0  0  0  0  0  0  0  0  0  0
  -30.6991  -24.3556   21.0813 C   0  0  0  0  0  0  0  0  0  0  0  0
  -28.5308  -23.2458   20.8297 C   0  0  0  0  0  0  0  0  0  0  0  0
  -25.9417  -36.1114   23.5167 C   0  0  0  0  0  0  0  0  0  0  0  0
  -29.7628  -12.4494   18.4818 C   0  0  0  0  0  0  0  0  0  0  0  0
  -26.6617  -34.8025   23.8249 C   0  0  0  0  0  0  0  0  0  0  0  0
  -28.4486  -11.9743   19.1056 C   0  0  0  0  0  0  0  0  0  0  0  0
  -30.9184  -22.9715   20.4769 C   0  0  0  0  0  0  0  0  0  0  0  0
  -30.4296  -13.5363   19.3231 C   0  0  0  0  0  0  0  0  0  0  0  0
  -28.2578  -14.2079   20.2725 C   0  0  0  0  0  0  0  0  0  0  0  0
  -27.2546  -34.1860   22.5521 C   0  0  1  0  0  0  0  0  0  0  0  0
  -24.7098  -31.7770   21.0845 C   0  0  1  0  0  0  0  0  0  0  0  0
  -27.5167  -13.1590   19.4273 C   0  0  2  0  0  0  0  0  0  0  0  0
  -17.9106  -28.4940   22.8153 C   0  0  0  0  0  0  0  0  0  0  0  0
  -24.6723  -19.5763   20.9239 C   0  0  0  0  0  0  0  0  0  0  0  0
  -25.5318  -17.3294   21.6752 C   0  0  0  0  0  0  0  0  0  0  0  0
  -23.2892  -31.3149   25.4581 C   0  0  0  0  0  0  0  0  0  0  0  0
  -21.1796  -30.0042   25.7742 C   0  0  0  0  0  0  0  0  0  0  0  0
  -21.0814  -32.3175   24.8459 C   0  0  0  0  0  0  0  0  0  0  0  0
  -19.8056  -28.1969   19.5295 C   0  0  0  0  0  0  0  0  0  0  0  0
  -21.9828  -30.4427   23.4091 C   0  0  1  0  0  0  0  0  0  0  0  0
  -18.9393  -28.8896   21.7675 C   0  0  2  0  0  0  0  0  0  0  0  0
  -25.9025  -18.7193   21.1806 C   0  0  0  0  0  0  0  0  0  0  0  0
  -21.9037  -31.0104   24.8544 C   0  0  0  0  0  0  0  0  0  0  0  0
  -26.2611  -11.6183   20.8871 N   0  0  0  0  0  0  0  0  0  0  0  0
  -26.2313  -12.6996   20.0896 N   0  0  0  0  0  0  0  0  0  0  0  0
  -29.6178  -22.3102   20.5528 N   0  0  3  0  0  0  0  0  0  0  0  0
  -23.8576  -30.8650   21.8501 N   0  0  0  0  0  0  0  0  0  0  0  0
  -29.4887  -14.6277   19.5844 N   0  0  0  0  0  0  0  0  0  0  0  0
  -24.7882  -14.3611   19.2134 N   0  0  0  0  0  0  0  0  0  0  0  0
  -22.0466  -11.8430   21.7704 N   0  0  0  0  0  0  0  0  0  0  0  0
  -28.8301  -16.8886   19.4538 N   0  0  0  0  0  0  0  0  0  0  0  0
  -26.2199  -33.5378   21.7752 N   0  0  0  0  0  0  0  0  0  0  0  0
  -20.6844  -30.1704   22.8021 N   0  0  0  0  0  0  0  0  0  0  0  0
  -18.8631  -27.9149   20.6427 N   0  3  0  0  0  0  0  0  0  0  0  0
  -22.1429  -13.6591   20.3736 O   0  0  0  0  0  0  0  0  0  0  0  0
  -26.2169  -31.4874   22.8789 O   0  0  0  0  0  0  0  0  0  0  0  0
  -22.2564  -32.5064   22.2721 O   0  0  0  0  0  0  0  0  0  0  0  0
  -21.0573  -27.9167   22.4039 O   0  0  0  0  0  0  0  0  0  0  0  0
  -30.8785  -16.1982   18.6118 O   0  0  0  0  0  0  0  0  0  0  0  0
  -23.5080   -7.3637   24.7430 O   0  0  0  0  0  0  0  0  0  0  0  0
  -27.2942  -25.9087   20.5546 O   0  0  0  0  0  0  0  0  0  1  0  0
  -26.6537  -18.6035   19.9743 O   0  0  0  0  0  0  0  0  0  0  0  0
  -18.8874   -4.5877   23.5819 F   0  0  0  0  0  0  0  0  0  0  0  0
  -23.5695   -4.6398   24.2751 F   0  0  0  0  0  0  0  0  0  0  0  0
  1  2  1  0  0  0  0
  1  5  2  0  0  0  0
  2  6  2  0  0  0  0
  3 10  2  0  0  0  0
  3 18  1  0  0  0  0
  4 11  1  0  0  0  0
  4 18  2  0  0  0  0
  5 20  1  0  0  0  0
  6 22  1  0  0  0  0
  7 12  2  0  0  0  0
  7 21  1  0  0  0  0
  8  9  2  0  0  0  0
  8 24  1  0  0  0  0
  9 25  1  0  0  0  0
 10 26  1  0  0  0  0
 11 26  2  0  0  0  0
 12 27  1  0  0  0  0
 13 14  2  0  0  0  0
 13 28  1  0  0  0  0
 14 30  1  0  0  0  0
 15 23  1  0  0  0  0
 15 27  2  0  0  0  0
 16 24  2  0  0  0  0
 16 29  1  0  0  0  0
 17 30  2  0  0  0  0
 17 31  1  0  0  0  0
 18 32  1  0  0  0  0
 19 32  1  0  0  0  0
 19 33  2  0  0  0  0
 19 36  1  0  0  0  0
 20 22  2  0  0  0  0
 20 41  1  0  0  0  0
 21 23  2  0  0  0  0
 21 42  1  0  0  0  0
 22 53  1  0  0  0  0
 23 43  1  0  0  0  0
 24 69  1  0  0  0  0
 25 29  2  0  0  0  0
 25 74  1  0  0  0  0
 26 83  1  0  0  0  0
 27 84  1  0  0  0  0
 28 31  2  0  0  0  0
 28 83  1  0  0  0  0
 29 85  1  0  0  0  0
 30 86  1  0  0  0  0
 31 87  1  0  0  0  0
 32 67  2  0  0  0  0
 33 68  1  0  0  0  0
 33 72  1  0  0  0  0
 34 35  2  0  0  0  0
 34 44  1  0  0  0  0
 34 45  1  0  0  0  0
 35 84  1  0  0  0  0
 36 73  1  0  0  0  0
 36 78  2  0  0  0  0
 37 54  1  0  0  0  0
 37 75  1  0  0  0  0
 37 79  2  0  0  0  0
 38 63  1  0  0  0  0
 38 70  1  0  0  0  0
 38 80  2  0  0  0  0
 39 64  1  0  0  0  0
 39 76  1  0  0  0  0
 39 81  2  0  0  0  0
 40 71  1  0  0  0  0
 40 74  1  0  0  0  0
 40 82  2  0  0  0  0
 41 46  1  0  0  0  0
 42 54  1  0  0  0  0
 43 70  1  0  0  0  0
 44 50  1  0  0  0  0
 45 69  1  0  0  0  0
 46 48  1  0  0  0  0
 47 49  1  0  0  0  0
 47 51  1  0  0  0  0
 48 53  1  0  0  0  0
 49 55  1  0  0  0  0
 50 69  1  0  0  0  0
 51 71  1  0  0  0  0
 52 55  1  0  0  0  0
 52 71  1  0  0  0  0
 53 75  1  0  0  0  0
 54 70  1  0  0  0  0
 55 68  1  0  0  0  0
 56 64  1  0  0  0  0
 57 65  1  0  0  0  0
 58 65  1  0  0  0  0
 59 66  1  0  0  0  0
 60 66  1  0  0  0  0
 61 66  1  0  0  0  0
 62 77  1  0  0  0  0
 63 66  1  0  0  0  0
 63 76  1  0  0  0  0
 64 77  1  0  0  0  0
 65 85  1  0  0  0  0
 67 68  1  0  0  0  0
M  CHG  1  77   1
M  ISO  4  35 101  40 100  74 100  84 101
M  END
> <Batch ID>
0112

> <Smiles>
CNC(C)C(=O)NC(C(=O)N1Cc2cc([101O:1][101CH:1]=C3CCN(c4ccc([100NH:0][100C:0](=O)N5CCCC(n6nc(-c7ccc(Oc8ccc(F)cc8F)cc7)c(C(N)=O)c6N)C5)c(OC(C)C)c4)C3)ccc2CC1C(=O)NC1CCCc2ccccc21)C(C)(C)C

> <Shape>
0.334

> <Color>
0.115

> <Negative vol penalty>
0.000

$$$$

  -OEChem-04052301313D

 85 93  0     1  0  0  0  0  0999 V2000
  -27.1411  -30.3869   30.5578 C   0  0  0  0  0  0  0  0  0  0  0  0
  -27.4685  -29.7115   29.3864 C   0  0  0  0  0  0  0  0  0  0  0  0
  -23.4197   -9.6341   19.8894 C   0  0  0  0  0  0  0  0  0  0  0  0
  -23.9637   -9.8114   22.2367 C   0  0  0  0  0  0  0  0  0  0  0  0
  -26.3263  -31.5170   30.5051 C   0  0  0  0  0  0  0  0  0  0  0  0
  -26.9802  -30.1654   28.1616 C   0  0  0  0  0  0  0  0  0  0  0  0
  -30.5324  -30.2168   24.5528 C   0  0  0  0  0  0  0  0  0  0  0  0
  -22.8021   -8.4059   20.1253 C   0  0  0  0  0  0  0  0  0  0  0  0
  -23.3461   -8.5831   22.4726 C   0  0  0  0  0  0  0  0  0  0  0  0
  -30.8582  -28.9964   23.9625 C   0  0  0  0  0  0  0  0  0  0  0  0
  -20.1979   -7.4083   22.8321 C   0  0  0  0  0  0  0  0  0  0  0  0
  -19.3492   -7.3126   23.9349 C   0  0  0  0  0  0  0  0  0  0  0  0
  -28.8566  -18.3811   22.9131 C   0  0  0  0  0  0  0  0  0  0  0  0
  -29.4583  -29.5424   22.0754 C   0  0  0  0  0  0  0  0  0  0  0  0
  -31.0536  -18.2020   21.9242 C   0  0  0  0  0  0  0  0  0  0  0  0
  -20.7457   -5.5707   24.8584 C   0  0  0  0  0  0  0  0  0  0  0  0
  -24.0005  -10.3369   20.9451 C   0  0  0  0  0  0  0  0  0  0  0  0
  -29.1587  -19.6705   23.3509 C   0  0  0  0  0  0  0  0  0  0  0  0
  -24.0421  -12.8796   20.7444 C   0  0  0  0  0  0  0  0  0  0  0  0
  -25.8357  -31.9905   29.2781 C   0  0  0  0  0  0  0  0  0  0  0  0
  -29.6571  -31.1059   23.9127 C   0  0  0  0  0  0  0  0  0  0  0  0
  -26.1569  -31.3021   28.0926 C   0  0  0  0  0  0  0  0  0  0  0  0
  -29.1250  -30.7745   22.6584 C   0  0  0  0  0  0  0  0  0  0  0  0
  -29.8041  -17.6468   22.1998 C   0  0  0  0  0  0  0  0  0  0  0  0
  -22.7653   -7.8804   21.4168 C   0  0  0  0  0  0  0  0  0  0  0  0
  -30.3188  -28.6578   22.7250 C   0  0  0  0  0  0  0  0  0  0  0  0
  -21.3205   -6.5852   22.7425 C   0  0  0  0  0  0  0  0  0  0  0  0
  -30.4083  -20.2257   23.0753 C   0  0  0  0  0  0  0  0  0  0  0  0
  -19.6231   -6.3938   24.9481 C   0  0  0  0  0  0  0  0  0  0  0  0
  -31.3558  -19.4915   22.3620 C   0  0  0  0  0  0  0  0  0  0  0  0
  -21.5944   -5.6665   23.7556 C   0  0  0  0  0  0  0  0  0  0  0  0
  -24.6391  -11.6054   20.7021 C   0  0  0  0  0  0  0  0  0  0  0  0
  -25.0632  -13.7474   20.4431 C   0  0  0  0  0  0  0  0  0  0  0  0
  -26.9472  -20.6957   23.6224 C   0  0  0  0  0  0  0  0  0  0  0  0
  -28.1530  -20.4169   24.0949 C   0  0  0  0  0  0  0  0  0  0  0  0
  -22.6858  -13.2461   21.0306 C   0  0  0  0  0  0  0  0  0  0  0  0
  -26.8176  -32.3517   24.6120 C   0  0  0  0  0  0  0  0  0  0  0  0
  -27.3460  -34.0781   21.9171 C   0  0  0  0  0  0  0  0  0  0  0  0
  -28.9458  -34.3449   18.9143 C   0  0  0  0  0  0  0  0  0  0  0  0
  -30.3236  -15.4732   21.0370 C   0  0  0  0  0  0  0  0  0  0  0  0
  -24.9196  -33.1887   29.2762 C   0  0  0  0  0  0  0  0  0  0  0  0
  -29.3368  -32.4300   24.5503 C   0  0  0  0  0  0  0  0  0  0  0  0
  -28.1965  -31.7028   21.9205 C   0  0  0  0  0  0  0  0  0  0  0  0
  -24.7498  -33.8234   27.8983 C   0  0  0  0  0  0  0  0  0  0  0  0
  -29.7286  -12.8626   18.6902 C   0  0  0  0  0  0  0  0  0  0  0  0
  -24.4866  -32.7514   26.8455 C   0  0  0  0  0  0  0  0  0  0  0  0
  -28.3024  -12.4076   19.0079 C   0  0  0  0  0  0  0  0  0  0  0  0
  -30.4973  -13.2433   19.9543 C   0  0  0  0  0  0  0  0  0  0  0  0
  -28.3999  -13.7687   21.1351 C   0  0  0  0  0  0  0  0  0  0  0  0
  -25.6670  -31.7780   26.7422 C   0  0  1  0  0  0  0  0  0  0  0  0
  -28.0302  -33.0353   24.0464 C   0  0  1  0  0  0  0  0  0  0  0  0
  -27.5653  -13.4366   19.8873 C   0  0  2  0  0  0  0  0  0  0  0  0
  -29.1479  -35.8505   16.9169 C   0  0  0  0  0  0  0  0  0  0  0  0
  -24.6345  -33.1048   20.9120 C   0  0  0  0  0  0  0  0  0  0  0  0
  -25.3047  -33.8308   18.6115 C   0  0  0  0  0  0  0  0  0  0  0  0
  -25.1174  -35.5135   20.4435 C   0  0  0  0  0  0  0  0  0  0  0  0
  -31.8386  -34.7642   19.3779 C   0  0  0  0  0  0  0  0  0  0  0  0
  -30.5594  -25.0622   22.3518 C   0  0  0  0  0  0  0  0  0  0  0  0
  -30.8403  -23.8704   23.2603 C   0  0  0  0  0  0  0  0  0  0  0  0
  -30.9304  -26.3788   23.0214 C   0  0  0  0  0  0  0  0  0  1  0  0
  -30.4299  -22.5576   22.6085 C   0  0  0  0  0  0  0  0  0  0  0  0
  -27.0516  -33.8853   20.4490 C   0  0  1  0  0  0  0  0  0  0  0  0
  -29.7152  -35.4901   18.2812 C   0  0  2  0  0  0  0  0  0  0  0  0
  -25.5430  -34.0650   20.1186 C   0  0  0  0  0  0  0  0  0  0  0  0
  -25.9387  -11.6548   20.3977 N   0  0  0  0  0  0  0  0  0  0  0  0
  -26.1667  -12.9705   20.2459 N   0  0  0  0  0  0  0  0  0  0  0  0
  -27.9085  -32.9830   22.5880 N   0  0  0  0  0  0  0  0  0  0  0  0
  -29.7405  -14.2244   20.7350 N   0  0  0  0  0  0  0  0  0  0  0  0
  -25.1158  -15.0916   20.3301 N   0  0  0  0  0  0  0  0  0  0  0  0
  -21.7658  -12.2291   21.3198 N   0  0  0  0  0  0  0  0  0  0  0  0
  -29.4976  -16.3365   21.7561 N   0  0  0  0  0  0  0  0  0  0  0  0
  -26.7507  -32.3757   25.9920 N   0  0  0  0  0  0  0  0  0  0  0  0
  -27.9334  -34.8002   19.7323 N   0  0  0  0  0  0  0  0  0  0  0  0
  -31.1486  -35.1197   18.1112 N   0  3  0  0  0  0  0  0  0  0  0  0
  -22.2975  -14.4387   21.0137 O   0  0  0  0  0  0  0  0  0  0  0  0
  -26.0023  -31.8417   23.8526 O   0  0  0  0  0  0  0  0  0  0  0  0
  -27.0930  -35.1628   22.4472 O   0  0  0  0  0  0  0  0  0  0  0  0
  -29.2135  -33.1644   18.7015 O   0  0  0  0  0  0  0  0  0  0  0  0
  -31.4613  -15.7663   20.6604 O   0  0  0  0  0  0  0  0  0  0  0  0
  -22.1626   -6.6820   21.6474 O   0  0  0  0  0  0  0  0  0  0  0  0
  -30.6346  -27.4670   22.1470 O   0  0  0  0  0  0  0  0  0  1  0  0
  -30.7303  -21.4898   23.4966 O   0  0  0  0  0  0  0  0  0  0  0  0
  -18.8089   -6.3031   26.0078 F   0  0  0  0  0  0  0  0  0  0  0  0
  -32.5583  -20.0191   22.0940 F   0  0  0  0  0  0  0  0  0  0  0  0
  -22.6720   -4.8739   23.6756 F   0  0  0  0  0  0  0  0  0  0  0  0
  1  2  1  0  0  0  0
  1  5  2  0  0  0  0
  2  6  2  0  0  0  0
  3  8  2  0  0  0  0
  3 17  1  0  0  0  0
  4  9  1  0  0  0  0
  4 17  2  0  0  0  0
  5 20  1  0  0  0  0
  6 22  1  0  0  0  0
  7 10  2  0  0  0  0
  7 21  1  0  0  0  0
  8 25  1  0  0  0  0
  9 25  2  0  0  0  0
 10 26  1  0  0  0  0
 11 12  2  0  0  0  0
 11 27  1  0  0  0  0
 12 29  1  0  0  0  0
 13 18  1  0  0  0  0
 13 24  2  0  0  0  0
 14 23  1  0  0  0  0
 14 26  2  0  0  0  0
 15 24  1  0  0  0  0
 15 30  2  0  0  0  0
 16 29  2  0  0  0  0
 16 31  1  0  0  0  0
 17 32  1  0  0  0  0
 18 28  2  0  0  0  0
 18 35  1  0  0  0  0
 19 32  1  0  0  0  0
 19 33  2  0  0  0  0
 19 36  1  0  0  0  0
 20 22  2  0  0  0  0
 20 41  1  0  0  0  0
 21 23  2  0  0  0  0
 21 42  1  0  0  0  0
 22 50  1  0  0  0  0
 23 43  1  0  0  0  0
 24 71  1  0  0  0  0
 25 80  1  0  0  0  0
 26 81  1  0  0  0  0
 27 31  2  0  0  0  0
 27 80  1  0  0  0  0
 28 30  1  0  0  0  0
 28 82  1  0  0  0  0
 29 83  1  0  0  0  0
 30 84  1  0  0  0  0
 31 85  1  0  0  0  0
 32 65  2  0  0  0  0
 33 66  1  0  0  0  0
 33 69  1  0  0  0  0
 34 35  2  0  0  0  0
 36 70  1  0  0  0  0
 36 75  2  0  0  0  0
 37 51  1  0  0  0  0
 37 72  1  0  0  0  0
 37 76  2  0  0  0  0
 38 62  1  0  0  0  0
 38 67  1  0  0  0  0
 38 77  2  0  0  0  0
 39 63  1  0  0  0  0
 39 73  1  0  0  0  0
 39 78  2  0  0  0  0
 40 68  1  0  0  0  0
 40 71  1  0  0  0  0
 40 79  2  0  0  0  0
 41 44  1  0  0  0  0
 42 51  1  0  0  0  0
 43 67  1  0  0  0  0
 44 46  1  0  0  0  0
 45 47  1  0  0  0  0
 45 48  1  0  0  0  0
 46 50  1  0  0  0  0
 47 52  1  0  0  0  0
 48 68  1  0  0  0  0
 49 52  1  0  0  0  0
 49 68  1  0  0  0  0
 50 72  1  0  0  0  0
 51 67  1  0  0  0  0
 52 66  1  0  0  0  0
 53 63  1  0  0  0  0
 54 64  1  0  0  0  0
 55 64  1  0  0  0  0
 56 64  1  0  0  0  0
 57 74  1  0  0  0  0
 58 59  1  0  0  0  0
 58 60  1  0  0  0  0
 59 61  1  0  0  0  0
 60 81  1  0  0  0  0
 61 82  1  0  0  0  0
 62 64  1  0  0  0  0
 62 73  1  0  0  0  0
 63 74  1  0  0  0  0
 65 66  1  0  0  0  0
M  CHG  1  74   1
M  ISO  4  40 100  60 101  71 100  81 101
M  END
> <Batch ID>
0112

> <Smiles>
C=Cc1cc([100NH:0][100C:0](=O)N2CCCC(n3nc(-c4ccc(Oc5ccc(F)cc5F)cc4)c(C(N)=O)c3N)C2)cc(F)c1OCCC[101CH2:1][101O:1]c1ccc2c(c1)CN(C(=O)C(NC(=O)C(C)NC)C(C)(C)C)C(C(=O)NC1CCCc3ccccc31)C2

> <Shape>
0.231

> <Color>
0.174

> <Negative vol penalty>
0.000

$$$$

  -OEChem-04052301313D

 89 98  0     1  0  0  0  0  0999 V2000
  -28.1081  -37.7053   24.7267 C   0  0  0  0  0  0  0  0  0  0  0  0
  -28.3870  -36.5726   25.4847 C   0  0  0  0  0  0  0  0  0  0  0  0
  -23.0991  -10.3216   20.3051 C   0  0  0  0  0  0  0  0  0  0  0  0
  -24.6515   -8.8967   21.4870 C   0  0  0  0  0  0  0  0  0  0  0  0
  -26.8602  -37.8478   24.1214 C   0  0  0  0  0  0  0  0  0  0  0  0
  -27.4176  -35.5821   25.6388 C   0  0  0  0  0  0  0  0  0  0  0  0
  -28.6788  -28.8029   23.5546 C   0  0  0  0  0  0  0  0  0  0  0  0
  -22.0948   -9.9782   21.2100 C   0  0  0  0  0  0  0  0  0  0  0  0
  -23.6471   -8.5532   22.3920 C   0  0  0  0  0  0  0  0  0  0  0  0
  -28.9199  -27.4407   23.3749 C   0  0  0  0  0  0  0  0  0  0  0  0
  -20.9783   -6.4796   22.4830 C   0  0  0  0  0  0  0  0  0  0  0  0
  -20.8427   -5.1330   22.8204 C   0  0  0  0  0  0  0  0  0  0  0  0
  -30.0366  -17.4120   20.6945 C   0  0  0  0  0  0  0  0  0  0  0  0
  -26.6436  -26.9417   24.0212 C   0  0  0  0  0  0  0  0  0  0  0  0
  -27.6782  -18.7672   20.0747 C   0  0  0  0  0  0  0  0  0  0  0  0
  -21.2614   -5.6714   25.1381 C   0  0  0  0  0  0  0  0  0  0  0  0
  -24.3775   -9.7809   20.4435 C   0  0  0  0  0  0  0  0  0  0  0  0
  -29.8835  -18.7490   21.0614 C   0  0  0  0  0  0  0  0  0  0  0  0
  -25.4122   -9.9270   18.1164 C   0  0  0  0  0  0  0  0  0  0  0  0
  -25.8784  -36.8540   24.2601 C   0  0  0  0  0  0  0  0  0  0  0  0
  -27.4132  -29.2414   23.9538 C   0  0  0  0  0  0  0  0  0  0  0  0
  -26.1549  -35.7120   25.0359 C   0  0  0  0  0  0  0  0  0  0  0  0
  -26.3927  -28.3059   24.1907 C   0  0  0  0  0  0  0  0  0  0  0  0
  -27.8313  -17.4302   19.7078 C   0  0  0  0  0  0  0  0  0  0  0  0
  -28.7044  -19.4266   20.7515 C   0  0  0  0  0  0  0  0  0  0  0  0
  -29.0105  -16.7526   20.0176 C   0  0  0  0  0  0  0  0  0  0  0  0
  -22.3688   -9.0940   22.2535 C   0  0  0  0  0  0  0  0  0  0  0  0
  -27.9049  -26.5124   23.6079 C   0  0  0  0  0  0  0  0  0  0  0  0
  -21.2555   -7.4221   23.4732 C   0  0  0  0  0  0  0  0  0  0  0  0
  -20.9843   -4.7289   24.1479 C   0  0  0  0  0  0  0  0  0  0  0  0
  -21.3970   -7.0181   24.8007 C   0  0  0  0  0  0  0  0  0  0  0  0
  -25.4152  -10.1348   19.5087 C   0  0  0  0  0  0  0  0  0  0  0  0
  -26.6152  -10.4351   17.6907 C   0  0  0  0  0  0  0  0  0  0  0  0
  -28.5332  -23.1895   20.5744 C   0  0  0  0  0  0  0  0  0  0  0  0
  -28.7912  -23.4705   21.8712 C   0  0  0  0  0  0  0  0  0  0  0  0
  -31.4655  -18.9773   22.9216 C   0  0  0  0  0  0  0  0  0  0  0  0
  -28.2101  -23.7945   18.2666 C   0  0  0  0  0  0  0  0  0  0  0  0
  -30.9771  -19.4054   21.7678 C   0  0  0  0  0  0  0  0  0  0  0  0
  -28.4741  -24.1826   19.5224 C   0  0  0  0  0  0  0  0  0  0  0  0
  -24.4114   -9.3283   17.2823 C   0  0  0  0  0  0  0  0  0  0  0  0
  -25.1990  -32.1510   24.7952 C   0  0  0  0  0  0  0  0  0  0  0  0
  -23.5005  -30.1790   23.1713 C   0  0  0  0  0  0  0  0  0  0  0  0
  -21.2153  -28.6888   21.1233 C   0  0  0  0  0  0  0  0  0  0  0  0
  -30.2996  -14.5918   19.8934 C   0  0  0  0  0  0  0  0  0  0  0  0
  -24.5278  -37.0744   23.6262 C   0  0  0  0  0  0  0  0  0  0  0  0
  -27.1259  -30.6943   24.2191 C   0  0  0  0  0  0  0  0  0  0  0  0
  -25.0568  -28.8208   24.6524 C   0  0  0  0  0  0  0  0  0  0  0  0
  -28.2850  -21.7770   20.0731 C   0  0  0  0  0  0  0  0  0  0  0  0
  -28.7835  -22.3759   22.9151 C   0  0  0  0  0  0  0  0  0  0  0  0
  -23.6861  -35.8046   23.5289 C   0  0  0  0  0  0  0  0  0  0  0  0
  -31.0999  -11.1947   19.1890 C   0  0  0  0  0  0  0  0  0  0  0  0
  -23.7126  -35.0440   24.8508 C   0  0  0  0  0  0  0  0  0  0  0  0
  -29.7326  -10.5197   19.0583 C   0  0  0  0  0  0  0  0  0  0  0  0
  -28.0811  -21.1020   22.4570 C   0  0  0  0  0  0  0  0  0  0  0  0
  -31.1001  -12.2702   20.2738 C   0  0  0  0  0  0  0  0  0  0  0  0
  -28.6726  -12.6036   20.0178 C   0  0  0  0  0  0  0  0  0  0  0  0
  -25.1381  -34.6042   25.2058 C   0  0  1  0  0  0  0  0  0  0  0  0
  -25.6922  -31.1052   23.8388 C   0  0  1  0  0  0  0  0  0  0  0  0
  -28.6053  -11.5576   18.8930 C   0  0  2  0  0  0  0  0  0  0  0  0
  -26.7158  -16.7487   18.9837 C   0  0  0  0  0  0  0  0  0  0  0  0
  -18.7433  -28.5136   20.7281 C   0  0  0  0  0  0  0  0  0  0  0  0
  -23.2514  -28.3203   25.5769 C   0  0  0  0  0  0  0  0  0  0  0  0
  -21.1127  -27.4595   24.6006 C   0  0  0  0  0  0  0  0  0  0  0  0
  -21.3104  -29.8616   25.2435 C   0  0  0  0  0  0  0  0  0  0  0  0
  -21.4533  -29.8201   18.3989 C   0  0  0  0  0  0  0  0  0  0  0  0
  -29.1114  -24.8297   22.4373 C   0  0  0  0  0  0  0  0  0  1  0  0
  -22.5350  -29.0213   23.1975 C   0  0  1  0  0  0  0  0  0  0  0  0
  -20.0245  -29.2488   20.3663 C   0  0  2  0  0  0  0  0  0  0  0  0
  -22.0766  -28.6645   24.6397 C   0  0  0  0  0  0  0  0  0  0  0  0
  -26.5316  -10.7285   19.9390 N   0  0  0  0  0  0  0  0  0  0  0  0
  -27.2414  -10.8980   18.8105 N   0  0  0  0  0  0  0  0  0  0  0  0
  -28.5250  -20.7648   21.1071 N   0  0  1  0  0  0  0  0  0  0  0  0
  -24.6920  -30.0254   23.8905 N   0  0  0  0  0  0  0  0  0  0  0  0
  -30.0081  -13.2202   20.0499 N   0  0  0  0  0  0  0  0  0  0  0  0
  -27.1879  -10.5264   16.4717 N   0  0  0  0  0  0  0  0  0  0  0  0
  -23.2350   -8.8588   17.8823 N   0  0  0  0  0  0  0  0  0  0  0  0
  -29.1849  -15.3944   19.6533 N   0  0  0  0  0  0  0  0  0  0  0  0
  -25.5177  -33.4444   24.4279 N   0  0  0  0  0  0  0  0  0  0  0  0
  -21.4454  -29.3779   22.2952 N   0  0  0  0  0  0  0  0  0  0  0  0
  -20.2394  -29.1235   18.8969 N   0  3  0  0  0  0  0  0  0  0  0  0
  -24.5631   -9.1982   16.0439 O   0  0  0  0  0  0  0  0  0  0  0  0
  -24.5738  -31.8108   25.7927 O   0  0  0  0  0  0  0  0  0  0  0  0
  -23.2065  -31.1954   22.5358 O   0  0  0  0  0  0  0  0  0  0  0  0
  -21.8730  -27.7332   20.7176 O   0  0  0  0  0  0  0  0  0  0  0  0
  -31.4561  -15.0189   19.9399 O   0  0  0  0  0  0  0  0  0  0  0  0
  -21.3891   -8.7588   23.1368 O   0  0  0  0  0  0  0  0  0  0  0  0
  -28.1458  -25.1843   23.4263 O   0  0  0  0  0  0  0  0  0  1  0  0
  -20.8525   -3.4359   24.4719 F   0  0  0  0  0  0  0  0  0  0  0  0
  -21.6622   -7.9191   25.7566 F   0  0  0  0  0  0  0  0  0  0  0  0
  1  2  1  0  0  0  0
  1  5  2  0  0  0  0
  2  6  2  0  0  0  0
  3  8  2  0  0  0  0
  3 17  1  0  0  0  0
  4  9  1  0  0  0  0
  4 17  2  0  0  0  0
  5 20  1  0  0  0  0
  6 22  1  0  0  0  0
  7 10  2  0  0  0  0
  7 21  1  0  0  0  0
  8 27  1  0  0  0  0
  9 27  2  0  0  0  0
 10 28  1  0  0  0  0
 11 12  2  0  0  0  0
 11 29  1  0  0  0  0
 12 30  1  0  0  0  0
 13 18  1  0  0  0  0
 13 26  2  0  0  0  0
 14 23  1  0  0  0  0
 14 28  2  0  0  0  0
 15 24  2  0  0  0  0
 15 25  1  0  0  0  0
 16 30  2  0  0  0  0
 16 31  1  0  0  0  0
 17 32  1  0  0  0  0
 18 25  2  0  0  0  0
 18 38  1  0  0  0  0
 19 32  1  0  0  0  0
 19 33  2  0  0  0  0
 19 40  1  0  0  0  0
 20 22  2  0  0  0  0
 20 45  1  0  0  0  0
 21 23  2  0  0  0  0
 21 46  1  0  0  0  0
 22 57  1  0  0  0  0
 23 47  1  0  0  0  0
 24 26  1  0  0  0  0
 24 60  1  0  0  0  0
 25 72  1  0  0  0  0
 26 77  1  0  0  0  0
 27 86  1  0  0  0  0
 28 87  1  0  0  0  0
 29 31  2  0  0  0  0
 29 86  1  0  0  0  0
 30 88  1  0  0  0  0
 31 89  1  0  0  0  0
 32 70  2  0  0  0  0
 33 71  1  0  0  0  0
 33 75  1  0  0  0  0
 34 35  2  0  0  0  0
 34 39  1  0  0  0  0
 34 48  1  0  0  0  0
 35 49  1  0  0  0  0
 35 66  1  0  0  0  0
 36 38  2  0  0  0  0
 37 39  2  0  0  0  0
 40 76  1  0  0  0  0
 40 81  2  0  0  0  0
 41 58  1  0  0  0  0
 41 78  1  0  0  0  0
 41 82  2  0  0  0  0
 42 67  1  0  0  0  0
 42 73  1  0  0  0  0
 42 83  2  0  0  0  0
 43 68  1  0  0  0  0
 43 79  1  0  0  0  0
 43 84  2  0  0  0  0
 44 74  1  0  0  0  0
 44 77  1  0  0  0  0
 44 85  2  0  0  0  0
 45 50  1  0  0  0  0
 46 58  1  0  0  0  0
 47 73  1  0  0  0  0
 48 72  1  0  0  0  0
 49 54  1  0  0  0  0
 50 52  1  0  0  0  0
 51 53  1  0  0  0  0
 51 55  1  0  0  0  0
 52 57  1  0  0  0  0
 53 59  1  0  0  0  0
 54 72  1  0  0  0  0
 55 74  1  0  0  0  0
 56 59  1  0  0  0  0
 56 74  1  0  0  0  0
 57 78  1  0  0  0  0
 58 73  1  0  0  0  0
 59 71  1  0  0  0  0
 61 68  1  0  0  0  0
 62 69  1  0  0  0  0
 63 69  1  0  0  0  0
 64 69  1  0  0  0  0
 65 80  1  0  0  0  0
 66 87  1  0  0  0  0
 67 69  1  0  0  0  0
 67 79  1  0  0  0  0
 68 80  1  0  0  0  0
 70 71  1  0  0  0  0
M  CHG  1  80   1
M  ISO  4  44 100  66 101  77 100  87 101
M  END
> <Batch ID>
0112

> <Smiles>
C=CC1=C([101CH2:1][101O:1]c2ccc3c(c2)CN(C(=O)C(NC(=O)C(C)NC)C(C)(C)C)C(C(=O)NC2CCCc4ccccc42)C3)CCN(c2cc(C)c([100NH:0][100C:0](=O)N3CCCC(n4nc(-c5ccc(Oc6ccc(F)cc6F)cc5)c(C(N)=O)c4N)C3)cc2C=C)C1

> <Shape>
0.321

> <Color>
0.082

> <Negative vol penalty>
0.000

$$$$

  -OEChem-04052301313D

 97106  0     1  0  0  0  0  0999 V2000
  -28.5311  -37.1102   20.7786 C   0  0  0  0  0  0  0  0  0  0  0  0
  -28.8897  -35.7935   20.5078 C   0  0  0  0  0  0  0  0  0  0  0  0
  -23.1352   -9.4675   20.9216 C   0  0  0  0  0  0  0  0  0  0  0  0
  -23.8998  -10.7021   22.8525 C   0  0  0  0  0  0  0  0  0  0  0  0
  -27.5638  -37.3833   21.7448 C   0  0  0  0  0  0  0  0  0  0  0  0
  -28.2819  -34.7493   21.2040 C   0  0  0  0  0  0  0  0  0  0  0  0
  -26.9119  -29.1870   19.0386 C   0  0  0  0  0  0  0  0  0  0  0  0
  -22.5367   -8.5270   21.7599 C   0  0  0  0  0  0  0  0  0  0  0  0
  -23.3013   -9.7616   23.6908 C   0  0  0  0  0  0  0  0  0  0  0  0
  -27.5606  -27.9567   19.1356 C   0  0  0  0  0  0  0  0  0  0  0  0
  -23.5057   -5.8812   23.6268 C   0  0  0  0  0  0  0  0  0  0  0  0
  -23.6914   -4.5325   23.3233 C   0  0  0  0  0  0  0  0  0  0  0  0
  -26.1594  -27.3725   21.0103 C   0  0  0  0  0  0  0  0  0  0  0  0
  -30.7093  -18.5308   21.4138 C   0  0  0  0  0  0  0  0  0  0  0  0
  -28.1594  -19.6584   21.3195 C   0  0  0  0  0  0  0  0  0  0  0  0
  -21.3026   -4.2558   23.0905 C   0  0  0  0  0  0  0  0  0  0  0  0
  -23.8168  -10.5551   21.4679 C   0  0  0  0  0  0  0  0  0  0  0  0
  -23.8014  -12.3316   19.6372 C   0  0  0  0  0  0  0  0  0  0  0  0
  -26.9369  -36.3415   22.4463 C   0  0  0  0  0  0  0  0  0  0  0  0
  -25.8877  -29.5242   19.9351 C   0  0  0  0  0  0  0  0  0  0  0  0
  -27.3063  -35.0089   22.1814 C   0  0  0  0  0  0  0  0  0  0  0  0
  -25.4976  -28.6067   20.9210 C   0  0  0  0  0  0  0  0  0  0  0  0
  -29.6458  -17.9057   22.0648 C   0  0  0  0  0  0  0  0  0  0  0  0
  -30.4979  -19.7198   20.7157 C   0  0  0  0  0  0  0  0  0  0  0  0
  -29.2229  -20.2836   20.6685 C   0  0  0  0  0  0  0  0  0  0  0  0
  -22.6197   -8.6740   23.1445 C   0  0  0  0  0  0  0  0  0  0  0  0
  -27.1863  -27.0504   20.1234 C   0  0  0  0  0  0  0  0  0  0  0  0
  -22.2184   -6.4172   23.6622 C   0  0  0  0  0  0  0  0  0  0  0  0
  -28.3709  -18.4695   22.0177 C   0  0  0  0  0  0  0  0  0  0  0  0
  -22.5899   -3.7198   23.0551 C   0  0  0  0  0  0  0  0  0  0  0  0
  -21.1169   -5.6046   23.3941 C   0  0  0  0  0  0  0  0  0  0  0  0
  -24.4357  -11.5267   20.6024 C   0  0  0  0  0  0  0  0  0  0  0  0
  -24.8173  -13.0770   19.0905 C   0  0  0  0  0  0  0  0  0  0  0  0
  -27.5238  -23.4690   20.0970 C   0  0  0  0  0  0  0  0  0  0  0  0
  -28.4954  -22.6583   20.5897 C   0  0  0  0  0  0  0  0  0  0  0  0
  -26.7592  -23.1028   18.8505 C   0  0  0  0  0  0  0  0  0  0  0  0
  -32.5633  -20.6751   20.8283 C   0  0  0  0  0  0  0  0  0  0  0  0
  -22.4177  -12.3994   19.2678 C   0  0  0  0  0  0  0  0  0  0  0  0
  -33.7526  -21.3319   20.2064 C   0  0  0  0  0  0  0  0  0  0  0  0
  -25.4739  -31.8010   22.1143 C   0  0  0  0  0  0  0  0  0  0  0  0
  -22.4974  -30.5270   22.3137 C   0  0  0  0  0  0  0  0  0  0  0  0
  -19.3758  -29.3668   23.0599 C   0  0  0  0  0  0  0  0  0  0  0  0
  -30.1668  -14.8089   21.1483 C   0  0  0  0  0  0  0  0  0  0  0  0
  -25.9310  -36.6883   23.5152 C   0  0  0  0  0  0  0  0  0  0  0  0
  -25.1798  -30.8445   19.8003 C   0  0  0  0  0  0  0  0  0  0  0  0
  -24.3903  -28.9123   21.8951 C   0  0  0  0  0  0  0  0  0  0  0  0
  -26.5391  -21.6380   18.5391 C   0  0  0  0  0  0  0  0  0  0  0  0
  -25.0650  -35.5063   23.9432 C   0  0  0  0  0  0  0  0  0  0  0  0
  -27.7508  -21.0053   17.8714 C   0  0  0  0  0  0  0  0  0  0  0  0
  -29.5157  -12.9209   18.2007 C   0  0  0  0  0  0  0  0  0  0  0  0
  -25.9277  -34.2712   24.1817 C   0  0  0  0  0  0  0  0  0  0  0  0
  -28.0827  -12.4222   18.3949 C   0  0  0  0  0  0  0  0  0  0  0  0
  -29.0829  -21.4210   18.4937 C   0  0  0  0  0  0  0  0  0  0  0  0
  -30.2874  -12.9475   19.5182 C   0  0  0  0  0  0  0  0  0  0  0  0
  -28.1973  -13.1975   20.8000 C   0  0  0  0  0  0  0  0  0  0  0  0
  -26.6518  -33.8477   22.8980 C   0  0  1  0  0  0  0  0  0  0  0  0
  -24.4992  -31.2920   21.0902 C   0  0  1  0  0  0  0  0  0  0  0  0
  -27.3621  -13.2061   19.5082 C   0  0  2  0  0  0  0  0  0  0  0  0
  -29.2308  -23.0518   21.8598 C   0  0  0  0  0  0  0  0  0  0  0  0
  -34.0768  -22.7072   20.6988 C   0  0  0  0  0  0  0  0  0  0  0  0
  -24.3610  -15.7873   21.6547 C   0  0  0  0  0  0  0  0  0  0  0  0
  -17.6501  -29.3872   24.8817 C   0  0  0  0  0  0  0  0  0  0  0  0
  -24.1365  -28.4894   23.8858 C   0  0  0  0  0  0  0  0  0  0  0  0
  -22.0461  -27.8557   25.1093 C   0  0  0  0  0  0  0  0  0  0  0  0
  -22.9419  -30.1766   25.2933 C   0  0  0  0  0  0  0  0  0  0  0  0
  -17.3899  -30.7075   21.3229 C   0  0  0  0  0  0  0  0  0  0  0  0
  -29.8897  -16.6335   22.8075 C   0  0  0  0  0  0  0  0  0  0  0  0
  -27.0569  -24.7539   20.7277 C   0  0  0  0  0  0  0  0  0  1  0  0
  -25.5420  -16.2739   22.4751 C   0  0  0  0  0  0  0  0  0  0  0  0
  -26.2166  -17.4784   21.8366 C   0  0  0  0  0  0  0  0  0  0  0  0
  -21.8546  -29.4352   23.1346 C   0  0  1  0  0  0  0  0  0  0  0  0
  -18.1476  -30.0654   23.6147 C   0  0  2  0  0  0  0  0  0  0  0  0
  -22.7459  -28.9878   24.3274 C   0  0  0  0  0  0  0  0  0  0  0  0
  -25.7525  -11.7405   20.6675 N   0  0  0  0  0  0  0  0  0  0  0  0
  -31.5796  -20.3312   20.0687 N   0  0  0  0  0  0  0  0  0  0  0  0
  -25.9540  -12.6882   19.7361 N   0  0  0  0  0  0  0  0  0  0  0  0
  -28.9883  -21.4957   19.9615 N   0  0  0  0  0  0  0  0  0  0  0  0
  -23.7328  -30.2188   21.7267 N   0  0  0  0  0  0  0  0  0  0  0  0
  -29.5509  -13.7077   20.5309 N   0  0  0  0  0  0  0  0  0  0  0  0
  -24.8401  -14.0205   18.1253 N   0  0  0  0  0  0  0  0  0  0  0  0
  -21.5891  -13.3046   19.9449 N   0  0  0  0  0  0  0  0  0  0  0  0
  -25.7436  -33.1523   22.0114 N   0  0  0  0  0  0  0  0  0  0  0  0
  -20.5417  -29.9374   23.5251 N   0  0  0  0  0  0  0  0  0  0  0  0
  -29.3968  -15.4778   22.0920 N   0  0  0  0  0  0  0  0  0  0  0  0
  -17.0462  -30.0517   22.6108 N   0  3  0  0  0  0  0  0  0  0  0  0
  -26.3014  -23.9814   18.1202 O   0  0  0  0  0  0  0  0  0  0  0  0
  -21.9270  -11.6671   18.3754 O   0  0  0  0  0  0  0  0  0  0  0  0
  -34.3610  -20.7336   19.3333 O   0  0  0  0  0  0  0  0  0  0  0  0
  -25.9451  -31.0254   22.9378 O   0  0  0  0  0  0  0  0  0  0  0  0
  -21.9211  -31.6108   22.1918 O   0  0  0  0  0  0  0  0  0  0  0  0
  -19.3078  -28.4083   22.2937 O   0  0  0  0  0  0  0  0  0  0  0  0
  -31.3157  -15.1724   20.8747 O   0  0  0  0  0  0  0  0  0  0  0  0
  -22.0357   -7.7566   23.9629 O   0  0  0  0  0  0  0  0  0  0  0  0
  -27.8183  -25.8492   20.2207 O   0  0  0  0  0  0  0  0  0  1  0  0
  -27.3210  -17.8723   22.6483 O   0  0  0  0  0  0  0  0  0  0  0  0
  -22.7685   -2.4250   22.7622 F   0  0  0  0  0  0  0  0  0  0  0  0
  -19.8778   -6.1141   23.4254 F   0  0  0  0  0  0  0  0  0  0  0  0
  1  2  1  0  0  0  0
  1  5  2  0  0  0  0
  2  6  2  0  0  0  0
  3  8  2  0  0  0  0
  3 17  1  0  0  0  0
  4  9  1  0  0  0  0
  4 17  2  0  0  0  0
  5 19  1  0  0  0  0
  6 21  1  0  0  0  0
  7 10  2  0  0  0  0
  7 20  1  0  0  0  0
  8 26  1  0  0  0  0
  9 26  2  0  0  0  0
 10 27  1  0  0  0  0
 11 12  2  0  0  0  0
 11 28  1  0  0  0  0
 12 30  1  0  0  0  0
 13 22  1  0  0  0  0
 13 27  2  0  0  0  0
 14 23  1  0  0  0  0
 14 24  2  0  0  0  0
 15 25  2  0  0  0  0
 15 29  1  0  0  0  0
 16 30  2  0  0  0  0
 16 31  1  0  0  0  0
 17 32  1  0  0  0  0
 18 32  1  0  0  0  0
 18 33  2  0  0  0  0
 18 38  1  0  0  0  0
 19 21  2  0  0  0  0
 19 44  1  0  0  0  0
 20 22  2  0  0  0  0
 20 45  1  0  0  0  0
 21 56  1  0  0  0  0
 22 46  1  0  0  0  0
 23 29  2  0  0  0  0
 23 67  1  0  0  0  0
 24 25  1  0  0  0  0
 24 75  1  0  0  0  0
 25 77  1  0  0  0  0
 26 93  1  0  0  0  0
 27 94  1  0  0  0  0
 28 31  2  0  0  0  0
 28 93  1  0  0  0  0
 29 95  1  0  0  0  0
 30 96  1  0  0  0  0
 31 97  1  0  0  0  0
 32 74  2  0  0  0  0
 33 76  1  0  0  0  0
 33 80  1  0  0  0  0
 34 35  2  0  0  0  0
 34 36  1  0  0  0  0
 34 68  1  0  0  0  0
 35 59  1  0  0  0  0
 35 77  1  0  0  0  0
 36 47  1  0  0  0  0
 36 86  2  0  0  0  0
 37 39  1  0  0  0  0
 37 75  2  0  0  0  0
 38 81  1  0  0  0  0
 38 87  2  0  0  0  0
 39 60  1  0  0  0  0
 39 88  2  0  0  0  0
 40 57  1  0  0  0  0
 40 82  1  0  0  0  0
 40 89  2  0  0  0  0
 41 71  1  0  0  0  0
 41 78  1  0  0  0  0
 41 90  2  0  0  0  0
 42 72  1  0  0  0  0
 42 83  1  0  0  0  0
 42 91  2  0  0  0  0
 43 79  1  0  0  0  0
 43 84  1  0  0  0  0
 43 92  2  0  0  0  0
 44 48  1  0  0  0  0
 45 57  1  0  0  0  0
 46 78  1  0  0  0  0
 47 49  1  0  0  0  0
 48 51  1  0  0  0  0
 49 53  1  0  0  0  0
 50 52  1  0  0  0  0
 50 54  1  0  0  0  0
 51 56  1  0  0  0  0
 52 58  1  0  0  0  0
 53 77  1  0  0  0  0
 54 79  1  0  0  0  0
 55 58  1  0  0  0  0
 55 79  1  0  0  0  0
 56 82  1  0  0  0  0
 57 78  1  0  0  0  0
 58 76  1  0  0  0  0
 61 69  1  0  0  0  0
 62 72  1  0  0  0  0
 63 73  1  0  0  0  0
 64 73  1  0  0  0  0
 65 73  1  0  0  0  0
 66 85  1  0  0  0  0
 67 84  1  0  0  0  0
 68 94  1  0  0  0  0
 69 70  1  0  0  0  0
 70 95  1  0  0  0  0
 71 73  1  0  0  0  0
 71 83  1  0  0  0  0
 72 85  1  0  0  0  0
 74 76  1  0  0  0  0
M  CHG  1  85   1
M  ISO  4  43 100  68 101  84 100  94 101
M  END
> <Batch ID>
0112

> <Smiles>
CCCOc1cc(N2CCCC(=O)C([101CH2:1][101O:1]c3ccc4c(c3)CN(C(=O)C(NC(=O)C(C)NC)C(C)(C)C)C(C(=O)NC3CCCc5ccccc53)C4)=C2C)c(N=CC(C)=O)cc1C[100NH:0][100C:0](=O)N1CCCC(n2nc(-c3ccc(Oc4ccc(F)cc4F)cc3)c(C(N)=O)c2N)C1

> <Shape>
0.352

> <Color>
0.101

> <Negative vol penalty>
0.000

$$$$

  -OEChem-04052301313D

 86 94  0     1  0  0  0  0  0999 V2000
  -21.9543  -11.7663   19.6303 C   0  0  0  0  0  0  0  0  0  0  0  0
  -21.7986  -13.0844   20.0472 C   0  0  0  0  0  0  0  0  0  0  0  0
  -29.7885  -28.4438   23.3018 C   0  0  0  0  0  0  0  0  0  0  0  0
  -28.4377  -26.8768   22.0540 C   0  0  0  0  0  0  0  0  0  0  0  0
  -23.1998  -11.1475   19.7294 C   0  0  0  0  0  0  0  0  0  0  0  0
  -22.8882  -13.7841   20.5645 C   0  0  0  0  0  0  0  0  0  0  0  0
  -23.2444  -18.4790   18.7001 C   0  0  0  0  0  0  0  0  0  0  0  0
  -30.6128  -27.3995   23.7209 C   0  0  0  0  0  0  0  0  0  0  0  0
  -29.2621  -25.8325   22.4730 C   0  0  0  0  0  0  0  0  0  0  0  0
  -22.3848  -19.4410   19.2288 C   0  0  0  0  0  0  0  0  0  0  0  0
  -30.5316  -24.9378   26.0355 C   0  0  0  0  0  0  0  0  0  0  0  0
  -30.8938  -24.8993   27.3820 C   0  0  0  0  0  0  0  0  0  0  0  0
  -24.1709  -20.2589   20.6288 C   0  0  0  0  0  0  0  0  0  0  0  0
  -19.2526  -28.8020   23.3631 C   0  0  0  0  0  0  0  0  0  0  0  0
  -18.2219  -26.8824   22.3193 C   0  0  0  0  0  0  0  0  0  0  0  0
  -20.3609  -27.6827   21.5312 C   0  0  0  0  0  0  0  0  0  0  0  0
  -33.2230  -25.0571   26.7600 C   0  0  0  0  0  0  0  0  0  0  0  0
  -28.7009  -28.1824   22.4684 C   0  0  0  0  0  0  0  0  0  0  0  0
  -27.9982  -30.0513   20.8805 C   0  0  0  0  0  0  0  0  0  0  0  0
  -24.3074  -11.8431   20.2392 C   0  0  0  0  0  0  0  0  0  0  0  0
  -24.5729  -18.3926   19.1405 C   0  0  0  0  0  0  0  0  0  0  0  0
  -24.1494  -13.1736   20.6718 C   0  0  0  0  0  0  0  0  0  0  0  0
  -25.0460  -19.2966   20.1023 C   0  0  0  0  0  0  0  0  0  0  0  0
  -18.1960  -27.8954   23.2778 C   0  0  0  0  0  0  0  0  0  0  0  0
  -20.3350  -28.6957   22.4897 C   0  0  0  0  0  0  0  0  0  0  0  0
  -30.3497  -26.0939   23.3064 C   0  0  0  0  0  0  0  0  0  0  0  0
  -22.8471  -20.3292   20.1954 C   0  0  0  0  0  0  0  0  0  0  0  0
  -31.5152  -25.0358   25.0512 C   0  0  0  0  0  0  0  0  0  0  0  0
  -19.3043  -26.7760   21.4460 C   0  0  0  0  0  0  0  0  0  0  0  0
  -32.2394  -24.9590   27.7442 C   0  0  0  0  0  0  0  0  0  0  0  0
  -32.8608  -25.0955   25.4135 C   0  0  0  0  0  0  0  0  0  0  0  0
  -27.8487  -29.2606   22.0357 C   0  0  0  0  0  0  0  0  0  0  0  0
  -26.9408  -30.9266   20.9243 C   0  0  0  0  0  0  0  0  0  0  0  0
  -19.9376  -22.4177   20.8669 C   0  0  0  0  0  0  0  0  0  0  0  0
  -19.3866  -23.4333   20.1862 C   0  0  0  0  0  0  0  0  0  0  0  0
  -29.0032  -29.9990   19.8592 C   0  0  0  0  0  0  0  0  0  0  0  0
  -26.3107  -16.1698   20.6044 C   0  0  0  0  0  0  0  0  0  0  0  0
  -28.7290  -18.2654   20.0726 C   0  0  0  0  0  0  0  0  0  0  0  0
  -29.6977  -21.4883   19.5058 C   0  0  0  0  0  0  0  0  0  0  0  0
  -21.5397  -30.6798   23.4686 C   0  0  0  0  0  0  0  0  0  0  0  0
  -25.6228  -11.1171   20.3709 C   0  0  0  0  0  0  0  0  0  0  0  0
  -25.4949  -17.3666   18.5409 C   0  0  0  0  0  0  0  0  0  0  0  0
  -26.4691  -19.2587   20.5940 C   0  0  0  0  0  0  0  0  0  0  0  0
  -26.8139  -12.0482   20.5821 C   0  0  0  0  0  0  0  0  0  0  0  0
  -24.0446  -33.1485   24.0243 C   0  0  0  0  0  0  0  0  0  0  0  0
  -26.4926  -13.0933   21.6456 C   0  0  0  0  0  0  0  0  0  0  0  0
  -25.3168  -32.5060   23.4668 C   0  0  0  0  0  0  0  0  0  0  0  0
  -23.1421  -32.1212   24.7055 C   0  0  0  0  0  0  0  0  0  0  0  0
  -24.0807  -30.3059   23.3296 C   0  0  0  0  0  0  0  0  0  0  0  0
  -25.3132  -13.9738   21.2153 C   0  0  1  0  0  0  0  0  0  0  0  0
  -26.6854  -17.0372   19.4362 C   0  0  1  0  0  0  0  0  0  0  0  0
  -24.9909  -31.2903   22.5771 C   0  0  2  0  0  0  0  0  0  0  0  0
  -15.8481  -29.7502   22.7719 C   0  0  0  0  0  0  0  0  0  0  0  0
  -31.7441  -22.8965   19.1499 C   0  0  0  0  0  0  0  0  0  0  0  0
  -29.3495  -18.1135   23.0562 C   0  0  0  0  0  0  0  0  0  0  0  0
  -30.7204  -20.1934   22.8060 C   0  0  0  0  0  0  0  0  0  0  0  0
  -31.3618  -18.1230   21.5713 C   0  0  0  0  0  0  0  0  0  0  0  0
  -28.7956  -22.3248   16.8141 C   0  0  0  0  0  0  0  0  0  0  0  0
  -20.6708  -21.2877   20.2213 C   0  0  0  0  0  0  0  0  0  1  0  0
  -18.6634  -24.5695   20.8323 C   0  0  0  0  0  0  0  0  0  0  0  0
  -16.3042  -29.3702   24.1753 C   0  0  0  0  0  0  0  0  0  0  0  0
  -17.0385  -28.0091   24.2112 C   0  0  2  0  0  0  0  0  0  0  0  0
  -29.3247  -19.4256   20.8328 C   0  0  1  0  0  0  0  0  0  0  0  0
  -30.6413  -22.0910   18.4807 C   0  0  2  0  0  0  0  0  0  0  0  0
  -30.1617  -18.9636   22.0589 C   0  0  0  0  0  0  0  0  0  0  0  0
  -26.7804  -29.6035   22.7605 N   0  0  0  0  0  0  0  0  0  0  0  0
  -26.2492  -30.6193   22.0590 N   0  0  0  0  0  0  0  0  0  0  0  0
  -27.3302  -18.2333   19.9819 N   0  0  0  0  0  0  0  0  0  0  0  0
  -22.8727  -31.0007   23.8018 N   0  0  0  0  0  0  0  0  0  0  0  0
  -26.5443  -31.9216   20.1026 N   0  0  0  0  0  0  0  0  0  0  0  0
  -30.0178  -29.0383   19.9687 N   0  0  0  0  0  0  0  0  0  0  0  0
  -21.4085  -29.6166   22.5759 N   0  0  0  0  0  0  0  0  0  0  0  0
  -25.7452  -14.9603   20.2485 N   0  0  0  0  0  0  0  0  0  0  0  0
  -30.0754  -20.2098   19.8581 N   0  0  0  0  0  0  0  0  0  0  0  0
  -17.4283  -27.7641   25.6469 N   0  3  0  0  0  0  0  0  0  0  0  0
  -29.8956  -22.9919   17.5570 N   0  3  0  0  0  0  0  0  0  0  0  0
  -29.0107  -30.7918   18.8871 O   0  0  0  0  0  0  0  0  0  0  0  0
  -26.5205  -16.5678   21.7443 O   0  0  0  0  0  0  0  0  0  0  0  0
  -29.4774  -17.4226   19.5715 O   0  0  0  0  0  0  0  0  0  0  0  0
  -28.7252  -22.0927   19.9524 O   0  0  0  0  0  0  0  0  0  0  0  0
  -20.5862  -31.3199   23.9191 O   0  0  0  0  0  0  0  0  0  0  0  0
  -31.1540  -25.0747   23.7150 O   0  0  0  0  0  0  0  0  0  0  0  0
  -22.0100  -21.2687   20.7136 O   0  0  0  0  0  0  0  0  0  1  0  0
  -19.3295  -25.7807   20.5037 O   0  0  0  0  0  0  0  0  0  0  0  0
  -32.5870  -24.9236   29.0373 F   0  0  0  0  0  0  0  0  0  0  0  0
  -33.8102  -25.1910   24.4725 F   0  0  0  0  0  0  0  0  0  0  0  0
  1  2  1  0  0  0  0
  1  5  2  0  0  0  0
  2  6  2  0  0  0  0
  3  8  2  0  0  0  0
  3 18  1  0  0  0  0
  4  9  1  0  0  0  0
  4 18  2  0  0  0  0
  5 20  1  0  0  0  0
  6 22  1  0  0  0  0
  7 10  2  0  0  0  0
  7 21  1  0  0  0  0
  8 26  1  0  0  0  0
  9 26  2  0  0  0  0
 10 27  1  0  0  0  0
 11 12  2  0  0  0  0
 11 28  1  0  0  0  0
 12 30  1  0  0  0  0
 13 23  1  0  0  0  0
 13 27  2  0  0  0  0
 14 24  1  0  0  0  0
 14 25  2  0  0  0  0
 15 24  2  0  0  0  0
 15 29  1  0  0  0  0
 16 25  1  0  0  0  0
 16 29  2  0  0  0  0
 17 30  2  0  0  0  0
 17 31  1  0  0  0  0
 18 32  1  0  0  0  0
 19 32  1  0  0  0  0
 19 33  2  0  0  0  0
 19 36  1  0  0  0  0
 20 22  2  0  0  0  0
 20 41  1  0  0  0  0
 21 23  2  0  0  0  0
 21 42  1  0  0  0  0
 22 50  1  0  0  0  0
 23 43  1  0  0  0  0
 24 62  1  0  0  0  0
 25 72  1  0  0  0  0
 26 82  1  0  0  0  0
 27 83  1  0  0  0  0
 28 31  2  0  0  0  0
 28 82  1  0  0  0  0
 29 84  1  0  0  0  0
 30 85  1  0  0  0  0
 31 86  1  0  0  0  0
 32 66  2  0  0  0  0
 33 67  1  0  0  0  0
 33 70  1  0  0  0  0
 34 35  2  0  0  0  0
 34 59  1  0  0  0  0
 35 60  1  0  0  0  0
 36 71  1  0  0  0  0
 36 77  2  0  0  0  0
 37 51  1  0  0  0  0
 37 73  1  0  0  0  0
 37 78  2  0  0  0  0
 38 63  1  0  0  0  0
 38 68  1  0  0  0  0
 38 79  2  0  0  0  0
 39 64  1  0  0  0  0
 39 74  1  0  0  0  0
 39 80  2  0  0  0  0
 40 69  1  0  0  0  0
 40 72  1  0  0  0  0
 40 81  2  0  0  0  0
 41 44  1  0  0  0  0
 42 51  1  0  0  0  0
 43 68  1  0  0  0  0
 44 46  1  0  0  0  0
 45 47  1  0  0  0  0
 45 48  1  0  0  0  0
 46 50  1  0  0  0  0
 47 52  1  0  0  0  0
 48 69  1  0  0  0  0
 49 52  1  0  0  0  0
 49 69  1  0  0  0  0
 50 73  1  0  0  0  0
 51 68  1  0  0  0  0
 52 67  1  0  0  0  0
 53 61  1  0  0  0  0
 54 64  1  0  0  0  0
 55 65  1  0  0  0  0
 56 65  1  0  0  0  0
 57 65  1  0  0  0  0
 58 76  1  0  0  0  0
 59 83  1  0  0  0  0
 60 84  1  0  0  0  0
 61 62  1  0  0  0  0
 62 75  1  0  0  0  0
 63 65  1  0  0  0  0
 63 74  1  0  0  0  0
 64 76  1  0  0  0  0
 66 67  1  0  0  0  0
M  CHG  2  75   1  76   1
M  ISO  4  40 100  59 101  72 100  83 101
M  END
> <Batch ID>
0112

> <Smiles>
CCC(N)c1cc([100NH:0][100C:0](=O)N2CCCC(n3nc(-c4ccc(Oc5ccc(F)cc5F)cc4)c(C(N)=O)c3N)C2)cc(OCC=C[101CH2:1][101O:1]c2ccc3c(c2)CN(C(=O)C(NC(=O)C(C)NC)C(C)(C)C)C(C(=O)NC2CCCc4ccccc42)C3)c1

> <Shape>
0.240

> <Color>
0.077

> <Negative vol penalty>
0.000

$$$$

  -OEChem-04052301313D

 87 95  0     1  0  0  0  0  0999 V2000
  -31.3075  -33.2332   22.7747 C   0  0  0  0  0  0  0  0  0  0  0  0
  -31.3763  -31.9480   22.2465 C   0  0  0  0  0  0  0  0  0  0  0  0
  -23.7739   -9.5153   20.5325 C   0  0  0  0  0  0  0  0  0  0  0  0
  -24.4039  -10.1167   22.7861 C   0  0  0  0  0  0  0  0  0  0  0  0
  -30.3936  -33.5214   23.7874 C   0  0  0  0  0  0  0  0  0  0  0  0
  -30.5318  -30.9500   22.7315 C   0  0  0  0  0  0  0  0  0  0  0  0
  -28.0420  -26.3588   19.5334 C   0  0  0  0  0  0  0  0  0  0  0  0
  -23.3089   -8.2830   20.9914 C   0  0  0  0  0  0  0  0  0  0  0  0
  -23.9389   -8.8843   23.2450 C   0  0  0  0  0  0  0  0  0  0  0  0
  -28.4008  -25.0204   19.3792 C   0  0  0  0  0  0  0  0  0  0  0  0
  -22.5876   -6.0412   25.0639 C   0  0  0  0  0  0  0  0  0  0  0  0
  -21.8088   -6.0311   26.2211 C   0  0  0  0  0  0  0  0  0  0  0  0
  -30.4018  -16.4659   22.1110 C   0  0  0  0  0  0  0  0  0  0  0  0
  -26.8463  -24.4094   21.1198 C   0  0  0  0  0  0  0  0  0  0  0  0
  -29.0938  -17.5166   23.8495 C   0  0  0  0  0  0  0  0  0  0  0  0
  -20.1819   -7.4518   25.1386 C   0  0  0  0  0  0  0  0  0  0  0  0
  -24.3215  -10.4322   21.4299 C   0  0  0  0  0  0  0  0  0  0  0  0
  -30.1684  -15.2183   22.6895 C   0  0  0  0  0  0  0  0  0  0  0  0
  -29.3978  -15.1198   23.8479 C   0  0  0  0  0  0  0  0  0  0  0  0
  -24.0699  -12.9018   20.8421 C   0  0  0  0  0  0  0  0  0  0  0  0
  -29.5308  -32.5288   24.2784 C   0  0  0  0  0  0  0  0  0  0  0  0
  -27.0890  -26.7344   20.4911 C   0  0  0  0  0  0  0  0  0  0  0  0
  -29.6064  -31.2248   23.7527 C   0  0  0  0  0  0  0  0  0  0  0  0
  -26.4753  -25.7529   21.2823 C   0  0  0  0  0  0  0  0  0  0  0  0
  -28.8604  -16.2690   24.4280 C   0  0  0  0  0  0  0  0  0  0  0  0
  -23.3913   -7.9675   22.3476 C   0  0  0  0  0  0  0  0  0  0  0  0
  -27.8051  -24.0458   20.1744 C   0  0  0  0  0  0  0  0  0  0  0  0
  -22.1635   -6.7567   23.9441 C   0  0  0  0  0  0  0  0  0  0  0  0
  -29.8645  -17.6151   22.6910 C   0  0  0  0  0  0  0  0  0  0  0  0
  -20.6060   -6.7363   26.2584 C   0  0  0  0  0  0  0  0  0  0  0  0
  -20.9607   -7.4620   23.9814 C   0  0  0  0  0  0  0  0  0  0  0  0
  -24.8026  -11.7052   20.9564 C   0  0  0  0  0  0  0  0  0  0  0  0
  -24.9727  -13.8113   20.3479 C   0  0  0  0  0  0  0  0  0  0  0  0
  -29.1543  -13.8116   24.4524 C   0  0  0  0  0  0  0  0  0  0  0  0
  -28.1084  -13.0044   24.1833 C   0  0  0  0  0  0  0  0  0  0  0  0
  -30.7505  -14.0445   22.0478 C   0  0  0  0  0  0  0  0  0  0  0  0
  -22.6961  -13.1675   21.1548 C   0  0  0  0  0  0  0  0  0  0  0  0
  -30.9763  -14.0021   20.5847 C   0  0  0  0  0  0  0  0  0  0  0  0
  -27.1165  -28.5791   23.0795 C   0  0  0  0  0  0  0  0  0  0  0  0
  -29.0941  -20.7934   21.1185 C   0  0  0  0  0  0  0  0  0  0  0  0
  -23.9279  -27.9834   23.0611 C   0  0  0  0  0  0  0  0  0  0  0  0
  -21.3684  -25.9366   22.1093 C   0  0  0  0  0  0  0  0  0  0  0  0
  -28.5922  -32.8761   25.4067 C   0  0  0  0  0  0  0  0  0  0  0  0
  -26.6934  -28.1792   20.6266 C   0  0  0  0  0  0  0  0  0  0  0  0
  -25.4318  -26.1017   22.3109 C   0  0  0  0  0  0  0  0  0  0  0  0
  -27.4742  -31.8557   25.6049 C   0  0  0  0  0  0  0  0  0  0  0  0
  -28.9074  -14.1157   17.6584 C   0  0  0  0  0  0  0  0  0  0  0  0
  -28.0362  -30.4377   25.5859 C   0  0  0  0  0  0  0  0  0  0  0  0
  -27.5640  -13.5823   18.1549 C   0  0  0  0  0  0  0  0  0  0  0  0
  -30.0745  -13.4328   18.3641 C   0  0  0  0  0  0  0  0  0  0  0  0
  -28.6686  -12.9898   20.3581 C   0  0  0  0  0  0  0  0  0  0  0  0
  -28.6900  -30.1215   24.2353 C   0  0  1  0  0  0  0  0  0  0  0  0
  -26.0870  -28.5076   21.9874 C   0  0  1  0  0  0  0  0  0  0  0  0
  -27.4654  -13.6757   19.6879 C   0  0  2  0  0  0  0  0  0  0  0  0
  -27.8947  -11.6762   24.8337 C   0  0  0  0  0  0  0  0  0  0  0  0
  -18.8762  -25.6923   22.2730 C   0  0  0  0  0  0  0  0  0  0  0  0
  -24.2114  -27.0554   25.9539 C   0  0  0  0  0  0  0  0  0  0  0  0
  -21.9684  -25.9619   25.7497 C   0  0  0  0  0  0  0  0  0  0  0  0
  -22.1763  -28.4348   25.4956 C   0  0  0  0  0  0  0  0  0  0  0  0
  -21.0457  -26.0713   19.1704 C   0  0  0  0  0  0  0  0  0  0  0  0
  -28.0718  -21.9095   21.1848 C   0  0  0  0  0  0  0  0  0  1  0  0
  -29.0957  -19.8290   22.2867 C   0  0  0  0  0  0  0  0  0  0  0  0
  -23.0348  -26.9235   23.6595 C   0  0  1  0  0  0  0  0  0  0  0  0
  -20.0342  -26.2327   21.4485 C   0  0  2  0  0  0  0  0  0  0  0  0
  -22.8688  -27.0872   25.1967 C   0  0  0  0  0  0  0  0  0  0  0  0
  -26.0729  -11.8391   20.5660 N   0  0  0  0  0  0  0  0  0  0  0  0
  -31.1059  -12.9765   22.7047 N   0  0  0  0  0  0  0  0  0  0  0  0
  -26.1454  -13.1307   20.2016 N   0  0  0  0  0  0  0  0  0  0  0  0
  -29.9312  -13.5083   19.8166 N   0  0  0  0  0  0  0  0  0  0  0  0
  -25.0834  -27.5287   22.4101 N   0  0  0  0  0  0  0  0  0  0  0  0
  -28.0753  -16.2020   25.6020 N   0  0  0  0  0  0  0  0  0  0  0  0
  -24.8697  -15.1189   20.0285 N   0  0  0  0  0  0  0  0  0  0  0  0
  -21.9097  -12.1199   21.6534 N   0  0  0  0  0  0  0  0  0  0  0  0
  -27.6799  -29.8305   23.2406 N   0  0  0  0  0  0  0  0  0  0  0  0
  -21.7819  -26.9770   22.9141 N   0  0  0  0  0  0  0  0  0  0  0  0
  -19.9774  -25.6119   20.0949 N   0  3  0  0  0  0  0  0  0  0  0  0
  -22.1768  -14.2961   20.9813 O   0  0  0  0  0  0  0  0  0  0  0  0
  -32.0674  -14.4091   20.2075 O   0  0  0  0  0  0  0  0  0  0  0  0
  -27.3791  -27.5736   23.7290 O   0  0  0  0  0  0  0  0  0  0  0  0
  -29.8747  -20.6779   20.1748 O   0  0  0  0  0  0  0  0  0  0  0  0
  -23.6083  -29.1706   23.1613 O   0  0  0  0  0  0  0  0  0  0  0  0
  -21.9806  -24.8857   21.9323 O   0  0  0  0  0  0  0  0  0  0  0  0
  -22.9374   -6.7651   22.7957 O   0  0  0  0  0  0  0  0  0  0  0  0
  -28.1540  -22.7388   20.0265 O   0  0  0  0  0  0  0  0  0  1  0  0
  -30.0945  -18.8448   22.1209 O   0  0  0  0  0  0  0  0  0  0  0  0
  -19.8575   -6.7253   27.3692 F   0  0  0  0  0  0  0  0  0  0  0  0
  -20.5475   -8.1502   22.9084 F   0  0  0  0  0  0  0  0  0  0  0  0
  1  2  1  0  0  0  0
  1  5  2  0  0  0  0
  2  6  2  0  0  0  0
  3  8  2  0  0  0  0
  3 17  1  0  0  0  0
  4  9  1  0  0  0  0
  4 17  2  0  0  0  0
  5 21  1  0  0  0  0
  6 23  1  0  0  0  0
  7 10  2  0  0  0  0
  7 22  1  0  0  0  0
  8 26  1  0  0  0  0
  9 26  2  0  0  0  0
 10 27  1  0  0  0  0
 11 12  2  0  0  0  0
 11 28  1  0  0  0  0
 12 30  1  0  0  0  0
 13 18  1  0  0  0  0
 13 29  2  0  0  0  0
 14 24  1  0  0  0  0
 14 27  2  0  0  0  0
 15 25  2  0  0  0  0
 15 29  1  0  0  0  0
 16 30  2  0  0  0  0
 16 31  1  0  0  0  0
 17 32  1  0  0  0  0
 18 19  2  0  0  0  0
 18 36  1  0  0  0  0
 19 25  1  0  0  0  0
 19 34  1  0  0  0  0
 20 32  1  0  0  0  0
 20 33  2  0  0  0  0
 20 37  1  0  0  0  0
 21 23  2  0  0  0  0
 21 43  1  0  0  0  0
 22 24  2  0  0  0  0
 22 44  1  0  0  0  0
 23 52  1  0  0  0  0
 24 45  1  0  0  0  0
 25 71  1  0  0  0  0
 26 83  1  0  0  0  0
 27 84  1  0  0  0  0
 28 31  2  0  0  0  0
 28 83  1  0  0  0  0
 29 85  1  0  0  0  0
 30 86  1  0  0  0  0
 31 87  1  0  0  0  0
 32 66  2  0  0  0  0
 33 68  1  0  0  0  0
 33 72  1  0  0  0  0
 34 35  2  0  0  0  0
 35 55  1  0  0  0  0
 36 38  1  0  0  0  0
 36 67  2  0  0  0  0
 37 73  1  0  0  0  0
 37 77  2  0  0  0  0
 38 69  1  0  0  0  0
 38 78  2  0  0  0  0
 39 53  1  0  0  0  0
 39 74  1  0  0  0  0
 39 79  2  0  0  0  0
 40 61  1  0  0  0  0
 40 62  1  0  0  0  0
 40 80  2  0  0  0  0
 41 63  1  0  0  0  0
 41 70  1  0  0  0  0
 41 81  2  0  0  0  0
 42 64  1  0  0  0  0
 42 75  1  0  0  0  0
 42 82  2  0  0  0  0
 43 46  1  0  0  0  0
 44 53  1  0  0  0  0
 45 70  1  0  0  0  0
 46 48  1  0  0  0  0
 47 49  1  0  0  0  0
 47 50  1  0  0  0  0
 48 52  1  0  0  0  0
 49 54  1  0  0  0  0
 50 69  1  0  0  0  0
 51 54  1  0  0  0  0
 51 69  1  0  0  0  0
 52 74  1  0  0  0  0
 53 70  1  0  0  0  0
 54 68  1  0  0  0  0
 56 64  1  0  0  0  0
 57 65  1  0  0  0  0
 58 65  1  0  0  0  0
 59 65  1  0  0  0  0
 60 76  1  0  0  0  0
 61 84  1  0  0  0  0
 62 85  1  0  0  0  0
 63 65  1  0  0  0  0
 63 75  1  0  0  0  0
 64 76  1  0  0  0  0
 66 68  1  0  0  0  0
M  CHG  1  76   1
M  ISO  4  36 100  38 100  61 101  84 101
M  END
> <Batch ID>
0112

> <Smiles>
CC=Cc1c(N)cc(OCC(=O)[101CH2:1][101O:1]c2ccc3c(c2)CN(C(=O)C(NC(=O)C(C)NC)C(C)(C)C)C(C(=O)NC2CCCc4ccccc42)C3)cc1[100C:0](=N)[100C:0](=O)N1CCCC(n2nc(-c3ccc(Oc4ccc(F)cc4F)cc3)c(C(N)=O)c2N)C1

> <Shape>
0.280

> <Color>
0.151

> <Negative vol penalty>
0.000

$$$$

  -OEChem-04052301313D

 87 95  0     1  0  0  0  0  0999 V2000
  -30.5312  -25.2733   17.3979 C   0  0  0  0  0  0  0  0  0  0  0  0
  -29.2663  -25.2289   17.9753 C   0  0  0  0  0  0  0  0  0  0  0  0
  -25.8889  -12.8277   19.6031 C   0  0  0  0  0  0  0  0  0  0  0  0
  -24.4330  -14.1969   20.9605 C   0  0  0  0  0  0  0  0  0  0  0  0
  -31.5413  -26.0287   17.9920 C   0  0  0  0  0  0  0  0  0  0  0  0
  -29.0111  -25.9391   19.1479 C   0  0  0  0  0  0  0  0  0  0  0  0
  -24.6139  -28.4457   18.9830 C   0  0  0  0  0  0  0  0  0  0  0  0
  -25.5982  -11.7238   20.4047 C   0  0  0  0  0  0  0  0  0  0  0  0
  -24.1422  -13.0931   21.7621 C   0  0  0  0  0  0  0  0  0  0  0  0
  -23.4506  -27.7048   19.1871 C   0  0  0  0  0  0  0  0  0  0  0  0
  -23.0817   -9.4926   20.7537 C   0  0  0  0  0  0  0  0  0  0  0  0
  -22.7980   -8.2850   20.1159 C   0  0  0  0  0  0  0  0  0  0  0  0
  -23.2530  -22.6509   19.6796 C   0  0  0  0  0  0  0  0  0  0  0  0
  -25.9388  -23.1569   20.2391 C   0  0  0  0  0  0  0  0  0  0  0  0
  -23.3744  -28.4660   21.4749 C   0  0  0  0  0  0  0  0  0  0  0  0
  -24.6723   -7.2524   21.2373 C   0  0  0  0  0  0  0  0  0  0  0  0
  -25.3064  -14.0643   19.8811 C   0  0  0  0  0  0  0  0  0  0  0  0
  -24.2449  -22.1849   18.8167 C   0  0  0  0  0  0  0  0  0  0  0  0
  -25.5878  -22.4379   19.0965 C   0  0  0  0  0  0  0  0  0  0  0  0
  -24.9199  -15.6212   17.8975 C   0  0  0  0  0  0  0  0  0  0  0  0
  -31.2957  -26.7562   19.1671 C   0  0  0  0  0  0  0  0  0  0  0  0
  -25.1732  -29.1949   20.0281 C   0  0  0  0  0  0  0  0  0  0  0  0
  -30.0192  -26.7039   19.7590 C   0  0  0  0  0  0  0  0  0  0  0  0
  -24.5435  -29.2176   21.2808 C   0  0  0  0  0  0  0  0  0  0  0  0
  -24.7248  -11.8565   21.4842 C   0  0  0  0  0  0  0  0  0  0  0  0
  -22.8323  -27.7126   20.4340 C   0  0  0  0  0  0  0  0  0  0  0  0
  -24.1607   -9.5801   21.6334 C   0  0  0  0  0  0  0  0  0  0  0  0
  -23.6039  -23.3699   20.8222 C   0  0  0  0  0  0  0  0  0  0  0  0
  -24.9468  -23.6229   21.1020 C   0  0  0  0  0  0  0  0  0  0  0  0
  -23.5933   -7.1649   20.3577 C   0  0  0  0  0  0  0  0  0  0  0  0
  -24.9560   -8.4600   21.8752 C   0  0  0  0  0  0  0  0  0  0  0  0
  -25.6068  -15.2051   19.0537 C   0  0  0  0  0  0  0  0  0  0  0  0
  -25.5918  -16.7459   17.4851 C   0  0  0  0  0  0  0  0  0  0  0  0
  -23.0867  -21.9411   16.6687 C   0  0  0  0  0  0  0  0  0  0  0  0
  -23.8418  -21.4368   17.6327 C   0  0  0  0  0  0  0  0  0  0  0  0
  -26.6545  -21.9696   18.2190 C   0  0  0  0  0  0  0  0  0  0  0  0
  -23.7767  -15.0428   17.2540 C   0  0  0  0  0  0  0  0  0  0  0  0
  -27.9957  -21.6357   18.7509 C   0  0  0  0  0  0  0  0  0  0  0  0
  -27.9381  -29.1430   21.5954 C   0  0  0  0  0  0  0  0  0  0  0  0
  -26.7616  -31.8341   22.9725 C   0  0  0  0  0  0  0  0  0  0  0  0
  -24.0322  -33.6979   23.8232 C   0  0  0  0  0  0  0  0  0  0  0  0
  -32.4322  -27.5205   19.7987 C   0  0  0  0  0  0  0  0  0  0  0  0
  -26.4136  -30.0100   19.7843 C   0  0  0  0  0  0  0  0  0  0  0  0
  -25.0924  -30.0217   22.4299 C   0  0  0  0  0  0  0  0  0  0  0  0
  -31.9761  -28.5446   20.8347 C   0  0  0  0  0  0  0  0  0  0  0  0
  -30.0153  -18.6807   18.9650 C   0  0  0  0  0  0  0  0  0  0  0  0
  -30.9498  -27.9274   21.7796 C   0  0  0  0  0  0  0  0  0  0  0  0
  -28.9880  -17.5492   18.9515 C   0  0  0  0  0  0  0  0  0  0  0  0
  -29.4816  -19.9108   19.6919 C   0  0  0  0  0  0  0  0  0  0  0  0
  -27.1481  -19.2830   19.1356 C   0  0  0  0  0  0  0  0  0  0  0  0
  -29.6966  -27.4805   21.0172 C   0  0  1  0  0  0  0  0  0  0  0  0
  -27.1813  -30.3272   21.0639 C   0  0  1  0  0  0  0  0  0  0  0  0
  -27.6410  -18.0331   18.3858 C   0  0  2  0  0  0  0  0  0  0  0  0
  -26.8822  -25.3433   23.6966 C   0  0  0  0  0  0  0  0  0  0  0  0
  -23.3850  -35.8314   24.9749 C   0  0  0  0  0  0  0  0  0  0  0  0
  -27.2945  -30.5314   25.6798 C   0  0  0  0  0  0  0  0  0  0  0  0
  -25.7935  -32.2435   26.7208 C   0  0  0  0  0  0  0  0  0  0  0  0
  -27.8805  -32.9595   25.5571 C   0  0  0  0  0  0  0  0  0  0  0  0
  -22.7788  -34.7782   21.3695 C   0  0  0  0  0  0  0  0  0  0  0  0
  -20.6609  -25.2051   21.8861 C   0  0  0  0  0  0  0  0  0  0  0  0
  -26.6958  -24.5394   22.4275 C   0  0  0  0  0  0  0  0  0  0  0  0
  -21.4713  -26.4900   21.9534 C   0  0  0  0  0  0  0  0  0  1  0  0
  -21.3646  -24.1306   21.0720 C   0  0  0  0  0  0  0  0  0  0  0  0
  -25.9210  -32.1319   24.1906 C   0  0  1  0  0  0  0  0  0  0  0  0
  -23.7258  -35.1741   23.6465 C   0  0  2  0  0  0  0  0  0  0  0  0
  -26.7128  -31.9498   25.5162 C   0  0  0  0  0  0  0  0  0  0  0  0
  -26.6362  -16.0006   19.3563 N   0  0  0  0  0  0  0  0  0  0  0  0
  -26.5032  -21.8143   16.9337 N   0  0  0  0  0  0  0  0  0  0  0  0
  -26.6012  -16.9278   18.3841 N   0  0  0  0  0  0  0  0  0  0  0  0
  -28.1859  -20.3215   19.1546 N   0  0  0  0  0  0  0  0  0  0  0  0
  -26.3107  -30.7971   22.1435 N   0  0  0  0  0  0  0  0  0  0  0  0
  -25.4118  -17.5871   16.4447 N   0  0  0  0  0  0  0  0  0  0  0  0
  -23.2101  -13.8878   17.8100 N   0  0  0  0  0  0  0  0  0  0  0  0
  -28.8596  -28.6200   20.7084 N   0  0  0  0  0  0  0  0  0  0  0  0
  -25.3817  -33.4735   23.9962 N   0  0  0  0  0  0  0  0  0  0  0  0
  -22.5712  -35.3565   22.7220 N   0  3  0  0  0  0  0  0  0  0  0  0
  -23.2826  -15.5262   16.2072 O   0  0  0  0  0  0  0  0  0  0  0  0
  -28.7974  -22.5603   18.7782 O   0  0  0  0  0  0  0  0  0  0  0  0
  -27.7044  -28.7350   22.7270 O   0  0  0  0  0  0  0  0  0  0  0  0
  -27.7770  -32.5017   22.7605 O   0  0  0  0  0  0  0  0  0  0  0  0
  -23.1612  -32.8308   23.8127 O   0  0  0  0  0  0  0  0  0  0  0  0
  -24.4406  -10.7795   22.2664 O   0  0  0  0  0  0  0  0  0  0  0  0
  -21.6971  -26.9898   20.6361 O   0  0  0  0  0  0  0  0  0  1  0  0
  -25.3020  -24.3240   22.2146 O   0  0  0  0  0  0  0  0  0  0  0  0
  -22.6203  -23.8232   21.6623 O   0  0  0  0  0  0  0  0  0  0  0  0
  -23.3198   -6.0049   19.7463 F   0  0  0  0  0  0  0  0  0  0  0  0
  -25.9933   -8.5376   22.7201 F   0  0  0  0  0  0  0  0  0  0  0  0
  1  2  1  0  0  0  0
  1  5  2  0  0  0  0
  2  6  2  0  0  0  0
  3  8  2  0  0  0  0
  3 17  1  0  0  0  0
  4  9  1  0  0  0  0
  4 17  2  0  0  0  0
  5 21  1  0  0  0  0
  6 23  1  0  0  0  0
  7 10  2  0  0  0  0
  7 22  1  0  0  0  0
  8 25  1  0  0  0  0
  9 25  2  0  0  0  0
 10 26  1  0  0  0  0
 11 12  2  0  0  0  0
 11 27  1  0  0  0  0
 12 30  1  0  0  0  0
 13 18  1  0  0  0  0
 13 28  2  0  0  0  0
 14 19  1  0  0  0  0
 14 29  2  0  0  0  0
 15 24  1  0  0  0  0
 15 26  2  0  0  0  0
 16 30  2  0  0  0  0
 16 31  1  0  0  0  0
 17 32  1  0  0  0  0
 18 19  2  0  0  0  0
 18 35  1  0  0  0  0
 19 36  1  0  0  0  0
 20 32  1  0  0  0  0
 20 33  2  0  0  0  0
 20 37  1  0  0  0  0
 21 23  2  0  0  0  0
 21 42  1  0  0  0  0
 22 24  2  0  0  0  0
 22 43  1  0  0  0  0
 23 51  1  0  0  0  0
 24 44  1  0  0  0  0
 25 82  1  0  0  0  0
 26 83  1  0  0  0  0
 27 31  2  0  0  0  0
 27 82  1  0  0  0  0
 28 29  1  0  0  0  0
 28 85  1  0  0  0  0
 29 84  1  0  0  0  0
 30 86  1  0  0  0  0
 31 87  1  0  0  0  0
 32 67  2  0  0  0  0
 33 69  1  0  0  0  0
 33 72  1  0  0  0  0
 34 35  2  0  0  0  0
 36 38  1  0  0  0  0
 36 68  2  0  0  0  0
 37 73  1  0  0  0  0
 37 77  2  0  0  0  0
 38 70  1  0  0  0  0
 38 78  2  0  0  0  0
 39 52  1  0  0  0  0
 39 74  1  0  0  0  0
 39 79  2  0  0  0  0
 40 64  1  0  0  0  0
 40 71  1  0  0  0  0
 40 80  2  0  0  0  0
 41 65  1  0  0  0  0
 41 75  1  0  0  0  0
 41 81  2  0  0  0  0
 42 45  1  0  0  0  0
 43 52  1  0  0  0  0
 44 71  1  0  0  0  0
 45 47  1  0  0  0  0
 46 48  1  0  0  0  0
 46 49  1  0  0  0  0
 47 51  1  0  0  0  0
 48 53  1  0  0  0  0
 49 70  1  0  0  0  0
 50 53  1  0  0  0  0
 50 70  1  0  0  0  0
 51 74  1  0  0  0  0
 52 71  1  0  0  0  0
 53 69  1  0  0  0  0
 54 61  1  0  0  0  0
 55 65  1  0  0  0  0
 56 66  1  0  0  0  0
 57 66  1  0  0  0  0
 58 66  1  0  0  0  0
 59 76  1  0  0  0  0
 60 62  1  0  0  0  0
 60 63  1  0  0  0  0
 61 84  1  0  0  0  0
 62 83  1  0  0  0  0
 63 85  1  0  0  0  0
 64 66  1  0  0  0  0
 64 75  1  0  0  0  0
 65 76  1  0  0  0  0
 67 69  1  0  0  0  0
M  CHG  1  76   1
M  ISO  4  36 100  38 100  62 101  83 101
M  END
> <Batch ID>
0112

> <Smiles>
C=Cc1cc(OCC[101CH2:1][101O:1]c2ccc3c(c2)CN(C(=O)C(NC(=O)C(C)NC)C(C)(C)C)C(C(=O)NC2CCCc4ccccc42)C3)c(OCC)cc1[100C:0](=N)[100C:0](=O)N1CCCC(n2nc(-c3ccc(Oc4ccc(F)cc4F)cc3)c(C(N)=O)c2N)C1

> <Shape>
0.276

> <Color>
0.078

> <Negative vol penalty>
0.000

$$$$

  -OEChem-04052301313D

 84 92  0     1  0  0  0  0  0999 V2000
  -29.6021  -12.2716   19.8130 C   0  0  0  0  0  0  0  0  0  0  0  0
  -29.5404  -13.6518   19.6497 C   0  0  0  0  0  0  0  0  0  0  0  0
  -25.9401  -29.7239   21.4817 C   0  0  0  0  0  0  0  0  0  0  0  0
  -23.7088  -29.4882   20.5858 C   0  0  0  0  0  0  0  0  0  0  0  0
  -28.4261  -11.5265   19.8887 C   0  0  0  0  0  0  0  0  0  0  0  0
  -28.3026  -14.2876   19.5610 C   0  0  0  0  0  0  0  0  0  0  0  0
  -28.0711  -18.4905   22.3765 C   0  0  0  0  0  0  0  0  0  0  0  0
  -25.4624  -30.6232   22.4349 C   0  0  0  0  0  0  0  0  0  0  0  0
  -23.2310  -30.3875   21.5391 C   0  0  0  0  0  0  0  0  0  0  0  0
  -28.6864  -19.6330   21.8667 C   0  0  0  0  0  0  0  0  0  0  0  0
  -24.5833  -33.8845   22.5618 C   0  0  0  0  0  0  0  0  0  0  0  0
  -25.3185  -35.0499   22.7780 C   0  0  0  0  0  0  0  0  0  0  0  0
  -26.5405  -20.4525   21.1298 C   0  0  0  0  0  0  0  0  0  0  0  0
  -33.4029  -23.9890   16.0655 C   0  0  0  0  0  0  0  0  0  0  0  0
  -25.6288  -34.4250   25.0911 C   0  0  0  0  0  0  0  0  0  0  0  0
  -25.0633  -29.1564   20.5571 C   0  0  0  0  0  0  0  0  0  0  0  0
  -25.6540  -26.8290   19.6960 C   0  0  0  0  0  0  0  0  0  0  0  0
  -27.1731  -12.1546   19.8106 C   0  0  0  0  0  0  0  0  0  0  0  0
  -26.6850  -18.3150   22.2569 C   0  0  0  0  0  0  0  0  0  0  0  0
  -27.1087  -13.5500   19.6345 C   0  0  0  0  0  0  0  0  0  0  0  0
  -25.9098  -19.3080   21.6412 C   0  0  0  0  0  0  0  0  0  0  0  0
  -33.3499  -23.0353   17.1099 C   0  0  0  0  0  0  0  0  0  0  0  0
  -24.1078  -30.9550   22.4636 C   0  0  0  0  0  0  0  0  0  0  0  0
  -27.9215  -20.6129   21.2407 C   0  0  0  0  0  0  0  0  0  0  0  0
  -24.3707  -32.9893   23.6102 C   0  0  0  0  0  0  0  0  0  0  0  0
  -25.8413  -35.3202   24.0426 C   0  0  0  0  0  0  0  0  0  0  0  0
  -24.8936  -33.2596   24.8748 C   0  0  0  0  0  0  0  0  0  0  0  0
  -25.5563  -28.2278   19.5718 C   0  0  0  0  0  0  0  0  0  0  0  0
  -32.1599  -24.5761   16.0208 C   0  0  0  0  0  0  0  0  0  0  0  0
  -26.1786  -26.4136   18.4965 C   0  0  0  0  0  0  0  0  0  0  0  0
  -32.0783  -23.1078   17.6292 C   0  0  0  0  0  0  0  0  0  0  0  0
  -31.6093  -25.6308   15.1512 C   0  0  0  0  0  0  0  0  0  0  0  0
  -25.3020  -25.9808   20.7970 C   0  0  0  0  0  0  0  0  0  0  0  0
  -24.8089  -16.1853   20.8257 C   0  0  0  0  0  0  0  0  0  0  0  0
  -22.4527  -17.8263   22.3349 C   0  0  0  0  0  0  0  0  0  0  0  0
  -30.1416  -22.5477   19.1357 C   0  0  0  0  0  0  0  0  0  0  0  0
  -21.4123  -20.7461   23.7630 C   0  0  0  0  0  0  0  0  0  0  0  0
  -29.9419  -27.0378   14.4221 C   0  0  0  0  0  0  0  0  0  0  0  0
  -25.9298  -11.3018   19.8500 C   0  0  0  0  0  0  0  0  0  0  0  0
  -26.0331  -17.0893   22.8357 C   0  0  0  0  0  0  0  0  0  0  0  0
  -24.4155  -19.1770   21.5052 C   0  0  0  0  0  0  0  0  0  0  0  0
  -24.6550  -12.0957   20.1235 C   0  0  0  0  0  0  0  0  0  0  0  0
  -26.8638  -28.8971   14.1516 C   0  0  0  0  0  0  0  0  0  0  0  0
  -24.6073  -13.3460   19.2510 C   0  0  0  0  0  0  0  0  0  0  0  0
  -26.2760  -28.8019   15.5595 C   0  0  0  0  0  0  0  0  0  0  0  0
  -28.3871  -28.9743   14.1849 C   0  0  0  0  0  0  0  0  0  0  0  0
  -28.4456  -27.7530   16.3422 C   0  0  0  0  0  0  0  0  0  0  0  0
  -25.7846  -14.2790   19.5590 C   0  0  1  0  0  0  0  0  0  0  0  0
  -24.6815  -16.7755   22.2016 C   0  0  1  0  0  0  0  0  0  0  0  0
  -26.9114  -27.6419   16.3466 C   0  0  1  0  0  0  0  0  0  0  0  0
  -19.4229  -21.7953   24.8761 C   0  0  0  0  0  0  0  0  0  0  0  0
  -21.0964  -18.1306   19.6187 C   0  0  0  0  0  0  0  0  0  0  0  0
  -19.6771  -19.9403   20.6081 C   0  0  0  0  0  0  0  0  0  0  0  0
  -19.5417  -17.6183   21.5094 C   0  0  0  0  0  0  0  0  0  0  0  0
  -22.9102  -21.1977   26.2752 C   0  0  0  0  0  0  0  0  0  0  0  0
  -36.0522  -21.7801   19.2185 C   0  0  0  0  0  0  0  0  0  0  0  0
  -34.4429  -22.1460   17.5455 C   0  0  0  0  0  0  0  0  0  0  0  0
  -29.8646  -21.5953   20.2841 C   0  0  0  0  0  0  0  0  0  1  0  0
  -21.5912  -19.0177   21.9923 C   0  0  1  0  0  0  0  0  0  0  0  0
  -20.7211  -21.0309   25.0842 C   0  0  2  0  0  0  0  0  0  0  0  0
  -20.5050  -18.6786   20.9328 C   0  0  0  0  0  0  0  0  0  0  0  0
  -25.9846  -28.6715   18.3870 N   0  0  0  0  0  0  0  0  0  0  0  0
  -30.3912  -26.0463   15.2733 N   0  0  0  0  0  0  0  0  0  0  0  0
  -26.3566  -27.5450   17.7558 N   0  0  0  0  0  0  0  0  0  0  0  0
  -23.8254  -17.9575   22.0816 N   0  0  0  0  0  0  0  0  0  0  0  0
  -28.9526  -27.8754   14.9690 N   0  0  0  0  0  0  0  0  0  0  0  0
  -26.5005  -25.1948   18.0136 N   0  0  0  0  0  0  0  0  0  0  0  0
  -24.7759  -26.5716   21.9540 N   0  0  0  0  0  0  0  0  0  0  0  0
  -31.4475  -22.4011   18.6805 N   0  0  0  0  0  0  0  0  0  0  0  0
  -25.5406  -15.0140   20.7816 N   0  0  0  0  0  0  0  0  0  0  0  0
  -21.0584  -19.5133   23.2568 N   0  0  0  0  0  0  0  0  0  0  0  0
  -21.6066  -21.8405   25.9681 N   0  3  0  0  0  0  0  0  0  0  0  0
  -25.4650  -24.7375   20.7624 O   0  0  0  0  0  0  0  0  0  0  0  0
  -24.2811  -16.7500   19.8748 O   0  0  0  0  0  0  0  0  0  0  0  0
  -21.9279  -16.8191   22.8164 O   0  0  0  0  0  0  0  0  0  0  0  0
  -29.2823  -23.3162   18.7169 O   0  0  0  0  0  0  0  0  0  0  0  0
  -22.1857  -21.5395   23.2312 O   0  0  0  0  0  0  0  0  0  0  0  0
  -30.3617  -27.2003   13.2739 O   0  0  0  0  0  0  0  0  0  0  0  0
  -31.3465  -24.0446   16.9709 O   0  0  0  0  0  0  0  0  0  0  0  0
  -23.6413  -31.8323   23.3938 O   0  0  0  0  0  0  0  0  0  0  0  0
  -28.5196  -21.7288   20.7417 O   0  0  0  0  0  0  0  0  0  1  0  0
  -34.9966  -22.6175   18.7743 O   0  0  0  0  0  0  0  0  0  0  0  0
  -26.5487  -36.4386   24.2497 F   0  0  0  0  0  0  0  0  0  0  0  0
  -24.6937  -32.4028   25.8857 F   0  0  0  0  0  0  0  0  0  0  0  0
  1  2  1  0  0  0  0
  1  5  2  0  0  0  0
  2  6  2  0  0  0  0
  3  8  2  0  0  0  0
  3 16  1  0  0  0  0
  4  9  1  0  0  0  0
  4 16  2  0  0  0  0
  5 18  1  0  0  0  0
  6 20  1  0  0  0  0
  7 10  2  0  0  0  0
  7 19  1  0  0  0  0
  8 23  1  0  0  0  0
  9 23  2  0  0  0  0
 10 24  1  0  0  0  0
 11 12  2  0  0  0  0
 11 25  1  0  0  0  0
 12 26  1  0  0  0  0
 13 21  1  0  0  0  0
 13 24  2  0  0  0  0
 14 22  1  0  0  0  0
 14 29  2  0  0  0  0
 15 26  2  0  0  0  0
 15 27  1  0  0  0  0
 16 28  1  0  0  0  0
 17 28  1  0  0  0  0
 17 30  2  0  0  0  0
 17 33  1  0  0  0  0
 18 20  2  0  0  0  0
 18 39  1  0  0  0  0
 19 21  2  0  0  0  0
 19 40  1  0  0  0  0
 20 48  1  0  0  0  0
 21 41  1  0  0  0  0
 22 31  2  0  0  0  0
 22 57  1  0  0  0  0
 23 80  1  0  0  0  0
 24 81  1  0  0  0  0
 25 27  2  0  0  0  0
 25 80  1  0  0  0  0
 26 83  1  0  0  0  0
 27 84  1  0  0  0  0
 28 62  2  0  0  0  0
 29 32  1  0  0  0  0
 29 79  1  0  0  0  0
 30 64  1  0  0  0  0
 30 67  1  0  0  0  0
 31 69  1  0  0  0  0
 31 79  1  0  0  0  0
 32 63  2  0  0  0  0
 33 68  1  0  0  0  0
 33 73  2  0  0  0  0
 34 49  1  0  0  0  0
 34 70  1  0  0  0  0
 34 74  2  0  0  0  0
 35 59  1  0  0  0  0
 35 65  1  0  0  0  0
 35 75  2  0  0  0  0
 36 58  1  0  0  0  0
 36 69  1  0  0  0  0
 36 76  2  0  0  0  0
 37 60  1  0  0  0  0
 37 71  1  0  0  0  0
 37 77  2  0  0  0  0
 38 63  1  0  0  0  0
 38 66  1  0  0  0  0
 38 78  2  0  0  0  0
 39 42  1  0  0  0  0
 40 49  1  0  0  0  0
 41 65  1  0  0  0  0
 42 44  1  0  0  0  0
 43 45  1  0  0  0  0
 43 46  1  0  0  0  0
 44 48  1  0  0  0  0
 45 50  1  0  0  0  0
 46 66  1  0  0  0  0
 47 50  1  0  0  0  0
 47 66  1  0  0  0  0
 48 70  1  0  0  0  0
 49 65  1  0  0  0  0
 50 64  1  0  0  0  0
 51 60  1  0  0  0  0
 52 61  1  0  0  0  0
 53 61  1  0  0  0  0
 54 61  1  0  0  0  0
 55 72  1  0  0  0  0
 56 82  1  0  0  0  0
 57 82  1  0  0  0  0
 58 81  1  0  0  0  0
 59 61  1  0  0  0  0
 59 71  1  0  0  0  0
 60 72  1  0  0  0  0
 62 64  1  0  0  0  0
M  CHG  1  72   1
M  ISO  4  38 100  58 101  63 100  81 101
M  END
> <Batch ID>
0112

> <Smiles>
CNC(C)C(=O)NC(C(=O)N1Cc2cc([101O:1][101CH2:1]C(=O)Nc3oc(C=[100N:0][100C:0](=O)N4CCCC(n5nc(-c6ccc(Oc7ccc(F)cc7F)cc6)c(C(N)=O)c5N)C4)cc3COC)ccc2CC1C(=O)NC1CCCc2ccccc21)C(C)(C)C

> <Shape>
0.202

> <Color>
0.077

> <Negative vol penalty>
0.000

$$$$
