
  -OEChem-04052301343D

 84 92  0     1  0  0  0  0  0999 V2000
  -29.3858  -22.8102   16.4144 C   0  0  0  0  0  0  0  0  0  0  0  0
  -28.1783  -22.9955   17.0800 C   0  0  0  0  0  0  0  0  0  0  0  0
  -24.4502  -11.7566   19.9930 C   0  0  0  0  0  0  0  0  0  0  0  0
  -25.3090  -12.1836   22.2105 C   0  0  0  0  0  0  0  0  0  0  0  0
  -30.5552  -23.3723   16.9247 C   0  0  0  0  0  0  0  0  0  0  0  0
  -28.1397  -23.7423   18.2570 C   0  0  0  0  0  0  0  0  0  0  0  0
  -24.2639  -26.9998   18.3649 C   0  0  0  0  0  0  0  0  0  0  0  0
  -24.5078  -10.3842   20.2350 C   0  0  0  0  0  0  0  0  0  0  0  0
  -25.3666  -10.8110   22.4525 C   0  0  0  0  0  0  0  0  0  0  0  0
  -23.0042  -26.4810   18.6613 C   0  0  0  0  0  0  0  0  0  0  0  0
  -22.6761   -8.0656   21.8789 C   0  0  0  0  0  0  0  0  0  0  0  0
  -21.5761   -7.2945   21.5035 C   0  0  0  0  0  0  0  0  0  0  0  0
  -23.2306  -27.2477   20.9373 C   0  0  0  0  0  0  0  0  0  0  0  0
  -25.1598  -20.7341   20.1280 C   0  0  0  0  0  0  0  0  0  0  0  0
  -22.9850   -6.0045   20.0244 C   0  0  0  0  0  0  0  0  0  0  0  0
  -24.8509  -12.6564   20.9808 C   0  0  0  0  0  0  0  0  0  0  0  0
  -23.7097  -14.9379   20.9845 C   0  0  0  0  0  0  0  0  0  0  0  0
  -30.5293  -24.1344   18.1033 C   0  0  0  0  0  0  0  0  0  0  0  0
  -25.0223  -27.6379   19.3569 C   0  0  0  0  0  0  0  0  0  0  0  0
  -29.3101  -24.3140   18.7843 C   0  0  0  0  0  0  0  0  0  0  0  0
  -24.4985  -27.7760   20.6503 C   0  0  0  0  0  0  0  0  0  0  0  0
  -23.9444  -21.4767   20.1685 C   0  0  0  0  0  0  0  0  0  0  0  0
  -24.9659   -9.9113   21.4647 C   0  0  0  0  0  0  0  0  0  0  0  0
  -22.4886  -26.6023   19.9483 C   0  0  0  0  0  0  0  0  0  0  0  0
  -23.9307   -7.8062   21.3269 C   0  0  0  0  0  0  0  0  0  0  0  0
  -21.7305   -6.2640   20.5763 C   0  0  0  0  0  0  0  0  0  0  0  0
  -24.0851   -6.7756   20.3997 C   0  0  0  0  0  0  0  0  0  0  0  0
  -24.7922  -14.0743   20.7313 C   0  0  0  0  0  0  0  0  0  0  0  0
  -25.9684  -21.0058   21.2097 C   0  0  0  0  0  0  0  0  0  0  0  0
  -23.8704  -22.2876   21.2798 C   0  0  0  0  0  0  0  0  0  0  0  0
  -24.1525  -16.1723   20.5762 C   0  0  0  0  0  0  0  0  0  0  0  0
  -22.4193  -14.6501   21.5392 C   0  0  0  0  0  0  0  0  0  0  0  0
  -27.2516  -20.4675   21.5261 C   0  0  0  0  0  0  0  0  0  0  0  0
  -28.2041  -20.0280   20.4807 C   0  0  0  0  0  0  0  0  0  0  0  0
  -27.8383  -27.0916   20.7264 C   0  0  0  0  0  0  0  0  0  0  0  0
  -27.2663  -29.9531   22.1430 C   0  0  0  0  0  0  0  0  0  0  0  0
  -24.9843  -32.2797   23.1559 C   0  0  0  0  0  0  0  0  0  0  0  0
  -31.8270  -24.6826   18.6420 C   0  0  0  0  0  0  0  0  0  0  0  0
  -26.3681  -28.2157   19.0144 C   0  0  0  0  0  0  0  0  0  0  0  0
  -25.2641  -28.4701   21.7459 C   0  0  0  0  0  0  0  0  0  0  0  0
  -31.6379  -25.7741   19.6923 C   0  0  0  0  0  0  0  0  0  0  0  0
  -28.2424  -17.5066   17.9316 C   0  0  0  0  0  0  0  0  0  0  0  0
  -30.5881  -25.3536   20.7160 C   0  0  0  0  0  0  0  0  0  0  0  0
  -27.2887  -16.4423   18.4734 C   0  0  0  0  0  0  0  0  0  0  0  0
  -29.0146  -18.1889   19.0562 C   0  0  0  0  0  0  0  0  0  0  0  0
  -27.1823  -17.7204   20.6599 C   0  0  0  0  0  0  0  0  0  0  0  0
  -29.2235  -25.1384   20.0504 C   0  0  1  0  0  0  0  0  0  0  0  0
  -27.2702  -28.3918   20.2320 C   0  0  1  0  0  0  0  0  0  0  0  0
  -26.3644  -17.0285   19.5555 C   0  0  2  0  0  0  0  0  0  0  0  0
  -24.8151  -34.4971   24.3187 C   0  0  0  0  0  0  0  0  0  0  0  0
  -19.6900  -22.8078   22.5327 C   0  0  0  0  0  0  0  0  0  0  0  0
  -27.7497  -28.5807   24.8249 C   0  0  0  0  0  0  0  0  0  0  0  0
  -26.6593  -30.5372   25.9436 C   0  0  0  0  0  0  0  0  0  0  0  0
  -28.7519  -30.8633   24.6254 C   0  0  0  0  0  0  0  0  0  0  0  0
  -23.7721  -33.5637   20.7808 C   0  0  0  0  0  0  0  0  0  0  0  0
  -19.9297  -24.1033   20.3852 C   0  0  0  0  0  0  0  0  0  0  0  0
  -20.8353  -24.9527   19.4999 C   0  0  0  0  0  0  0  0  0  1  0  0
  -26.5825  -30.3998   23.4126 C   0  0  1  0  0  0  0  0  0  0  0  0
  -24.9360  -33.7867   22.9795 C   0  0  2  0  0  0  0  0  0  0  0  0
  -20.6382  -23.6038   21.6452 C   0  0  2  0  0  0  0  0  0  0  0  0
  -27.4220  -30.0804   24.6817 C   0  0  0  0  0  0  0  0  0  0  0  0
  -25.8436  -14.7064   20.2030 N   0  0  0  0  0  0  0  0  0  0  0  0
  -27.7106  -20.3119   22.7549 N   0  0  0  0  0  0  0  0  0  0  0  0
  -22.8407  -23.1601   21.6702 N   0  0  0  0  0  0  0  0  0  0  0  0
  -21.7468  -22.7235   21.2591 N   0  0  0  0  0  0  0  0  0  0  0  0
  -25.4237  -15.9804   20.1208 N   0  0  0  0  0  0  0  0  0  0  0  0
  -28.1099  -18.7017   20.0832 N   0  0  0  0  0  0  0  0  0  0  0  0
  -26.5781  -29.0129   21.3631 N   0  0  0  0  0  0  0  0  0  0  0  0
  -22.9802  -21.3887   19.2217 N   0  0  0  0  0  0  0  0  0  0  0  0
  -23.5746  -17.3923   20.5660 N   0  0  0  0  0  0  0  0  0  0  0  0
  -22.1290  -13.3287   21.9052 N   0  0  0  0  0  0  0  0  0  0  0  0
  -28.5848  -26.4095   19.7845 N   0  0  0  0  0  0  0  0  0  0  0  0
  -26.2804  -31.8162   23.2369 N   0  0  0  0  0  0  0  0  0  0  0  0
  -23.7696  -34.1724   22.1360 N   0  3  0  0  0  0  0  0  0  0  0  0
  -21.5436  -15.5354   21.6901 O   0  0  0  0  0  0  0  0  0  0  0  0
  -28.9773  -20.8869   20.0771 O   0  0  0  0  0  0  0  0  0  0  0  0
  -27.6171  -26.7344   21.8775 O   0  0  0  0  0  0  0  0  0  0  0  0
  -28.3671  -30.4265   21.8502 O   0  0  0  0  0  0  0  0  0  0  0  0
  -23.9732  -31.5838   23.2195 O   0  0  0  0  0  0  0  0  0  0  0  0
  -25.0220   -8.5721   21.7012 O   0  0  0  0  0  0  0  0  0  0  0  0
  -21.2596  -26.0963   20.2405 O   0  0  0  0  0  0  0  0  0  1  0  0
  -20.6744   -5.5226   20.2171 F   0  0  0  0  0  0  0  0  0  0  0  0
  -25.2881   -6.5209   19.8670 F   0  0  0  0  0  0  0  0  0  0  0  0
  -25.2622  -22.1519   22.2680 S   0  0  0  0  0  0  0  0  0  0  0  0
  1  2  1  0  0  0  0
  1  5  2  0  0  0  0
  2  6  2  0  0  0  0
  3  8  2  0  0  0  0
  3 16  1  0  0  0  0
  4  9  1  0  0  0  0
  4 16  2  0  0  0  0
  5 18  1  0  0  0  0
  6 20  1  0  0  0  0
  7 10  2  0  0  0  0
  7 19  1  0  0  0  0
  8 23  1  0  0  0  0
  9 23  2  0  0  0  0
 10 24  1  0  0  0  0
 11 12  2  0  0  0  0
 11 25  1  0  0  0  0
 12 26  1  0  0  0  0
 13 21  1  0  0  0  0
 13 24  2  0  0  0  0
 14 22  1  0  0  0  0
 14 29  2  0  0  0  0
 15 26  2  0  0  0  0
 15 27  1  0  0  0  0
 16 28  1  0  0  0  0
 17 28  1  0  0  0  0
 17 31  2  0  0  0  0
 17 32  1  0  0  0  0
 18 20  2  0  0  0  0
 18 38  1  0  0  0  0
 19 21  2  0  0  0  0
 19 39  1  0  0  0  0
 20 47  1  0  0  0  0
 21 40  1  0  0  0  0
 22 30  2  0  0  0  0
 22 69  1  0  0  0  0
 23 80  1  0  0  0  0
 24 81  1  0  0  0  0
 25 27  2  0  0  0  0
 25 80  1  0  0  0  0
 26 82  1  0  0  0  0
 27 83  1  0  0  0  0
 28 62  2  0  0  0  0
 29 33  1  0  0  0  0
 29 84  1  0  0  0  0
 30 64  1  0  0  0  0
 30 84  1  0  0  0  0
 31 66  1  0  0  0  0
 31 70  1  0  0  0  0
 32 71  1  0  0  0  0
 32 75  2  0  0  0  0
 33 34  1  0  0  0  0
 33 63  2  0  0  0  0
 34 67  1  0  0  0  0
 34 76  2  0  0  0  0
 35 48  1  0  0  0  0
 35 72  1  0  0  0  0
 35 77  2  0  0  0  0
 36 58  1  0  0  0  0
 36 68  1  0  0  0  0
 36 78  2  0  0  0  0
 37 59  1  0  0  0  0
 37 73  1  0  0  0  0
 37 79  2  0  0  0  0
 38 41  1  0  0  0  0
 39 48  1  0  0  0  0
 40 68  1  0  0  0  0
 41 43  1  0  0  0  0
 42 44  1  0  0  0  0
 42 45  1  0  0  0  0
 43 47  1  0  0  0  0
 44 49  1  0  0  0  0
 45 67  1  0  0  0  0
 46 49  1  0  0  0  0
 46 67  1  0  0  0  0
 47 72  1  0  0  0  0
 48 68  1  0  0  0  0
 49 66  1  0  0  0  0
 50 59  1  0  0  0  0
 51 60  1  0  0  0  0
 52 61  1  0  0  0  0
 53 61  1  0  0  0  0
 54 61  1  0  0  0  0
 55 74  1  0  0  0  0
 56 57  1  0  0  0  0
 56 60  1  0  0  0  0
 57 81  1  0  0  0  0
 58 61  1  0  0  0  0
 58 73  1  0  0  0  0
 59 74  1  0  0  0  0
 60 65  1  0  0  0  0
 62 66  1  0  0  0  0
 64 65  2  0  0  0  0
M  CHG  1  74   1
M  ISO  4  33 100  34 100  57 101  81 101
M  END
> <Batch ID>
0113

> <Smiles>
CNC(C)C(=O)NC(C(=O)N1Cc2cc([101O:1][101CH2:1]CC(C)=NNc3sc([100C:0](=N)[100C:0](=O)N4CCCC(n5nc(-c6ccc(Oc7ccc(F)cc7F)cc6)c(C(N)=O)c5N)C4)cc3N)ccc2CC1C(=O)NC1CCCc2ccccc21)C(C)(C)C

> <Shape>
0.268

> <Color>
0.068

> <Negative vol penalty>
0.000

$$$$

  -OEChem-04052301343D

 86 94  0     1  0  0  0  0  0999 V2000
  -24.7707  -38.6105   21.1038 C   0  0  0  0  0  0  0  0  0  0  0  0
  -25.5236  -37.7139   20.3523 C   0  0  0  0  0  0  0  0  0  0  0  0
  -23.5284   -9.4303   22.8354 C   0  0  0  0  0  0  0  0  0  0  0  0
  -23.1515  -10.1369   20.5560 C   0  0  0  0  0  0  0  0  0  0  0  0
  -24.2712  -38.2281   22.3480 C   0  0  0  0  0  0  0  0  0  0  0  0
  -25.7783  -36.4346   20.8452 C   0  0  0  0  0  0  0  0  0  0  0  0
  -26.7139  -29.6847   18.6363 C   0  0  0  0  0  0  0  0  0  0  0  0
  -22.9030   -8.2139   22.5618 C   0  0  0  0  0  0  0  0  0  0  0  0
  -22.5262   -8.9204   20.2823 C   0  0  0  0  0  0  0  0  0  0  0  0
  -27.6126  -28.6259   18.7594 C   0  0  0  0  0  0  0  0  0  0  0  0
  -21.7269   -4.7798   22.3661 C   0  0  0  0  0  0  0  0  0  0  0  0
  -22.3401   -3.6164   22.8308 C   0  0  0  0  0  0  0  0  0  0  0  0
  -26.1919  -21.8139   20.4355 C   0  0  0  0  0  0  0  0  0  0  0  0
  -26.6320  -28.0488   20.8865 C   0  0  0  0  0  0  0  0  0  0  0  0
  -24.3034   -4.1272   21.5187 C   0  0  0  0  0  0  0  0  0  0  0  0
  -23.6525  -10.3919   21.8325 C   0  0  0  0  0  0  0  0  0  0  0  0
  -25.3604  -20.7857   20.8651 C   0  0  0  0  0  0  0  0  0  0  0  0
  -25.6665  -11.9505   21.9817 C   0  0  0  0  0  0  0  0  0  0  0  0
  -24.5118  -36.9402   22.8521 C   0  0  0  0  0  0  0  0  0  0  0  0
  -25.7731  -29.9406   19.6441 C   0  0  0  0  0  0  0  0  0  0  0  0
  -25.2826  -36.0350   22.0979 C   0  0  0  0  0  0  0  0  0  0  0  0
  -25.7208  -29.1099   20.7726 C   0  0  0  0  0  0  0  0  0  0  0  0
  -25.8795  -19.5083   21.0447 C   0  0  0  0  0  0  0  0  0  0  0  0
  -22.4020   -7.9589   21.2853 C   0  0  0  0  0  0  0  0  0  0  0  0
  -27.5736  -27.8096   19.8860 C   0  0  0  0  0  0  0  0  0  0  0  0
  -22.4018   -5.6169   21.4777 C   0  0  0  0  0  0  0  0  0  0  0  0
  -23.6284   -3.2901   22.4072 C   0  0  0  0  0  0  0  0  0  0  0  0
  -23.6901   -5.2906   21.0540 C   0  0  0  0  0  0  0  0  0  0  0  0
  -24.2979  -11.6489   22.1147 C   0  0  0  0  0  0  0  0  0  0  0  0
  -27.2261  -19.3129   20.7831 C   0  0  0  0  0  0  0  0  0  0  0  0
  -27.5245  -21.5153   20.2014 C   0  0  0  0  0  0  0  0  0  0  0  0
  -25.7680  -13.2637   22.3711 C   0  0  0  0  0  0  0  0  0  0  0  0
  -23.9552  -21.0795   21.1170 C   0  0  0  0  0  0  0  0  0  0  0  0
  -26.7492  -11.1181   21.5452 C   0  0  0  0  0  0  0  0  0  0  0  0
  -25.1916  -32.3743   21.6043 C   0  0  0  0  0  0  0  0  0  0  0  0
  -22.6025  -30.5960   22.4146 C   0  0  0  0  0  0  0  0  0  0  0  0
  -28.0100  -23.8955   19.5357 C   0  0  0  0  0  0  0  0  0  0  0  0
  -21.1410  -27.5167   22.5851 C   0  0  0  0  0  0  0  0  0  0  0  0
  -23.9333  -18.5204   22.3026 C   0  0  0  0  0  0  0  0  0  0  0  0
  -23.9910  -36.5883   24.2232 C   0  0  0  0  0  0  0  0  0  0  0  0
  -24.7931  -31.0703   19.4838 C   0  0  0  0  0  0  0  0  0  0  0  0
  -24.7166  -29.3299   21.8734 C   0  0  0  0  0  0  0  0  0  0  0  0
  -23.9897  -35.0886   24.5078 C   0  0  0  0  0  0  0  0  0  0  0  0
  -22.4051  -16.2996   24.6286 C   0  0  0  0  0  0  0  0  0  0  0  0
  -25.3187  -34.4653   24.0930 C   0  0  0  0  0  0  0  0  0  0  0  0
  -22.8739  -14.9165   24.1710 C   0  0  0  0  0  0  0  0  0  0  0  0
  -22.1434  -17.2299   23.4454 C   0  0  0  0  0  0  0  0  0  0  0  0
  -23.7248  -15.9705   22.0374 C   0  0  0  0  0  0  0  0  0  0  0  0
  -25.5594  -34.6301   22.5876 C   0  0  1  0  0  0  0  0  0  0  0  0
  -24.2153  -31.5529   20.8107 C   0  0  1  0  0  0  0  0  0  0  0  0
  -24.0634  -15.0186   23.1962 C   0  0  2  0  0  0  0  0  0  0  0  0
  -27.8448  -17.9636   20.9567 C   0  0  0  0  0  0  0  0  0  0  0  0
  -23.6417  -22.1095   22.1609 C   0  0  0  0  0  0  0  0  0  0  0  0
  -19.0341  -26.3747   23.3294 C   0  0  0  0  0  0  0  0  0  0  0  0
  -23.4970  -30.8453   25.3211 C   0  0  0  0  0  0  0  0  0  0  0  0
  -21.9579  -28.9526   25.8843 C   0  0  0  0  0  0  0  0  0  0  0  0
  -21.0328  -31.0788   24.9644 C   0  0  0  0  0  0  0  0  0  0  0  0
  -20.5576  -26.5549   19.8477 C   0  0  0  0  0  0  0  0  0  0  0  0
  -29.2207  -24.6972   19.0718 C   0  0  0  0  0  0  0  0  0  0  0  0
  -28.9015  -26.1601   18.8034 C   0  0  0  0  0  0  0  0  0  1  0  0
  -22.3196  -29.5251   23.4404 C   0  0  1  0  0  0  0  0  0  0  0  0
  -19.7648  -27.0304   22.1680 C   0  0  2  0  0  0  0  0  0  0  0  0
  -22.2221  -30.0972   24.8829 C   0  0  0  0  0  0  0  0  0  0  0  0
  -23.5814  -12.6868   22.5544 N   0  0  0  0  0  0  0  0  0  0  0  0
  -28.0649  -20.2869   20.3646 N   0  0  0  0  0  0  0  0  0  0  0  0
  -24.5034  -13.6535   22.7011 N   0  0  0  0  0  0  0  0  0  0  0  0
  -23.7838  -30.4512   21.6734 N   0  0  0  0  0  0  0  0  0  0  0  0
  -23.3148  -17.2802   22.5678 N   0  0  0  0  0  0  0  0  0  0  0  0
  -26.8149  -14.1115   22.4600 N   0  0  0  0  0  0  0  0  0  0  0  0
  -26.4692   -9.7938   21.1817 N   0  0  0  0  0  0  0  0  0  0  0  0
  -25.0575  -18.4401   21.4814 N   0  0  0  0  0  0  0  0  0  0  0  0
  -28.3631  -22.5683   19.7647 N   0  0  0  0  0  0  0  0  0  0  0  0
  -24.7741  -33.6699   21.8421 N   0  0  0  0  0  0  0  0  0  0  0  0
  -21.1163  -28.8349   22.9888 N   0  0  0  0  0  0  0  0  0  0  0  0
  -19.8793  -26.0365   21.0635 N   0  3  0  0  0  0  0  0  0  0  0  0
  -23.0099  -20.5418   20.5402 O   0  0  0  0  0  0  0  0  0  0  0  0
  -27.9324  -11.5315   21.4949 O   0  0  0  0  0  0  0  0  0  0  0  0
  -26.2449  -31.8695   21.9749 O   0  0  0  0  0  0  0  0  0  0  0  0
  -21.8012  -31.5228   22.2712 O   0  0  0  0  0  0  0  0  0  0  0  0
  -26.9022  -24.4046   19.6696 O   0  0  0  0  0  0  0  0  0  0  0  0
  -22.1376  -26.7979   22.5592 O   0  0  0  0  0  0  0  0  0  0  0  0
  -23.5139  -19.5725   22.7916 O   0  0  0  0  0  0  0  0  0  0  0  0
  -21.7919   -6.7720   21.0178 O   0  0  0  0  0  0  0  0  0  0  0  0
  -28.4501  -26.7758   20.0090 O   0  0  0  0  0  0  0  0  0  1  0  0
  -24.2178   -2.1736   22.8547 F   0  0  0  0  0  0  0  0  0  0  0  0
  -24.3440   -6.0915   20.2015 F   0  0  0  0  0  0  0  0  0  0  0  0
  1  2  1  0  0  0  0
  1  5  2  0  0  0  0
  2  6  2  0  0  0  0
  3  8  2  0  0  0  0
  3 16  1  0  0  0  0
  4  9  1  0  0  0  0
  4 16  2  0  0  0  0
  5 19  1  0  0  0  0
  6 21  1  0  0  0  0
  7 10  2  0  0  0  0
  7 20  1  0  0  0  0
  8 24  1  0  0  0  0
  9 24  2  0  0  0  0
 10 25  1  0  0  0  0
 11 12  2  0  0  0  0
 11 26  1  0  0  0  0
 12 27  1  0  0  0  0
 13 17  2  0  0  0  0
 13 31  1  0  0  0  0
 14 22  1  0  0  0  0
 14 25  2  0  0  0  0
 15 27  2  0  0  0  0
 15 28  1  0  0  0  0
 16 29  1  0  0  0  0
 17 23  1  0  0  0  0
 17 33  1  0  0  0  0
 18 29  1  0  0  0  0
 18 32  2  0  0  0  0
 18 34  1  0  0  0  0
 19 21  2  0  0  0  0
 19 40  1  0  0  0  0
 20 22  2  0  0  0  0
 20 41  1  0  0  0  0
 21 49  1  0  0  0  0
 22 42  1  0  0  0  0
 23 30  2  0  0  0  0
 23 71  1  0  0  0  0
 24 83  1  0  0  0  0
 25 84  1  0  0  0  0
 26 28  2  0  0  0  0
 26 83  1  0  0  0  0
 27 85  1  0  0  0  0
 28 86  1  0  0  0  0
 29 64  2  0  0  0  0
 30 52  1  0  0  0  0
 30 65  1  0  0  0  0
 31 65  2  0  0  0  0
 31 72  1  0  0  0  0
 32 66  1  0  0  0  0
 32 69  1  0  0  0  0
 33 53  1  0  0  0  0
 33 76  2  0  0  0  0
 34 70  1  0  0  0  0
 34 77  2  0  0  0  0
 35 50  1  0  0  0  0
 35 73  1  0  0  0  0
 35 78  2  0  0  0  0
 36 61  1  0  0  0  0
 36 67  1  0  0  0  0
 36 79  2  0  0  0  0
 37 59  1  0  0  0  0
 37 72  1  0  0  0  0
 37 80  2  0  0  0  0
 38 62  1  0  0  0  0
 38 74  1  0  0  0  0
 38 81  2  0  0  0  0
 39 68  1  0  0  0  0
 39 71  1  0  0  0  0
 39 82  2  0  0  0  0
 40 43  1  0  0  0  0
 41 50  1  0  0  0  0
 42 67  1  0  0  0  0
 43 45  1  0  0  0  0
 44 46  1  0  0  0  0
 44 47  1  0  0  0  0
 45 49  1  0  0  0  0
 46 51  1  0  0  0  0
 47 68  1  0  0  0  0
 48 51  1  0  0  0  0
 48 68  1  0  0  0  0
 49 73  1  0  0  0  0
 50 67  1  0  0  0  0
 51 66  1  0  0  0  0
 54 62  1  0  0  0  0
 55 63  1  0  0  0  0
 56 63  1  0  0  0  0
 57 63  1  0  0  0  0
 58 75  1  0  0  0  0
 59 60  1  0  0  0  0
 60 84  1  0  0  0  0
 61 63  1  0  0  0  0
 61 74  1  0  0  0  0
 62 75  1  0  0  0  0
 64 66  1  0  0  0  0
M  CHG  1  75   1
M  ISO  4  39 100  60 101  71 100  84 101
M  END
> <Batch ID>
0113

> <Smiles>
CNC(C)C(=O)NC(C(=O)N1Cc2cc([101O:1][101CH2:1]CC(=O)Nc3cc(C(C)=O)c([100NH:0][100C:0](=O)N4CCCC(n5nc(-c6ccc(Oc7ccc(F)cc7F)cc6)c(C(N)=O)c5N)C4)c(C)n3)ccc2CC1C(=O)NC1CCCc2ccccc21)C(C)(C)C

> <Shape>
0.259

> <Color>
0.087

> <Negative vol penalty>
0.000

$$$$

  -OEChem-04052301343D

 86 94  0     1  0  0  0  0  0999 V2000
  -23.9704   -8.0364   21.7662 C   0  0  0  0  0  0  0  0  0  0  0  0
  -24.6218   -9.1561   21.2588 C   0  0  0  0  0  0  0  0  0  0  0  0
  -22.4058  -29.0000   20.7737 C   0  0  0  0  0  0  0  0  0  0  0  0
  -22.9171  -26.7257   21.4087 C   0  0  0  0  0  0  0  0  0  0  0  0
  -22.5929   -8.0695   21.9788 C   0  0  0  0  0  0  0  0  0  0  0  0
  -23.8958  -10.3093   20.9629 C   0  0  0  0  0  0  0  0  0  0  0  0
  -26.1735  -14.5179   22.6196 C   0  0  0  0  0  0  0  0  0  0  0  0
  -21.0678  -28.7928   21.1091 C   0  0  0  0  0  0  0  0  0  0  0  0
  -21.5791  -26.5186   21.7442 C   0  0  0  0  0  0  0  0  0  0  0  0
  -27.2398  -15.0041   21.8645 C   0  0  0  0  0  0  0  0  0  0  0  0
  -19.1933  -28.6806   23.9209 C   0  0  0  0  0  0  0  0  0  0  0  0
  -18.5509  -29.6701   24.6650 C   0  0  0  0  0  0  0  0  0  0  0  0
  -25.7755  -16.6360   20.8585 C   0  0  0  0  0  0  0  0  0  0  0  0
  -30.1138  -24.2242   19.7481 C   0  0  0  0  0  0  0  0  0  0  0  0
  -31.2680  -22.2314   18.1737 C   0  0  0  0  0  0  0  0  0  0  0  0
  -16.9429  -29.9641   22.8859 C   0  0  0  0  0  0  0  0  0  0  0  0
  -23.3305  -27.9664   20.9234 C   0  0  0  0  0  0  0  0  0  0  0  0
  -25.7387  -28.6456   21.4203 C   0  0  0  0  0  0  0  0  0  0  0  0
  -21.8511   -9.2268   21.6944 C   0  0  0  0  0  0  0  0  0  0  0  0
  -24.8955  -15.0808   22.4916 C   0  0  0  0  0  0  0  0  0  0  0  0
  -22.5068  -10.3574   21.1707 C   0  0  0  0  0  0  0  0  0  0  0  0
  -24.6952  -16.1567   21.6150 C   0  0  0  0  0  0  0  0  0  0  0  0
  -30.7453  -24.5599   18.5506 C   0  0  0  0  0  0  0  0  0  0  0  0
  -30.6365  -21.8957   19.3713 C   0  0  0  0  0  0  0  0  0  0  0  0
  -20.6545  -27.5522   21.5943 C   0  0  0  0  0  0  0  0  0  0  0  0
  -27.0403  -16.0614   20.9816 C   0  0  0  0  0  0  0  0  0  0  0  0
  -18.7106  -28.3329   22.6592 C   0  0  0  0  0  0  0  0  0  0  0  0
  -30.0594  -22.8921   20.1585 C   0  0  0  0  0  0  0  0  0  0  0  0
  -17.4257  -30.3118   24.1476 C   0  0  0  0  0  0  0  0  0  0  0  0
  -31.3224  -23.5634   17.7634 C   0  0  0  0  0  0  0  0  0  0  0  0
  -17.5854  -28.9746   22.1418 C   0  0  0  0  0  0  0  0  0  0  0  0
  -24.7126  -28.1795   20.5766 C   0  0  0  0  0  0  0  0  0  0  0  0
  -26.8551  -28.6724   20.6207 C   0  0  0  0  0  0  0  0  0  0  0  0
  -29.5660  -19.8842   19.3631 C   0  0  0  0  0  0  0  0  0  0  0  0
  -25.6872  -29.0207   22.8032 C   0  0  0  0  0  0  0  0  0  0  0  0
  -29.4489  -18.4470   19.7544 C   0  0  0  0  0  0  0  0  0  0  0  0
  -22.0519  -14.0028   21.5666 C   0  0  0  0  0  0  0  0  0  0  0  0
  -30.1062  -26.2053   16.7953 C   0  0  0  0  0  0  0  0  0  0  0  0
  -21.0624  -16.9420   22.5176 C   0  0  0  0  0  0  0  0  0  0  0  0
  -21.8466  -20.2079   23.1223 C   0  0  0  0  0  0  0  0  0  0  0  0
  -20.3567   -9.1992   21.8963 C   0  0  0  0  0  0  0  0  0  0  0  0
  -23.7616  -14.5624   23.3329 C   0  0  0  0  0  0  0  0  0  0  0  0
  -23.3471  -16.8093   21.4557 C   0  0  0  0  0  0  0  0  0  0  0  0
  -19.7181  -10.5856   21.9093 C   0  0  0  0  0  0  0  0  0  0  0  0
  -27.3465  -28.1655   15.6197 C   0  0  0  0  0  0  0  0  0  0  0  0
  -20.2426  -11.4259   20.7493 C   0  0  0  0  0  0  0  0  0  0  0  0
  -26.4846  -28.3564   16.8670 C   0  0  0  0  0  0  0  0  0  0  0  0
  -28.0183  -26.7960   15.6094 C   0  0  0  0  0  0  0  0  0  0  0  0
  -27.9668  -26.6968   18.0811 C   0  0  0  0  0  0  0  0  0  0  0  0
  -21.7577  -11.6352   20.8606 C   0  0  1  0  0  0  0  0  0  0  0  0
  -22.3894  -14.8738   22.7436 C   0  0  1  0  0  0  0  0  0  0  0  0
  -27.2943  -28.0795   18.1461 C   0  0  2  0  0  0  0  0  0  0  0  0
  -20.8196  -22.3775   23.8539 C   0  0  0  0  0  0  0  0  0  0  0  0
  -19.8005  -17.2721   19.7592 C   0  0  0  0  0  0  0  0  0  0  0  0
  -19.6409  -19.7309   20.2032 C   0  0  0  0  0  0  0  0  0  0  0  0
  -18.4049  -18.1206   21.6531 C   0  0  0  0  0  0  0  0  0  0  0  0
  -23.6025  -20.3712   25.4991 C   0  0  0  0  0  0  0  0  0  0  0  0
  -28.8762  -23.6613   22.0727 C   0  0  0  0  0  0  0  0  0  0  0  0
  -28.0468  -17.9204   19.8920 C   0  0  0  0  0  0  0  0  0  1  0  0
  -30.8022  -25.9850   18.1148 C   0  0  2  0  0  0  0  0  0  0  0  0
  -20.9197  -18.2893   21.8517 C   0  0  1  0  0  0  0  0  0  0  0  0
  -21.5416  -21.1156   24.3001 C   0  0  2  0  0  0  0  0  0  0  0  0
  -19.7166  -18.3398   20.8681 C   0  0  0  0  0  0  0  0  0  0  0  0
  -25.1393  -27.9285   19.3360 N   0  0  0  0  0  0  0  0  0  0  0  0
  -30.5895  -20.5500   19.7722 N   0  0  0  0  0  0  0  0  0  0  0  0
  -26.4457  -28.2380   19.3943 N   0  0  0  0  0  0  0  0  0  0  0  0
  -22.2686  -16.2626   22.2955 N   0  0  0  0  0  0  0  0  0  0  0  0
  -28.7587  -26.5622   16.8505 N   0  0  0  0  0  0  0  0  0  0  0  0
  -28.1371  -29.0250   20.8539 N   0  0  0  0  0  0  0  0  0  0  0  0
  -24.4598  -28.9328   23.4740 N   0  0  0  0  0  0  0  0  0  0  0  0
  -22.0565  -12.6500   21.8481 N   0  0  0  0  0  0  0  0  0  0  0  0
  -20.8531  -19.2717   22.9283 N   0  0  0  0  0  0  0  0  0  0  0  0
  -32.1938  -26.5354   18.0186 N   0  3  0  0  0  0  0  0  0  0  0  0
  -22.8026  -21.5138   24.9874 N   0  3  0  0  0  0  0  0  0  0  0  0
  -26.6962  -29.4374   23.4211 O   0  0  0  0  0  0  0  0  0  0  0  0
  -30.4757  -17.8074   19.9189 O   0  0  0  0  0  0  0  0  0  0  0  0
  -21.8042  -14.5200   20.4836 O   0  0  0  0  0  0  0  0  0  0  0  0
  -30.7434  -26.0668   15.7480 O   0  0  0  0  0  0  0  0  0  0  0  0
  -20.1405  -16.5115   23.2150 O   0  0  0  0  0  0  0  0  0  0  0  0
  -22.8627  -20.3206   22.4400 O   0  0  0  0  0  0  0  0  0  0  0  0
  -19.3490  -27.3498   21.9220 O   0  0  0  0  0  0  0  0  0  0  0  0
  -29.4387  -22.5810   21.3310 O   0  0  0  0  0  0  0  0  0  0  0  0
  -28.0793  -16.5376   20.2429 O   0  0  0  0  0  0  0  0  0  1  0  0
  -16.8079  -31.2609   24.8630 F   0  0  0  0  0  0  0  0  0  0  0  0
  -31.9315  -23.8766   16.6111 F   0  0  0  0  0  0  0  0  0  0  0  0
  -17.1163  -28.6440   20.9308 F   0  0  0  0  0  0  0  0  0  0  0  0
  1  2  1  0  0  0  0
  1  5  2  0  0  0  0
  2  6  2  0  0  0  0
  3  8  2  0  0  0  0
  3 17  1  0  0  0  0
  4  9  1  0  0  0  0
  4 17  2  0  0  0  0
  5 19  1  0  0  0  0
  6 21  1  0  0  0  0
  7 10  2  0  0  0  0
  7 20  1  0  0  0  0
  8 25  1  0  0  0  0
  9 25  2  0  0  0  0
 10 26  1  0  0  0  0
 11 12  2  0  0  0  0
 11 27  1  0  0  0  0
 12 29  1  0  0  0  0
 13 22  1  0  0  0  0
 13 26  2  0  0  0  0
 14 23  2  0  0  0  0
 14 28  1  0  0  0  0
 15 24  1  0  0  0  0
 15 30  2  0  0  0  0
 16 29  2  0  0  0  0
 16 31  1  0  0  0  0
 17 32  1  0  0  0  0
 18 32  1  0  0  0  0
 18 33  2  0  0  0  0
 18 35  1  0  0  0  0
 19 21  2  0  0  0  0
 19 41  1  0  0  0  0
 20 22  2  0  0  0  0
 20 42  1  0  0  0  0
 21 50  1  0  0  0  0
 22 43  1  0  0  0  0
 23 30  1  0  0  0  0
 23 60  1  0  0  0  0
 24 28  2  0  0  0  0
 24 65  1  0  0  0  0
 25 81  1  0  0  0  0
 26 83  1  0  0  0  0
 27 31  2  0  0  0  0
 27 81  1  0  0  0  0
 28 82  1  0  0  0  0
 29 84  1  0  0  0  0
 30 85  1  0  0  0  0
 31 86  1  0  0  0  0
 32 64  2  0  0  0  0
 33 66  1  0  0  0  0
 33 69  1  0  0  0  0
 34 36  1  0  0  0  0
 34 65  2  0  0  0  0
 35 70  1  0  0  0  0
 35 75  2  0  0  0  0
 36 59  1  0  0  0  0
 36 76  2  0  0  0  0
 37 51  1  0  0  0  0
 37 71  1  0  0  0  0
 37 77  2  0  0  0  0
 38 60  1  0  0  0  0
 38 68  1  0  0  0  0
 38 78  2  0  0  0  0
 39 61  1  0  0  0  0
 39 67  1  0  0  0  0
 39 79  2  0  0  0  0
 40 62  1  0  0  0  0
 40 72  1  0  0  0  0
 40 80  2  0  0  0  0
 41 44  1  0  0  0  0
 42 51  1  0  0  0  0
 43 67  1  0  0  0  0
 44 46  1  0  0  0  0
 45 47  1  0  0  0  0
 45 48  1  0  0  0  0
 46 50  1  0  0  0  0
 47 52  1  0  0  0  0
 48 68  1  0  0  0  0
 49 52  1  0  0  0  0
 49 68  1  0  0  0  0
 50 71  1  0  0  0  0
 51 67  1  0  0  0  0
 52 66  1  0  0  0  0
 53 62  1  0  0  0  0
 54 63  1  0  0  0  0
 55 63  1  0  0  0  0
 56 63  1  0  0  0  0
 57 74  1  0  0  0  0
 58 82  1  0  0  0  0
 59 83  1  0  0  0  0
 60 73  1  0  0  0  0
 61 63  1  0  0  0  0
 61 72  1  0  0  0  0
 62 74  1  0  0  0  0
 64 66  1  0  0  0  0
M  CHG  2  73   1  74   1
M  ISO  4  38 100  59 101  60 100  83 101
M  END
> <Batch ID>
0113

> <Smiles>
CNC(C)C(=O)NC(C(=O)N1Cc2cc([101O:1][101CH2:1]C(=O)CNc3cc(F)c([100C:0](=N)[100C:0](=O)N4CCCC(n5nc(-c6ccc(Oc7ccc(F)cc7F)cc6)c(C(N)=O)c5N)C4)cc3OC)ccc2CC1C(=O)NC1CCCc2ccccc21)C(C)(C)C

> <Shape>
0.241

> <Color>
0.107

> <Negative vol penalty>
0.000

$$$$

  -OEChem-04052301343D

 88 97  0     1  0  0  0  0  0999 V2000
  -27.5309  -36.4005   24.8594 C   0  0  0  0  0  0  0  0  0  0  0  0
  -28.0595  -35.2676   24.2489 C   0  0  0  0  0  0  0  0  0  0  0  0
  -22.9813   -9.7230   19.8530 C   0  0  0  0  0  0  0  0  0  0  0  0
  -24.5050   -9.2235   21.6602 C   0  0  0  0  0  0  0  0  0  0  0  0
  -26.2868  -36.3371   25.4857 C   0  0  0  0  0  0  0  0  0  0  0  0
  -27.3449  -34.0704   24.2654 C   0  0  0  0  0  0  0  0  0  0  0  0
  -27.1815  -29.8194   19.8599 C   0  0  0  0  0  0  0  0  0  0  0  0
  -28.2993  -20.1177   18.6720 C   0  0  0  0  0  0  0  0  0  0  0  0
  -28.3106  -18.7399   18.8888 C   0  0  0  0  0  0  0  0  0  0  0  0
  -21.9046   -9.3503   20.6577 C   0  0  0  0  0  0  0  0  0  0  0  0
  -23.4283   -8.8509   22.4650 C   0  0  0  0  0  0  0  0  0  0  0  0
  -27.8595  -28.6123   19.6956 C   0  0  0  0  0  0  0  0  0  0  0  0
  -21.4039   -6.1681   22.8326 C   0  0  0  0  0  0  0  0  0  0  0  0
  -21.5241   -4.9915   23.5719 C   0  0  0  0  0  0  0  0  0  0  0  0
  -25.9823  -27.4351   20.6494 C   0  0  0  0  0  0  0  0  0  0  0  0
  -30.6981  -18.8165   19.2508 C   0  0  0  0  0  0  0  0  0  0  0  0
  -21.2319   -6.2461   25.6159 C   0  0  0  0  0  0  0  0  0  0  0  0
  -24.2815   -9.6595   20.3542 C   0  0  0  0  0  0  0  0  0  0  0  0
  -25.7750   -9.4715   18.2947 C   0  0  0  0  0  0  0  0  0  0  0  0
  -25.5522  -35.1409   25.5015 C   0  0  0  0  0  0  0  0  0  0  0  0
  -25.9010  -29.8446   20.4312 C   0  0  0  0  0  0  0  0  0  0  0  0
  -26.0904  -33.9906   24.8937 C   0  0  0  0  0  0  0  0  0  0  0  0
  -25.2891  -28.6436   20.8175 C   0  0  0  0  0  0  0  0  0  0  0  0
  -29.4874  -20.8449   18.7445 C   0  0  0  0  0  0  0  0  0  0  0  0
  -29.5100  -18.0892   19.1782 C   0  0  0  0  0  0  0  0  0  0  0  0
  -30.6868  -20.1943   19.0339 C   0  0  0  0  0  0  0  0  0  0  0  0
  -22.1281   -8.9144   21.9637 C   0  0  0  0  0  0  0  0  0  0  0  0
  -27.2611  -27.4202   20.0930 C   0  0  0  0  0  0  0  0  0  0  0  0
  -21.1977   -7.3838   23.4849 C   0  0  0  0  0  0  0  0  0  0  0  0
  -21.4381   -5.0304   24.9636 C   0  0  0  0  0  0  0  0  0  0  0  0
  -21.1117   -7.4227   24.8765 C   0  0  0  0  0  0  0  0  0  0  0  0
  -25.3941  -10.0437   19.5232 C   0  0  0  0  0  0  0  0  0  0  0  0
  -26.8835  -10.1864   17.9120 C   0  0  0  0  0  0  0  0  0  0  0  0
  -27.8730  -24.0981   18.8373 C   0  0  0  0  0  0  0  0  0  0  0  0
  -28.6897  -23.1231   19.3194 C   0  0  0  0  0  0  0  0  0  0  0  0
  -29.0478  -22.6387   16.1563 C   0  0  0  0  0  0  0  0  0  0  0  0
  -25.1799   -8.3905   17.5646 C   0  0  0  0  0  0  0  0  0  0  0  0
  -24.6339  -31.1455   23.0399 C   0  0  0  0  0  0  0  0  0  0  0  0
  -21.8599  -30.0456   21.7679 C   0  0  0  0  0  0  0  0  0  0  0  0
  -20.7342  -27.0543   20.0939 C   0  0  0  0  0  0  0  0  0  0  0  0
  -28.4347  -15.8106   19.3677 C   0  0  0  0  0  0  0  0  0  0  0  0
  -24.2331  -35.1088   26.2320 C   0  0  0  0  0  0  0  0  0  0  0  0
  -25.1721  -31.1522   20.5770 C   0  0  0  0  0  0  0  0  0  0  0  0
  -23.9079  -28.6144   21.4173 C   0  0  0  0  0  0  0  0  0  0  0  0
  -27.5738  -24.3187   17.3582 C   0  0  0  0  0  0  0  0  0  0  0  0
  -27.6343  -23.0930   16.4469 C   0  0  0  0  0  0  0  0  0  0  0  0
  -30.0625  -22.7225   17.2701 C   0  0  0  0  0  0  0  0  0  0  0  0
  -23.3713  -33.8989   25.8800 C   0  0  0  0  0  0  0  0  0  0  0  0
  -30.1908  -12.5917   20.4987 C   0  0  0  0  0  0  0  0  0  0  0  0
  -24.2065  -32.6228   25.9065 C   0  0  0  0  0  0  0  0  0  0  0  0
  -29.4772  -11.5844   19.6001 C   0  0  0  0  0  0  0  0  0  0  0  0
  -30.1442  -14.0053   19.9325 C   0  0  0  0  0  0  0  0  0  0  0  0
  -27.7241  -13.4432   19.6449 C   0  0  0  0  0  0  0  0  0  0  0  0
  -25.3343  -32.6799   24.8690 C   0  0  1  0  0  0  0  0  0  0  0  0
  -24.0815  -31.1127   21.6430 C   0  0  1  0  0  0  0  0  0  0  0  0
  -28.1930  -12.1493   18.9612 C   0  0  2  0  0  0  0  0  0  0  0  0
  -28.9060  -22.9707   20.8145 C   0  0  0  0  0  0  0  0  0  0  0  0
  -18.8729  -26.7088   18.4467 C   0  0  0  0  0  0  0  0  0  0  0  0
  -20.2060  -29.3230   24.2281 C   0  0  0  0  0  0  0  0  0  0  0  0
  -19.0962  -27.5356   22.8709 C   0  0  0  0  0  0  0  0  0  0  0  0
  -18.8615  -29.9291   22.2083 C   0  0  0  0  0  0  0  0  0  0  0  0
  -22.5615  -25.8396   18.1079 C   0  0  0  0  0  0  0  0  0  0  0  0
  -27.1258  -25.0757   19.7175 C   0  0  0  0  0  0  0  0  0  1  0  0
  -21.0760  -28.7590   21.8635 C   0  0  1  0  0  0  0  0  0  0  0  0
  -20.3686  -26.9167   18.6270 C   0  0  2  0  0  0  0  0  0  0  0  0
  -19.8382  -28.8871   22.7957 C   0  0  0  0  0  0  0  0  0  0  0  0
  -26.1957  -11.0448   19.8963 N   0  0  0  0  0  0  0  0  0  0  0  0
  -27.0914  -11.1073   18.8964 N   0  0  0  0  0  0  0  0  0  0  0  0
  -29.4528  -22.2508   18.5200 N   0  0  0  0  0  0  0  0  0  0  0  0
  -23.2384  -29.9194   21.5451 N   0  0  0  0  0  0  0  0  0  0  0  0
  -28.7796  -14.4626   19.6330 N   0  0  0  0  0  0  0  0  0  0  0  0
  -31.9013  -20.9122   19.1122 N   0  0  0  0  0  0  0  0  0  0  0  0
  -27.6911  -10.1109   16.8328 N   0  0  0  0  0  0  0  0  0  0  0  0
  -25.6246   -7.0864   17.8210 N   0  0  0  0  0  0  0  0  0  0  0  0
  -29.5208  -16.6893   19.3995 N   0  0  0  0  0  0  0  0  0  0  0  0
  -24.8153  -32.4194   23.5434 N   0  0  0  0  0  0  0  0  0  0  0  0
  -20.7550  -28.3738   20.4935 N   0  0  0  0  0  0  0  0  0  0  0  0
  -21.0808  -25.7556   18.0224 N   0  3  0  0  0  0  0  0  0  0  0  0
  -29.3586  -22.2039   15.0465 O   0  0  0  0  0  0  0  0  0  0  0  0
  -24.2920   -8.5772   16.6984 O   0  0  0  0  0  0  0  0  0  0  0  0
  -24.8760  -30.0928   23.6188 O   0  0  0  0  0  0  0  0  0  0  0  0
  -21.2698  -31.1231   21.8794 O   0  0  0  0  0  0  0  0  0  0  0  0
  -20.9736  -26.0877   20.8143 O   0  0  0  0  0  0  0  0  0  0  0  0
  -27.2743  -16.1459   19.1213 O   0  0  0  0  0  0  0  0  0  0  0  0
  -21.0778   -8.5509   22.7493 O   0  0  0  0  0  0  0  0  0  0  0  0
  -27.9209  -26.2406   19.9344 O   0  0  0  0  0  0  0  0  0  1  0  0
  -21.5521   -3.9002   25.6734 F   0  0  0  0  0  0  0  0  0  0  0  0
  -20.9126   -8.5874   25.5087 F   0  0  0  0  0  0  0  0  0  0  0  0
  1  2  1  0  0  0  0
  1  5  2  0  0  0  0
  2  6  2  0  0  0  0
  3 10  2  0  0  0  0
  3 18  1  0  0  0  0
  4 11  1  0  0  0  0
  4 18  2  0  0  0  0
  5 20  1  0  0  0  0
  6 22  1  0  0  0  0
  7 12  2  0  0  0  0
  7 21  1  0  0  0  0
  8  9  2  0  0  0  0
  8 24  1  0  0  0  0
  9 25  1  0  0  0  0
 10 27  1  0  0  0  0
 11 27  2  0  0  0  0
 12 28  1  0  0  0  0
 13 14  2  0  0  0  0
 13 29  1  0  0  0  0
 14 30  1  0  0  0  0
 15 23  1  0  0  0  0
 15 28  2  0  0  0  0
 16 25  2  0  0  0  0
 16 26  1  0  0  0  0
 17 30  2  0  0  0  0
 17 31  1  0  0  0  0
 18 32  1  0  0  0  0
 19 32  1  0  0  0  0
 19 33  2  0  0  0  0
 19 37  1  0  0  0  0
 20 22  2  0  0  0  0
 20 42  1  0  0  0  0
 21 23  2  0  0  0  0
 21 43  1  0  0  0  0
 22 54  1  0  0  0  0
 23 44  1  0  0  0  0
 24 26  2  0  0  0  0
 24 69  1  0  0  0  0
 25 75  1  0  0  0  0
 26 72  1  0  0  0  0
 27 85  1  0  0  0  0
 28 86  1  0  0  0  0
 29 31  2  0  0  0  0
 29 85  1  0  0  0  0
 30 87  1  0  0  0  0
 31 88  1  0  0  0  0
 32 67  2  0  0  0  0
 33 68  1  0  0  0  0
 33 73  1  0  0  0  0
 34 35  2  0  0  0  0
 34 45  1  0  0  0  0
 34 63  1  0  0  0  0
 35 57  1  0  0  0  0
 35 69  1  0  0  0  0
 36 46  1  0  0  0  0
 36 47  1  0  0  0  0
 36 79  2  0  0  0  0
 37 74  1  0  0  0  0
 37 80  2  0  0  0  0
 38 55  1  0  0  0  0
 38 76  1  0  0  0  0
 38 81  2  0  0  0  0
 39 64  1  0  0  0  0
 39 70  1  0  0  0  0
 39 82  2  0  0  0  0
 40 65  1  0  0  0  0
 40 77  1  0  0  0  0
 40 83  2  0  0  0  0
 41 71  1  0  0  0  0
 41 75  1  0  0  0  0
 41 84  2  0  0  0  0
 42 48  1  0  0  0  0
 43 55  1  0  0  0  0
 44 70  1  0  0  0  0
 45 46  1  0  0  0  0
 47 69  1  0  0  0  0
 48 50  1  0  0  0  0
 49 51  1  0  0  0  0
 49 52  1  0  0  0  0
 50 54  1  0  0  0  0
 51 56  1  0  0  0  0
 52 71  1  0  0  0  0
 53 56  1  0  0  0  0
 53 71  1  0  0  0  0
 54 76  1  0  0  0  0
 55 70  1  0  0  0  0
 56 68  1  0  0  0  0
 58 65  1  0  0  0  0
 59 66  1  0  0  0  0
 60 66  1  0  0  0  0
 61 66  1  0  0  0  0
 62 78  1  0  0  0  0
 63 86  1  0  0  0  0
 64 66  1  0  0  0  0
 64 77  1  0  0  0  0
 65 78  1  0  0  0  0
 67 68  1  0  0  0  0
M  CHG  1  78   1
M  ISO  4  41 100  63 101  75 100  86 101
M  END
> <Batch ID>
0113

> <Smiles>
CNC(C)C(=O)NC(C(=O)N1Cc2cc([101O:1][101CH2:1]C3=C(C)N(c4ccc([100NH:0][100C:0](=O)N5CCCC(n6nc(-c7ccc(Oc8ccc(F)cc8F)cc7)c(C(N)=O)c6N)C5)cc4N)CC(=O)CC3)ccc2CC1C(=O)NC1CCCc2ccccc21)C(C)(C)C

> <Shape>
0.342

> <Color>
0.090

> <Negative vol penalty>
0.000

$$$$

  -OEChem-04052301343D

 82 90  0     1  0  0  0  0  0999 V2000
  -28.5118  -24.3333   16.8660 C   0  0  0  0  0  0  0  0  0  0  0  0
  -27.3407  -24.4632   17.6057 C   0  0  0  0  0  0  0  0  0  0  0  0
  -24.5661  -12.4846   19.8404 C   0  0  0  0  0  0  0  0  0  0  0  0
  -24.3929  -13.2903   22.1115 C   0  0  0  0  0  0  0  0  0  0  0  0
  -29.6812  -24.9569   17.2990 C   0  0  0  0  0  0  0  0  0  0  0  0
  -27.3387  -25.2159   18.7795 C   0  0  0  0  0  0  0  0  0  0  0  0
  -23.3186  -28.2767   19.1177 C   0  0  0  0  0  0  0  0  0  0  0  0
  -19.0518  -21.6570   24.6392 C   0  0  0  0  0  0  0  0  0  0  0  0
  -19.3096  -20.3514   25.0572 C   0  0  0  0  0  0  0  0  0  0  0  0
  -25.9407  -12.3151   20.0053 C   0  0  0  0  0  0  0  0  0  0  0  0
  -25.7676  -13.1208   22.2764 C   0  0  0  0  0  0  0  0  0  0  0  0
  -22.1076  -27.6980   19.4952 C   0  0  0  0  0  0  0  0  0  0  0  0
  -29.5526  -12.0101   19.7133 C   0  0  0  0  0  0  0  0  0  0  0  0
  -30.3897  -12.4549   18.6902 C   0  0  0  0  0  0  0  0  0  0  0  0
  -22.4377  -28.4921   21.7491 C   0  0  0  0  0  0  0  0  0  0  0  0
  -18.7182  -20.8679   22.3802 C   0  0  0  0  0  0  0  0  0  0  0  0
  -29.5476  -14.7011   18.9777 C   0  0  0  0  0  0  0  0  0  0  0  0
  -23.7922  -12.9722   20.8935 C   0  0  0  0  0  0  0  0  0  0  0  0
  -21.3616  -12.2028   20.9821 C   0  0  0  0  0  0  0  0  0  0  0  0
  -29.6912  -25.7255   18.4736 C   0  0  0  0  0  0  0  0  0  0  0  0
  -24.1047  -28.9593   20.0571 C   0  0  0  0  0  0  0  0  0  0  0  0
  -28.5097  -25.8492   19.2294 C   0  0  0  0  0  0  0  0  0  0  0  0
  -23.6570  -29.0808   21.3803 C   0  0  0  0  0  0  0  0  0  0  0  0
  -18.7561  -21.9152   23.3006 C   0  0  0  0  0  0  0  0  0  0  0  0
  -19.2717  -19.3041   24.1367 C   0  0  0  0  0  0  0  0  0  0  0  0
  -18.9761  -19.5623   22.7981 C   0  0  0  0  0  0  0  0  0  0  0  0
  -26.5415  -12.6332   21.2233 C   0  0  0  0  0  0  0  0  0  0  0  0
  -21.6684  -27.8032   20.8117 C   0  0  0  0  0  0  0  0  0  0  0  0
  -28.7128  -12.9107   20.3686 C   0  0  0  0  0  0  0  0  0  0  0  0
  -30.3873  -13.8004   18.3224 C   0  0  0  0  0  0  0  0  0  0  0  0
  -28.7104  -14.2562   20.0008 C   0  0  0  0  0  0  0  0  0  0  0  0
  -22.3722  -13.1481   20.7235 C   0  0  0  0  0  0  0  0  0  0  0  0
  -20.1941  -12.8524   20.6635 C   0  0  0  0  0  0  0  0  0  0  0  0
  -19.4016  -25.3053   22.0193 C   0  0  0  0  0  0  0  0  0  0  0  0
  -20.5039  -25.9481   21.6322 C   0  0  0  0  0  0  0  0  0  1  0  0
  -19.5239  -23.9122   22.4886 C   0  0  0  0  0  0  0  0  0  0  0  0
  -21.4686  -10.8577   21.4669 C   0  0  0  0  0  0  0  0  0  0  0  0
  -27.0251  -28.5644   21.2484 C   0  0  0  0  0  0  0  0  0  0  0  0
  -26.4001  -31.4043   22.6859 C   0  0  0  0  0  0  0  0  0  0  0  0
  -24.0723  -33.6218   23.8308 C   0  0  0  0  0  0  0  0  0  0  0  0
  -18.6514  -18.6224   20.4835 C   0  0  0  0  0  0  0  0  0  0  0  0
  -30.9910  -26.3418   18.9269 C   0  0  0  0  0  0  0  0  0  0  0  0
  -25.3956  -29.6009   19.6278 C   0  0  0  0  0  0  0  0  0  0  0  0
  -24.4540  -29.8204   22.4225 C   0  0  0  0  0  0  0  0  0  0  0  0
  -30.8136  -27.4303   19.9824 C   0  0  0  0  0  0  0  0  0  0  0  0
  -18.4817  -16.2881   17.8003 C   0  0  0  0  0  0  0  0  0  0  0  0
  -29.8527  -26.9656   21.0721 C   0  0  0  0  0  0  0  0  0  0  0  0
  -19.3632  -15.1293   18.2716 C   0  0  0  0  0  0  0  0  0  0  0  0
  -19.0432  -17.6409   18.2345 C   0  0  0  0  0  0  0  0  0  0  0  0
  -20.2090  -16.6044   20.1413 C   0  0  0  0  0  0  0  0  0  0  0  0
  -28.4615  -26.6776   20.4949 C   0  0  1  0  0  0  0  0  0  0  0  0
  -26.3625  -29.8309   20.7853 C   0  0  1  0  0  0  0  0  0  0  0  0
  -19.6497  -15.2178   19.7835 C   0  0  2  0  0  0  0  0  0  0  0  0
  -23.8653  -35.8365   24.9924 C   0  0  0  0  0  0  0  0  0  0  0  0
  -27.1194  -30.0779   25.3379 C   0  0  0  0  0  0  0  0  0  0  0  0
  -26.0046  -31.9859   26.5148 C   0  0  0  0  0  0  0  0  0  0  0  0
  -27.9912  -32.4061   25.0658 C   0  0  0  0  0  0  0  0  0  0  0  0
  -22.6503  -34.8258   21.5314 C   0  0  0  0  0  0  0  0  0  0  0  0
  -25.7759  -31.8259   23.9942 C   0  0  1  0  0  0  0  0  0  0  0  0
  -23.9374  -35.1231   23.6513 C   0  0  2  0  0  0  0  0  0  0  0  0
  -26.7085  -31.5582   25.2092 C   0  0  0  0  0  0  0  0  0  0  0  0
  -21.8891  -14.3098   20.2751 N   0  0  0  0  0  0  0  0  0  0  0  0
  -18.4956  -23.2303   22.8788 N   0  0  0  0  0  0  0  0  0  0  0  0
  -20.5621  -14.0987   20.2493 N   0  0  0  0  0  0  0  0  0  0  0  0
  -25.7124  -30.4251   21.9552 N   0  0  0  0  0  0  0  0  0  0  0  0
  -19.2855  -17.6523   19.6788 N   0  0  0  0  0  0  0  0  0  0  0  0
  -19.5364  -17.9897   24.5824 N   0  0  0  0  0  0  0  0  0  0  0  0
  -18.8990  -12.4734   20.6999 N   0  0  0  0  0  0  0  0  0  0  0  0
  -22.7439  -10.3470   21.7446 N   0  0  0  0  0  0  0  0  0  0  0  0
  -18.9316  -18.5145   21.8453 N   0  0  0  0  0  0  0  0  0  0  0  0
  -27.7442  -27.9133   20.2644 N   0  0  0  0  0  0  0  0  0  0  0  0
  -25.3925  -33.2241   23.8318 N   0  0  0  0  0  0  0  0  0  0  0  0
  -22.7023  -35.4438   22.8814 N   0  3  0  0  0  0  0  0  0  0  0  0
  -20.4642  -10.1248   21.6330 O   0  0  0  0  0  0  0  0  0  0  0  0
  -26.8949  -28.2052   22.4128 O   0  0  0  0  0  0  0  0  0  0  0  0
  -27.4552  -31.9298   22.3222 O   0  0  0  0  0  0  0  0  0  0  0  0
  -23.1035  -32.8768   23.9611 O   0  0  0  0  0  0  0  0  0  0  0  0
  -17.8925  -19.4684   20.0035 O   0  0  0  0  0  0  0  0  0  0  0  0
  -27.8828  -12.4677   21.3847 O   0  0  0  0  0  0  0  0  0  0  0  0
  -20.4872  -27.2387   21.1830 O   0  0  0  0  0  0  0  0  0  1  0  0
  -31.1924  -14.2277   17.3409 F   0  0  0  0  0  0  0  0  0  0  0  0
  -27.9067  -15.1264   20.6275 F   0  0  0  0  0  0  0  0  0  0  0  0
  1  2  1  0  0  0  0
  1  5  2  0  0  0  0
  2  6  2  0  0  0  0
  3 10  2  0  0  0  0
  3 18  1  0  0  0  0
  4 11  1  0  0  0  0
  4 18  2  0  0  0  0
  5 20  1  0  0  0  0
  6 22  1  0  0  0  0
  7 12  2  0  0  0  0
  7 21  1  0  0  0  0
  8  9  2  0  0  0  0
  8 24  1  0  0  0  0
  9 25  1  0  0  0  0
 10 27  1  0  0  0  0
 11 27  2  0  0  0  0
 12 28  1  0  0  0  0
 13 14  2  0  0  0  0
 13 29  1  0  0  0  0
 14 30  1  0  0  0  0
 15 23  1  0  0  0  0
 15 28  2  0  0  0  0
 16 24  2  0  0  0  0
 16 26  1  0  0  0  0
 17 30  2  0  0  0  0
 17 31  1  0  0  0  0
 18 32  1  0  0  0  0
 19 32  1  0  0  0  0
 19 33  2  0  0  0  0
 19 37  1  0  0  0  0
 20 22  2  0  0  0  0
 20 42  1  0  0  0  0
 21 23  2  0  0  0  0
 21 43  1  0  0  0  0
 22 51  1  0  0  0  0
 23 44  1  0  0  0  0
 24 63  1  0  0  0  0
 25 26  2  0  0  0  0
 25 67  1  0  0  0  0
 26 70  1  0  0  0  0
 27 79  1  0  0  0  0
 28 80  1  0  0  0  0
 29 31  2  0  0  0  0
 29 79  1  0  0  0  0
 30 81  1  0  0  0  0
 31 82  1  0  0  0  0
 32 62  2  0  0  0  0
 33 64  1  0  0  0  0
 33 68  1  0  0  0  0
 34 35  2  0  0  0  0
 34 36  1  0  0  0  0
 35 80  1  0  0  0  0
 36 63  2  0  0  0  0
 37 69  1  0  0  0  0
 37 74  2  0  0  0  0
 38 52  1  0  0  0  0
 38 71  1  0  0  0  0
 38 75  2  0  0  0  0
 39 59  1  0  0  0  0
 39 65  1  0  0  0  0
 39 76  2  0  0  0  0
 40 60  1  0  0  0  0
 40 72  1  0  0  0  0
 40 77  2  0  0  0  0
 41 66  1  0  0  0  0
 41 70  1  0  0  0  0
 41 78  2  0  0  0  0
 42 45  1  0  0  0  0
 43 52  1  0  0  0  0
 44 65  1  0  0  0  0
 45 47  1  0  0  0  0
 46 48  1  0  0  0  0
 46 49  1  0  0  0  0
 47 51  1  0  0  0  0
 48 53  1  0  0  0  0
 49 66  1  0  0  0  0
 50 53  1  0  0  0  0
 50 66  1  0  0  0  0
 51 71  1  0  0  0  0
 52 65  1  0  0  0  0
 53 64  1  0  0  0  0
 54 60  1  0  0  0  0
 55 61  1  0  0  0  0
 56 61  1  0  0  0  0
 57 61  1  0  0  0  0
 58 73  1  0  0  0  0
 59 61  1  0  0  0  0
 59 72  1  0  0  0  0
 60 73  1  0  0  0  0
 62 64  1  0  0  0  0
M  CHG  1  73   1
M  ISO  4  35 101  41 100  70 100  80 101
M  END
> <Batch ID>
0113

> <Smiles>
CNC(C)C(=O)NC(C(=O)N1Cc2cc([101O:1][101CH:1]=CC=Nc3ccc(N)c([100NH:0][100C:0](=O)N4CCCC(n5nc(-c6ccc(Oc7ccc(F)cc7F)cc6)c(C(N)=O)c5N)C4)c3)ccc2CC1C(=O)NC1CCCc2ccccc21)C(C)(C)C

> <Shape>
0.277

> <Color>
0.088

> <Negative vol penalty>
0.000

$$$$

  -OEChem-04052301343D

 89 97  0     1  0  0  0  0  0999 V2000
  -20.4917  -33.3184   18.8785 C   0  0  0  0  0  0  0  0  0  0  0  0
  -20.9281  -32.1399   18.2817 C   0  0  0  0  0  0  0  0  0  0  0  0
  -23.0416  -10.0561   19.9403 C   0  0  0  0  0  0  0  0  0  0  0  0
  -23.7226   -9.8111   22.2453 C   0  0  0  0  0  0  0  0  0  0  0  0
  -21.4203  -34.2574   19.3256 C   0  0  0  0  0  0  0  0  0  0  0  0
  -22.2935  -31.9002   18.1308 C   0  0  0  0  0  0  0  0  0  0  0  0
  -23.5923  -27.1804   19.4272 C   0  0  0  0  0  0  0  0  0  0  0  0
  -22.2185   -8.9368   20.0645 C   0  0  0  0  0  0  0  0  0  0  0  0
  -22.8995   -8.6919   22.3696 C   0  0  0  0  0  0  0  0  0  0  0  0
  -23.3204  -26.1695   18.5064 C   0  0  0  0  0  0  0  0  0  0  0  0
  -22.9991   -5.4199   21.5238 C   0  0  0  0  0  0  0  0  0  0  0  0
  -23.5242   -4.2972   22.1635 C   0  0  0  0  0  0  0  0  0  0  0  0
  -26.9917  -20.0500   17.4209 C   0  0  0  0  0  0  0  0  0  0  0  0
  -25.6234  -26.2111   17.7897 C   0  0  0  0  0  0  0  0  0  0  0  0
  -26.0367  -18.5120   15.8210 C   0  0  0  0  0  0  0  0  0  0  0  0
  -21.7805   -4.4314   23.8305 C   0  0  0  0  0  0  0  0  0  0  0  0
  -23.7937  -10.4932   21.0307 C   0  0  0  0  0  0  0  0  0  0  0  0
  -28.0731  -19.1882   17.6039 C   0  0  0  0  0  0  0  0  0  0  0  0
  -28.1363  -17.9883   16.8955 C   0  0  0  0  0  0  0  0  0  0  0  0
  -24.2978  -12.9911   21.1481 C   0  0  0  0  0  0  0  0  0  0  0  0
  -22.7979  -34.0248   19.1888 C   0  0  0  0  0  0  0  0  0  0  0  0
  -24.8815  -27.7227   19.5288 C   0  0  0  0  0  0  0  0  0  0  0  0
  -23.2414  -32.8376   18.5753 C   0  0  0  0  0  0  0  0  0  0  0  0
  -25.9097  -27.2270   18.7144 C   0  0  0  0  0  0  0  0  0  0  0  0
  -25.9735  -19.7119   16.5294 C   0  0  0  0  0  0  0  0  0  0  0  0
  -27.1181  -17.6501   16.0040 C   0  0  0  0  0  0  0  0  0  0  0  0
  -22.1474   -8.2548   21.2792 C   0  0  0  0  0  0  0  0  0  0  0  0
  -24.3353  -25.6867   17.6854 C   0  0  0  0  0  0  0  0  0  0  0  0
  -21.8647   -6.0486   22.0375 C   0  0  0  0  0  0  0  0  0  0  0  0
  -22.9149   -3.8029   23.3168 C   0  0  0  0  0  0  0  0  0  0  0  0
  -21.2555   -5.5543   23.1908 C   0  0  0  0  0  0  0  0  0  0  0  0
  -24.6445  -11.6490   20.9028 C   0  0  0  0  0  0  0  0  0  0  0  0
  -25.4467  -13.6962   20.8844 C   0  0  0  0  0  0  0  0  0  0  0  0
  -29.1188  -19.5727   18.5442 C   0  0  0  0  0  0  0  0  0  0  0  0
  -29.2885  -17.0715   17.0922 C   0  0  0  0  0  0  0  0  0  0  0  0
  -23.0490  -13.5505   21.5761 C   0  0  0  0  0  0  0  0  0  0  0  0
  -26.1420  -30.6080   19.0928 C   0  0  0  0  0  0  0  0  0  0  0  0
  -28.8210  -29.1831   20.2396 C   0  0  0  0  0  0  0  0  0  0  0  0
  -24.6529  -21.8118   16.9661 C   0  0  0  0  0  0  0  0  0  0  0  0
  -30.5814  -26.3033   20.7443 C   0  0  0  0  0  0  0  0  0  0  0  0
  -29.8996  -14.7706   17.7675 C   0  0  0  0  0  0  0  0  0  0  0  0
  -23.7629  -35.0905   19.6446 C   0  0  0  0  0  0  0  0  0  0  0  0
  -25.1647  -28.7941   20.5457 C   0  0  0  0  0  0  0  0  0  0  0  0
  -27.3153  -27.7614   18.7984 C   0  0  0  0  0  0  0  0  0  0  0  0
  -25.1987  -34.5919   19.7861 C   0  0  0  0  0  0  0  0  0  0  0  0
  -30.1816  -12.0966   20.0625 C   0  0  0  0  0  0  0  0  0  0  0  0
  -25.6020  -33.7721   18.5646 C   0  0  0  0  0  0  0  0  0  0  0  0
  -28.7388  -11.8547   20.5143 C   0  0  0  0  0  0  0  0  0  0  0  0
  -30.2591  -12.4560   18.5794 C   0  0  0  0  0  0  0  0  0  0  0  0
  -27.9548  -13.3202   18.6112 C   0  0  0  0  0  0  0  0  0  0  0  0
  -24.7146  -32.5303   18.4161 C   0  0  1  0  0  0  0  0  0  0  0  0
  -26.3944  -29.6306   20.2058 C   0  0  1  0  0  0  0  0  0  0  0  0
  -27.8170  -13.0239   20.1133 C   0  0  1  0  0  0  0  0  0  0  0  0
  -29.3740  -21.0385   18.7306 C   0  0  0  0  0  0  0  0  0  0  0  0
  -32.7557  -25.4605   21.6711 C   0  0  0  0  0  0  0  0  0  0  0  0
  -30.2677  -30.1787   17.7445 C   0  0  0  0  0  0  0  0  0  0  0  0
  -32.1019  -28.5490   18.2425 C   0  0  0  0  0  0  0  0  0  0  0  0
  -31.5842  -30.3747   19.8617 C   0  0  0  0  0  0  0  0  0  0  0  0
  -25.9822  -15.7395   14.8704 C   0  0  0  0  0  0  0  0  0  0  0  0
  -29.2073  -24.6585   22.7852 C   0  0  0  0  0  0  0  0  0  0  0  0
  -23.3455  -22.4265   16.4796 C   0  0  0  0  0  0  0  0  0  0  0  0
  -23.0424  -23.7719   17.1216 C   0  0  0  0  0  0  0  0  0  1  0  0
  -29.9799  -28.4348   19.6265 C   0  0  1  0  0  0  0  0  0  0  0  0
  -31.2950  -25.7605   21.9692 C   0  0  2  0  0  0  0  0  0  0  0  0
  -30.9566  -29.3754   18.8656 C   0  0  0  0  0  0  0  0  0  0  0  0
  -25.9142  -11.5073   20.5131 N   0  0  0  0  0  0  0  0  0  0  0  0
  -26.3754  -12.7696   20.5115 N   0  0  0  0  0  0  0  0  0  0  0  0
  -27.5408  -28.8128   19.8040 N   0  0  0  0  0  0  0  0  0  0  0  0
  -29.3653  -13.5771   18.2838 N   0  0  0  0  0  0  0  0  0  0  0  0
  -25.7429  -15.0122   20.9375 N   0  0  0  0  0  0  0  0  0  0  0  0
  -21.9710  -12.6837   21.8017 N   0  0  0  0  0  0  0  0  0  0  0  0
  -24.8755  -20.5856   16.3452 N   0  0  0  0  0  0  0  0  0  0  0  0
  -27.1597  -16.4396   15.2767 N   0  0  0  0  0  0  0  0  0  0  0  0
  -28.9704  -15.7959   17.5591 N   0  0  0  0  0  0  0  0  0  0  0  0
  -25.1217  -31.5034   19.3511 N   0  0  0  0  0  0  0  0  0  0  0  0
  -30.5994  -27.6817   20.7116 N   0  0  0  0  0  0  0  0  0  0  0  0
  -30.6425  -24.5040   22.4344 N   0  3  0  0  0  0  0  0  0  0  0  0
  -29.8079  -18.7837   19.1902 O   0  0  0  0  0  0  0  0  0  0  0  0
  -30.4175  -17.4598   16.8047 O   0  0  0  0  0  0  0  0  0  0  0  0
  -22.8890  -14.7842   21.7373 O   0  0  0  0  0  0  0  0  0  0  0  0
  -26.8235  -30.5547   18.0758 O   0  0  0  0  0  0  0  0  0  0  0  0
  -29.0430  -30.0589   21.0795 O   0  0  0  0  0  0  0  0  0  0  0  0
  -25.3680  -22.3680   17.7929 O   0  0  0  0  0  0  0  0  0  0  0  0
  -30.0632  -25.5771   19.8989 O   0  0  0  0  0  0  0  0  0  0  0  0
  -31.1051  -14.9236   17.5471 O   0  0  0  0  0  0  0  0  0  0  0  0
  -21.3442   -7.1627   21.4009 O   0  0  0  0  0  0  0  0  0  0  0  0
  -24.0725  -24.7005   16.7853 O   0  0  0  0  0  0  0  0  0  1  0  0
  -23.4183   -2.7237   23.9301 F   0  0  0  0  0  0  0  0  0  0  0  0
  -20.1648   -6.1532   23.6883 F   0  0  0  0  0  0  0  0  0  0  0  0
  1  2  1  0  0  0  0
  1  5  2  0  0  0  0
  2  6  2  0  0  0  0
  3  8  2  0  0  0  0
  3 17  1  0  0  0  0
  4  9  1  0  0  0  0
  4 17  2  0  0  0  0
  5 21  1  0  0  0  0
  6 23  1  0  0  0  0
  7 10  2  0  0  0  0
  7 22  1  0  0  0  0
  8 27  1  0  0  0  0
  9 27  2  0  0  0  0
 10 28  1  0  0  0  0
 11 12  2  0  0  0  0
 11 29  1  0  0  0  0
 12 30  1  0  0  0  0
 13 18  2  0  0  0  0
 13 25  1  0  0  0  0
 14 24  1  0  0  0  0
 14 28  2  0  0  0  0
 15 25  2  0  0  0  0
 15 26  1  0  0  0  0
 16 30  2  0  0  0  0
 16 31  1  0  0  0  0
 17 32  1  0  0  0  0
 18 19  1  0  0  0  0
 18 34  1  0  0  0  0
 19 26  2  0  0  0  0
 19 35  1  0  0  0  0
 20 32  1  0  0  0  0
 20 33  2  0  0  0  0
 20 36  1  0  0  0  0
 21 23  2  0  0  0  0
 21 42  1  0  0  0  0
 22 24  2  0  0  0  0
 22 43  1  0  0  0  0
 23 51  1  0  0  0  0
 24 44  1  0  0  0  0
 25 72  1  0  0  0  0
 26 73  1  0  0  0  0
 27 86  1  0  0  0  0
 28 87  1  0  0  0  0
 29 31  2  0  0  0  0
 29 86  1  0  0  0  0
 30 88  1  0  0  0  0
 31 89  1  0  0  0  0
 32 66  2  0  0  0  0
 33 67  1  0  0  0  0
 33 70  1  0  0  0  0
 34 54  1  0  0  0  0
 34 78  2  0  0  0  0
 35 74  1  0  0  0  0
 35 79  2  0  0  0  0
 36 71  1  0  0  0  0
 36 80  2  0  0  0  0
 37 52  1  0  0  0  0
 37 75  1  0  0  0  0
 37 81  2  0  0  0  0
 38 63  1  0  0  0  0
 38 68  1  0  0  0  0
 38 82  2  0  0  0  0
 39 61  1  0  0  0  0
 39 72  1  0  0  0  0
 39 83  2  0  0  0  0
 40 64  1  0  0  0  0
 40 76  1  0  0  0  0
 40 84  2  0  0  0  0
 41 69  1  0  0  0  0
 41 74  1  0  0  0  0
 41 85  2  0  0  0  0
 42 45  1  0  0  0  0
 43 52  1  0  0  0  0
 44 68  1  0  0  0  0
 45 47  1  0  0  0  0
 46 48  1  0  0  0  0
 46 49  1  0  0  0  0
 47 51  1  0  0  0  0
 48 53  1  0  0  0  0
 49 69  1  0  0  0  0
 50 53  1  0  0  0  0
 50 69  1  0  0  0  0
 51 75  1  0  0  0  0
 52 68  1  0  0  0  0
 53 67  1  0  0  0  0
 55 64  1  0  0  0  0
 56 65  1  0  0  0  0
 57 65  1  0  0  0  0
 58 65  1  0  0  0  0
 59 73  1  0  0  0  0
 60 77  1  0  0  0  0
 61 62  1  0  0  0  0
 62 87  1  0  0  0  0
 63 65  1  0  0  0  0
 63 76  1  0  0  0  0
 64 77  1  0  0  0  0
 66 67  1  0  0  0  0
M  CHG  1  77   1
M  ISO  4  41 100  62 101  74 100  87 101
M  END
> <Batch ID>
0113

> <Smiles>
CNc1cc(NC(=O)C[101CH2:1][101O:1]c2ccc3c(c2)CN(C(=O)C(NC(=O)C(C)NC)C(C)(C)C)C(C(=O)NC2CCCc4ccccc42)C3)cc(C(C)=O)c1C(=O)[100NH:0][100C:0](=O)N1CCCC(n2nc(-c3ccc(Oc4ccc(F)cc4F)cc3)c(C(N)=O)c2N)C1

> <Shape>
0.236

> <Color>
0.174

> <Negative vol penalty>
0.000

$$$$

  -OEChem-04052301343D

 85 94  0     1  0  0  0  0  0999 V2000
  -28.3928  -37.7189   21.7769 C   0  0  0  0  0  0  0  0  0  0  0  0
  -28.8227  -36.4481   21.4087 C   0  0  0  0  0  0  0  0  0  0  0  0
  -23.8308  -10.2175   22.7351 C   0  0  0  0  0  0  0  0  0  0  0  0
  -23.0756  -12.4714   22.3030 C   0  0  0  0  0  0  0  0  0  0  0  0
  -27.3722  -37.8635   22.7157 C   0  0  0  0  0  0  0  0  0  0  0  0
  -28.2329  -35.3210   21.9799 C   0  0  0  0  0  0  0  0  0  0  0  0
  -30.5770  -19.2608   19.9296 C   0  0  0  0  0  0  0  0  0  0  0  0
  -27.2149  -29.9247   19.2689 C   0  0  0  0  0  0  0  0  0  0  0  0
  -30.4365  -17.8803   19.7536 C   0  0  0  0  0  0  0  0  0  0  0  0
  -23.0337  -10.1697   23.8787 C   0  0  0  0  0  0  0  0  0  0  0  0
  -22.2784  -12.4236   23.4466 C   0  0  0  0  0  0  0  0  0  0  0  0
  -27.9141  -28.7187   19.2882 C   0  0  0  0  0  0  0  0  0  0  0  0
  -19.7688   -9.6985   24.6215 C   0  0  0  0  0  0  0  0  0  0  0  0
  -19.0071   -8.5493   24.8331 C   0  0  0  0  0  0  0  0  0  0  0  0
  -28.0631  -18.1272   19.2680 C   0  0  0  0  0  0  0  0  0  0  0  0
  -26.4592  -27.9102   21.0344 C   0  0  0  0  0  0  0  0  0  0  0  0
  -20.1564   -8.1726   26.9246 C   0  0  0  0  0  0  0  0  0  0  0  0
  -23.8518  -11.3684   21.9472 C   0  0  0  0  0  0  0  0  0  0  0  0
  -28.2306  -19.4871   19.4477 C   0  0  0  0  0  0  0  0  0  0  0  0
  -24.3103  -11.0459   19.4586 C   0  0  0  0  0  0  0  0  0  0  0  0
  -29.4574  -20.0565   19.7724 C   0  0  0  0  0  0  0  0  0  0  0  0
  -26.7630  -36.7375   23.2916 C   0  0  0  0  0  0  0  0  0  0  0  0
  -26.1378  -30.1371   20.1413 C   0  0  0  0  0  0  0  0  0  0  0  0
  -27.2041  -35.4507   22.9283 C   0  0  0  0  0  0  0  0  0  0  0  0
  -25.7465  -29.1189   21.0224 C   0  0  0  0  0  0  0  0  0  0  0  0
  -29.1895  -17.3184   19.4256 C   0  0  0  0  0  0  0  0  0  0  0  0
  -22.2575  -11.2727   24.2345 C   0  0  0  0  0  0  0  0  0  0  0  0
  -27.5381  -27.7123   20.1730 C   0  0  0  0  0  0  0  0  0  0  0  0
  -20.7244  -10.0847   25.5614 C   0  0  0  0  0  0  0  0  0  0  0  0
  -19.2008   -7.7864   25.9846 C   0  0  0  0  0  0  0  0  0  0  0  0
  -20.9181   -9.3218   26.7129 C   0  0  0  0  0  0  0  0  0  0  0  0
  -24.6755  -11.4187   20.7661 C   0  0  0  0  0  0  0  0  0  0  0  0
  -25.4363  -11.2801   18.7077 C   0  0  0  0  0  0  0  0  0  0  0  0
  -27.2365  -20.5582   19.3470 C   0  0  0  0  0  0  0  0  0  0  0  0
  -28.1029  -24.1838   19.9188 C   0  0  0  0  0  0  0  0  0  0  0  0
  -27.5284  -25.3867   19.9231 C   0  0  0  0  0  0  0  0  0  1  0  0
  -23.0647  -10.5337   18.9668 C   0  0  0  0  0  0  0  0  0  0  0  0
  -27.2659  -23.0057   19.6135 C   0  0  0  0  0  0  0  0  0  0  0  0
  -25.5244  -32.1888   22.4903 C   0  0  0  0  0  0  0  0  0  0  0  0
  -22.6032  -30.7799   22.4328 C   0  0  0  0  0  0  0  0  0  0  0  0
  -20.7209  -28.0446   21.6443 C   0  0  0  0  0  0  0  0  0  0  0  0
  -30.0916  -14.9669   19.3713 C   0  0  0  0  0  0  0  0  0  0  0  0
  -25.6959  -36.9446   24.3371 C   0  0  0  0  0  0  0  0  0  0  0  0
  -25.3771  -31.4336   20.0894 C   0  0  0  0  0  0  0  0  0  0  0  0
  -29.3267  -21.5321   19.9011 C   0  0  0  0  0  0  0  0  0  0  0  0
  -24.5844  -29.2894   21.9652 C   0  0  0  0  0  0  0  0  0  0  0  0
  -24.8666  -35.6940   24.6170 C   0  0  0  0  0  0  0  0  0  0  0  0
  -30.2102  -11.4220   19.0606 C   0  0  0  0  0  0  0  0  0  0  0  0
  -25.7733  -34.4791   24.7870 C   0  0  0  0  0  0  0  0  0  0  0  0
  -28.7698  -10.9854   19.3377 C   0  0  0  0  0  0  0  0  0  0  0  0
  -30.6221  -12.6054   19.9344 C   0  0  0  0  0  0  0  0  0  0  0  0
  -28.2764  -13.3239   20.1593 C   0  0  0  0  0  0  0  0  0  0  0  0
  -26.5720  -34.2036   23.5073 C   0  0  1  0  0  0  0  0  0  0  0  0
  -24.6203  -31.7344   21.3795 C   0  0  1  0  0  0  0  0  0  0  0  0
  -27.7945  -12.1762   19.2570 C   0  0  2  0  0  0  0  0  0  0  0  0
  -18.3694  -27.1746   21.7497 C   0  0  0  0  0  0  0  0  0  0  0  0
  -22.9279  -30.2716   25.4238 C   0  0  0  0  0  0  0  0  0  0  0  0
  -21.0583  -28.6132   25.2742 C   0  0  0  0  0  0  0  0  0  0  0  0
  -20.6412  -31.0125   24.7339 C   0  0  0  0  0  0  0  0  0  0  0  0
  -20.5646  -27.7767   18.7010 C   0  0  0  0  0  0  0  0  0  0  0  0
  -21.9750  -29.5928   23.1223 C   0  0  1  0  0  0  0  0  0  0  0  0
  -19.4008  -27.9087   20.9071 C   0  0  2  0  0  0  0  0  0  0  0  0
  -21.6738  -29.8697   24.6223 C   0  0  0  0  0  0  0  0  0  0  0  0
  -25.9350  -11.8563   20.8447 N   0  0  0  0  0  0  0  0  0  0  0  0
  -26.3711  -11.7599   19.5772 N   0  0  0  0  0  0  0  0  0  0  0  0
  -27.9026  -21.7708   19.6192 N   0  0  0  0  0  0  0  0  0  0  0  0
  -23.8761  -30.5773   21.8811 N   0  0  0  0  0  0  0  0  0  0  0  0
  -29.6544  -13.6969   19.8034 N   0  0  0  0  0  0  0  0  0  0  0  0
  -25.7081  -11.1202   17.3951 N   0  0  0  0  0  0  0  0  0  0  0  0
  -22.0115  -10.3540   19.8738 N   0  0  0  0  0  0  0  0  0  0  0  0
  -29.0772  -15.9165   19.2532 N   0  0  0  0  0  0  0  0  0  0  0  0
  -25.7366  -33.5540   22.5201 N   0  0  0  0  0  0  0  0  0  0  0  0
  -20.8010  -29.2365   22.3329 N   0  0  0  0  0  0  0  0  0  0  0  0
  -19.5924  -27.1544   19.6362 N   0  3  0  0  0  0  0  0  0  0  0  0
  -26.0657  -20.3594   19.0734 O   0  0  0  0  0  0  0  0  0  0  0  0
  -22.8960  -10.2287   17.7618 O   0  0  0  0  0  0  0  0  0  0  0  0
  -26.0711  -23.1790   19.3749 O   0  0  0  0  0  0  0  0  0  0  0  0
  -25.9936  -31.3623   23.2639 O   0  0  0  0  0  0  0  0  0  0  0  0
  -21.9841  -31.8455   22.3794 O   0  0  0  0  0  0  0  0  0  0  0  0
  -21.5921  -27.1782   21.6154 O   0  0  0  0  0  0  0  0  0  0  0  0
  -31.2742  -15.1878   19.0981 O   0  0  0  0  0  0  0  0  0  0  0  0
  -21.4793  -11.2263   25.3502 O   0  0  0  0  0  0  0  0  0  0  0  0
  -28.2192  -26.5343   20.1944 O   0  0  0  0  0  0  0  0  0  1  0  0
  -18.4682   -6.6838   26.1885 F   0  0  0  0  0  0  0  0  0  0  0  0
  -21.8338   -9.6885   27.6201 F   0  0  0  0  0  0  0  0  0  0  0  0
  1  2  1  0  0  0  0
  1  5  2  0  0  0  0
  2  6  2  0  0  0  0
  3 10  2  0  0  0  0
  3 18  1  0  0  0  0
  4 11  1  0  0  0  0
  4 18  2  0  0  0  0
  5 22  1  0  0  0  0
  6 24  1  0  0  0  0
  7  9  2  0  0  0  0
  7 21  1  0  0  0  0
  8 12  2  0  0  0  0
  8 23  1  0  0  0  0
  9 26  1  0  0  0  0
 10 27  1  0  0  0  0
 11 27  2  0  0  0  0
 12 28  1  0  0  0  0
 13 14  2  0  0  0  0
 13 29  1  0  0  0  0
 14 30  1  0  0  0  0
 15 19  1  0  0  0  0
 15 26  2  0  0  0  0
 16 25  1  0  0  0  0
 16 28  2  0  0  0  0
 17 30  2  0  0  0  0
 17 31  1  0  0  0  0
 18 32  1  0  0  0  0
 19 21  2  0  0  0  0
 19 34  1  0  0  0  0
 20 32  1  0  0  0  0
 20 33  2  0  0  0  0
 20 37  1  0  0  0  0
 21 45  1  0  0  0  0
 22 24  2  0  0  0  0
 22 43  1  0  0  0  0
 23 25  2  0  0  0  0
 23 44  1  0  0  0  0
 24 53  1  0  0  0  0
 25 46  1  0  0  0  0
 26 71  1  0  0  0  0
 27 82  1  0  0  0  0
 28 83  1  0  0  0  0
 29 31  2  0  0  0  0
 29 82  1  0  0  0  0
 30 84  1  0  0  0  0
 31 85  1  0  0  0  0
 32 64  2  0  0  0  0
 33 65  1  0  0  0  0
 33 69  1  0  0  0  0
 34 66  1  0  0  0  0
 34 75  2  0  0  0  0
 35 36  2  0  0  0  0
 35 38  1  0  0  0  0
 36 83  1  0  0  0  0
 37 70  1  0  0  0  0
 37 76  2  0  0  0  0
 38 66  1  0  0  0  0
 38 77  2  0  0  0  0
 39 54  1  0  0  0  0
 39 72  1  0  0  0  0
 39 78  2  0  0  0  0
 40 61  1  0  0  0  0
 40 67  1  0  0  0  0
 40 79  2  0  0  0  0
 41 62  1  0  0  0  0
 41 73  1  0  0  0  0
 41 80  2  0  0  0  0
 42 68  1  0  0  0  0
 42 71  1  0  0  0  0
 42 81  2  0  0  0  0
 43 47  1  0  0  0  0
 44 54  1  0  0  0  0
 45 66  1  0  0  0  0
 46 67  1  0  0  0  0
 47 49  1  0  0  0  0
 48 50  1  0  0  0  0
 48 51  1  0  0  0  0
 49 53  1  0  0  0  0
 50 55  1  0  0  0  0
 51 68  1  0  0  0  0
 52 55  1  0  0  0  0
 52 68  1  0  0  0  0
 53 72  1  0  0  0  0
 54 67  1  0  0  0  0
 55 65  1  0  0  0  0
 56 62  1  0  0  0  0
 57 63  1  0  0  0  0
 58 63  1  0  0  0  0
 59 63  1  0  0  0  0
 60 74  1  0  0  0  0
 61 63  1  0  0  0  0
 61 73  1  0  0  0  0
 62 74  1  0  0  0  0
 64 65  1  0  0  0  0
M  CHG  1  74   1
M  ISO  4  36 101  42 100  71 100  83 101
M  END
> <Batch ID>
0113

> <Smiles>
CNC(C)C(=O)NC(C(=O)N1Cc2cc([101O:1][101CH:1]=CC(=O)N3Cc4ccc([100NH:0][100C:0](=O)N5CCCC(n6nc(-c7ccc(Oc8ccc(F)cc8F)cc7)c(C(N)=O)c6N)C5)cc4C3=O)ccc2CC1C(=O)NC1CCCc2ccccc21)C(C)(C)C

> <Shape>
0.302

> <Color>
0.094

> <Negative vol penalty>
0.000

$$$$

  -OEChem-04052301343D

 85 93  0     1  0  0  0  0  0999 V2000
  -21.7022  -12.3520   19.6222 C   0  0  0  0  0  0  0  0  0  0  0  0
  -21.6645  -13.6517   20.1169 C   0  0  0  0  0  0  0  0  0  0  0  0
  -27.5818  -25.3053   17.5523 C   0  0  0  0  0  0  0  0  0  0  0  0
  -25.3634  -24.6938   18.2885 C   0  0  0  0  0  0  0  0  0  0  0  0
  -22.8939  -11.6291   19.6553 C   0  0  0  0  0  0  0  0  0  0  0  0
  -22.8183  -14.2289   20.6459 C   0  0  0  0  0  0  0  0  0  0  0  0
  -23.5245  -18.9803   19.0424 C   0  0  0  0  0  0  0  0  0  0  0  0
  -27.4992  -24.3668   16.5237 C   0  0  0  0  0  0  0  0  0  0  0  0
  -25.2808  -23.7553   17.2598 C   0  0  0  0  0  0  0  0  0  0  0  0
  -22.7581  -19.9764   19.6458 C   0  0  0  0  0  0  0  0  0  0  0  0
  -26.0620  -24.1361   13.4718 C   0  0  0  0  0  0  0  0  0  0  0  0
  -26.4814  -24.5288   12.2008 C   0  0  0  0  0  0  0  0  0  0  0  0
  -24.6333  -20.5628   21.0455 C   0  0  0  0  0  0  0  0  0  0  0  0
  -28.1481  -22.7797   12.2104 C   0  0  0  0  0  0  0  0  0  0  0  0
  -26.5140  -25.4688   18.4347 C   0  0  0  0  0  0  0  0  0  0  0  0
  -27.5448  -26.4755   20.5398 C   0  0  0  0  0  0  0  0  0  0  0  0
  -24.0653  -12.2012   20.1762 C   0  0  0  0  0  0  0  0  0  0  0  0
  -24.8498  -18.7603   19.4443 C   0  0  0  0  0  0  0  0  0  0  0  0
  -24.0265  -13.5125   20.6873 C   0  0  0  0  0  0  0  0  0  0  0  0
  -25.4152  -19.5649   20.4438 C   0  0  0  0  0  0  0  0  0  0  0  0
  -26.3486  -23.5919   16.3774 C   0  0  0  0  0  0  0  0  0  0  0  0
  -23.3116  -20.7660   20.6495 C   0  0  0  0  0  0  0  0  0  0  0  0
  -26.6856  -23.0653   14.1122 C   0  0  0  0  0  0  0  0  0  0  0  0
  -27.5244  -23.8506   11.5700 C   0  0  0  0  0  0  0  0  0  0  0  0
  -27.7286  -22.3871   13.4815 C   0  0  0  0  0  0  0  0  0  0  0  0
  -26.5990  -26.4376   19.4978 C   0  0  0  0  0  0  0  0  0  0  0  0
  -20.5349  -27.8372   24.0813 C   0  0  0  0  0  0  0  0  0  0  0  0
  -19.8940  -27.6925   25.2939 C   0  0  0  0  0  0  0  0  0  0  0  0
  -27.1971  -27.5796   21.2791 C   0  0  0  0  0  0  0  0  0  0  0  0
  -20.2743  -25.6597   24.0586 C   0  0  0  0  0  0  0  0  0  0  0  0
  -20.9787  -29.1293   23.5287 C   0  0  0  0  0  0  0  0  0  0  0  0
  -28.6397  -25.5917   20.8149 C   0  0  0  0  0  0  0  0  0  0  0  0
  -26.4266  -16.3215   20.7365 C   0  0  0  0  0  0  0  0  0  0  0  0
  -28.9988  -18.2406   20.2648 C   0  0  0  0  0  0  0  0  0  0  0  0
  -20.8068  -23.7185   22.5447 C   0  0  0  0  0  0  0  0  0  0  0  0
  -30.2195  -21.4015   19.8579 C   0  0  0  0  0  0  0  0  0  0  0  0
  -21.9677  -30.4558   21.9307 C   0  0  0  0  0  0  0  0  0  0  0  0
  -25.3184  -11.3639   20.2341 C   0  0  0  0  0  0  0  0  0  0  0  0
  -25.6716  -17.6994   18.7649 C   0  0  0  0  0  0  0  0  0  0  0  0
  -26.8398  -19.3825   20.8973 C   0  0  0  0  0  0  0  0  0  0  0  0
  -26.5865  -12.1809   20.4682 C   0  0  0  0  0  0  0  0  0  0  0  0
  -25.1181  -31.8631   20.8819 C   0  0  0  0  0  0  0  0  0  0  0  0
  -26.3740  -13.1848   21.5969 C   0  0  0  0  0  0  0  0  0  0  0  0
  -25.9279  -30.6334   20.4714 C   0  0  0  0  0  0  0  0  0  0  0  0
  -23.6380  -31.6944   20.5524 C   0  0  0  0  0  0  0  0  0  0  0  0
  -23.8349  -29.2288   20.7284 C   0  0  0  0  0  0  0  0  0  0  0  0
  -25.2631  -14.1820   21.2464 C   0  0  1  0  0  0  0  0  0  0  0  0
  -26.8484  -17.2223   19.6104 C   0  0  1  0  0  0  0  0  0  0  0  0
  -25.3289  -29.3502   21.0743 C   0  0  1  0  0  0  0  0  0  0  0  0
  -20.3079  -30.2595   28.1477 C   0  0  0  0  0  0  0  0  0  0  0  0
  -31.9013  -23.2074   19.4020 C   0  0  0  0  0  0  0  0  0  0  0  0
  -29.6641  -17.8644   23.2188 C   0  0  0  0  0  0  0  0  0  0  0  0
  -31.1971  -19.8368   23.0531 C   0  0  0  0  0  0  0  0  0  0  0  0
  -31.6403  -17.7968   21.6876 C   0  0  0  0  0  0  0  0  0  0  0  0
  -29.7383  -21.2739   16.9405 C   0  0  0  0  0  0  0  0  0  0  0  0
  -19.5065  -28.7054   26.2966 C   0  0  0  0  0  0  0  0  0  0  0  0
  -20.6078  -22.2072   22.5598 C   0  0  0  0  0  0  0  0  0  0  0  0
  -20.7017  -29.1895   27.1417 C   0  0  0  0  0  0  0  0  0  0  0  0
  -21.1577  -21.5196   21.3193 C   0  0  0  0  0  0  0  0  0  1  0  0
  -29.7036  -19.3020   21.0746 C   0  0  1  0  0  0  0  0  0  0  0  0
  -31.1890  -21.9843   18.8456 C   0  0  2  0  0  0  0  0  0  0  0  0
  -30.5238  -18.7024   22.2515 C   0  0  0  0  0  0  0  0  0  0  0  0
  -25.7166  -27.4381   19.5657 N   0  0  0  0  0  0  0  0  0  0  0  0
  -20.7542  -26.6727   23.3718 N   0  0  0  0  0  0  0  0  0  0  0  0
  -21.5784  -29.2107   22.3863 N   0  0  0  0  0  0  0  0  0  0  0  0
  -26.1064  -28.1149   20.6593 N   0  0  0  0  0  0  0  0  0  0  0  0
  -27.6007  -18.3280   20.2070 N   0  0  0  0  0  0  0  0  0  0  0  0
  -23.1129  -30.4487   21.1132 N   0  0  0  0  0  0  0  0  0  0  0  0
  -27.7209  -28.1351   22.3925 N   0  0  0  0  0  0  0  0  0  0  0  0
  -28.4113  -24.4813   21.6389 N   0  0  0  0  0  0  0  0  0  0  0  0
  -20.2849  -24.2903   23.7019 N   0  0  0  0  0  0  0  0  0  0  0  0
  -25.7559  -15.1849   20.3267 N   0  0  0  0  0  0  0  0  0  0  0  0
  -30.4971  -20.0781   20.1277 N   0  0  0  0  0  0  0  0  0  0  0  0
  -30.4650  -22.3854   17.6063 N   0  3  0  0  0  0  0  0  0  0  0  0
  -29.7907  -25.7902   20.3572 O   0  0  0  0  0  0  0  0  0  0  0  0
  -26.6913  -16.6337   21.8916 O   0  0  0  0  0  0  0  0  0  0  0  0
  -29.6648  -17.3704   19.6984 O   0  0  0  0  0  0  0  0  0  0  0  0
  -21.3575  -24.2952   21.6127 O   0  0  0  0  0  0  0  0  0  0  0  0
  -29.3093  -22.0559   20.3618 O   0  0  0  0  0  0  0  0  0  0  0  0
  -21.3738  -31.5027   22.1993 O   0  0  0  0  0  0  0  0  0  0  0  0
  -26.2675  -22.6762   15.3737 O   0  0  0  0  0  0  0  0  0  0  0  0
  -22.5656  -21.7386   21.2406 O   0  0  0  0  0  0  0  0  0  1  0  0
  -27.9261  -24.2268   10.3488 F   0  0  0  0  0  0  0  0  0  0  0  0
  -28.3308  -21.3568   14.0912 F   0  0  0  0  0  0  0  0  0  0  0  0
  -19.5453  -26.0354   25.5661 S   0  0  0  0  0  0  0  0  0  0  0  0
  1  2  1  0  0  0  0
  1  5  2  0  0  0  0
  2  6  2  0  0  0  0
  3  8  2  0  0  0  0
  3 15  1  0  0  0  0
  4  9  1  0  0  0  0
  4 15  2  0  0  0  0
  5 17  1  0  0  0  0
  6 19  1  0  0  0  0
  7 10  2  0  0  0  0
  7 18  1  0  0  0  0
  8 21  1  0  0  0  0
  9 21  2  0  0  0  0
 10 22  1  0  0  0  0
 11 12  2  0  0  0  0
 11 23  1  0  0  0  0
 12 24  1  0  0  0  0
 13 20  1  0  0  0  0
 13 22  2  0  0  0  0
 14 24  2  0  0  0  0
 14 25  1  0  0  0  0
 15 26  1  0  0  0  0
 16 26  1  0  0  0  0
 16 29  2  0  0  0  0
 16 32  1  0  0  0  0
 17 19  2  0  0  0  0
 17 38  1  0  0  0  0
 18 20  2  0  0  0  0
 18 39  1  0  0  0  0
 19 47  1  0  0  0  0
 20 40  1  0  0  0  0
 21 81  1  0  0  0  0
 22 82  1  0  0  0  0
 23 25  2  0  0  0  0
 23 81  1  0  0  0  0
 24 83  1  0  0  0  0
 25 84  1  0  0  0  0
 26 63  2  0  0  0  0
 27 28  2  0  0  0  0
 27 31  1  0  0  0  0
 27 64  1  0  0  0  0
 28 56  1  0  0  0  0
 28 85  1  0  0  0  0
 29 66  1  0  0  0  0
 29 69  1  0  0  0  0
 30 64  2  0  0  0  0
 30 71  1  0  0  0  0
 30 85  1  0  0  0  0
 31 65  2  0  0  0  0
 32 70  1  0  0  0  0
 32 75  2  0  0  0  0
 33 48  1  0  0  0  0
 33 72  1  0  0  0  0
 33 76  2  0  0  0  0
 34 60  1  0  0  0  0
 34 67  1  0  0  0  0
 34 77  2  0  0  0  0
 35 57  1  0  0  0  0
 35 71  1  0  0  0  0
 35 78  2  0  0  0  0
 36 61  1  0  0  0  0
 36 73  1  0  0  0  0
 36 79  2  0  0  0  0
 37 65  1  0  0  0  0
 37 68  1  0  0  0  0
 37 80  2  0  0  0  0
 38 41  1  0  0  0  0
 39 48  1  0  0  0  0
 40 67  1  0  0  0  0
 41 43  1  0  0  0  0
 42 44  1  0  0  0  0
 42 45  1  0  0  0  0
 43 47  1  0  0  0  0
 44 49  1  0  0  0  0
 45 68  1  0  0  0  0
 46 49  1  0  0  0  0
 46 68  1  0  0  0  0
 47 72  1  0  0  0  0
 48 67  1  0  0  0  0
 49 66  1  0  0  0  0
 50 58  1  0  0  0  0
 51 61  1  0  0  0  0
 52 62  1  0  0  0  0
 53 62  1  0  0  0  0
 54 62  1  0  0  0  0
 55 74  1  0  0  0  0
 56 58  1  0  0  0  0
 57 59  1  0  0  0  0
 59 82  1  0  0  0  0
 60 62  1  0  0  0  0
 60 73  1  0  0  0  0
 61 74  1  0  0  0  0
 63 66  1  0  0  0  0
M  CHG  1  74   1
M  ISO  4  37 100  59 101  65 100  82 101
M  END
> <Batch ID>
0113

> <Smiles>
CC=Cc1sc(NC(=O)C[101CH2:1][101O:1]c2ccc3c(c2)CN(C(=O)C(NC(=O)C(C)NC)C(C)(C)C)C(C(=O)NC2CCCc4ccccc42)C3)nc1C[100NH:0][100C:0](=O)N1CCCC(n2nc(-c3ccc(Oc4ccc(F)cc4F)cc3)c(C(N)=O)c2N)C1

> <Shape>
0.211

> <Color>
0.086

> <Negative vol penalty>
0.000

$$$$

  -OEChem-04052301343D

 85 94  0     1  0  0  0  0  0999 V2000
  -29.4828  -37.0526   20.9138 C   0  0  0  0  0  0  0  0  0  0  0  0
  -29.7625  -35.7059   20.7051 C   0  0  0  0  0  0  0  0  0  0  0  0
  -23.6869   -9.4424   20.8347 C   0  0  0  0  0  0  0  0  0  0  0  0
  -24.4352  -10.1325   23.0257 C   0  0  0  0  0  0  0  0  0  0  0  0
  -28.4762  -37.4246   21.8039 C   0  0  0  0  0  0  0  0  0  0  0  0
  -29.0363  -34.7303   21.3873 C   0  0  0  0  0  0  0  0  0  0  0  0
  -27.4137  -29.2098   19.2904 C   0  0  0  0  0  0  0  0  0  0  0  0
  -23.1912   -8.2569   21.3773 C   0  0  0  0  0  0  0  0  0  0  0  0
  -23.9394   -8.9471   23.5684 C   0  0  0  0  0  0  0  0  0  0  0  0
  -27.9640  -27.9409   19.4658 C   0  0  0  0  0  0  0  0  0  0  0  0
  -20.4673   -7.2607   23.1153 C   0  0  0  0  0  0  0  0  0  0  0  0
  -19.1954   -6.8482   22.7183 C   0  0  0  0  0  0  0  0  0  0  0  0
  -28.5488  -20.3784   19.8973 C   0  0  0  0  0  0  0  0  0  0  0  0
  -26.4038  -27.5184   21.2565 C   0  0  0  0  0  0  0  0  0  0  0  0
  -20.1319   -4.7981   21.8481 C   0  0  0  0  0  0  0  0  0  0  0  0
  -30.8867  -19.9422   19.8752 C   0  0  0  0  0  0  0  0  0  0  0  0
  -24.3090  -10.3802   21.6589 C   0  0  0  0  0  0  0  0  0  0  0  0
  -28.3243  -19.0072   19.9502 C   0  0  0  0  0  0  0  0  0  0  0  0
  -24.1348  -12.8244   20.9494 C   0  0  0  0  0  0  0  0  0  0  0  0
  -27.7309  -36.4529   22.4901 C   0  0  0  0  0  0  0  0  0  0  0  0
  -26.3598  -29.6474   20.1053 C   0  0  0  0  0  0  0  0  0  0  0  0
  -28.0197  -35.0897   22.2884 C   0  0  0  0  0  0  0  0  0  0  0  0
  -25.8402  -28.7923   21.0877 C   0  0  0  0  0  0  0  0  0  0  0  0
  -29.8515  -20.8630   19.8589 C   0  0  0  0  0  0  0  0  0  0  0  0
  -23.3174   -8.0092   22.7442 C   0  0  0  0  0  0  0  0  0  0  0  0
  -27.4610  -27.0960   20.4509 C   0  0  0  0  0  0  0  0  0  0  0  0
  -21.5716   -6.4420   22.8787 C   0  0  0  0  0  0  0  0  0  0  0  0
  -19.0277   -5.6168   22.0848 C   0  0  0  0  0  0  0  0  0  0  0  0
  -21.4039   -5.2107   22.2451 C   0  0  0  0  0  0  0  0  0  0  0  0
  -24.8218  -11.6047   21.0988 C   0  0  0  0  0  0  0  0  0  0  0  0
  -29.4279  -18.1695   19.9623 C   0  0  0  0  0  0  0  0  0  0  0  0
  -25.0528  -13.6669   20.3715 C   0  0  0  0  0  0  0  0  0  0  0  0
  -29.8222  -24.5194   19.8929 C   0  0  0  0  0  0  0  0  0  0  0  0
  -26.0704  -18.7227   19.0260 C   0  0  0  0  0  0  0  0  0  0  0  0
  -26.9547  -18.5147   19.9907 C   0  0  0  0  0  0  0  0  0  0  0  0
  -29.3185  -25.6801   20.3257 C   0  0  0  0  0  0  0  0  0  1  0  0
  -22.7875  -13.1653   21.3017 C   0  0  0  0  0  0  0  0  0  0  0  0
  -25.9687  -32.0178   22.1866 C   0  0  0  0  0  0  0  0  0  0  0  0
  -22.9014  -30.9631   22.2186 C   0  0  0  0  0  0  0  0  0  0  0  0
  -20.7158  -28.3932   21.7032 C   0  0  0  0  0  0  0  0  0  0  0  0
  -30.1967  -15.7716   20.0339 C   0  0  0  0  0  0  0  0  0  0  0  0
  -26.6844  -36.9044   23.4779 C   0  0  0  0  0  0  0  0  0  0  0  0
  -25.7594  -31.0089   19.8857 C   0  0  0  0  0  0  0  0  0  0  0  0
  -24.6962  -29.2068   21.9753 C   0  0  0  0  0  0  0  0  0  0  0  0
  -31.2590  -24.2781   19.5537 C   0  0  0  0  0  0  0  0  0  0  0  0
  -29.0558  -23.2352   19.7883 C   0  0  0  0  0  0  0  0  0  0  0  0
  -25.7090  -35.8008   23.8789 C   0  0  0  0  0  0  0  0  0  0  0  0
  -29.5858  -12.7020   18.3363 C   0  0  0  0  0  0  0  0  0  0  0  0
  -26.4626  -34.5166   24.2101 C   0  0  0  0  0  0  0  0  0  0  0  0
  -28.2354  -12.2432   18.8914 C   0  0  0  0  0  0  0  0  0  0  0  0
  -31.4435  -22.8006   19.8884 C   0  0  0  0  0  0  0  0  0  0  0  0
  -30.4389  -13.3791   19.4076 C   0  0  0  0  0  0  0  0  0  0  0  0
  -28.4283  -14.0189   20.6794 C   0  0  0  0  0  0  0  0  0  0  0  0
  -27.2372  -34.0015   22.9910 C   0  0  1  0  0  0  0  0  0  0  0  0
  -25.0295  -31.5452   21.1133 C   0  0  1  0  0  0  0  0  0  0  0  0
  -27.5076  -13.3890   19.6215 C   0  0  2  0  0  0  0  0  0  0  0  0
  -18.2765  -27.8225   21.8492 C   0  0  0  0  0  0  0  0  0  0  0  0
  -23.1297  -30.7744   25.2554 C   0  0  0  0  0  0  0  0  0  0  0  0
  -21.0778  -29.3400   25.2509 C   0  0  0  0  0  0  0  0  0  0  0  0
  -20.9553  -31.6916   24.4278 C   0  0  0  0  0  0  0  0  0  0  0  0
  -20.5618  -27.8024   18.8073 C   0  0  0  0  0  0  0  0  0  0  0  0
  -22.1287  -29.9467   23.0241 C   0  0  1  0  0  0  0  0  0  0  0  0
  -19.3973  -28.3272   20.9538 C   0  0  2  0  0  0  0  0  0  0  0  0
  -21.8457  -30.4308   24.4743 C   0  0  0  0  0  0  0  0  0  0  0  0
  -30.7078  -18.6032   19.9261 N   0  0  0  0  0  0  0  0  0  0  0  0
  -26.0790  -11.6629   20.6517 N   0  0  0  0  0  0  0  0  0  0  0  0
  -26.1894  -12.9293   20.2156 N   0  0  0  0  0  0  0  0  0  0  0  0
  -30.1055  -22.2195   19.8069 N   0  0  3  0  0  0  0  0  0  0  0  0
  -24.1472  -30.5499   21.7259 N   0  0  0  0  0  0  0  0  0  0  0  0
  -29.6858  -14.4565   20.0532 N   0  0  0  0  0  0  0  0  0  0  0  0
  -24.9905  -14.9593   19.9865 N   0  0  0  0  0  0  0  0  0  0  0  0
  -21.9802  -12.1802   21.8868 N   0  0  0  0  0  0  0  0  0  0  0  0
  -29.2219  -16.7686   20.0143 N   0  0  0  0  0  0  0  0  0  0  0  0
  -26.3416  -33.3428   22.0645 N   0  0  0  0  0  0  0  0  0  0  0  0
  -20.9295  -29.6400   22.2519 N   0  0  0  0  0  0  0  0  0  0  0  0
  -19.5120  -27.4119   19.7833 N   0  3  0  0  0  0  0  0  0  0  0  0
  -22.3083  -14.3047   21.0884 O   0  0  0  0  0  0  0  0  0  0  0  0
  -26.3274  -31.2386   23.0617 O   0  0  0  0  0  0  0  0  0  0  0  0
  -22.4142  -32.0801   22.0275 O   0  0  0  0  0  0  0  0  0  0  0  0
  -21.4780  -27.4336   21.7960 O   0  0  0  0  0  0  0  0  0  0  0  0
  -31.4094  -15.9963   20.0073 O   0  0  0  0  0  0  0  0  0  0  0  0
  -22.8336   -6.8527   23.2741 O   0  0  0  0  0  0  0  0  0  0  0  0
  -27.9968  -25.8572   20.6246 O   0  0  0  0  0  0  0  0  0  1  0  0
  -17.8060   -5.2201   21.7050 F   0  0  0  0  0  0  0  0  0  0  0  0
  -22.4608   -4.4193   22.0161 F   0  0  0  0  0  0  0  0  0  0  0  0
  1  2  1  0  0  0  0
  1  5  2  0  0  0  0
  2  6  2  0  0  0  0
  3  8  2  0  0  0  0
  3 17  1  0  0  0  0
  4  9  1  0  0  0  0
  4 17  2  0  0  0  0
  5 20  1  0  0  0  0
  6 22  1  0  0  0  0
  7 10  2  0  0  0  0
  7 21  1  0  0  0  0
  8 25  1  0  0  0  0
  9 25  2  0  0  0  0
 10 26  1  0  0  0  0
 11 12  2  0  0  0  0
 11 27  1  0  0  0  0
 12 28  1  0  0  0  0
 13 18  1  0  0  0  0
 13 24  2  0  0  0  0
 14 23  1  0  0  0  0
 14 26  2  0  0  0  0
 15 28  2  0  0  0  0
 15 29  1  0  0  0  0
 16 24  1  0  0  0  0
 16 65  2  0  0  0  0
 17 30  1  0  0  0  0
 18 31  2  0  0  0  0
 18 35  1  0  0  0  0
 19 30  1  0  0  0  0
 19 32  2  0  0  0  0
 19 37  1  0  0  0  0
 20 22  2  0  0  0  0
 20 42  1  0  0  0  0
 21 23  2  0  0  0  0
 21 43  1  0  0  0  0
 22 54  1  0  0  0  0
 23 44  1  0  0  0  0
 24 68  1  0  0  0  0
 25 82  1  0  0  0  0
 26 83  1  0  0  0  0
 27 29  2  0  0  0  0
 27 82  1  0  0  0  0
 28 84  1  0  0  0  0
 29 85  1  0  0  0  0
 30 66  2  0  0  0  0
 31 65  1  0  0  0  0
 31 73  1  0  0  0  0
 32 67  1  0  0  0  0
 32 71  1  0  0  0  0
 33 36  2  0  0  0  0
 33 45  1  0  0  0  0
 33 46  1  0  0  0  0
 34 35  2  0  0  0  0
 36 83  1  0  0  0  0
 37 72  1  0  0  0  0
 37 77  2  0  0  0  0
 38 55  1  0  0  0  0
 38 74  1  0  0  0  0
 38 78  2  0  0  0  0
 39 62  1  0  0  0  0
 39 69  1  0  0  0  0
 39 79  2  0  0  0  0
 40 63  1  0  0  0  0
 40 75  1  0  0  0  0
 40 80  2  0  0  0  0
 41 70  1  0  0  0  0
 41 73  1  0  0  0  0
 41 81  2  0  0  0  0
 42 47  1  0  0  0  0
 43 55  1  0  0  0  0
 44 69  1  0  0  0  0
 45 51  1  0  0  0  0
 46 68  1  0  0  0  0
 47 49  1  0  0  0  0
 48 50  1  0  0  0  0
 48 52  1  0  0  0  0
 49 54  1  0  0  0  0
 50 56  1  0  0  0  0
 51 68  1  0  0  0  0
 52 70  1  0  0  0  0
 53 56  1  0  0  0  0
 53 70  1  0  0  0  0
 54 74  1  0  0  0  0
 55 69  1  0  0  0  0
 56 67  1  0  0  0  0
 57 63  1  0  0  0  0
 58 64  1  0  0  0  0
 59 64  1  0  0  0  0
 60 64  1  0  0  0  0
 61 76  1  0  0  0  0
 62 64  1  0  0  0  0
 62 75  1  0  0  0  0
 63 76  1  0  0  0  0
 66 67  1  0  0  0  0
M  CHG  1  76   1
M  ISO  4  36 101  41 100  73 100  83 101
M  END
> <Batch ID>
0113

> <Smiles>
C=Cc1cc(N2CCC(=[101CH:1][101O:1]c3ccc4c(c3)CN(C(=O)C(NC(=O)C(C)NC)C(C)(C)C)C(C(=O)NC3CCCc5ccccc53)C4)C2)cnc1[100NH:0][100C:0](=O)N1CCCC(n2nc(-c3ccc(Oc4ccc(F)cc4F)cc3)c(C(N)=O)c2N)C1

> <Shape>
0.378

> <Color>
0.174

> <Negative vol penalty>
0.000

$$$$

  -OEChem-04052301343D

 87 95  0     1  0  0  0  0  0999 V2000
  -26.0878  -31.4916   20.7534 C   0  0  0  0  0  0  0  0  0  0  0  0
  -25.9915  -30.1247   20.5129 C   0  0  0  0  0  0  0  0  0  0  0  0
  -23.1774   -9.7858   19.9559 C   0  0  0  0  0  0  0  0  0  0  0  0
  -23.9492   -9.8452   22.2445 C   0  0  0  0  0  0  0  0  0  0  0  0
  -25.1928  -32.1094   21.6258 C   0  0  0  0  0  0  0  0  0  0  0  0
  -25.0008  -29.3746   21.1456 C   0  0  0  0  0  0  0  0  0  0  0  0
  -22.6698  -26.1766   17.9858 C   0  0  0  0  0  0  0  0  0  0  0  0
  -22.4812   -8.6067   20.2212 C   0  0  0  0  0  0  0  0  0  0  0  0
  -23.2530   -8.6660   22.5099 C   0  0  0  0  0  0  0  0  0  0  0  0
  -23.3427  -24.9998   17.6601 C   0  0  0  0  0  0  0  0  0  0  0  0
  -21.3855   -5.8656   23.8842 C   0  0  0  0  0  0  0  0  0  0  0  0
  -20.6381   -5.8035   25.0602 C   0  0  0  0  0  0  0  0  0  0  0  0
  -22.0080  -23.7980   19.2706 C   0  0  0  0  0  0  0  0  0  0  0  0
  -27.4677  -18.5147   21.3561 C   0  0  0  0  0  0  0  0  0  0  0  0
  -19.3137   -7.6829   24.3177 C   0  0  0  0  0  0  0  0  0  0  0  0
  -23.9115  -10.4051   20.9675 C   0  0  0  0  0  0  0  0  0  0  0  0
  -24.1524  -12.9405   20.8215 C   0  0  0  0  0  0  0  0  0  0  0  0
  -24.1845  -31.3682   22.2621 C   0  0  0  0  0  0  0  0  0  0  0  0
  -21.6668  -26.1751   18.9658 C   0  0  0  0  0  0  0  0  0  0  0  0
  -24.0923  -29.9829   22.0284 C   0  0  0  0  0  0  0  0  0  0  0  0
  -21.3221  -24.9757   19.6051 C   0  0  0  0  0  0  0  0  0  0  0  0
  -28.1678  -17.4382   21.8892 C   0  0  0  0  0  0  0  0  0  0  0  0
  -22.5190   -8.0467   21.4982 C   0  0  0  0  0  0  0  0  0  0  0  0
  -23.0138  -23.8108   18.3045 C   0  0  0  0  0  0  0  0  0  0  0  0
  -21.0971   -6.8364   22.9249 C   0  0  0  0  0  0  0  0  0  0  0  0
  -27.8538  -19.0507   20.1325 C   0  0  0  0  0  0  0  0  0  0  0  0
  -19.6022   -6.7121   25.2770 C   0  0  0  0  0  0  0  0  0  0  0  0
  -20.0612   -7.7450   23.1417 C   0  0  0  0  0  0  0  0  0  0  0  0
  -24.6314  -11.6229   20.6939 C   0  0  0  0  0  0  0  0  0  0  0  0
  -29.2381  -16.9381   21.1652 C   0  0  0  0  0  0  0  0  0  0  0  0
  -28.9382  -18.4785   19.4873 C   0  0  0  0  0  0  0  0  0  0  0  0
  -25.2120  -13.7290   20.4446 C   0  0  0  0  0  0  0  0  0  0  0  0
  -30.5112  -18.8046   15.0082 C   0  0  0  0  0  0  0  0  0  0  0  0
  -30.5777  -19.3204   16.2408 C   0  0  0  0  0  0  0  0  0  0  0  0
  -25.0474  -20.8843   18.8215 C   0  0  0  0  0  0  0  0  0  0  0  0
  -24.3578  -22.0198   18.9804 C   0  0  0  0  0  0  0  0  0  1  0  0
  -22.8648  -13.4097   21.2431 C   0  0  0  0  0  0  0  0  0  0  0  0
  -30.0238  -15.8130   21.6524 C   0  0  0  0  0  0  0  0  0  0  0  0
  -30.6812  -14.8710   20.7176 C   0  0  0  0  0  0  0  0  0  0  0  0
  -21.2774  -27.6023   21.7792 C   0  0  0  0  0  0  0  0  0  0  0  0
  -18.3310  -26.2553   21.6161 C   0  0  0  0  0  0  0  0  0  0  0  0
  -16.3367  -23.7946   20.3455 C   0  0  0  0  0  0  0  0  0  0  0  0
  -23.2698  -32.0715   23.2334 C   0  0  0  0  0  0  0  0  0  0  0  0
  -20.9320  -27.4477   19.2867 C   0  0  0  0  0  0  0  0  0  0  0  0
  -20.2389  -24.9167   20.6499 C   0  0  0  0  0  0  0  0  0  0  0  0
  -22.0141  -31.2733   23.5745 C   0  0  0  0  0  0  0  0  0  0  0  0
  -29.5876  -12.5413   18.2210 C   0  0  0  0  0  0  0  0  0  0  0  0
  -22.3717  -29.8240   23.8884 C   0  0  0  0  0  0  0  0  0  0  0  0
  -28.1753  -12.1740   18.6753 C   0  0  0  0  0  0  0  0  0  0  0  0
  -30.5096  -12.7902   19.4102 C   0  0  0  0  0  0  0  0  0  0  0  0
  -28.5837  -13.4599   20.8213 C   0  0  0  0  0  0  0  0  0  0  0  0
  -23.0157  -29.1398   22.6766 C   0  0  1  0  0  0  0  0  0  0  0  0
  -20.2821  -27.4307   20.6668 C   0  0  1  0  0  0  0  0  0  0  0  0
  -27.6163  -13.2281   19.6474 C   0  0  2  0  0  0  0  0  0  0  0  0
  -13.9821  -22.9302   20.4243 C   0  0  0  0  0  0  0  0  0  0  0  0
  -18.8713  -25.0411   24.3627 C   0  0  0  0  0  0  0  0  0  0  0  0
  -16.9610  -23.4718   23.9676 C   0  0  0  0  0  0  0  0  0  0  0  0
  -16.5549  -25.9316   24.0531 C   0  0  0  0  0  0  0  0  0  0  0  0
  -15.9515  -24.2436   17.4457 C   0  0  0  0  0  0  0  0  0  0  0  0
  -30.4332  -18.5144   17.4899 C   0  0  0  0  0  0  0  0  0  0  0  0
  -25.7850  -20.2062   19.9305 C   0  0  0  0  0  0  0  0  0  0  0  0
  -17.7321  -24.9386   22.0480 C   0  0  1  0  0  0  0  0  0  0  0  0
  -14.9618  -23.8433   19.7038 C   0  0  2  0  0  0  0  0  0  0  0  0
  -17.5516  -24.8469   23.5896 C   0  0  0  0  0  0  0  0  0  0  0  0
  -25.8967  -11.5731   20.2690 N   0  0  0  0  0  0  0  0  0  0  0  0
  -29.6428  -17.4322   19.9737 N   0  0  0  0  0  0  0  0  0  0  0  0
  -30.2023  -15.5615   22.9201 N   0  0  0  0  0  0  0  0  0  0  0  0
  -26.2217  -12.8693   20.1263 N   0  0  0  0  0  0  0  0  0  0  0  0
  -29.9329  -13.7681   20.3307 N   0  0  0  0  0  0  0  0  0  0  0  0
  -19.5538  -26.1886   20.9333 N   0  0  0  0  0  0  0  0  0  0  0  0
  -27.7842  -16.8895   23.1262 N   0  0  0  0  0  0  0  0  0  0  0  0
  -25.3690  -15.0670   20.3577 N   0  0  0  0  0  0  0  0  0  0  0  0
  -21.8916  -12.4645   21.5950 N   0  0  0  0  0  0  0  0  0  0  0  0
  -29.3324  -19.0244   18.2400 N   0  0  0  0  0  0  0  0  0  0  0  0
  -22.0058  -28.7744   21.7066 N   0  0  0  0  0  0  0  0  0  0  0  0
  -16.4942  -24.7855   21.2913 N   0  0  0  0  0  0  0  0  0  0  0  0
  -15.0403  -23.4167   18.2780 N   0  3  0  0  0  0  0  0  0  0  0  0
  -22.5803  -14.6305   21.2901 O   0  0  0  0  0  0  0  0  0  0  0  0
  -31.8211  -15.1678   20.3848 O   0  0  0  0  0  0  0  0  0  0  0  0
  -21.3762  -26.7363   22.6405 O   0  0  0  0  0  0  0  0  0  0  0  0
  -17.7324  -27.3038   21.8688 O   0  0  0  0  0  0  0  0  0  0  0  0
  -17.1847  -22.9587   20.0410 O   0  0  0  0  0  0  0  0  0  0  0  0
  -21.8395   -6.8962   21.7575 O   0  0  0  0  0  0  0  0  0  0  0  0
  -23.6694  -22.6608   17.9890 O   0  0  0  0  0  0  0  0  0  1  0  0
  -27.1655  -20.1116   19.6044 O   0  0  0  0  0  0  0  0  0  0  0  0
  -18.8836   -6.6514   26.4057 F   0  0  0  0  0  0  0  0  0  0  0  0
  -19.7786   -8.6790   22.2233 F   0  0  0  0  0  0  0  0  0  0  0  0
  1  2  1  0  0  0  0
  1  5  2  0  0  0  0
  2  6  2  0  0  0  0
  3  8  2  0  0  0  0
  3 16  1  0  0  0  0
  4  9  1  0  0  0  0
  4 16  2  0  0  0  0
  5 18  1  0  0  0  0
  6 20  1  0  0  0  0
  7 10  2  0  0  0  0
  7 19  1  0  0  0  0
  8 23  1  0  0  0  0
  9 23  2  0  0  0  0
 10 24  1  0  0  0  0
 11 12  2  0  0  0  0
 11 25  1  0  0  0  0
 12 27  1  0  0  0  0
 13 21  1  0  0  0  0
 13 24  2  0  0  0  0
 14 22  2  0  0  0  0
 14 26  1  0  0  0  0
 15 27  2  0  0  0  0
 15 28  1  0  0  0  0
 16 29  1  0  0  0  0
 17 29  1  0  0  0  0
 17 32  2  0  0  0  0
 17 37  1  0  0  0  0
 18 20  2  0  0  0  0
 18 43  1  0  0  0  0
 19 21  2  0  0  0  0
 19 44  1  0  0  0  0
 20 52  1  0  0  0  0
 21 45  1  0  0  0  0
 22 30  1  0  0  0  0
 22 71  1  0  0  0  0
 23 83  1  0  0  0  0
 24 84  1  0  0  0  0
 25 28  2  0  0  0  0
 25 83  1  0  0  0  0
 26 31  2  0  0  0  0
 26 85  1  0  0  0  0
 27 86  1  0  0  0  0
 28 87  1  0  0  0  0
 29 65  2  0  0  0  0
 30 38  1  0  0  0  0
 30 66  2  0  0  0  0
 31 66  1  0  0  0  0
 31 74  1  0  0  0  0
 32 68  1  0  0  0  0
 32 72  1  0  0  0  0
 33 34  2  0  0  0  0
 34 60  1  0  0  0  0
 35 36  2  0  0  0  0
 35 61  1  0  0  0  0
 36 84  1  0  0  0  0
 37 73  1  0  0  0  0
 37 78  2  0  0  0  0
 38 39  1  0  0  0  0
 38 67  2  0  0  0  0
 39 69  1  0  0  0  0
 39 79  2  0  0  0  0
 40 53  1  0  0  0  0
 40 75  1  0  0  0  0
 40 80  2  0  0  0  0
 41 62  1  0  0  0  0
 41 70  1  0  0  0  0
 41 81  2  0  0  0  0
 42 63  1  0  0  0  0
 42 76  1  0  0  0  0
 42 82  2  0  0  0  0
 43 46  1  0  0  0  0
 44 53  1  0  0  0  0
 45 70  1  0  0  0  0
 46 48  1  0  0  0  0
 47 49  1  0  0  0  0
 47 50  1  0  0  0  0
 48 52  1  0  0  0  0
 49 54  1  0  0  0  0
 50 69  1  0  0  0  0
 51 54  1  0  0  0  0
 51 69  1  0  0  0  0
 52 75  1  0  0  0  0
 53 70  1  0  0  0  0
 54 68  1  0  0  0  0
 55 63  1  0  0  0  0
 56 64  1  0  0  0  0
 57 64  1  0  0  0  0
 58 64  1  0  0  0  0
 59 77  1  0  0  0  0
 60 74  1  0  0  0  0
 61 85  1  0  0  0  0
 62 64  1  0  0  0  0
 62 76  1  0  0  0  0
 63 77  1  0  0  0  0
 65 68  1  0  0  0  0
M  CHG  1  77   1
M  ISO  4  36 101  38 100  39 100  84 101
M  END
> <Batch ID>
0113

> <Smiles>
C=CCNc1nc([100C:0](=N)[100C:0](=O)N2CCCC(n3nc(-c4ccc(Oc5ccc(F)cc5F)cc4)c(C(N)=O)c3N)C2)c(N)cc1OCC=[101CH:1][101O:1]c1ccc2c(c1)CN(C(=O)C(NC(=O)C(C)NC)C(C)(C)C)C(C(=O)NC1CCCc3ccccc31)C2

> <Shape>
0.314

> <Color>
0.199

> <Negative vol penalty>
0.000

$$$$

  -OEChem-04052301343D

 87 95  0     1  0  0  0  0  0999 V2000
  -34.6488  -33.3700   18.3558 C   0  0  0  0  0  0  0  0  0  0  0  0
  -34.0782  -32.1132   18.1823 C   0  0  0  0  0  0  0  0  0  0  0  0
  -23.2484   -9.6912   19.8902 C   0  0  0  0  0  0  0  0  0  0  0  0
  -24.3918   -9.2817   21.9787 C   0  0  0  0  0  0  0  0  0  0  0  0
  -34.3935  -34.0958   19.5185 C   0  0  0  0  0  0  0  0  0  0  0  0
  -33.2526  -31.5809   19.1721 C   0  0  0  0  0  0  0  0  0  0  0  0
  -28.3355  -28.0251   18.3452 C   0  0  0  0  0  0  0  0  0  0  0  0
  -22.6620   -8.4277   19.9634 C   0  0  0  0  0  0  0  0  0  0  0  0
  -23.8055   -8.0182   22.0520 C   0  0  0  0  0  0  0  0  0  0  0  0
  -28.1530  -26.6449   18.4186 C   0  0  0  0  0  0  0  0  0  0  0  0
  -22.3278   -4.8261   22.9714 C   0  0  0  0  0  0  0  0  0  0  0  0
  -21.7933   -4.4285   24.1969 C   0  0  0  0  0  0  0  0  0  0  0  0
  -27.2712  -18.1878   22.7356 C   0  0  0  0  0  0  0  0  0  0  0  0
  -29.2013  -17.7235   20.7756 C   0  0  0  0  0  0  0  0  0  0  0  0
  -27.3793  -26.8741   20.6920 C   0  0  0  0  0  0  0  0  0  0  0  0
  -20.2774   -6.3091   24.1459 C   0  0  0  0  0  0  0  0  0  0  0  0
  -24.1134  -10.1182   20.8978 C   0  0  0  0  0  0  0  0  0  0  0  0
  -28.1237  -17.0890   22.8428 C   0  0  0  0  0  0  0  0  0  0  0  0
  -29.0888  -16.8569   21.8628 C   0  0  0  0  0  0  0  0  0  0  0  0
  -24.2091  -12.6290   21.3388 C   0  0  0  0  0  0  0  0  0  0  0  0
  -33.5567  -33.5763   20.5187 C   0  0  0  0  0  0  0  0  0  0  0  0
  -28.0511  -28.8404   19.4501 C   0  0  0  0  0  0  0  0  0  0  0  0
  -32.9869  -32.2999   20.3499 C   0  0  0  0  0  0  0  0  0  0  0  0
  -27.5566  -28.2647   20.6292 C   0  0  0  0  0  0  0  0  0  0  0  0
  -22.9405   -7.5912   21.0443 C   0  0  0  0  0  0  0  0  0  0  0  0
  -27.6776  -26.0689   19.5931 C   0  0  0  0  0  0  0  0  0  0  0  0
  -21.8372   -5.9653   22.3332 C   0  0  0  0  0  0  0  0  0  0  0  0
  -27.3836  -19.0544   21.6483 C   0  0  0  0  0  0  0  0  0  0  0  0
  -28.3487  -18.8223   20.6684 C   0  0  0  0  0  0  0  0  0  0  0  0
  -20.7681   -5.1699   24.7841 C   0  0  0  0  0  0  0  0  0  0  0  0
  -20.8120   -6.7068   22.9205 C   0  0  0  0  0  0  0  0  0  0  0  0
  -24.7198  -11.4230   20.8224 C   0  0  0  0  0  0  0  0  0  0  0  0
  -25.1523  -13.5709   21.0080 C   0  0  0  0  0  0  0  0  0  0  0  0
  -28.0834  -16.6119   25.2482 C   0  0  0  0  0  0  0  0  0  0  0  0
  -27.9780  -16.2050   23.9923 C   0  0  0  0  0  0  0  0  0  0  0  0
  -29.9978  -15.7188   21.9373 C   0  0  0  0  0  0  0  0  0  0  0  0
  -22.9909  -12.8756   22.0536 C   0  0  0  0  0  0  0  0  0  0  0  0
  -30.5307  -15.0800   20.7121 C   0  0  0  0  0  0  0  0  0  0  0  0
  -29.7540  -30.7844   21.3008 C   0  0  0  0  0  0  0  0  0  0  0  0
  -26.8516  -31.4849   22.5688 C   0  0  0  0  0  0  0  0  0  0  0  0
  -23.6299  -30.5155   23.1417 C   0  0  0  0  0  0  0  0  0  0  0  0
  -33.3480  -34.3777   21.7792 C   0  0  0  0  0  0  0  0  0  0  0  0
  -28.2279  -30.3305   19.3460 C   0  0  0  0  0  0  0  0  0  0  0  0
  -27.2171  -29.0982   21.8369 C   0  0  0  0  0  0  0  0  0  0  0  0
  -32.1615  -33.9023   22.6139 C   0  0  0  0  0  0  0  0  0  0  0  0
  -29.1399  -13.3110   17.9205 C   0  0  0  0  0  0  0  0  0  0  0  0
  -32.1838  -32.3838   22.7569 C   0  0  0  0  0  0  0  0  0  0  0  0
  -27.8431  -12.7289   18.4819 C   0  0  0  0  0  0  0  0  0  0  0  0
  -30.2370  -13.3538   18.9792 C   0  0  0  0  0  0  0  0  0  0  0  0
  -28.5481  -13.5099   20.7880 C   0  0  0  0  0  0  0  0  0  0  0  0
  -32.0661  -31.6992   21.3898 C   0  0  1  0  0  0  0  0  0  0  0  0
  -28.3941  -31.0087   20.7024 C   0  0  1  0  0  0  0  0  0  0  0  0
  -27.4082  -13.4762   19.7551 C   0  0  2  0  0  0  0  0  0  0  0  0
  -21.5068  -31.2838   24.2369 C   0  0  0  0  0  0  0  0  0  0  0  0
  -28.0273  -30.8245   25.3058 C   0  0  0  0  0  0  0  0  0  0  0  0
  -25.6920  -30.6807   26.1969 C   0  0  0  0  0  0  0  0  0  0  0  0
  -26.5397  -32.8345   25.2668 C   0  0  0  0  0  0  0  0  0  0  0  0
  -22.1514  -30.4609   20.5785 C   0  0  0  0  0  0  0  0  0  0  0  0
  -25.3156  -19.9240   20.8592 C   0  0  0  0  0  0  0  0  0  0  0  0
  -28.5568  -22.5546   19.5449 C   0  0  0  0  0  0  0  0  0  0  0  0
  -29.4897  -21.6569   18.7395 C   0  0  0  0  0  0  0  0  0  0  0  0
  -28.3612  -23.9076   18.8737 C   0  0  0  0  0  0  0  0  0  1  0  0
  -29.7198  -20.3206   19.4311 C   0  0  0  0  0  0  0  0  0  0  0  0
  -26.0134  -30.9267   23.6935 C   0  0  1  0  0  0  0  0  0  0  0  0
  -22.3102  -31.2398   22.9464 C   0  0  2  0  0  0  0  0  0  0  0  0
  -26.5763  -31.3004   25.0938 C   0  0  0  0  0  0  0  0  0  0  0  0
  -25.8962  -11.5816   20.2100 N   0  0  0  0  0  0  0  0  0  0  0  0
  -30.3968  -15.1981   23.0636 N   0  0  0  0  0  0  0  0  0  0  0  0
  -26.1324  -12.8982   20.3394 N   0  0  0  0  0  0  0  0  0  0  0  0
  -29.7794  -14.0378   20.1871 N   0  0  0  0  0  0  0  0  0  0  0  0
  -27.4130  -30.5497   21.6878 N   0  0  0  0  0  0  0  0  0  0  0  0
  -25.2307  -14.9008   21.2267 N   0  0  0  0  0  0  0  0  0  0  0  0
  -22.1356  -11.7951   22.3091 N   0  0  0  0  0  0  0  0  0  0  0  0
  -30.6949  -31.7252   20.9278 N   0  0  0  0  0  0  0  0  0  0  0  0
  -24.6503  -31.3886   23.4547 N   0  0  0  0  0  0  0  0  0  0  0  0
  -21.4920  -30.5542   21.9065 N   0  3  0  0  0  0  0  0  0  0  0  0
  -22.6625  -14.0231   22.4395 O   0  0  0  0  0  0  0  0  0  0  0  0
  -31.5832  -15.5421   20.2914 O   0  0  0  0  0  0  0  0  0  0  0  0
  -29.9357  -29.8294   22.0469 O   0  0  0  0  0  0  0  0  0  0  0  0
  -26.9968  -32.7059   22.4712 O   0  0  0  0  0  0  0  0  0  0  0  0
  -23.7435  -29.2967   23.0316 O   0  0  0  0  0  0  0  0  0  0  0  0
  -22.3684   -6.3583   21.1162 O   0  0  0  0  0  0  0  0  0  0  0  0
  -26.5448  -20.1239   21.5541 O   0  0  0  0  0  0  0  0  0  0  0  0
  -27.4992  -24.7218   19.6676 O   0  0  0  0  0  0  0  0  0  1  0  0
  -28.4690  -19.6666   19.5953 O   0  0  0  0  0  0  0  0  0  0  0  0
  -20.2538   -4.7871   25.9602 F   0  0  0  0  0  0  0  0  0  0  0  0
  -20.3357   -7.8014   22.3115 F   0  0  0  0  0  0  0  0  0  0  0  0
  1  2  1  0  0  0  0
  1  5  2  0  0  0  0
  2  6  2  0  0  0  0
  3  8  2  0  0  0  0
  3 17  1  0  0  0  0
  4  9  1  0  0  0  0
  4 17  2  0  0  0  0
  5 21  1  0  0  0  0
  6 23  1  0  0  0  0
  7 10  2  0  0  0  0
  7 22  1  0  0  0  0
  8 25  1  0  0  0  0
  9 25  2  0  0  0  0
 10 26  1  0  0  0  0
 11 12  2  0  0  0  0
 11 27  1  0  0  0  0
 12 30  1  0  0  0  0
 13 18  1  0  0  0  0
 13 28  2  0  0  0  0
 14 19  1  0  0  0  0
 14 29  2  0  0  0  0
 15 24  1  0  0  0  0
 15 26  2  0  0  0  0
 16 30  2  0  0  0  0
 16 31  1  0  0  0  0
 17 32  1  0  0  0  0
 18 19  2  0  0  0  0
 18 35  1  0  0  0  0
 19 36  1  0  0  0  0
 20 32  1  0  0  0  0
 20 33  2  0  0  0  0
 20 37  1  0  0  0  0
 21 23  2  0  0  0  0
 21 42  1  0  0  0  0
 22 24  2  0  0  0  0
 22 43  1  0  0  0  0
 23 51  1  0  0  0  0
 24 44  1  0  0  0  0
 25 82  1  0  0  0  0
 26 84  1  0  0  0  0
 27 31  2  0  0  0  0
 27 82  1  0  0  0  0
 28 29  1  0  0  0  0
 28 83  1  0  0  0  0
 29 85  1  0  0  0  0
 30 86  1  0  0  0  0
 31 87  1  0  0  0  0
 32 67  2  0  0  0  0
 33 69  1  0  0  0  0
 33 72  1  0  0  0  0
 34 35  2  0  0  0  0
 36 38  1  0  0  0  0
 36 68  2  0  0  0  0
 37 73  1  0  0  0  0
 37 77  2  0  0  0  0
 38 70  1  0  0  0  0
 38 78  2  0  0  0  0
 39 52  1  0  0  0  0
 39 74  1  0  0  0  0
 39 79  2  0  0  0  0
 40 64  1  0  0  0  0
 40 71  1  0  0  0  0
 40 80  2  0  0  0  0
 41 65  1  0  0  0  0
 41 75  1  0  0  0  0
 41 81  2  0  0  0  0
 42 45  1  0  0  0  0
 43 52  1  0  0  0  0
 44 71  1  0  0  0  0
 45 47  1  0  0  0  0
 46 48  1  0  0  0  0
 46 49  1  0  0  0  0
 47 51  1  0  0  0  0
 48 53  1  0  0  0  0
 49 70  1  0  0  0  0
 50 53  1  0  0  0  0
 50 70  1  0  0  0  0
 51 74  1  0  0  0  0
 52 71  1  0  0  0  0
 53 69  1  0  0  0  0
 54 65  1  0  0  0  0
 55 66  1  0  0  0  0
 56 66  1  0  0  0  0
 57 66  1  0  0  0  0
 58 76  1  0  0  0  0
 59 83  1  0  0  0  0
 60 61  1  0  0  0  0
 60 62  1  0  0  0  0
 61 63  1  0  0  0  0
 62 84  1  0  0  0  0
 63 85  1  0  0  0  0
 64 66  1  0  0  0  0
 64 75  1  0  0  0  0
 65 76  1  0  0  0  0
 67 69  1  0  0  0  0
M  CHG  1  76   1
M  ISO  4  36 100  38 100  62 101  84 101
M  END
> <Batch ID>
0113

> <Smiles>
C=Cc1cc(OC)c(OCCC[101CH2:1][101O:1]c2ccc3c(c2)CN(C(=O)C(NC(=O)C(C)NC)C(C)(C)C)C(C(=O)NC2CCCc4ccccc42)C3)cc1[100C:0](=N)[100C:0](=O)N1CCCC(n2nc(-c3ccc(Oc4ccc(F)cc4F)cc3)c(C(N)=O)c2N)C1

> <Shape>
0.334

> <Color>
0.163

> <Negative vol penalty>
0.000

$$$$

  -OEChem-04052301343D

 84 92  0     1  0  0  0  0  0999 V2000
  -28.1487  -26.0023   27.4655 C   0  0  0  0  0  0  0  0  0  0  0  0
  -29.2439  -25.2068   27.1443 C   0  0  0  0  0  0  0  0  0  0  0  0
  -23.0649   -9.8693   19.9440 C   0  0  0  0  0  0  0  0  0  0  0  0
  -23.8220   -9.8764   22.2383 C   0  0  0  0  0  0  0  0  0  0  0  0
  -27.0092  -25.9748   26.6626 C   0  0  0  0  0  0  0  0  0  0  0  0
  -29.1998  -24.3824   26.0205 C   0  0  0  0  0  0  0  0  0  0  0  0
  -33.8587  -22.9713   22.3045 C   0  0  0  0  0  0  0  0  0  0  0  0
  -22.3145   -8.7206   20.1951 C   0  0  0  0  0  0  0  0  0  0  0  0
  -23.0716   -8.7278   22.4894 C   0  0  0  0  0  0  0  0  0  0  0  0
  -34.6988  -21.8609   22.2336 C   0  0  0  0  0  0  0  0  0  0  0  0
  -19.3603   -7.9426   21.6442 C   0  0  0  0  0  0  0  0  0  0  0  0
  -18.0537   -7.9025   21.1574 C   0  0  0  0  0  0  0  0  0  0  0  0
  -29.9045  -17.4283   23.1359 C   0  0  0  0  0  0  0  0  0  0  0  0
  -31.8812  -18.3229   24.1987 C   0  0  0  0  0  0  0  0  0  0  0  0
  -33.2863  -20.9089   20.5256 C   0  0  0  0  0  0  0  0  0  0  0  0
  -32.0850  -16.5679   22.5509 C   0  0  0  0  0  0  0  0  0  0  0  0
  -18.6046   -5.9540   19.8394 C   0  0  0  0  0  0  0  0  0  0  0  0
  -23.8187  -10.4472   20.9655 C   0  0  0  0  0  0  0  0  0  0  0  0
  -30.4955  -18.3115   24.0394 C   0  0  0  0  0  0  0  0  0  0  0  0
  -24.1743  -12.9702   20.8413 C   0  0  0  0  0  0  0  0  0  0  0  0
  -26.9547  -25.1569   25.5230 C   0  0  0  0  0  0  0  0  0  0  0  0
  -32.7182  -23.0539   21.4929 C   0  0  0  0  0  0  0  0  0  0  0  0
  -28.0579  -24.3429   25.2024 C   0  0  0  0  0  0  0  0  0  0  0  0
  -32.4347  -22.0225   20.5863 C   0  0  0  0  0  0  0  0  0  0  0  0
  -30.6993  -16.5564   22.3917 C   0  0  0  0  0  0  0  0  0  0  0  0
  -22.3178   -8.1499   21.4678 C   0  0  0  0  0  0  0  0  0  0  0  0
  -34.4111  -20.8282   21.3461 C   0  0  0  0  0  0  0  0  0  0  0  0
  -20.2890   -6.9885   21.2286 C   0  0  0  0  0  0  0  0  0  0  0  0
  -32.6760  -17.4511   23.4544 C   0  0  0  0  0  0  0  0  0  0  0  0
  -17.6759   -6.9082   20.2551 C   0  0  0  0  0  0  0  0  0  0  0  0
  -19.9112   -5.9942   20.3262 C   0  0  0  0  0  0  0  0  0  0  0  0
  -24.5945  -11.6334   20.7065 C   0  0  0  0  0  0  0  0  0  0  0  0
  -25.2709  -13.7132   20.4780 C   0  0  0  0  0  0  0  0  0  0  0  0
  -29.6674  -19.2216   24.8150 C   0  0  0  0  0  0  0  0  0  0  0  0
  -22.9061  -13.4937   21.2577 C   0  0  0  0  0  0  0  0  0  0  0  0
  -29.5901  -23.2269   22.0307 C   0  0  0  0  0  0  0  0  0  0  0  0
  -29.4549  -23.6397   18.8161 C   0  0  0  0  0  0  0  0  0  0  0  0
  -30.9227  -23.1726   15.7708 C   0  0  0  0  0  0  0  0  0  0  0  0
  -30.7424  -14.7296   20.6575 C   0  0  0  0  0  0  0  0  0  0  0  0
  -25.6834  -25.1254   24.7122 C   0  0  0  0  0  0  0  0  0  0  0  0
  -31.8367  -24.2707   21.5624 C   0  0  0  0  0  0  0  0  0  0  0  0
  -31.2338  -22.0723   19.6787 C   0  0  0  0  0  0  0  0  0  0  0  0
  -25.8587  -24.5053   23.3284 C   0  0  0  0  0  0  0  0  0  0  0  0
  -29.6179  -12.3175   18.2923 C   0  0  0  0  0  0  0  0  0  0  0  0
  -26.6500  -23.2046   23.4226 C   0  0  0  0  0  0  0  0  0  0  0  0
  -28.1762  -12.0345   18.7206 C   0  0  0  0  0  0  0  0  0  0  0  0
  -30.5328  -12.5436   19.4947 C   0  0  0  0  0  0  0  0  0  0  0  0
  -28.6281  -13.2808   20.8722 C   0  0  0  0  0  0  0  0  0  0  0  0
  -28.0576  -23.4541   23.9776 C   0  0  1  0  0  0  0  0  0  0  0  0
  -30.4210  -24.0126   21.0560 C   0  0  1  0  0  0  0  0  0  0  0  0
  -27.6558  -13.1107   19.6935 C   0  0  2  0  0  0  0  0  0  0  0  0
  -30.5551  -23.5845   13.3228 C   0  0  0  0  0  0  0  0  0  0  0  0
  -27.4632  -21.3299   18.7291 C   0  0  0  0  0  0  0  0  0  0  0  0
  -27.8638  -21.1690   16.2629 C   0  0  0  0  0  0  0  0  0  0  0  0
  -26.8963  -23.2530   17.2342 C   0  0  0  0  0  0  0  0  0  0  0  0
  -33.3383  -24.8713   15.5753 C   0  0  0  0  0  0  0  0  0  0  0  0
  -36.1324  -17.8660   22.4931 C   0  0  0  0  0  0  0  0  0  0  0  0
  -35.9199  -19.3715   22.4674 C   0  0  0  0  0  0  0  0  0  1  0  0
  -34.8158  -17.1053   22.4760 C   0  0  0  0  0  0  0  0  0  0  0  0
  -29.3369  -22.7207   17.6242 C   0  0  1  0  0  0  0  0  0  0  0  0
  -31.1596  -24.1223   14.6105 C   0  0  2  0  0  0  0  0  0  0  0  0
  -27.9117  -22.1160   17.4810 C   0  0  0  0  0  0  0  0  0  0  0  0
  -25.8593  -11.5300   20.2900 N   0  0  0  0  0  0  0  0  0  0  0  0
  -26.2433  -12.8113   20.1598 N   0  0  0  0  0  0  0  0  0  0  0  0
  -30.3989  -23.2800   19.7883 N   0  0  0  0  0  0  0  0  0  0  0  0
  -29.9783  -13.5790   20.3695 N   0  0  0  0  0  0  0  0  0  0  0  0
  -25.4885  -15.0433   20.4028 N   0  0  0  0  0  0  0  0  0  0  0  0
  -30.3071  -20.0822   25.7023 N   0  0  0  0  0  0  0  0  0  0  0  0
  -21.8888  -12.5906   21.5954 N   0  0  0  0  0  0  0  0  0  0  0  0
  -30.0990  -15.6597   21.4734 N   0  0  0  0  0  0  0  0  0  0  0  0
  -28.9152  -24.0061   22.9509 N   0  0  0  0  0  0  0  0  0  0  0  0
  -29.7771  -23.4935   16.4678 N   0  0  0  0  0  0  0  0  0  0  0  0
  -32.6205  -24.3234   14.3956 N   0  3  0  0  0  0  0  0  0  0  0  0
  -28.4287  -19.2235   24.7058 O   0  0  0  0  0  0  0  0  0  0  0  0
  -22.6764  -14.7256   21.3125 O   0  0  0  0  0  0  0  0  0  0  0  0
  -29.5623  -22.0043   21.9527 O   0  0  0  0  0  0  0  0  0  0  0  0
  -28.7409  -24.6437   18.8786 O   0  0  0  0  0  0  0  0  0  0  0  0
  -31.6764  -22.2372   16.0305 O   0  0  0  0  0  0  0  0  0  0  0  0
  -31.8730  -14.8914   20.1910 O   0  0  0  0  0  0  0  0  0  0  0  0
  -21.5855   -7.0292   21.7134 O   0  0  0  0  0  0  0  0  0  0  0  0
  -35.2291  -19.7429   21.2754 O   0  0  0  0  0  0  0  0  0  1  0  0
  -34.0376  -17.4624   23.6104 O   0  0  0  0  0  0  0  0  0  0  0  0
  -16.4208   -6.8689   19.7889 F   0  0  0  0  0  0  0  0  0  0  0  0
  -20.7986   -5.0741   19.9242 F   0  0  0  0  0  0  0  0  0  0  0  0
  1  2  1  0  0  0  0
  1  5  2  0  0  0  0
  2  6  2  0  0  0  0
  3  8  2  0  0  0  0
  3 18  1  0  0  0  0
  4  9  1  0  0  0  0
  4 18  2  0  0  0  0
  5 21  1  0  0  0  0
  6 23  1  0  0  0  0
  7 10  2  0  0  0  0
  7 22  1  0  0  0  0
  8 26  1  0  0  0  0
  9 26  2  0  0  0  0
 10 27  1  0  0  0  0
 11 12  2  0  0  0  0
 11 28  1  0  0  0  0
 12 30  1  0  0  0  0
 13 19  2  0  0  0  0
 13 25  1  0  0  0  0
 14 19  1  0  0  0  0
 14 29  2  0  0  0  0
 15 24  1  0  0  0  0
 15 27  2  0  0  0  0
 16 25  2  0  0  0  0
 16 29  1  0  0  0  0
 17 30  2  0  0  0  0
 17 31  1  0  0  0  0
 18 32  1  0  0  0  0
 19 34  1  0  0  0  0
 20 32  1  0  0  0  0
 20 33  2  0  0  0  0
 20 35  1  0  0  0  0
 21 23  2  0  0  0  0
 21 40  1  0  0  0  0
 22 24  2  0  0  0  0
 22 41  1  0  0  0  0
 23 49  1  0  0  0  0
 24 42  1  0  0  0  0
 25 70  1  0  0  0  0
 26 80  1  0  0  0  0
 27 81  1  0  0  0  0
 28 31  2  0  0  0  0
 28 80  1  0  0  0  0
 29 82  1  0  0  0  0
 30 83  1  0  0  0  0
 31 84  1  0  0  0  0
 32 63  2  0  0  0  0
 33 64  1  0  0  0  0
 33 67  1  0  0  0  0
 34 68  1  0  0  0  0
 34 74  2  0  0  0  0
 35 69  1  0  0  0  0
 35 75  2  0  0  0  0
 36 50  1  0  0  0  0
 36 71  1  0  0  0  0
 36 76  2  0  0  0  0
 37 60  1  0  0  0  0
 37 65  1  0  0  0  0
 37 77  2  0  0  0  0
 38 61  1  0  0  0  0
 38 72  1  0  0  0  0
 38 78  2  0  0  0  0
 39 66  1  0  0  0  0
 39 70  1  0  0  0  0
 39 79  2  0  0  0  0
 40 43  1  0  0  0  0
 41 50  1  0  0  0  0
 42 65  1  0  0  0  0
 43 45  1  0  0  0  0
 44 46  1  0  0  0  0
 44 47  1  0  0  0  0
 45 49  1  0  0  0  0
 46 51  1  0  0  0  0
 47 66  1  0  0  0  0
 48 51  1  0  0  0  0
 48 66  1  0  0  0  0
 49 71  1  0  0  0  0
 50 65  1  0  0  0  0
 51 64  1  0  0  0  0
 52 61  1  0  0  0  0
 53 62  1  0  0  0  0
 54 62  1  0  0  0  0
 55 62  1  0  0  0  0
 56 73  1  0  0  0  0
 57 58  1  0  0  0  0
 57 59  1  0  0  0  0
 58 81  1  0  0  0  0
 59 82  1  0  0  0  0
 60 62  1  0  0  0  0
 60 72  1  0  0  0  0
 61 73  1  0  0  0  0
 63 64  1  0  0  0  0
M  CHG  1  73   1
M  ISO  4  39 100  58 101  70 100  81 101
M  END
> <Batch ID>
0113

> <Smiles>
CNC(C)C(=O)NC(C(=O)N1Cc2cc([101O:1][101CH2:1]CCOc3cc([100NH:0][100C:0](=O)N4CCCC(n5nc(-c6ccc(Oc7ccc(F)cc7F)cc6)c(C(N)=O)c5N)C4)cc(C(=N)O)c3)ccc2CC1C(=O)NC1CCCc2ccccc21)C(C)(C)C

> <Shape>
0.192

> <Color>
0.189

> <Negative vol penalty>
0.000

$$$$

  -OEChem-04052301343D

 85 93  0     1  0  0  0  0  0999 V2000
  -21.4863  -22.8275   22.8652 C   0  0  0  0  0  0  0  0  0  0  0  0
  -34.5384  -17.4678   19.7996 C   0  0  0  0  0  0  0  0  0  0  0  0
  -33.7402  -18.3577   20.5112 C   0  0  0  0  0  0  0  0  0  0  0  0
  -29.7994  -24.4111   23.5410 C   0  0  0  0  0  0  0  0  0  0  0  0
  -27.7527  -23.2603   24.1100 C   0  0  0  0  0  0  0  0  0  0  0  0
  -18.5066  -27.5462   23.0845 C   0  0  0  0  0  0  0  0  0  0  0  0
  -19.1922  -26.3505   22.8706 C   0  0  0  0  0  0  0  0  0  0  0  0
  -34.0058  -16.7666   18.7186 C   0  0  0  0  0  0  0  0  0  0  0  0
  -32.4092  -18.5478   20.1414 C   0  0  0  0  0  0  0  0  0  0  0  0
  -25.9830  -19.9878   22.9603 C   0  0  0  0  0  0  0  0  0  0  0  0
  -30.3718  -23.9859   24.7398 C   0  0  0  0  0  0  0  0  0  0  0  0
  -28.3251  -22.8351   25.3088 C   0  0  0  0  0  0  0  0  0  0  0  0
  -24.9153  -20.8720   22.8118 C   0  0  0  0  0  0  0  0  0  0  0  0
  -31.7713  -21.1639   25.9691 C   0  0  0  0  0  0  0  0  0  0  0  0
  -33.0711  -20.6601   25.9240 C   0  0  0  0  0  0  0  0  0  0  0  0
  -20.3252  -28.7707   22.0694 C   0  0  0  0  0  0  0  0  0  0  0  0
  -24.0812  -19.5470   20.9766 C   0  0  0  0  0  0  0  0  0  0  0  0
  -33.7967  -22.3962   27.4394 C   0  0  0  0  0  0  0  0  0  0  0  0
  -28.4899  -24.0484   23.2261 C   0  0  0  0  0  0  0  0  0  0  0  0
  -19.0730  -28.7563   22.6839 C   0  0  0  0  0  0  0  0  0  0  0  0
  -20.4443  -26.3648   22.2561 C   0  0  0  0  0  0  0  0  0  0  0  0
  -27.9274  -23.8217   20.7482 C   0  0  0  0  0  0  0  0  0  0  0  0
  -32.6649  -16.9410   18.3414 C   0  0  0  0  0  0  0  0  0  0  0  0
  -26.1140  -18.8808   22.1096 C   0  0  0  0  0  0  0  0  0  0  0  0
  -31.8586  -17.8493   19.0535 C   0  0  0  0  0  0  0  0  0  0  0  0
  -25.1501  -18.6489   21.1181 C   0  0  0  0  0  0  0  0  0  0  0  0
  -21.0108  -27.5750   21.8555 C   0  0  0  0  0  0  0  0  0  0  0  0
  -29.6346  -23.1979   25.6238 C   0  0  0  0  0  0  0  0  0  0  0  0
  -23.9658  -20.6533   21.8179 C   0  0  0  0  0  0  0  0  0  0  0  0
  -31.4841  -22.2840   26.7492 C   0  0  0  0  0  0  0  0  0  0  0  0
  -34.0838  -21.2762   26.6592 C   0  0  0  0  0  0  0  0  0  0  0  0
  -32.4968  -22.9001   27.4844 C   0  0  0  0  0  0  0  0  0  0  0  0
  -27.8979  -24.4877   21.9881 C   0  0  0  0  0  0  0  0  0  0  0  0
  -27.2279  -24.6446   19.8997 C   0  0  0  0  0  0  0  0  0  0  0  0
  -20.8954  -23.9769   23.0086 C   0  0  0  0  0  0  0  0  0  0  0  0
  -22.0720  -21.6821   22.7265 C   0  0  0  0  0  0  0  0  0  1  0  0
  -18.3572  -30.0027   22.9066 C   0  0  0  0  0  0  0  0  0  0  0  0
  -18.9061  -31.2384   22.9309 C   0  0  0  0  0  0  0  0  0  0  0  0
  -21.1456  -25.0761   22.0429 C   0  0  0  0  0  0  0  0  0  0  0  0
  -28.5330  -22.5710   20.3950 C   0  0  0  0  0  0  0  0  0  0  0  0
  -28.2874  -17.9182   19.9993 C   0  0  0  0  0  0  0  0  0  0  0  0
  -26.4275  -15.2632   19.8797 C   0  0  0  0  0  0  0  0  0  0  0  0
  -23.3538  -13.8556   20.3462 C   0  0  0  0  0  0  0  0  0  0  0  0
  -22.9667  -28.7406   20.7773 C   0  0  0  0  0  0  0  0  0  0  0  0
  -32.1470  -16.1961   17.1365 C   0  0  0  0  0  0  0  0  0  0  0  0
  -27.2568  -17.9216   22.3001 C   0  0  0  0  0  0  0  0  0  0  0  0
  -25.2340  -17.4640   20.1921 C   0  0  0  0  0  0  0  0  0  0  0  0
  -30.6235  -16.1748   17.0421 C   0  0  0  0  0  0  0  0  0  0  0  0
  -26.1258  -29.2549   19.2177 C   0  0  0  0  0  0  0  0  0  0  0  0
  -30.0538  -17.5679   17.2902 C   0  0  0  0  0  0  0  0  0  0  0  0
  -26.9395  -28.0272   19.6334 C   0  0  0  0  0  0  0  0  0  0  0  0
  -25.2035  -29.7302   20.3390 C   0  0  0  0  0  0  0  0  0  0  0  0
  -25.1369  -27.4690   21.3145 C   0  0  0  0  0  0  0  0  0  0  0  0
  -30.4033  -18.0642   18.6984 C   0  0  1  0  0  0  0  0  0  0  0  0
  -27.5726  -17.1118   21.0464 C   0  0  1  0  0  0  0  0  0  0  0  0
  -26.0332  -26.9143   20.1952 C   0  0  2  0  0  0  0  0  0  0  0  0
  -18.1315  -32.4931   23.1730 C   0  0  0  0  0  0  0  0  0  0  0  0
  -22.1326  -11.6742   20.1286 C   0  0  0  0  0  0  0  0  0  0  0  0
  -26.3131  -15.6320   16.8530 C   0  0  0  0  0  0  0  0  0  0  0  0
  -24.3684  -14.0560   16.8044 C   0  0  0  0  0  0  0  0  0  0  0  0
  -26.5939  -13.2636   17.6054 C   0  0  0  0  0  0  0  0  0  0  0  0
  -22.7396  -13.7777   23.2403 C   0  0  0  0  0  0  0  0  0  0  0  0
  -25.2385  -14.8270   19.0582 C   0  0  1  0  0  0  0  0  0  0  0  0
  -22.9257  -12.5831   21.0546 C   0  0  2  0  0  0  0  0  0  0  0  0
  -25.6277  -14.4681   17.5963 C   0  0  0  0  0  0  0  0  0  0  0  0
  -27.2324  -25.6447   21.9363 N   0  0  0  0  0  0  0  0  0  0  0  0
  -26.8374  -25.7121   20.6535 N   0  0  0  0  0  0  0  0  0  0  0  0
  -26.3733  -16.5583   20.4141 N   0  0  0  0  0  0  0  0  0  0  0  0
  -24.3722  -28.6240   20.8185 N   0  0  0  0  0  0  0  0  0  0  0  0
  -26.9149  -24.5521   18.5898 N   0  0  0  0  0  0  0  0  0  0  0  0
  -29.2132  -21.8539   21.3887 N   0  0  0  0  0  0  0  0  0  0  0  0
  -22.2811  -27.6133   21.2287 N   0  0  0  0  0  0  0  0  0  0  0  0
  -29.5444  -17.4401   19.6819 N   0  0  0  0  0  0  0  0  0  0  0  0
  -24.6119  -13.7348   19.7950 N   0  0  0  0  0  0  0  0  0  0  0  0
  -22.0760  -12.9082   22.2350 N   0  3  0  0  0  0  0  0  0  0  0  0
  -21.9220  -24.9488   21.1021 O   0  0  0  0  0  0  0  0  0  0  0  0
  -28.4866  -22.1111   19.2289 O   0  0  0  0  0  0  0  0  0  0  0  0
  -27.7385  -18.9006   19.5141 O   0  0  0  0  0  0  0  0  0  0  0  0
  -27.3666  -14.4810   20.0471 O   0  0  0  0  0  0  0  0  0  0  0  0
  -22.6417  -14.8555   20.2845 O   0  0  0  0  0  0  0  0  0  0  0  0
  -22.4120  -29.7546   20.3460 O   0  0  0  0  0  0  0  0  0  0  0  0
  -30.1929  -22.7826   26.7936 O   0  0  0  0  0  0  0  0  0  0  0  0
  -22.9231  -21.5152   21.6704 O   0  0  0  0  0  0  0  0  0  1  0  0
  -35.3317  -20.7913   26.6170 F   0  0  0  0  0  0  0  0  0  0  0  0
  -32.2267  -23.9758   28.2367 F   0  0  0  0  0  0  0  0  0  0  0  0
  1 35  2  0  0  0  0
  1 36  2  0  0  0  0
  2  3  1  0  0  0  0
  2  8  2  0  0  0  0
  3  9  2  0  0  0  0
  4 11  2  0  0  0  0
  4 19  1  0  0  0  0
  5 12  1  0  0  0  0
  5 19  2  0  0  0  0
  6  7  2  0  0  0  0
  6 20  1  0  0  0  0
  7 21  1  0  0  0  0
  8 23  1  0  0  0  0
  9 25  1  0  0  0  0
 10 13  2  0  0  0  0
 10 24  1  0  0  0  0
 11 28  1  0  0  0  0
 12 28  2  0  0  0  0
 13 29  1  0  0  0  0
 14 15  2  0  0  0  0
 14 30  1  0  0  0  0
 15 31  1  0  0  0  0
 16 20  2  0  0  0  0
 16 27  1  0  0  0  0
 17 26  1  0  0  0  0
 17 29  2  0  0  0  0
 18 31  2  0  0  0  0
 18 32  1  0  0  0  0
 19 33  1  0  0  0  0
 20 37  1  0  0  0  0
 21 27  2  0  0  0  0
 21 39  1  0  0  0  0
 22 33  1  0  0  0  0
 22 34  2  0  0  0  0
 22 40  1  0  0  0  0
 23 25  2  0  0  0  0
 23 45  1  0  0  0  0
 24 26  2  0  0  0  0
 24 46  1  0  0  0  0
 25 54  1  0  0  0  0
 26 47  1  0  0  0  0
 27 72  1  0  0  0  0
 28 82  1  0  0  0  0
 29 83  1  0  0  0  0
 30 32  2  0  0  0  0
 30 82  1  0  0  0  0
 31 84  1  0  0  0  0
 32 85  1  0  0  0  0
 33 66  2  0  0  0  0
 34 67  1  0  0  0  0
 34 70  1  0  0  0  0
 35 39  1  0  0  0  0
 36 83  1  0  0  0  0
 37 38  2  0  0  0  0
 38 57  1  0  0  0  0
 39 76  2  0  0  0  0
 40 71  1  0  0  0  0
 40 77  2  0  0  0  0
 41 55  1  0  0  0  0
 41 73  1  0  0  0  0
 41 78  2  0  0  0  0
 42 63  1  0  0  0  0
 42 68  1  0  0  0  0
 42 79  2  0  0  0  0
 43 64  1  0  0  0  0
 43 74  1  0  0  0  0
 43 80  2  0  0  0  0
 44 69  1  0  0  0  0
 44 72  1  0  0  0  0
 44 81  2  0  0  0  0
 45 48  1  0  0  0  0
 46 55  1  0  0  0  0
 47 68  1  0  0  0  0
 48 50  1  0  0  0  0
 49 51  1  0  0  0  0
 49 52  1  0  0  0  0
 50 54  1  0  0  0  0
 51 56  1  0  0  0  0
 52 69  1  0  0  0  0
 53 56  1  0  0  0  0
 53 69  1  0  0  0  0
 54 73  1  0  0  0  0
 55 68  1  0  0  0  0
 56 67  1  0  0  0  0
 58 64  1  0  0  0  0
 59 65  1  0  0  0  0
 60 65  1  0  0  0  0
 61 65  1  0  0  0  0
 62 75  1  0  0  0  0
 63 65  1  0  0  0  0
 63 74  1  0  0  0  0
 64 75  1  0  0  0  0
 66 67  1  0  0  0  0
M  CHG  1  75   1
M  ISO  4  36 101  44 100  72 100  83 101
M  END
> <Batch ID>
0113

> <Smiles>
CC=Cc1ccc(C(=O)C=C=[101CH:1][101O:1]c2ccc3c(c2)CN(C(=O)C(NC(=O)C(C)NC)C(C)(C)C)C(C(=O)NC2CCCc4ccccc42)C3)c([100NH:0][100C:0](=O)N2CCCC(n3nc(-c4ccc(Oc5ccc(F)cc5F)cc4)c(C(N)=O)c3N)C2)c1

> <Shape>
0.176

> <Color>
0.072

> <Negative vol penalty>
0.000

$$$$

  -OEChem-04052301343D

 86 94  0     1  0  0  0  0  0999 V2000
  -31.0069  -25.8016   17.4308 C   0  0  0  0  0  0  0  0  0  0  0  0
  -29.6177  -25.7311   17.4506 C   0  0  0  0  0  0  0  0  0  0  0  0
  -24.7939  -13.5310   19.6076 C   0  0  0  0  0  0  0  0  0  0  0  0
  -25.3455  -13.0187   21.9033 C   0  0  0  0  0  0  0  0  0  0  0  0
  -31.6953  -26.2827   18.5437 C   0  0  0  0  0  0  0  0  0  0  0  0
  -28.9160  -26.1408   18.5838 C   0  0  0  0  0  0  0  0  0  0  0  0
  -23.4394  -28.8776   18.7334 C   0  0  0  0  0  0  0  0  0  0  0  0
  -24.8922  -12.1783   19.2821 C   0  0  0  0  0  0  0  0  0  0  0  0
  -25.4439  -11.6659   21.5778 C   0  0  0  0  0  0  0  0  0  0  0  0
  -22.1529  -28.3898   18.9585 C   0  0  0  0  0  0  0  0  0  0  0  0
  -22.9930   -9.3977   19.5895 C   0  0  0  0  0  0  0  0  0  0  0  0
  -21.9902   -8.8487   18.7904 C   0  0  0  0  0  0  0  0  0  0  0  0
  -22.3276  -29.0179   21.2810 C   0  0  0  0  0  0  0  0  0  0  0  0
  -20.9055  -23.4699   19.2146 C   0  0  0  0  0  0  0  0  0  0  0  0
  -23.6382   -8.2656   17.1228 C   0  0  0  0  0  0  0  0  0  0  0  0
  -25.0206  -13.9513   20.9182 C   0  0  0  0  0  0  0  0  0  0  0  0
  -23.6534  -23.3718   19.6855 C   0  0  0  0  0  0  0  0  0  0  0  0
  -23.7705  -16.0385   21.6853 C   0  0  0  0  0  0  0  0  0  0  0  0
  -31.0012  -26.7076   19.6875 C   0  0  0  0  0  0  0  0  0  0  0  0
  -24.1851  -29.4302   19.7846 C   0  0  0  0  0  0  0  0  0  0  0  0
  -29.5958  -26.6268   19.7136 C   0  0  0  0  0  0  0  0  0  0  0  0
  -23.6224  -29.5143   21.0661 C   0  0  0  0  0  0  0  0  0  0  0  0
  -21.7500  -22.8561   18.2897 C   0  0  0  0  0  0  0  0  0  0  0  0
  -23.1240  -22.8069   18.5252 C   0  0  0  0  0  0  0  0  0  0  0  0
  -25.2172  -11.2457   20.2672 C   0  0  0  0  0  0  0  0  0  0  0  0
  -21.5979  -28.4573   20.2330 C   0  0  0  0  0  0  0  0  0  0  0  0
  -24.3185   -9.3808   19.1551 C   0  0  0  0  0  0  0  0  0  0  0  0
  -21.4349  -24.0348   20.3750 C   0  0  0  0  0  0  0  0  0  0  0  0
  -22.3128   -8.2826   17.5571 C   0  0  0  0  0  0  0  0  0  0  0  0
  -24.6410   -8.8147   17.9218 C   0  0  0  0  0  0  0  0  0  0  0  0
  -22.8088  -23.9857   20.6104 C   0  0  0  0  0  0  0  0  0  0  0  0
  -24.9197  -15.3486   21.2550 C   0  0  0  0  0  0  0  0  0  0  0  0
  -24.1958  -17.3310   21.8724 C   0  0  0  0  0  0  0  0  0  0  0  0
  -25.1122  -23.3354   19.9640 C   0  0  0  0  0  0  0  0  0  0  0  0
  -22.4376  -15.5543   21.8970 C   0  0  0  0  0  0  0  0  0  0  0  0
  -26.9315  -28.7038   21.2105 C   0  0  0  0  0  0  0  0  0  0  0  0
  -26.4117  -31.4999   22.7706 C   0  0  0  0  0  0  0  0  0  0  0  0
  -24.1791  -33.8483   23.8418 C   0  0  0  0  0  0  0  0  0  0  0  0
  -27.0362  -21.8087   20.2659 C   0  0  0  0  0  0  0  0  0  0  0  0
  -31.7912  -27.1759   20.8839 C   0  0  0  0  0  0  0  0  0  0  0  0
  -25.5613  -29.9764   19.5196 C   0  0  0  0  0  0  0  0  0  0  0  0
  -24.3737  -30.1167   22.2242 C   0  0  0  0  0  0  0  0  0  0  0  0
  -30.9537  -27.9414   21.9051 C   0  0  0  0  0  0  0  0  0  0  0  0
  -28.8670  -19.2881   21.9368 C   0  0  0  0  0  0  0  0  0  0  0  0
  -29.6483  -27.2037   22.1855 C   0  0  0  0  0  0  0  0  0  0  0  0
  -27.9074  -18.0951   21.9524 C   0  0  0  0  0  0  0  0  0  0  0  0
  -28.7713  -20.0761   20.6311 C   0  0  0  0  0  0  0  0  0  0  0  0
  -26.4619  -19.3051   20.2701 C   0  0  0  0  0  0  0  0  0  0  0  0
  -28.7978  -27.0850   20.9150 C   0  0  1  0  0  0  0  0  0  0  0  0
  -26.4266  -30.0500   20.7739 C   0  0  1  0  0  0  0  0  0  0  0  0
  -26.4699  -18.5206   21.5921 C   0  0  1  0  0  0  0  0  0  0  0  0
  -21.1537  -22.2600   17.0559 C   0  0  0  0  0  0  0  0  0  0  0  0
  -24.0479  -36.0011   25.1246 C   0  0  0  0  0  0  0  0  0  0  0  0
  -26.7543  -29.9613   25.3831 C   0  0  0  0  0  0  0  0  0  0  0  0
  -25.6954  -31.8904   26.5770 C   0  0  0  0  0  0  0  0  0  0  0  0
  -27.8421  -32.2130   25.3482 C   0  0  0  0  0  0  0  0  0  0  0  0
  -23.0950  -35.3083   21.5068 C   0  0  0  0  0  0  0  0  0  0  0  0
  -18.9956  -26.3883   21.6680 C   0  0  0  0  0  0  0  0  0  0  0  0
  -20.0646  -27.4662   21.7570 C   0  0  0  0  0  0  0  0  0  1  0  0
  -19.4216  -25.2374   20.7701 C   0  0  0  0  0  0  0  0  0  0  0  0
  -25.7008  -31.8991   24.0411 C   0  0  1  0  0  0  0  0  0  0  0  0
  -24.1898  -35.3636   23.7512 C   0  0  2  0  0  0  0  0  0  0  0  0
  -26.4845  -31.4778   25.3162 C   0  0  0  0  0  0  0  0  0  0  0  0
  -25.9944  -16.1375   21.1733 N   0  0  0  0  0  0  0  0  0  0  0  0
  -25.5222  -17.3366   21.5548 N   0  0  0  0  0  0  0  0  0  0  0  0
  -25.7182  -30.6313   21.9160 N   0  0  0  0  0  0  0  0  0  0  0  0
  -27.3806  -20.4494   20.3670 N   0  0  0  0  0  0  0  0  0  0  0  0
  -23.9779  -22.1836   17.5852 N   0  0  0  0  0  0  0  0  0  0  0  0
  -23.5609  -18.4519   22.2758 N   0  0  0  0  0  0  0  0  0  0  0  0
  -22.1732  -14.1990   21.6573 N   0  0  0  0  0  0  0  0  0  0  0  0
  -25.6763  -22.0626   20.0550 N   0  0  0  0  0  0  0  0  0  0  0  0
  -28.1328  -28.3391   20.6331 N   0  0  0  0  0  0  0  0  0  0  0  0
  -25.4547  -33.3334   23.9377 N   0  0  0  0  0  0  0  0  0  0  0  0
  -23.0673  -35.8392   22.8940 N   0  3  0  0  0  0  0  0  0  0  0  0
  -25.7299  -24.3926   20.0564 O   0  0  0  0  0  0  0  0  0  0  0  0
  -21.5050  -16.3049   22.2715 O   0  0  0  0  0  0  0  0  0  0  0  0
  -26.2802  -28.0454   22.0130 O   0  0  0  0  0  0  0  0  0  0  0  0
  -27.5379  -31.9481   22.5414 O   0  0  0  0  0  0  0  0  0  0  0  0
  -23.1428  -33.1877   23.8325 O   0  0  0  0  0  0  0  0  0  0  0  0
  -27.8614  -22.7190   20.3907 O   0  0  0  0  0  0  0  0  0  0  0  0
  -25.3130   -9.9256   19.9499 O   0  0  0  0  0  0  0  0  0  0  0  0
  -20.3426  -27.9813   20.4556 O   0  0  0  0  0  0  0  0  0  1  0  0
  -20.6035  -24.6375   21.2828 O   0  0  0  0  0  0  0  0  0  0  0  0
  -21.3498   -7.7540   16.7906 F   0  0  0  0  0  0  0  0  0  0  0  0
  -25.9128   -8.7944   17.4997 F   0  0  0  0  0  0  0  0  0  0  0  0
  -23.3113  -24.5305   21.7285 F   0  0  0  0  0  0  0  0  0  0  0  0
  1  2  1  0  0  0  0
  1  5  2  0  0  0  0
  2  6  2  0  0  0  0
  3  8  2  0  0  0  0
  3 16  1  0  0  0  0
  4  9  1  0  0  0  0
  4 16  2  0  0  0  0
  5 19  1  0  0  0  0
  6 21  1  0  0  0  0
  7 10  2  0  0  0  0
  7 20  1  0  0  0  0
  8 25  1  0  0  0  0
  9 25  2  0  0  0  0
 10 26  1  0  0  0  0
 11 12  2  0  0  0  0
 11 27  1  0  0  0  0
 12 29  1  0  0  0  0
 13 22  1  0  0  0  0
 13 26  2  0  0  0  0
 14 23  2  0  0  0  0
 14 28  1  0  0  0  0
 15 29  2  0  0  0  0
 15 30  1  0  0  0  0
 16 32  1  0  0  0  0
 17 24  2  0  0  0  0
 17 31  1  0  0  0  0
 17 34  1  0  0  0  0
 18 32  1  0  0  0  0
 18 33  2  0  0  0  0
 18 35  1  0  0  0  0
 19 21  2  0  0  0  0
 19 40  1  0  0  0  0
 20 22  2  0  0  0  0
 20 41  1  0  0  0  0
 21 49  1  0  0  0  0
 22 42  1  0  0  0  0
 23 24  1  0  0  0  0
 23 52  1  0  0  0  0
 24 68  1  0  0  0  0
 25 81  1  0  0  0  0
 26 82  1  0  0  0  0
 27 30  2  0  0  0  0
 27 81  1  0  0  0  0
 28 31  2  0  0  0  0
 28 83  1  0  0  0  0
 29 84  1  0  0  0  0
 30 85  1  0  0  0  0
 31 86  1  0  0  0  0
 32 64  2  0  0  0  0
 33 65  1  0  0  0  0
 33 69  1  0  0  0  0
 34 71  1  0  0  0  0
 34 75  2  0  0  0  0
 35 70  1  0  0  0  0
 35 76  2  0  0  0  0
 36 50  1  0  0  0  0
 36 72  1  0  0  0  0
 36 77  2  0  0  0  0
 37 61  1  0  0  0  0
 37 66  1  0  0  0  0
 37 78  2  0  0  0  0
 38 62  1  0  0  0  0
 38 73  1  0  0  0  0
 38 79  2  0  0  0  0
 39 67  1  0  0  0  0
 39 71  1  0  0  0  0
 39 80  2  0  0  0  0
 40 43  1  0  0  0  0
 41 50  1  0  0  0  0
 42 66  1  0  0  0  0
 43 45  1  0  0  0  0
 44 46  1  0  0  0  0
 44 47  1  0  0  0  0
 45 49  1  0  0  0  0
 46 51  1  0  0  0  0
 47 67  1  0  0  0  0
 48 51  1  0  0  0  0
 48 67  1  0  0  0  0
 49 72  1  0  0  0  0
 50 66  1  0  0  0  0
 51 65  1  0  0  0  0
 53 62  1  0  0  0  0
 54 63  1  0  0  0  0
 55 63  1  0  0  0  0
 56 63  1  0  0  0  0
 57 74  1  0  0  0  0
 58 59  1  0  0  0  0
 58 60  1  0  0  0  0
 59 82  1  0  0  0  0
 60 83  1  0  0  0  0
 61 63  1  0  0  0  0
 61 73  1  0  0  0  0
 62 74  1  0  0  0  0
 64 65  1  0  0  0  0
M  CHG  1  74   1
M  ISO  4  39 100  59 101  71 100  82 101
M  END
> <Batch ID>
0113

> <Smiles>
CNC(C)C(=O)NC(C(=O)N1Cc2cc([101O:1][101CH2:1]CCOc3cc(C)c(N)c(C(=O)[100NH:0][100C:0](=O)N4CCCC(n5nc(-c6ccc(Oc7ccc(F)cc7F)cc6)c(C(N)=O)c5N)C4)c3F)ccc2CC1C(=O)NC1CCCc2ccccc21)C(C)(C)C

> <Shape>
0.270

> <Color>
0.076

> <Negative vol penalty>
0.000

$$$$

  -OEChem-04052301343D

 83 91  0     1  0  0  0  0  0999 V2000
  -25.5955  -37.0502   19.2171 C   0  0  0  0  0  0  0  0  0  0  0  0
  -26.3306  -35.8829   19.0373 C   0  0  0  0  0  0  0  0  0  0  0  0
  -23.3851   -9.8650   19.8819 C   0  0  0  0  0  0  0  0  0  0  0  0
  -24.1502   -9.8977   22.1734 C   0  0  0  0  0  0  0  0  0  0  0  0
  -24.7380  -37.1713   20.3098 C   0  0  0  0  0  0  0  0  0  0  0  0
  -26.2095  -34.8363   19.9507 C   0  0  0  0  0  0  0  0  0  0  0  0
  -26.4822  -28.8399   18.7364 C   0  0  0  0  0  0  0  0  0  0  0  0
  -22.8133   -8.6101   20.0907 C   0  0  0  0  0  0  0  0  0  0  0  0
  -23.5783   -8.6428   22.3822 C   0  0  0  0  0  0  0  0  0  0  0  0
  -27.5106  -27.9055   18.8510 C   0  0  0  0  0  0  0  0  0  0  0  0
  -20.4990   -7.3753   22.9585 C   0  0  0  0  0  0  0  0  0  0  0  0
  -19.7624   -7.1869   24.1278 C   0  0  0  0  0  0  0  0  0  0  0  0
  -26.6616  -27.2447   21.0101 C   0  0  0  0  0  0  0  0  0  0  0  0
  -21.2696   -5.4196   24.7927 C   0  0  0  0  0  0  0  0  0  0  0  0
  -24.0537  -10.5089   20.9232 C   0  0  0  0  0  0  0  0  0  0  0  0
  -24.0344  -13.0596   20.8942 C   0  0  0  0  0  0  0  0  0  0  0  0
  -24.5990  -36.1219   21.2318 C   0  0  0  0  0  0  0  0  0  0  0  0
  -25.5406  -28.9916   19.7644 C   0  0  0  0  0  0  0  0  0  0  0  0
  -25.3504  -34.9440   21.0575 C   0  0  0  0  0  0  0  0  0  0  0  0
  -25.6208  -28.1799   20.9050 C   0  0  0  0  0  0  0  0  0  0  0  0
  -29.6797  -18.9268   20.7013 C   0  0  0  0  0  0  0  0  0  0  0  0
  -22.9098   -7.9989   21.3409 C   0  0  0  0  0  0  0  0  0  0  0  0
  -27.6021  -27.1098   19.9891 C   0  0  0  0  0  0  0  0  0  0  0  0
  -21.6210   -6.5857   22.7061 C   0  0  0  0  0  0  0  0  0  0  0  0
  -20.1477   -6.2092   25.0450 C   0  0  0  0  0  0  0  0  0  0  0  0
  -22.0063   -5.6080   23.6233 C   0  0  0  0  0  0  0  0  0  0  0  0
  -24.6451  -11.8050   20.7080 C   0  0  0  0  0  0  0  0  0  0  0  0
  -29.5160  -20.1566   21.3665 C   0  0  0  0  0  0  0  0  0  0  0  0
  -25.0074  -13.9686   20.5572 C   0  0  0  0  0  0  0  0  0  0  0  0
  -29.4753  -17.9798   21.6749 C   0  0  0  0  0  0  0  0  0  0  0  0
  -29.6425  -21.4753   20.7211 C   0  0  0  0  0  0  0  0  0  0  0  0
  -28.9620  -22.5704   21.0875 C   0  0  0  0  0  0  0  0  0  0  0  0
  -22.7062  -13.3752   21.3326 C   0  0  0  0  0  0  0  0  0  0  0  0
  -29.1557  -23.8587   20.3608 C   0  0  0  0  0  0  0  0  0  0  0  0
  -24.7015  -31.3646   21.7056 C   0  0  0  0  0  0  0  0  0  0  0  0
  -22.3788  -29.2869   22.6058 C   0  0  0  0  0  0  0  0  0  0  0  0
  -21.3242  -26.0508   22.8554 C   0  0  0  0  0  0  0  0  0  0  0  0
  -30.2719  -15.7701   20.7646 C   0  0  0  0  0  0  0  0  0  0  0  0
  -23.6954  -36.3174   22.4234 C   0  0  0  0  0  0  0  0  0  0  0  0
  -24.4217  -29.9854   19.6138 C   0  0  0  0  0  0  0  0  0  0  0  0
  -24.6231  -28.2895   22.0280 C   0  0  0  0  0  0  0  0  0  0  0  0
  -23.3418  -35.0166   23.1397 C   0  0  0  0  0  0  0  0  0  0  0  0
  -29.4956  -13.3089   18.3116 C   0  0  0  0  0  0  0  0  0  0  0  0
  -24.5913  -34.1678   23.3525 C   0  0  0  0  0  0  0  0  0  0  0  0
  -28.1142  -12.8015   18.7317 C   0  0  0  0  0  0  0  0  0  0  0  0
  -30.3764  -13.6219   19.5199 C   0  0  0  0  0  0  0  0  0  0  0  0
  -28.3945  -14.0195   20.9282 C   0  0  0  0  0  0  0  0  0  0  0  0
  -25.2275  -33.7770   22.0131 C   0  0  1  0  0  0  0  0  0  0  0  0
  -23.8188  -30.4132   20.9484 C   0  0  1  0  0  0  0  0  0  0  0  0
  -27.4489  -13.7525   19.7458 C   0  0  2  0  0  0  0  0  0  0  0  0
  -29.9994  -18.6907   19.2802 C   0  0  0  0  0  0  0  0  0  0  0  0
  -19.3973  -24.6640   23.6687 C   0  0  0  0  0  0  0  0  0  0  0  0
  -23.3029  -29.6959   25.4848 C   0  0  0  0  0  0  0  0  0  0  0  0
  -22.0300  -27.6334   26.1128 C   0  0  0  0  0  0  0  0  0  0  0  0
  -20.8211  -29.6098   25.1880 C   0  0  0  0  0  0  0  0  0  0  0  0
  -28.9263  -18.1235   24.1250 C   0  0  0  0  0  0  0  0  0  0  0  0
  -20.8030  -24.9773   20.1471 C   0  0  0  0  0  0  0  0  0  0  0  0
  -28.3314  -25.0235   20.8674 C   0  0  0  0  0  0  0  0  0  1  0  0
  -22.2583  -28.2062   23.6530 C   0  0  1  0  0  0  0  0  0  0  0  0
  -20.0113  -25.3874   22.4803 C   0  0  2  0  0  0  0  0  0  0  0  0
  -22.1232  -28.7853   25.0895 C   0  0  0  0  0  0  0  0  0  0  0  0
  -25.9083  -11.9040   20.2853 N   0  0  0  0  0  0  0  0  0  0  0  0
  -29.2294  -20.0076   22.6625 N   0  0  0  0  0  0  0  0  0  0  0  0
  -26.0991  -13.2318   20.2031 N   0  0  0  0  0  0  0  0  0  0  0  0
  -29.2114  -18.6730   22.8195 N   0  0  0  0  0  0  0  0  0  0  0  0
  -23.5510  -29.2803   21.8367 N   0  0  0  0  0  0  0  0  0  0  0  0
  -29.6826  -14.5313   20.4345 N   0  0  0  0  0  0  0  0  0  0  0  0
  -25.0270  -15.3181   20.5321 N   0  0  0  0  0  0  0  0  0  0  0  0
  -21.8351  -12.3206   21.6377 N   0  0  0  0  0  0  0  0  0  0  0  0
  -29.5052  -16.5644   21.6166 N   0  0  0  0  0  0  0  0  0  0  0  0
  -24.4882  -32.6950   21.3990 N   0  0  0  0  0  0  0  0  0  0  0  0
  -21.1420  -27.3618   23.2416 N   0  0  0  0  0  0  0  0  0  0  0  0
  -20.2249  -24.3977   21.3868 N   0  3  0  0  0  0  0  0  0  0  0  0
  -22.2987  -14.5572   21.4346 O   0  0  0  0  0  0  0  0  0  0  0  0
  -29.9327  -23.9642   19.4157 O   0  0  0  0  0  0  0  0  0  0  0  0
  -25.5147  -30.9244   22.5097 O   0  0  0  0  0  0  0  0  0  0  0  0
  -21.4632  -30.1024   22.4703 O   0  0  0  0  0  0  0  0  0  0  0  0
  -22.4030  -25.4635   22.8138 O   0  0  0  0  0  0  0  0  0  0  0  0
  -31.3629  -16.1134   20.3024 O   0  0  0  0  0  0  0  0  0  0  0  0
  -22.3517   -6.7744   21.5451 O   0  0  0  0  0  0  0  0  0  0  0  0
  -28.6053  -26.1974   20.1037 O   0  0  0  0  0  0  0  0  0  1  0  0
  -19.4411   -6.0295   26.1686 F   0  0  0  0  0  0  0  0  0  0  0  0
  -23.0838   -4.8472   23.3869 F   0  0  0  0  0  0  0  0  0  0  0  0
  1  2  1  0  0  0  0
  1  5  2  0  0  0  0
  2  6  2  0  0  0  0
  3  8  2  0  0  0  0
  3 15  1  0  0  0  0
  4  9  1  0  0  0  0
  4 15  2  0  0  0  0
  5 17  1  0  0  0  0
  6 19  1  0  0  0  0
  7 10  2  0  0  0  0
  7 18  1  0  0  0  0
  8 22  1  0  0  0  0
  9 22  2  0  0  0  0
 10 23  1  0  0  0  0
 11 12  2  0  0  0  0
 11 24  1  0  0  0  0
 12 25  1  0  0  0  0
 13 20  1  0  0  0  0
 13 23  2  0  0  0  0
 14 25  2  0  0  0  0
 14 26  1  0  0  0  0
 15 27  1  0  0  0  0
 16 27  1  0  0  0  0
 16 29  2  0  0  0  0
 16 33  1  0  0  0  0
 17 19  2  0  0  0  0
 17 39  1  0  0  0  0
 18 20  2  0  0  0  0
 18 40  1  0  0  0  0
 19 48  1  0  0  0  0
 20 41  1  0  0  0  0
 21 28  1  0  0  0  0
 21 30  2  0  0  0  0
 21 51  1  0  0  0  0
 22 80  1  0  0  0  0
 23 81  1  0  0  0  0
 24 26  2  0  0  0  0
 24 80  1  0  0  0  0
 25 82  1  0  0  0  0
 26 83  1  0  0  0  0
 27 62  2  0  0  0  0
 28 31  1  0  0  0  0
 28 63  2  0  0  0  0
 29 64  1  0  0  0  0
 29 68  1  0  0  0  0
 30 65  1  0  0  0  0
 30 70  1  0  0  0  0
 31 32  2  0  0  0  0
 32 34  1  0  0  0  0
 33 69  1  0  0  0  0
 33 74  2  0  0  0  0
 34 58  1  0  0  0  0
 34 75  2  0  0  0  0
 35 49  1  0  0  0  0
 35 71  1  0  0  0  0
 35 76  2  0  0  0  0
 36 59  1  0  0  0  0
 36 66  1  0  0  0  0
 36 77  2  0  0  0  0
 37 60  1  0  0  0  0
 37 72  1  0  0  0  0
 37 78  2  0  0  0  0
 38 67  1  0  0  0  0
 38 70  1  0  0  0  0
 38 79  2  0  0  0  0
 39 42  1  0  0  0  0
 40 49  1  0  0  0  0
 41 66  1  0  0  0  0
 42 44  1  0  0  0  0
 43 45  1  0  0  0  0
 43 46  1  0  0  0  0
 44 48  1  0  0  0  0
 45 50  1  0  0  0  0
 46 67  1  0  0  0  0
 47 50  1  0  0  0  0
 47 67  1  0  0  0  0
 48 71  1  0  0  0  0
 49 66  1  0  0  0  0
 50 64  1  0  0  0  0
 52 60  1  0  0  0  0
 53 61  1  0  0  0  0
 54 61  1  0  0  0  0
 55 61  1  0  0  0  0
 56 65  1  0  0  0  0
 57 73  1  0  0  0  0
 58 81  1  0  0  0  0
 59 61  1  0  0  0  0
 59 72  1  0  0  0  0
 60 73  1  0  0  0  0
 62 64  1  0  0  0  0
 63 65  1  0  0  0  0
M  CHG  1  73   1
M  ISO  4  38 100  58 101  70 100  81 101
M  END
> <Batch ID>
0113

> <Smiles>
CNC(C)C(=O)NC(C(=O)N1Cc2cc([101O:1][101CH2:1]C(=O)C=Cc3nn(C)c([100NH:0][100C:0](=O)N4CCCC(n5nc(-c6ccc(Oc7ccc(F)cc7F)cc6)c(C(N)=O)c5N)C4)c3C)ccc2CC1C(=O)NC1CCCc2ccccc21)C(C)(C)C

> <Shape>
0.362

> <Color>
0.189

> <Negative vol penalty>
0.000

$$$$

  -OEChem-04052301343D

 90 98  0     1  0  0  0  0  0999 V2000
  -21.1734  -13.1029   21.8388 C   0  0  0  0  0  0  0  0  0  0  0  0
  -22.0021  -13.7264   22.7661 C   0  0  0  0  0  0  0  0  0  0  0  0
  -26.3245  -28.8894   21.2279 C   0  0  0  0  0  0  0  0  0  0  0  0
  -25.3392  -26.9854   20.1139 C   0  0  0  0  0  0  0  0  0  0  0  0
  -21.6726  -12.7507   20.5855 C   0  0  0  0  0  0  0  0  0  0  0  0
  -23.3308  -13.9971   22.4411 C   0  0  0  0  0  0  0  0  0  0  0  0
  -26.6489  -18.8234   24.2308 C   0  0  0  0  0  0  0  0  0  0  0  0
  -27.5193  -28.6727   20.5415 C   0  0  0  0  0  0  0  0  0  0  0  0
  -26.5340  -26.7687   19.4275 C   0  0  0  0  0  0  0  0  0  0  0  0
  -27.5849  -18.9921   25.2502 C   0  0  0  0  0  0  0  0  0  0  0  0
  -30.1790  -26.5990   20.7649 C   0  0  0  0  0  0  0  0  0  0  0  0
  -31.3660  -26.6656   21.4944 C   0  0  0  0  0  0  0  0  0  0  0  0
  -29.3653  -18.5820   23.6751 C   0  0  0  0  0  0  0  0  0  0  0  0
  -32.1328  -28.4697   20.0822 C   0  0  0  0  0  0  0  0  0  0  0  0
  -25.2345  -28.0457   21.0142 C   0  0  0  0  0  0  0  0  0  0  0  0
  -22.9169  -29.0687   21.3136 C   0  0  0  0  0  0  0  0  0  0  0  0
  -23.0054  -13.0260   20.2414 C   0  0  0  0  0  0  0  0  0  0  0  0
  -27.0643  -18.5215   22.9259 C   0  0  0  0  0  0  0  0  0  0  0  0
  -23.8486  -13.6471   21.1825 C   0  0  0  0  0  0  0  0  0  0  0  0
  -28.4327  -18.4125   22.6404 C   0  0  0  0  0  0  0  0  0  0  0  0
  -27.6240  -27.6125   19.6413 C   0  0  0  0  0  0  0  0  0  0  0  0
  -28.9432  -18.8685   24.9731 C   0  0  0  0  0  0  0  0  0  0  0  0
  -29.9689  -27.4677   19.6939 C   0  0  0  0  0  0  0  0  0  0  0  0
  -32.3429  -27.6010   21.1531 C   0  0  0  0  0  0  0  0  0  0  0  0
  -30.9458  -28.4031   19.3526 C   0  0  0  0  0  0  0  0  0  0  0  0
  -24.0002  -28.2686   21.7234 C   0  0  0  0  0  0  0  0  0  0  0  0
  -21.9987  -28.9493   22.3281 C   0  0  0  0  0  0  0  0  0  0  0  0
  -28.7804  -22.7523   24.6737 C   0  0  0  0  0  0  0  0  0  0  0  0
  -27.9142  -24.7469   26.8010 C   0  0  0  0  0  0  0  0  0  0  0  0
  -27.4493  -22.7304   24.4922 C   0  0  0  0  0  0  0  0  0  0  0  0
  -26.7290  -24.3918   26.2840 C   0  0  0  0  0  0  0  0  0  0  0  0
  -29.5030  -23.0698   25.8855 C   0  0  0  0  0  0  0  0  0  0  0  0
  -29.1249  -23.9520   26.8253 C   0  0  0  0  0  0  0  0  0  0  0  0
  -26.4987  -23.0938   25.5873 C   0  0  0  0  0  0  0  0  0  0  0  0
  -27.1893  -23.0415   22.1192 C   0  0  0  0  0  0  0  0  0  0  0  0
  -26.8838  -22.3392   23.2212 C   0  0  0  0  0  0  0  0  0  0  0  0
  -22.7550  -29.8500   20.1224 C   0  0  0  0  0  0  0  0  0  0  0  0
  -26.6164  -16.0827   20.9371 C   0  0  0  0  0  0  0  0  0  0  0  0
  -28.1798  -18.0072   18.8456 C   0  0  0  0  0  0  0  0  0  0  0  0
  -30.3493  -20.5957   18.3557 C   0  0  0  0  0  0  0  0  0  0  0  0
  -24.6039  -25.2539   25.4705 C   0  0  0  0  0  0  0  0  0  0  0  0
  -23.5128  -12.5839   18.8917 C   0  0  0  0  0  0  0  0  0  0  0  0
  -26.0434  -18.3689   21.8319 C   0  0  0  0  0  0  0  0  0  0  0  0
  -28.9314  -18.1095   21.2519 C   0  0  0  0  0  0  0  0  0  0  0  0
  -24.8294  -13.2438   18.4898 C   0  0  0  0  0  0  0  0  0  0  0  0
  -22.3892  -27.9792   27.0431 C   0  0  0  0  0  0  0  0  0  0  0  0
  -25.8218  -13.2038   19.6476 C   0  0  0  0  0  0  0  0  0  0  0  0
  -22.2323  -28.6718   25.6952 C   0  0  0  0  0  0  0  0  0  0  0  0
  -23.5517  -26.9917   26.9977 C   0  0  0  0  0  0  0  0  0  0  0  0
  -22.3808  -26.2177   24.9316 C   0  0  0  0  0  0  0  0  0  0  0  0
  -25.2888  -13.9798   20.8581 C   0  0  1  0  0  0  0  0  0  0  0  0
  -26.5546  -17.5556   20.6468 C   0  0  1  0  0  0  0  0  0  0  0  0
  -21.9645  -27.6571   24.5654 C   0  0  2  0  0  0  0  0  0  0  0  0
  -24.0163  -21.6369   27.6543 C   0  0  0  0  0  0  0  0  0  0  0  0
  -31.7594  -25.4152   28.8705 C   0  0  0  0  0  0  0  0  0  0  0  0
  -31.4618  -21.9157   16.5344 C   0  0  0  0  0  0  0  0  0  0  0  0
  -30.1020  -15.6911   18.3447 C   0  0  0  0  0  0  0  0  0  0  0  0
  -31.6856  -17.3234   17.2975 C   0  0  0  0  0  0  0  0  0  0  0  0
  -29.4326  -16.9538   16.2924 C   0  0  0  0  0  0  0  0  0  0  0  0
  -29.0860  -23.1174   19.2523 C   0  0  0  0  0  0  0  0  0  0  0  0
  -31.7242  -20.3544   26.7369 C   0  0  0  0  0  0  0  0  0  0  0  0
  -24.6551  -22.8181   26.9530 C   0  0  0  0  0  0  0  0  0  0  0  0
  -30.9018  -25.2058   27.6408 C   0  0  0  0  0  0  0  0  0  0  0  0
  -31.1383  -19.5419   25.5928 C   0  0  0  0  0  0  0  0  0  1  0  0
  -30.8487  -21.5446   27.0962 C   0  0  0  0  0  0  0  0  0  0  0  0
  -29.6253  -18.2256   18.4690 C   0  0  1  0  0  0  0  0  0  0  0  0
  -30.2662  -21.8257   17.4699 C   0  0  2  0  0  0  0  0  0  0  0  0
  -30.2022  -17.0523   17.6275 C   0  0  0  0  0  0  0  0  0  0  0  0
  -23.7912  -27.6841   22.9061 N   0  0  0  0  0  0  0  0  0  0  0  0
  -25.4862  -22.3314   25.8649 N   0  0  0  0  0  0  0  0  0  0  0  0
  -22.5660  -28.1175   23.2482 N   0  0  0  0  0  0  0  0  0  0  0  0
  -27.8940  -17.9628   20.2176 N   0  0  0  0  0  0  0  0  0  0  0  0
  -23.5678  -26.1585   25.7873 N   0  0  0  0  0  0  0  0  0  0  0  0
  -20.7696  -29.4757   22.5140 N   0  0  0  0  0  0  0  0  0  0  0  0
  -23.7960  -29.8613   19.1841 N   0  0  0  0  0  0  0  0  0  0  0  0
  -25.6367  -25.2021   26.4068 N   0  0  0  0  0  0  0  0  0  0  0  0
  -25.4463  -15.4040   20.6547 N   0  0  0  0  0  0  0  0  0  0  0  0
  -29.6823  -19.5226   17.8035 N   0  0  0  0  0  0  0  0  0  0  0  0
  -30.2263  -23.0615   18.3018 N   0  3  0  0  0  0  0  0  0  0  0  0
  -21.7246  -30.5315   19.9044 O   0  0  0  0  0  0  0  0  0  0  0  0
  -27.6497  -15.5976   21.3828 O   0  0  0  0  0  0  0  0  0  0  0  0
  -27.3343  -17.8878   17.9554 O   0  0  0  0  0  0  0  0  0  0  0  0
  -30.9492  -20.5866   19.4283 O   0  0  0  0  0  0  0  0  0  0  0  0
  -24.5981  -24.5623   24.4473 O   0  0  0  0  0  0  0  0  0  0  0  0
  -28.7897  -27.4009   18.9711 O   0  0  0  0  0  0  0  0  0  0  0  0
  -29.8589  -19.0320   25.9664 O   0  0  0  0  0  0  0  0  0  1  0  0
  -30.7119  -22.4003   25.9697 O   0  0  0  0  0  0  0  0  0  0  0  0
  -29.9615  -24.1948   27.9050 O   0  0  0  0  0  0  0  0  0  0  0  0
  -33.4820  -27.6658   21.8548 F   0  0  0  0  0  0  0  0  0  0  0  0
  -30.7492  -29.2411   18.3255 F   0  0  0  0  0  0  0  0  0  0  0  0
  1  2  1  0  0  0  0
  1  5  2  0  0  0  0
  2  6  2  0  0  0  0
  3  8  2  0  0  0  0
  3 15  1  0  0  0  0
  4  9  1  0  0  0  0
  4 15  2  0  0  0  0
  5 17  1  0  0  0  0
  6 19  1  0  0  0  0
  7 10  2  0  0  0  0
  7 18  1  0  0  0  0
  8 21  1  0  0  0  0
  9 21  2  0  0  0  0
 10 22  1  0  0  0  0
 11 12  2  0  0  0  0
 11 23  1  0  0  0  0
 12 24  1  0  0  0  0
 13 20  1  0  0  0  0
 13 22  2  0  0  0  0
 14 24  2  0  0  0  0
 14 25  1  0  0  0  0
 15 26  1  0  0  0  0
 16 26  1  0  0  0  0
 16 27  2  0  0  0  0
 16 37  1  0  0  0  0
 17 19  2  0  0  0  0
 17 42  1  0  0  0  0
 18 20  2  0  0  0  0
 18 43  1  0  0  0  0
 19 51  1  0  0  0  0
 20 44  1  0  0  0  0
 21 85  1  0  0  0  0
 22 86  1  0  0  0  0
 23 25  2  0  0  0  0
 23 85  1  0  0  0  0
 24 89  1  0  0  0  0
 25 90  1  0  0  0  0
 26 69  2  0  0  0  0
 27 71  1  0  0  0  0
 27 74  1  0  0  0  0
 28 30  2  0  0  0  0
 28 32  1  0  0  0  0
 29 31  2  0  0  0  0
 29 33  1  0  0  0  0
 30 34  1  0  0  0  0
 30 36  1  0  0  0  0
 31 34  1  0  0  0  0
 31 76  1  0  0  0  0
 32 33  2  0  0  0  0
 32 87  1  0  0  0  0
 33 88  1  0  0  0  0
 34 70  2  0  0  0  0
 35 36  2  0  0  0  0
 37 75  1  0  0  0  0
 37 80  2  0  0  0  0
 38 52  1  0  0  0  0
 38 77  1  0  0  0  0
 38 81  2  0  0  0  0
 39 66  1  0  0  0  0
 39 72  1  0  0  0  0
 39 82  2  0  0  0  0
 40 67  1  0  0  0  0
 40 78  1  0  0  0  0
 40 83  2  0  0  0  0
 41 73  1  0  0  0  0
 41 76  1  0  0  0  0
 41 84  2  0  0  0  0
 42 45  1  0  0  0  0
 43 52  1  0  0  0  0
 44 72  1  0  0  0  0
 45 47  1  0  0  0  0
 46 48  1  0  0  0  0
 46 49  1  0  0  0  0
 47 51  1  0  0  0  0
 48 53  1  0  0  0  0
 49 73  1  0  0  0  0
 50 53  1  0  0  0  0
 50 73  1  0  0  0  0
 51 77  1  0  0  0  0
 52 72  1  0  0  0  0
 53 71  1  0  0  0  0
 54 62  1  0  0  0  0
 55 63  1  0  0  0  0
 56 67  1  0  0  0  0
 57 68  1  0  0  0  0
 58 68  1  0  0  0  0
 59 68  1  0  0  0  0
 60 79  1  0  0  0  0
 61 64  1  0  0  0  0
 61 65  1  0  0  0  0
 62 70  1  0  0  0  0
 63 88  1  0  0  0  0
 64 86  1  0  0  0  0
 65 87  1  0  0  0  0
 66 68  1  0  0  0  0
 66 78  1  0  0  0  0
 67 79  1  0  0  0  0
 69 71  1  0  0  0  0
M  CHG  1  79   1
M  ISO  4  41 100  64 101  76 100  86 101
M  END
> <Batch ID>
0113

> <Smiles>
C=Cc1cc(OCC[101CH2:1][101O:1]c2ccc3c(c2)CN(C(=O)C(NC(=O)C(C)NC)C(C)(C)C)C(C(=O)NC2CCCc4ccccc42)C3)c(OCC)cc([100NH:0][100C:0](=O)N2CCCC(n3nc(-c4ccc(Oc5ccc(F)cc5F)cc4)c(C(N)=O)c3N)C2)c1=NCC

> <Shape>
0.182

> <Color>
0.052

> <Negative vol penalty>
0.000

$$$$

  -OEChem-04052301343D

 80 88  0     1  0  0  0  0  0999 V2000
  -22.7410  -10.9237   20.1040 C   0  0  0  0  0  0  0  0  0  0  0  0
  -22.0690  -12.1369   20.2141 C   0  0  0  0  0  0  0  0  0  0  0  0
  -30.0225  -27.1516   20.9036 C   0  0  0  0  0  0  0  0  0  0  0  0
  -28.4778  -25.2942   20.8761 C   0  0  0  0  0  0  0  0  0  0  0  0
  -24.1047  -10.8554   20.3860 C   0  0  0  0  0  0  0  0  0  0  0  0
  -22.7602  -13.2823   20.6074 C   0  0  0  0  0  0  0  0  0  0  0  0
  -21.7640  -19.0181   18.7065 C   0  0  0  0  0  0  0  0  0  0  0  0
  -31.0015  -26.3293   21.4612 C   0  0  0  0  0  0  0  0  0  0  0  0
  -29.4567  -24.4718   21.4337 C   0  0  0  0  0  0  0  0  0  0  0  0
  -21.0633  -20.0842   19.2687 C   0  0  0  0  0  0  0  0  0  0  0  0
  -33.1674  -23.9609   20.3968 C   0  0  0  0  0  0  0  0  0  0  0  0
  -34.4544  -24.0323   19.8640 C   0  0  0  0  0  0  0  0  0  0  0  0
  -23.1203  -20.9411   20.1927 C   0  0  0  0  0  0  0  0  0  0  0  0
  -35.3109  -24.6990   22.0225 C   0  0  0  0  0  0  0  0  0  0  0  0
  -18.7998  -26.2924   22.3524 C   0  0  0  0  0  0  0  0  0  0  0  0
  -19.3265  -28.4215   22.8046 C   0  0  0  0  0  0  0  0  0  0  0  0
  -28.7606  -26.6341   20.6111 C   0  0  0  0  0  0  0  0  0  0  0  0
  -20.1383  -26.4539   22.0702 C   0  0  0  0  0  0  0  0  0  0  0  0
  -27.5040  -27.7069   18.6674 C   0  0  0  0  0  0  0  0  0  0  0  0
  -24.8150  -12.0025   20.7737 C   0  0  0  0  0  0  0  0  0  0  0  0
  -23.1488  -18.8993   18.8926 C   0  0  0  0  0  0  0  0  0  0  0  0
  -24.1344  -13.2289   20.8963 C   0  0  0  0  0  0  0  0  0  0  0  0
  -23.8366  -19.8739   19.6296 C   0  0  0  0  0  0  0  0  0  0  0  0
  -20.4715  -27.8009   22.3562 C   0  0  0  0  0  0  0  0  0  0  0  0
  -30.7186  -24.9893   21.7262 C   0  0  0  0  0  0  0  0  0  0  0  0
  -21.7409  -21.0444   20.0144 C   0  0  0  0  0  0  0  0  0  0  0  0
  -32.9520  -24.2586   21.7425 C   0  0  0  0  0  0  0  0  0  0  0  0
  -35.5262  -24.4013   20.6769 C   0  0  0  0  0  0  0  0  0  0  0  0
  -34.0238  -24.6276   22.5553 C   0  0  0  0  0  0  0  0  0  0  0  0
  -27.7488  -27.4833   20.0356 C   0  0  0  0  0  0  0  0  0  0  0  0
  -26.4478  -28.5846   18.6465 C   0  0  0  0  0  0  0  0  0  0  0  0
  -21.0178  -25.3867   21.5646 C   0  0  0  0  0  0  0  0  0  0  0  0
  -20.8889  -24.0802   21.8435 C   0  0  0  0  0  0  0  0  0  0  0  0
  -28.1717  -27.1692   17.5182 C   0  0  0  0  0  0  0  0  0  0  0  0
  -25.0526  -16.7504   20.2569 C   0  0  0  0  0  0  0  0  0  0  0  0
  -27.3988  -18.6203   19.0234 C   0  0  0  0  0  0  0  0  0  0  0  0
  -28.3620  -21.6939   17.8955 C   0  0  0  0  0  0  0  0  0  0  0  0
  -22.0431  -29.7639   22.5082 C   0  0  0  0  0  0  0  0  0  0  0  0
  -26.2783  -11.8698   21.1140 C   0  0  0  0  0  0  0  0  0  0  0  0
  -23.8942  -17.7579   18.2571 C   0  0  0  0  0  0  0  0  0  0  0  0
  -25.3261  -19.8032   19.8418 C   0  0  0  0  0  0  0  0  0  0  0  0
  -27.0160  -13.2053   21.1621 C   0  0  0  0  0  0  0  0  0  0  0  0
  -24.4288  -32.0763   21.2283 C   0  0  0  0  0  0  0  0  0  0  0  0
  -26.2127  -14.2306   21.9560 C   0  0  0  0  0  0  0  0  0  0  0  0
  -25.5257  -31.1812   20.6473 C   0  0  0  0  0  0  0  0  0  0  0  0
  -23.8335  -31.4871   22.5059 C   0  0  0  0  0  0  0  0  0  0  0  0
  -24.4544  -29.2078   21.8070 C   0  0  0  0  0  0  0  0  0  0  0  0
  -24.8546  -14.4984   21.2961 C   0  0  1  0  0  0  0  0  0  0  0  0
  -25.2238  -17.4574   18.9421 C   0  0  1  0  0  0  0  0  0  0  0  0
  -25.0394  -29.7279   20.4837 C   0  0  2  0  0  0  0  0  0  0  0  0
  -30.3516  -22.9245   16.9877 C   0  0  0  0  0  0  0  0  0  0  0  0
  -28.5876  -18.7637   21.8299 C   0  0  0  0  0  0  0  0  0  0  0  0
  -29.9625  -20.7141   21.0723 C   0  0  0  0  0  0  0  0  0  0  0  0
  -30.2674  -18.4833   19.9984 C   0  0  0  0  0  0  0  0  0  0  0  0
  -16.9518  -27.7473   23.2000 C   0  0  0  0  0  0  0  0  0  0  0  0
  -26.9814  -22.2793   15.3440 C   0  0  0  0  0  0  0  0  0  0  0  0
  -21.8168  -23.0329   21.3167 C   0  0  0  0  0  0  0  0  0  1  0  0
  -28.1772  -19.8190   19.5095 C   0  0  1  0  0  0  0  0  0  0  0  0
  -29.1082  -22.1192   16.6439 C   0  0  2  0  0  0  0  0  0  0  0  0
  -29.2203  -19.4456   20.6003 C   0  0  0  0  0  0  0  0  0  0  0  0
  -26.9152  -28.1642   20.8265 N   0  0  0  0  0  0  0  0  0  0  0  0
  -18.3167  -27.4949   22.7984 N   0  0  0  0  0  0  0  0  0  0  0  0
  -26.1364  -28.8243   19.9526 N   0  0  0  0  0  0  0  0  0  0  0  0
  -26.0094  -18.6648   19.2057 N   0  0  0  0  0  0  0  0  0  0  0  0
  -23.3906  -30.1105   22.2741 N   0  0  0  0  0  0  0  0  0  0  0  0
  -25.7643  -29.1670   17.6385 N   0  0  0  0  0  0  0  0  0  0  0  0
  -29.2371  -26.2810   17.7191 N   0  0  0  0  0  0  0  0  0  0  0  0
  -21.7314  -28.4352   22.2219 N   0  0  0  0  0  0  0  0  0  0  0  0
  -25.0115  -15.3731   20.1538 N   0  0  0  0  0  0  0  0  0  0  0  0
  -28.7515  -20.4418   18.3218 N   0  0  0  0  0  0  0  0  0  0  0  0
  -28.2311  -22.9559   15.7770 N   0  3  0  0  0  0  0  0  0  0  0  0
  -27.8441  -27.4802   16.3479 O   0  0  0  0  0  0  0  0  0  0  0  0
  -24.9659  -17.4060   21.2886 O   0  0  0  0  0  0  0  0  0  0  0  0
  -28.0007  -17.6822   18.4948 O   0  0  0  0  0  0  0  0  0  0  0  0
  -27.5205  -22.4032   18.4427 O   0  0  0  0  0  0  0  0  0  0  0  0
  -21.2196  -30.5921   22.9056 O   0  0  0  0  0  0  0  0  0  0  0  0
  -31.6737  -24.1865   22.2701 O   0  0  0  0  0  0  0  0  0  0  0  0
  -21.0593  -22.0856   20.5648 O   0  0  0  0  0  0  0  0  0  1  0  0
  -36.7624  -24.4684   20.1655 F   0  0  0  0  0  0  0  0  0  0  0  0
  -33.8233  -24.9136   23.8491 F   0  0  0  0  0  0  0  0  0  0  0  0
  1  2  1  0  0  0  0
  1  5  2  0  0  0  0
  2  6  2  0  0  0  0
  3  8  2  0  0  0  0
  3 17  1  0  0  0  0
  4  9  1  0  0  0  0
  4 17  2  0  0  0  0
  5 20  1  0  0  0  0
  6 22  1  0  0  0  0
  7 10  2  0  0  0  0
  7 21  1  0  0  0  0
  8 25  1  0  0  0  0
  9 25  2  0  0  0  0
 10 26  1  0  0  0  0
 11 12  2  0  0  0  0
 11 27  1  0  0  0  0
 12 28  1  0  0  0  0
 13 23  1  0  0  0  0
 13 26  2  0  0  0  0
 14 28  2  0  0  0  0
 14 29  1  0  0  0  0
 15 18  2  0  0  0  0
 15 62  1  0  0  0  0
 16 24  2  0  0  0  0
 16 62  1  0  0  0  0
 17 30  1  0  0  0  0
 18 24  1  0  0  0  0
 18 32  1  0  0  0  0
 19 30  1  0  0  0  0
 19 31  2  0  0  0  0
 19 34  1  0  0  0  0
 20 22  2  0  0  0  0
 20 39  1  0  0  0  0
 21 23  2  0  0  0  0
 21 40  1  0  0  0  0
 22 48  1  0  0  0  0
 23 41  1  0  0  0  0
 24 68  1  0  0  0  0
 25 77  1  0  0  0  0
 26 78  1  0  0  0  0
 27 29  2  0  0  0  0
 27 77  1  0  0  0  0
 28 79  1  0  0  0  0
 29 80  1  0  0  0  0
 30 61  2  0  0  0  0
 31 63  1  0  0  0  0
 31 66  1  0  0  0  0
 32 33  2  0  0  0  0
 33 57  1  0  0  0  0
 34 67  1  0  0  0  0
 34 72  2  0  0  0  0
 35 49  1  0  0  0  0
 35 69  1  0  0  0  0
 35 73  2  0  0  0  0
 36 58  1  0  0  0  0
 36 64  1  0  0  0  0
 36 74  2  0  0  0  0
 37 59  1  0  0  0  0
 37 70  1  0  0  0  0
 37 75  2  0  0  0  0
 38 65  1  0  0  0  0
 38 68  1  0  0  0  0
 38 76  2  0  0  0  0
 39 42  1  0  0  0  0
 40 49  1  0  0  0  0
 41 64  1  0  0  0  0
 42 44  1  0  0  0  0
 43 45  1  0  0  0  0
 43 46  1  0  0  0  0
 44 48  1  0  0  0  0
 45 50  1  0  0  0  0
 46 65  1  0  0  0  0
 47 50  1  0  0  0  0
 47 65  1  0  0  0  0
 48 69  1  0  0  0  0
 49 64  1  0  0  0  0
 50 63  1  0  0  0  0
 51 59  1  0  0  0  0
 52 60  1  0  0  0  0
 53 60  1  0  0  0  0
 54 60  1  0  0  0  0
 55 62  1  0  0  0  0
 56 71  1  0  0  0  0
 57 78  1  0  0  0  0
 58 60  1  0  0  0  0
 58 70  1  0  0  0  0
 59 71  1  0  0  0  0
 61 63  1  0  0  0  0
M  CHG  1  71   1
M  ISO  4  38 100  57 101  68 100  78 101
M  END
> <Batch ID>
0113

> <Smiles>
CNC(C)C(=O)NC(C(=O)N1Cc2cc([101O:1][101CH2:1]C=Cc3cn(C)cc3[100NH:0][100C:0](=O)N3CCCC(n4nc(-c5ccc(Oc6ccc(F)cc6F)cc5)c(C(N)=O)c4N)C3)ccc2CC1C(=O)NC1CCCc2ccccc21)C(C)(C)C

> <Shape>
0.239

> <Color>
0.071

> <Negative vol penalty>
0.000

$$$$

  -OEChem-04052301343D

 86 94  0     1  0  0  0  0  0999 V2000
  -20.3771  -10.4185   18.6860 C   0  0  0  0  0  0  0  0  0  0  0  0
  -20.5218  -11.7910   18.5110 C   0  0  0  0  0  0  0  0  0  0  0  0
  -19.7092  -28.5108   23.4248 C   0  0  0  0  0  0  0  0  0  0  0  0
  -20.5533  -26.6782   22.0958 C   0  0  0  0  0  0  0  0  0  0  0  0
  -21.2323   -9.7327   19.5476 C   0  0  0  0  0  0  0  0  0  0  0  0
  -21.5212  -12.4788   19.1984 C   0  0  0  0  0  0  0  0  0  0  0  0
  -25.9656  -18.0515   18.4855 C   0  0  0  0  0  0  0  0  0  0  0  0
  -18.6040  -28.6142   22.5802 C   0  0  0  0  0  0  0  0  0  0  0  0
  -19.4481  -26.7816   21.2512 C   0  0  0  0  0  0  0  0  0  0  0  0
  -26.3524  -19.2130   19.1528 C   0  0  0  0  0  0  0  0  0  0  0  0
  -15.6655  -27.0075   22.1149 C   0  0  0  0  0  0  0  0  0  0  0  0
  -14.4098  -27.1505   22.7050 C   0  0  0  0  0  0  0  0  0  0  0  0
  -28.7156  -25.4954   21.0847 C   0  0  0  0  0  0  0  0  0  0  0  0
  -27.8222  -17.9112   20.5543 C   0  0  0  0  0  0  0  0  0  0  0  0
  -30.3891  -27.1288   21.6917 C   0  0  0  0  0  0  0  0  0  0  0  0
  -14.1197  -29.2662   21.5752 C   0  0  0  0  0  0  0  0  0  0  0  0
  -20.6839  -27.5428   23.1826 C   0  0  0  0  0  0  0  0  0  0  0  0
  -29.6937  -24.7287   20.4513 C   0  0  0  0  0  0  0  0  0  0  0  0
  -31.0194  -25.1621   20.4381 C   0  0  0  0  0  0  0  0  0  0  0  0
  -21.9392  -26.6463   25.2144 C   0  0  0  0  0  0  0  0  0  0  0  0
  -22.2489  -10.4109   20.2385 C   0  0  0  0  0  0  0  0  0  0  0  0
  -26.4970  -16.8077   18.8555 C   0  0  0  0  0  0  0  0  0  0  0  0
  -22.3899  -11.8018   20.0711 C   0  0  0  0  0  0  0  0  0  0  0  0
  -27.4425  -16.7358   19.8885 C   0  0  0  0  0  0  0  0  0  0  0  0
  -29.0633  -26.6955   21.7048 C   0  0  0  0  0  0  0  0  0  0  0  0
  -31.3672  -26.3622   21.0583 C   0  0  0  0  0  0  0  0  0  0  0  0
  -18.4734  -27.7496   21.4934 C   0  0  0  0  0  0  0  0  0  0  0  0
  -27.2786  -19.1426   20.1892 C   0  0  0  0  0  0  0  0  0  0  0  0
  -16.1484  -27.9939   21.2549 C   0  0  0  0  0  0  0  0  0  0  0  0
  -13.6368  -28.2798   22.4352 C   0  0  0  0  0  0  0  0  0  0  0  0
  -15.3754  -29.1233   20.9851 C   0  0  0  0  0  0  0  0  0  0  0  0
  -21.8261  -27.4358   24.0544 C   0  0  0  0  0  0  0  0  0  0  0  0
  -23.2085  -26.8947   25.6765 C   0  0  0  0  0  0  0  0  0  0  0  0
  -34.4698  -21.6215   20.2130 C   0  0  0  0  0  0  0  0  0  0  0  0
  -32.0426  -24.3576   19.7734 C   0  0  0  0  0  0  0  0  0  0  0  0
  -33.7565  -22.5998   19.6440 C   0  0  0  0  0  0  0  0  0  0  0  0
  -32.7596  -23.3717   20.3517 C   0  0  0  0  0  0  0  0  0  0  0  0
  -28.6532  -22.4186   20.6628 C   0  0  0  0  0  0  0  0  0  0  0  0
  -28.2465  -21.2706   20.1155 C   0  0  0  0  0  0  0  0  0  1  0  0
  -29.2770  -23.4606   19.8053 C   0  0  0  0  0  0  0  0  0  0  0  0
  -20.9823  -25.7669   25.8201 C   0  0  0  0  0  0  0  0  0  0  0  0
  -25.2834  -14.0984   19.9916 C   0  0  0  0  0  0  0  0  0  0  0  0
  -28.3175  -13.0248   19.5861 C   0  0  0  0  0  0  0  0  0  0  0  0
  -31.6407  -13.7587   19.3318 C   0  0  0  0  0  0  0  0  0  0  0  0
  -28.2453  -28.6895   23.0092 C   0  0  0  0  0  0  0  0  0  0  0  0
  -23.1189   -9.6348   21.1953 C   0  0  0  0  0  0  0  0  0  0  0  0
  -26.0896  -15.5676   18.1081 C   0  0  0  0  0  0  0  0  0  0  0  0
  -28.0579  -15.4276   20.3106 C   0  0  0  0  0  0  0  0  0  0  0  0
  -24.3911  -10.3754   21.5993 C   0  0  0  0  0  0  0  0  0  0  0  0
  -26.5805  -30.2951   25.7162 C   0  0  0  0  0  0  0  0  0  0  0  0
  -24.0724  -11.8197   21.9723 C   0  0  0  0  0  0  0  0  0  0  0  0
  -25.1846  -29.6678   25.7066 C   0  0  0  0  0  0  0  0  0  0  0  0
  -27.1239  -30.4912   24.3019 C   0  0  0  0  0  0  0  0  0  0  0  0
  -25.7112  -28.6621   23.4486 C   0  0  0  0  0  0  0  0  0  0  0  0
  -23.4777  -12.5790   20.7801 C   0  0  1  0  0  0  0  0  0  0  0  0
  -26.3085  -14.2880   18.9094 C   0  0  1  0  0  0  0  0  0  0  0  0
  -25.1490  -28.3853   24.8525 C   0  0  2  0  0  0  0  0  0  0  0  0
  -33.8823  -12.6684   19.0423 C   0  0  0  0  0  0  0  0  0  0  0  0
  -28.2611  -12.1395   22.5055 C   0  0  0  0  0  0  0  0  0  0  0  0
  -30.7562  -11.9499   22.4236 C   0  0  0  0  0  0  0  0  0  0  0  0
  -29.3491  -10.5169   20.9441 C   0  0  0  0  0  0  0  0  0  0  0  0
  -32.1375  -15.1892   16.7890 C   0  0  0  0  0  0  0  0  0  0  0  0
  -29.5609  -12.9855   20.4413 C   0  0  1  0  0  0  0  0  0  0  0  0
  -32.6978  -13.3117   18.3382 C   0  0  2  0  0  0  0  0  0  0  0  0
  -29.4690  -11.9225   21.5722 C   0  0  0  0  0  0  0  0  0  0  0  0
  -22.9352  -28.1337   23.7955 N   0  0  0  0  0  0  0  0  0  0  0  0
  -23.7571  -27.7836   24.7995 N   0  0  0  0  0  0  0  0  0  0  0  0
  -27.6228  -14.2423   19.5535 N   0  0  0  0  0  0  0  0  0  0  0  0
  -27.0629  -29.2338   23.5536 N   0  0  0  0  0  0  0  0  0  0  0  0
  -32.7024  -26.8281   21.0614 N   0  0  0  0  0  0  0  0  0  0  0  0
  -23.8977  -26.4375   26.7435 N   0  0  0  0  0  0  0  0  0  0  0  0
  -19.7258  -25.6280   25.2150 N   0  0  0  0  0  0  0  0  0  0  0  0
  -28.0694  -27.4749   22.3470 N   0  0  0  0  0  0  0  0  0  0  0  0
  -24.5203  -12.9552   19.8495 N   0  0  0  0  0  0  0  0  0  0  0  0
  -30.6798  -12.7890   19.5260 N   0  0  0  0  0  0  0  0  0  0  0  0
  -33.1944  -14.4759   17.5514 N   0  3  0  0  0  0  0  0  0  0  0  0
  -29.4302  -23.3133   18.5976 O   0  0  0  0  0  0  0  0  0  0  0  0
  -21.2283  -25.1360   26.8760 O   0  0  0  0  0  0  0  0  0  0  0  0
  -25.1927  -14.9271   20.8897 O   0  0  0  0  0  0  0  0  0  0  0  0
  -27.9792  -12.0148   18.9640 O   0  0  0  0  0  0  0  0  0  0  0  0
  -31.6669  -14.8567   19.8834 O   0  0  0  0  0  0  0  0  0  0  0  0
  -29.3383  -29.2452   23.1456 O   0  0  0  0  0  0  0  0  0  0  0  0
  -17.3949  -27.8502   20.6692 O   0  0  0  0  0  0  0  0  0  0  0  0
  -27.6573  -20.2747   20.8426 O   0  0  0  0  0  0  0  0  0  1  0  0
  -12.4303  -28.4162   23.0008 F   0  0  0  0  0  0  0  0  0  0  0  0
  -15.8335  -30.0737   20.1588 F   0  0  0  0  0  0  0  0  0  0  0  0
  1  2  1  0  0  0  0
  1  5  2  0  0  0  0
  2  6  2  0  0  0  0
  3  8  2  0  0  0  0
  3 17  1  0  0  0  0
  4  9  1  0  0  0  0
  4 17  2  0  0  0  0
  5 21  1  0  0  0  0
  6 23  1  0  0  0  0
  7 10  2  0  0  0  0
  7 22  1  0  0  0  0
  8 27  1  0  0  0  0
  9 27  2  0  0  0  0
 10 28  1  0  0  0  0
 11 12  2  0  0  0  0
 11 29  1  0  0  0  0
 12 30  1  0  0  0  0
 13 18  1  0  0  0  0
 13 25  2  0  0  0  0
 14 24  1  0  0  0  0
 14 28  2  0  0  0  0
 15 25  1  0  0  0  0
 15 26  2  0  0  0  0
 16 30  2  0  0  0  0
 16 31  1  0  0  0  0
 17 32  1  0  0  0  0
 18 19  2  0  0  0  0
 18 40  1  0  0  0  0
 19 26  1  0  0  0  0
 19 35  1  0  0  0  0
 20 32  1  0  0  0  0
 20 33  2  0  0  0  0
 20 41  1  0  0  0  0
 21 23  2  0  0  0  0
 21 46  1  0  0  0  0
 22 24  2  0  0  0  0
 22 47  1  0  0  0  0
 23 55  1  0  0  0  0
 24 48  1  0  0  0  0
 25 73  1  0  0  0  0
 26 70  1  0  0  0  0
 27 83  1  0  0  0  0
 28 84  1  0  0  0  0
 29 31  2  0  0  0  0
 29 83  1  0  0  0  0
 30 85  1  0  0  0  0
 31 86  1  0  0  0  0
 32 66  2  0  0  0  0
 33 67  1  0  0  0  0
 33 71  1  0  0  0  0
 34 36  2  0  0  0  0
 35 37  2  0  0  0  0
 36 37  1  0  0  0  0
 38 39  2  0  0  0  0
 38 40  1  0  0  0  0
 39 84  1  0  0  0  0
 40 77  2  0  0  0  0
 41 72  1  0  0  0  0
 41 78  2  0  0  0  0
 42 56  1  0  0  0  0
 42 74  1  0  0  0  0
 42 79  2  0  0  0  0
 43 63  1  0  0  0  0
 43 68  1  0  0  0  0
 43 80  2  0  0  0  0
 44 64  1  0  0  0  0
 44 75  1  0  0  0  0
 44 81  2  0  0  0  0
 45 69  1  0  0  0  0
 45 73  1  0  0  0  0
 45 82  2  0  0  0  0
 46 49  1  0  0  0  0
 47 56  1  0  0  0  0
 48 68  1  0  0  0  0
 49 51  1  0  0  0  0
 50 52  1  0  0  0  0
 50 53  1  0  0  0  0
 51 55  1  0  0  0  0
 52 57  1  0  0  0  0
 53 69  1  0  0  0  0
 54 57  1  0  0  0  0
 54 69  1  0  0  0  0
 55 74  1  0  0  0  0
 56 68  1  0  0  0  0
 57 67  1  0  0  0  0
 58 64  1  0  0  0  0
 59 65  1  0  0  0  0
 60 65  1  0  0  0  0
 61 65  1  0  0  0  0
 62 76  1  0  0  0  0
 63 65  1  0  0  0  0
 63 75  1  0  0  0  0
 64 76  1  0  0  0  0
 66 67  1  0  0  0  0
M  CHG  1  76   1
M  ISO  4  39 101  45 100  73 100  84 101
M  END
> <Batch ID>
0113

> <Smiles>
C=CC=Cc1c(N)cc([100NH:0][100C:0](=O)N2CCCC(n3nc(-c4ccc(Oc5ccc(F)cc5F)cc4)c(C(N)=O)c3N)C2)cc1C(=O)C=[101CH:1][101O:1]c1ccc2c(c1)CN(C(=O)C(NC(=O)C(C)NC)C(C)(C)C)C(C(=O)NC1CCCc3ccccc31)C2

> <Shape>
0.255

> <Color>
0.067

> <Negative vol penalty>
0.000

$$$$

  -OEChem-04052301343D

 83 91  0     1  0  0  0  0  0999 V2000
  -20.6380   -9.4733   23.9053 C   0  0  0  0  0  0  0  0  0  0  0  0
  -21.4950  -10.5353   24.1755 C   0  0  0  0  0  0  0  0  0  0  0  0
  -24.1628  -30.9744   22.6001 C   0  0  0  0  0  0  0  0  0  0  0  0
  -23.8635  -28.9421   23.8718 C   0  0  0  0  0  0  0  0  0  0  0  0
  -20.9125   -8.6096   22.8458 C   0  0  0  0  0  0  0  0  0  0  0  0
  -22.6278  -10.7336   23.3868 C   0  0  0  0  0  0  0  0  0  0  0  0
  -23.2694  -15.5876   22.0938 C   0  0  0  0  0  0  0  0  0  0  0  0
  -22.7839  -31.1843   22.6110 C   0  0  0  0  0  0  0  0  0  0  0  0
  -22.4846  -29.1521   23.8828 C   0  0  0  0  0  0  0  0  0  0  0  0
  -23.8023  -16.4390   23.0607 C   0  0  0  0  0  0  0  0  0  0  0  0
  -19.8847  -28.7389   21.7612 C   0  0  0  0  0  0  0  0  0  0  0  0
  -19.0609  -27.6486   21.4818 C   0  0  0  0  0  0  0  0  0  0  0  0
  -25.9693  -16.2587   22.0162 C   0  0  0  0  0  0  0  0  0  0  0  0
  -28.4481  -22.3583   22.5292 C   0  0  0  0  0  0  0  0  0  0  0  0
  -28.5387  -20.1630   21.5246 C   0  0  0  0  0  0  0  0  0  0  0  0
  -29.3422  -22.0853   20.3014 C   0  0  0  0  0  0  0  0  0  0  0  0
  -18.0299  -27.8704   23.6555 C   0  0  0  0  0  0  0  0  0  0  0  0
  -24.7026  -29.8532   23.2304 C   0  0  0  0  0  0  0  0  0  0  0  0
  -27.0640  -30.0900   24.1662 C   0  0  0  0  0  0  0  0  0  0  0  0
  -22.0440   -8.8031   22.0378 C   0  0  0  0  0  0  0  0  0  0  0  0
  -24.0861  -15.0558   21.0856 C   0  0  0  0  0  0  0  0  0  0  0  0
  -22.9184   -9.8709   22.3163 C   0  0  0  0  0  0  0  0  0  0  0  0
  -25.4437  -15.4029   21.0363 C   0  0  0  0  0  0  0  0  0  0  0  0
  -28.2104  -20.9858   22.6020 C   0  0  0  0  0  0  0  0  0  0  0  0
  -29.0139  -22.9081   21.3788 C   0  0  0  0  0  0  0  0  0  0  0  0
  -21.9448  -30.2732   23.2524 C   0  0  0  0  0  0  0  0  0  0  0  0
  -25.1531  -16.7724   23.0237 C   0  0  0  0  0  0  0  0  0  0  0  0
  -19.7812  -29.3950   22.9878 C   0  0  0  0  0  0  0  0  0  0  0  0
  -18.1335  -27.2143   22.4289 C   0  0  0  0  0  0  0  0  0  0  0  0
  -29.1045  -20.7127   20.3742 C   0  0  0  0  0  0  0  0  0  0  0  0
  -18.8538  -28.9608   23.9349 C   0  0  0  0  0  0  0  0  0  0  0  0
  -26.1269  -29.6355   23.2190 C   0  0  0  0  0  0  0  0  0  0  0  0
  -28.2711  -29.6233   23.7062 C   0  0  0  0  0  0  0  0  0  0  0  0
  -26.3487  -20.3710   23.7770 C   0  0  0  0  0  0  0  0  0  0  0  0
  -26.8614  -30.8646   25.3555 C   0  0  0  0  0  0  0  0  0  0  0  0
  -24.9666  -12.1254   20.2246 C   0  0  0  0  0  0  0  0  0  0  0  0
  -26.3375  -13.6898   17.7355 C   0  0  0  0  0  0  0  0  0  0  0  0
  -27.6319  -16.5953   16.4988 C   0  0  0  0  0  0  0  0  0  0  0  0
  -29.8096  -25.0079   20.2369 C   0  0  0  0  0  0  0  0  0  0  0  0
  -22.3246   -7.8155   20.9331 C   0  0  0  0  0  0  0  0  0  0  0  0
  -23.4902  -14.1601   20.0343 C   0  0  0  0  0  0  0  0  0  0  0  0
  -26.3587  -14.8749   19.9627 C   0  0  0  0  0  0  0  0  0  0  0  0
  -23.3442   -8.3158   19.9132 C   0  0  0  0  0  0  0  0  0  0  0  0
  -30.5314  -28.4450   19.6519 C   0  0  0  0  0  0  0  0  0  0  0  0
  -24.5521   -8.9232   20.6196 C   0  0  0  0  0  0  0  0  0  0  0  0
  -29.5734  -29.1816   20.5909 C   0  0  0  0  0  0  0  0  0  0  0  0
  -29.8906  -27.1929   19.0560 C   0  0  0  0  0  0  0  0  0  0  0  0
  -28.3586  -26.9991   20.9756 C   0  0  0  0  0  0  0  0  0  0  0  0
  -24.1439  -10.1335   21.4682 C   0  0  1  0  0  0  0  0  0  0  0  0
  -24.5235  -13.2673   19.3543 C   0  0  1  0  0  0  0  0  0  0  0  0
  -28.9817  -28.2318   21.6508 C   0  0  2  0  0  0  0  0  0  0  0  0
  -24.7309  -20.8741   25.5650 C   0  0  0  0  0  0  0  0  0  0  0  0
  -28.7106  -17.5549   14.4463 C   0  0  0  0  0  0  0  0  0  0  0  0
  -28.9506  -12.2892   18.4570 C   0  0  0  0  0  0  0  0  0  0  0  0
  -30.1574  -13.9593   17.0349 C   0  0  0  0  0  0  0  0  0  0  0  0
  -28.4824  -12.4249   16.0041 C   0  0  0  0  0  0  0  0  0  0  0  0
  -25.4514  -18.5623   16.1311 C   0  0  0  0  0  0  0  0  0  0  0  0
  -24.8027  -18.5838   24.5244 C   0  0  0  0  0  0  0  0  0  1  0  0
  -25.6230  -19.7914   24.9705 C   0  0  1  0  0  0  0  0  0  0  0  0
  -27.6865  -14.3173   17.4797 C   0  0  1  0  0  0  0  0  0  0  0  0
  -27.4023  -17.3218   15.1858 C   0  0  2  0  0  0  0  0  0  0  0  0
  -28.8026  -13.2562   17.2654 C   0  0  0  0  0  0  0  0  0  0  0  0
  -26.6903  -28.9342   22.2317 N   0  0  0  0  0  0  0  0  0  0  0  0
  -27.6405  -20.4319   23.7604 N   0  0  0  0  0  0  0  0  0  0  0  0
  -27.9945  -28.9445   22.5560 N   0  0  0  0  0  0  0  0  0  0  0  0
  -25.7303  -13.9977   18.9612 N   0  0  0  0  0  0  0  0  0  0  0  0
  -29.3561  -26.3388   20.1189 N   0  0  0  0  0  0  0  0  0  0  0  0
  -29.5315  -29.7317   24.1773 N   0  0  0  0  0  0  0  0  0  0  0  0
  -25.5569  -31.2610   25.6806 N   0  0  0  0  0  0  0  0  0  0  0  0
  -29.2551  -24.3024   21.3043 N   0  0  0  0  0  0  0  0  0  0  0  0
  -23.9392  -11.2939   20.6279 N   0  0  0  0  0  0  0  0  0  0  0  0
  -27.5057  -15.2297   16.3558 N   0  0  0  0  0  0  0  0  0  0  0  0
  -26.7590  -18.6436   15.4308 N   0  3  0  0  0  0  0  0  0  0  0  0
  -27.8110  -31.2094   26.0990 O   0  0  0  0  0  0  0  0  0  0  0  0
  -26.1528  -12.0066   20.5080 O   0  0  0  0  0  0  0  0  0  0  0  0
  -25.8377  -12.9592   16.8765 O   0  0  0  0  0  0  0  0  0  0  0  0
  -27.9002  -17.1804   17.5458 O   0  0  0  0  0  0  0  0  0  0  0  0
  -30.6498  -24.5378   19.4655 O   0  0  0  0  0  0  0  0  0  0  0  0
  -20.5992  -30.4779   23.2634 O   0  0  0  0  0  0  0  0  0  0  0  0
  -25.6760  -17.6027   23.9666 O   0  0  0  0  0  0  0  0  0  1  0  0
  -17.3414  -26.1682   22.1598 F   0  0  0  0  0  0  0  0  0  0  0  0
  -29.4198  -19.9227   19.3397 F   0  0  0  0  0  0  0  0  0  0  0  0
  -18.7489  -29.5878   25.1146 F   0  0  0  0  0  0  0  0  0  0  0  0
  1  2  1  0  0  0  0
  1  5  2  0  0  0  0
  2  6  2  0  0  0  0
  3  8  2  0  0  0  0
  3 18  1  0  0  0  0
  4  9  1  0  0  0  0
  4 18  2  0  0  0  0
  5 20  1  0  0  0  0
  6 22  1  0  0  0  0
  7 10  2  0  0  0  0
  7 21  1  0  0  0  0
  8 26  1  0  0  0  0
  9 26  2  0  0  0  0
 10 27  1  0  0  0  0
 11 12  2  0  0  0  0
 11 28  1  0  0  0  0
 12 29  1  0  0  0  0
 13 23  1  0  0  0  0
 13 27  2  0  0  0  0
 14 24  2  0  0  0  0
 14 25  1  0  0  0  0
 15 24  1  0  0  0  0
 15 30  2  0  0  0  0
 16 25  2  0  0  0  0
 16 30  1  0  0  0  0
 17 29  2  0  0  0  0
 17 31  1  0  0  0  0
 18 32  1  0  0  0  0
 19 32  1  0  0  0  0
 19 33  2  0  0  0  0
 19 35  1  0  0  0  0
 20 22  2  0  0  0  0
 20 40  1  0  0  0  0
 21 23  2  0  0  0  0
 21 41  1  0  0  0  0
 22 49  1  0  0  0  0
 23 42  1  0  0  0  0
 24 64  1  0  0  0  0
 25 70  1  0  0  0  0
 26 79  1  0  0  0  0
 27 80  1  0  0  0  0
 28 31  2  0  0  0  0
 28 79  1  0  0  0  0
 29 81  1  0  0  0  0
 30 82  1  0  0  0  0
 31 83  1  0  0  0  0
 32 63  2  0  0  0  0
 33 65  1  0  0  0  0
 33 68  1  0  0  0  0
 34 59  1  0  0  0  0
 34 64  2  0  0  0  0
 35 69  1  0  0  0  0
 35 74  2  0  0  0  0
 36 50  1  0  0  0  0
 36 71  1  0  0  0  0
 36 75  2  0  0  0  0
 37 60  1  0  0  0  0
 37 66  1  0  0  0  0
 37 76  2  0  0  0  0
 38 61  1  0  0  0  0
 38 72  1  0  0  0  0
 38 77  2  0  0  0  0
 39 67  1  0  0  0  0
 39 70  1  0  0  0  0
 39 78  2  0  0  0  0
 40 43  1  0  0  0  0
 41 50  1  0  0  0  0
 42 66  1  0  0  0  0
 43 45  1  0  0  0  0
 44 46  1  0  0  0  0
 44 47  1  0  0  0  0
 45 49  1  0  0  0  0
 46 51  1  0  0  0  0
 47 67  1  0  0  0  0
 48 51  1  0  0  0  0
 48 67  1  0  0  0  0
 49 71  1  0  0  0  0
 50 66  1  0  0  0  0
 51 65  1  0  0  0  0
 52 59  1  0  0  0  0
 53 61  1  0  0  0  0
 54 62  1  0  0  0  0
 55 62  1  0  0  0  0
 56 62  1  0  0  0  0
 57 73  1  0  0  0  0
 58 59  1  0  0  0  0
 58 80  1  0  0  0  0
 60 62  1  0  0  0  0
 60 72  1  0  0  0  0
 61 73  1  0  0  0  0
 63 65  1  0  0  0  0
M  CHG  1  73   1
M  ISO  4  39 100  58 101  70 100  80 101
M  END
> <Batch ID>
0113

> <Smiles>
CNC(C)C(=O)NC(C(=O)N1Cc2cc([101O:1][101CH2:1]C(C)=CNc3cc(F)cc([100NH:0][100C:0](=O)N4CCCC(n5nc(-c6ccc(Oc7ccc(F)cc7F)cc6)c(C(N)=O)c5N)C4)c3)ccc2CC1C(=O)NC1CCCc2ccccc21)C(C)(C)C

> <Shape>
0.275

> <Color>
0.055

> <Negative vol penalty>
0.000

$$$$

  -OEChem-04052301343D

 87 95  0     1  0  0  0  0  0999 V2000
  -24.4687  -32.0384   14.1973 C   0  0  0  0  0  0  0  0  0  0  0  0
  -25.1449  -31.0535   14.9102 C   0  0  0  0  0  0  0  0  0  0  0  0
  -22.8467  -10.2480   22.0364 C   0  0  0  0  0  0  0  0  0  0  0  0
  -23.6490   -9.6139   19.8475 C   0  0  0  0  0  0  0  0  0  0  0  0
  -24.1823  -33.2620   14.8013 C   0  0  0  0  0  0  0  0  0  0  0  0
  -25.5362  -31.2921   16.2271 C   0  0  0  0  0  0  0  0  0  0  0  0
  -24.5368  -27.3843   19.2891 C   0  0  0  0  0  0  0  0  0  0  0  0
  -22.2369   -9.0012   22.1741 C   0  0  0  0  0  0  0  0  0  0  0  0
  -23.0392   -8.3669   19.9852 C   0  0  0  0  0  0  0  0  0  0  0  0
  -25.4057  -26.2953   19.2358 C   0  0  0  0  0  0  0  0  0  0  0  0
  -23.1707   -5.8422   22.9371 C   0  0  0  0  0  0  0  0  0  0  0  0
  -23.3290   -5.1738   24.1510 C   0  0  0  0  0  0  0  0  0  0  0  0
  -29.1994  -17.1551   19.1373 C   0  0  0  0  0  0  0  0  0  0  0  0
  -26.9636  -18.7451   18.6320 C   0  0  0  0  0  0  0  0  0  0  0  0
  -26.5159  -27.0916   21.2239 C   0  0  0  0  0  0  0  0  0  0  0  0
  -20.9339   -5.1821   24.4679 C   0  0  0  0  0  0  0  0  0  0  0  0
  -23.5527  -10.5544   20.8730 C   0  0  0  0  0  0  0  0  0  0  0  0
  -28.2818  -16.7769   18.1573 C   0  0  0  0  0  0  0  0  0  0  0  0
  -27.1639  -17.5719   17.9046 C   0  0  0  0  0  0  0  0  0  0  0  0
  -25.4918  -12.1953   21.1075 C   0  0  0  0  0  0  0  0  0  0  0  0
  -24.5618  -33.5121   16.1295 C   0  0  0  0  0  0  0  0  0  0  0  0
  -24.6581  -28.3426   20.3056 C   0  0  0  0  0  0  0  0  0  0  0  0
  -25.2559  -32.5207   16.8490 C   0  0  0  0  0  0  0  0  0  0  0  0
  -25.6457  -28.1905   21.2893 C   0  0  0  0  0  0  0  0  0  0  0  0
  -22.3331   -8.0606   21.1486 C   0  0  0  0  0  0  0  0  0  0  0  0
  -26.3973  -26.1503   20.2017 C   0  0  0  0  0  0  0  0  0  0  0  0
  -21.8940   -6.1807   22.4886 C   0  0  0  0  0  0  0  0  0  0  0  0
  -28.9992  -18.3283   19.8647 C   0  0  0  0  0  0  0  0  0  0  0  0
  -27.8812  -19.1233   19.6121 C   0  0  0  0  0  0  0  0  0  0  0  0
  -22.2106   -4.8437   24.9165 C   0  0  0  0  0  0  0  0  0  0  0  0
  -20.7756   -5.8507   23.2540 C   0  0  0  0  0  0  0  0  0  0  0  0
  -24.1824  -11.8425   20.7299 C   0  0  0  0  0  0  0  0  0  0  0  0
  -25.6032  -13.5203   20.7635 C   0  0  0  0  0  0  0  0  0  0  0  0
  -29.6177  -15.3194   16.7059 C   0  0  0  0  0  0  0  0  0  0  0  0
  -28.5232  -15.5451   17.4164 C   0  0  0  0  0  0  0  0  0  0  0  0
  -26.1805  -17.2106   16.8900 C   0  0  0  0  0  0  0  0  0  0  0  0
  -26.5160  -11.3966   21.7148 C   0  0  0  0  0  0  0  0  0  0  0  0
  -24.7575  -17.5969   17.0276 C   0  0  0  0  0  0  0  0  0  0  0  0
  -25.2796  -31.4588   20.3880 C   0  0  0  0  0  0  0  0  0  0  0  0
  -27.4217  -22.6745   20.2004 C   0  0  0  0  0  0  0  0  0  0  0  0
  -24.6367  -31.1074   23.5480 C   0  0  0  0  0  0  0  0  0  0  0  0
  -24.4792  -29.0422   26.2603 C   0  0  0  0  0  0  0  0  0  0  0  0
  -24.2720  -34.8675   16.7242 C   0  0  0  0  0  0  0  0  0  0  0  0
  -23.6960  -29.4973   20.3643 C   0  0  0  0  0  0  0  0  0  0  0  0
  -25.8049  -29.1807   22.4130 C   0  0  0  0  0  0  0  0  0  0  0  0
  -24.3905  -34.9029   18.2457 C   0  0  0  0  0  0  0  0  0  0  0  0
  -22.1043  -16.8658   19.3260 C   0  0  0  0  0  0  0  0  0  0  0  0
  -25.6722  -34.2103   18.6977 C   0  0  0  0  0  0  0  0  0  0  0  0
  -22.4975  -15.5040   19.8975 C   0  0  0  0  0  0  0  0  0  0  0  0
  -22.5190  -16.9986   17.8642 C   0  0  0  0  0  0  0  0  0  0  0  0
  -24.3733  -15.3862   18.1966 C   0  0  0  0  0  0  0  0  0  0  0  0
  -25.6749  -32.7327   18.2876 C   0  0  1  0  0  0  0  0  0  0  0  0
  -24.2385  -30.6878   21.1491 C   0  0  1  0  0  0  0  0  0  0  0  0
  -23.9953  -15.2253   19.6794 C   0  0  2  0  0  0  0  0  0  0  0  0
  -23.9581  -29.0506   28.7151 C   0  0  0  0  0  0  0  0  0  0  0  0
  -27.3372  -32.4099   24.1143 C   0  0  0  0  0  0  0  0  0  0  0  0
  -27.1864  -31.5413   26.4576 C   0  0  0  0  0  0  0  0  0  0  0  0
  -25.4828  -33.1578   25.6164 C   0  0  0  0  0  0  0  0  0  0  0  0
  -22.2452  -27.1327   25.9109 C   0  0  0  0  0  0  0  0  0  0  0  0
  -30.9911  -19.5095   20.4057 C   0  0  0  0  0  0  0  0  0  0  0  0
  -26.7443  -23.8805   19.5825 C   0  0  0  0  0  0  0  0  0  1  0  0
  -26.9860  -21.3259   19.6652 C   0  0  0  0  0  0  0  0  0  0  0  0
  -25.4518  -30.7742   24.7742 C   0  0  1  0  0  0  0  0  0  0  0  0
  -23.4045  -28.8433   27.3139 C   0  0  2  0  0  0  0  0  0  0  0  0
  -26.3631  -31.9530   25.2185 C   0  0  0  0  0  0  0  0  0  0  0  0
  -23.5099  -12.8613   20.1877 N   0  0  0  0  0  0  0  0  0  0  0  0
  -26.4807  -16.5388   15.8141 N   0  0  0  0  0  0  0  0  0  0  0  0
  -24.4004  -13.8673   20.2222 N   0  0  0  0  0  0  0  0  0  0  0  0
  -23.9371  -16.6925   17.6872 N   0  0  0  0  0  0  0  0  0  0  0  0
  -24.8440  -30.2960   22.4235 N   0  0  0  0  0  0  0  0  0  0  0  0
  -26.6117  -14.4109   20.8743 N   0  0  0  0  0  0  0  0  0  0  0  0
  -26.2344  -10.0539   22.0014 N   0  0  0  0  0  0  0  0  0  0  0  0
  -24.8367  -31.9594   19.1786 N   0  0  0  0  0  0  0  0  0  0  0  0
  -24.5004  -30.3384   25.7908 N   0  0  0  0  0  0  0  0  0  0  0  0
  -22.8446  -27.4648   27.2290 N   0  3  0  0  0  0  0  0  0  0  0  0
  -27.6419  -11.8642   22.0100 O   0  0  0  0  0  0  0  0  0  0  0  0
  -24.4554  -18.6789   16.5414 O   0  0  0  0  0  0  0  0  0  0  0  0
  -26.4012  -31.5912   20.8636 O   0  0  0  0  0  0  0  0  0  0  0  0
  -28.2723  -22.7837   21.0822 O   0  0  0  0  0  0  0  0  0  0  0  0
  -23.8401  -32.0484   23.5888 O   0  0  0  0  0  0  0  0  0  0  0  0
  -25.2276  -28.1389   25.8935 O   0  0  0  0  0  0  0  0  0  0  0  0
  -21.7384   -6.8437   21.2828 O   0  0  0  0  0  0  0  0  0  0  0  0
  -29.9020  -18.6871   20.8199 O   0  0  0  0  0  0  0  0  0  0  0  0
  -27.2471  -25.0887   20.1517 O   0  0  0  0  0  0  0  0  0  1  0  0
  -27.6728  -20.2818   20.3224 O   0  0  0  0  0  0  0  0  0  0  0  0
  -22.3626   -4.2004   26.0814 F   0  0  0  0  0  0  0  0  0  0  0  0
  -19.5464   -6.1722   22.8277 F   0  0  0  0  0  0  0  0  0  0  0  0
  1  2  1  0  0  0  0
  1  5  2  0  0  0  0
  2  6  2  0  0  0  0
  3  8  2  0  0  0  0
  3 17  1  0  0  0  0
  4  9  1  0  0  0  0
  4 17  2  0  0  0  0
  5 21  1  0  0  0  0
  6 23  1  0  0  0  0
  7 10  2  0  0  0  0
  7 22  1  0  0  0  0
  8 25  1  0  0  0  0
  9 25  2  0  0  0  0
 10 26  1  0  0  0  0
 11 12  2  0  0  0  0
 11 27  1  0  0  0  0
 12 30  1  0  0  0  0
 13 18  1  0  0  0  0
 13 28  2  0  0  0  0
 14 19  1  0  0  0  0
 14 29  2  0  0  0  0
 15 24  1  0  0  0  0
 15 26  2  0  0  0  0
 16 30  2  0  0  0  0
 16 31  1  0  0  0  0
 17 32  1  0  0  0  0
 18 19  2  0  0  0  0
 18 35  1  0  0  0  0
 19 36  1  0  0  0  0
 20 32  1  0  0  0  0
 20 33  2  0  0  0  0
 20 37  1  0  0  0  0
 21 23  2  0  0  0  0
 21 43  1  0  0  0  0
 22 24  2  0  0  0  0
 22 44  1  0  0  0  0
 23 52  1  0  0  0  0
 24 45  1  0  0  0  0
 25 82  1  0  0  0  0
 26 84  1  0  0  0  0
 27 31  2  0  0  0  0
 27 82  1  0  0  0  0
 28 29  1  0  0  0  0
 28 83  1  0  0  0  0
 29 85  1  0  0  0  0
 30 86  1  0  0  0  0
 31 87  1  0  0  0  0
 32 66  2  0  0  0  0
 33 68  1  0  0  0  0
 33 71  1  0  0  0  0
 34 35  2  0  0  0  0
 36 38  1  0  0  0  0
 36 67  2  0  0  0  0
 37 72  1  0  0  0  0
 37 76  2  0  0  0  0
 38 69  1  0  0  0  0
 38 77  2  0  0  0  0
 39 53  1  0  0  0  0
 39 73  1  0  0  0  0
 39 78  2  0  0  0  0
 40 61  1  0  0  0  0
 40 62  1  0  0  0  0
 40 79  2  0  0  0  0
 41 63  1  0  0  0  0
 41 70  1  0  0  0  0
 41 80  2  0  0  0  0
 42 64  1  0  0  0  0
 42 74  1  0  0  0  0
 42 81  2  0  0  0  0
 43 46  1  0  0  0  0
 44 53  1  0  0  0  0
 45 70  1  0  0  0  0
 46 48  1  0  0  0  0
 47 49  1  0  0  0  0
 47 50  1  0  0  0  0
 48 52  1  0  0  0  0
 49 54  1  0  0  0  0
 50 69  1  0  0  0  0
 51 54  1  0  0  0  0
 51 69  1  0  0  0  0
 52 73  1  0  0  0  0
 53 70  1  0  0  0  0
 54 68  1  0  0  0  0
 55 64  1  0  0  0  0
 56 65  1  0  0  0  0
 57 65  1  0  0  0  0
 58 65  1  0  0  0  0
 59 75  1  0  0  0  0
 60 83  1  0  0  0  0
 61 84  1  0  0  0  0
 62 85  1  0  0  0  0
 63 65  1  0  0  0  0
 63 74  1  0  0  0  0
 64 75  1  0  0  0  0
 66 68  1  0  0  0  0
M  CHG  1  75   1
M  ISO  4  36 100  38 100  61 101  84 101
M  END
> <Batch ID>
0113

> <Smiles>
C=Cc1cc(OC)c(OCC(=O)[101CH2:1][101O:1]c2ccc3c(c2)CN(C(=O)C(NC(=O)C(C)NC)C(C)(C)C)C(C(=O)NC2CCCc4ccccc42)C3)cc1[100C:0](=N)[100C:0](=O)N1CCCC(n2nc(-c3ccc(Oc4ccc(F)cc4F)cc3)c(C(N)=O)c2N)C1

> <Shape>
0.256

> <Color>
0.111

> <Negative vol penalty>
0.000

$$$$

  -OEChem-04052301343D

 84 92  0     1  0  0  0  0  0999 V2000
  -36.7044  -25.0438    7.6560 C   0  0  0  0  0  0  0  0  0  0  0  0
  -36.5204  -25.5203    8.9500 C   0  0  0  0  0  0  0  0  0  0  0  0
  -23.0819   -9.8544   19.9345 C   0  0  0  0  0  0  0  0  0  0  0  0
  -23.8445   -9.8559   22.2270 C   0  0  0  0  0  0  0  0  0  0  0  0
  -35.8292  -24.0925    7.1336 C   0  0  0  0  0  0  0  0  0  0  0  0
  -35.4603  -25.0464    9.7221 C   0  0  0  0  0  0  0  0  0  0  0  0
  -33.7165  -23.5876   16.5153 C   0  0  0  0  0  0  0  0  0  0  0  0
  -22.3461   -8.6951   20.1800 C   0  0  0  0  0  0  0  0  0  0  0  0
  -23.1086   -8.6967   22.4726 C   0  0  0  0  0  0  0  0  0  0  0  0
  -32.7268  -23.8663   17.4569 C   0  0  0  0  0  0  0  0  0  0  0  0
  -19.8866   -7.8745   23.0752 C   0  0  0  0  0  0  0  0  0  0  0  0
  -19.1313   -7.8242   24.2467 C   0  0  0  0  0  0  0  0  0  0  0  0
  -31.3251  -22.1644   16.4782 C   0  0  0  0  0  0  0  0  0  0  0  0
  -31.1085  -17.7219   20.6121 C   0  0  0  0  0  0  0  0  0  0  0  0
  -29.6527  -19.3013   22.3923 C   0  0  0  0  0  0  0  0  0  0  0  0
  -20.3866   -5.8917   24.9728 C   0  0  0  0  0  0  0  0  0  0  0  0
  -23.8312  -10.4348   20.9580 C   0  0  0  0  0  0  0  0  0  0  0  0
  -24.1560  -12.9627   20.8491 C   0  0  0  0  0  0  0  0  0  0  0  0
  -34.7636  -23.5995    7.9031 C   0  0  0  0  0  0  0  0  0  0  0  0
  -33.5133  -22.6011   15.5397 C   0  0  0  0  0  0  0  0  0  0  0  0
  -34.5693  -24.0885    9.2091 C   0  0  0  0  0  0  0  0  0  0  0  0
  -32.3148  -21.8734   15.5270 C   0  0  0  0  0  0  0  0  0  0  0  0
  -31.2785  -19.1063   20.6158 C   0  0  0  0  0  0  0  0  0  0  0  0
  -30.5506  -19.8960   21.5059 C   0  0  0  0  0  0  0  0  0  0  0  0
  -30.2105  -17.1271   21.4984 C   0  0  0  0  0  0  0  0  0  0  0  0
  -22.3594   -8.1163   21.4490 C   0  0  0  0  0  0  0  0  0  0  0  0
  -31.5297  -23.1567   17.4367 C   0  0  0  0  0  0  0  0  0  0  0  0
  -20.8918   -6.9334   22.8523 C   0  0  0  0  0  0  0  0  0  0  0  0
  -29.4826  -17.9168   22.3885 C   0  0  0  0  0  0  0  0  0  0  0  0
  -19.3813   -6.8328   25.1956 C   0  0  0  0  0  0  0  0  0  0  0  0
  -21.1418   -5.9421   23.8012 C   0  0  0  0  0  0  0  0  0  0  0  0
  -24.5920  -11.6319   20.7048 C   0  0  0  0  0  0  0  0  0  0  0  0
  -25.2426  -13.7211   20.4880 C   0  0  0  0  0  0  0  0  0  0  0  0
  -29.9235  -21.9578   20.7437 C   0  0  0  0  0  0  0  0  0  0  0  0
  -22.8825  -13.4680   21.2719 C   0  0  0  0  0  0  0  0  0  0  0  0
  -33.3745  -22.5816   12.3642 C   0  0  0  0  0  0  0  0  0  0  0  0
  -33.2126  -19.3686   12.7796 C   0  0  0  0  0  0  0  0  0  0  0  0
  -32.4245  -16.7468   14.8172 C   0  0  0  0  0  0  0  0  0  0  0  0
  -30.7019  -14.8025   20.6612 C   0  0  0  0  0  0  0  0  0  0  0  0
  -33.8157  -22.6064    7.2787 C   0  0  0  0  0  0  0  0  0  0  0  0
  -34.6014  -22.2940   14.5477 C   0  0  0  0  0  0  0  0  0  0  0  0
  -32.0553  -20.7903   14.5130 C   0  0  0  0  0  0  0  0  0  0  0  0
  -32.9392  -21.8790    8.2949 C   0  0  0  0  0  0  0  0  0  0  0  0
  -29.6008  -12.3921   18.2832 C   0  0  0  0  0  0  0  0  0  0  0  0
  -32.3443  -22.8685    9.2919 C   0  0  0  0  0  0  0  0  0  0  0  0
  -28.1637  -12.0890   18.7131 C   0  0  0  0  0  0  0  0  0  0  0  0
  -30.5158  -12.6216   19.4848 C   0  0  0  0  0  0  0  0  0  0  0  0
  -28.6057  -13.3269   20.8716 C   0  0  0  0  0  0  0  0  0  0  0  0
  -33.4458  -23.5805   10.0865 C   0  0  1  0  0  0  0  0  0  0  0  0
  -34.0821  -21.6232   13.2797 C   0  0  1  0  0  0  0  0  0  0  0  0
  -27.6327  -13.1525   19.6941 C   0  0  2  0  0  0  0  0  0  0  0  0
  -32.2454  -19.7207   19.6572 C   0  0  0  0  0  0  0  0  0  0  0  0
  -32.3628  -14.2385   14.8652 C   0  0  0  0  0  0  0  0  0  0  0  0
  -30.6865  -19.4005   11.0684 C   0  0  0  0  0  0  0  0  0  0  0  0
  -30.1602  -17.1081   11.9265 C   0  0  0  0  0  0  0  0  0  0  0  0
  -32.2384  -17.4955   10.6023 C   0  0  0  0  0  0  0  0  0  0  0  0
  -34.3594  -16.6263   17.0534 C   0  0  0  0  0  0  0  0  0  0  0  0
  -27.2534  -17.2063   22.8144 C   0  0  0  0  0  0  0  0  0  0  0  0
  -29.9912  -23.4605   20.6888 C   0  0  0  0  0  0  0  0  0  0  0  0
  -30.9906  -23.8977   19.6312 C   0  0  0  0  0  0  0  0  0  1  0  0
  -32.0965  -18.3701   12.9702 C   0  0  1  0  0  0  0  0  0  0  0  0
  -33.1849  -15.4811   15.1698 C   0  0  2  0  0  0  0  0  0  0  0  0
  -31.2992  -18.1152   11.6599 C   0  0  0  0  0  0  0  0  0  0  0  0
  -25.8569  -11.5465   20.2846 N   0  0  0  0  0  0  0  0  0  0  0  0
  -30.7098  -21.2918   21.5249 N   0  0  0  0  0  0  0  0  0  0  0  0
  -26.2251  -12.8331   20.1617 N   0  0  0  0  0  0  0  0  0  0  0  0
  -33.1474  -20.5315   13.5601 N   0  0  0  0  0  0  0  0  0  0  0  0
  -29.9510  -13.6446   20.3675 N   0  0  0  0  0  0  0  0  0  0  0  0
  -25.4440  -15.0543   20.4209 N   0  0  0  0  0  0  0  0  0  0  0  0
  -21.8771  -12.5506   21.6062 N   0  0  0  0  0  0  0  0  0  0  0  0
  -30.0493  -15.7194   21.4846 N   0  0  0  0  0  0  0  0  0  0  0  0
  -33.9644  -22.7120   11.1214 N   0  0  0  0  0  0  0  0  0  0  0  0
  -32.7106  -17.1748   13.5380 N   0  0  0  0  0  0  0  0  0  0  0  0
  -33.5314  -15.4718   16.6192 N   0  3  0  0  0  0  0  0  0  0  0  0
  -22.6381  -14.6968   21.3352 O   0  0  0  0  0  0  0  0  0  0  0  0
  -32.3669  -23.1589   12.7557 O   0  0  0  0  0  0  0  0  0  0  0  0
  -34.1130  -19.1224   11.9732 O   0  0  0  0  0  0  0  0  0  0  0  0
  -31.6511  -17.2983   15.5970 O   0  0  0  0  0  0  0  0  0  0  0  0
  -31.8293  -14.9809   20.1930 O   0  0  0  0  0  0  0  0  0  0  0  0
  -21.6413   -6.9852   21.6890 O   0  0  0  0  0  0  0  0  0  0  0  0
  -28.5991  -17.3554   23.2615 O   0  0  0  0  0  0  0  0  0  0  0  0
  -30.5617  -23.4272   18.3541 O   0  0  0  0  0  0  0  0  0  1  0  0
  -18.6570   -6.7855   26.3213 F   0  0  0  0  0  0  0  0  0  0  0  0
  -22.1070   -5.0360   23.5933 F   0  0  0  0  0  0  0  0  0  0  0  0
  1  2  1  0  0  0  0
  1  5  2  0  0  0  0
  2  6  2  0  0  0  0
  3  8  2  0  0  0  0
  3 17  1  0  0  0  0
  4  9  1  0  0  0  0
  4 17  2  0  0  0  0
  5 19  1  0  0  0  0
  6 21  1  0  0  0  0
  7 10  2  0  0  0  0
  7 20  1  0  0  0  0
  8 26  1  0  0  0  0
  9 26  2  0  0  0  0
 10 27  1  0  0  0  0
 11 12  2  0  0  0  0
 11 28  1  0  0  0  0
 12 30  1  0  0  0  0
 13 22  1  0  0  0  0
 13 27  2  0  0  0  0
 14 23  1  0  0  0  0
 14 25  2  0  0  0  0
 15 24  1  0  0  0  0
 15 29  2  0  0  0  0
 16 30  2  0  0  0  0
 16 31  1  0  0  0  0
 17 32  1  0  0  0  0
 18 32  1  0  0  0  0
 18 33  2  0  0  0  0
 18 35  1  0  0  0  0
 19 21  2  0  0  0  0
 19 40  1  0  0  0  0
 20 22  2  0  0  0  0
 20 41  1  0  0  0  0
 21 49  1  0  0  0  0
 22 42  1  0  0  0  0
 23 24  2  0  0  0  0
 23 52  1  0  0  0  0
 24 65  1  0  0  0  0
 25 29  1  0  0  0  0
 25 71  1  0  0  0  0
 26 80  1  0  0  0  0
 27 82  1  0  0  0  0
 28 31  2  0  0  0  0
 28 80  1  0  0  0  0
 29 81  1  0  0  0  0
 30 83  1  0  0  0  0
 31 84  1  0  0  0  0
 32 64  2  0  0  0  0
 33 66  1  0  0  0  0
 33 69  1  0  0  0  0
 34 59  1  0  0  0  0
 34 65  2  0  0  0  0
 35 70  1  0  0  0  0
 35 75  2  0  0  0  0
 36 50  1  0  0  0  0
 36 72  1  0  0  0  0
 36 76  2  0  0  0  0
 37 61  1  0  0  0  0
 37 67  1  0  0  0  0
 37 77  2  0  0  0  0
 38 62  1  0  0  0  0
 38 73  1  0  0  0  0
 38 78  2  0  0  0  0
 39 68  1  0  0  0  0
 39 71  1  0  0  0  0
 39 79  2  0  0  0  0
 40 43  1  0  0  0  0
 41 50  1  0  0  0  0
 42 67  1  0  0  0  0
 43 45  1  0  0  0  0
 44 46  1  0  0  0  0
 44 47  1  0  0  0  0
 45 49  1  0  0  0  0
 46 51  1  0  0  0  0
 47 68  1  0  0  0  0
 48 51  1  0  0  0  0
 48 68  1  0  0  0  0
 49 72  1  0  0  0  0
 50 67  1  0  0  0  0
 51 66  1  0  0  0  0
 53 62  1  0  0  0  0
 54 63  1  0  0  0  0
 55 63  1  0  0  0  0
 56 63  1  0  0  0  0
 57 74  1  0  0  0  0
 58 81  1  0  0  0  0
 59 60  1  0  0  0  0
 60 82  1  0  0  0  0
 61 63  1  0  0  0  0
 61 73  1  0  0  0  0
 62 74  1  0  0  0  0
 64 66  1  0  0  0  0
M  CHG  1  74   1
M  ISO  4  39 100  60 101  71 100  82 101
M  END
> <Batch ID>
0113

> <Smiles>
CNC(C)C(=O)NC(C(=O)N1Cc2cc([101O:1][101CH2:1]C=CNc3cc(OC)c([100NH:0][100C:0](=O)N4CCCC(n5nc(-c6ccc(Oc7ccc(F)cc7F)cc6)c(C(N)=O)c5N)C4)cc3C)ccc2CC1C(=O)NC1CCCc2ccccc21)C(C)(C)C

> <Shape>
0.207

> <Color>
0.193

> <Negative vol penalty>
0.000

$$$$

  -OEChem-04052301343D

 89 98  0     1  0  0  0  0  0999 V2000
  -29.0921  -37.4164   19.8140 C   0  0  0  0  0  0  0  0  0  0  0  0
  -29.2269  -36.0873   19.4258 C   0  0  0  0  0  0  0  0  0  0  0  0
  -24.7157   -8.4921   20.7381 C   0  0  0  0  0  0  0  0  0  0  0  0
  -23.1123  -10.2733   20.4321 C   0  0  0  0  0  0  0  0  0  0  0  0
  -28.6087  -37.7246   21.0849 C   0  0  0  0  0  0  0  0  0  0  0  0
  -28.8793  -35.0655   20.3087 C   0  0  0  0  0  0  0  0  0  0  0  0
  -26.4020  -29.6499   18.8806 C   0  0  0  0  0  0  0  0  0  0  0  0
  -23.7297   -7.7073   21.3360 C   0  0  0  0  0  0  0  0  0  0  0  0
  -22.1263   -9.4885   21.0300 C   0  0  0  0  0  0  0  0  0  0  0  0
  -26.9540  -28.3806   18.7140 C   0  0  0  0  0  0  0  0  0  0  0  0
  -21.1228   -5.7975   20.3412 C   0  0  0  0  0  0  0  0  0  0  0  0
  -21.0290   -4.4628   19.9469 C   0  0  0  0  0  0  0  0  0  0  0  0
  -28.1633  -20.0587   16.0895 C   0  0  0  0  0  0  0  0  0  0  0  0
  -27.9219  -17.6641   16.3006 C   0  0  0  0  0  0  0  0  0  0  0  0
  -28.8150  -18.9547   18.1373 C   0  0  0  0  0  0  0  0  0  0  0  0
  -26.3788  -27.8379   20.9930 C   0  0  0  0  0  0  0  0  0  0  0  0
  -21.4506   -3.7616   22.2202 C   0  0  0  0  0  0  0  0  0  0  0  0
  -24.4070   -9.7752   20.2862 C   0  0  0  0  0  0  0  0  0  0  0  0
  -27.7852  -18.8303   15.5476 C   0  0  0  0  0  0  0  0  0  0  0  0
  -28.6783  -20.1209   17.3844 C   0  0  0  0  0  0  0  0  0  0  0  0
  -25.7518  -10.6458   18.3009 C   0  0  0  0  0  0  0  0  0  0  0  0
  -28.2459  -36.7062   21.9804 C   0  0  0  0  0  0  0  0  0  0  0  0
  -25.8430  -30.0272   20.1101 C   0  0  0  0  0  0  0  0  0  0  0  0
  -28.3919  -35.3604   21.5933 C   0  0  0  0  0  0  0  0  0  0  0  0
  -25.8180  -29.1117   21.1719 C   0  0  0  0  0  0  0  0  0  0  0  0
  -28.4368  -17.7263   17.5955 C   0  0  0  0  0  0  0  0  0  0  0  0
  -22.4350   -8.2054   21.4819 C   0  0  0  0  0  0  0  0  0  0  0  0
  -26.9451  -27.4754   19.7712 C   0  0  0  0  0  0  0  0  0  0  0  0
  -21.3806   -6.1142   21.6750 C   0  0  0  0  0  0  0  0  0  0  0  0
  -21.1929   -3.4449   20.8864 C   0  0  0  0  0  0  0  0  0  0  0  0
  -21.5445   -5.0963   22.6145 C   0  0  0  0  0  0  0  0  0  0  0  0
  -25.4252  -10.5866   19.6690 C   0  0  0  0  0  0  0  0  0  0  0  0
  -26.7767  -11.5575   18.2317 C   0  0  0  0  0  0  0  0  0  0  0  0
  -27.0914  -23.8905   19.6568 C   0  0  0  0  0  0  0  0  0  0  0  0
  -27.2484  -18.7653   14.1972 C   0  0  0  0  0  0  0  0  0  0  0  0
  -26.6696  -25.1527   19.7882 C   0  0  0  0  0  0  0  0  0  1  0  0
  -26.7126  -19.7975   13.5070 C   0  0  0  0  0  0  0  0  0  0  0  0
  -29.0780  -21.4186   17.9576 C   0  0  0  0  0  0  0  0  0  0  0  0
  -25.1798   -9.9397   17.1919 C   0  0  0  0  0  0  0  0  0  0  0  0
  -26.4789  -32.2721   22.2687 C   0  0  0  0  0  0  0  0  0  0  0  0
  -23.7509  -31.1767   23.6399 C   0  0  0  0  0  0  0  0  0  0  0  0
  -21.5361  -28.6109   24.0376 C   0  0  0  0  0  0  0  0  0  0  0  0
  -29.0688  -16.4270   19.6591 C   0  0  0  0  0  0  0  0  0  0  0  0
  -27.7728  -37.0878   23.3607 C   0  0  0  0  0  0  0  0  0  0  0  0
  -25.2275  -31.3908   20.2654 C   0  0  0  0  0  0  0  0  0  0  0  0
  -25.2117  -29.4606   22.5057 C   0  0  0  0  0  0  0  0  0  0  0  0
  -26.2340  -22.6729   19.8412 C   0  0  0  0  0  0  0  0  0  0  0  0
  -27.0733  -35.9507   24.1009 C   0  0  0  0  0  0  0  0  0  0  0  0
  -29.5352  -13.6972   21.8969 C   0  0  0  0  0  0  0  0  0  0  0  0
  -27.8772  -34.6601   23.9788 C   0  0  0  0  0  0  0  0  0  0  0  0
  -28.5344  -12.6495   21.4043 C   0  0  0  0  0  0  0  0  0  0  0  0
  -26.7997  -21.6869   18.8274 C   0  0  0  0  0  0  0  0  0  0  0  0
  -28.9816  -15.1151   21.7678 C   0  0  0  0  0  0  0  0  0  0  0  0
  -27.4839  -14.4206   19.9391 C   0  0  0  0  0  0  0  0  0  0  0  0
  -28.0020  -34.2243   22.5139 C   0  0  1  0  0  0  0  0  0  0  0  0
  -28.4585  -23.4795   19.1801 C   0  0  1  0  0  0  0  0  0  0  0  0
  -25.1466  -31.8478   21.7187 C   0  0  1  0  0  0  0  0  0  0  0  0
  -28.0219  -12.9813   19.9890 C   0  0  2  0  0  0  0  0  0  0  0  0
  -26.1638  -19.6821   12.1220 C   0  0  0  0  0  0  0  0  0  0  0  0
  -29.4617  -23.3781   20.3198 C   0  0  0  0  0  0  0  0  0  0  0  0
  -19.4254  -28.0006   25.2500 C   0  0  0  0  0  0  0  0  0  0  0  0
  -25.3390  -30.8214   26.2209 C   0  0  0  0  0  0  0  0  0  0  0  0
  -23.4921  -29.3625   27.0745 C   0  0  0  0  0  0  0  0  0  0  0  0
  -23.0396  -31.7546   26.5310 C   0  0  0  0  0  0  0  0  0  0  0  0
  -20.0677  -28.1810   21.5042 C   0  0  0  0  0  0  0  0  0  0  0  0
  -23.4177  -30.1066   24.6513 C   0  0  1  0  0  0  0  0  0  0  0  0
  -20.0201  -28.5694   23.9711 C   0  0  2  0  0  0  0  0  0  0  0  0
  -23.8354  -30.5051   26.0950 C   0  0  0  0  0  0  0  0  0  0  0  0
  -26.1815  -11.3962   20.4151 N   0  0  0  0  0  0  0  0  0  0  0  0
  -26.9935  -11.9726   19.5126 N   0  0  0  0  0  0  0  0  0  0  0  0
  -28.1897  -22.1345   18.6267 N   0  0  0  0  0  0  0  0  0  0  0  0
  -24.6281  -30.8082   22.6101 N   0  0  0  0  0  0  0  0  0  0  0  0
  -28.5192  -15.3592   20.3997 N   0  0  0  0  0  0  0  0  0  0  0  0
  -27.5046  -12.0366   17.2007 N   0  0  0  0  0  0  0  0  0  0  0  0
  -24.1341   -9.0401   17.4401 N   0  0  0  0  0  0  0  0  0  0  0  0
  -28.5758  -16.5412   18.3597 N   0  0  0  0  0  0  0  0  0  0  0  0
  -26.7730  -33.6067   22.0639 N   0  0  0  0  0  0  0  0  0  0  0  0
  -21.9941  -29.8278   24.4966 N   0  0  0  0  0  0  0  0  0  0  0  0
  -30.3258  -21.8483   17.7946 N   0  3  0  0  0  0  0  0  0  0  0  0
  -19.5746  -27.7227   22.8285 N   0  3  0  0  0  0  0  0  0  0  0  0
  -25.5950  -10.0896   16.0177 O   0  0  0  0  0  0  0  0  0  0  0  0
  -27.1870  -31.4499   22.8381 O   0  0  0  0  0  0  0  0  0  0  0  0
  -23.2456  -32.2961   23.7552 O   0  0  0  0  0  0  0  0  0  0  0  0
  -22.2431  -27.6577   23.7181 O   0  0  0  0  0  0  0  0  0  0  0  0
  -29.9342  -17.1677   20.1329 O   0  0  0  0  0  0  0  0  0  0  0  0
  -21.4726   -7.4398   22.0651 O   0  0  0  0  0  0  0  0  0  0  0  0
  -27.4839  -26.2360   19.6115 O   0  0  0  0  0  0  0  0  0  1  0  0
  -21.1013   -2.1633   20.5079 F   0  0  0  0  0  0  0  0  0  0  0  0
  -21.7911   -5.3944   23.8975 F   0  0  0  0  0  0  0  0  0  0  0  0
  1  2  1  0  0  0  0
  1  5  2  0  0  0  0
  2  6  2  0  0  0  0
  3  8  2  0  0  0  0
  3 18  1  0  0  0  0
  4  9  1  0  0  0  0
  4 18  2  0  0  0  0
  5 22  1  0  0  0  0
  6 24  1  0  0  0  0
  7 10  2  0  0  0  0
  7 23  1  0  0  0  0
  8 27  1  0  0  0  0
  9 27  2  0  0  0  0
 10 28  1  0  0  0  0
 11 12  2  0  0  0  0
 11 29  1  0  0  0  0
 12 30  1  0  0  0  0
 13 19  2  0  0  0  0
 13 20  1  0  0  0  0
 14 19  1  0  0  0  0
 14 26  2  0  0  0  0
 15 20  2  0  0  0  0
 15 26  1  0  0  0  0
 16 25  1  0  0  0  0
 16 28  2  0  0  0  0
 17 30  2  0  0  0  0
 17 31  1  0  0  0  0
 18 32  1  0  0  0  0
 19 35  1  0  0  0  0
 20 38  1  0  0  0  0
 21 32  1  0  0  0  0
 21 33  2  0  0  0  0
 21 39  1  0  0  0  0
 22 24  2  0  0  0  0
 22 44  1  0  0  0  0
 23 25  2  0  0  0  0
 23 45  1  0  0  0  0
 24 55  1  0  0  0  0
 25 46  1  0  0  0  0
 26 76  1  0  0  0  0
 27 86  1  0  0  0  0
 28 87  1  0  0  0  0
 29 31  2  0  0  0  0
 29 86  1  0  0  0  0
 30 88  1  0  0  0  0
 31 89  1  0  0  0  0
 32 69  2  0  0  0  0
 33 70  1  0  0  0  0
 33 74  1  0  0  0  0
 34 36  2  0  0  0  0
 34 47  1  0  0  0  0
 34 56  1  0  0  0  0
 35 37  2  0  0  0  0
 36 87  1  0  0  0  0
 37 59  1  0  0  0  0
 38 71  1  0  0  0  0
 38 79  2  0  0  0  0
 39 75  1  0  0  0  0
 39 81  2  0  0  0  0
 40 57  1  0  0  0  0
 40 77  1  0  0  0  0
 40 82  2  0  0  0  0
 41 66  1  0  0  0  0
 41 72  1  0  0  0  0
 41 83  2  0  0  0  0
 42 67  1  0  0  0  0
 42 78  1  0  0  0  0
 42 84  2  0  0  0  0
 43 73  1  0  0  0  0
 43 76  1  0  0  0  0
 43 85  2  0  0  0  0
 44 48  1  0  0  0  0
 45 57  1  0  0  0  0
 46 72  1  0  0  0  0
 47 52  1  0  0  0  0
 48 50  1  0  0  0  0
 49 51  1  0  0  0  0
 49 53  1  0  0  0  0
 50 55  1  0  0  0  0
 51 58  1  0  0  0  0
 52 71  1  0  0  0  0
 53 73  1  0  0  0  0
 54 58  1  0  0  0  0
 54 73  1  0  0  0  0
 55 77  1  0  0  0  0
 56 60  1  0  0  0  0
 56 71  1  0  0  0  0
 57 72  1  0  0  0  0
 58 70  1  0  0  0  0
 61 67  1  0  0  0  0
 62 68  1  0  0  0  0
 63 68  1  0  0  0  0
 64 68  1  0  0  0  0
 65 80  1  0  0  0  0
 66 68  1  0  0  0  0
 66 78  1  0  0  0  0
 67 80  1  0  0  0  0
 69 70  1  0  0  0  0
M  CHG  2  79   1  80   1
M  ISO  4  36 101  43 100  76 100  87 101
M  END
> <Batch ID>
0113

> <Smiles>
CC=Cc1cc([100NH:0][100C:0](=O)N2CCCC(n3nc(-c4ccc(Oc5ccc(F)cc5F)cc4)c(C(N)=O)c3N)C2)cc(C(=N)N2CCC(=[101CH:1][101O:1]c3ccc4c(c3)CN(C(=O)C(NC(=O)C(C)NC)C(C)(C)C)C(C(=O)NC3CCCc5ccccc53)C4)C2C)c1

> <Shape>
0.271

> <Color>
0.100

> <Negative vol penalty>
0.000

$$$$

  -OEChem-04052301343D

 91100  0     1  0  0  0  0  0999 V2000
  -17.1069  -24.7581   23.5215 C   0  0  0  0  0  0  0  0  0  0  0  0
  -17.7154  -24.3088   22.3539 C   0  0  0  0  0  0  0  0  0  0  0  0
  -23.2649  -11.8963   23.5503 C   0  0  0  0  0  0  0  0  0  0  0  0
  -24.3135  -14.0258   24.0002 C   0  0  0  0  0  0  0  0  0  0  0  0
  -17.4228  -26.0170   24.0308 C   0  0  0  0  0  0  0  0  0  0  0  0
  -18.6393  -25.1185   21.6943 C   0  0  0  0  0  0  0  0  0  0  0  0
  -25.3876  -22.8728   20.5504 C   0  0  0  0  0  0  0  0  0  0  0  0
  -22.6274  -11.9483   24.7898 C   0  0  0  0  0  0  0  0  0  0  0  0
  -23.6760  -14.0779   25.2397 C   0  0  0  0  0  0  0  0  0  0  0  0
  -26.6349  -22.4322   20.1074 C   0  0  0  0  0  0  0  0  0  0  0  0
  -19.9427  -13.4917   26.1473 C   0  0  0  0  0  0  0  0  0  0  0  0
  -18.5888  -13.1593   26.1943 C   0  0  0  0  0  0  0  0  0  0  0  0
  -30.4366  -19.6401   19.6982 C   0  0  0  0  0  0  0  0  0  0  0  0
  -27.0698  -24.6045   19.1379 C   0  0  0  0  0  0  0  0  0  0  0  0
  -32.5317  -18.6212   19.0585 C   0  0  0  0  0  0  0  0  0  0  0  0
  -19.0839  -11.3606   27.7295 C   0  0  0  0  0  0  0  0  0  0  0  0
  -24.1081  -12.9350   23.1555 C   0  0  0  0  0  0  0  0  0  0  0  0
  -29.9167  -18.3816   20.0004 C   0  0  0  0  0  0  0  0  0  0  0  0
  -24.1587  -12.8129   20.6079 C   0  0  0  0  0  0  0  0  0  0  0  0
  -18.3583  -26.8387   23.3824 C   0  0  0  0  0  0  0  0  0  0  0  0
  -24.9826  -24.1871   20.3019 C   0  0  0  0  0  0  0  0  0  0  0  0
  -18.9670  -26.3901   22.1947 C   0  0  0  0  0  0  0  0  0  0  0  0
  -25.8267  -25.0552   19.5901 C   0  0  0  0  0  0  0  0  0  0  0  0
  -31.7441  -19.7600   19.2272 C   0  0  0  0  0  0  0  0  0  0  0  0
  -30.7043  -17.2428   19.8317 C   0  0  0  0  0  0  0  0  0  0  0  0
  -22.8329  -13.0391   25.6345 C   0  0  0  0  0  0  0  0  0  0  0  0
  -27.4738  -23.2959   19.4027 C   0  0  0  0  0  0  0  0  0  0  0  0
  -20.8672  -12.7585   26.8912 C   0  0  0  0  0  0  0  0  0  0  0  0
  -32.0119  -17.3626   19.3607 C   0  0  0  0  0  0  0  0  0  0  0  0
  -18.1594  -12.0938   26.9855 C   0  0  0  0  0  0  0  0  0  0  0  0
  -20.4377  -11.6930   27.6824 C   0  0  0  0  0  0  0  0  0  0  0  0
  -24.7673  -12.8816   21.8754 C   0  0  0  0  0  0  0  0  0  0  0  0
  -25.2092  -12.7836   19.7236 C   0  0  0  0  0  0  0  0  0  0  0  0
  -31.7882  -23.6516   20.2064 C   0  0  0  0  0  0  0  0  0  0  0  0
  -31.0677  -23.1931   19.1668 C   0  0  0  0  0  0  0  0  0  0  0  0
  -33.1347  -23.1664   20.6006 C   0  0  0  0  0  0  0  0  0  0  0  0
  -28.1154  -18.9164   21.5766 C   0  0  0  0  0  0  0  0  0  0  0  0
  -28.5448  -18.2976   20.4880 C   0  0  0  0  0  0  0  0  0  0  0  0
  -22.7680  -12.7786   20.2608 C   0  0  0  0  0  0  0  0  0  0  0  0
  -22.3276  -26.8055   20.7159 C   0  0  0  0  0  0  0  0  0  0  0  0
  -25.0276  -28.2006   21.1328 C   0  0  0  0  0  0  0  0  0  0  0  0
  -27.5764  -30.2504   22.1017 C   0  0  0  0  0  0  0  0  0  0  0  0
  -30.8493  -14.7348   20.0192 C   0  0  0  0  0  0  0  0  0  0  0  0
  -18.6323  -28.2109   23.9450 C   0  0  0  0  0  0  0  0  0  0  0  0
  -23.6221  -24.6863   20.7067 C   0  0  0  0  0  0  0  0  0  0  0  0
  -25.3349  -26.4501   19.3157 C   0  0  0  0  0  0  0  0  0  0  0  0
  -34.0566  -22.6550   19.5225 C   0  0  0  0  0  0  0  0  0  0  0  0
  -19.9008  -28.8543   23.3907 C   0  0  0  0  0  0  0  0  0  0  0  0
  -29.7809  -11.3982   19.3843 C   0  0  0  0  0  0  0  0  0  0  0  0
  -19.9552  -28.7066   21.8735 C   0  0  0  0  0  0  0  0  0  0  0  0
  -28.3168  -11.3954   19.8301 C   0  0  0  0  0  0  0  0  0  0  0  0
  -33.7076  -21.2431   19.0806 C   0  0  0  0  0  0  0  0  0  0  0  0
  -30.6474  -12.2728   20.2888 C   0  0  0  0  0  0  0  0  0  0  0  0
  -28.6999  -13.6444   20.9173 C   0  0  0  0  0  0  0  0  0  0  0  0
  -19.9927  -27.2292   21.4640 C   0  0  1  0  0  0  0  0  0  0  0  0
  -31.4037  -22.0184   18.2572 C   0  0  1  0  0  0  0  0  0  0  0  0
  -23.6227  -26.1677   21.1249 C   0  0  1  0  0  0  0  0  0  0  0  0
  -27.7761  -12.8289   19.9980 C   0  0  2  0  0  0  0  0  0  0  0  0
  -31.9625  -22.4399   16.8938 C   0  0  0  0  0  0  0  0  0  0  0  0
  -28.2329  -32.6709   22.1892 C   0  0  0  0  0  0  0  0  0  0  0  0
  -25.5817  -28.1549   18.1337 C   0  0  0  0  0  0  0  0  0  0  0  0
  -27.0648  -30.1472   18.4492 C   0  0  0  0  0  0  0  0  0  0  0  0
  -24.6342  -30.3062   18.9872 C   0  0  0  0  0  0  0  0  0  0  0  0
  -27.8093  -30.2005   25.0517 C   0  0  0  0  0  0  0  0  0  0  0  0
  -34.1227  -16.4864   18.7032 C   0  0  0  0  0  0  0  0  0  0  0  0
  -29.7302  -23.8347   18.8774 C   0  0  0  0  0  0  0  0  0  1  0  0
  -26.1568  -28.9825   20.5107 C   0  0  1  0  0  0  0  0  0  0  0  0
  -27.5884  -31.5160   22.9400 C   0  0  2  0  0  0  0  0  0  0  0  0
  -25.8641  -29.3737   19.0347 C   0  0  0  0  0  0  0  0  0  0  0  0
  -26.1012  -12.8951   21.8068 N   0  0  0  0  0  0  0  0  0  0  0  0
  -26.3393  -12.8343   20.4856 N   0  0  0  0  0  0  0  0  0  0  0  0
  -32.2670  -21.0238   18.9230 N   0  0  3  0  0  0  0  0  0  0  0  0
  -24.6763  -26.9952   20.5131 N   0  0  0  0  0  0  0  0  0  0  0  0
  -30.0760  -13.6169   20.3975 N   0  0  0  0  0  0  0  0  0  0  0  0
  -25.2674  -12.7196   18.3764 N   0  0  0  0  0  0  0  0  0  0  0  0
  -21.8206  -12.8164   21.2930 N   0  0  0  0  0  0  0  0  0  0  0  0
  -30.1897  -15.9579   20.1349 N   0  0  0  0  0  0  0  0  0  0  0  0
  -21.3204  -26.6856   21.6543 N   0  0  0  0  0  0  0  0  0  0  0  0
  -26.4012  -30.1185   21.3928 N   0  0  0  0  0  0  0  0  0  0  0  0
  -28.3483  -31.2939   24.2026 N   0  3  0  0  0  0  0  0  0  0  0  0
  -33.4883  -23.2387   21.7760 O   0  0  0  0  0  0  0  0  0  0  0  0
  -22.3772  -12.6997   19.0715 O   0  0  0  0  0  0  0  0  0  0  0  0
  -22.2471  -27.3668   19.6296 O   0  0  0  0  0  0  0  0  0  0  0  0
  -24.4667  -28.6469   22.1375 O   0  0  0  0  0  0  0  0  0  0  0  0
  -28.5172  -29.4600   22.0754 O   0  0  0  0  0  0  0  0  0  0  0  0
  -32.0018  -14.6135   19.5962 O   0  0  0  0  0  0  0  0  0  0  0  0
  -22.2108  -13.0903   26.8440 O   0  0  0  0  0  0  0  0  0  0  0  0
  -32.8008  -16.2642   19.1890 O   0  0  0  0  0  0  0  0  0  0  0  0
  -28.6920  -22.8607   18.9770 O   0  0  0  0  0  0  0  0  0  1  0  0
  -16.8591  -11.7757   27.0318 F   0  0  0  0  0  0  0  0  0  0  0  0
  -21.3210  -10.9857   28.4003 F   0  0  0  0  0  0  0  0  0  0  0  0
  1  2  1  0  0  0  0
  1  5  2  0  0  0  0
  2  6  2  0  0  0  0
  3  8  2  0  0  0  0
  3 17  1  0  0  0  0
  4  9  1  0  0  0  0
  4 17  2  0  0  0  0
  5 20  1  0  0  0  0
  6 22  1  0  0  0  0
  7 10  2  0  0  0  0
  7 21  1  0  0  0  0
  8 26  1  0  0  0  0
  9 26  2  0  0  0  0
 10 27  1  0  0  0  0
 11 12  2  0  0  0  0
 11 28  1  0  0  0  0
 12 30  1  0  0  0  0
 13 18  1  0  0  0  0
 13 24  2  0  0  0  0
 14 23  1  0  0  0  0
 14 27  2  0  0  0  0
 15 24  1  0  0  0  0
 15 29  2  0  0  0  0
 16 30  2  0  0  0  0
 16 31  1  0  0  0  0
 17 32  1  0  0  0  0
 18 25  2  0  0  0  0
 18 38  1  0  0  0  0
 19 32  1  0  0  0  0
 19 33  2  0  0  0  0
 19 39  1  0  0  0  0
 20 22  2  0  0  0  0
 20 44  1  0  0  0  0
 21 23  2  0  0  0  0
 21 45  1  0  0  0  0
 22 55  1  0  0  0  0
 23 46  1  0  0  0  0
 24 72  1  0  0  0  0
 25 29  1  0  0  0  0
 25 77  1  0  0  0  0
 26 87  1  0  0  0  0
 27 89  1  0  0  0  0
 28 31  2  0  0  0  0
 28 87  1  0  0  0  0
 29 88  1  0  0  0  0
 30 90  1  0  0  0  0
 31 91  1  0  0  0  0
 32 70  2  0  0  0  0
 33 71  1  0  0  0  0
 33 75  1  0  0  0  0
 34 35  2  0  0  0  0
 34 36  1  0  0  0  0
 35 56  1  0  0  0  0
 35 66  1  0  0  0  0
 36 47  1  0  0  0  0
 36 81  2  0  0  0  0
 37 38  2  0  0  0  0
 39 76  1  0  0  0  0
 39 82  2  0  0  0  0
 40 57  1  0  0  0  0
 40 78  1  0  0  0  0
 40 83  2  0  0  0  0
 41 67  1  0  0  0  0
 41 73  1  0  0  0  0
 41 84  2  0  0  0  0
 42 68  1  0  0  0  0
 42 79  1  0  0  0  0
 42 85  2  0  0  0  0
 43 74  1  0  0  0  0
 43 77  1  0  0  0  0
 43 86  2  0  0  0  0
 44 48  1  0  0  0  0
 45 57  1  0  0  0  0
 46 73  1  0  0  0  0
 47 52  1  0  0  0  0
 48 50  1  0  0  0  0
 49 51  1  0  0  0  0
 49 53  1  0  0  0  0
 50 55  1  0  0  0  0
 51 58  1  0  0  0  0
 52 72  1  0  0  0  0
 53 74  1  0  0  0  0
 54 58  1  0  0  0  0
 54 74  1  0  0  0  0
 55 78  1  0  0  0  0
 56 59  1  0  0  0  0
 56 72  1  0  0  0  0
 57 73  1  0  0  0  0
 58 71  1  0  0  0  0
 60 68  1  0  0  0  0
 61 69  1  0  0  0  0
 62 69  1  0  0  0  0
 63 69  1  0  0  0  0
 64 80  1  0  0  0  0
 65 88  1  0  0  0  0
 66 89  1  0  0  0  0
 67 69  1  0  0  0  0
 67 79  1  0  0  0  0
 68 80  1  0  0  0  0
 70 71  1  0  0  0  0
M  CHG  1  80   1
M  ISO  4  43 100  66 101  77 100  89 101
M  END
> <Batch ID>
0113

> <Smiles>
C=Cc1cc(N2CCC(=O)CC([101CH2:1][101O:1]c3ccc4c(c3)CN(C(=O)C(NC(=O)C(C)NC)C(C)(C)C)C(C(=O)NC3CCCc5ccccc53)C4)=C2C)cc(OC)c1[100NH:0][100C:0](=O)N1CCCC(n2nc(-c3ccc(Oc4ccc(F)cc4F)cc3)c(C(N)=O)c2N)C1

> <Shape>
0.235

> <Color>
0.093

> <Negative vol penalty>
0.000

$$$$

  -OEChem-04052301343D

 83 91  0     1  0  0  0  0  0999 V2000
  -26.3062  -38.0832   20.8605 C   0  0  0  0  0  0  0  0  0  0  0  0
  -26.9542  -36.9188   20.4610 C   0  0  0  0  0  0  0  0  0  0  0  0
  -23.9991   -9.4569   22.1327 C   0  0  0  0  0  0  0  0  0  0  0  0
  -24.3501  -11.1361   23.8340 C   0  0  0  0  0  0  0  0  0  0  0  0
  -25.4805  -38.0699   21.9838 C   0  0  0  0  0  0  0  0  0  0  0  0
  -26.7777  -35.7405   21.1855 C   0  0  0  0  0  0  0  0  0  0  0  0
  -26.6066  -30.0390   18.9562 C   0  0  0  0  0  0  0  0  0  0  0  0
  -27.7679  -19.0367   19.2800 C   0  0  0  0  0  0  0  0  0  0  0  0
  -27.9283  -20.4195   19.3671 C   0  0  0  0  0  0  0  0  0  0  0  0
  -23.5832   -8.5533   23.1105 C   0  0  0  0  0  0  0  0  0  0  0  0
  -23.9342  -10.2324   24.8117 C   0  0  0  0  0  0  0  0  0  0  0  0
  -27.5690  -29.0334   18.8773 C   0  0  0  0  0  0  0  0  0  0  0  0
  -20.7903   -7.9500   24.9185 C   0  0  0  0  0  0  0  0  0  0  0  0
  -19.6450   -7.1969   24.6600 C   0  0  0  0  0  0  0  0  0  0  0  0
  -26.7176  -28.0669   20.9170 C   0  0  0  0  0  0  0  0  0  0  0  0
  -30.1677  -18.7612   19.2339 C   0  0  0  0  0  0  0  0  0  0  0  0
  -20.9365   -5.1647   24.8589 C   0  0  0  0  0  0  0  0  0  0  0  0
  -24.3826  -10.7483   22.4945 C   0  0  0  0  0  0  0  0  0  0  0  0
  -24.0083  -12.5830   20.7620 C   0  0  0  0  0  0  0  0  0  0  0  0
  -25.2861  -36.8885   22.7168 C   0  0  0  0  0  0  0  0  0  0  0  0
  -25.6978  -30.0723   20.0237 C   0  0  0  0  0  0  0  0  0  0  0  0
  -25.9497  -35.7116   22.3205 C   0  0  0  0  0  0  0  0  0  0  0  0
  -25.7429  -29.0725   21.0057 C   0  0  0  0  0  0  0  0  0  0  0  0
  -28.8876  -18.2075   19.2134 C   0  0  0  0  0  0  0  0  0  0  0  0
  -29.2084  -20.9732   19.3876 C   0  0  0  0  0  0  0  0  0  0  0  0
  -23.5507   -8.9410   24.4500 C   0  0  0  0  0  0  0  0  0  0  0  0
  -27.6265  -28.0488   19.8594 C   0  0  0  0  0  0  0  0  0  0  0  0
  -22.0087   -7.3105   25.1471 C   0  0  0  0  0  0  0  0  0  0  0  0
  -19.7181   -5.8043   24.6303 C   0  0  0  0  0  0  0  0  0  0  0  0
  -30.3281  -20.1441   19.3210 C   0  0  0  0  0  0  0  0  0  0  0  0
  -22.0818   -5.9179   25.1173 C   0  0  0  0  0  0  0  0  0  0  0  0
  -24.8129  -11.6821   21.4850 C   0  0  0  0  0  0  0  0  0  0  0  0
  -24.8861  -13.2393   19.9343 C   0  0  0  0  0  0  0  0  0  0  0  0
  -28.9450  -24.7092   19.6300 C   0  0  0  0  0  0  0  0  0  0  0  0
  -28.1366  -25.7712   19.7077 C   0  0  0  0  0  0  0  0  0  1  0  0
  -22.5938  -12.8068   20.8324 C   0  0  0  0  0  0  0  0  0  0  0  0
  -28.3660  -23.3364   19.5490 C   0  0  0  0  0  0  0  0  0  0  0  0
  -25.0644  -32.1245   22.3670 C   0  0  0  0  0  0  0  0  0  0  0  0
  -22.6197  -30.0796   22.9704 C   0  0  0  0  0  0  0  0  0  0  0  0
  -21.3462  -26.9253   22.6957 C   0  0  0  0  0  0  0  0  0  0  0  0
  -29.7300  -15.8389   19.0502 C   0  0  0  0  0  0  0  0  0  0  0  0
  -24.4215  -36.9342   23.9517 C   0  0  0  0  0  0  0  0  0  0  0  0
  -24.6485  -31.1485   20.0800 C   0  0  0  0  0  0  0  0  0  0  0  0
  -24.7772  -29.0518   22.1613 C   0  0  0  0  0  0  0  0  0  0  0  0
  -23.9916  -35.5553   24.4456 C   0  0  0  0  0  0  0  0  0  0  0  0
  -29.7388  -12.2837   18.8573 C   0  0  0  0  0  0  0  0  0  0  0  0
  -25.1824  -34.6023   24.4714 C   0  0  0  0  0  0  0  0  0  0  0  0
  -28.3919  -11.8844   19.4643 C   0  0  0  0  0  0  0  0  0  0  0  0
  -30.3477  -13.4891   19.5715 C   0  0  0  0  0  0  0  0  0  0  0  0
  -28.1188  -14.2591   20.2846 C   0  0  0  0  0  0  0  0  0  0  0  0
  -25.7639  -34.4077   23.0659 C   0  0  1  0  0  0  0  0  0  0  0  0
  -24.1029  -31.3781   21.4860 C   0  0  1  0  0  0  0  0  0  0  0  0
  -27.4359  -13.0898   19.5567 C   0  0  2  0  0  0  0  0  0  0  0  0
  -19.3430  -25.5484   23.3194 C   0  0  0  0  0  0  0  0  0  0  0  0
  -23.6255  -29.9238   25.8469 C   0  0  0  0  0  0  0  0  0  0  0  0
  -22.2237  -27.8719   26.1522 C   0  0  0  0  0  0  0  0  0  0  0  0
  -21.1385  -30.0533   25.6168 C   0  0  0  0  0  0  0  0  0  0  0  0
  -20.6991  -26.3721   19.8612 C   0  0  0  0  0  0  0  0  0  0  0  0
  -22.4441  -28.8445   23.8206 C   0  0  1  0  0  0  0  0  0  0  0  0
  -19.9831  -26.4243   22.2536 C   0  0  2  0  0  0  0  0  0  0  0  0
  -22.3775  -29.1746   25.3385 C   0  0  0  0  0  0  0  0  0  0  0  0
  -26.1027  -11.7565   21.1462 N   0  0  0  0  0  0  0  0  0  0  0  0
  -26.1153  -12.7119   20.2011 N   0  0  0  0  0  0  0  0  0  0  0  0
  -23.7736  -30.1290   22.1755 N   0  0  0  0  0  0  0  0  0  0  0  0
  -29.3867  -14.5933   19.6172 N   0  0  0  0  0  0  0  0  0  0  0  0
  -24.7188  -14.2103   19.0114 N   0  0  0  0  0  0  0  0  0  0  0  0
  -21.8413  -12.0460   21.7376 N   0  0  0  0  0  0  0  0  0  0  0  0
  -29.3680  -22.3780   19.4757 N   0  0  0  0  0  0  0  0  0  0  0  0
  -28.7250  -16.8027   19.1242 N   0  0  0  0  0  0  0  0  0  0  0  0
  -24.9389  -33.4990   22.2990 N   0  0  0  0  0  0  0  0  0  0  0  0
  -21.2637  -28.1591   23.3058 N   0  0  0  0  0  0  0  0  0  0  0  0
  -20.1058  -25.6264   21.0009 N   0  3  0  0  0  0  0  0  0  0  0  0
  -22.0120  -13.6446   20.1023 O   0  0  0  0  0  0  0  0  0  0  0  0
  -27.1538  -23.1572   19.5522 O   0  0  0  0  0  0  0  0  0  0  0  0
  -25.8602  -31.4996   23.0584 O   0  0  0  0  0  0  0  0  0  0  0  0
  -21.7611  -30.9645   23.0047 O   0  0  0  0  0  0  0  0  0  0  0  0
  -22.3803  -26.2844   22.5209 O   0  0  0  0  0  0  0  0  0  0  0  0
  -30.8243  -16.0278   18.5127 O   0  0  0  0  0  0  0  0  0  0  0  0
  -23.1447   -8.0595   25.4043 O   0  0  0  0  0  0  0  0  0  0  0  0
  -28.5654  -27.0665   19.7852 O   0  0  0  0  0  0  0  0  0  1  0  0
  -18.6179   -5.0812   24.3836 F   0  0  0  0  0  0  0  0  0  0  0  0
  -31.5633  -20.6654   19.3384 F   0  0  0  0  0  0  0  0  0  0  0  0
  -23.2492   -5.2978   25.3374 F   0  0  0  0  0  0  0  0  0  0  0  0
  1  2  1  0  0  0  0
  1  5  2  0  0  0  0
  2  6  2  0  0  0  0
  3 10  2  0  0  0  0
  3 18  1  0  0  0  0
  4 11  1  0  0  0  0
  4 18  2  0  0  0  0
  5 20  1  0  0  0  0
  6 22  1  0  0  0  0
  7 12  2  0  0  0  0
  7 21  1  0  0  0  0
  8  9  2  0  0  0  0
  8 24  1  0  0  0  0
  9 25  1  0  0  0  0
 10 26  1  0  0  0  0
 11 26  2  0  0  0  0
 12 27  1  0  0  0  0
 13 14  2  0  0  0  0
 13 28  1  0  0  0  0
 14 29  1  0  0  0  0
 15 23  1  0  0  0  0
 15 27  2  0  0  0  0
 16 24  2  0  0  0  0
 16 30  1  0  0  0  0
 17 29  2  0  0  0  0
 17 31  1  0  0  0  0
 18 32  1  0  0  0  0
 19 32  1  0  0  0  0
 19 33  2  0  0  0  0
 19 36  1  0  0  0  0
 20 22  2  0  0  0  0
 20 42  1  0  0  0  0
 21 23  2  0  0  0  0
 21 43  1  0  0  0  0
 22 51  1  0  0  0  0
 23 44  1  0  0  0  0
 24 69  1  0  0  0  0
 25 30  2  0  0  0  0
 25 68  1  0  0  0  0
 26 79  1  0  0  0  0
 27 80  1  0  0  0  0
 28 31  2  0  0  0  0
 28 79  1  0  0  0  0
 29 81  1  0  0  0  0
 30 82  1  0  0  0  0
 31 83  1  0  0  0  0
 32 62  2  0  0  0  0
 33 63  1  0  0  0  0
 33 66  1  0  0  0  0
 34 35  2  0  0  0  0
 34 37  1  0  0  0  0
 35 80  1  0  0  0  0
 36 67  1  0  0  0  0
 36 73  2  0  0  0  0
 37 68  1  0  0  0  0
 37 74  2  0  0  0  0
 38 52  1  0  0  0  0
 38 70  1  0  0  0  0
 38 75  2  0  0  0  0
 39 59  1  0  0  0  0
 39 64  1  0  0  0  0
 39 76  2  0  0  0  0
 40 60  1  0  0  0  0
 40 71  1  0  0  0  0
 40 77  2  0  0  0  0
 41 65  1  0  0  0  0
 41 69  1  0  0  0  0
 41 78  2  0  0  0  0
 42 45  1  0  0  0  0
 43 52  1  0  0  0  0
 44 64  1  0  0  0  0
 45 47  1  0  0  0  0
 46 48  1  0  0  0  0
 46 49  1  0  0  0  0
 47 51  1  0  0  0  0
 48 53  1  0  0  0  0
 49 65  1  0  0  0  0
 50 53  1  0  0  0  0
 50 65  1  0  0  0  0
 51 70  1  0  0  0  0
 52 64  1  0  0  0  0
 53 63  1  0  0  0  0
 54 60  1  0  0  0  0
 55 61  1  0  0  0  0
 56 61  1  0  0  0  0
 57 61  1  0  0  0  0
 58 72  1  0  0  0  0
 59 61  1  0  0  0  0
 59 71  1  0  0  0  0
 60 72  1  0  0  0  0
 62 63  1  0  0  0  0
M  CHG  1  72   1
M  ISO  4  35 101  41 100  69 100  80 101
M  END
> <Batch ID>
0113

> <Smiles>
CNC(C)C(=O)NC(C(=O)N1Cc2cc([101O:1][101CH:1]=CC(=O)Nc3ccc([100NH:0][100C:0](=O)N4CCCC(n5nc(-c6ccc(Oc7ccc(F)cc7F)cc6)c(C(N)=O)c5N)C4)cc3F)ccc2CC1C(=O)NC1CCCc2ccccc21)C(C)(C)C

> <Shape>
0.334

> <Color>
0.110

> <Negative vol penalty>
0.000

$$$$

  -OEChem-04052301343D

 85 93  0     1  0  0  0  0  0999 V2000
  -30.8801  -22.9379   25.5284 C   0  0  0  0  0  0  0  0  0  0  0  0
  -29.4947  -23.0620   25.5537 C   0  0  0  0  0  0  0  0  0  0  0  0
  -29.7774  -27.3045   19.2679 C   0  0  0  0  0  0  0  0  0  0  0  0
  -29.2818  -26.5170   21.4976 C   0  0  0  0  0  0  0  0  0  0  0  0
  -31.4996  -22.2671   24.4747 C   0  0  0  0  0  0  0  0  0  0  0  0
  -28.7280  -22.5164   24.5247 C   0  0  0  0  0  0  0  0  0  0  0  0
  -23.1582  -20.0172   25.0111 C   0  0  0  0  0  0  0  0  0  0  0  0
  -31.1143  -26.9454   19.4382 C   0  0  0  0  0  0  0  0  0  0  0  0
  -30.6189  -26.1578   21.6678 C   0  0  0  0  0  0  0  0  0  0  0  0
  -21.8805  -20.5186   24.7663 C   0  0  0  0  0  0  0  0  0  0  0  0
  -33.5421  -27.7009   22.3780 C   0  0  0  0  0  0  0  0  0  0  0  0
  -34.1575  -28.0452   23.5814 C   0  0  0  0  0  0  0  0  0  0  0  0
  -21.9266  -19.5426   22.5607 C   0  0  0  0  0  0  0  0  0  0  0  0
  -18.8040  -27.9715   21.5562 C   0  0  0  0  0  0  0  0  0  0  0  0
  -19.3707  -26.2363   23.6659 C   0  0  0  0  0  0  0  0  0  0  0  0
  -34.5892  -25.7106   24.0287 C   0  0  0  0  0  0  0  0  0  0  0  0
  -28.8611  -27.0904   20.2977 C   0  0  0  0  0  0  0  0  0  0  0  0
  -26.4427  -26.6603   19.6093 C   0  0  0  0  0  0  0  0  0  0  0  0
  -30.7395  -21.7047   23.4372 C   0  0  0  0  0  0  0  0  0  0  0  0
  -23.8352  -19.2828   24.0269 C   0  0  0  0  0  0  0  0  0  0  0  0
  -29.3380  -21.8387   23.4554 C   0  0  0  0  0  0  0  0  0  0  0  0
  -23.2118  -19.0308   22.7965 C   0  0  0  0  0  0  0  0  0  0  0  0
  -19.5456  -28.4208   22.6489 C   0  0  0  0  0  0  0  0  0  0  0  0
  -18.3457  -26.6546   21.5184 C   0  0  0  0  0  0  0  0  0  0  0  0
  -31.5351  -26.3719   20.6381 C   0  0  0  0  0  0  0  0  0  0  0  0
  -21.2657  -20.2838   23.5399 C   0  0  0  0  0  0  0  0  0  0  0  0
  -33.4502  -26.3613   21.9999 C   0  0  0  0  0  0  0  0  0  0  0  0
  -19.8289  -27.5532   23.7037 C   0  0  0  0  0  0  0  0  0  0  0  0
  -18.6290  -25.7870   22.5732 C   0  0  0  0  0  0  0  0  0  0  0  0
  -34.6811  -27.0501   24.4068 C   0  0  0  0  0  0  0  0  0  0  0  0
  -33.9738  -25.3662   22.8253 C   0  0  0  0  0  0  0  0  0  0  0  0
  -27.4799  -27.4618   20.1226 C   0  0  0  0  0  0  0  0  0  0  0  0
  -25.3327  -27.4684   19.6489 C   0  0  0  0  0  0  0  0  0  0  0  0
  -26.4792  -25.3065   19.1387 C   0  0  0  0  0  0  0  0  0  0  0  0
  -26.5371  -19.6728   22.3986 C   0  0  0  0  0  0  0  0  0  0  0  0
  -25.8492  -16.6983   21.3026 C   0  0  0  0  0  0  0  0  0  0  0  0
  -23.4893  -14.3102   20.6901 C   0  0  0  0  0  0  0  0  0  0  0  0
  -22.0923  -31.1596   22.2984 C   0  0  0  0  0  0  0  0  0  0  0  0
  -31.4570  -21.0298   22.2951 C   0  0  0  0  0  0  0  0  0  0  0  0
  -25.2022  -18.7261   24.3163 C   0  0  0  0  0  0  0  0  0  0  0  0
  -23.8878  -18.2309   21.7140 C   0  0  0  0  0  0  0  0  0  0  0  0
  -30.5474  -20.1552   21.4360 C   0  0  0  0  0  0  0  0  0  0  0  0
  -24.9036  -32.4322   20.5225 C   0  0  0  0  0  0  0  0  0  0  0  0
  -29.2571  -20.8960   21.0995 C   0  0  0  0  0  0  0  0  0  0  0  0
  -25.7414  -31.1877   20.2236 C   0  0  0  0  0  0  0  0  0  0  0  0
  -24.2296  -32.3437   21.8899 C   0  0  0  0  0  0  0  0  0  0  0  0
  -24.2651  -29.8808   21.8083 C   0  0  0  0  0  0  0  0  0  0  0  0
  -28.4704  -21.2389   22.3703 C   0  0  1  0  0  0  0  0  0  0  0  0
  -26.0061  -18.4294   23.0541 C   0  0  1  0  0  0  0  0  0  0  0  0
  -24.9196  -29.8990   20.4163 C   0  0  2  0  0  0  0  0  0  0  0  0
  -23.2245  -11.9967   19.7549 C   0  0  0  0  0  0  0  0  0  0  0  0
  -26.1253  -17.8121   18.4754 C   0  0  0  0  0  0  0  0  0  0  0  0
  -24.9461  -15.7712   17.6311 C   0  0  0  0  0  0  0  0  0  0  0  0
  -27.1343  -15.5480   18.8078 C   0  0  0  0  0  0  0  0  0  0  0  0
  -22.4630  -13.2632   23.2609 C   0  0  0  0  0  0  0  0  0  0  0  0
  -20.7949  -27.0227   25.8111 C   0  0  0  0  0  0  0  0  0  0  0  0
  -20.0282  -29.8336   22.6728 C   0  0  0  0  0  0  0  0  0  0  0  0
  -18.6742  -22.2200   21.9130 C   0  0  0  0  0  0  0  0  0  0  0  0
  -19.6997  -21.0977   21.9458 C   0  0  0  0  0  0  0  0  0  1  0  0
  -19.1807  -23.4739   22.6083 C   0  0  0  0  0  0  0  0  0  0  0  0
  -25.0673  -16.1428   20.1368 C   0  0  1  0  0  0  0  0  0  0  0  0
  -23.4513  -12.8265   21.0089 C   0  0  2  0  0  0  0  0  0  0  0  0
  -25.8060  -16.3353   18.7823 C   0  0  0  0  0  0  0  0  0  0  0  0
  -27.0660  -28.6851   20.4633 N   0  0  0  0  0  0  0  0  0  0  0  0
  -25.7562  -28.6585   20.1633 N   0  0  0  0  0  0  0  0  0  0  0  0
  -25.2263  -17.7132   22.0427 N   0  0  0  0  0  0  0  0  0  0  0  0
  -23.4652  -31.0995   22.0075 N   0  0  0  0  0  0  0  0  0  0  0  0
  -17.5960  -26.2131   20.4064 N   0  0  0  0  0  0  0  0  0  0  0  0
  -24.0456  -27.2700   19.2936 N   0  0  0  0  0  0  0  0  0  0  0  0
  -27.7017  -24.6218   19.1677 N   0  0  0  0  0  0  0  0  0  0  0  0
  -27.7756  -20.0699   22.8655 N   0  0  0  0  0  0  0  0  0  0  0  0
  -24.7763  -14.7517   20.4662 N   0  0  0  0  0  0  0  0  0  0  0  0
  -21.4418  -29.9349   22.3861 N   0  0  0  0  0  0  0  0  0  0  0  0
  -22.3532  -12.5318   21.9725 N   0  3  0  0  0  0  0  0  0  0  0  0
  -25.4613  -24.7267   18.6900 O   0  0  0  0  0  0  0  0  0  0  0  0
  -25.8731  -20.2297   21.5322 O   0  0  0  0  0  0  0  0  0  0  0  0
  -26.9683  -16.2433   21.5519 O   0  0  0  0  0  0  0  0  0  0  0  0
  -22.4781  -15.0071   20.6406 O   0  0  0  0  0  0  0  0  0  0  0  0
  -21.4898  -32.2260   22.4623 O   0  0  0  0  0  0  0  0  0  0  0  0
  -32.8396  -26.0211   20.8045 O   0  0  0  0  0  0  0  0  0  0  0  0
  -20.5519  -27.9758   24.7784 O   0  0  0  0  0  0  0  0  0  0  0  0
  -20.0189  -20.7726   23.2981 O   0  0  0  0  0  0  0  0  0  1  0  0
  -18.1879  -24.4894   22.5552 O   0  0  0  0  0  0  0  0  0  0  0  0
  -35.2734  -27.3811   25.5617 F   0  0  0  0  0  0  0  0  0  0  0  0
  -33.8896  -24.0777   22.4668 F   0  0  0  0  0  0  0  0  0  0  0  0
  1  2  1  0  0  0  0
  1  5  2  0  0  0  0
  2  6  2  0  0  0  0
  3  8  2  0  0  0  0
  3 17  1  0  0  0  0
  4  9  1  0  0  0  0
  4 17  2  0  0  0  0
  5 19  1  0  0  0  0
  6 21  1  0  0  0  0
  7 10  2  0  0  0  0
  7 20  1  0  0  0  0
  8 25  1  0  0  0  0
  9 25  2  0  0  0  0
 10 26  1  0  0  0  0
 11 12  2  0  0  0  0
 11 27  1  0  0  0  0
 12 30  1  0  0  0  0
 13 22  1  0  0  0  0
 13 26  2  0  0  0  0
 14 23  2  0  0  0  0
 14 24  1  0  0  0  0
 15 28  2  0  0  0  0
 15 29  1  0  0  0  0
 16 30  2  0  0  0  0
 16 31  1  0  0  0  0
 17 32  1  0  0  0  0
 18 32  1  0  0  0  0
 18 33  2  0  0  0  0
 18 34  1  0  0  0  0
 19 21  2  0  0  0  0
 19 39  1  0  0  0  0
 20 22  2  0  0  0  0
 20 40  1  0  0  0  0
 21 48  1  0  0  0  0
 22 41  1  0  0  0  0
 23 28  1  0  0  0  0
 23 57  1  0  0  0  0
 24 29  2  0  0  0  0
 24 68  1  0  0  0  0
 25 80  1  0  0  0  0
 26 82  1  0  0  0  0
 27 31  2  0  0  0  0
 27 80  1  0  0  0  0
 28 81  1  0  0  0  0
 29 83  1  0  0  0  0
 30 84  1  0  0  0  0
 31 85  1  0  0  0  0
 32 64  2  0  0  0  0
 33 65  1  0  0  0  0
 33 69  1  0  0  0  0
 34 70  1  0  0  0  0
 34 75  2  0  0  0  0
 35 49  1  0  0  0  0
 35 71  1  0  0  0  0
 35 76  2  0  0  0  0
 36 61  1  0  0  0  0
 36 66  1  0  0  0  0
 36 77  2  0  0  0  0
 37 62  1  0  0  0  0
 37 72  1  0  0  0  0
 37 78  2  0  0  0  0
 38 67  1  0  0  0  0
 38 73  1  0  0  0  0
 38 79  2  0  0  0  0
 39 42  1  0  0  0  0
 40 49  1  0  0  0  0
 41 66  1  0  0  0  0
 42 44  1  0  0  0  0
 43 45  1  0  0  0  0
 43 46  1  0  0  0  0
 44 48  1  0  0  0  0
 45 50  1  0  0  0  0
 46 67  1  0  0  0  0
 47 50  1  0  0  0  0
 47 67  1  0  0  0  0
 48 71  1  0  0  0  0
 49 66  1  0  0  0  0
 50 65  1  0  0  0  0
 51 62  1  0  0  0  0
 52 63  1  0  0  0  0
 53 63  1  0  0  0  0
 54 63  1  0  0  0  0
 55 74  1  0  0  0  0
 56 81  1  0  0  0  0
 57 73  1  0  0  0  0
 58 59  1  0  0  0  0
 58 60  1  0  0  0  0
 59 82  1  0  0  0  0
 60 83  1  0  0  0  0
 61 63  1  0  0  0  0
 61 72  1  0  0  0  0
 62 74  1  0  0  0  0
 64 65  1  0  0  0  0
M  CHG  1  74   1
M  ISO  4  38 100  59 101  73 100  82 101
M  END
> <Batch ID>
0113

> <Smiles>
CNC(C)C(=O)NC(C(=O)N1Cc2cc([101O:1][101CH2:1]CCOc3cc(OC)c(C[100NH:0][100C:0](=O)N4CCCC(n5nc(-c6ccc(Oc7ccc(F)cc7F)cc6)c(C(N)=O)c5N)C4)cc3N)ccc2CC1C(=O)NC1CCCc2ccccc21)C(C)(C)C

> <Shape>
0.198

> <Color>
0.088

> <Negative vol penalty>
0.000

$$$$

  -OEChem-04052301343D

 84 92  0     1  0  0  0  0  0999 V2000
  -25.3954  -36.7985   20.2628 C   0  0  0  0  0  0  0  0  0  0  0  0
  -26.4822  -35.9989   19.9241 C   0  0  0  0  0  0  0  0  0  0  0  0
  -24.5086   -9.2343   21.5482 C   0  0  0  0  0  0  0  0  0  0  0  0
  -24.4770  -10.5635   23.5655 C   0  0  0  0  0  0  0  0  0  0  0  0
  -24.4516  -36.3380   21.1800 C   0  0  0  0  0  0  0  0  0  0  0  0
  -26.6265  -34.7386   20.5032 C   0  0  0  0  0  0  0  0  0  0  0  0
  -29.0814  -28.1699   19.0395 C   0  0  0  0  0  0  0  0  0  0  0  0
  -24.2482   -8.0882   22.2992 C   0  0  0  0  0  0  0  0  0  0  0  0
  -24.2165   -9.4173   24.3166 C   0  0  0  0  0  0  0  0  0  0  0  0
  -29.9406  -27.2013   19.5564 C   0  0  0  0  0  0  0  0  0  0  0  0
  -23.2336   -4.8668   23.6439 C   0  0  0  0  0  0  0  0  0  0  0  0
  -22.2673   -3.9827   23.1641 C   0  0  0  0  0  0  0  0  0  0  0  0
  -27.5029  -21.8314   21.4752 C   0  0  0  0  0  0  0  0  0  0  0  0
  -28.2059  -26.4780   21.0686 C   0  0  0  0  0  0  0  0  0  0  0  0
  -28.8449  -19.8920   20.9510 C   0  0  0  0  0  0  0  0  0  0  0  0
  -20.6077   -5.7348   23.2784 C   0  0  0  0  0  0  0  0  0  0  0  0
  -24.6231  -10.4720   22.1813 C   0  0  0  0  0  0  0  0  0  0  0  0
  -26.3431  -21.0859   21.2641 C   0  0  0  0  0  0  0  0  0  0  0  0
  -23.9496  -12.5222   20.8210 C   0  0  0  0  0  0  0  0  0  0  0  0
  -24.5793  -35.0676   21.7634 C   0  0  0  0  0  0  0  0  0  0  0  0
  -27.7793  -28.3073   19.5417 C   0  0  0  0  0  0  0  0  0  0  0  0
  -25.6843  -34.2612   21.4300 C   0  0  0  0  0  0  0  0  0  0  0  0
  -27.3312  -27.4475   20.5546 C   0  0  0  0  0  0  0  0  0  0  0  0
  -26.4341  -19.7434   20.8964 C   0  0  0  0  0  0  0  0  0  0  0  0
  -28.7538  -21.2344   21.3186 C   0  0  0  0  0  0  0  0  0  0  0  0
  -27.6851  -19.1465   20.7398 C   0  0  0  0  0  0  0  0  0  0  0  0
  -24.1021   -8.1797   23.6834 C   0  0  0  0  0  0  0  0  0  0  0  0
  -29.5039  -26.3570   20.5731 C   0  0  0  0  0  0  0  0  0  0  0  0
  -22.8870   -6.1848   23.9411 C   0  0  0  0  0  0  0  0  0  0  0  0
  -20.9543   -4.4167   22.9813 C   0  0  0  0  0  0  0  0  0  0  0  0
  -21.5740   -6.6188   23.7583 C   0  0  0  0  0  0  0  0  0  0  0  0
  -24.8927  -11.6562   21.4061 C   0  0  0  0  0  0  0  0  0  0  0  0
  -24.7067  -13.4850   20.1995 C   0  0  0  0  0  0  0  0  0  0  0  0
  -24.6678  -22.3181   22.5643 C   0  0  0  0  0  0  0  0  0  0  0  0
  -25.0528  -21.7414   21.4359 C   0  0  0  0  0  0  0  0  0  0  0  0
  -30.3953  -22.5950   20.4943 C   0  0  0  0  0  0  0  0  0  0  0  0
  -22.5172  -12.4618   20.8378 C   0  0  0  0  0  0  0  0  0  0  0  0
  -26.1764  -30.6227   21.0159 C   0  0  0  0  0  0  0  0  0  0  0  0
  -23.6800  -28.5801   20.6724 C   0  0  0  0  0  0  0  0  0  0  0  0
  -22.5991  -25.3695   20.2595 C   0  0  0  0  0  0  0  0  0  0  0  0
  -28.9763  -17.0590   20.1729 C   0  0  0  0  0  0  0  0  0  0  0  0
  -23.5591  -34.6322   22.7854 C   0  0  0  0  0  0  0  0  0  0  0  0
  -26.8559  -29.3395   18.9549 C   0  0  0  0  0  0  0  0  0  0  0  0
  -25.9360  -27.5406   21.1142 C   0  0  0  0  0  0  0  0  0  0  0  0
  -23.5845  -33.1329   23.0708 C   0  0  0  0  0  0  0  0  0  0  0  0
  -29.6817  -13.6832   19.2876 C   0  0  0  0  0  0  0  0  0  0  0  0
  -25.0176  -32.6530   23.2780 C   0  0  0  0  0  0  0  0  0  0  0  0
  -28.4211  -12.9262   19.7117 C   0  0  0  0  0  0  0  0  0  0  0  0
  -30.0236  -14.8073   20.2639 C   0  0  0  0  0  0  0  0  0  0  0  0
  -27.6679  -14.9897   20.9613 C   0  0  0  0  0  0  0  0  0  0  0  0
  -25.8623  -32.8783   22.0181 C   0  0  1  0  0  0  0  0  0  0  0  0
  -25.7208  -29.7300   19.8965 C   0  0  1  0  0  0  0  0  0  0  0  0
  -27.2467  -13.8893   19.9737 C   0  0  2  0  0  0  0  0  0  0  0  0
  -25.1928  -18.9359   20.6679 C   0  0  0  0  0  0  0  0  0  0  0  0
  -20.5010  -24.0087   20.0508 C   0  0  0  0  0  0  0  0  0  0  0  0
  -23.2138  -28.8426   23.6764 C   0  0  0  0  0  0  0  0  0  0  0  0
  -21.7775  -26.7951   23.5619 C   0  0  0  0  0  0  0  0  0  0  0  0
  -21.1301  -28.8431   22.2934 C   0  0  0  0  0  0  0  0  0  0  0  0
  -23.3429  -24.4242   17.5554 C   0  0  0  0  0  0  0  0  0  0  0  0
  -31.6347  -23.4424   20.6029 C   0  0  0  0  0  0  0  0  0  0  0  0
  -31.3236  -24.8729   20.1963 C   0  0  0  0  0  0  0  0  0  1  0  0
  -23.0925  -27.4614   21.4984 C   0  0  1  0  0  0  0  0  0  0  0  0
  -21.5898  -24.7617   19.3023 C   0  0  2  0  0  0  0  0  0  0  0  0
  -22.3305  -27.9848   22.7485 C   0  0  0  0  0  0  0  0  0  0  0  0
  -26.1527  -12.0353   21.1767 N   0  0  0  0  0  0  0  0  0  0  0  0
  -29.9216  -21.9859   21.5319 N   0  0  0  0  0  0  0  0  0  0  0  0
  -26.0066  -13.1501   20.4404 N   0  0  0  0  0  0  0  0  0  0  0  0
  -25.0728  -28.5701   20.5120 N   0  0  0  0  0  0  0  0  0  0  0  0
  -28.8654  -15.6820   20.4600 N   0  0  0  0  0  0  0  0  0  0  0  0
  -24.3806  -14.5770   19.4758 N   0  0  0  0  0  0  0  0  0  0  0  0
  -21.9010  -11.4058   21.5230 N   0  0  0  0  0  0  0  0  0  0  0  0
  -27.8013  -17.7846   20.3661 N   0  0  0  0  0  0  0  0  0  0  0  0
  -25.5713  -31.8649   21.0267 N   0  0  0  0  0  0  0  0  0  0  0  0
  -22.2735  -26.6684   20.5880 N   0  0  0  0  0  0  0  0  0  0  0  0
  -22.2642  -23.8117   18.3729 N   0  3  0  0  0  0  0  0  0  0  0  0
  -21.8050  -13.3097   20.2484 O   0  0  0  0  0  0  0  0  0  0  0  0
  -27.0137  -30.2141   21.8119 O   0  0  0  0  0  0  0  0  0  0  0  0
  -22.9299  -29.4275   20.1815 O   0  0  0  0  0  0  0  0  0  0  0  0
  -23.5765  -24.7523   20.6771 O   0  0  0  0  0  0  0  0  0  0  0  0
  -30.0280  -17.5528   19.7583 O   0  0  0  0  0  0  0  0  0  0  0  0
  -23.8477   -7.0615   24.4166 O   0  0  0  0  0  0  0  0  0  0  0  0
  -30.3408  -25.4111   21.0798 O   0  0  0  0  0  0  0  0  0  1  0  0
  -20.0268   -3.5681   22.5191 F   0  0  0  0  0  0  0  0  0  0  0  0
  -21.2353   -7.8842   24.0409 F   0  0  0  0  0  0  0  0  0  0  0  0
  1  2  1  0  0  0  0
  1  5  2  0  0  0  0
  2  6  2  0  0  0  0
  3  8  2  0  0  0  0
  3 17  1  0  0  0  0
  4  9  1  0  0  0  0
  4 17  2  0  0  0  0
  5 20  1  0  0  0  0
  6 22  1  0  0  0  0
  7 10  2  0  0  0  0
  7 21  1  0  0  0  0
  8 27  1  0  0  0  0
  9 27  2  0  0  0  0
 10 28  1  0  0  0  0
 11 12  2  0  0  0  0
 11 29  1  0  0  0  0
 12 30  1  0  0  0  0
 13 18  1  0  0  0  0
 13 25  2  0  0  0  0
 14 23  1  0  0  0  0
 14 28  2  0  0  0  0
 15 25  1  0  0  0  0
 15 26  2  0  0  0  0
 16 30  2  0  0  0  0
 16 31  1  0  0  0  0
 17 32  1  0  0  0  0
 18 24  2  0  0  0  0
 18 35  1  0  0  0  0
 19 32  1  0  0  0  0
 19 33  2  0  0  0  0
 19 37  1  0  0  0  0
 20 22  2  0  0  0  0
 20 42  1  0  0  0  0
 21 23  2  0  0  0  0
 21 43  1  0  0  0  0
 22 51  1  0  0  0  0
 23 44  1  0  0  0  0
 24 26  1  0  0  0  0
 24 54  1  0  0  0  0
 25 66  1  0  0  0  0
 26 72  1  0  0  0  0
 27 81  1  0  0  0  0
 28 82  1  0  0  0  0
 29 31  2  0  0  0  0
 29 81  1  0  0  0  0
 30 83  1  0  0  0  0
 31 84  1  0  0  0  0
 32 65  2  0  0  0  0
 33 67  1  0  0  0  0
 33 70  1  0  0  0  0
 34 35  2  0  0  0  0
 36 60  1  0  0  0  0
 36 66  2  0  0  0  0
 37 71  1  0  0  0  0
 37 76  2  0  0  0  0
 38 52  1  0  0  0  0
 38 73  1  0  0  0  0
 38 77  2  0  0  0  0
 39 62  1  0  0  0  0
 39 68  1  0  0  0  0
 39 78  2  0  0  0  0
 40 63  1  0  0  0  0
 40 74  1  0  0  0  0
 40 79  2  0  0  0  0
 41 69  1  0  0  0  0
 41 72  1  0  0  0  0
 41 80  2  0  0  0  0
 42 45  1  0  0  0  0
 43 52  1  0  0  0  0
 44 68  1  0  0  0  0
 45 47  1  0  0  0  0
 46 48  1  0  0  0  0
 46 49  1  0  0  0  0
 47 51  1  0  0  0  0
 48 53  1  0  0  0  0
 49 69  1  0  0  0  0
 50 53  1  0  0  0  0
 50 69  1  0  0  0  0
 51 73  1  0  0  0  0
 52 68  1  0  0  0  0
 53 67  1  0  0  0  0
 55 63  1  0  0  0  0
 56 64  1  0  0  0  0
 57 64  1  0  0  0  0
 58 64  1  0  0  0  0
 59 75  1  0  0  0  0
 60 61  1  0  0  0  0
 61 82  1  0  0  0  0
 62 64  1  0  0  0  0
 62 74  1  0  0  0  0
 63 75  1  0  0  0  0
 65 67  1  0  0  0  0
M  CHG  1  75   1
M  ISO  4  41 100  61 101  72 100  82 101
M  END
> <Batch ID>
0113

> <Smiles>
C=Cc1cc(NC=C[101CH2:1][101O:1]c2ccc3c(c2)CN(C(=O)C(NC(=O)C(C)NC)C(C)(C)C)C(C(=O)NC2CCCc4ccccc42)C3)cc([100NH:0][100C:0](=O)N2CCCC(n3nc(-c4ccc(Oc5ccc(F)cc5F)cc4)c(C(N)=O)c3N)C2)c1C

> <Shape>
0.298

> <Color>
0.091

> <Negative vol penalty>
0.000

$$$$

  -OEChem-04052301343D

 85 93  0     1  0  0  0  0  0999 V2000
  -30.1332  -36.7525   23.9940 C   0  0  0  0  0  0  0  0  0  0  0  0
  -30.3644  -35.5530   23.3282 C   0  0  0  0  0  0  0  0  0  0  0  0
  -25.7713  -13.0364   22.1663 C   0  0  0  0  0  0  0  0  0  0  0  0
  -26.7696  -13.2383   19.9755 C   0  0  0  0  0  0  0  0  0  0  0  0
  -29.1303  -36.8305   24.9594 C   0  0  0  0  0  0  0  0  0  0  0  0
  -29.5935  -34.4305   23.6282 C   0  0  0  0  0  0  0  0  0  0  0  0
  -27.7902  -30.0564   19.7396 C   0  0  0  0  0  0  0  0  0  0  0  0
  -24.7278  -12.2880   21.6218 C   0  0  0  0  0  0  0  0  0  0  0  0
  -25.7261  -12.4899   19.4310 C   0  0  0  0  0  0  0  0  0  0  0  0
  -28.2900  -28.7852   19.4605 C   0  0  0  0  0  0  0  0  0  0  0  0
  -24.2134   -9.1061   20.6001 C   0  0  0  0  0  0  0  0  0  0  0  0
  -23.8224   -7.9508   21.2768 C   0  0  0  0  0  0  0  0  0  0  0  0
  -30.5074  -20.0638   17.6059 C   0  0  0  0  0  0  0  0  0  0  0  0
  -30.3367  -22.0714   16.2727 C   0  0  0  0  0  0  0  0  0  0  0  0
  -26.6927  -27.8272   20.9935 C   0  0  0  0  0  0  0  0  0  0  0  0
  -29.7603  -22.1264   18.6182 C   0  0  0  0  0  0  0  0  0  0  0  0
  -21.5998   -8.8595   21.5440 C   0  0  0  0  0  0  0  0  0  0  0  0
  -26.7922  -13.5116   21.3431 C   0  0  0  0  0  0  0  0  0  0  0  0
  -30.6425  -20.7147   16.3796 C   0  0  0  0  0  0  0  0  0  0  0  0
  -29.0890  -13.7997   22.4152 C   0  0  0  0  0  0  0  0  0  0  0  0
  -28.3402  -35.7109   25.2645 C   0  0  0  0  0  0  0  0  0  0  0  0
  -26.7434  -30.2240   20.6575 C   0  0  0  0  0  0  0  0  0  0  0  0
  -28.5799  -34.4932   24.5995 C   0  0  0  0  0  0  0  0  0  0  0  0
  -26.1797  -29.1014   21.2805 C   0  0  0  0  0  0  0  0  0  0  0  0
  -30.0662  -20.7697   18.7252 C   0  0  0  0  0  0  0  0  0  0  0  0
  -29.8955  -22.7773   17.3920 C   0  0  0  0  0  0  0  0  0  0  0  0
  -24.7051  -12.0147   20.2542 C   0  0  0  0  0  0  0  0  0  0  0  0
  -27.7432  -27.6706   20.0897 C   0  0  0  0  0  0  0  0  0  0  0  0
  -23.2976  -10.1382   20.3953 C   0  0  0  0  0  0  0  0  0  0  0  0
  -22.5157   -7.8275   21.7488 C   0  0  0  0  0  0  0  0  0  0  0  0
  -21.9909  -10.0148   20.8673 C   0  0  0  0  0  0  0  0  0  0  0  0
  -27.8702  -14.2853   21.9048 C   0  0  0  0  0  0  0  0  0  0  0  0
  -29.7623  -14.9247   22.8248 C   0  0  0  0  0  0  0  0  0  0  0  0
  -31.8180  -20.5187   14.2360 C   0  0  0  0  0  0  0  0  0  0  0  0
  -29.7012  -26.0330   15.7646 C   0  0  0  0  0  0  0  0  0  0  0  0
  -31.1028  -19.9780   15.2127 C   0  0  0  0  0  0  0  0  0  0  0  0
  -30.2502  -24.9678   16.3524 C   0  0  0  0  0  0  0  0  0  0  0  0
  -29.5697  -12.4523   22.5105 C   0  0  0  0  0  0  0  0  0  0  0  0
  -26.4160  -31.7337   23.4355 C   0  0  0  0  0  0  0  0  0  0  0  0
  -23.3109  -30.8567   23.1019 C   0  0  0  0  0  0  0  0  0  0  0  0
  -28.5857  -24.7497   18.1265 C   0  0  0  0  0  0  0  0  0  0  0  0
  -21.0365  -28.7167   21.7254 C   0  0  0  0  0  0  0  0  0  0  0  0
  -29.5036  -20.6629   21.1785 C   0  0  0  0  0  0  0  0  0  0  0  0
  -27.2992  -35.8309   26.3492 C   0  0  0  0  0  0  0  0  0  0  0  0
  -26.1977  -31.5994   20.9274 C   0  0  0  0  0  0  0  0  0  0  0  0
  -25.0410  -29.2255   22.2586 C   0  0  0  0  0  0  0  0  0  0  0  0
  -26.2779  -34.6964   26.3415 C   0  0  0  0  0  0  0  0  0  0  0  0
  -28.9959  -19.3624   24.4538 C   0  0  0  0  0  0  0  0  0  0  0  0
  -26.9784  -33.3485   26.2028 C   0  0  0  0  0  0  0  0  0  0  0  0
  -28.7666  -17.8676   24.2188 C   0  0  0  0  0  0  0  0  0  0  0  0
  -28.3756  -20.2123   23.3463 C   0  0  0  0  0  0  0  0  0  0  0  0
  -28.5432  -18.3457   21.7473 C   0  0  0  0  0  0  0  0  0  0  0  0
  -27.7482  -33.2604   24.8795 C   0  0  1  0  0  0  0  0  0  0  0  0
  -25.4731  -31.7026   22.2660 C   0  0  1  0  0  0  0  0  0  0  0  0
  -29.2060  -17.4458   22.8030 C   0  0  2  0  0  0  0  0  0  0  0  0
  -18.5758  -28.2283   21.6665 C   0  0  0  0  0  0  0  0  0  0  0  0
  -23.4939  -29.6122   25.8817 C   0  0  0  0  0  0  0  0  0  0  0  0
  -21.3894  -28.3521   25.3800 C   0  0  0  0  0  0  0  0  0  0  0  0
  -21.3661  -30.8461   25.4292 C   0  0  0  0  0  0  0  0  0  0  0  0
  -20.8966  -29.1792   18.8055 C   0  0  0  0  0  0  0  0  0  0  0  0
  -28.7693  -26.2118   18.5165 C   0  0  0  0  0  0  0  0  0  1  0  0
  -22.4903  -29.6548   23.5033 C   0  0  1  0  0  0  0  0  0  0  0  0
  -19.7260  -28.9686   21.0019 C   0  0  2  0  0  0  0  0  0  0  0  0
  -22.2077  -29.6138   25.0316 C   0  0  0  0  0  0  0  0  0  0  0  0
  -27.7720  -15.6151   21.9822 N   0  0  0  0  0  0  0  0  0  0  0  0
  -28.9377  -15.9747   22.5460 N   0  0  0  0  0  0  0  0  0  0  0  0
  -24.5464  -30.5920   22.4942 N   0  0  0  0  0  0  0  0  0  0  0  0
  -28.8406  -19.7578   22.0340 N   0  0  0  0  0  0  0  0  0  0  0  0
  -30.9731  -15.1082   23.3927 N   0  0  0  0  0  0  0  0  0  0  0  0
  -28.7503  -11.4160   22.0425 N   0  0  0  0  0  0  0  0  0  0  0  0
  -29.9286  -20.1092   19.9713 N   0  0  0  0  0  0  0  0  0  0  0  0
  -26.8400  -33.0022   23.7827 N   0  0  0  0  0  0  0  0  0  0  0  0
  -21.2902  -29.6845   22.6742 N   0  0  0  0  0  0  0  0  0  0  0  0
  -29.5783  -24.1899   17.2814 N   0  0  0  0  0  0  0  0  0  0  0  0
  -19.8208  -28.5150   19.5854 N   0  3  0  0  0  0  0  0  0  0  0  0
  -30.6856  -12.1741   23.0114 O   0  0  0  0  0  0  0  0  0  0  0  0
  -26.7341  -30.6846   23.9832 O   0  0  0  0  0  0  0  0  0  0  0  0
  -22.8686  -31.9887   23.3130 O   0  0  0  0  0  0  0  0  0  0  0  0
  -27.6125  -24.1324   18.5703 O   0  0  0  0  0  0  0  0  0  0  0  0
  -21.7608  -27.7555   21.4765 O   0  0  0  0  0  0  0  0  0  0  0  0
  -29.7052  -21.8354   21.5049 O   0  0  0  0  0  0  0  0  0  0  0  0
  -23.6871  -11.2842   19.7226 O   0  0  0  0  0  0  0  0  0  0  0  0
  -28.2296  -26.4287   19.8196 O   0  0  0  0  0  0  0  0  0  1  0  0
  -22.1399   -6.7173   22.3973 F   0  0  0  0  0  0  0  0  0  0  0  0
  -21.1063  -11.0025   20.6726 F   0  0  0  0  0  0  0  0  0  0  0  0
  1  2  1  0  0  0  0
  1  5  2  0  0  0  0
  2  6  2  0  0  0  0
  3  8  2  0  0  0  0
  3 18  1  0  0  0  0
  4  9  1  0  0  0  0
  4 18  2  0  0  0  0
  5 21  1  0  0  0  0
  6 23  1  0  0  0  0
  7 10  2  0  0  0  0
  7 22  1  0  0  0  0
  8 27  1  0  0  0  0
  9 27  2  0  0  0  0
 10 28  1  0  0  0  0
 11 12  2  0  0  0  0
 11 29  1  0  0  0  0
 12 30  1  0  0  0  0
 13 19  1  0  0  0  0
 13 25  2  0  0  0  0
 14 19  2  0  0  0  0
 14 26  1  0  0  0  0
 15 24  1  0  0  0  0
 15 28  2  0  0  0  0
 16 25  1  0  0  0  0
 16 26  2  0  0  0  0
 17 30  2  0  0  0  0
 17 31  1  0  0  0  0
 18 32  1  0  0  0  0
 19 36  1  0  0  0  0
 20 32  1  0  0  0  0
 20 33  2  0  0  0  0
 20 38  1  0  0  0  0
 21 23  2  0  0  0  0
 21 44  1  0  0  0  0
 22 24  2  0  0  0  0
 22 45  1  0  0  0  0
 23 53  1  0  0  0  0
 24 46  1  0  0  0  0
 25 71  1  0  0  0  0
 26 74  1  0  0  0  0
 27 82  1  0  0  0  0
 28 83  1  0  0  0  0
 29 31  2  0  0  0  0
 29 82  1  0  0  0  0
 30 84  1  0  0  0  0
 31 85  1  0  0  0  0
 32 65  2  0  0  0  0
 33 66  1  0  0  0  0
 33 69  1  0  0  0  0
 34 36  2  0  0  0  0
 35 37  2  0  0  0  0
 37 74  1  0  0  0  0
 38 70  1  0  0  0  0
 38 76  2  0  0  0  0
 39 54  1  0  0  0  0
 39 72  1  0  0  0  0
 39 77  2  0  0  0  0
 40 62  1  0  0  0  0
 40 67  1  0  0  0  0
 40 78  2  0  0  0  0
 41 61  1  0  0  0  0
 41 74  1  0  0  0  0
 41 79  2  0  0  0  0
 42 63  1  0  0  0  0
 42 73  1  0  0  0  0
 42 80  2  0  0  0  0
 43 68  1  0  0  0  0
 43 71  1  0  0  0  0
 43 81  2  0  0  0  0
 44 47  1  0  0  0  0
 45 54  1  0  0  0  0
 46 67  1  0  0  0  0
 47 49  1  0  0  0  0
 48 50  1  0  0  0  0
 48 51  1  0  0  0  0
 49 53  1  0  0  0  0
 50 55  1  0  0  0  0
 51 68  1  0  0  0  0
 52 55  1  0  0  0  0
 52 68  1  0  0  0  0
 53 72  1  0  0  0  0
 54 67  1  0  0  0  0
 55 66  1  0  0  0  0
 56 63  1  0  0  0  0
 57 64  1  0  0  0  0
 58 64  1  0  0  0  0
 59 64  1  0  0  0  0
 60 75  1  0  0  0  0
 61 83  1  0  0  0  0
 62 64  1  0  0  0  0
 62 73  1  0  0  0  0
 63 75  1  0  0  0  0
 65 66  1  0  0  0  0
M  CHG  1  75   1
M  ISO  4  43 100  61 101  71 100  83 101
M  END
> <Batch ID>
0113

> <Smiles>
C=Cc1cc([100NH:0][100C:0](=O)N2CCCC(n3nc(-c4ccc(Oc5ccc(F)cc5F)cc4)c(C(N)=O)c3N)C2)cc(N(C=C)C(=O)[101CH2:1][101O:1]c2ccc3c(c2)CN(C(=O)C(NC(=O)C(C)NC)C(C)(C)C)C(C(=O)NC2CCCc4ccccc42)C3)c1

> <Shape>
0.280

> <Color>
0.083

> <Negative vol penalty>
0.000

$$$$

  -OEChem-04052301343D

 92102  0     1  0  0  0  0  0999 V2000
  -27.9340  -22.8513   14.1850 C   0  0  0  0  0  0  0  0  0  0  0  0
  -29.0595  -23.6358   14.4259 C   0  0  0  0  0  0  0  0  0  0  0  0
  -28.2812  -37.3904   23.9314 C   0  0  0  0  0  0  0  0  0  0  0  0
  -28.7371  -36.2481   23.2814 C   0  0  0  0  0  0  0  0  0  0  0  0
  -27.5762  -21.8443   15.0832 C   0  0  0  0  0  0  0  0  0  0  0  0
  -29.8322  -23.4170   15.5661 C   0  0  0  0  0  0  0  0  0  0  0  0
  -22.4768  -13.7764   21.3031 C   0  0  0  0  0  0  0  0  0  0  0  0
  -22.1812  -15.2095   19.3806 C   0  0  0  0  0  0  0  0  0  0  0  0
  -27.2499  -37.2952   24.8649 C   0  0  0  0  0  0  0  0  0  0  0  0
  -28.1627  -35.0096   23.5652 C   0  0  0  0  0  0  0  0  0  0  0  0
  -27.2660  -30.3839   19.6531 C   0  0  0  0  0  0  0  0  0  0  0  0
  -21.1056  -13.8292   21.5533 C   0  0  0  0  0  0  0  0  0  0  0  0
  -20.8099  -15.2623   19.6309 C   0  0  0  0  0  0  0  0  0  0  0  0
  -27.9865  -29.2178   19.3984 C   0  0  0  0  0  0  0  0  0  0  0  0
  -18.2959  -12.3861   20.3466 C   0  0  0  0  0  0  0  0  0  0  0  0
  -17.6459  -11.1900   20.6505 C   0  0  0  0  0  0  0  0  0  0  0  0
  -28.0104  -20.6084   17.1558 C   0  0  0  0  0  0  0  0  0  0  0  0
  -26.5312  -28.0003   20.8880 C   0  0  0  0  0  0  0  0  0  0  0  0
  -16.9818  -12.0945   22.7901 C   0  0  0  0  0  0  0  0  0  0  0  0
  -28.3429  -21.6101   16.2364 C   0  0  0  0  0  0  0  0  0  0  0  0
  -29.4816  -22.4065   16.4767 C   0  0  0  0  0  0  0  0  0  0  0  0
  -23.0146  -14.4666   20.2168 C   0  0  0  0  0  0  0  0  0  0  0  0
  -25.1140  -13.4788   19.1564 C   0  0  0  0  0  0  0  0  0  0  0  0
  -26.6560  -36.0564   25.1532 C   0  0  0  0  0  0  0  0  0  0  0  0
  -26.1775  -30.3692   20.5371 C   0  0  0  0  0  0  0  0  0  0  0  0
  -27.1234  -34.8975   24.5044 C   0  0  0  0  0  0  0  0  0  0  0  0
  -25.7969  -29.1670   21.1503 C   0  0  0  0  0  0  0  0  0  0  0  0
  -20.2722  -14.5721   20.7172 C   0  0  0  0  0  0  0  0  0  0  0  0
  -27.6210  -28.0264   20.0181 C   0  0  0  0  0  0  0  0  0  0  0  0
  -18.2890  -13.4365   21.2645 C   0  0  0  0  0  0  0  0  0  0  0  0
  -16.9889  -11.0442   21.8723 C   0  0  0  0  0  0  0  0  0  0  0  0
  -17.6319  -13.2907   22.4862 C   0  0  0  0  0  0  0  0  0  0  0  0
  -24.4310  -14.4130   19.9581 C   0  0  0  0  0  0  0  0  0  0  0  0
  -30.2188  -22.1444   17.6332 C   0  0  0  0  0  0  0  0  0  0  0  0
  -28.8179  -20.4396   18.2702 C   0  0  0  0  0  0  0  0  0  0  0  0
  -26.4319  -13.8574   19.2349 C   0  0  0  0  0  0  0  0  0  0  0  0
  -30.4403  -25.8083   19.8807 C   0  0  0  0  0  0  0  0  0  0  0  0
  -29.6543  -26.8721   20.0800 C   0  0  0  0  0  0  0  0  0  1  0  0
  -24.6028  -12.3681   18.4076 C   0  0  0  0  0  0  0  0  0  0  0  0
  -31.4266  -22.9089   17.9925 C   0  0  0  0  0  0  0  0  0  0  0  0
  -29.4327  -23.6150   20.1895 C   0  0  0  0  0  0  0  0  0  0  0  0
  -25.5067  -31.8036   23.2933 C   0  0  0  0  0  0  0  0  0  0  0  0
  -22.6119  -30.4023   22.8702 C   0  0  0  0  0  0  0  0  0  0  0  0
  -20.7862  -27.8993   21.4390 C   0  0  0  0  0  0  0  0  0  0  0  0
  -29.1204  -19.0729   20.3648 C   0  0  0  0  0  0  0  0  0  0  0  0
  -25.5762  -35.9961   26.2045 C   0  0  0  0  0  0  0  0  0  0  0  0
  -25.3941  -31.6299   20.7807 C   0  0  0  0  0  0  0  0  0  0  0  0
  -24.6237  -29.0937   22.0919 C   0  0  0  0  0  0  0  0  0  0  0  0
  -31.9056  -25.7493   20.2046 C   0  0  0  0  0  0  0  0  0  0  0  0
  -24.7671  -34.7021   26.1731 C   0  0  0  0  0  0  0  0  0  0  0  0
  -29.5360  -16.0290   22.1646 C   0  0  0  0  0  0  0  0  0  0  0  0
  -25.6940  -33.4954   26.0654 C   0  0  0  0  0  0  0  0  0  0  0  0
  -28.3395  -15.1819   21.7254 C   0  0  0  0  0  0  0  0  0  0  0  0
  -32.4671  -24.8166   19.1374 C   0  0  0  0  0  0  0  0  0  0  0  0
  -29.1684  -17.5062   22.2931 C   0  0  0  0  0  0  0  0  0  0  0  0
  -27.3355  -17.2459   20.6677 C   0  0  0  0  0  0  0  0  0  0  0  0
  -26.5088  -33.5398   24.7671 C   0  0  1  0  0  0  0  0  0  0  0  0
  -30.0264  -24.5450   19.1899 C   0  0  2  0  0  0  0  0  0  0  0  0
  -24.6208  -31.6082   22.0955 C   0  0  1  0  0  0  0  0  0  0  0  0
  -27.6731  -15.7602   20.4617 C   0  0  2  0  0  0  0  0  0  0  0  0
  -27.9325  -23.6147   20.3062 C   0  0  0  0  0  0  0  0  0  0  0  0
  -18.4499  -26.9926   21.3078 C   0  0  0  0  0  0  0  0  0  0  0  0
  -22.9195  -29.2123   25.6629 C   0  0  0  0  0  0  0  0  0  0  0  0
  -21.0813  -27.6065   25.1052 C   0  0  0  0  0  0  0  0  0  0  0  0
  -20.6259  -30.0589   25.1364 C   0  0  0  0  0  0  0  0  0  0  0  0
  -20.6607  -28.3262   18.5131 C   0  0  0  0  0  0  0  0  0  0  0  0
  -21.9992  -29.0772   23.2544 C   0  0  1  0  0  0  0  0  0  0  0  0
  -19.4753  -27.9196   20.6738 C   0  0  2  0  0  0  0  0  0  0  0  0
  -21.6798  -28.9902   24.7735 C   0  0  0  0  0  0  0  0  0  0  0  0
  -25.2476  -15.3170   20.5058 N   0  0  0  0  0  0  0  0  0  0  0  0
  -29.9143  -21.1822   18.5330 N   0  0  0  0  0  0  0  0  0  0  0  0
  -26.4573  -14.9525   20.0475 N   0  0  0  0  0  0  0  0  0  0  0  0
  -31.3097  -23.9972   18.7350 N   0  0  0  0  0  0  0  0  0  0  0  0
  -23.8931  -30.3544   22.3027 N   0  0  0  0  0  0  0  0  0  0  0  0
  -28.5460  -17.9859   21.0572 N   0  0  0  0  0  0  0  0  0  0  0  0
  -27.5599  -13.3571   18.6876 N   0  0  0  0  0  0  0  0  0  0  0  0
  -23.2235  -12.1210   18.4364 N   0  0  0  0  0  0  0  0  0  0  0  0
  -28.4605  -19.4191   19.1861 N   0  0  0  0  0  0  0  0  0  0  0  0
  -25.6940  -33.1268   23.6446 N   0  0  0  0  0  0  0  0  0  0  0  0
  -20.8388  -28.8977   22.3886 N   0  0  0  0  0  0  0  0  0  0  0  0
  -32.6149  -22.4915   17.5660 N   0  3  0  0  0  0  0  0  0  0  0  0
  -19.6917  -27.4871   19.2641 N   0  3  0  0  0  0  0  0  0  0  0  0
  -25.3490  -11.6072   17.7461 O   0  0  0  0  0  0  0  0  0  0  0  0
  -30.1341  -22.8814   20.8845 O   0  0  0  0  0  0  0  0  0  0  0  0
  -25.9838  -30.8261   23.8578 O   0  0  0  0  0  0  0  0  0  0  0  0
  -21.9742  -31.4411   23.0598 O   0  0  0  0  0  0  0  0  0  0  0  0
  -21.6731  -27.0774   21.2192 O   0  0  0  0  0  0  0  0  0  0  0  0
  -30.1395  -19.6363   20.7722 O   0  0  0  0  0  0  0  0  0  0  0  0
  -18.9341  -14.6236   20.9610 O   0  0  0  0  0  0  0  0  0  0  0  0
  -28.3230  -26.8869   19.7717 O   0  0  0  0  0  0  0  0  0  1  0  0
  -16.3634   -9.8961   22.1633 F   0  0  0  0  0  0  0  0  0  0  0  0
  -17.6207  -14.2966   23.3715 F   0  0  0  0  0  0  0  0  0  0  0  0
  1  2  1  0  0  0  0
  1  5  2  0  0  0  0
  2  6  2  0  0  0  0
  3  4  1  0  0  0  0
  3  9  2  0  0  0  0
  4 10  2  0  0  0  0
  5 20  1  0  0  0  0
  6 21  1  0  0  0  0
  7 12  2  0  0  0  0
  7 22  1  0  0  0  0
  8 13  1  0  0  0  0
  8 22  2  0  0  0  0
  9 24  1  0  0  0  0
 10 26  1  0  0  0  0
 11 14  2  0  0  0  0
 11 25  1  0  0  0  0
 12 28  1  0  0  0  0
 13 28  2  0  0  0  0
 14 29  1  0  0  0  0
 15 16  2  0  0  0  0
 15 30  1  0  0  0  0
 16 31  1  0  0  0  0
 17 20  2  0  0  0  0
 17 35  1  0  0  0  0
 18 27  1  0  0  0  0
 18 29  2  0  0  0  0
 19 31  2  0  0  0  0
 19 32  1  0  0  0  0
 20 21  1  0  0  0  0
 21 34  2  0  0  0  0
 22 33  1  0  0  0  0
 23 33  1  0  0  0  0
 23 36  2  0  0  0  0
 23 39  1  0  0  0  0
 24 26  2  0  0  0  0
 24 46  1  0  0  0  0
 25 27  2  0  0  0  0
 25 47  1  0  0  0  0
 26 57  1  0  0  0  0
 27 48  1  0  0  0  0
 28 89  1  0  0  0  0
 29 90  1  0  0  0  0
 30 32  2  0  0  0  0
 30 89  1  0  0  0  0
 31 91  1  0  0  0  0
 32 92  1  0  0  0  0
 33 70  2  0  0  0  0
 34 40  1  0  0  0  0
 34 71  1  0  0  0  0
 35 71  2  0  0  0  0
 35 78  1  0  0  0  0
 36 72  1  0  0  0  0
 36 76  1  0  0  0  0
 37 38  2  0  0  0  0
 37 49  1  0  0  0  0
 37 58  1  0  0  0  0
 38 90  1  0  0  0  0
 39 77  1  0  0  0  0
 39 83  2  0  0  0  0
 40 73  1  0  0  0  0
 40 81  2  0  0  0  0
 41 58  1  0  0  0  0
 41 61  1  0  0  0  0
 41 84  2  0  0  0  0
 42 59  1  0  0  0  0
 42 79  1  0  0  0  0
 42 85  2  0  0  0  0
 43 67  1  0  0  0  0
 43 74  1  0  0  0  0
 43 86  2  0  0  0  0
 44 68  1  0  0  0  0
 44 80  1  0  0  0  0
 44 87  2  0  0  0  0
 45 75  1  0  0  0  0
 45 78  1  0  0  0  0
 45 88  2  0  0  0  0
 46 50  1  0  0  0  0
 47 59  1  0  0  0  0
 48 74  1  0  0  0  0
 49 54  1  0  0  0  0
 50 52  1  0  0  0  0
 51 53  1  0  0  0  0
 51 55  1  0  0  0  0
 52 57  1  0  0  0  0
 53 60  1  0  0  0  0
 54 73  1  0  0  0  0
 55 75  1  0  0  0  0
 56 60  1  0  0  0  0
 56 75  1  0  0  0  0
 57 79  1  0  0  0  0
 58 73  1  0  0  0  0
 59 74  1  0  0  0  0
 60 72  1  0  0  0  0
 62 68  1  0  0  0  0
 63 69  1  0  0  0  0
 64 69  1  0  0  0  0
 65 69  1  0  0  0  0
 66 82  1  0  0  0  0
 67 69  1  0  0  0  0
 67 80  1  0  0  0  0
 68 82  1  0  0  0  0
 70 72  1  0  0  0  0
M  CHG  2  81   1  82   1
M  ISO  4  38 101  45 100  78 100  90 101
M  END
> <Batch ID>
0113

> <Smiles>
CNC(C)C(=O)NC(C(=O)N1Cc2cc([101O:1][101CH:1]=C3CCN(C(=N)c4nc([100NH:0][100C:0](=O)N5CCCC(n6nc(-c7ccc(Oc8ccc(F)cc8F)cc7)c(C(N)=O)c6N)C5)cc5ccccc45)C3C(C)=O)ccc2CC1C(=O)NC1CCCc2ccccc21)C(C)(C)C

> <Shape>
0.295

> <Color>
0.071

> <Negative vol penalty>
0.000

$$$$

  -OEChem-04052301343D

 84 92  0     1  0  0  0  0  0999 V2000
  -31.8081  -13.9224   21.8704 C   0  0  0  0  0  0  0  0  0  0  0  0
  -31.1791  -15.1628   21.8338 C   0  0  0  0  0  0  0  0  0  0  0  0
  -29.7745  -22.7900   20.9072 C   0  0  0  0  0  0  0  0  0  0  0  0
  -29.3813  -22.9930   18.5321 C   0  0  0  0  0  0  0  0  0  0  0  0
  -31.2320  -12.8306   21.2224 C   0  0  0  0  0  0  0  0  0  0  0  0
  -29.9741  -15.3122   21.1483 C   0  0  0  0  0  0  0  0  0  0  0  0
  -26.5620  -17.9771   23.7752 C   0  0  0  0  0  0  0  0  0  0  0  0
  -29.9422  -21.4129   20.7618 C   0  0  0  0  0  0  0  0  0  0  0  0
  -29.5490  -21.6159   18.3866 C   0  0  0  0  0  0  0  0  0  0  0  0
  -26.7144  -19.3628   23.7948 C   0  0  0  0  0  0  0  0  0  0  0  0
  -29.5171  -18.1060   17.4433 C   0  0  0  0  0  0  0  0  0  0  0  0
  -28.5989  -17.4216   16.6471 C   0  0  0  0  0  0  0  0  0  0  0  0
  -25.0171  -19.5675   22.0929 C   0  0  0  0  0  0  0  0  0  0  0  0
  -27.3623  -26.3514   27.5028 C   0  0  0  0  0  0  0  0  0  0  0  0
  -26.8070  -18.1303   18.1046 C   0  0  0  0  0  0  0  0  0  0  0  0
  -29.4941  -23.5800   19.7923 C   0  0  0  0  0  0  0  0  0  0  0  0
  -30.3166  -25.9938   19.8616 C   0  0  0  0  0  0  0  0  0  0  0  0
  -30.0144  -12.9644   20.5367 C   0  0  0  0  0  0  0  0  0  0  0  0
  -25.6422  -17.3745   22.9051 C   0  0  0  0  0  0  0  0  0  0  0  0
  -29.3818  -14.2214   20.4894 C   0  0  0  0  0  0  0  0  0  0  0  0
  -24.8531  -18.1741   22.0661 C   0  0  0  0  0  0  0  0  0  0  0  0
  -26.5821  -26.6020   26.3372 C   0  0  0  0  0  0  0  0  0  0  0  0
  -29.8294  -20.8259   19.5015 C   0  0  0  0  0  0  0  0  0  0  0  0
  -25.9439  -20.1581   22.9515 C   0  0  0  0  0  0  0  0  0  0  0  0
  -29.0804  -18.8025   18.5702 C   0  0  0  0  0  0  0  0  0  0  0  0
  -27.2438  -17.4338   16.9777 C   0  0  0  0  0  0  0  0  0  0  0  0
  -27.7253  -18.8147   18.9008 C   0  0  0  0  0  0  0  0  0  0  0  0
  -29.3202  -25.0025   19.9420 C   0  0  0  0  0  0  0  0  0  0  0  0
  -26.0322  -27.8649   26.3442 C   0  0  0  0  0  0  0  0  0  0  0  0
  -27.3792  -27.4328   28.3563 C   0  0  0  0  0  0  0  0  0  0  0  0
  -29.6452  -27.1733   20.0726 C   0  0  0  0  0  0  0  0  0  0  0  0
  -31.7231  -25.8604   19.6177 C   0  0  0  0  0  0  0  0  0  0  0  0
  -25.1637  -28.5216   25.3336 C   0  0  0  0  0  0  0  0  0  0  0  0
  -25.8548  -15.3227   20.4866 C   0  0  0  0  0  0  0  0  0  0  0  0
  -26.5848  -23.6131   24.0681 C   0  0  0  0  0  0  0  0  0  0  0  0
  -22.6155  -15.4287   20.6224 C   0  0  0  0  0  0  0  0  0  0  0  0
  -19.8084  -17.1446   21.5291 C   0  0  0  0  0  0  0  0  0  0  0  0
  -24.6190  -28.5737   22.9202 C   0  0  0  0  0  0  0  0  0  0  0  0
  -29.4542  -11.7666   19.8115 C   0  0  0  0  0  0  0  0  0  0  0  0
  -25.4708  -15.8802   22.9152 C   0  0  0  0  0  0  0  0  0  0  0  0
  -23.8371  -17.5776   21.1278 C   0  0  0  0  0  0  0  0  0  0  0  0
  -27.9860  -11.9215   19.4231 C   0  0  0  0  0  0  0  0  0  0  0  0
  -25.3279  -29.1788   19.5102 C   0  0  0  0  0  0  0  0  0  0  0  0
  -27.7425  -13.2878   18.7903 C   0  0  0  0  0  0  0  0  0  0  0  0
  -26.5339  -28.2790   19.2269 C   0  0  0  0  0  0  0  0  0  0  0  0
  -24.3326  -28.5118   20.4585 C   0  0  0  0  0  0  0  0  0  0  0  0
  -26.1090  -27.1093   21.4258 C   0  0  0  0  0  0  0  0  0  0  0  0
  -28.0611  -14.4176   19.7770 C   0  0  1  0  0  0  0  0  0  0  0  0
  -24.8701  -15.3389   21.6215 C   0  0  1  0  0  0  0  0  0  0  0  0
  -27.1743  -27.7640   20.5315 C   0  0  1  0  0  0  0  0  0  0  0  0
  -28.0680  -27.5675   29.6581 C   0  0  0  0  0  0  0  0  0  0  0  0
  -17.3669  -17.5772   21.9156 C   0  0  0  0  0  0  0  0  0  0  0  0
  -22.6382  -16.1161   17.6497 C   0  0  0  0  0  0  0  0  0  0  0  0
  -20.2624  -16.8721   17.8776 C   0  0  0  0  0  0  0  0  0  0  0  0
  -20.8615  -14.4936   18.3317 C   0  0  0  0  0  0  0  0  0  0  0  0
  -19.9180  -15.9980   24.2553 C   0  0  0  0  0  0  0  0  0  0  0  0
  -26.9851  -24.3577   25.3241 C   0  0  0  0  0  0  0  0  0  0  0  0
  -26.4868  -22.1059   24.2033 C   0  0  0  0  0  0  0  0  0  1  0  0
  -21.5460  -16.2812   19.9833 C   0  0  1  0  0  0  0  0  0  0  0  0
  -18.5632  -16.7129   22.2824 C   0  0  2  0  0  0  0  0  0  0  0  0
  -21.3475  -15.9522   18.4768 C   0  0  0  0  0  0  0  0  0  0  0  0
  -28.1082  -25.5082   20.1853 N   0  0  0  0  0  0  0  0  0  0  0  0
  -28.3385  -26.8302   20.2597 N   0  0  0  0  0  0  0  0  0  0  0  0
  -23.7109  -16.1113   21.1700 N   0  0  0  0  0  0  0  0  0  0  0  0
  -25.0155  -28.0613   21.6726 N   0  0  0  0  0  0  0  0  0  0  0  0
  -30.0510  -28.4602   20.1147 N   0  0  0  0  0  0  0  0  0  0  0  0
  -32.2484  -24.5759   19.4218 N   0  0  0  0  0  0  0  0  0  0  0  0
  -26.4038  -25.6757   25.3196 N   0  0  0  0  0  0  0  0  0  0  0  0
  -25.3608  -28.1139   24.0140 N   0  0  0  0  0  0  0  0  0  0  0  0
  -26.9868  -14.5701   20.7346 N   0  0  0  0  0  0  0  0  0  0  0  0
  -20.3467  -16.1084   20.7958 N   0  0  0  0  0  0  0  0  0  0  0  0
  -18.7850  -16.8168   23.7524 N   0  3  0  0  0  0  0  0  0  0  0  0
  -32.4941  -26.8495   19.5912 O   0  0  0  0  0  0  0  0  0  0  0  0
  -24.3194  -29.3316   25.7063 O   0  0  0  0  0  0  0  0  0  0  0  0
  -25.6052  -15.9457   19.4613 O   0  0  0  0  0  0  0  0  0  0  0  0
  -26.3524  -24.1826   23.0025 O   0  0  0  0  0  0  0  0  0  0  0  0
  -22.4805  -14.2027   20.6415 O   0  0  0  0  0  0  0  0  0  0  0  0
  -20.2564  -18.2878   21.5826 O   0  0  0  0  0  0  0  0  0  0  0  0
  -23.7084  -29.3985   23.0459 O   0  0  0  0  0  0  0  0  0  0  0  0
  -29.9932  -19.4822   19.3592 O   0  0  0  0  0  0  0  0  0  0  0  0
  -26.0911  -21.5108   22.9682 O   0  0  0  0  0  0  0  0  0  1  0  0
  -26.3619  -16.7778   16.2122 F   0  0  0  0  0  0  0  0  0  0  0  0
  -27.2996  -19.4830   19.9815 F   0  0  0  0  0  0  0  0  0  0  0  0
  -26.4569  -28.7428   27.7518 S   0  0  0  0  0  0  0  0  0  0  0  0
  1  2  1  0  0  0  0
  1  5  2  0  0  0  0
  2  6  2  0  0  0  0
  3  8  2  0  0  0  0
  3 16  1  0  0  0  0
  4  9  1  0  0  0  0
  4 16  2  0  0  0  0
  5 18  1  0  0  0  0
  6 20  1  0  0  0  0
  7 10  2  0  0  0  0
  7 19  1  0  0  0  0
  8 23  1  0  0  0  0
  9 23  2  0  0  0  0
 10 24  1  0  0  0  0
 11 12  2  0  0  0  0
 11 25  1  0  0  0  0
 12 26  1  0  0  0  0
 13 21  1  0  0  0  0
 13 24  2  0  0  0  0
 14 22  1  0  0  0  0
 14 30  2  0  0  0  0
 15 26  2  0  0  0  0
 15 27  1  0  0  0  0
 16 28  1  0  0  0  0
 17 28  1  0  0  0  0
 17 31  2  0  0  0  0
 17 32  1  0  0  0  0
 18 20  2  0  0  0  0
 18 39  1  0  0  0  0
 19 21  2  0  0  0  0
 19 40  1  0  0  0  0
 20 48  1  0  0  0  0
 21 41  1  0  0  0  0
 22 29  2  0  0  0  0
 22 68  1  0  0  0  0
 23 80  1  0  0  0  0
 24 81  1  0  0  0  0
 25 27  2  0  0  0  0
 25 80  1  0  0  0  0
 26 82  1  0  0  0  0
 27 83  1  0  0  0  0
 28 62  2  0  0  0  0
 29 33  1  0  0  0  0
 29 84  1  0  0  0  0
 30 51  1  0  0  0  0
 30 84  1  0  0  0  0
 31 63  1  0  0  0  0
 31 66  1  0  0  0  0
 32 67  1  0  0  0  0
 32 73  2  0  0  0  0
 33 69  1  0  0  0  0
 33 74  2  0  0  0  0
 34 49  1  0  0  0  0
 34 70  1  0  0  0  0
 34 75  2  0  0  0  0
 35 57  1  0  0  0  0
 35 58  1  0  0  0  0
 35 76  2  0  0  0  0
 36 59  1  0  0  0  0
 36 64  1  0  0  0  0
 36 77  2  0  0  0  0
 37 60  1  0  0  0  0
 37 71  1  0  0  0  0
 37 78  2  0  0  0  0
 38 65  1  0  0  0  0
 38 69  1  0  0  0  0
 38 79  2  0  0  0  0
 39 42  1  0  0  0  0
 40 49  1  0  0  0  0
 41 64  1  0  0  0  0
 42 44  1  0  0  0  0
 43 45  1  0  0  0  0
 43 46  1  0  0  0  0
 44 48  1  0  0  0  0
 45 50  1  0  0  0  0
 46 65  1  0  0  0  0
 47 50  1  0  0  0  0
 47 65  1  0  0  0  0
 48 70  1  0  0  0  0
 49 64  1  0  0  0  0
 50 63  1  0  0  0  0
 52 60  1  0  0  0  0
 53 61  1  0  0  0  0
 54 61  1  0  0  0  0
 55 61  1  0  0  0  0
 56 72  1  0  0  0  0
 57 68  1  0  0  0  0
 58 81  1  0  0  0  0
 59 61  1  0  0  0  0
 59 71  1  0  0  0  0
 60 72  1  0  0  0  0
 62 63  1  0  0  0  0
M  CHG  1  72   1
M  ISO  4  38 100  58 101  69 100  81 101
M  END
> <Batch ID>
0113

> <Smiles>
CNC(C)C(=O)NC(C(=O)N1Cc2cc([101O:1][101CH2:1]C(=O)CNc3cc(C)sc3C(=O)[100NH:0][100C:0](=O)N3CCCC(n4nc(-c5ccc(Oc6ccc(F)cc6F)cc5)c(C(N)=O)c4N)C3)ccc2CC1C(=O)NC1CCCc2ccccc21)C(C)(C)C

> <Shape>
0.196

> <Color>
0.071

> <Negative vol penalty>
0.000

$$$$

  -OEChem-04052301343D

 83 91  0     1  0  0  0  0  0999 V2000
  -15.0913  -24.8213   23.3141 C   0  0  0  0  0  0  0  0  0  0  0  0
  -15.8287  -23.6474   23.4307 C   0  0  0  0  0  0  0  0  0  0  0  0
  -23.0746   -9.8666   19.9609 C   0  0  0  0  0  0  0  0  0  0  0  0
  -23.8103   -9.9177   22.2616 C   0  0  0  0  0  0  0  0  0  0  0  0
  -15.7454  -26.0514   23.2582 C   0  0  0  0  0  0  0  0  0  0  0  0
  -17.2208  -23.7028   23.4902 C   0  0  0  0  0  0  0  0  0  0  0  0
  -22.8209  -20.3433   26.4345 C   0  0  0  0  0  0  0  0  0  0  0  0
  -22.3245   -8.7209   20.2262 C   0  0  0  0  0  0  0  0  0  0  0  0
  -23.0602   -8.7720   22.5270 C   0  0  0  0  0  0  0  0  0  0  0  0
  -24.0401  -19.7677   26.0793 C   0  0  0  0  0  0  0  0  0  0  0  0
  -19.8234   -7.9961   23.1112 C   0  0  0  0  0  0  0  0  0  0  0  0
  -19.0540   -7.9821   24.2746 C   0  0  0  0  0  0  0  0  0  0  0  0
  -29.7479  -17.7458   22.6530 C   0  0  0  0  0  0  0  0  0  0  0  0
  -25.0582  -21.9545   26.0536 C   0  0  0  0  0  0  0  0  0  0  0  0
  -20.2814   -6.0563   25.0631 C   0  0  0  0  0  0  0  0  0  0  0  0
  -23.8176  -10.4650   20.9786 C   0  0  0  0  0  0  0  0  0  0  0  0
  -30.2225  -18.9874   23.0608 C   0  0  0  0  0  0  0  0  0  0  0  0
  -24.1686  -12.9861   20.8113 C   0  0  0  0  0  0  0  0  0  0  0  0
  -17.1457  -26.1226   23.3268 C   0  0  0  0  0  0  0  0  0  0  0  0
  -22.7084  -21.7322   26.5914 C   0  0  0  0  0  0  0  0  0  0  0  0
  -17.8942  -24.9349   23.4338 C   0  0  0  0  0  0  0  0  0  0  0  0
  -23.8371  -22.5450   26.4132 C   0  0  0  0  0  0  0  0  0  0  0  0
  -22.3173   -8.1737   21.5092 C   0  0  0  0  0  0  0  0  0  0  0  0
  -25.1582  -20.5735   25.8860 C   0  0  0  0  0  0  0  0  0  0  0  0
  -20.8217   -7.0402   22.9237 C   0  0  0  0  0  0  0  0  0  0  0  0
  -19.2830   -7.0122   25.2506 C   0  0  0  0  0  0  0  0  0  0  0  0
  -21.0508   -6.0703   23.8997 C   0  0  0  0  0  0  0  0  0  0  0  0
  -31.4902  -19.4036   22.6697 C   0  0  0  0  0  0  0  0  0  0  0  0
  -24.5931  -11.6481   20.7051 C   0  0  0  0  0  0  0  0  0  0  0  0
  -30.5734  -16.9641   21.8611 C   0  0  0  0  0  0  0  0  0  0  0  0
  -32.2379  -18.5476   21.8772 C   0  0  0  0  0  0  0  0  0  0  0  0
  -25.2669  -13.7249   20.4445 C   0  0  0  0  0  0  0  0  0  0  0  0
  -29.3829  -19.8539   23.9049 C   0  0  0  0  0  0  0  0  0  0  0  0
  -28.0418  -19.8981   23.8761 C   0  0  0  0  0  0  0  0  0  0  0  0
  -22.8955  -13.5141   21.2062 C   0  0  0  0  0  0  0  0  0  0  0  0
  -21.0294  -24.0224   25.1632 C   0  0  0  0  0  0  0  0  0  0  0  0
  -22.3031  -25.8754   27.5012 C   0  0  0  0  0  0  0  0  0  0  0  0
  -24.8094  -26.3689   29.7643 C   0  0  0  0  0  0  0  0  0  0  0  0
  -30.7343  -14.7577   20.6560 C   0  0  0  0  0  0  0  0  0  0  0  0
  -17.8103  -27.4718   23.2148 C   0  0  0  0  0  0  0  0  0  0  0  0
  -21.3926  -22.3350   27.0009 C   0  0  0  0  0  0  0  0  0  0  0  0
  -23.7739  -24.0395   26.5894 C   0  0  0  0  0  0  0  0  0  0  0  0
  -19.2700  -27.4707   23.6614 C   0  0  0  0  0  0  0  0  0  0  0  0
  -29.6372  -12.2998   18.3252 C   0  0  0  0  0  0  0  0  0  0  0  0
  -20.0123  -26.2831   23.0568 C   0  0  0  0  0  0  0  0  0  0  0  0
  -28.1922  -12.0212   18.7453 C   0  0  0  0  0  0  0  0  0  0  0  0
  -30.5403  -12.5501   19.5316 C   0  0  0  0  0  0  0  0  0  0  0  0
  -28.6213  -13.3080   20.8777 C   0  0  0  0  0  0  0  0  0  0  0  0
  -19.4046  -24.9557   23.5262 C   0  0  1  0  0  0  0  0  0  0  0  0
  -21.2703  -23.8101   26.6311 C   0  0  1  0  0  0  0  0  0  0  0  0
  -27.6603  -13.1138   19.6934 C   0  0  2  0  0  0  0  0  0  0  0  0
  -25.5978  -27.9926   31.5077 C   0  0  0  0  0  0  0  0  0  0  0  0
  -23.2860  -27.7521   25.3054 C   0  0  0  0  0  0  0  0  0  0  0  0
  -24.8302  -28.7904   26.9805 C   0  0  0  0  0  0  0  0  0  0  0  0
  -22.3620  -28.9025   27.3247 C   0  0  0  0  0  0  0  0  0  0  0  0
  -24.6063  -24.3415   31.9108 C   0  0  0  0  0  0  0  0  0  0  0  0
  -34.2136  -18.0180   20.6641 C   0  0  0  0  0  0  0  0  0  0  0  0
  -27.2316  -20.8063   24.7446 C   0  0  0  0  0  0  0  0  0  1  0  0
  -23.5596  -26.6993   27.6470 C   0  0  1  0  0  0  0  0  0  0  0  0
  -24.7791  -26.7402   31.2359 C   0  0  2  0  0  0  0  0  0  0  0  0
  -23.5105  -28.0082   26.8091 C   0  0  0  0  0  0  0  0  0  0  0  0
  -25.8620  -11.5401   20.3022 N   0  0  0  0  0  0  0  0  0  0  0  0
  -31.8106  -17.3343   21.4612 N   0  0  0  0  0  0  0  0  0  0  0  0
  -26.2443  -12.8197   20.1520 N   0  0  0  0  0  0  0  0  0  0  0  0
  -22.4634  -24.5821   26.9840 N   0  0  0  0  0  0  0  0  0  0  0  0
  -29.9754  -13.6001   20.3821 N   0  0  0  0  0  0  0  0  0  0  0  0
  -25.4823  -15.0540   20.3469 N   0  0  0  0  0  0  0  0  0  0  0  0
  -21.8772  -12.6149   21.5511 N   0  0  0  0  0  0  0  0  0  0  0  0
  -30.0812  -15.7010   21.4486 N   0  0  0  0  0  0  0  0  0  0  0  0
  -19.8338  -24.6522   24.8746 N   0  0  0  0  0  0  0  0  0  0  0  0
  -23.7441  -26.9128   29.0783 N   0  0  0  0  0  0  0  0  0  0  0  0
  -25.3313  -25.6294   32.0619 N   0  3  0  0  0  0  0  0  0  0  0  0
  -22.6625  -14.7463   21.2362 O   0  0  0  0  0  0  0  0  0  0  0  0
  -21.8670  -23.6442   24.3526 O   0  0  0  0  0  0  0  0  0  0  0  0
  -21.2202  -26.3588   27.8407 O   0  0  0  0  0  0  0  0  0  0  0  0
  -25.6921  -25.6698   29.2718 O   0  0  0  0  0  0  0  0  0  0  0  0
  -31.8687  -14.9136   20.1970 O   0  0  0  0  0  0  0  0  0  0  0  0
  -21.5852   -7.0559   21.7685 O   0  0  0  0  0  0  0  0  0  0  0  0
  -26.3493  -20.0143   25.5387 O   0  0  0  0  0  0  0  0  0  1  0  0
  -33.4897  -18.9347   21.4761 O   0  0  0  0  0  0  0  0  0  0  0  0
  -18.5452   -6.9998   26.3684 F   0  0  0  0  0  0  0  0  0  0  0  0
  -22.0093   -5.1501   23.7257 F   0  0  0  0  0  0  0  0  0  0  0  0
  -31.9802  -20.5936   23.0432 F   0  0  0  0  0  0  0  0  0  0  0  0
  1  2  1  0  0  0  0
  1  5  2  0  0  0  0
  2  6  2  0  0  0  0
  3  8  2  0  0  0  0
  3 16  1  0  0  0  0
  4  9  1  0  0  0  0
  4 16  2  0  0  0  0
  5 19  1  0  0  0  0
  6 21  1  0  0  0  0
  7 10  2  0  0  0  0
  7 20  1  0  0  0  0
  8 23  1  0  0  0  0
  9 23  2  0  0  0  0
 10 24  1  0  0  0  0
 11 12  2  0  0  0  0
 11 25  1  0  0  0  0
 12 26  1  0  0  0  0
 13 17  1  0  0  0  0
 13 30  2  0  0  0  0
 14 22  1  0  0  0  0
 14 24  2  0  0  0  0
 15 26  2  0  0  0  0
 15 27  1  0  0  0  0
 16 29  1  0  0  0  0
 17 28  2  0  0  0  0
 17 33  1  0  0  0  0
 18 29  1  0  0  0  0
 18 32  2  0  0  0  0
 18 35  1  0  0  0  0
 19 21  2  0  0  0  0
 19 40  1  0  0  0  0
 20 22  2  0  0  0  0
 20 41  1  0  0  0  0
 21 49  1  0  0  0  0
 22 42  1  0  0  0  0
 23 78  1  0  0  0  0
 24 79  1  0  0  0  0
 25 27  2  0  0  0  0
 25 78  1  0  0  0  0
 26 81  1  0  0  0  0
 27 82  1  0  0  0  0
 28 31  1  0  0  0  0
 28 83  1  0  0  0  0
 29 62  2  0  0  0  0
 30 63  1  0  0  0  0
 30 69  1  0  0  0  0
 31 63  2  0  0  0  0
 31 80  1  0  0  0  0
 32 64  1  0  0  0  0
 32 67  1  0  0  0  0
 33 34  2  0  0  0  0
 34 58  1  0  0  0  0
 35 68  1  0  0  0  0
 35 73  2  0  0  0  0
 36 50  1  0  0  0  0
 36 70  1  0  0  0  0
 36 74  2  0  0  0  0
 37 59  1  0  0  0  0
 37 65  1  0  0  0  0
 37 75  2  0  0  0  0
 38 60  1  0  0  0  0
 38 71  1  0  0  0  0
 38 76  2  0  0  0  0
 39 66  1  0  0  0  0
 39 69  1  0  0  0  0
 39 77  2  0  0  0  0
 40 43  1  0  0  0  0
 41 50  1  0  0  0  0
 42 65  1  0  0  0  0
 43 45  1  0  0  0  0
 44 46  1  0  0  0  0
 44 47  1  0  0  0  0
 45 49  1  0  0  0  0
 46 51  1  0  0  0  0
 47 66  1  0  0  0  0
 48 51  1  0  0  0  0
 48 66  1  0  0  0  0
 49 70  1  0  0  0  0
 50 65  1  0  0  0  0
 51 64  1  0  0  0  0
 52 60  1  0  0  0  0
 53 61  1  0  0  0  0
 54 61  1  0  0  0  0
 55 61  1  0  0  0  0
 56 72  1  0  0  0  0
 57 80  1  0  0  0  0
 58 79  1  0  0  0  0
 59 61  1  0  0  0  0
 59 71  1  0  0  0  0
 60 72  1  0  0  0  0
 62 64  1  0  0  0  0
M  CHG  1  72   1
M  ISO  4  39 100  58 101  69 100  79 101
M  END
> <Batch ID>
0113

> <Smiles>
CNC(C)C(=O)NC(C(=O)N1Cc2cc([101O:1][101CH2:1]C=Cc3cc([100NH:0][100C:0](=O)N4CCCC(n5nc(-c6ccc(Oc7ccc(F)cc7F)cc6)c(C(N)=O)c5N)C4)nc(OC)c3F)ccc2CC1C(=O)NC1CCCc2ccccc21)C(C)(C)C

> <Shape>
0.197

> <Color>
0.192

> <Negative vol penalty>
0.000

$$$$

  -OEChem-04052301343D

 88 96  0     1  0  0  0  0  0999 V2000
  -21.7864   -7.9660   21.0793 C   0  0  0  0  0  0  0  0  0  0  0  0
  -21.8905   -8.9096   22.0963 C   0  0  0  0  0  0  0  0  0  0  0  0
  -21.9039  -28.3972   20.2373 C   0  0  0  0  0  0  0  0  0  0  0  0
  -22.8907  -27.1910   22.0835 C   0  0  0  0  0  0  0  0  0  0  0  0
  -22.8417   -7.7865   20.1859 C   0  0  0  0  0  0  0  0  0  0  0  0
  -23.0504   -9.6734   22.2212 C   0  0  0  0  0  0  0  0  0  0  0  0
  -22.8045  -16.8663   21.9158 C   0  0  0  0  0  0  0  0  0  0  0  0
  -20.8524  -27.4815   20.2010 C   0  0  0  0  0  0  0  0  0  0  0  0
  -21.8392  -26.2753   22.0472 C   0  0  0  0  0  0  0  0  0  0  0  0
  -22.8125  -18.2517   22.0790 C   0  0  0  0  0  0  0  0  0  0  0  0
  -18.6269  -26.1312   23.0868 C   0  0  0  0  0  0  0  0  0  0  0  0
  -18.0460  -25.7653   24.3010 C   0  0  0  0  0  0  0  0  0  0  0  0
  -25.2231  -18.2262   22.2694 C   0  0  0  0  0  0  0  0  0  0  0  0
  -27.4724  -25.2792   21.7019 C   0  0  0  0  0  0  0  0  0  0  0  0
  -18.6456  -23.4607   23.8933 C   0  0  0  0  0  0  0  0  0  0  0  0
  -22.9231  -28.2520   21.1785 C   0  0  0  0  0  0  0  0  0  0  0  0
  -24.0738  -30.3899   21.9615 C   0  0  0  0  0  0  0  0  0  0  0  0
  -24.0112   -8.5553   20.2940 C   0  0  0  0  0  0  0  0  0  0  0  0
  -24.0085  -16.1565   21.9133 C   0  0  0  0  0  0  0  0  0  0  0  0
  -24.1228   -9.5031   21.3292 C   0  0  0  0  0  0  0  0  0  0  0  0
  -25.2223  -16.8398   22.0938 C   0  0  0  0  0  0  0  0  0  0  0  0
  -29.4364  -26.4494   20.9208 C   0  0  0  0  0  0  0  0  0  0  0  0
  -27.7348  -24.2416   20.8073 C   0  0  0  0  0  0  0  0  0  0  0  0
  -29.6989  -25.4118   20.0263 C   0  0  0  0  0  0  0  0  0  0  0  0
  -20.8200  -26.4205   21.1060 C   0  0  0  0  0  0  0  0  0  0  0  0
  -24.0188  -18.9299   22.2557 C   0  0  0  0  0  0  0  0  0  0  0  0
  -19.2170  -25.1619   22.2758 C   0  0  0  0  0  0  0  0  0  0  0  0
  -28.8481  -24.3079   19.9696 C   0  0  0  0  0  0  0  0  0  0  0  0
  -18.0554  -24.4300   24.7043 C   0  0  0  0  0  0  0  0  0  0  0  0
  -28.3232  -26.3831   21.7586 C   0  0  0  0  0  0  0  0  0  0  0  0
  -19.2264  -23.8266   22.6790 C   0  0  0  0  0  0  0  0  0  0  0  0
  -24.0099  -29.1973   21.2162 C   0  0  0  0  0  0  0  0  0  0  0  0
  -25.3021  -30.9218   21.6535 C   0  0  0  0  0  0  0  0  0  0  0  0
  -25.6449  -23.4038   20.4593 C   0  0  0  0  0  0  0  0  0  0  0  0
  -23.1092  -30.9654   22.8525 C   0  0  0  0  0  0  0  0  0  0  0  0
  -24.6656  -22.2769   20.3937 C   0  0  0  0  0  0  0  0  0  0  0  0
  -25.7114  -12.8275   21.6071 C   0  0  0  0  0  0  0  0  0  0  0  0
  -30.3920  -28.3965   19.6970 C   0  0  0  0  0  0  0  0  0  0  0  0
  -27.4308  -14.8524   20.0727 C   0  0  0  0  0  0  0  0  0  0  0  0
  -28.8124  -17.3027   18.1428 C   0  0  0  0  0  0  0  0  0  0  0  0
  -25.1441   -8.2923   19.3337 C   0  0  0  0  0  0  0  0  0  0  0  0
  -24.0430  -14.6564   21.8023 C   0  0  0  0  0  0  0  0  0  0  0  0
  -26.4904  -16.0309   22.1190 C   0  0  0  0  0  0  0  0  0  0  0  0
  -26.1896   -9.4043   19.3060 C   0  0  0  0  0  0  0  0  0  0  0  0
  -28.5600  -31.0669   18.1631 C   0  0  0  0  0  0  0  0  0  0  0  0
  -26.5688   -9.8160   20.7250 C   0  0  0  0  0  0  0  0  0  0  0  0
  -27.1826  -30.9805   18.8192 C   0  0  0  0  0  0  0  0  0  0  0  0
  -29.1752  -29.6841   17.9720 C   0  0  0  0  0  0  0  0  0  0  0  0
  -27.8860  -28.7913   19.8858 C   0  0  0  0  0  0  0  0  0  0  0  0
  -25.3550  -10.3682   21.4822 C   0  0  1  0  0  0  0  0  0  0  0  0
  -25.2657  -14.1367   21.0251 C   0  0  1  0  0  0  0  0  0  0  0  0
  -27.2424  -30.1686   20.1252 C   0  0  2  0  0  0  0  0  0  0  0  0
  -30.7245  -17.7324   16.5755 C   0  0  0  0  0  0  0  0  0  0  0  0
  -29.3395  -14.9986   22.4474 C   0  0  0  0  0  0  0  0  0  0  0  0
  -30.9122  -16.3150   21.0114 C   0  0  0  0  0  0  0  0  0  0  0  0
  -30.3161  -13.9752   20.3850 C   0  0  0  0  0  0  0  0  0  0  0  0
  -26.9853  -17.9351   15.9021 C   0  0  0  0  0  0  0  0  0  0  0  0
  -29.9192  -22.2236   19.5645 C   0  0  0  0  0  0  0  0  0  0  0  0
  -23.4949  -22.3755   21.3428 C   0  0  0  0  0  0  0  0  0  0  0  0
  -22.9748  -21.0100   21.7650 C   0  0  0  0  0  0  0  0  0  1  0  0
  -30.3320  -27.6430   21.0019 C   0  0  2  0  0  0  0  0  0  0  0  0
  -28.5963  -15.8081   20.1110 C   0  0  1  0  0  0  0  0  0  0  0  0
  -29.2691  -17.3076   16.6951 C   0  0  2  0  0  0  0  0  0  0  0  0
  -29.7643  -15.2831   20.9929 C   0  0  0  0  0  0  0  0  0  0  0  0
  -25.1100  -28.9839   20.4894 N   0  0  0  0  0  0  0  0  0  0  0  0
  -26.8679  -23.1370   20.7613 N   0  0  0  0  0  0  0  0  0  0  0  0
  -25.8767  -30.0496   20.7764 N   0  0  0  0  0  0  0  0  0  0  0  0
  -26.4537  -15.0063   21.0637 N   0  0  0  0  0  0  0  0  0  0  0  0
  -29.1933  -28.9362   19.2304 N   0  0  0  0  0  0  0  0  0  0  0  0
  -30.8268  -25.4760   19.1758 N   0  0  0  0  0  0  0  0  0  0  0  0
  -25.9359  -32.0458   22.0501 N   0  0  0  0  0  0  0  0  0  0  0  0
  -21.8993  -30.2877   23.0554 N   0  0  0  0  0  0  0  0  0  0  0  0
  -25.0752  -11.7261   21.0670 N   0  0  0  0  0  0  0  0  0  0  0  0
  -28.9632  -16.0603   18.7217 N   0  0  0  0  0  0  0  0  0  0  0  0
  -31.7298  -27.3212   21.4356 N   0  3  0  0  0  0  0  0  0  0  0  0
  -28.4374  -18.2485   15.8927 N   0  3  0  0  0  0  0  0  0  0  0  0
  -23.3073  -32.0568   23.4383 O   0  0  0  0  0  0  0  0  0  0  0  0
  -24.8693  -21.3890   19.5810 O   0  0  0  0  0  0  0  0  0  0  0  0
  -26.5705  -12.8159   22.4809 O   0  0  0  0  0  0  0  0  0  0  0  0
  -31.4735  -28.5038   19.1129 O   0  0  0  0  0  0  0  0  0  0  0  0
  -27.3881  -13.9882   19.1926 O   0  0  0  0  0  0  0  0  0  0  0  0
  -28.3697  -18.3019   18.7050 O   0  0  0  0  0  0  0  0  0  0  0  0
  -19.7940  -25.5269   21.0710 O   0  0  0  0  0  0  0  0  0  0  0  0
  -29.1002  -23.2910   19.0948 O   0  0  0  0  0  0  0  0  0  0  0  0
  -24.0197  -20.2830   22.4100 O   0  0  0  0  0  0  0  0  0  1  0  0
  -17.4989  -24.0790   25.8710 F   0  0  0  0  0  0  0  0  0  0  0  0
  -28.0610  -27.3756   22.6206 F   0  0  0  0  0  0  0  0  0  0  0  0
  -19.7930  -22.8911   21.9047 F   0  0  0  0  0  0  0  0  0  0  0  0
  1  2  1  0  0  0  0
  1  5  2  0  0  0  0
  2  6  2  0  0  0  0
  3  8  2  0  0  0  0
  3 16  1  0  0  0  0
  4  9  1  0  0  0  0
  4 16  2  0  0  0  0
  5 18  1  0  0  0  0
  6 20  1  0  0  0  0
  7 10  2  0  0  0  0
  7 19  1  0  0  0  0
  8 25  1  0  0  0  0
  9 25  2  0  0  0  0
 10 26  1  0  0  0  0
 11 12  2  0  0  0  0
 11 27  1  0  0  0  0
 12 29  1  0  0  0  0
 13 21  1  0  0  0  0
 13 26  2  0  0  0  0
 14 23  1  0  0  0  0
 14 30  2  0  0  0  0
 15 29  2  0  0  0  0
 15 31  1  0  0  0  0
 16 32  1  0  0  0  0
 17 32  1  0  0  0  0
 17 33  2  0  0  0  0
 17 35  1  0  0  0  0
 18 20  2  0  0  0  0
 18 41  1  0  0  0  0
 19 21  2  0  0  0  0
 19 42  1  0  0  0  0
 20 50  1  0  0  0  0
 21 43  1  0  0  0  0
 22 24  2  0  0  0  0
 22 30  1  0  0  0  0
 22 61  1  0  0  0  0
 23 28  2  0  0  0  0
 23 66  1  0  0  0  0
 24 28  1  0  0  0  0
 24 70  1  0  0  0  0
 25 83  1  0  0  0  0
 26 85  1  0  0  0  0
 27 31  2  0  0  0  0
 27 83  1  0  0  0  0
 28 84  1  0  0  0  0
 29 86  1  0  0  0  0
 30 87  1  0  0  0  0
 31 88  1  0  0  0  0
 32 65  2  0  0  0  0
 33 67  1  0  0  0  0
 33 71  1  0  0  0  0
 34 36  1  0  0  0  0
 34 66  2  0  0  0  0
 35 72  1  0  0  0  0
 35 77  2  0  0  0  0
 36 59  1  0  0  0  0
 36 78  2  0  0  0  0
 37 51  1  0  0  0  0
 37 73  1  0  0  0  0
 37 79  2  0  0  0  0
 38 61  1  0  0  0  0
 38 69  1  0  0  0  0
 38 80  2  0  0  0  0
 39 62  1  0  0  0  0
 39 68  1  0  0  0  0
 39 81  2  0  0  0  0
 40 63  1  0  0  0  0
 40 74  1  0  0  0  0
 40 82  2  0  0  0  0
 41 44  1  0  0  0  0
 42 51  1  0  0  0  0
 43 68  1  0  0  0  0
 44 46  1  0  0  0  0
 45 47  1  0  0  0  0
 45 48  1  0  0  0  0
 46 50  1  0  0  0  0
 47 52  1  0  0  0  0
 48 69  1  0  0  0  0
 49 52  1  0  0  0  0
 49 69  1  0  0  0  0
 50 73  1  0  0  0  0
 51 68  1  0  0  0  0
 52 67  1  0  0  0  0
 53 63  1  0  0  0  0
 54 64  1  0  0  0  0
 55 64  1  0  0  0  0
 56 64  1  0  0  0  0
 57 76  1  0  0  0  0
 58 84  1  0  0  0  0
 59 60  1  0  0  0  0
 60 85  1  0  0  0  0
 61 75  1  0  0  0  0
 62 64  1  0  0  0  0
 62 74  1  0  0  0  0
 63 76  1  0  0  0  0
 65 67  1  0  0  0  0
M  CHG  2  75   1  76   1
M  ISO  4  38 100  60 101  61 100  85 101
M  END
> <Batch ID>
0113

> <Smiles>
CNC(C)C(=O)NC(C(=O)N1Cc2cc([101O:1][101CH2:1]CC(=O)CNc3cc(F)c([100C:0](=N)[100C:0](=O)N4CCCC(n5nc(-c6ccc(Oc7ccc(F)cc7F)cc6)c(C(N)=O)c5N)C4)c(N)c3OC)ccc2CC1C(=O)NC1CCCc2ccccc21)C(C)(C)C

> <Shape>
0.243

> <Color>
0.080

> <Negative vol penalty>
0.000

$$$$

  -OEChem-04052301343D

 83 91  0     1  0  0  0  0  0999 V2000
  -32.1702  -31.4527   18.2031 C   0  0  0  0  0  0  0  0  0  0  0  0
  -31.6394  -30.2017   18.5006 C   0  0  0  0  0  0  0  0  0  0  0  0
  -22.9797   -9.9184   20.4532 C   0  0  0  0  0  0  0  0  0  0  0  0
  -23.5967  -10.4309   22.7322 C   0  0  0  0  0  0  0  0  0  0  0  0
  -31.7490  -32.5748   18.9155 C   0  0  0  0  0  0  0  0  0  0  0  0
  -30.6878  -30.0718   19.5115 C   0  0  0  0  0  0  0  0  0  0  0  0
  -26.8053  -27.1161   18.1568 C   0  0  0  0  0  0  0  0  0  0  0  0
  -22.1701   -8.8770   20.9065 C   0  0  0  0  0  0  0  0  0  0  0  0
  -22.7869   -9.3895   23.1856 C   0  0  0  0  0  0  0  0  0  0  0  0
  -27.0138  -25.7379   18.1860 C   0  0  0  0  0  0  0  0  0  0  0  0
  -22.9596   -6.0213   23.4222 C   0  0  0  0  0  0  0  0  0  0  0  0
  -23.4823   -5.1709   24.3965 C   0  0  0  0  0  0  0  0  0  0  0  0
  -29.5988  -18.2148   23.1451 C   0  0  0  0  0  0  0  0  0  0  0  0
  -25.8825  -25.6178   20.3131 C   0  0  0  0  0  0  0  0  0  0  0  0
  -21.6889   -5.7848   25.8945 C   0  0  0  0  0  0  0  0  0  0  0  0
  -23.6931  -10.6953   21.3660 C   0  0  0  0  0  0  0  0  0  0  0  0
  -28.7737  -19.3683   23.2827 C   0  0  0  0  0  0  0  0  0  0  0  0
  -24.1566  -13.1132   20.6978 C   0  0  0  0  0  0  0  0  0  0  0  0
  -30.7846  -32.4601   19.9291 C   0  0  0  0  0  0  0  0  0  0  0  0
  -26.1422  -27.7581   19.2126 C   0  0  0  0  0  0  0  0  0  0  0  0
  -30.2543  -31.1932   20.2391 C   0  0  0  0  0  0  0  0  0  0  0  0
  -25.6645  -27.0039   20.2938 C   0  0  0  0  0  0  0  0  0  0  0  0
  -22.0736   -8.6126   22.2727 C   0  0  0  0  0  0  0  0  0  0  0  0
  -26.5549  -24.9889   19.2656 C   0  0  0  0  0  0  0  0  0  0  0  0
  -21.8016   -6.7535   23.6841 C   0  0  0  0  0  0  0  0  0  0  0  0
  -22.8470   -5.0527   25.6326 C   0  0  0  0  0  0  0  0  0  0  0  0
  -21.1662   -6.6352   24.9201 C   0  0  0  0  0  0  0  0  0  0  0  0
  -24.5301  -11.7708   20.8983 C   0  0  0  0  0  0  0  0  0  0  0  0
  -30.0283  -18.0376   21.8483 C   0  0  0  0  0  0  0  0  0  0  0  0
  -25.3021  -13.7253   20.2509 C   0  0  0  0  0  0  0  0  0  0  0  0
  -28.6041  -20.0288   22.0857 C   0  0  0  0  0  0  0  0  0  0  0  0
  -28.3612  -19.1951   25.6941 C   0  0  0  0  0  0  0  0  0  0  0  0
  -28.1902  -19.7965   24.5008 C   0  0  0  0  0  0  0  0  0  0  0  0
  -22.8876  -13.7499   20.8976 C   0  0  0  0  0  0  0  0  0  0  0  0
  -26.9322  -29.9961   21.3271 C   0  0  0  0  0  0  0  0  0  0  0  0
  -23.7973  -29.7885   22.1343 C   0  0  0  0  0  0  0  0  0  0  0  0
  -27.7647  -21.7966   20.5032 C   0  0  0  0  0  0  0  0  0  0  0  0
  -20.9362  -27.9289   22.1872 C   0  0  0  0  0  0  0  0  0  0  0  0
  -30.8046  -14.5937   20.5873 C   0  0  0  0  0  0  0  0  0  0  0  0
  -30.3954  -33.6942   20.7038 C   0  0  0  0  0  0  0  0  0  0  0  0
  -25.9017  -29.2417   19.1534 C   0  0  0  0  0  0  0  0  0  0  0  0
  -24.9290  -27.6423   21.4426 C   0  0  0  0  0  0  0  0  0  0  0  0
  -29.1077  -33.5284   21.5067 C   0  0  0  0  0  0  0  0  0  0  0  0
  -29.7084  -11.7587   18.7331 C   0  0  0  0  0  0  0  0  0  0  0  0
  -29.1217  -32.2088   22.2717 C   0  0  0  0  0  0  0  0  0  0  0  0
  -28.2351  -11.6164   19.1194 C   0  0  0  0  0  0  0  0  0  0  0  0
  -30.5590  -12.2226   19.9135 C   0  0  0  0  0  0  0  0  0  0  0  0
  -28.6109  -13.3109   20.9596 C   0  0  0  0  0  0  0  0  0  0  0  0
  -29.2019  -31.0155   21.3119 C   0  0  1  0  0  0  0  0  0  0  0  0
  -25.6676  -29.8643   20.5263 C   0  0  1  0  0  0  0  0  0  0  0  0
  -27.7041  -12.8991   19.7872 C   0  0  2  0  0  0  0  0  0  0  0  0
  -18.5457  -28.0132   22.9459 C   0  0  0  0  0  0  0  0  0  0  0  0
  -24.6978  -29.3342   25.0140 C   0  0  0  0  0  0  0  0  0  0  0  0
  -22.3954  -28.4960   25.5282 C   0  0  0  0  0  0  0  0  0  0  0  0
  -22.7229  -30.8482   24.7651 C   0  0  0  0  0  0  0  0  0  0  0  0
  -19.9264  -27.6038   19.4243 C   0  0  0  0  0  0  0  0  0  0  0  0
  -30.8924  -16.9684   21.3028 C   0  0  0  0  0  0  0  0  0  0  0  0
  -26.8943  -23.0371   20.5813 C   0  0  0  0  0  0  0  0  0  1  0  0
  -22.9968  -28.9582   23.1084 C   0  0  1  0  0  0  0  0  0  0  0  0
  -19.5085  -28.2657   21.7962 C   0  0  2  0  0  0  0  0  0  0  0  0
  -23.2188  -29.3971   24.5833 C   0  0  0  0  0  0  0  0  0  0  0  0
  -25.8126  -11.5428   20.6030 N   0  0  0  0  0  0  0  0  0  0  0  0
  -26.2549  -12.7502   20.2122 N   0  0  0  0  0  0  0  0  0  0  0  0
  -24.7240  -29.0967   21.3416 N   0  0  0  0  0  0  0  0  0  0  0  0
  -30.0025  -13.4438   20.5007 N   0  0  0  0  0  0  0  0  0  0  0  0
  -25.5771  -14.9970   19.8912 N   0  0  0  0  0  0  0  0  0  0  0  0
  -21.8164  -12.9741   21.3612 N   0  0  0  0  0  0  0  0  0  0  0  0
  -27.8798  -21.1981   21.7532 N   0  0  0  0  0  0  0  0  0  0  0  0
  -27.9085  -30.7590   20.7153 N   0  0  0  0  0  0  0  0  0  0  0  0
  -21.6090  -29.0336   22.6649 N   0  0  0  0  0  0  0  0  0  0  0  0
  -30.1978  -15.7093   21.1511 N   0  0  0  0  0  0  0  0  0  0  0  0
  -19.0805  -27.4368   20.6340 N   0  3  0  0  0  0  0  0  0  0  0  0
  -22.7047  -14.9672   20.6561 O   0  0  0  0  0  0  0  0  0  0  0  0
  -27.0153  -29.4476   22.4198 O   0  0  0  0  0  0  0  0  0  0  0  0
  -23.6022  -31.0050   22.0738 O   0  0  0  0  0  0  0  0  0  0  0  0
  -28.2671  -21.4298   19.4460 O   0  0  0  0  0  0  0  0  0  0  0  0
  -21.4062  -26.7981   22.0830 O   0  0  0  0  0  0  0  0  0  0  0  0
  -31.9732  -14.6253   20.1867 O   0  0  0  0  0  0  0  0  0  0  0  0
  -21.2834   -7.5966   22.7154 O   0  0  0  0  0  0  0  0  0  0  0  0
  -26.7577  -23.6437   19.2968 O   0  0  0  0  0  0  0  0  0  1  0  0
  -23.3482   -4.2349   26.5676 F   0  0  0  0  0  0  0  0  0  0  0  0
  -20.0527   -7.3351   25.1771 F   0  0  0  0  0  0  0  0  0  0  0  0
  -29.4375  -19.2586   20.8032 S   0  0  0  0  0  0  0  0  0  0  0  0
  1  2  1  0  0  0  0
  1  5  2  0  0  0  0
  2  6  2  0  0  0  0
  3  8  2  0  0  0  0
  3 16  1  0  0  0  0
  4  9  1  0  0  0  0
  4 16  2  0  0  0  0
  5 19  1  0  0  0  0
  6 21  1  0  0  0  0
  7 10  2  0  0  0  0
  7 20  1  0  0  0  0
  8 23  1  0  0  0  0
  9 23  2  0  0  0  0
 10 24  1  0  0  0  0
 11 12  2  0  0  0  0
 11 25  1  0  0  0  0
 12 26  1  0  0  0  0
 13 17  1  0  0  0  0
 13 29  2  0  0  0  0
 14 22  1  0  0  0  0
 14 24  2  0  0  0  0
 15 26  2  0  0  0  0
 15 27  1  0  0  0  0
 16 28  1  0  0  0  0
 17 31  2  0  0  0  0
 17 33  1  0  0  0  0
 18 28  1  0  0  0  0
 18 30  2  0  0  0  0
 18 34  1  0  0  0  0
 19 21  2  0  0  0  0
 19 40  1  0  0  0  0
 20 22  2  0  0  0  0
 20 41  1  0  0  0  0
 21 49  1  0  0  0  0
 22 42  1  0  0  0  0
 23 79  1  0  0  0  0
 24 80  1  0  0  0  0
 25 27  2  0  0  0  0
 25 79  1  0  0  0  0
 26 81  1  0  0  0  0
 27 82  1  0  0  0  0
 28 62  2  0  0  0  0
 29 57  1  0  0  0  0
 29 83  1  0  0  0  0
 30 63  1  0  0  0  0
 30 66  1  0  0  0  0
 31 68  1  0  0  0  0
 31 83  1  0  0  0  0
 32 33  2  0  0  0  0
 34 67  1  0  0  0  0
 34 73  2  0  0  0  0
 35 50  1  0  0  0  0
 35 69  1  0  0  0  0
 35 74  2  0  0  0  0
 36 59  1  0  0  0  0
 36 64  1  0  0  0  0
 36 75  2  0  0  0  0
 37 58  1  0  0  0  0
 37 68  1  0  0  0  0
 37 76  2  0  0  0  0
 38 60  1  0  0  0  0
 38 70  1  0  0  0  0
 38 77  2  0  0  0  0
 39 65  1  0  0  0  0
 39 71  1  0  0  0  0
 39 78  2  0  0  0  0
 40 43  1  0  0  0  0
 41 50  1  0  0  0  0
 42 64  1  0  0  0  0
 43 45  1  0  0  0  0
 44 46  1  0  0  0  0
 44 47  1  0  0  0  0
 45 49  1  0  0  0  0
 46 51  1  0  0  0  0
 47 65  1  0  0  0  0
 48 51  1  0  0  0  0
 48 65  1  0  0  0  0
 49 69  1  0  0  0  0
 50 64  1  0  0  0  0
 51 63  1  0  0  0  0
 52 60  1  0  0  0  0
 53 61  1  0  0  0  0
 54 61  1  0  0  0  0
 55 61  1  0  0  0  0
 56 72  1  0  0  0  0
 57 71  1  0  0  0  0
 58 80  1  0  0  0  0
 59 61  1  0  0  0  0
 59 70  1  0  0  0  0
 60 72  1  0  0  0  0
 62 63  1  0  0  0  0
M  CHG  1  72   1
M  ISO  4  39 100  58 101  71 100  80 101
M  END
> <Batch ID>
0113

> <Smiles>
C=Cc1cc(C[100NH:0][100C:0](=O)N2CCCC(n3nc(-c4ccc(Oc5ccc(F)cc5F)cc4)c(C(N)=O)c3N)C2)sc1NC(=O)[101CH2:1][101O:1]c1ccc2c(c1)CN(C(=O)C(NC(=O)C(C)NC)C(C)(C)C)C(C(=O)NC1CCCc3ccccc31)C2

> <Shape>
0.316

> <Color>
0.188

> <Negative vol penalty>
0.000

$$$$

  -OEChem-04052301343D

 87 95  0     1  0  0  0  0  0999 V2000
  -30.6496  -25.8212   28.1318 C   0  0  0  0  0  0  0  0  0  0  0  0
  -30.9486  -24.9736   27.0700 C   0  0  0  0  0  0  0  0  0  0  0  0
  -23.0606   -9.8811   19.9348 C   0  0  0  0  0  0  0  0  0  0  0  0
  -23.8311   -9.8634   22.2245 C   0  0  0  0  0  0  0  0  0  0  0  0
  -29.5514  -26.6765   28.0516 C   0  0  0  0  0  0  0  0  0  0  0  0
  -30.1490  -24.9800   25.9276 C   0  0  0  0  0  0  0  0  0  0  0  0
  -32.8662  -24.9739   21.6542 C   0  0  0  0  0  0  0  0  0  0  0  0
  -22.3106   -8.7306   20.1782 C   0  0  0  0  0  0  0  0  0  0  0  0
  -23.0811   -8.7128   22.4680 C   0  0  0  0  0  0  0  0  0  0  0  0
  -33.4180  -23.7583   21.2523 C   0  0  0  0  0  0  0  0  0  0  0  0
  -19.8508   -7.9301   23.0787 C   0  0  0  0  0  0  0  0  0  0  0  0
  -19.0990   -7.8848   24.2527 C   0  0  0  0  0  0  0  0  0  0  0  0
  -30.4051  -18.9258   23.2224 C   0  0  0  0  0  0  0  0  0  0  0  0
  -31.6184  -23.4707   19.6719 C   0  0  0  0  0  0  0  0  0  0  0  0
  -31.9085  -17.2638   21.5611 C   0  0  0  0  0  0  0  0  0  0  0  0
  -20.3315   -5.9332   24.9665 C   0  0  0  0  0  0  0  0  0  0  0  0
  -23.8209  -10.4475   20.9579 C   0  0  0  0  0  0  0  0  0  0  0  0
  -29.8720  -17.7151   22.7801 C   0  0  0  0  0  0  0  0  0  0  0  0
  -24.1782  -12.9714   20.8582 C   0  0  0  0  0  0  0  0  0  0  0  0
  -28.7436  -26.7003   26.9038 C   0  0  0  0  0  0  0  0  0  0  0  0
  -31.6784  -25.4426   21.0747 C   0  0  0  0  0  0  0  0  0  0  0  0
  -29.0382  -25.8355   25.8325 C   0  0  0  0  0  0  0  0  0  0  0  0
  -31.0549  -24.6938   20.0664 C   0  0  0  0  0  0  0  0  0  0  0  0
  -30.6237  -16.8841   21.9495 C   0  0  0  0  0  0  0  0  0  0  0  0
  -22.3208   -8.1464   21.4448 C   0  0  0  0  0  0  0  0  0  0  0  0
  -32.7926  -23.0051   20.2630 C   0  0  0  0  0  0  0  0  0  0  0  0
  -20.8428   -6.9770   22.8485 C   0  0  0  0  0  0  0  0  0  0  0  0
  -31.6898  -19.3056   22.8340 C   0  0  0  0  0  0  0  0  0  0  0  0
  -32.4415  -18.4746   22.0033 C   0  0  0  0  0  0  0  0  0  0  0  0
  -19.3393   -6.8864   25.1966 C   0  0  0  0  0  0  0  0  0  0  0  0
  -21.0832   -5.9786   23.7924 C   0  0  0  0  0  0  0  0  0  0  0  0
  -24.5964  -11.6357   20.7069 C   0  0  0  0  0  0  0  0  0  0  0  0
  -25.2734  -13.7171   20.4963 C   0  0  0  0  0  0  0  0  0  0  0  0
  -28.5261  -17.3515   23.2073 C   0  0  0  0  0  0  0  0  0  0  0  0
  -28.1286  -17.1645   24.4843 C   0  0  0  0  0  0  0  0  0  0  0  0
  -22.9130  -13.4916   21.2875 C   0  0  0  0  0  0  0  0  0  0  0  0
  -28.7664  -26.1136   22.1580 C   0  0  0  0  0  0  0  0  0  0  0  0
  -28.3128  -27.1912   19.1322 C   0  0  0  0  0  0  0  0  0  0  0  0
  -29.2309  -27.0752   15.8473 C   0  0  0  0  0  0  0  0  0  0  0  0
  -30.7469  -14.7267   20.6545 C   0  0  0  0  0  0  0  0  0  0  0  0
  -27.5394  -27.6082   26.8823 C   0  0  0  0  0  0  0  0  0  0  0  0
  -31.1104  -26.7687   21.5004 C   0  0  0  0  0  0  0  0  0  0  0  0
  -29.7890  -25.1625   19.3983 C   0  0  0  0  0  0  0  0  0  0  0  0
  -26.9626  -27.8220   25.4852 C   0  0  0  0  0  0  0  0  0  0  0  0
  -29.6062  -12.3406   18.2707 C   0  0  0  0  0  0  0  0  0  0  0  0
  -26.8374  -26.4913   24.7500 C   0  0  0  0  0  0  0  0  0  0  0  0
  -28.1668  -12.0544   18.7044 C   0  0  0  0  0  0  0  0  0  0  0  0
  -30.5283  -12.5532   19.4699 C   0  0  0  0  0  0  0  0  0  0  0  0
  -28.6324  -13.2776   20.8663 C   0  0  0  0  0  0  0  0  0  0  0  0
  -28.2092  -25.8311   24.5665 C   0  0  1  0  0  0  0  0  0  0  0  0
  -29.6196  -26.9026   21.2055 C   0  0  1  0  0  0  0  0  0  0  0  0
  -27.6531  -13.1208   19.6916 C   0  0  2  0  0  0  0  0  0  0  0  0
  -26.5730  -15.2645   24.9327 C   0  0  0  0  0  0  0  0  0  0  0  0
  -28.6519  -28.0413   13.6049 C   0  0  0  0  0  0  0  0  0  0  0  0
  -25.8577  -25.3849   18.9907 C   0  0  0  0  0  0  0  0  0  0  0  0
  -25.8892  -25.6544   16.5018 C   0  0  0  0  0  0  0  0  0  0  0  0
  -25.5503  -27.6454   17.9659 C   0  0  0  0  0  0  0  0  0  0  0  0
  -31.9210  -28.2695   15.5380 C   0  0  0  0  0  0  0  0  0  0  0  0
  -31.3664  -21.2808   24.1183 C   0  0  0  0  0  0  0  0  0  0  0  0
  -26.7325  -16.7760   24.8774 C   0  0  0  0  0  0  0  0  0  0  0  0
  -34.9722  -20.0541   19.9676 C   0  0  0  0  0  0  0  0  0  0  0  0
  -34.5338  -21.4045   20.5122 C   0  0  0  0  0  0  0  0  0  1  0  0
  -33.9310  -18.9745   20.2180 C   0  0  0  0  0  0  0  0  0  0  0  0
  -27.8375  -26.5758   17.8382 C   0  0  1  0  0  0  0  0  0  0  0  0
  -29.5235  -28.1760   14.8438 C   0  0  2  0  0  0  0  0  0  0  0  0
  -26.3065  -26.3051   17.8379 C   0  0  0  0  0  0  0  0  0  0  0  0
  -25.8586  -11.5356   20.2819 N   0  0  0  0  0  0  0  0  0  0  0  0
  -26.2431  -12.8178   20.1630 N   0  0  0  0  0  0  0  0  0  0  0  0
  -29.2691  -26.4625   19.8536 N   0  0  0  0  0  0  0  0  0  0  0  0
  -29.9800  -13.5799   20.3588 N   0  0  0  0  0  0  0  0  0  0  0  0
  -25.4919  -15.0478   20.4339 N   0  0  0  0  0  0  0  0  0  0  0  0
  -21.8969  -12.5859   21.6216 N   0  0  0  0  0  0  0  0  0  0  0  0
  -30.1092  -15.6487   21.4839 N   0  0  0  0  0  0  0  0  0  0  0  0
  -28.9335  -26.4630   23.4845 N   0  0  0  0  0  0  0  0  0  0  0  0
  -28.2872  -27.4661   16.7735 N   0  0  0  0  0  0  0  0  0  0  0  0
  -30.9518  -28.1255   14.4213 N   0  3  0  0  0  0  0  0  0  0  0  0
  -22.6848  -14.7231   21.3566 O   0  0  0  0  0  0  0  0  0  0  0  0
  -28.0112  -25.2528   21.7217 O   0  0  0  0  0  0  0  0  0  0  0  0
  -27.8577  -28.2817   19.4863 O   0  0  0  0  0  0  0  0  0  0  0  0
  -29.7815  -25.9770   15.8109 O   0  0  0  0  0  0  0  0  0  0  0  0
  -31.8748  -14.8924   20.1831 O   0  0  0  0  0  0  0  0  0  0  0  0
  -21.5889   -7.0238   21.6828 O   0  0  0  0  0  0  0  0  0  0  0  0
  -32.1994  -20.4903   23.2725 O   0  0  0  0  0  0  0  0  0  0  0  0
  -33.3287  -21.8179   19.8693 O   0  0  0  0  0  0  0  0  0  1  0  0
  -33.7049  -18.8370   21.6143 O   0  0  0  0  0  0  0  0  0  0  0  0
  -18.6184   -6.8439   26.3247 F   0  0  0  0  0  0  0  0  0  0  0  0
  -22.0358   -5.0608   23.5774 F   0  0  0  0  0  0  0  0  0  0  0  0
  1  2  1  0  0  0  0
  1  5  2  0  0  0  0
  2  6  2  0  0  0  0
  3  8  2  0  0  0  0
  3 17  1  0  0  0  0
  4  9  1  0  0  0  0
  4 17  2  0  0  0  0
  5 20  1  0  0  0  0
  6 22  1  0  0  0  0
  7 10  2  0  0  0  0
  7 21  1  0  0  0  0
  8 25  1  0  0  0  0
  9 25  2  0  0  0  0
 10 26  1  0  0  0  0
 11 12  2  0  0  0  0
 11 27  1  0  0  0  0
 12 30  1  0  0  0  0
 13 18  1  0  0  0  0
 13 28  2  0  0  0  0
 14 23  1  0  0  0  0
 14 26  2  0  0  0  0
 15 24  1  0  0  0  0
 15 29  2  0  0  0  0
 16 30  2  0  0  0  0
 16 31  1  0  0  0  0
 17 32  1  0  0  0  0
 18 24  2  0  0  0  0
 18 34  1  0  0  0  0
 19 32  1  0  0  0  0
 19 33  2  0  0  0  0
 19 36  1  0  0  0  0
 20 22  2  0  0  0  0
 20 41  1  0  0  0  0
 21 23  2  0  0  0  0
 21 42  1  0  0  0  0
 22 50  1  0  0  0  0
 23 43  1  0  0  0  0
 24 73  1  0  0  0  0
 25 82  1  0  0  0  0
 26 84  1  0  0  0  0
 27 31  2  0  0  0  0
 27 82  1  0  0  0  0
 28 29  1  0  0  0  0
 28 83  1  0  0  0  0
 29 85  1  0  0  0  0
 30 86  1  0  0  0  0
 31 87  1  0  0  0  0
 32 67  2  0  0  0  0
 33 68  1  0  0  0  0
 33 71  1  0  0  0  0
 34 35  2  0  0  0  0
 35 60  1  0  0  0  0
 36 72  1  0  0  0  0
 36 77  2  0  0  0  0
 37 51  1  0  0  0  0
 37 74  1  0  0  0  0
 37 78  2  0  0  0  0
 38 64  1  0  0  0  0
 38 69  1  0  0  0  0
 38 79  2  0  0  0  0
 39 65  1  0  0  0  0
 39 75  1  0  0  0  0
 39 80  2  0  0  0  0
 40 70  1  0  0  0  0
 40 73  1  0  0  0  0
 40 81  2  0  0  0  0
 41 44  1  0  0  0  0
 42 51  1  0  0  0  0
 43 69  1  0  0  0  0
 44 46  1  0  0  0  0
 45 47  1  0  0  0  0
 45 48  1  0  0  0  0
 46 50  1  0  0  0  0
 47 52  1  0  0  0  0
 48 70  1  0  0  0  0
 49 52  1  0  0  0  0
 49 70  1  0  0  0  0
 50 74  1  0  0  0  0
 51 69  1  0  0  0  0
 52 68  1  0  0  0  0
 53 60  1  0  0  0  0
 54 65  1  0  0  0  0
 55 66  1  0  0  0  0
 56 66  1  0  0  0  0
 57 66  1  0  0  0  0
 58 76  1  0  0  0  0
 59 83  1  0  0  0  0
 61 62  1  0  0  0  0
 61 63  1  0  0  0  0
 62 84  1  0  0  0  0
 63 85  1  0  0  0  0
 64 66  1  0  0  0  0
 64 75  1  0  0  0  0
 65 76  1  0  0  0  0
 67 68  1  0  0  0  0
M  CHG  1  76   1
M  ISO  4  40 100  62 101  73 100  84 101
M  END
> <Batch ID>
0113

> <Smiles>
CCC=Cc1cc(OC)c(OCC[101CH2:1][101O:1]c2ccc3c(c2)CN(C(=O)C(NC(=O)C(C)NC)C(C)(C)C)C(C(=O)NC2CCCc4ccccc42)C3)cc1[100NH:0][100C:0](=O)N1CCCC(n2nc(-c3ccc(Oc4ccc(F)cc4F)cc3)c(C(N)=O)c2N)C1

> <Shape>
0.226

> <Color>
0.189

> <Negative vol penalty>
0.000

$$$$

  -OEChem-04052301343D

 82 90  0     1  0  0  0  0  0999 V2000
  -33.6195  -32.0291   16.8442 C   0  0  0  0  0  0  0  0  0  0  0  0
  -33.2270  -30.7335   17.1648 C   0  0  0  0  0  0  0  0  0  0  0  0
  -24.4573   -8.5275   20.5059 C   0  0  0  0  0  0  0  0  0  0  0  0
  -22.9863  -10.4351   20.6913 C   0  0  0  0  0  0  0  0  0  0  0  0
  -33.3242  -33.0804   17.7110 C   0  0  0  0  0  0  0  0  0  0  0  0
  -32.5398  -30.4884   18.3531 C   0  0  0  0  0  0  0  0  0  0  0  0
  -28.1477  -26.3208   19.2734 C   0  0  0  0  0  0  0  0  0  0  0  0
  -23.4250   -7.6904   20.9291 C   0  0  0  0  0  0  0  0  0  0  0  0
  -21.9539   -9.5979   21.1144 C   0  0  0  0  0  0  0  0  0  0  0  0
  -28.1695  -25.0420   19.8284 C   0  0  0  0  0  0  0  0  0  0  0  0
  -21.9500   -6.8349   23.8474 C   0  0  0  0  0  0  0  0  0  0  0  0
  -22.2520   -5.8691   24.8073 C   0  0  0  0  0  0  0  0  0  0  0  0
  -27.4919  -25.9594   21.9540 C   0  0  0  0  0  0  0  0  0  0  0  0
  -21.5832   -4.1307   23.2685 C   0  0  0  0  0  0  0  0  0  0  0  0
  -24.2380   -9.9000   20.3871 C   0  0  0  0  0  0  0  0  0  0  0  0
  -25.6132  -11.1325   18.6272 C   0  0  0  0  0  0  0  0  0  0  0  0
  -32.6246  -32.8494   18.9060 C   0  0  0  0  0  0  0  0  0  0  0  0
  -27.8078  -27.4318   20.0587 C   0  0  0  0  0  0  0  0  0  0  0  0
  -32.2361  -31.5374   19.2374 C   0  0  0  0  0  0  0  0  0  0  0  0
  -27.4640  -27.2509   21.4060 C   0  0  0  0  0  0  0  0  0  0  0  0
  -22.1733   -8.2255   21.2333 C   0  0  0  0  0  0  0  0  0  0  0  0
  -27.8444  -24.8615   21.1696 C   0  0  0  0  0  0  0  0  0  0  0  0
  -21.4644   -6.4487   22.5981 C   0  0  0  0  0  0  0  0  0  0  0  0
  -22.0687   -4.5169   24.5179 C   0  0  0  0  0  0  0  0  0  0  0  0
  -21.2811   -5.0966   22.3086 C   0  0  0  0  0  0  0  0  0  0  0  0
  -25.3041  -10.7654   19.9506 C   0  0  0  0  0  0  0  0  0  0  0  0
  -26.7018  -11.9615   18.7461 C   0  0  0  0  0  0  0  0  0  0  0  0
  -29.2706  -18.1354   23.0746 C   0  0  0  0  0  0  0  0  0  0  0  0
  -29.6724  -17.3335   24.0606 C   0  0  0  0  0  0  0  0  0  0  0  0
  -29.5088  -19.5742   23.2659 C   0  0  0  0  0  0  0  0  0  0  0  0
  -30.3231  -17.8983   25.2736 C   0  0  0  0  0  0  0  0  0  0  0  0
  -29.0486  -20.4096   22.1593 C   0  0  0  0  0  0  0  0  0  0  0  0
  -29.2193  -21.7343   22.2369 C   0  0  0  0  0  0  0  0  0  0  0  0
  -24.9733  -10.7578   17.4000 C   0  0  0  0  0  0  0  0  0  0  0  0
  -29.3090  -30.0841   20.9617 C   0  0  0  0  0  0  0  0  0  0  0  0
  -26.4070  -30.8403   22.1983 C   0  0  0  0  0  0  0  0  0  0  0  0
  -23.3927  -29.7640   23.3826 C   0  0  0  0  0  0  0  0  0  0  0  0
  -28.4595  -15.3634   23.3163 C   0  0  0  0  0  0  0  0  0  0  0  0
  -32.3697  -34.0107   19.8340 C   0  0  0  0  0  0  0  0  0  0  0  0
  -27.7631  -28.8013   19.4384 C   0  0  0  0  0  0  0  0  0  0  0  0
  -27.0725  -28.4082   22.2868 C   0  0  0  0  0  0  0  0  0  0  0  0
  -31.3095  -33.7221   20.8937 C   0  0  0  0  0  0  0  0  0  0  0  0
  -30.4721  -12.8313   21.5285 C   0  0  0  0  0  0  0  0  0  0  0  0
  -31.5572  -32.3629   21.5403 C   0  0  0  0  0  0  0  0  0  0  0  0
  -29.3781  -12.0167   20.8450 C   0  0  0  0  0  0  0  0  0  0  0  0
  -30.0234  -13.3689   22.8868 C   0  0  0  0  0  0  0  0  0  0  0  0
  -27.6596  -13.3352   22.1421 C   0  0  0  0  0  0  0  0  0  0  0  0
  -31.4672  -31.2350   20.5053 C   0  0  1  0  0  0  0  0  0  0  0  0
  -27.9013  -29.9251   20.4607 C   0  0  1  0  0  0  0  0  0  0  0  0
  -28.0766  -12.8275   20.7532 C   0  0  2  0  0  0  0  0  0  0  0  0
  -21.2420  -30.6136   24.3572 C   0  0  0  0  0  0  0  0  0  0  0  0
  -27.8080  -31.3197   24.8661 C   0  0  0  0  0  0  0  0  0  0  0  0
  -25.5679  -31.2253   25.9801 C   0  0  0  0  0  0  0  0  0  0  0  0
  -26.0472  -33.0015   24.2954 C   0  0  0  0  0  0  0  0  0  0  0  0
  -31.0998  -19.9527   26.4313 C   0  0  0  0  0  0  0  0  0  0  0  0
  -21.8043  -28.6453   21.1500 C   0  0  0  0  0  0  0  0  0  0  0  0
  -28.7925  -22.6804   21.1618 C   0  0  0  0  0  0  0  0  0  1  0  0
  -25.7181  -30.6167   23.5228 C   0  0  1  0  0  0  0  0  0  0  0  0
  -21.9742  -30.2154   23.0851 C   0  0  2  0  0  0  0  0  0  0  0  0
  -26.2945  -31.5190   24.6503 C   0  0  0  0  0  0  0  0  0  0  0  0
  -26.1298  -11.3158   20.8446 N   0  0  0  0  0  0  0  0  0  0  0  0
  -30.0700  -20.1107   24.2989 N   0  0  0  0  0  0  0  0  0  0  0  0
  -26.9685  -12.0373   20.0815 N   0  0  0  0  0  0  0  0  0  0  0  0
  -30.4792  -19.2791   25.3025 N   0  0  0  0  0  0  0  0  0  0  0  0
  -27.0497  -29.7284   21.6356 N   0  0  0  0  0  0  0  0  0  0  0  0
  -28.7425  -14.0874   22.7889 N   0  0  0  0  0  0  0  0  0  0  0  0
  -27.4474  -12.6256   17.8376 N   0  0  0  0  0  0  0  0  0  0  0  0
  -23.8676   -9.8985   17.4583 N   0  0  0  0  0  0  0  0  0  0  0  0
  -29.5053  -15.9785   23.9992 N   0  0  0  0  0  0  0  0  0  0  0  0
  -30.0840  -30.9380   20.2004 N   0  0  0  0  0  0  0  0  0  0  0  0
  -24.2921  -30.8039   23.2781 N   0  0  0  0  0  0  0  0  0  0  0  0
  -21.2093  -29.1193   22.4261 N   0  3  0  0  0  0  0  0  0  0  0  0
  -30.6852  -17.1413   26.1751 O   0  0  0  0  0  0  0  0  0  0  0  0
  -25.3805  -11.1595   16.2836 O   0  0  0  0  0  0  0  0  0  0  0  0
  -29.6651  -29.4782   21.9655 O   0  0  0  0  0  0  0  0  0  0  0  0
  -26.3699  -31.9583   21.6784 O   0  0  0  0  0  0  0  0  0  0  0  0
  -23.6742  -28.6056   23.6817 O   0  0  0  0  0  0  0  0  0  0  0  0
  -27.3531  -15.9011   23.1911 O   0  0  0  0  0  0  0  0  0  0  0  0
  -21.1657   -7.4089   21.6459 O   0  0  0  0  0  0  0  0  0  0  0  0
  -27.8656  -23.6144   21.7139 O   0  0  0  0  0  0  0  0  0  1  0  0
  -22.3603   -3.5894   25.4392 F   0  0  0  0  0  0  0  0  0  0  0  0
  -20.8161   -4.7194   21.1098 F   0  0  0  0  0  0  0  0  0  0  0  0
  1  2  1  0  0  0  0
  1  5  2  0  0  0  0
  2  6  2  0  0  0  0
  3  8  2  0  0  0  0
  3 15  1  0  0  0  0
  4  9  1  0  0  0  0
  4 15  2  0  0  0  0
  5 17  1  0  0  0  0
  6 19  1  0  0  0  0
  7 10  2  0  0  0  0
  7 18  1  0  0  0  0
  8 21  1  0  0  0  0
  9 21  2  0  0  0  0
 10 22  1  0  0  0  0
 11 12  2  0  0  0  0
 11 23  1  0  0  0  0
 12 24  1  0  0  0  0
 13 20  1  0  0  0  0
 13 22  2  0  0  0  0
 14 24  2  0  0  0  0
 14 25  1  0  0  0  0
 15 26  1  0  0  0  0
 16 26  1  0  0  0  0
 16 27  2  0  0  0  0
 16 34  1  0  0  0  0
 17 19  2  0  0  0  0
 17 39  1  0  0  0  0
 18 20  2  0  0  0  0
 18 40  1  0  0  0  0
 19 48  1  0  0  0  0
 20 41  1  0  0  0  0
 21 79  1  0  0  0  0
 22 80  1  0  0  0  0
 23 25  2  0  0  0  0
 23 79  1  0  0  0  0
 24 81  1  0  0  0  0
 25 82  1  0  0  0  0
 26 61  2  0  0  0  0
 27 63  1  0  0  0  0
 27 67  1  0  0  0  0
 28 29  2  0  0  0  0
 28 30  1  0  0  0  0
 29 31  1  0  0  0  0
 29 69  1  0  0  0  0
 30 32  1  0  0  0  0
 30 62  2  0  0  0  0
 31 64  1  0  0  0  0
 31 73  2  0  0  0  0
 32 33  2  0  0  0  0
 33 57  1  0  0  0  0
 34 68  1  0  0  0  0
 34 74  2  0  0  0  0
 35 49  1  0  0  0  0
 35 70  1  0  0  0  0
 35 75  2  0  0  0  0
 36 58  1  0  0  0  0
 36 65  1  0  0  0  0
 36 76  2  0  0  0  0
 37 59  1  0  0  0  0
 37 71  1  0  0  0  0
 37 77  2  0  0  0  0
 38 66  1  0  0  0  0
 38 69  1  0  0  0  0
 38 78  2  0  0  0  0
 39 42  1  0  0  0  0
 40 49  1  0  0  0  0
 41 65  1  0  0  0  0
 42 44  1  0  0  0  0
 43 45  1  0  0  0  0
 43 46  1  0  0  0  0
 44 48  1  0  0  0  0
 45 50  1  0  0  0  0
 46 66  1  0  0  0  0
 47 50  1  0  0  0  0
 47 66  1  0  0  0  0
 48 70  1  0  0  0  0
 49 65  1  0  0  0  0
 50 63  1  0  0  0  0
 51 59  1  0  0  0  0
 52 60  1  0  0  0  0
 53 60  1  0  0  0  0
 54 60  1  0  0  0  0
 55 64  1  0  0  0  0
 56 72  1  0  0  0  0
 57 80  1  0  0  0  0
 58 60  1  0  0  0  0
 58 71  1  0  0  0  0
 59 72  1  0  0  0  0
 61 63  1  0  0  0  0
 62 64  1  0  0  0  0
M  CHG  1  72   1
M  ISO  4  38 100  57 101  69 100  80 101
M  END
> <Batch ID>
0113

> <Smiles>
CNC(C)C(=O)NC(C(=O)N1Cc2cc([101O:1][101CH2:1]C=Cc3cc([100NH:0][100C:0](=O)N4CCCC(n5nc(-c6ccc(Oc7ccc(F)cc7F)cc6)c(C(N)=O)c5N)C4)c(=O)n(C)n3)ccc2CC1C(=O)NC1CCCc2ccccc21)C(C)(C)C

> <Shape>
0.240

> <Color>
0.111

> <Negative vol penalty>
0.000

$$$$

  -OEChem-04052301343D

 89 97  0     1  0  0  0  0  0999 V2000
  -19.2219  -28.4300   23.5839 C   0  0  0  0  0  0  0  0  0  0  0  0
  -19.7607  -27.1760   23.8530 C   0  0  0  0  0  0  0  0  0  0  0  0
  -29.9054  -23.6282   21.2685 C   0  0  0  0  0  0  0  0  0  0  0  0
  -27.9741  -23.2532   19.8662 C   0  0  0  0  0  0  0  0  0  0  0  0
  -18.4099  -28.6132   22.4654 C   0  0  0  0  0  0  0  0  0  0  0  0
  -19.4868  -26.1040   23.0043 C   0  0  0  0  0  0  0  0  0  0  0  0
  -23.6147  -23.3756   21.9267 C   0  0  0  0  0  0  0  0  0  0  0  0
  -29.8306  -24.9961   21.0058 C   0  0  0  0  0  0  0  0  0  0  0  0
  -27.8992  -24.6211   19.6035 C   0  0  0  0  0  0  0  0  0  0  0  0
  -24.0593  -22.4820   22.9002 C   0  0  0  0  0  0  0  0  0  0  0  0
  -26.9813  -28.0578   18.8520 C   0  0  0  0  0  0  0  0  0  0  0  0
  -25.7261  -28.6630   18.9135 C   0  0  0  0  0  0  0  0  0  0  0  0
  -23.0025  -20.6692   21.7102 C   0  0  0  0  0  0  0  0  0  0  0  0
  -25.7194  -12.9663   19.4458 C   0  0  0  0  0  0  0  0  0  0  0  0
  -25.5231  -28.0067   21.2298 C   0  0  0  0  0  0  0  0  0  0  0  0
  -28.9772  -22.7568   20.6986 C   0  0  0  0  0  0  0  0  0  0  0  0
  -24.4818  -13.0216   21.9454 C   0  0  0  0  0  0  0  0  0  0  0  0
  -28.9670  -20.7124   22.2245 C   0  0  0  0  0  0  0  0  0  0  0  0
  -18.1338  -27.5451   21.5972 C   0  0  0  0  0  0  0  0  0  0  0  0
  -22.8501  -22.9235   20.8416 C   0  0  0  0  0  0  0  0  0  0  0  0
  -18.6693  -26.2727   21.8739 C   0  0  0  0  0  0  0  0  0  0  0  0
  -22.5516  -21.5587   20.7230 C   0  0  0  0  0  0  0  0  0  0  0  0
  -24.7001  -12.0605   19.7396 C   0  0  0  0  0  0  0  0  0  0  0  0
  -26.1199  -13.8997   20.4018 C   0  0  0  0  0  0  0  0  0  0  0  0
  -24.0813  -12.0882   20.9893 C   0  0  0  0  0  0  0  0  0  0  0  0
  -25.5011  -13.9274   21.6516 C   0  0  0  0  0  0  0  0  0  0  0  0
  -28.8275  -25.4925   20.1733 C   0  0  0  0  0  0  0  0  0  0  0  0
  -23.7508  -21.1290   22.7935 C   0  0  0  0  0  0  0  0  0  0  0  0
  -27.5074  -27.4269   19.9794 C   0  0  0  0  0  0  0  0  0  0  0  0
  -24.9970  -28.6375   20.1024 C   0  0  0  0  0  0  0  0  0  0  0  0
  -26.7783  -27.4014   21.1683 C   0  0  0  0  0  0  0  0  0  0  0  0
  -29.0543  -21.3436   20.9692 C   0  0  0  0  0  0  0  0  0  0  0  0
  -29.0973  -19.3739   21.9455 C   0  0  0  0  0  0  0  0  0  0  0  0
  -23.8331  -13.0502   23.2547 C   0  0  0  0  0  0  0  0  0  0  0  0
  -28.7843  -21.2848   23.5263 C   0  0  0  0  0  0  0  0  0  0  0  0
  -25.9945  -16.9059   23.8597 C   0  0  0  0  0  0  0  0  0  0  0  0
  -25.5384  -18.3192   24.1654 C   0  0  0  0  0  0  0  0  0  0  0  0
  -19.9114  -23.4973   19.7745 C   0  0  0  0  0  0  0  0  0  0  0  0
  -20.8743  -21.6516   17.2869 C   0  0  0  0  0  0  0  0  0  0  0  0
  -22.9704  -19.2234   16.1220 C   0  0  0  0  0  0  0  0  0  0  0  0
  -27.8611  -14.8949   18.8773 C   0  0  0  0  0  0  0  0  0  0  0  0
  -17.2121  -27.7806   20.4269 C   0  0  0  0  0  0  0  0  0  0  0  0
  -22.4008  -23.8962   19.7859 C   0  0  0  0  0  0  0  0  0  0  0  0
  -21.7510  -21.0196   19.5667 C   0  0  0  0  0  0  0  0  0  0  0  0
  -17.2755  -26.6802   19.3707 C   0  0  0  0  0  0  0  0  0  0  0  0
  -30.4575  -17.0157   17.6781 C   0  0  0  0  0  0  0  0  0  0  0  0
  -17.2189  -25.3050   20.0284 C   0  0  0  0  0  0  0  0  0  0  0  0
  -30.3167  -18.2788   18.5307 C   0  0  0  0  0  0  0  0  0  0  0  0
  -29.0985  -16.4052   17.3402 C   0  0  0  0  0  0  0  0  0  0  0  0
  -28.0871  -17.4135   19.3475 C   0  0  0  0  0  0  0  0  0  0  0  0
  -18.4154  -25.0910   20.9633 C   0  0  1  0  0  0  0  0  0  0  0  0
  -21.1926  -23.4037   18.9951 C   0  0  1  0  0  0  0  0  0  0  0  0
  -29.4323  -18.0280   19.7678 C   0  0  2  0  0  0  0  0  0  0  0  0
  -24.2928  -11.0724   18.6950 C   0  0  0  0  0  0  0  0  0  0  0  0
  -24.6997  -12.8230   24.4551 C   0  0  0  0  0  0  0  0  0  0  0  0
  -23.4938  -17.8973   14.0568 C   0  0  0  0  0  0  0  0  0  0  0  0
  -18.3975  -19.9348   17.7645 C   0  0  0  0  0  0  0  0  0  0  0  0
  -19.4478  -18.1510   16.3563 C   0  0  0  0  0  0  0  0  0  0  0  0
  -18.9142  -20.3737   15.3573 C   0  0  0  0  0  0  0  0  0  0  0  0
  -25.7299  -20.2860   15.9984 C   0  0  0  0  0  0  0  0  0  0  0  0
  -25.3200  -16.1697   22.7310 C   0  0  0  0  0  0  0  0  0  0  0  0
  -24.4390  -18.9150   23.3232 C   0  0  0  0  0  0  0  0  0  1  0  0
  -20.8448  -20.1743   16.9775 C   0  0  1  0  0  0  0  0  0  0  0  0
  -23.8194  -19.1430   14.8661 C   0  0  2  0  0  0  0  0  0  0  0  0
  -19.4145  -19.6686   16.6368 C   0  0  0  0  0  0  0  0  0  0  0  0
  -29.2269  -20.4774   19.9673 N   0  0  0  0  0  0  0  0  0  0  0  0
  -29.2492  -19.2881   20.5928 N   0  0  0  0  0  0  0  0  0  0  0  0
  -21.3290  -22.0111   18.5635 N   0  0  0  0  0  0  0  0  0  0  0  0
  -28.3179  -16.1918   18.5608 N   0  0  0  0  0  0  0  0  0  0  0  0
  -23.0479  -11.1669   21.2815 N   0  0  0  0  0  0  0  0  0  0  0  0
  -29.0958  -18.2737   22.7278 N   0  0  0  0  0  0  0  0  0  0  0  0
  -27.4776  -21.4599   24.0018 N   0  0  0  0  0  0  0  0  0  0  0  0
  -27.1578  -14.8085   20.0784 N   0  0  0  0  0  0  0  0  0  0  0  0
  -25.9004  -14.8559   22.6009 N   0  0  0  0  0  0  0  0  0  0  0  0
  -19.6035  -24.7757   20.1994 N   0  0  0  0  0  0  0  0  0  0  0  0
  -21.8229  -19.9598   15.9166 N   0  0  0  0  0  0  0  0  0  0  0  0
  -25.2665  -19.1083   15.2204 N   0  3  0  0  0  0  0  0  0  0  0  0
  -22.6330  -13.2416   23.4365 O   0  0  0  0  0  0  0  0  0  0  0  0
  -29.7508  -21.6460   24.2397 O   0  0  0  0  0  0  0  0  0  0  0  0
  -26.8904  -16.4469   24.5571 O   0  0  0  0  0  0  0  0  0  0  0  0
  -26.0945  -18.9046   25.0858 O   0  0  0  0  0  0  0  0  0  0  0  0
  -19.2504  -22.4850   19.9742 O   0  0  0  0  0  0  0  0  0  0  0  0
  -20.5141  -22.4572   16.4250 O   0  0  0  0  0  0  0  0  0  0  0  0
  -23.2912  -18.6835   17.1785 O   0  0  0  0  0  0  0  0  0  0  0  0
  -28.1014  -13.9270   18.1511 O   0  0  0  0  0  0  0  0  0  0  0  0
  -28.7540  -26.8272   19.9170 O   0  0  0  0  0  0  0  0  0  0  0  0
  -24.1830  -20.2547   23.7426 O   0  0  0  0  0  0  0  0  0  1  0  0
  -23.7923  -29.2201   20.1617 F   0  0  0  0  0  0  0  0  0  0  0  0
  -27.2790  -26.7980   22.2550 F   0  0  0  0  0  0  0  0  0  0  0  0
  1  2  1  0  0  0  0
  1  5  2  0  0  0  0
  2  6  2  0  0  0  0
  3  8  2  0  0  0  0
  3 16  1  0  0  0  0
  4  9  1  0  0  0  0
  4 16  2  0  0  0  0
  5 19  1  0  0  0  0
  6 21  1  0  0  0  0
  7 10  2  0  0  0  0
  7 20  1  0  0  0  0
  8 27  1  0  0  0  0
  9 27  2  0  0  0  0
 10 28  1  0  0  0  0
 11 12  2  0  0  0  0
 11 29  1  0  0  0  0
 12 30  1  0  0  0  0
 13 22  1  0  0  0  0
 13 28  2  0  0  0  0
 14 23  1  0  0  0  0
 14 24  2  0  0  0  0
 15 30  2  0  0  0  0
 15 31  1  0  0  0  0
 16 32  1  0  0  0  0
 17 25  1  0  0  0  0
 17 26  2  0  0  0  0
 17 34  1  0  0  0  0
 18 32  1  0  0  0  0
 18 33  2  0  0  0  0
 18 35  1  0  0  0  0
 19 21  2  0  0  0  0
 19 42  1  0  0  0  0
 20 22  2  0  0  0  0
 20 43  1  0  0  0  0
 21 51  1  0  0  0  0
 22 44  1  0  0  0  0
 23 25  2  0  0  0  0
 23 54  1  0  0  0  0
 24 26  1  0  0  0  0
 24 73  1  0  0  0  0
 25 70  1  0  0  0  0
 26 74  1  0  0  0  0
 27 86  1  0  0  0  0
 28 87  1  0  0  0  0
 29 31  2  0  0  0  0
 29 86  1  0  0  0  0
 30 88  1  0  0  0  0
 31 89  1  0  0  0  0
 32 66  2  0  0  0  0
 33 67  1  0  0  0  0
 33 71  1  0  0  0  0
 34 55  1  0  0  0  0
 34 78  2  0  0  0  0
 35 72  1  0  0  0  0
 35 79  2  0  0  0  0
 36 37  1  0  0  0  0
 36 61  1  0  0  0  0
 36 80  2  0  0  0  0
 37 62  1  0  0  0  0
 37 81  2  0  0  0  0
 38 52  1  0  0  0  0
 38 75  1  0  0  0  0
 38 82  2  0  0  0  0
 39 63  1  0  0  0  0
 39 68  1  0  0  0  0
 39 83  2  0  0  0  0
 40 64  1  0  0  0  0
 40 76  1  0  0  0  0
 40 84  2  0  0  0  0
 41 69  1  0  0  0  0
 41 73  1  0  0  0  0
 41 85  2  0  0  0  0
 42 45  1  0  0  0  0
 43 52  1  0  0  0  0
 44 68  1  0  0  0  0
 45 47  1  0  0  0  0
 46 48  1  0  0  0  0
 46 49  1  0  0  0  0
 47 51  1  0  0  0  0
 48 53  1  0  0  0  0
 49 69  1  0  0  0  0
 50 53  1  0  0  0  0
 50 69  1  0  0  0  0
 51 75  1  0  0  0  0
 52 68  1  0  0  0  0
 53 67  1  0  0  0  0
 56 64  1  0  0  0  0
 57 65  1  0  0  0  0
 58 65  1  0  0  0  0
 59 65  1  0  0  0  0
 60 77  1  0  0  0  0
 61 74  1  0  0  0  0
 62 87  1  0  0  0  0
 63 65  1  0  0  0  0
 63 76  1  0  0  0  0
 64 77  1  0  0  0  0
 66 67  1  0  0  0  0
M  CHG  1  77   1
M  ISO  4  41 100  62 101  73 100  87 101
M  END
> <Batch ID>
0113

> <Smiles>
CNC(C)C(=O)NC(C(=O)N1Cc2cc([101O:1][101CH2:1]C(=O)C(=O)CNc3c([100NH:0][100C:0](=O)N4CCCC(n5nc(-c6ccc(Oc7ccc(F)cc7F)cc6)c(C(N)=O)c5N)C4)cc(C)c(N)c3C(C)=O)ccc2CC1C(=O)NC1CCCc2ccccc21)C(C)(C)C

> <Shape>
0.183

> <Color>
0.080

> <Negative vol penalty>
0.000

$$$$

  -OEChem-04052301343D

 85 93  0     1  0  0  0  0  0999 V2000
  -17.1340  -30.5331   23.5903 C   0  0  0  0  0  0  0  0  0  0  0  0
  -18.4451  -30.9795   23.4590 C   0  0  0  0  0  0  0  0  0  0  0  0
  -24.2672  -13.0690   19.9652 C   0  0  0  0  0  0  0  0  0  0  0  0
  -25.9285  -13.2098   21.7137 C   0  0  0  0  0  0  0  0  0  0  0  0
  -16.8464  -29.1740   23.4713 C   0  0  0  0  0  0  0  0  0  0  0  0
  -19.4695  -30.0669   23.2098 C   0  0  0  0  0  0  0  0  0  0  0  0
  -25.7370  -29.5071   19.7861 C   0  0  0  0  0  0  0  0  0  0  0  0
  -24.4135  -11.6822   19.9378 C   0  0  0  0  0  0  0  0  0  0  0  0
  -26.0748  -11.8229   21.6863 C   0  0  0  0  0  0  0  0  0  0  0  0
  -27.0588  -29.1271   20.0145 C   0  0  0  0  0  0  0  0  0  0  0  0
  -23.3721   -9.0310   21.7598 C   0  0  0  0  0  0  0  0  0  0  0  0
  -22.2121   -8.2575   21.7196 C   0  0  0  0  0  0  0  0  0  0  0  0
  -28.7516  -23.4425   22.2017 C   0  0  0  0  0  0  0  0  0  0  0  0
  -26.4328  -26.8125   19.7495 C   0  0  0  0  0  0  0  0  0  0  0  0
  -27.5057  -23.6099   24.6922 C   0  0  0  0  0  0  0  0  0  0  0  0
  -22.9252   -7.2971   19.6204 C   0  0  0  0  0  0  0  0  0  0  0  0
  -25.0248  -13.8329   20.8531 C   0  0  0  0  0  0  0  0  0  0  0  0
  -29.2026  -24.3642   23.1466 C   0  0  0  0  0  0  0  0  0  0  0  0
  -23.9795  -16.0110   21.6722 C   0  0  0  0  0  0  0  0  0  0  0  0
  -17.8665  -28.2454   23.2110 C   0  0  0  0  0  0  0  0  0  0  0  0
  -24.7494  -28.5404   19.5482 C   0  0  0  0  0  0  0  0  0  0  0  0
  -19.1955  -28.6940   23.0886 C   0  0  0  0  0  0  0  0  0  0  0  0
  -25.0996  -27.1831   19.5159 C   0  0  0  0  0  0  0  0  0  0  0  0
  -28.5796  -24.4479   24.3918 C   0  0  0  0  0  0  0  0  0  0  0  0
  -27.6776  -22.6046   22.5020 C   0  0  0  0  0  0  0  0  0  0  0  0
  -27.0547  -22.6883   23.7473 C   0  0  0  0  0  0  0  0  0  0  0  0
  -25.3173  -11.0591   20.7983 C   0  0  0  0  0  0  0  0  0  0  0  0
  -27.4064  -27.7795   19.9990 C   0  0  0  0  0  0  0  0  0  0  0  0
  -24.3086   -8.9377   20.7303 C   0  0  0  0  0  0  0  0  0  0  0  0
  -21.9887   -7.3905   20.6499 C   0  0  0  0  0  0  0  0  0  0  0  0
  -24.0852   -8.0707   19.6606 C   0  0  0  0  0  0  0  0  0  0  0  0
  -24.8745  -15.2656   20.8815 C   0  0  0  0  0  0  0  0  0  0  0  0
  -24.2278  -17.3183   21.3322 C   0  0  0  0  0  0  0  0  0  0  0  0
  -30.1687  -26.1446   21.6228 C   0  0  0  0  0  0  0  0  0  0  0  0
  -28.9536  -26.5884   21.2867 C   0  0  0  0  0  0  0  0  0  1  0  0
  -28.4543  -26.5336   25.3193 C   0  0  0  0  0  0  0  0  0  0  0  0
  -30.3507  -25.2470   22.7987 C   0  0  0  0  0  0  0  0  0  0  0  0
  -23.0103  -15.5617   22.6286 C   0  0  0  0  0  0  0  0  0  0  0  0
  -22.0773  -27.6533   21.0235 C   0  0  0  0  0  0  0  0  0  0  0  0
  -21.7246  -25.7627   18.4113 C   0  0  0  0  0  0  0  0  0  0  0  0
  -23.1917  -24.1207   15.8038 C   0  0  0  0  0  0  0  0  0  0  0  0
  -27.7617  -21.4824   20.2482 C   0  0  0  0  0  0  0  0  0  0  0  0
  -17.5136  -26.7809   23.1376 C   0  0  0  0  0  0  0  0  0  0  0  0
  -23.3331  -28.9683   19.2772 C   0  0  0  0  0  0  0  0  0  0  0  0
  -24.0808  -26.1074   19.2450 C   0  0  0  0  0  0  0  0  0  0  0  0
  -18.6038  -25.9229   22.5008 C   0  0  0  0  0  0  0  0  0  0  0  0
  -26.9839  -19.2755   17.5646 C   0  0  0  0  0  0  0  0  0  0  0  0
  -19.9690  -26.2759   23.0826 C   0  0  0  0  0  0  0  0  0  0  0  0
  -26.2922  -18.0968   18.2533 C   0  0  0  0  0  0  0  0  0  0  0  0
  -28.1189  -19.8429   18.4153 C   0  0  0  0  0  0  0  0  0  0  0  0
  -27.0541  -19.0203   20.4790 C   0  0  0  0  0  0  0  0  0  0  0  0
  -20.3306  -27.7378   22.7935 C   0  0  1  0  0  0  0  0  0  0  0  0
  -22.3131  -27.8685   19.5552 C   0  0  1  0  0  0  0  0  0  0  0  0
  -25.8618  -18.4566   19.6889 C   0  0  2  0  0  0  0  0  0  0  0  0
  -28.8375  -27.5987   26.2978 C   0  0  0  0  0  0  0  0  0  0  0  0
  -22.6499  -22.6283   13.8605 C   0  0  0  0  0  0  0  0  0  0  0  0
  -21.3962  -23.4033   20.3180 C   0  0  0  0  0  0  0  0  0  0  0  0
  -21.8120  -21.8709   18.3823 C   0  0  0  0  0  0  0  0  0  0  0  0
  -19.8345  -23.3913   18.3647 C   0  0  0  0  0  0  0  0  0  0  0  0
  -24.2155  -26.0960   13.8521 C   0  0  0  0  0  0  0  0  0  0  0  0
  -22.1467  -24.3614   18.0409 C   0  0  1  0  0  0  0  0  0  0  0  0
  -22.8450  -24.0625   14.3271 C   0  0  2  0  0  0  0  0  0  0  0  0
  -21.3164  -23.2766   18.7835 C   0  0  0  0  0  0  0  0  0  0  0  0
  -25.6345  -16.0354   20.0981 N   0  0  0  0  0  0  0  0  0  0  0  0
  -31.4482  -25.1620   23.4808 N   0  0  0  0  0  0  0  0  0  0  0  0
  -29.0159  -25.3676   25.3542 N   0  0  0  0  0  0  0  0  0  0  0  0
  -25.2177  -17.2781   20.3948 N   0  0  0  0  0  0  0  0  0  0  0  0
  -22.7081  -26.5758   18.9922 N   0  0  0  0  0  0  0  0  0  0  0  0
  -27.6361  -20.1645   19.7600 N   0  0  0  0  0  0  0  0  0  0  0  0
  -25.9657  -21.8485   24.0719 N   0  0  0  0  0  0  0  0  0  0  0  0
  -23.6938  -18.4869   21.7465 N   0  0  0  0  0  0  0  0  0  0  0  0
  -22.8856  -14.1846   22.8570 N   0  0  0  0  0  0  0  0  0  0  0  0
  -27.2380  -21.6763   21.5260 N   0  0  0  0  0  0  0  0  0  0  0  0
  -20.7758  -27.8871   21.4245 N   0  0  0  0  0  0  0  0  0  0  0  0
  -22.0679  -24.2823   16.5863 N   0  0  0  0  0  0  0  0  0  0  0  0
  -23.9330  -24.6770   13.5150 N   0  3  0  0  0  0  0  0  0  0  0  0
  -22.2653  -16.3570   23.2499 O   0  0  0  0  0  0  0  0  0  0  0  0
  -23.0070  -27.2997   21.7393 O   0  0  0  0  0  0  0  0  0  0  0  0
  -20.5671  -26.1249   18.1867 O   0  0  0  0  0  0  0  0  0  0  0  0
  -24.3437  -24.0281   16.2218 O   0  0  0  0  0  0  0  0  0  0  0  0
  -28.2701  -22.3796   19.5710 O   0  0  0  0  0  0  0  0  0  0  0  0
  -25.4602   -9.7058   20.7720 O   0  0  0  0  0  0  0  0  0  0  0  0
  -28.6957  -27.4057   20.2222 O   0  0  0  0  0  0  0  0  0  1  0  0
  -20.8754   -6.6466   20.6123 F   0  0  0  0  0  0  0  0  0  0  0  0
  -24.9819   -7.9759   18.6693 F   0  0  0  0  0  0  0  0  0  0  0  0
  1  2  1  0  0  0  0
  1  5  2  0  0  0  0
  2  6  2  0  0  0  0
  3  8  2  0  0  0  0
  3 17  1  0  0  0  0
  4  9  1  0  0  0  0
  4 17  2  0  0  0  0
  5 20  1  0  0  0  0
  6 22  1  0  0  0  0
  7 10  2  0  0  0  0
  7 21  1  0  0  0  0
  8 27  1  0  0  0  0
  9 27  2  0  0  0  0
 10 28  1  0  0  0  0
 11 12  2  0  0  0  0
 11 29  1  0  0  0  0
 12 30  1  0  0  0  0
 13 18  1  0  0  0  0
 13 25  2  0  0  0  0
 14 23  1  0  0  0  0
 14 28  2  0  0  0  0
 15 24  1  0  0  0  0
 15 26  2  0  0  0  0
 16 30  2  0  0  0  0
 16 31  1  0  0  0  0
 17 32  1  0  0  0  0
 18 24  2  0  0  0  0
 18 37  1  0  0  0  0
 19 32  1  0  0  0  0
 19 33  2  0  0  0  0
 19 38  1  0  0  0  0
 20 22  2  0  0  0  0
 20 43  1  0  0  0  0
 21 23  2  0  0  0  0
 21 44  1  0  0  0  0
 22 52  1  0  0  0  0
 23 45  1  0  0  0  0
 24 66  1  0  0  0  0
 25 26  1  0  0  0  0
 25 73  1  0  0  0  0
 26 70  1  0  0  0  0
 27 82  1  0  0  0  0
 28 83  1  0  0  0  0
 29 31  2  0  0  0  0
 29 82  1  0  0  0  0
 30 84  1  0  0  0  0
 31 85  1  0  0  0  0
 32 64  2  0  0  0  0
 33 67  1  0  0  0  0
 33 71  1  0  0  0  0
 34 35  2  0  0  0  0
 34 37  1  0  0  0  0
 35 83  1  0  0  0  0
 36 55  1  0  0  0  0
 36 66  2  0  0  0  0
 37 65  2  0  0  0  0
 38 72  1  0  0  0  0
 38 77  2  0  0  0  0
 39 53  1  0  0  0  0
 39 74  1  0  0  0  0
 39 78  2  0  0  0  0
 40 61  1  0  0  0  0
 40 68  1  0  0  0  0
 40 79  2  0  0  0  0
 41 62  1  0  0  0  0
 41 75  1  0  0  0  0
 41 80  2  0  0  0  0
 42 69  1  0  0  0  0
 42 73  1  0  0  0  0
 42 81  2  0  0  0  0
 43 46  1  0  0  0  0
 44 53  1  0  0  0  0
 45 68  1  0  0  0  0
 46 48  1  0  0  0  0
 47 49  1  0  0  0  0
 47 50  1  0  0  0  0
 48 52  1  0  0  0  0
 49 54  1  0  0  0  0
 50 69  1  0  0  0  0
 51 54  1  0  0  0  0
 51 69  1  0  0  0  0
 52 74  1  0  0  0  0
 53 68  1  0  0  0  0
 54 67  1  0  0  0  0
 56 62  1  0  0  0  0
 57 63  1  0  0  0  0
 58 63  1  0  0  0  0
 59 63  1  0  0  0  0
 60 76  1  0  0  0  0
 61 63  1  0  0  0  0
 61 75  1  0  0  0  0
 62 76  1  0  0  0  0
 64 67  1  0  0  0  0
M  CHG  1  76   1
M  ISO  4  35 101  42 100  73 100  83 101
M  END
> <Batch ID>
0113

> <Smiles>
CC=Nc1cc(N)c([100NH:0][100C:0](=O)N2CCCC(n3nc(-c4ccc(Oc5ccc(F)cc5F)cc4)c(C(N)=O)c3N)C2)cc1C(=N)C=[101CH:1][101O:1]c1ccc2c(c1)CN(C(=O)C(NC(=O)C(C)NC)C(C)(C)C)C(C(=O)NC1CCCc3ccccc31)C2

> <Shape>
0.214

> <Color>
0.090

> <Negative vol penalty>
0.000

$$$$

  -OEChem-04052301343D

 84 92  0     1  0  0  0  0  0999 V2000
  -29.7884  -20.6015   16.1165 C   0  0  0  0  0  0  0  0  0  0  0  0
  -29.4736  -20.7602   17.4623 C   0  0  0  0  0  0  0  0  0  0  0  0
  -28.3200  -14.6468   19.1057 C   0  0  0  0  0  0  0  0  0  0  0  0
  -28.4392  -14.4508   21.5108 C   0  0  0  0  0  0  0  0  0  0  0  0
  -30.0278  -21.7213   15.3211 C   0  0  0  0  0  0  0  0  0  0  0  0
  -29.3992  -22.0388   18.0137 C   0  0  0  0  0  0  0  0  0  0  0  0
  -25.3330  -22.6455   20.9707 C   0  0  0  0  0  0  0  0  0  0  0  0
  -29.6831  -14.9392   19.0619 C   0  0  0  0  0  0  0  0  0  0  0  0
  -29.8024  -14.7432   21.4670 C   0  0  0  0  0  0  0  0  0  0  0  0
  -25.3923  -22.1035   22.2538 C   0  0  0  0  0  0  0  0  0  0  0  0
  -31.6769  -17.6089   19.6291 C   0  0  0  0  0  0  0  0  0  0  0  0
  -32.0861  -18.6674   18.8182 C   0  0  0  0  0  0  0  0  0  0  0  0
  -25.9071  -24.2851   23.1451 C   0  0  0  0  0  0  0  0  0  0  0  0
  -33.4664  -17.1530   17.5381 C   0  0  0  0  0  0  0  0  0  0  0  0
  -20.7051  -18.9893   27.0564 C   0  0  0  0  0  0  0  0  0  0  0  0
  -27.6980  -14.4026   20.3301 C   0  0  0  0  0  0  0  0  0  0  0  0
  -25.6899  -12.8297   20.3024 C   0  0  0  0  0  0  0  0  0  0  0  0
  -29.9468  -23.0147   15.8608 C   0  0  0  0  0  0  0  0  0  0  0  0
  -25.5716  -24.0118   20.7634 C   0  0  0  0  0  0  0  0  0  0  0  0
  -29.6391  -23.1769   17.2251 C   0  0  0  0  0  0  0  0  0  0  0  0
  -25.8478  -24.8425   21.8587 C   0  0  0  0  0  0  0  0  0  0  0  0
  -21.2140  -17.7533   25.2445 C   0  0  0  0  0  0  0  0  0  0  0  0
  -21.6477  -18.8230   26.0659 C   0  0  0  0  0  0  0  0  0  0  0  0
  -30.4243  -14.9874   20.2425 C   0  0  0  0  0  0  0  0  0  0  0  0
  -25.6822  -22.9227   23.3409 C   0  0  0  0  0  0  0  0  0  0  0  0
  -32.1624  -16.3225   19.3946 C   0  0  0  0  0  0  0  0  0  0  0  0
  -32.9809  -18.4395   17.7726 C   0  0  0  0  0  0  0  0  0  0  0  0
  -33.0572  -16.0945   18.3491 C   0  0  0  0  0  0  0  0  0  0  0  0
  -26.2898  -14.1011   20.3761 C   0  0  0  0  0  0  0  0  0  0  0  0
  -20.0194  -17.2986   25.7580 C   0  0  0  0  0  0  0  0  0  0  0  0
  -24.3423  -13.0802   20.3905 C   0  0  0  0  0  0  0  0  0  0  0  0
  -24.6206  -21.7927   25.0922 C   0  0  0  0  0  0  0  0  0  1  0  0
  -26.2965  -11.5376   20.1667 C   0  0  0  0  0  0  0  0  0  0  0  0
  -24.5495  -21.2370   26.3094 C   0  0  0  0  0  0  0  0  0  0  0  0
  -23.2522  -20.6312   26.7515 C   0  0  0  0  0  0  0  0  0  0  0  0
  -27.7316  -25.6917   19.1460 C   0  0  0  0  0  0  0  0  0  0  0  0
  -21.2591  -17.6571   22.7692 C   0  0  0  0  0  0  0  0  0  0  0  0
  -25.8676  -28.1976   20.0226 C   0  0  0  0  0  0  0  0  0  0  0  0
  -23.5805  -29.4833   22.2049 C   0  0  0  0  0  0  0  0  0  0  0  0
  -30.2603  -24.1928   14.9727 C   0  0  0  0  0  0  0  0  0  0  0  0
  -25.4776  -24.5860   19.3764 C   0  0  0  0  0  0  0  0  0  0  0  0
  -26.0917  -26.3195   21.6922 C   0  0  0  0  0  0  0  0  0  0  0  0
  -29.7936  -25.5285   15.5456 C   0  0  0  0  0  0  0  0  0  0  0  0
  -21.0757  -16.4247   19.4095 C   0  0  0  0  0  0  0  0  0  0  0  0
  -30.1884  -25.6466   17.0143 C   0  0  0  0  0  0  0  0  0  0  0  0
  -22.3516  -15.5969   19.2606 C   0  0  0  0  0  0  0  0  0  0  0  0
  -21.3020  -17.6447   20.2969 C   0  0  0  0  0  0  0  0  0  0  0  0
  -23.1311  -16.4923   21.5002 C   0  0  0  0  0  0  0  0  0  0  0  0
  -29.5245  -24.5485   17.8540 C   0  0  1  0  0  0  0  0  0  0  0  0
  -26.2446  -25.8953   19.2185 C   0  0  1  0  0  0  0  0  0  0  0  0
  -22.9383  -15.2335   20.6361 C   0  0  2  0  0  0  0  0  0  0  0  0
  -19.1368  -16.2063   25.2963 C   0  0  0  0  0  0  0  0  0  0  0  0
  -25.6628  -21.2225   27.3104 C   0  0  0  0  0  0  0  0  0  0  0  0
  -22.2727  -31.5706   22.6852 C   0  0  0  0  0  0  0  0  0  0  0  0
  -28.3786  -29.5064   21.1593 C   0  0  0  0  0  0  0  0  0  0  0  0
  -26.9002  -31.0779   22.4293 C   0  0  0  0  0  0  0  0  0  0  0  0
  -26.8528  -31.0647   19.9352 C   0  0  0  0  0  0  0  0  0  0  0  0
  -18.5489  -17.9127   27.6959 C   0  0  0  0  0  0  0  0  0  0  0  0
  -20.9963  -28.0837   21.8553 C   0  0  0  0  0  0  0  0  0  0  0  0
  -21.9121  -17.2195   24.0561 C   0  0  0  0  0  0  0  0  0  0  0  0
  -25.8239  -29.1355   21.2047 C   0  0  1  0  0  0  0  0  0  0  0  0
  -22.2761  -30.2253   21.9760 C   0  0  2  0  0  0  0  0  0  0  0  0
  -26.9862  -30.1680   21.1854 C   0  0  0  0  0  0  0  0  0  0  0  0
  -25.3966  -15.0862   20.5011 N   0  0  0  0  0  0  0  0  0  0  0  0
  -19.7198  -18.0575   26.8591 N   0  0  0  0  0  0  0  0  0  0  0  0
  -24.2217  -14.4338   20.5066 N   0  0  0  0  0  0  0  0  0  0  0  0
  -25.9949  -26.8324   20.3156 N   0  0  0  0  0  0  0  0  0  0  0  0
  -21.8809  -17.2599   21.5853 N   0  0  0  0  0  0  0  0  0  0  0  0
  -23.2606  -12.2726   20.3790 N   0  0  0  0  0  0  0  0  0  0  0  0
  -27.6938  -11.4603   20.0903 N   0  0  0  0  0  0  0  0  0  0  0  0
  -22.8244  -19.5991   25.9287 N   0  0  0  0  0  0  0  0  0  0  0  0
  -28.1377  -24.8752   18.1078 N   0  0  0  0  0  0  0  0  0  0  0  0
  -24.4932  -29.7336   21.2022 N   0  0  0  0  0  0  0  0  0  0  0  0
  -21.1276  -29.4231   22.4844 N   0  3  0  0  0  0  0  0  0  0  0  0
  -25.6186  -10.4844   20.0981 O   0  0  0  0  0  0  0  0  0  0  0  0
  -22.7257  -21.0374   27.7828 O   0  0  0  0  0  0  0  0  0  0  0  0
  -28.4568  -26.2363   19.9701 O   0  0  0  0  0  0  0  0  0  0  0  0
  -20.2257  -18.3294   22.8167 O   0  0  0  0  0  0  0  0  0  0  0  0
  -25.7844  -28.6587   18.8815 O   0  0  0  0  0  0  0  0  0  0  0  0
  -23.7719  -28.7575   23.1781 O   0  0  0  0  0  0  0  0  0  0  0  0
  -31.7546  -15.2725   20.2002 O   0  0  0  0  0  0  0  0  0  0  0  0
  -25.7413  -22.3961   24.5943 O   0  0  0  0  0  0  0  0  0  1  0  0
  -33.3726  -19.4558   16.9930 F   0  0  0  0  0  0  0  0  0  0  0  0
  -33.5261  -14.8606   18.1182 F   0  0  0  0  0  0  0  0  0  0  0  0
  1  2  1  0  0  0  0
  1  5  2  0  0  0  0
  2  6  2  0  0  0  0
  3  8  2  0  0  0  0
  3 16  1  0  0  0  0
  4  9  1  0  0  0  0
  4 16  2  0  0  0  0
  5 18  1  0  0  0  0
  6 20  1  0  0  0  0
  7 10  2  0  0  0  0
  7 19  1  0  0  0  0
  8 24  1  0  0  0  0
  9 24  2  0  0  0  0
 10 25  1  0  0  0  0
 11 12  2  0  0  0  0
 11 26  1  0  0  0  0
 12 27  1  0  0  0  0
 13 21  1  0  0  0  0
 13 25  2  0  0  0  0
 14 27  2  0  0  0  0
 14 28  1  0  0  0  0
 15 23  2  0  0  0  0
 15 65  1  0  0  0  0
 16 29  1  0  0  0  0
 17 29  1  0  0  0  0
 17 31  2  0  0  0  0
 17 33  1  0  0  0  0
 18 20  2  0  0  0  0
 18 40  1  0  0  0  0
 19 21  2  0  0  0  0
 19 41  1  0  0  0  0
 20 49  1  0  0  0  0
 21 42  1  0  0  0  0
 22 23  1  0  0  0  0
 22 30  2  0  0  0  0
 22 60  1  0  0  0  0
 23 71  1  0  0  0  0
 24 81  1  0  0  0  0
 25 82  1  0  0  0  0
 26 28  2  0  0  0  0
 26 81  1  0  0  0  0
 27 83  1  0  0  0  0
 28 84  1  0  0  0  0
 29 64  2  0  0  0  0
 30 52  1  0  0  0  0
 30 65  1  0  0  0  0
 31 66  1  0  0  0  0
 31 69  1  0  0  0  0
 32 34  2  0  0  0  0
 32 82  1  0  0  0  0
 33 70  1  0  0  0  0
 33 75  2  0  0  0  0
 34 35  1  0  0  0  0
 34 53  1  0  0  0  0
 35 71  1  0  0  0  0
 35 76  2  0  0  0  0
 36 50  1  0  0  0  0
 36 72  1  0  0  0  0
 36 77  2  0  0  0  0
 37 60  1  0  0  0  0
 37 68  1  0  0  0  0
 37 78  2  0  0  0  0
 38 61  1  0  0  0  0
 38 67  1  0  0  0  0
 38 79  2  0  0  0  0
 39 62  1  0  0  0  0
 39 73  1  0  0  0  0
 39 80  2  0  0  0  0
 40 43  1  0  0  0  0
 41 50  1  0  0  0  0
 42 67  1  0  0  0  0
 43 45  1  0  0  0  0
 44 46  1  0  0  0  0
 44 47  1  0  0  0  0
 45 49  1  0  0  0  0
 46 51  1  0  0  0  0
 47 68  1  0  0  0  0
 48 51  1  0  0  0  0
 48 68  1  0  0  0  0
 49 72  1  0  0  0  0
 50 67  1  0  0  0  0
 51 66  1  0  0  0  0
 54 62  1  0  0  0  0
 55 63  1  0  0  0  0
 56 63  1  0  0  0  0
 57 63  1  0  0  0  0
 58 65  1  0  0  0  0
 59 74  1  0  0  0  0
 61 63  1  0  0  0  0
 61 73  1  0  0  0  0
 62 74  1  0  0  0  0
 64 66  1  0  0  0  0
M  CHG  1  74   1
M  ISO  4  32 101  37 100  60 100  82 101
M  END
> <Batch ID>
0113

> <Smiles>
CNC(C)C(=O)NC(C(=O)N1Cc2cc([101O:1][101CH:1]=C(C)C(=O)Nc3cn(C)c(C)c3[100CH2:0][100C:0](=O)N3CCCC(n4nc(-c5ccc(Oc6ccc(F)cc6F)cc5)c(C(N)=O)c4N)C3)ccc2CC1C(=O)NC1CCCc2ccccc21)C(C)(C)C

> <Shape>
0.181

> <Color>
0.090

> <Negative vol penalty>
0.000

$$$$

  -OEChem-04052301343D

 86 94  0     1  0  0  0  0  0999 V2000
  -20.2092  -34.8382   22.9025 C   0  0  0  0  0  0  0  0  0  0  0  0
  -21.4835  -34.4200   22.5329 C   0  0  0  0  0  0  0  0  0  0  0  0
  -24.5304  -12.3966   21.9757 C   0  0  0  0  0  0  0  0  0  0  0  0
  -26.7847  -12.1100   21.1553 C   0  0  0  0  0  0  0  0  0  0  0  0
  -19.3551  -33.9611   23.5698 C   0  0  0  0  0  0  0  0  0  0  0  0
  -21.9050  -33.1247   22.8314 C   0  0  0  0  0  0  0  0  0  0  0  0
  -25.5837  -29.5800   19.4539 C   0  0  0  0  0  0  0  0  0  0  0  0
  -24.3894  -11.0122   22.0720 C   0  0  0  0  0  0  0  0  0  0  0  0
  -26.6437  -10.7256   21.2516 C   0  0  0  0  0  0  0  0  0  0  0  0
  -26.9477  -29.3019   19.5306 C   0  0  0  0  0  0  0  0  0  0  0  0
  -23.7807   -8.4201   19.9900 C   0  0  0  0  0  0  0  0  0  0  0  0
  -22.5990   -7.8549   19.5110 C   0  0  0  0  0  0  0  0  0  0  0  0
  -26.4623  -27.2957   20.7791 C   0  0  0  0  0  0  0  0  0  0  0  0
  -29.1303  -23.0788   19.9115 C   0  0  0  0  0  0  0  0  0  0  0  0
  -29.8538  -21.9958   17.4444 C   0  0  0  0  0  0  0  0  0  0  0  0
  -22.1271   -6.9764   21.7116 C   0  0  0  0  0  0  0  0  0  0  0  0
  -25.7280  -12.9455   21.5173 C   0  0  0  0  0  0  0  0  0  0  0  0
  -26.3475  -15.2533   22.4105 C   0  0  0  0  0  0  0  0  0  0  0  0
  -19.7628  -32.6513   23.8681 C   0  0  0  0  0  0  0  0  0  0  0  0
  -24.6478  -28.7223   20.0496 C   0  0  0  0  0  0  0  0  0  0  0  0
  -21.0561  -32.2297   23.5045 C   0  0  0  0  0  0  0  0  0  0  0  0
  -25.0869  -27.5638   20.7063 C   0  0  0  0  0  0  0  0  0  0  0  0
  -28.6187  -21.8432   19.5152 C   0  0  0  0  0  0  0  0  0  0  0  0
  -30.0037  -23.7730   19.0741 C   0  0  0  0  0  0  0  0  0  0  0  0
  -28.9804  -21.3016   18.2817 C   0  0  0  0  0  0  0  0  0  0  0  0
  -25.4461  -10.1767   21.7100 C   0  0  0  0  0  0  0  0  0  0  0  0
  -27.3874  -28.1612   20.1958 C   0  0  0  0  0  0  0  0  0  0  0  0
  -24.1357   -8.2634   21.3299 C   0  0  0  0  0  0  0  0  0  0  0  0
  -21.7721   -7.1331   20.3717 C   0  0  0  0  0  0  0  0  0  0  0  0
  -30.3655  -23.2314   17.8407 C   0  0  0  0  0  0  0  0  0  0  0  0
  -23.3089   -7.5416   22.1906 C   0  0  0  0  0  0  0  0  0  0  0  0
  -25.8741  -14.3754   21.4170 C   0  0  0  0  0  0  0  0  0  0  0  0
  -26.2934  -16.4949   21.8256 C   0  0  0  0  0  0  0  0  0  0  0  0
  -30.4686  -18.7648   18.1748 C   0  0  0  0  0  0  0  0  0  0  0  0
  -29.2897  -18.9476   17.5690 C   0  0  0  0  0  0  0  0  0  0  0  0
  -30.2374  -26.0162   18.7023 C   0  0  0  0  0  0  0  0  0  0  0  0
  -26.7961  -14.9717   23.7428 C   0  0  0  0  0  0  0  0  0  0  0  0
  -22.4833  -29.0201   22.3583 C   0  0  0  0  0  0  0  0  0  0  0  0
  -21.6696  -26.0147   21.4485 C   0  0  0  0  0  0  0  0  0  0  0  0
  -22.5986  -23.0855   19.9641 C   0  0  0  0  0  0  0  0  0  0  0  0
  -27.0753  -19.9079   17.5602 C   0  0  0  0  0  0  0  0  0  0  0  0
  -18.8218  -31.7545   24.6328 C   0  0  0  0  0  0  0  0  0  0  0  0
  -23.1784  -29.0223   19.9349 C   0  0  0  0  0  0  0  0  0  0  0  0
  -24.1215  -26.6002   21.3450 C   0  0  0  0  0  0  0  0  0  0  0  0
  -19.2086  -30.2788   24.5795 C   0  0  0  0  0  0  0  0  0  0  0  0
  -24.1333  -18.0286   17.5265 C   0  0  0  0  0  0  0  0  0  0  0  0
  -20.6997  -30.1076   24.8519 C   0  0  0  0  0  0  0  0  0  0  0  0
  -24.3560  -16.9749   18.6110 C   0  0  0  0  0  0  0  0  0  0  0  0
  -25.4087  -18.2686   16.7269 C   0  0  0  0  0  0  0  0  0  0  0  0
  -26.8159  -17.6189   18.6559 C   0  0  0  0  0  0  0  0  0  0  0  0
  -21.5406  -30.8245   23.7887 C   0  0  1  0  0  0  0  0  0  0  0  0
  -22.3446  -28.3495   21.0209 C   0  0  1  0  0  0  0  0  0  0  0  0
  -25.5560  -17.3436   19.5011 C   0  0  2  0  0  0  0  0  0  0  0  0
  -27.6847  -21.1213   20.4318 C   0  0  0  0  0  0  0  0  0  0  0  0
  -31.3774  -17.6165   17.8848 C   0  0  0  0  0  0  0  0  0  0  0  0
  -21.7295  -20.7991   19.4031 C   0  0  0  0  0  0  0  0  0  0  0  0
  -21.9933  -25.1787   24.3650 C   0  0  0  0  0  0  0  0  0  0  0  0
  -22.0561  -22.7949   23.6021 C   0  0  0  0  0  0  0  0  0  0  0  0
  -20.0171  -24.1762   23.2056 C   0  0  0  0  0  0  0  0  0  0  0  0
  -22.9677  -23.5305   17.0616 C   0  0  0  0  0  0  0  0  0  0  0  0
  -30.7213  -27.4020   19.0360 C   0  0  0  0  0  0  0  0  0  0  0  0
  -29.5378  -28.3413   19.1962 C   0  0  0  0  0  0  0  0  0  1  0  0
  -22.1010  -24.6237   21.8458 C   0  0  1  0  0  0  0  0  0  0  0  0
  -21.9157  -22.2272   18.9146 C   0  0  2  0  0  0  0  0  0  0  0  0
  -21.5605  -24.2123   23.2444 C   0  0  0  0  0  0  0  0  0  0  0  0
  -25.5435  -15.0058   20.2868 N   0  0  0  0  0  0  0  0  0  0  0  0
  -30.5177  -25.0177   19.4746 N   0  0  0  0  0  0  0  0  0  0  0  0
  -25.8094  -16.2931   20.5666 N   0  0  0  0  0  0  0  0  0  0  0  0
  -22.6954  -26.9406   21.2113 N   0  0  0  0  0  0  0  0  0  0  0  0
  -26.5256  -18.6113   17.6080 N   0  0  0  0  0  0  0  0  0  0  0  0
  -26.6130  -17.7286   22.2707 N   0  0  0  0  0  0  0  0  0  0  0  0
  -26.7866  -13.6413   24.1838 N   0  0  0  0  0  0  0  0  0  0  0  0
  -21.5829  -30.0469   22.5689 N   0  0  0  0  0  0  0  0  0  0  0  0
  -21.6844  -23.7416   20.7610 N   0  0  0  0  0  0  0  0  0  0  0  0
  -28.4598  -20.0204   17.8514 N   0  0  0  0  0  0  0  0  0  0  0  0
  -22.7266  -22.1944   17.6646 N   0  3  0  0  0  0  0  0  0  0  0  0
  -27.1781  -15.8750   24.5249 O   0  0  0  0  0  0  0  0  0  0  0  0
  -23.3426  -28.6335   23.1418 O   0  0  0  0  0  0  0  0  0  0  0  0
  -20.4668  -26.2684   21.3452 O   0  0  0  0  0  0  0  0  0  0  0  0
  -23.8207  -23.1630   20.0691 O   0  0  0  0  0  0  0  0  0  0  0  0
  -26.3911  -20.8945   17.2592 O   0  0  0  0  0  0  0  0  0  0  0  0
  -25.3089   -8.8258   21.8041 O   0  0  0  0  0  0  0  0  0  0  0  0
  -28.7183  -27.8877   20.2727 O   0  0  0  0  0  0  0  0  0  1  0  0
  -20.6365   -6.5916   19.9119 F   0  0  0  0  0  0  0  0  0  0  0  0
  -31.2048  -23.8913   17.0303 F   0  0  0  0  0  0  0  0  0  0  0  0
  -23.6441   -7.3887   23.4791 F   0  0  0  0  0  0  0  0  0  0  0  0
  1  2  1  0  0  0  0
  1  5  2  0  0  0  0
  2  6  2  0  0  0  0
  3  8  2  0  0  0  0
  3 17  1  0  0  0  0
  4  9  1  0  0  0  0
  4 17  2  0  0  0  0
  5 19  1  0  0  0  0
  6 21  1  0  0  0  0
  7 10  2  0  0  0  0
  7 20  1  0  0  0  0
  8 26  1  0  0  0  0
  9 26  2  0  0  0  0
 10 27  1  0  0  0  0
 11 12  2  0  0  0  0
 11 28  1  0  0  0  0
 12 29  1  0  0  0  0
 13 22  1  0  0  0  0
 13 27  2  0  0  0  0
 14 23  1  0  0  0  0
 14 24  2  0  0  0  0
 15 25  1  0  0  0  0
 15 30  2  0  0  0  0
 16 29  2  0  0  0  0
 16 31  1  0  0  0  0
 17 32  1  0  0  0  0
 18 32  1  0  0  0  0
 18 33  2  0  0  0  0
 18 37  1  0  0  0  0
 19 21  2  0  0  0  0
 19 42  1  0  0  0  0
 20 22  2  0  0  0  0
 20 43  1  0  0  0  0
 21 51  1  0  0  0  0
 22 44  1  0  0  0  0
 23 25  2  0  0  0  0
 23 54  1  0  0  0  0
 24 30  1  0  0  0  0
 24 67  1  0  0  0  0
 25 75  1  0  0  0  0
 26 82  1  0  0  0  0
 27 83  1  0  0  0  0
 28 31  2  0  0  0  0
 28 82  1  0  0  0  0
 29 84  1  0  0  0  0
 30 85  1  0  0  0  0
 31 86  1  0  0  0  0
 32 66  2  0  0  0  0
 33 68  1  0  0  0  0
 33 71  1  0  0  0  0
 34 35  2  0  0  0  0
 34 55  1  0  0  0  0
 35 75  1  0  0  0  0
 36 61  1  0  0  0  0
 36 67  2  0  0  0  0
 37 72  1  0  0  0  0
 37 77  2  0  0  0  0
 38 52  1  0  0  0  0
 38 73  1  0  0  0  0
 38 78  2  0  0  0  0
 39 63  1  0  0  0  0
 39 69  1  0  0  0  0
 39 79  2  0  0  0  0
 40 64  1  0  0  0  0
 40 74  1  0  0  0  0
 40 80  2  0  0  0  0
 41 70  1  0  0  0  0
 41 75  1  0  0  0  0
 41 81  2  0  0  0  0
 42 45  1  0  0  0  0
 43 52  1  0  0  0  0
 44 69  1  0  0  0  0
 45 47  1  0  0  0  0
 46 48  1  0  0  0  0
 46 49  1  0  0  0  0
 47 51  1  0  0  0  0
 48 53  1  0  0  0  0
 49 70  1  0  0  0  0
 50 53  1  0  0  0  0
 50 70  1  0  0  0  0
 51 73  1  0  0  0  0
 52 69  1  0  0  0  0
 53 68  1  0  0  0  0
 56 64  1  0  0  0  0
 57 65  1  0  0  0  0
 58 65  1  0  0  0  0
 59 65  1  0  0  0  0
 60 76  1  0  0  0  0
 61 62  1  0  0  0  0
 62 83  1  0  0  0  0
 63 65  1  0  0  0  0
 63 74  1  0  0  0  0
 64 76  1  0  0  0  0
 66 68  1  0  0  0  0
M  CHG  1  76   1
M  ISO  4  41 100  62 101  75 100  83 101
M  END
> <Batch ID>
0113

> <Smiles>
CC=C[100N:0](c1cc(F)c(NC=C[101CH2:1][101O:1]c2ccc3c(c2)CN(C(=O)C(NC(=O)C(C)NC)C(C)(C)C)C(C(=O)NC2CCCc4ccccc42)C3)cc1C)[100C:0](=O)N1CCCC(n2nc(-c3ccc(Oc4ccc(F)cc4F)cc3)c(C(N)=O)c2N)C1

> <Shape>
0.220

> <Color>
0.093

> <Negative vol penalty>
0.000

$$$$

  -OEChem-04052301343D

 83 91  0     1  0  0  0  0  0999 V2000
  -26.6745  -29.1594   19.3549 C   0  0  0  0  0  0  0  0  0  0  0  0
  -26.8122  -27.7784   19.4510 C   0  0  0  0  0  0  0  0  0  0  0  0
  -30.5473  -22.3258   21.1224 C   0  0  0  0  0  0  0  0  0  0  0  0
  -28.9854  -22.3081   19.2792 C   0  0  0  0  0  0  0  0  0  0  0  0
  -25.7463  -29.8237   20.1555 C   0  0  0  0  0  0  0  0  0  0  0  0
  -26.0223  -27.0609   20.3487 C   0  0  0  0  0  0  0  0  0  0  0  0
  -23.7828  -21.4126   19.5824 C   0  0  0  0  0  0  0  0  0  0  0  0
  -31.0007  -23.5840   20.7261 C   0  0  0  0  0  0  0  0  0  0  0  0
  -29.4388  -23.5663   18.8830 C   0  0  0  0  0  0  0  0  0  0  0  0
  -24.2128  -20.1643   20.0303 C   0  0  0  0  0  0  0  0  0  0  0  0
  -32.3178  -26.9576   20.4115 C   0  0  0  0  0  0  0  0  0  0  0  0
  -32.4919  -27.9254   21.4008 C   0  0  0  0  0  0  0  0  0  0  0  0
  -22.6929  -20.3173   21.8973 C   0  0  0  0  0  0  0  0  0  0  0  0
  -24.0965  -11.4965   21.6595 C   0  0  0  0  0  0  0  0  0  0  0  0
  -26.2649  -11.9275   20.6851 C   0  0  0  0  0  0  0  0  0  0  0  0
  -30.1495  -27.7647   21.9703 C   0  0  0  0  0  0  0  0  0  0  0  0
  -29.5397  -21.6879   20.3989 C   0  0  0  0  0  0  0  0  0  0  0  0
  -24.5418  -13.6185   20.5937 C   0  0  0  0  0  0  0  0  0  0  0  0
  -28.0204  -20.1049   21.7004 C   0  0  0  0  0  0  0  0  0  0  0  0
  -24.9378  -29.1128   21.0565 C   0  0  0  0  0  0  0  0  0  0  0  0
  -22.8108  -22.1287   20.2958 C   0  0  0  0  0  0  0  0  0  0  0  0
  -25.0833  -27.7165   21.1631 C   0  0  0  0  0  0  0  0  0  0  0  0
  -22.2504  -21.5733   21.4550 C   0  0  0  0  0  0  0  0  0  0  0  0
  -23.6706  -12.7675   21.2738 C   0  0  0  0  0  0  0  0  0  0  0  0
  -25.8389  -13.1985   20.2993 C   0  0  0  0  0  0  0  0  0  0  0  0
  -30.4464  -24.2043   19.6064 C   0  0  0  0  0  0  0  0  0  0  0  0
  -23.6700  -19.6177   21.1895 C   0  0  0  0  0  0  0  0  0  0  0  0
  -31.0595  -26.3934   20.2016 C   0  0  0  0  0  0  0  0  0  0  0  0
  -31.4078  -28.3289   22.1802 C   0  0  0  0  0  0  0  0  0  0  0  0
  -29.9754  -26.7969   20.9810 C   0  0  0  0  0  0  0  0  0  0  0  0
  -25.3937  -11.0765   21.3652 C   0  0  0  0  0  0  0  0  0  0  0  0
  -29.0713  -20.3879   20.8074 C   0  0  0  0  0  0  0  0  0  0  0  0
  -27.9737  -18.7332   21.7521 C   0  0  0  0  0  0  0  0  0  0  0  0
  -24.2958  -16.0890   21.1415 C   0  0  0  0  0  0  0  0  0  0  0  0
  -23.9191  -17.3244   20.8030 C   0  0  0  0  0  0  0  0  0  1  0  0
  -24.0883  -14.9699   20.1851 C   0  0  0  0  0  0  0  0  0  0  0  0
  -27.1631  -21.0018   22.4189 C   0  0  0  0  0  0  0  0  0  0  0  0
  -22.7389  -24.9311   21.7942 C   0  0  0  0  0  0  0  0  0  0  0  0
  -19.5868  -24.2368   22.1177 C   0  0  0  0  0  0  0  0  0  0  0  0
  -17.1409  -21.8598   22.2348 C   0  0  0  0  0  0  0  0  0  0  0  0
  -28.0603  -13.7590   19.2516 C   0  0  0  0  0  0  0  0  0  0  0  0
  -23.9817  -29.8801   21.9350 C   0  0  0  0  0  0  0  0  0  0  0  0
  -22.3383  -23.4621   19.7848 C   0  0  0  0  0  0  0  0  0  0  0  0
  -21.1895  -22.2926   22.2460 C   0  0  0  0  0  0  0  0  0  0  0  0
  -22.9200  -29.0020   22.5922 C   0  0  0  0  0  0  0  0  0  0  0  0
  -31.2044  -15.2586   19.9881 C   0  0  0  0  0  0  0  0  0  0  0  0
  -23.5571  -27.7523   23.1917 C   0  0  0  0  0  0  0  0  0  0  0  0
  -30.8433  -16.7035   20.3404 C   0  0  0  0  0  0  0  0  0  0  0  0
  -30.3232  -14.7110   18.8668 C   0  0  0  0  0  0  0  0  0  0  0  0
  -28.5169  -16.2826   19.4472 C   0  0  0  0  0  0  0  0  0  0  0  0
  -24.2273  -26.9003   22.1071 C   0  0  1  0  0  0  0  0  0  0  0  0
  -21.7149  -24.3319   20.8721 C   0  0  1  0  0  0  0  0  0  0  0  0
  -29.3346  -16.8561   20.6161 C   0  0  2  0  0  0  0  0  0  0  0  0
  -14.6653  -21.5943   22.5489 C   0  0  0  0  0  0  0  0  0  0  0  0
  -19.9190  -24.7071   25.1141 C   0  0  0  0  0  0  0  0  0  0  0  0
  -17.7379  -23.5305   25.4699 C   0  0  0  0  0  0  0  0  0  0  0  0
  -17.8130  -25.6390   24.1390 C   0  0  0  0  0  0  0  0  0  0  0  0
  -16.8120  -20.6576   19.5505 C   0  0  0  0  0  0  0  0  0  0  0  0
  -18.7517  -23.5121   23.1455 C   0  0  1  0  0  0  0  0  0  0  0  0
  -15.7928  -21.7666   21.5430 C   0  0  2  0  0  0  0  0  0  0  0  0
  -18.5768  -24.3343   24.4535 C   0  0  0  0  0  0  0  0  0  0  0  0
  -29.6505  -19.2846   20.3265 N   0  0  0  0  0  0  0  0  0  0  0  0
  -28.9612  -18.2950   20.9196 N   0  0  0  0  0  0  0  0  0  0  0  0
  -20.7651  -23.5961   21.7092 N   0  0  0  0  0  0  0  0  0  0  0  0
  -28.9077  -14.8859   19.1995 N   0  0  0  0  0  0  0  0  0  0  0  0
  -22.3521  -13.1711   21.5829 N   0  0  0  0  0  0  0  0  0  0  0  0
  -27.1848  -17.8712   22.4280 N   0  0  0  0  0  0  0  0  0  0  0  0
  -27.3473  -22.3810   22.2505 N   0  0  0  0  0  0  0  0  0  0  0  0
  -26.7432  -14.0441   19.6101 N   0  0  0  0  0  0  0  0  0  0  0  0
  -23.2344  -26.1490   21.3693 N   0  0  0  0  0  0  0  0  0  0  0  0
  -17.4978  -23.1681   22.4837 N   0  0  0  0  0  0  0  0  0  0  0  0
  -15.7696  -20.6065   20.6078 N   0  3  0  0  0  0  0  0  0  0  0  0
  -23.5854  -15.1349   19.0789 O   0  0  0  0  0  0  0  0  0  0  0  0
  -26.2711  -20.5925   23.2002 O   0  0  0  0  0  0  0  0  0  0  0  0
  -23.0548  -24.3334   22.8163 O   0  0  0  0  0  0  0  0  0  0  0  0
  -19.2040  -25.3278   21.6877 O   0  0  0  0  0  0  0  0  0  0  0  0
  -17.8085  -20.8706   22.5286 O   0  0  0  0  0  0  0  0  0  0  0  0
  -28.4789  -12.6212   19.0234 O   0  0  0  0  0  0  0  0  0  0  0  0
  -30.8885  -25.4321   19.2196 O   0  0  0  0  0  0  0  0  0  0  0  0
  -24.0885  -18.3998   21.6292 O   0  0  0  0  0  0  0  0  0  1  0  0
  -31.5754  -29.2572   23.1312 F   0  0  0  0  0  0  0  0  0  0  0  0
  -28.7644  -26.2575   20.7847 F   0  0  0  0  0  0  0  0  0  0  0  0
  -25.9188   -9.5076   21.8400 Cl  0  0  0  0  0  0  0  0  0  0  0  0
  1  2  1  0  0  0  0
  1  5  2  0  0  0  0
  2  6  2  0  0  0  0
  3  8  2  0  0  0  0
  3 17  1  0  0  0  0
  4  9  1  0  0  0  0
  4 17  2  0  0  0  0
  5 20  1  0  0  0  0
  6 22  1  0  0  0  0
  7 10  2  0  0  0  0
  7 21  1  0  0  0  0
  8 26  1  0  0  0  0
  9 26  2  0  0  0  0
 10 27  1  0  0  0  0
 11 12  2  0  0  0  0
 11 28  1  0  0  0  0
 12 29  1  0  0  0  0
 13 23  1  0  0  0  0
 13 27  2  0  0  0  0
 14 24  2  0  0  0  0
 14 31  1  0  0  0  0
 15 25  1  0  0  0  0
 15 31  2  0  0  0  0
 16 29  2  0  0  0  0
 16 30  1  0  0  0  0
 17 32  1  0  0  0  0
 18 24  1  0  0  0  0
 18 25  2  0  0  0  0
 18 36  1  0  0  0  0
 19 32  1  0  0  0  0
 19 33  2  0  0  0  0
 19 37  1  0  0  0  0
 20 22  2  0  0  0  0
 20 42  1  0  0  0  0
 21 23  2  0  0  0  0
 21 43  1  0  0  0  0
 22 51  1  0  0  0  0
 23 44  1  0  0  0  0
 24 66  1  0  0  0  0
 25 69  1  0  0  0  0
 26 79  1  0  0  0  0
 27 80  1  0  0  0  0
 28 30  2  0  0  0  0
 28 79  1  0  0  0  0
 29 81  1  0  0  0  0
 30 82  1  0  0  0  0
 31 83  1  0  0  0  0
 32 62  2  0  0  0  0
 33 63  1  0  0  0  0
 33 67  1  0  0  0  0
 34 35  2  0  0  0  0
 34 36  1  0  0  0  0
 35 80  1  0  0  0  0
 36 73  2  0  0  0  0
 37 68  1  0  0  0  0
 37 74  2  0  0  0  0
 38 52  1  0  0  0  0
 38 70  1  0  0  0  0
 38 75  2  0  0  0  0
 39 59  1  0  0  0  0
 39 64  1  0  0  0  0
 39 76  2  0  0  0  0
 40 60  1  0  0  0  0
 40 71  1  0  0  0  0
 40 77  2  0  0  0  0
 41 65  1  0  0  0  0
 41 69  1  0  0  0  0
 41 78  2  0  0  0  0
 42 45  1  0  0  0  0
 43 52  1  0  0  0  0
 44 64  1  0  0  0  0
 45 47  1  0  0  0  0
 46 48  1  0  0  0  0
 46 49  1  0  0  0  0
 47 51  1  0  0  0  0
 48 53  1  0  0  0  0
 49 65  1  0  0  0  0
 50 53  1  0  0  0  0
 50 65  1  0  0  0  0
 51 70  1  0  0  0  0
 52 64  1  0  0  0  0
 53 63  1  0  0  0  0
 54 60  1  0  0  0  0
 55 61  1  0  0  0  0
 56 61  1  0  0  0  0
 57 61  1  0  0  0  0
 58 72  1  0  0  0  0
 59 61  1  0  0  0  0
 59 71  1  0  0  0  0
 60 72  1  0  0  0  0
 62 63  1  0  0  0  0
M  CHG  1  72   1
M  ISO  4  35 101  41 100  69 100  80 101
M  END
> <Batch ID>
0113

> <Smiles>
CNC(C)C(=O)NC(C(=O)N1Cc2cc([101O:1][101CH:1]=CC(=O)c3c(N)cc(Cl)cc3[100NH:0][100C:0](=O)N3CCCC(n4nc(-c5ccc(Oc6ccc(F)cc6F)cc5)c(C(N)=O)c4N)C3)ccc2CC1C(=O)NC1CCCc2ccccc21)C(C)(C)C

> <Shape>
0.222

> <Color>
0.069

> <Negative vol penalty>
0.000

$$$$

  -OEChem-04052301343D

 87 95  0     1  0  0  0  0  0999 V2000
  -16.8039  -30.9430   23.5103 C   0  0  0  0  0  0  0  0  0  0  0  0
  -18.0144  -31.6121   23.6602 C   0  0  0  0  0  0  0  0  0  0  0  0
  -24.7464  -13.6954   19.3961 C   0  0  0  0  0  0  0  0  0  0  0  0
  -25.9532  -14.2906   21.4026 C   0  0  0  0  0  0  0  0  0  0  0  0
  -31.5295  -23.2793   21.9065 C   0  0  0  0  0  0  0  0  0  0  0  0
  -16.7881  -29.5559   23.3704 C   0  0  0  0  0  0  0  0  0  0  0  0
  -19.2098  -30.8943   23.6714 C   0  0  0  0  0  0  0  0  0  0  0  0
  -26.0846  -31.4681   21.7414 C   0  0  0  0  0  0  0  0  0  0  0  0
  -31.2464  -22.0192   22.4335 C   0  0  0  0  0  0  0  0  0  0  0  0
  -24.8078  -12.3498   19.7583 C   0  0  0  0  0  0  0  0  0  0  0  0
  -26.0146  -12.9450   21.7649 C   0  0  0  0  0  0  0  0  0  0  0  0
  -27.3670  -31.3216   22.2683 C   0  0  0  0  0  0  0  0  0  0  0  0
  -23.2015  -10.2660   21.8820 C   0  0  0  0  0  0  0  0  0  0  0  0
  -22.0377   -9.5073   21.7573 C   0  0  0  0  0  0  0  0  0  0  0  0
  -30.9312  -22.4919   19.7022 C   0  0  0  0  0  0  0  0  0  0  0  0
  -27.2233  -28.9363   21.9389 C   0  0  0  0  0  0  0  0  0  0  0  0
  -23.1648   -8.0324   20.2110 C   0  0  0  0  0  0  0  0  0  0  0  0
  -25.3191  -14.6658   20.2182 C   0  0  0  0  0  0  0  0  0  0  0  0
  -31.3718  -23.5157   20.5409 C   0  0  0  0  0  0  0  0  0  0  0  0
  -24.2486  -16.9809   20.1763 C   0  0  0  0  0  0  0  0  0  0  0  0
  -17.9846  -28.8217   23.3701 C   0  0  0  0  0  0  0  0  0  0  0  0
  -25.3564  -30.3467   21.3187 C   0  0  0  0  0  0  0  0  0  0  0  0
  -19.2099  -29.4959   23.5326 C   0  0  0  0  0  0  0  0  0  0  0  0
  -25.9328  -29.0714   21.4046 C   0  0  0  0  0  0  0  0  0  0  0  0
  -30.8058  -20.9955   21.5948 C   0  0  0  0  0  0  0  0  0  0  0  0
  -30.6481  -21.2318   20.2291 C   0  0  0  0  0  0  0  0  0  0  0  0
  -25.4419  -11.9746   20.9427 C   0  0  0  0  0  0  0  0  0  0  0  0
  -27.9355  -30.0553   22.3698 C   0  0  0  0  0  0  0  0  0  0  0  0
  -24.3470   -9.9079   21.1711 C   0  0  0  0  0  0  0  0  0  0  0  0
  -22.0193   -8.3905   20.9218 C   0  0  0  0  0  0  0  0  0  0  0  0
  -24.3286   -8.7911   20.3356 C   0  0  0  0  0  0  0  0  0  0  0  0
  -25.2565  -16.0559   19.8443 C   0  0  0  0  0  0  0  0  0  0  0  0
  -24.6517  -18.1542   19.5869 C   0  0  0  0  0  0  0  0  0  0  0  0
  -31.5497  -28.1655   21.6918 C   0  0  0  0  0  0  0  0  0  0  0  0
  -31.7507  -29.4845   21.5672 C   0  0  0  0  0  0  0  0  0  0  0  0
  -31.6729  -24.8579   19.9809 C   0  0  0  0  0  0  0  0  0  0  0  0
  -23.0548  -16.7962   20.9486 C   0  0  0  0  0  0  0  0  0  0  0  0
  -31.7971  -27.2553   20.5393 C   0  0  0  0  0  0  0  0  0  0  0  0
  -22.6153  -28.9933   22.1897 C   0  0  0  0  0  0  0  0  0  0  0  0
  -23.1858  -27.0966   19.6208 C   0  0  0  0  0  0  0  0  0  0  0  0
  -25.4584  -25.7612   17.4530 C   0  0  0  0  0  0  0  0  0  0  0  0
  -29.9966  -20.2918   17.9845 C   0  0  0  0  0  0  0  0  0  0  0  0
  -17.9141  -27.3189   23.2632 C   0  0  0  0  0  0  0  0  0  0  0  0
  -23.9846  -30.5243   20.7278 C   0  0  0  0  0  0  0  0  0  0  0  0
  -25.2007  -27.8377   20.9460 C   0  0  0  0  0  0  0  0  0  0  0  0
  -19.2499  -26.6701   22.9095 C   0  0  0  0  0  0  0  0  0  0  0  0
  -27.1772  -19.8011   15.8662 C   0  0  0  0  0  0  0  0  0  0  0  0
  -20.3689  -27.2494   23.7691 C   0  0  0  0  0  0  0  0  0  0  0  0
  -26.2702  -18.8741   16.6787 C   0  0  0  0  0  0  0  0  0  0  0  0
  -28.6543  -19.4652   16.0636 C   0  0  0  0  0  0  0  0  0  0  0  0
  -28.1902  -18.4840   18.2751 C   0  0  0  0  0  0  0  0  0  0  0  0
  -20.5293  -28.7548   23.5248 C   0  0  1  0  0  0  0  0  0  0  0  0
  -23.1328  -29.2611   20.8047 C   0  0  1  0  0  0  0  0  0  0  0  0
  -26.6956  -18.8253   18.1593 C   0  0  2  0  0  0  0  0  0  0  0  0
  -30.5111  -19.6554   22.1866 C   0  0  0  0  0  0  0  0  0  0  0  0
  -25.6295  -24.2169   15.4825 C   0  0  0  0  0  0  0  0  0  0  0  0
  -22.8499  -24.6970   21.4753 C   0  0  0  0  0  0  0  0  0  0  0  0
  -23.9449  -23.2798   19.7258 C   0  0  0  0  0  0  0  0  0  0  0  0
  -21.7903  -24.4330   19.2254 C   0  0  0  0  0  0  0  0  0  0  0  0
  -26.5375  -27.9040   15.7201 C   0  0  0  0  0  0  0  0  0  0  0  0
  -31.5265  -30.4642   22.6859 C   0  0  0  0  0  0  0  0  0  0  0  0
  -30.0968  -30.9923   22.6959 C   0  0  0  0  0  0  0  0  0  1  0  0
  -23.9143  -25.7938   19.3945 C   0  0  1  0  0  0  0  0  0  0  0  0
  -25.4659  -25.6584   15.9385 C   0  0  2  0  0  0  0  0  0  0  0  0
  -23.1381  -24.5738   19.9658 C   0  0  0  0  0  0  0  0  0  0  0  0
  -26.2268  -16.5951   19.1014 N   0  0  0  0  0  0  0  0  0  0  0  0
  -25.8304  -17.8715   18.9617 N   0  0  0  0  0  0  0  0  0  0  0  0
  -23.8598  -28.0625   20.3814 N   0  0  0  0  0  0  0  0  0  0  0  0
  -28.9854  -19.4411   17.4900 N   0  0  0  0  0  0  0  0  0  0  0  0
  -24.1092  -19.3898   19.5475 N   0  0  0  0  0  0  0  0  0  0  0  0
  -22.7936  -15.5265   21.4815 N   0  0  0  0  0  0  0  0  0  0  0  0
  -30.2009  -20.2049   19.3612 N   0  0  0  0  0  0  0  0  0  0  0  0
  -31.5321  -25.9265   20.8655 N   0  0  0  0  0  0  0  0  0  0  0  0
  -21.2368  -28.9930   22.2849 N   0  0  0  0  0  0  0  0  0  0  0  0
  -24.1775  -25.7169   17.9616 N   0  0  0  0  0  0  0  0  0  0  0  0
  -26.5858  -26.4610   15.3704 N   0  3  0  0  0  0  0  0  0  0  0  0
  -32.0443  -24.9485   18.8139 O   0  0  0  0  0  0  0  0  0  0  0  0
  -22.2355  -17.7253   21.1461 O   0  0  0  0  0  0  0  0  0  0  0  0
  -32.1839  -27.6631   19.4491 O   0  0  0  0  0  0  0  0  0  0  0  0
  -23.4081  -28.7998   23.1039 O   0  0  0  0  0  0  0  0  0  0  0  0
  -22.0632  -27.2540   19.1345 O   0  0  0  0  0  0  0  0  0  0  0  0
  -26.4862  -25.8663   18.1186 O   0  0  0  0  0  0  0  0  0  0  0  0
  -30.6156  -21.0618   17.2457 O   0  0  0  0  0  0  0  0  0  0  0  0
  -25.5018  -10.6617   21.2966 O   0  0  0  0  0  0  0  0  0  0  0  0
  -29.1868  -29.9094   22.8843 O   0  0  0  0  0  0  0  0  0  1  0  0
  -20.9021   -7.6612   20.8034 F   0  0  0  0  0  0  0  0  0  0  0  0
  -25.4263   -8.4415   19.6510 F   0  0  0  0  0  0  0  0  0  0  0  0
  1  2  1  0  0  0  0
  1  6  2  0  0  0  0
  2  7  2  0  0  0  0
  3 10  2  0  0  0  0
  3 18  1  0  0  0  0
  4 11  1  0  0  0  0
  4 18  2  0  0  0  0
  5  9  2  0  0  0  0
  5 19  1  0  0  0  0
  6 21  1  0  0  0  0
  7 23  1  0  0  0  0
  8 12  2  0  0  0  0
  8 22  1  0  0  0  0
  9 25  1  0  0  0  0
 10 27  1  0  0  0  0
 11 27  2  0  0  0  0
 12 28  1  0  0  0  0
 13 14  2  0  0  0  0
 13 29  1  0  0  0  0
 14 30  1  0  0  0  0
 15 19  2  0  0  0  0
 15 26  1  0  0  0  0
 16 24  1  0  0  0  0
 16 28  2  0  0  0  0
 17 30  2  0  0  0  0
 17 31  1  0  0  0  0
 18 32  1  0  0  0  0
 19 36  1  0  0  0  0
 20 32  1  0  0  0  0
 20 33  2  0  0  0  0
 20 37  1  0  0  0  0
 21 23  2  0  0  0  0
 21 43  1  0  0  0  0
 22 24  2  0  0  0  0
 22 44  1  0  0  0  0
 23 52  1  0  0  0  0
 24 45  1  0  0  0  0
 25 26  2  0  0  0  0
 25 55  1  0  0  0  0
 26 72  1  0  0  0  0
 27 84  1  0  0  0  0
 28 85  1  0  0  0  0
 29 31  2  0  0  0  0
 29 84  1  0  0  0  0
 30 86  1  0  0  0  0
 31 87  1  0  0  0  0
 32 66  2  0  0  0  0
 33 67  1  0  0  0  0
 33 70  1  0  0  0  0
 34 35  2  0  0  0  0
 34 38  1  0  0  0  0
 35 61  1  0  0  0  0
 36 73  1  0  0  0  0
 36 77  2  0  0  0  0
 37 71  1  0  0  0  0
 37 78  2  0  0  0  0
 38 73  1  0  0  0  0
 38 79  2  0  0  0  0
 39 53  1  0  0  0  0
 39 74  1  0  0  0  0
 39 80  2  0  0  0  0
 40 63  1  0  0  0  0
 40 68  1  0  0  0  0
 40 81  2  0  0  0  0
 41 64  1  0  0  0  0
 41 75  1  0  0  0  0
 41 82  2  0  0  0  0
 42 69  1  0  0  0  0
 42 72  1  0  0  0  0
 42 83  2  0  0  0  0
 43 46  1  0  0  0  0
 44 53  1  0  0  0  0
 45 68  1  0  0  0  0
 46 48  1  0  0  0  0
 47 49  1  0  0  0  0
 47 50  1  0  0  0  0
 48 52  1  0  0  0  0
 49 54  1  0  0  0  0
 50 69  1  0  0  0  0
 51 54  1  0  0  0  0
 51 69  1  0  0  0  0
 52 74  1  0  0  0  0
 53 68  1  0  0  0  0
 54 67  1  0  0  0  0
 56 64  1  0  0  0  0
 57 65  1  0  0  0  0
 58 65  1  0  0  0  0
 59 65  1  0  0  0  0
 60 76  1  0  0  0  0
 61 62  1  0  0  0  0
 62 85  1  0  0  0  0
 63 65  1  0  0  0  0
 63 75  1  0  0  0  0
 64 76  1  0  0  0  0
 66 67  1  0  0  0  0
M  CHG  1  76   1
M  ISO  4  42 100  62 101  72 100  85 101
M  END
> <Batch ID>
0113

> <Smiles>
CNC(C)C(=O)NC(C(=O)N1Cc2cc([101O:1][101CH2:1]CC=CC(=O)NC(=O)c3ccc(C)c([100NH:0][100C:0](=O)N4CCCC(n5nc(-c6ccc(Oc7ccc(F)cc7F)cc6)c(C(N)=O)c5N)C4)c3)ccc2CC1C(=O)NC1CCCc2ccccc21)C(C)(C)C

> <Shape>
0.237

> <Color>
0.098

> <Negative vol penalty>
0.000

$$$$

  -OEChem-04052301343D

 84 92  0     1  0  0  0  0  0999 V2000
  -27.8177  -24.5208   16.7761 C   0  0  0  0  0  0  0  0  0  0  0  0
  -26.6325  -24.7786   17.4575 C   0  0  0  0  0  0  0  0  0  0  0  0
  -26.8142  -13.1602   19.4753 C   0  0  0  0  0  0  0  0  0  0  0  0
  -24.6183  -13.8466   20.2129 C   0  0  0  0  0  0  0  0  0  0  0  0
  -29.0317  -24.9644   17.2989 C   0  0  0  0  0  0  0  0  0  0  0  0
  -26.6607  -25.4793   18.6627 C   0  0  0  0  0  0  0  0  0  0  0  0
  -23.0673  -29.0379   18.9258 C   0  0  0  0  0  0  0  0  0  0  0  0
  -26.6820  -11.9695   20.1897 C   0  0  0  0  0  0  0  0  0  0  0  0
  -24.4861  -12.6559   20.9273 C   0  0  0  0  0  0  0  0  0  0  0  0
  -21.7704  -28.6132   19.2114 C   0  0  0  0  0  0  0  0  0  0  0  0
  -23.4220   -9.6380   22.6530 C   0  0  0  0  0  0  0  0  0  0  0  0
  -22.2121   -8.9513   22.5522 C   0  0  0  0  0  0  0  0  0  0  0  0
  -22.0692  -29.2690   21.5135 C   0  0  0  0  0  0  0  0  0  0  0  0
  -22.5325   -8.7369   20.1671 C   0  0  0  0  0  0  0  0  0  0  0  0
  -25.7823  -14.0988   19.4869 C   0  0  0  0  0  0  0  0  0  0  0  0
  -25.5434  -15.5656   17.4134 C   0  0  0  0  0  0  0  0  0  0  0  0
  -29.0738  -25.6793   18.5063 C   0  0  0  0  0  0  0  0  0  0  0  0
  -23.8801  -29.5721   19.9360 C   0  0  0  0  0  0  0  0  0  0  0  0
  -27.8766  -25.9318   19.2029 C   0  0  0  0  0  0  0  0  0  0  0  0
  -23.3751  -29.7021   21.2376 C   0  0  0  0  0  0  0  0  0  0  0  0
  -25.5179  -11.7173   20.9157 C   0  0  0  0  0  0  0  0  0  0  0  0
  -21.2722  -28.7261   20.5060 C   0  0  0  0  0  0  0  0  0  0  0  0
  -24.1872   -9.8742   21.5109 C   0  0  0  0  0  0  0  0  0  0  0  0
  -21.7674   -8.5007   21.3093 C   0  0  0  0  0  0  0  0  0  0  0  0
  -23.7424   -9.4237   20.2679 C   0  0  0  0  0  0  0  0  0  0  0  0
  -25.9185  -15.3292   18.7496 C   0  0  0  0  0  0  0  0  0  0  0  0
  -23.5521  -24.3796   22.0609 C   0  0  0  0  0  0  0  0  0  0  0  0
  -22.8666  -21.8441   21.5825 C   0  0  0  0  0  0  0  0  0  0  0  0
  -22.2511  -23.9537   22.2150 C   0  0  0  0  0  0  0  0  0  0  0  0
  -24.1675  -22.2700   21.4277 C   0  0  0  0  0  0  0  0  0  0  0  0
  -25.8779  -16.8788   17.1901 C   0  0  0  0  0  0  0  0  0  0  0  0
  -20.2462  -24.9688   21.7973 C   0  0  0  0  0  0  0  0  0  0  0  0
  -24.9458  -14.6774   16.4596 C   0  0  0  0  0  0  0  0  0  0  0  0
  -26.6473  -28.7428   21.2619 C   0  0  0  0  0  0  0  0  0  0  0  0
  -26.3194  -31.5840   22.7924 C   0  0  0  0  0  0  0  0  0  0  0  0
  -24.2415  -34.0490   23.9118 C   0  0  0  0  0  0  0  0  0  0  0  0
  -26.5127  -21.6001   20.7973 C   0  0  0  0  0  0  0  0  0  0  0  0
  -30.4147  -26.0974   19.0559 C   0  0  0  0  0  0  0  0  0  0  0  0
  -25.2674  -30.0502   19.6059 C   0  0  0  0  0  0  0  0  0  0  0  0
  -24.2001  -30.2875   22.3535 C   0  0  0  0  0  0  0  0  0  0  0  0
  -30.3207  -27.1588   20.1491 C   0  0  0  0  0  0  0  0  0  0  0  0
  -28.9725  -20.2480   18.6067 C   0  0  0  0  0  0  0  0  0  0  0  0
  -29.2443  -26.7863   21.1637 C   0  0  0  0  0  0  0  0  0  0  0  0
  -28.4313  -18.8570   18.2684 C   0  0  0  0  0  0  0  0  0  0  0  0
  -28.6786  -20.6339   20.0553 C   0  0  0  0  0  0  0  0  0  0  0  0
  -26.7288  -19.1292   20.1162 C   0  0  0  0  0  0  0  0  0  0  0  0
  -27.8638  -26.7103   20.5005 C   0  0  1  0  0  0  0  0  0  0  0  0
  -26.1863  -30.1037   20.8225 C   0  0  1  0  0  0  0  0  0  0  0  0
  -26.9438  -18.7231   18.6490 C   0  0  2  0  0  0  0  0  0  0  0  0
  -23.9431  -25.7938   22.3224 C   0  0  0  0  0  0  0  0  0  0  0  0
  -22.4644  -20.4326   21.3175 C   0  0  0  0  0  0  0  0  0  0  0  0
  -24.2609  -36.2255   25.1607 C   0  0  0  0  0  0  0  0  0  0  0  0
  -26.6997  -30.0726   25.4156 C   0  0  0  0  0  0  0  0  0  0  0  0
  -25.7793  -32.0668   26.6173 C   0  0  0  0  0  0  0  0  0  0  0  0
  -27.8858  -32.2711   25.2970 C   0  0  0  0  0  0  0  0  0  0  0  0
  -23.1291  -35.5203   21.5973 C   0  0  0  0  0  0  0  0  0  0  0  0
  -19.1007  -25.8883   22.1220 C   0  0  0  0  0  0  0  0  0  0  0  0
  -18.4840  -26.4585   20.8504 C   0  0  0  0  0  0  0  0  0  0  0  0
  -19.4865  -27.2369   20.0066 C   0  0  0  0  0  0  0  0  0  1  0  0
  -25.6804  -32.0354   24.0835 C   0  0  1  0  0  0  0  0  0  0  0  0
  -24.3170  -35.5606   23.7942 C   0  0  2  0  0  0  0  0  0  0  0  0
  -26.4962  -31.5986   25.3329 C   0  0  0  0  0  0  0  0  0  0  0  0
  -26.4508  -16.4059   19.3339 N   0  0  0  0  0  0  0  0  0  0  0  0
  -21.8851  -22.6783   21.9789 N   0  0  0  0  0  0  0  0  0  0  0  0
  -24.5335  -23.5454   21.6642 N   0  0  0  0  0  0  0  0  0  0  0  0
  -21.2288  -24.8257   22.6253 N   0  0  0  0  0  0  0  0  0  0  0  0
  -26.4126  -17.3315   18.3603 N   0  0  0  0  0  0  0  0  0  0  0  0
  -25.5526  -30.7348   21.9820 N   0  0  0  0  0  0  0  0  0  0  0  0
  -27.2500  -20.4865   20.3423 N   0  0  0  0  0  0  0  0  0  0  0  0
  -25.7640  -17.6789   16.1088 N   0  0  0  0  0  0  0  0  0  0  0  0
  -24.6680  -13.3617   16.8544 N   0  0  0  0  0  0  0  0  0  0  0  0
  -25.1571  -21.3480   21.0055 N   0  0  0  0  0  0  0  0  0  0  0  0
  -27.3309  -28.0390   20.2889 N   0  0  0  0  0  0  0  0  0  0  0  0
  -25.4953  -33.4777   23.9650 N   0  0  0  0  0  0  0  0  0  0  0  0
  -23.1827  -36.0737   22.9750 N   0  3  0  0  0  0  0  0  0  0  0  0
  -24.6817  -15.0352   15.2867 O   0  0  0  0  0  0  0  0  0  0  0  0
  -26.4024  -28.3602   22.4001 O   0  0  0  0  0  0  0  0  0  0  0  0
  -27.4543  -31.9764   22.5099 O   0  0  0  0  0  0  0  0  0  0  0  0
  -23.1768  -33.4367   23.9561 O   0  0  0  0  0  0  0  0  0  0  0  0
  -27.0392  -22.7035   20.9621 O   0  0  0  0  0  0  0  0  0  0  0  0
  -25.3885  -10.5555   21.6127 O   0  0  0  0  0  0  0  0  0  0  0  0
  -20.0069  -28.3118   20.7876 O   0  0  0  0  0  0  0  0  0  1  0  0
  -20.6063   -7.8399   21.2129 F   0  0  0  0  0  0  0  0  0  0  0  0
  -24.4737   -9.6466   19.1673 F   0  0  0  0  0  0  0  0  0  0  0  0
  1  2  1  0  0  0  0
  1  5  2  0  0  0  0
  2  6  2  0  0  0  0
  3  8  2  0  0  0  0
  3 15  1  0  0  0  0
  4  9  1  0  0  0  0
  4 15  2  0  0  0  0
  5 17  1  0  0  0  0
  6 19  1  0  0  0  0
  7 10  2  0  0  0  0
  7 18  1  0  0  0  0
  8 21  1  0  0  0  0
  9 21  2  0  0  0  0
 10 22  1  0  0  0  0
 11 12  2  0  0  0  0
 11 23  1  0  0  0  0
 12 24  1  0  0  0  0
 13 20  1  0  0  0  0
 13 22  2  0  0  0  0
 14 24  2  0  0  0  0
 14 25  1  0  0  0  0
 15 26  1  0  0  0  0
 16 26  1  0  0  0  0
 16 31  2  0  0  0  0
 16 33  1  0  0  0  0
 17 19  2  0  0  0  0
 17 38  1  0  0  0  0
 18 20  2  0  0  0  0
 18 39  1  0  0  0  0
 19 47  1  0  0  0  0
 20 40  1  0  0  0  0
 21 81  1  0  0  0  0
 22 82  1  0  0  0  0
 23 25  2  0  0  0  0
 23 81  1  0  0  0  0
 24 83  1  0  0  0  0
 25 84  1  0  0  0  0
 26 63  2  0  0  0  0
 27 29  2  0  0  0  0
 27 50  1  0  0  0  0
 27 65  1  0  0  0  0
 28 30  1  0  0  0  0
 28 51  1  0  0  0  0
 28 64  2  0  0  0  0
 29 64  1  0  0  0  0
 29 66  1  0  0  0  0
 30 65  2  0  0  0  0
 30 72  1  0  0  0  0
 31 67  1  0  0  0  0
 31 70  1  0  0  0  0
 32 57  1  0  0  0  0
 32 66  2  0  0  0  0
 33 71  1  0  0  0  0
 33 76  2  0  0  0  0
 34 48  1  0  0  0  0
 34 73  1  0  0  0  0
 34 77  2  0  0  0  0
 35 60  1  0  0  0  0
 35 68  1  0  0  0  0
 35 78  2  0  0  0  0
 36 61  1  0  0  0  0
 36 74  1  0  0  0  0
 36 79  2  0  0  0  0
 37 69  1  0  0  0  0
 37 72  1  0  0  0  0
 37 80  2  0  0  0  0
 38 41  1  0  0  0  0
 39 48  1  0  0  0  0
 40 68  1  0  0  0  0
 41 43  1  0  0  0  0
 42 44  1  0  0  0  0
 42 45  1  0  0  0  0
 43 47  1  0  0  0  0
 44 49  1  0  0  0  0
 45 69  1  0  0  0  0
 46 49  1  0  0  0  0
 46 69  1  0  0  0  0
 47 73  1  0  0  0  0
 48 68  1  0  0  0  0
 49 67  1  0  0  0  0
 52 61  1  0  0  0  0
 53 62  1  0  0  0  0
 54 62  1  0  0  0  0
 55 62  1  0  0  0  0
 56 75  1  0  0  0  0
 57 58  1  0  0  0  0
 58 59  1  0  0  0  0
 59 82  1  0  0  0  0
 60 62  1  0  0  0  0
 60 74  1  0  0  0  0
 61 75  1  0  0  0  0
 63 67  1  0  0  0  0
M  CHG  1  75   1
M  ISO  4  37 100  59 101  72 100  82 101
M  END
> <Batch ID>
0113

> <Smiles>
CNC(C)C(=O)NC(C(=O)N1Cc2cc([101O:1][101CH2:1]CC=CNc3nc(C)c([100NH:0][100C:0](=O)N4CCCC(n5nc(-c6ccc(Oc7ccc(F)cc7F)cc6)c(C(N)=O)c5N)C4)nc3C)ccc2CC1C(=O)NC1CCCc2ccccc21)C(C)(C)C

> <Shape>
0.304

> <Color>
0.086

> <Negative vol penalty>
0.000

$$$$

  -OEChem-04052301343D

 88 97  0     1  0  0  0  0  0999 V2000
  -28.9674  -23.5579   17.2039 C   0  0  0  0  0  0  0  0  0  0  0  0
  -27.7506  -23.7360   17.8544 C   0  0  0  0  0  0  0  0  0  0  0  0
  -28.0777  -18.5580   22.2412 C   0  0  0  0  0  0  0  0  0  0  0  0
  -26.2125  -17.1125   21.7229 C   0  0  0  0  0  0  0  0  0  0  0  0
  -30.1172  -24.1726   17.6980 C   0  0  0  0  0  0  0  0  0  0  0  0
  -27.6831  -24.5281   19.0000 C   0  0  0  0  0  0  0  0  0  0  0  0
  -23.7177  -27.6775   18.9532 C   0  0  0  0  0  0  0  0  0  0  0  0
  -28.9428  -17.4658   22.1741 C   0  0  0  0  0  0  0  0  0  0  0  0
  -27.0776  -16.0203   21.6558 C   0  0  0  0  0  0  0  0  0  0  0  0
  -22.4709  -27.1360   19.2629 C   0  0  0  0  0  0  0  0  0  0  0  0
  -29.2774  -14.7195   19.4446 C   0  0  0  0  0  0  0  0  0  0  0  0
  -29.1260  -13.8397   18.3730 C   0  0  0  0  0  0  0  0  0  0  0  0
  -19.5064  -21.3189   24.1410 C   0  0  0  0  0  0  0  0  0  0  0  0
  -22.6599  -27.9998   21.5072 C   0  0  0  0  0  0  0  0  0  0  0  0
  -28.6929  -12.0330   19.9175 C   0  0  0  0  0  0  0  0  0  0  0  0
  -18.1702  -20.4608   22.3704 C   0  0  0  0  0  0  0  0  0  0  0  0
  -26.7126  -18.3813   22.0157 C   0  0  0  0  0  0  0  0  0  0  0  0
  -19.6881  -20.0170   24.5941 C   0  0  0  0  0  0  0  0  0  0  0  0
  -25.4469  -20.3657   21.0319 C   0  0  0  0  0  0  0  0  0  0  0  0
  -30.0619  -24.9806   18.8446 C   0  0  0  0  0  0  0  0  0  0  0  0
  -24.4511  -28.3760   19.9230 C   0  0  0  0  0  0  0  0  0  0  0  0
  -28.8334  -25.1532   19.5106 C   0  0  0  0  0  0  0  0  0  0  0  0
  -23.9147  -28.5514   21.2066 C   0  0  0  0  0  0  0  0  0  0  0  0
  -18.7344  -21.5536   23.0086 C   0  0  0  0  0  0  0  0  0  0  0  0
  -28.4428  -16.1970   21.8814 C   0  0  0  0  0  0  0  0  0  0  0  0
  -21.9430  -27.2946   20.5409 C   0  0  0  0  0  0  0  0  0  0  0  0
  -29.1367  -14.2562   20.7528 C   0  0  0  0  0  0  0  0  0  0  0  0
  -28.8336  -12.4964   18.6094 C   0  0  0  0  0  0  0  0  0  0  0  0
  -28.8444  -12.9129   20.9892 C   0  0  0  0  0  0  0  0  0  0  0  0
  -25.8184  -19.5089   22.0854 C   0  0  0  0  0  0  0  0  0  0  0  0
  -19.0811  -18.9930   23.8851 C   0  0  0  0  0  0  0  0  0  0  0  0
  -24.5866  -21.2672   21.6096 C   0  0  0  0  0  0  0  0  0  0  0  0
  -20.4817  -16.9657   24.4718 C   0  0  0  0  0  0  0  0  0  0  0  0
  -19.5427  -24.8846   21.6662 C   0  0  0  0  0  0  0  0  0  0  0  0
  -20.6833  -25.4919   21.3372 C   0  0  0  0  0  0  0  0  0  1  0  0
  -19.6011  -23.5062   22.1881 C   0  0  0  0  0  0  0  0  0  0  0  0
  -20.4981  -19.7816   25.7815 C   0  0  0  0  0  0  0  0  0  0  0  0
  -25.8438  -20.3482   19.6543 C   0  0  0  0  0  0  0  0  0  0  0  0
  -21.1315  -20.9013   26.5153 C   0  0  0  0  0  0  0  0  0  0  0  0
  -27.2715  -27.9645   21.3299 C   0  0  0  0  0  0  0  0  0  0  0  0
  -26.6104  -30.8636   22.6262 C   0  0  0  0  0  0  0  0  0  0  0  0
  -24.2576  -33.1643   23.5307 C   0  0  0  0  0  0  0  0  0  0  0  0
  -31.3401  -25.5862   19.3682 C   0  0  0  0  0  0  0  0  0  0  0  0
  -25.7827  -28.9771   19.5653 C   0  0  0  0  0  0  0  0  0  0  0  0
  -24.6530  -29.3103   22.2777 C   0  0  0  0  0  0  0  0  0  0  0  0
  -20.1565  -15.5484   24.8858 C   0  0  0  0  0  0  0  0  0  0  0  0
  -31.1133  -26.7133   20.3724 C   0  0  0  0  0  0  0  0  0  0  0  0
  -18.7567  -15.6622   25.4555 C   0  0  0  0  0  0  0  0  0  0  0  0
  -23.6091  -23.3858   25.7767 C   0  0  0  0  0  0  0  0  0  0  0  0
  -30.0685  -26.3052   21.4062 C   0  0  0  0  0  0  0  0  0  0  0  0
  -24.4460  -22.7338   24.6766 C   0  0  0  0  0  0  0  0  0  0  0  0
  -18.1392  -16.7848   24.6482 C   0  0  0  0  0  0  0  0  0  0  0  0
  -23.1036  -22.3537   26.7795 C   0  0  0  0  0  0  0  0  0  0  0  0
  -23.1699  -20.5760   25.0521 C   0  0  0  0  0  0  0  0  0  0  0  0
  -28.7151  -26.0252   20.7417 C   0  0  1  0  0  0  0  0  0  0  0  0
  -26.6710  -29.2273   20.7801 C   0  0  1  0  0  0  0  0  0  0  0  0
  -23.6750  -21.5836   24.0047 C   0  0  2  0  0  0  0  0  0  0  0  0
  -24.0189  -35.4211   24.6019 C   0  0  0  0  0  0  0  0  0  0  0  0
  -27.1129  -29.6145   25.3643 C   0  0  0  0  0  0  0  0  0  0  0  0
  -25.9609  -31.5831   26.3965 C   0  0  0  0  0  0  0  0  0  0  0  0
  -28.0527  -31.9143   25.0785 C   0  0  0  0  0  0  0  0  0  0  0  0
  -23.0270  -34.3170   21.0985 C   0  0  0  0  0  0  0  0  0  0  0  0
  -25.9056  -31.3417   23.8727 C   0  0  1  0  0  0  0  0  0  0  0  0
  -24.1688  -34.6610   23.2932 C   0  0  2  0  0  0  0  0  0  0  0  0
  -26.7447  -31.0974   25.1586 C   0  0  0  0  0  0  0  0  0  0  0  0
  -18.3242  -19.1820   22.7809 N   0  0  0  0  0  0  0  0  0  0  0  0
  -25.2415  -19.8369   23.2446 N   0  0  0  0  0  0  0  0  0  0  0  0
  -20.7164  -18.5932   26.2734 N   0  0  0  0  0  0  0  0  0  0  0  0
  -18.5332  -22.8584   22.5267 N   0  0  0  0  0  0  0  0  0  0  0  0
  -24.4988  -20.9097   22.9229 N   0  0  0  0  0  0  0  0  0  0  0  0
  -19.2591  -17.6526   24.3390 N   0  0  0  0  0  0  0  0  0  0  0  0
  -22.4087  -21.2585   26.1060 N   0  0  0  0  0  0  0  0  0  0  0  0
  -25.9540  -29.8738   21.8810 N   0  0  0  0  0  0  0  0  0  0  0  0
  -23.9043  -22.3229   21.1173 N   0  0  0  0  0  0  0  0  0  0  0  0
  -26.7343  -19.3532   19.2282 N   0  0  0  0  0  0  0  0  0  0  0  0
  -28.0432  -27.2662   20.4209 N   0  0  0  0  0  0  0  0  0  0  0  0
  -25.5655  -32.7409   23.6380 N   0  0  0  0  0  0  0  0  0  0  0  0
  -22.9981  -34.9796   22.4279 N   0  3  0  0  0  0  0  0  0  0  0  0
  -21.6245  -17.3416   24.2549 O   0  0  0  0  0  0  0  0  0  0  0  0
  -25.4342  -21.1997   18.8294 O   0  0  0  0  0  0  0  0  0  0  0  0
  -20.4569  -21.3943   27.4097 O   0  0  0  0  0  0  0  0  0  0  0  0
  -27.0522  -27.6479   22.4933 O   0  0  0  0  0  0  0  0  0  0  0  0
  -27.6997  -31.3554   22.3210 O   0  0  0  0  0  0  0  0  0  0  0  0
  -23.2659  -32.4435   23.6165 O   0  0  0  0  0  0  0  0  0  0  0  0
  -29.2866  -15.1311   21.8156 O   0  0  0  0  0  0  0  0  0  0  0  0
  -20.7265  -26.7665   20.8460 O   0  0  0  0  0  0  0  0  0  1  0  0
  -28.6867  -11.6519   17.5801 F   0  0  0  0  0  0  0  0  0  0  0  0
  -28.7069  -12.4622   22.2437 F   0  0  0  0  0  0  0  0  0  0  0  0
  1  2  1  0  0  0  0
  1  5  2  0  0  0  0
  2  6  2  0  0  0  0
  3  8  2  0  0  0  0
  3 17  1  0  0  0  0
  4  9  1  0  0  0  0
  4 17  2  0  0  0  0
  5 20  1  0  0  0  0
  6 22  1  0  0  0  0
  7 10  2  0  0  0  0
  7 21  1  0  0  0  0
  8 25  1  0  0  0  0
  9 25  2  0  0  0  0
 10 26  1  0  0  0  0
 11 12  2  0  0  0  0
 11 27  1  0  0  0  0
 12 28  1  0  0  0  0
 13 18  1  0  0  0  0
 13 24  2  0  0  0  0
 14 23  1  0  0  0  0
 14 26  2  0  0  0  0
 15 28  2  0  0  0  0
 15 29  1  0  0  0  0
 16 24  1  0  0  0  0
 16 66  2  0  0  0  0
 17 30  1  0  0  0  0
 18 31  2  0  0  0  0
 18 37  1  0  0  0  0
 19 30  1  0  0  0  0
 19 32  2  0  0  0  0
 19 38  1  0  0  0  0
 20 22  2  0  0  0  0
 20 43  1  0  0  0  0
 21 23  2  0  0  0  0
 21 44  1  0  0  0  0
 22 55  1  0  0  0  0
 23 45  1  0  0  0  0
 24 69  1  0  0  0  0
 25 85  1  0  0  0  0
 26 86  1  0  0  0  0
 27 29  2  0  0  0  0
 27 85  1  0  0  0  0
 28 87  1  0  0  0  0
 29 88  1  0  0  0  0
 30 67  2  0  0  0  0
 31 66  1  0  0  0  0
 31 71  1  0  0  0  0
 32 70  1  0  0  0  0
 32 74  1  0  0  0  0
 33 46  1  0  0  0  0
 33 71  1  0  0  0  0
 33 79  2  0  0  0  0
 34 35  2  0  0  0  0
 34 36  1  0  0  0  0
 35 86  1  0  0  0  0
 36 69  2  0  0  0  0
 37 39  1  0  0  0  0
 37 68  2  0  0  0  0
 38 75  1  0  0  0  0
 38 80  2  0  0  0  0
 39 72  1  0  0  0  0
 39 81  2  0  0  0  0
 40 56  1  0  0  0  0
 40 76  1  0  0  0  0
 40 82  2  0  0  0  0
 41 63  1  0  0  0  0
 41 73  1  0  0  0  0
 41 83  2  0  0  0  0
 42 64  1  0  0  0  0
 42 77  1  0  0  0  0
 42 84  2  0  0  0  0
 43 47  1  0  0  0  0
 44 56  1  0  0  0  0
 45 73  1  0  0  0  0
 46 48  1  0  0  0  0
 47 50  1  0  0  0  0
 48 52  1  0  0  0  0
 49 51  1  0  0  0  0
 49 53  1  0  0  0  0
 50 55  1  0  0  0  0
 51 57  1  0  0  0  0
 52 71  1  0  0  0  0
 53 72  1  0  0  0  0
 54 57  1  0  0  0  0
 54 72  1  0  0  0  0
 55 76  1  0  0  0  0
 56 73  1  0  0  0  0
 57 70  1  0  0  0  0
 58 64  1  0  0  0  0
 59 65  1  0  0  0  0
 60 65  1  0  0  0  0
 61 65  1  0  0  0  0
 62 78  1  0  0  0  0
 63 65  1  0  0  0  0
 63 77  1  0  0  0  0
 64 78  1  0  0  0  0
 67 70  1  0  0  0  0
M  CHG  1  78   1
M  ISO  4  35 101  37 100  39 100  86 101
M  END
> <Batch ID>
0113

> <Smiles>
CNC(C)C(=O)NC(C(=O)N1Cc2cc([101O:1][101CH:1]=CC=Nc3cnc(N4CCCC4=O)c([100C:0](=N)[100C:0](=O)N4CCCC(n5nc(-c6ccc(Oc7ccc(F)cc7F)cc6)c(C(N)=O)c5N)C4)c3)ccc2CC1C(=O)NC1CCCc2ccccc21)C(C)(C)C

> <Shape>
0.223

> <Color>
0.051

> <Negative vol penalty>
0.000

$$$$

  -OEChem-04052301343D

 84 92  0     1  0  0  0  0  0999 V2000
  -28.5536  -33.7026   26.2354 C   0  0  0  0  0  0  0  0  0  0  0  0
  -28.6758  -32.5737   25.4315 C   0  0  0  0  0  0  0  0  0  0  0  0
  -25.2456  -10.8665   21.4539 C   0  0  0  0  0  0  0  0  0  0  0  0
  -25.1629  -12.1609   23.4922 C   0  0  0  0  0  0  0  0  0  0  0  0
  -27.3111  -34.0490   26.7646 C   0  0  0  0  0  0  0  0  0  0  0  0
  -27.5555  -31.7900   25.1573 C   0  0  0  0  0  0  0  0  0  0  0  0
  -27.2425  -30.4899   20.2729 C   0  0  0  0  0  0  0  0  0  0  0  0
  -27.8857  -19.9570   23.6603 C   0  0  0  0  0  0  0  0  0  0  0  0
  -27.6445  -21.1904   24.2654 C   0  0  0  0  0  0  0  0  0  0  0  0
  -25.3791   -9.6969   22.2020 C   0  0  0  0  0  0  0  0  0  0  0  0
  -25.2964  -10.9913   24.2404 C   0  0  0  0  0  0  0  0  0  0  0  0
  -28.0659  -29.4532   19.8360 C   0  0  0  0  0  0  0  0  0  0  0  0
  -23.3196   -8.4430   25.2501 C   0  0  0  0  0  0  0  0  0  0  0  0
  -22.4815   -8.2820   26.3534 C   0  0  0  0  0  0  0  0  0  0  0  0
  -26.2062  -27.9235   19.9803 C   0  0  0  0  0  0  0  0  0  0  0  0
  -28.6330  -21.0850   21.6588 C   0  0  0  0  0  0  0  0  0  0  0  0
  -24.4118   -8.1499   27.8004 C   0  0  0  0  0  0  0  0  0  0  0  0
  -25.1375  -12.0986   22.0990 C   0  0  0  0  0  0  0  0  0  0  0  0
  -23.8027  -13.9093   20.8960 C   0  0  0  0  0  0  0  0  0  0  0  0
  -26.1732  -33.2745   26.4888 C   0  0  0  0  0  0  0  0  0  0  0  0
  -25.8952  -30.2486   20.5778 C   0  0  0  0  0  0  0  0  0  0  0  0
  -26.2969  -32.1256   25.6844 C   0  0  0  0  0  0  0  0  0  0  0  0
  -25.3672  -28.9595   20.4185 C   0  0  0  0  0  0  0  0  0  0  0  0
  -28.3800  -19.9043   22.3570 C   0  0  0  0  0  0  0  0  0  0  0  0
  -27.8974  -22.3711   23.5672 C   0  0  0  0  0  0  0  0  0  0  0  0
  -28.3917  -22.3185   22.2639 C   0  0  0  0  0  0  0  0  0  0  0  0
  -25.4045   -9.7592   23.5953 C   0  0  0  0  0  0  0  0  0  0  0  0
  -27.5485  -28.1691   19.6924 C   0  0  0  0  0  0  0  0  0  0  0  0
  -24.7038   -8.4574   25.4219 C   0  0  0  0  0  0  0  0  0  0  0  0
  -23.0276   -8.1355   27.6285 C   0  0  0  0  0  0  0  0  0  0  0  0
  -25.2499   -8.3109   26.6970 C   0  0  0  0  0  0  0  0  0  0  0  0
  -25.0001  -13.3072   21.3267 C   0  0  0  0  0  0  0  0  0  0  0  0
  -24.2086  -15.0248   20.2050 C   0  0  0  0  0  0  0  0  0  0  0  0
  -22.4451  -13.4971   21.1021 C   0  0  0  0  0  0  0  0  0  0  0  0
  -29.2992  -25.0178   19.8043 C   0  0  0  0  0  0  0  0  0  0  0  0
  -29.1434  -23.5928   20.2505 C   0  0  0  0  0  0  0  0  0  0  0  0
  -24.1112  -30.4842   23.1981 C   0  0  0  0  0  0  0  0  0  0  0  0
  -21.7005  -29.7645   21.1505 C   0  0  0  0  0  0  0  0  0  0  0  0
  -20.7278  -28.3339   18.2087 C   0  0  0  0  0  0  0  0  0  0  0  0
  -29.1178  -18.4220   20.4584 C   0  0  0  0  0  0  0  0  0  0  0  0
  -24.8604  -33.6621   27.1220 C   0  0  0  0  0  0  0  0  0  0  0  0
  -25.0136  -31.3833   21.0224 C   0  0  0  0  0  0  0  0  0  0  0  0
  -23.9224  -28.6523   20.7132 C   0  0  0  0  0  0  0  0  0  0  0  0
  -23.6512  -32.9896   26.4773 C   0  0  0  0  0  0  0  0  0  0  0  0
  -27.8683  -16.6948   17.6066 C   0  0  0  0  0  0  0  0  0  0  0  0
  -23.9103  -31.4991   26.2822 C   0  0  0  0  0  0  0  0  0  0  0  0
  -26.8775  -15.6890   18.1972 C   0  0  0  0  0  0  0  0  0  0  0  0
  -29.0882  -16.8845   18.5064 C   0  0  0  0  0  0  0  0  0  0  0  0
  -27.7925  -16.2179   20.4929 C   0  0  0  0  0  0  0  0  0  0  0  0
  -25.1002  -31.2641   25.3439 C   0  0  1  0  0  0  0  0  0  0  0  0
  -23.7846  -30.9170   21.7968 C   0  0  1  0  0  0  0  0  0  0  0  0
  -26.5165  -16.0422   19.6534 C   0  0  2  0  0  0  0  0  0  0  0  0
  -18.6870  -27.8680   16.8248 C   0  0  0  0  0  0  0  0  0  0  0  0
  -20.9382  -27.4956   23.0428 C   0  0  0  0  0  0  0  0  0  0  0  0
  -19.5601  -26.5132   21.1979 C   0  0  0  0  0  0  0  0  0  0  0  0
  -18.9999  -28.7681   22.1057 C   0  0  0  0  0  0  0  0  0  0  0  0
  -21.7503  -29.9473   15.9480 C   0  0  0  0  0  0  0  0  0  0  0  0
  -28.0406  -25.8428   19.7335 C   0  0  0  0  0  0  0  0  0  1  0  0
  -21.0571  -28.4890   20.6627 C   0  0  1  0  0  0  0  0  0  0  0  0
  -19.8288  -28.8359   17.0933 C   0  0  2  0  0  0  0  0  0  0  0  0
  -20.1666  -27.8215   21.7485 C   0  0  0  0  0  0  0  0  0  0  0  0
  -26.0853  -13.9840   20.9415 N   0  0  0  0  0  0  0  0  0  0  0  0
  -25.5713  -15.0230   20.2614 N   0  0  0  0  0  0  0  0  0  0  0  0
  -23.1023  -29.7938   21.1510 N   0  0  0  0  0  0  0  0  0  0  0  0
  -28.6692  -17.2212   19.8687 N   0  0  0  0  0  0  0  0  0  0  0  0
  -27.6436  -23.6094   24.1988 N   0  0  0  0  0  0  0  0  0  0  0  0
  -23.5291  -15.9973   19.5608 N   0  0  0  0  0  0  0  0  0  0  0  0
  -22.2061  -12.3265   21.8348 N   0  0  0  0  0  0  0  0  0  0  0  0
  -28.6564  -23.5024   21.5366 N   0  0  0  0  0  0  0  0  0  0  0  0
  -28.6280  -18.6512   21.7438 N   0  0  0  0  0  0  0  0  0  0  0  0
  -24.7054  -31.4671   23.9664 N   0  0  0  0  0  0  0  0  0  0  0  0
  -20.3464  -28.8334   19.4360 N   0  0  0  0  0  0  0  0  0  0  0  0
  -20.6091  -29.0029   15.8346 N   0  3  0  0  0  0  0  0  0  0  0  0
  -21.4732  -14.1387   20.6358 O   0  0  0  0  0  0  0  0  0  0  0  0
  -30.4226  -25.3996   19.5131 O   0  0  0  0  0  0  0  0  0  0  0  0
  -29.4808  -22.7314   19.4555 O   0  0  0  0  0  0  0  0  0  0  0  0
  -23.8427  -29.3434   23.5562 O   0  0  0  0  0  0  0  0  0  0  0  0
  -20.9856  -30.7030   21.5108 O   0  0  0  0  0  0  0  0  0  0  0  0
  -21.6716  -27.5717   18.0115 O   0  0  0  0  0  0  0  0  0  0  0  0
  -29.8584  -19.2035   19.8562 O   0  0  0  0  0  0  0  0  0  0  0  0
  -25.5345   -8.6181   24.3256 O   0  0  0  0  0  0  0  0  0  0  0  0
  -28.3501  -27.1552   19.2666 O   0  0  0  0  0  0  0  0  0  1  0  0
  -22.2226   -7.9825   28.6881 F   0  0  0  0  0  0  0  0  0  0  0  0
  -26.5789   -8.3251   26.8685 F   0  0  0  0  0  0  0  0  0  0  0  0
  1  2  1  0  0  0  0
  1  5  2  0  0  0  0
  2  6  2  0  0  0  0
  3 10  2  0  0  0  0
  3 18  1  0  0  0  0
  4 11  1  0  0  0  0
  4 18  2  0  0  0  0
  5 20  1  0  0  0  0
  6 22  1  0  0  0  0
  7 12  2  0  0  0  0
  7 21  1  0  0  0  0
  8  9  2  0  0  0  0
  8 24  1  0  0  0  0
  9 25  1  0  0  0  0
 10 27  1  0  0  0  0
 11 27  2  0  0  0  0
 12 28  1  0  0  0  0
 13 14  2  0  0  0  0
 13 29  1  0  0  0  0
 14 30  1  0  0  0  0
 15 23  1  0  0  0  0
 15 28  2  0  0  0  0
 16 24  2  0  0  0  0
 16 26  1  0  0  0  0
 17 30  2  0  0  0  0
 17 31  1  0  0  0  0
 18 32  1  0  0  0  0
 19 32  1  0  0  0  0
 19 33  2  0  0  0  0
 19 34  1  0  0  0  0
 20 22  2  0  0  0  0
 20 41  1  0  0  0  0
 21 23  2  0  0  0  0
 21 42  1  0  0  0  0
 22 50  1  0  0  0  0
 23 43  1  0  0  0  0
 24 70  1  0  0  0  0
 25 26  2  0  0  0  0
 25 66  1  0  0  0  0
 26 69  1  0  0  0  0
 27 81  1  0  0  0  0
 28 82  1  0  0  0  0
 29 31  2  0  0  0  0
 29 81  1  0  0  0  0
 30 83  1  0  0  0  0
 31 84  1  0  0  0  0
 32 62  2  0  0  0  0
 33 63  1  0  0  0  0
 33 67  1  0  0  0  0
 34 68  1  0  0  0  0
 34 74  2  0  0  0  0
 35 36  1  0  0  0  0
 35 58  1  0  0  0  0
 35 75  2  0  0  0  0
 36 69  1  0  0  0  0
 36 76  2  0  0  0  0
 37 51  1  0  0  0  0
 37 71  1  0  0  0  0
 37 77  2  0  0  0  0
 38 59  1  0  0  0  0
 38 64  1  0  0  0  0
 38 78  2  0  0  0  0
 39 60  1  0  0  0  0
 39 72  1  0  0  0  0
 39 79  2  0  0  0  0
 40 65  1  0  0  0  0
 40 70  1  0  0  0  0
 40 80  2  0  0  0  0
 41 44  1  0  0  0  0
 42 51  1  0  0  0  0
 43 64  1  0  0  0  0
 44 46  1  0  0  0  0
 45 47  1  0  0  0  0
 45 48  1  0  0  0  0
 46 50  1  0  0  0  0
 47 52  1  0  0  0  0
 48 65  1  0  0  0  0
 49 52  1  0  0  0  0
 49 65  1  0  0  0  0
 50 71  1  0  0  0  0
 51 64  1  0  0  0  0
 52 63  1  0  0  0  0
 53 60  1  0  0  0  0
 54 61  1  0  0  0  0
 55 61  1  0  0  0  0
 56 61  1  0  0  0  0
 57 73  1  0  0  0  0
 58 82  1  0  0  0  0
 59 61  1  0  0  0  0
 59 72  1  0  0  0  0
 60 73  1  0  0  0  0
 62 63  1  0  0  0  0
M  CHG  1  73   1
M  ISO  4  40 100  58 101  70 100  82 101
M  END
> <Batch ID>
0113

> <Smiles>
CNC(C)C(=O)NC(C(=O)N1Cc2cc([101O:1][101CH2:1]C(=O)C(=O)Nc3cc([100NH:0][100C:0](=O)N4CCCC(n5nc(-c6ccc(Oc7ccc(F)cc7F)cc6)c(C(N)=O)c5N)C4)ccc3N)ccc2CC1C(=O)NC1CCCc2ccccc21)C(C)(C)C

> <Shape>
0.279

> <Color>
0.098

> <Negative vol penalty>
0.000

$$$$

  -OEChem-04052301343D

 84 92  0     1  0  0  0  0  0999 V2000
  -29.0250  -30.9116   23.6702 C   0  0  0  0  0  0  0  0  0  0  0  0
  -29.2488  -29.5386   23.6800 C   0  0  0  0  0  0  0  0  0  0  0  0
  -22.7119  -24.1817   19.2830 C   0  0  0  0  0  0  0  0  0  0  0  0
  -21.1248  -23.1820   20.8057 C   0  0  0  0  0  0  0  0  0  0  0  0
  -28.1271  -31.4639   22.7577 C   0  0  0  0  0  0  0  0  0  0  0  0
  -28.5738  -28.7169   22.7779 C   0  0  0  0  0  0  0  0  0  0  0  0
  -30.7212  -23.6448   20.1005 C   0  0  0  0  0  0  0  0  0  0  0  0
  -21.9822  -25.3703   19.3027 C   0  0  0  0  0  0  0  0  0  0  0  0
  -20.3951  -24.3706   20.8254 C   0  0  0  0  0  0  0  0  0  0  0  0
  -30.5612  -22.2908   20.3917 C   0  0  0  0  0  0  0  0  0  0  0  0
  -18.3118  -27.2582   21.5599 C   0  0  0  0  0  0  0  0  0  0  0  0
  -17.8715  -27.7293   22.7967 C   0  0  0  0  0  0  0  0  0  0  0  0
  -28.7688  -22.1627   18.7823 C   0  0  0  0  0  0  0  0  0  0  0  0
  -25.3104  -14.9610   21.8936 C   0  0  0  0  0  0  0  0  0  0  0  0
  -20.1601  -27.8672   23.5587 C   0  0  0  0  0  0  0  0  0  0  0  0
  -22.2832  -23.0875   20.0344 C   0  0  0  0  0  0  0  0  0  0  0  0
  -24.0901  -21.4938   20.8729 C   0  0  0  0  0  0  0  0  0  0  0  0
  -27.4481  -30.6497   21.8376 C   0  0  0  0  0  0  0  0  0  0  0  0
  -29.8976  -24.2716   19.1543 C   0  0  0  0  0  0  0  0  0  0  0  0
  -27.6650  -29.2587   21.8532 C   0  0  0  0  0  0  0  0  0  0  0  0
  -28.9221  -23.5242   18.4791 C   0  0  0  0  0  0  0  0  0  0  0  0
  -26.7055  -15.1141   21.7113 C   0  0  0  0  0  0  0  0  0  0  0  0
  -20.8238  -25.4647   20.0740 C   0  0  0  0  0  0  0  0  0  0  0  0
  -29.5829  -21.5502   19.7347 C   0  0  0  0  0  0  0  0  0  0  0  0
  -19.6762  -27.0915   21.3224 C   0  0  0  0  0  0  0  0  0  0  0  0
  -18.7957  -28.0339   23.7962 C   0  0  0  0  0  0  0  0  0  0  0  0
  -20.6003  -27.3961   22.3218 C   0  0  0  0  0  0  0  0  0  0  0  0
  -23.0362  -21.8592   20.0140 C   0  0  0  0  0  0  0  0  0  0  0  0
  -24.7491  -15.0529   20.6413 C   0  0  0  0  0  0  0  0  0  0  0  0
  -24.4648  -20.2439   20.4441 C   0  0  0  0  0  0  0  0  0  0  0  0
  -26.8973  -15.2884   20.3604 C   0  0  0  0  0  0  0  0  0  0  0  0
  -24.6777  -22.2193   21.9610 C   0  0  0  0  0  0  0  0  0  0  0  0
  -23.3962  -14.9754   20.2067 C   0  0  0  0  0  0  0  0  0  0  0  0
  -23.0121  -15.1040   18.7822 C   0  0  0  0  0  0  0  0  0  0  0  0
  -27.7904  -26.6498   19.2396 C   0  0  0  0  0  0  0  0  0  0  0  0
  -29.5016  -17.9872   19.0999 C   0  0  0  0  0  0  0  0  0  0  0  0
  -27.7571  -26.2165   16.0250 C   0  0  0  0  0  0  0  0  0  0  0  0
  -28.2904  -24.1307   13.3770 C   0  0  0  0  0  0  0  0  0  0  0  0
  -26.4515  -31.2868   20.9018 C   0  0  0  0  0  0  0  0  0  0  0  0
  -30.1008  -25.7267   18.8322 C   0  0  0  0  0  0  0  0  0  0  0  0
  -28.0257  -24.1452   17.4401 C   0  0  0  0  0  0  0  0  0  0  0  0
  -26.0580  -30.3915   19.7297 C   0  0  0  0  0  0  0  0  0  0  0  0
  -23.2193  -17.6673   16.2835 C   0  0  0  0  0  0  0  0  0  0  0  0
  -25.7431  -28.9809   20.2176 C   0  0  0  0  0  0  0  0  0  0  0  0
  -23.2371  -18.9577   17.1022 C   0  0  0  0  0  0  0  0  0  0  0  0
  -22.3495  -16.6008   16.9413 C   0  0  0  0  0  0  0  0  0  0  0  0
  -22.7513  -17.5890   19.1797 C   0  0  0  0  0  0  0  0  0  0  0  0
  -26.9706  -28.3373   20.8739 C   0  0  1  0  0  0  0  0  0  0  0  0
  -28.8648  -26.3822   18.2239 C   0  0  1  0  0  0  0  0  0  0  0  0
  -23.6419  -18.6806   18.5610 C   0  0  2  0  0  0  0  0  0  0  0  0
  -28.1406  -24.0477   10.8734 C   0  0  0  0  0  0  0  0  0  0  0  0
  -24.7233  -25.9535   16.2176 C   0  0  0  0  0  0  0  0  0  0  0  0
  -24.7345  -24.9493   13.9242 C   0  0  0  0  0  0  0  0  0  0  0  0
  -25.5327  -27.2882   14.2637 C   0  0  0  0  0  0  0  0  0  0  0  0
  -31.1916  -23.6133   13.1047 C   0  0  0  0  0  0  0  0  0  0  0  0
  -29.0714  -17.0037   18.0215 C   0  0  0  0  0  0  0  0  0  0  0  0
  -28.9468  -19.3919   18.9646 C   0  0  0  0  0  0  0  0  0  1  0  0
  -27.8019  -16.2448   18.3797 C   0  0  0  0  0  0  0  0  0  0  0  0
  -26.9591  -25.3626   15.0695 C   0  0  1  0  0  0  0  0  0  0  0  0
  -29.0352  -24.3327   12.0698 C   0  0  2  0  0  0  0  0  0  0  0  0
  -25.5029  -25.8769   14.8897 C   0  0  0  0  0  0  0  0  0  0  0  0
  -22.7594  -20.9177   19.1080 N   0  0  0  0  0  0  0  0  0  0  0  0
  -22.3625  -14.7827   21.0099 N   0  0  0  0  0  0  0  0  0  0  0  0
  -23.6448  -19.9483   19.3951 N   0  0  0  0  0  0  0  0  0  0  0  0
  -22.7366  -16.3884   18.3345 N   0  0  0  0  0  0  0  0  0  0  0  0
  -28.2590  -25.5725   17.1648 N   0  0  0  0  0  0  0  0  0  0  0  0
  -27.6562  -15.0935   22.6669 N   0  0  0  0  0  0  0  0  0  0  0  0
  -25.4125  -19.3799   20.8658 N   0  0  0  0  0  0  0  0  0  0  0  0
  -24.1721  -23.4901   22.2672 N   0  0  0  0  0  0  0  0  0  0  0  0
  -27.9003  -27.8772   19.8647 N   0  0  0  0  0  0  0  0  0  0  0  0
  -27.7297  -25.3054   13.8321 N   0  0  0  0  0  0  0  0  0  0  0  0
  -30.2156  -23.4255   12.0006 N   0  3  0  0  0  0  0  0  0  0  0  0
  -25.6340  -21.7613   22.6312 O   0  0  0  0  0  0  0  0  0  0  0  0
  -22.9781  -14.0572   18.1486 O   0  0  0  0  0  0  0  0  0  0  0  0
  -26.9249  -25.8058   19.4402 O   0  0  0  0  0  0  0  0  0  0  0  0
  -30.2478  -17.6725   20.0256 O   0  0  0  0  0  0  0  0  0  0  0  0
  -27.9347  -27.4094   15.7659 O   0  0  0  0  0  0  0  0  0  0  0  0
  -28.2106  -23.0393   13.9365 O   0  0  0  0  0  0  0  0  0  0  0  0
  -25.7097  -15.2524   19.7011 O   0  0  0  0  0  0  0  0  0  0  0  0
  -20.1117  -26.6245   20.0937 O   0  0  0  0  0  0  0  0  0  0  0  0
  -29.4242  -20.2286   20.0174 O   0  0  0  0  0  0  0  0  0  1  0  0
  -27.9962  -15.4841   19.5657 O   0  0  0  0  0  0  0  0  0  0  0  0
  -18.3729  -28.4877   24.9833 F   0  0  0  0  0  0  0  0  0  0  0  0
  -21.9124  -27.2391   22.0992 F   0  0  0  0  0  0  0  0  0  0  0  0
  1  2  1  0  0  0  0
  1  5  2  0  0  0  0
  2  6  2  0  0  0  0
  3  8  2  0  0  0  0
  3 16  1  0  0  0  0
  4  9  1  0  0  0  0
  4 16  2  0  0  0  0
  5 18  1  0  0  0  0
  6 20  1  0  0  0  0
  7 10  2  0  0  0  0
  7 19  1  0  0  0  0
  8 23  1  0  0  0  0
  9 23  2  0  0  0  0
 10 24  1  0  0  0  0
 11 12  2  0  0  0  0
 11 25  1  0  0  0  0
 12 26  1  0  0  0  0
 13 21  1  0  0  0  0
 13 24  2  0  0  0  0
 14 22  1  0  0  0  0
 14 29  2  0  0  0  0
 15 26  2  0  0  0  0
 15 27  1  0  0  0  0
 16 28  1  0  0  0  0
 17 28  1  0  0  0  0
 17 30  2  0  0  0  0
 17 32  1  0  0  0  0
 18 20  2  0  0  0  0
 18 39  1  0  0  0  0
 19 21  2  0  0  0  0
 19 40  1  0  0  0  0
 20 48  1  0  0  0  0
 21 41  1  0  0  0  0
 22 31  2  0  0  0  0
 22 67  1  0  0  0  0
 23 80  1  0  0  0  0
 24 81  1  0  0  0  0
 25 27  2  0  0  0  0
 25 80  1  0  0  0  0
 26 83  1  0  0  0  0
 27 84  1  0  0  0  0
 28 62  2  0  0  0  0
 29 33  1  0  0  0  0
 29 79  1  0  0  0  0
 30 64  1  0  0  0  0
 30 68  1  0  0  0  0
 31 79  1  0  0  0  0
 31 82  1  0  0  0  0
 32 69  1  0  0  0  0
 32 73  2  0  0  0  0
 33 34  1  0  0  0  0
 33 63  2  0  0  0  0
 34 65  1  0  0  0  0
 34 74  2  0  0  0  0
 35 49  1  0  0  0  0
 35 70  1  0  0  0  0
 35 75  2  0  0  0  0
 36 56  1  0  0  0  0
 36 57  1  0  0  0  0
 36 76  2  0  0  0  0
 37 59  1  0  0  0  0
 37 66  1  0  0  0  0
 37 77  2  0  0  0  0
 38 60  1  0  0  0  0
 38 71  1  0  0  0  0
 38 78  2  0  0  0  0
 39 42  1  0  0  0  0
 40 49  1  0  0  0  0
 41 66  1  0  0  0  0
 42 44  1  0  0  0  0
 43 45  1  0  0  0  0
 43 46  1  0  0  0  0
 44 48  1  0  0  0  0
 45 50  1  0  0  0  0
 46 65  1  0  0  0  0
 47 50  1  0  0  0  0
 47 65  1  0  0  0  0
 48 70  1  0  0  0  0
 49 66  1  0  0  0  0
 50 64  1  0  0  0  0
 51 60  1  0  0  0  0
 52 61  1  0  0  0  0
 53 61  1  0  0  0  0
 54 61  1  0  0  0  0
 55 72  1  0  0  0  0
 56 58  1  0  0  0  0
 57 81  1  0  0  0  0
 58 82  1  0  0  0  0
 59 61  1  0  0  0  0
 59 71  1  0  0  0  0
 60 72  1  0  0  0  0
 62 64  1  0  0  0  0
M  CHG  1  72   1
M  ISO  4  33 100  34 100  57 101  81 101
M  END
> <Batch ID>
0113

> <Smiles>
CNC(C)C(=O)NC(C(=O)N1Cc2cc([101O:1][101CH2:1]C(=O)CCOc3oc([100C:0](=N)[100C:0](=O)N4CCCC(n5nc(-c6ccc(Oc7ccc(F)cc7F)cc6)c(C(N)=O)c5N)C4)cc3N)ccc2CC1C(=O)NC1CCCc2ccccc21)C(C)(C)C

> <Shape>
0.191

> <Color>
0.079

> <Negative vol penalty>
0.000

$$$$

  -OEChem-04052301343D

 79 87  0     1  0  0  0  0  0999 V2000
  -27.3407  -37.7962   21.8170 C   0  0  0  0  0  0  0  0  0  0  0  0
  -27.8616  -36.7436   21.0714 C   0  0  0  0  0  0  0  0  0  0  0  0
  -23.0185  -10.1111   22.9351 C   0  0  0  0  0  0  0  0  0  0  0  0
  -23.5806  -10.1305   20.5855 C   0  0  0  0  0  0  0  0  0  0  0  0
  -26.6293  -37.5350   22.9873 C   0  0  0  0  0  0  0  0  0  0  0  0
  -27.6724  -35.4290   21.4963 C   0  0  0  0  0  0  0  0  0  0  0  0
  -26.7619  -28.8061   18.9224 C   0  0  0  0  0  0  0  0  0  0  0  0
  -22.3349   -8.9077   22.7616 C   0  0  0  0  0  0  0  0  0  0  0  0
  -22.8971   -8.9271   20.4120 C   0  0  0  0  0  0  0  0  0  0  0  0
  -27.2863  -27.5204   19.0475 C   0  0  0  0  0  0  0  0  0  0  0  0
  -23.1021   -5.6287   22.4574 C   0  0  0  0  0  0  0  0  0  0  0  0
  -23.3165   -4.6202   23.3967 C   0  0  0  0  0  0  0  0  0  0  0  0
  -29.4147  -20.0063   19.1232 C   0  0  0  0  0  0  0  0  0  0  0  0
  -28.7953  -18.7625   19.3928 C   0  0  0  0  0  0  0  0  0  0  0  0
  -25.9728  -27.1854   21.0429 C   0  0  0  0  0  0  0  0  0  0  0  0
  -20.9647   -4.6350   23.9495 C   0  0  0  0  0  0  0  0  0  0  0  0
  -23.6413  -10.7226   21.8470 C   0  0  0  0  0  0  0  0  0  0  0  0
  -25.7062  -12.1328   22.3518 C   0  0  0  0  0  0  0  0  0  0  0  0
  -26.4229  -36.2161   23.4216 C   0  0  0  0  0  0  0  0  0  0  0  0
  -25.8457  -29.2959   19.8642 C   0  0  0  0  0  0  0  0  0  0  0  0
  -26.9587  -35.1499   22.6742 C   0  0  0  0  0  0  0  0  0  0  0  0
  -25.4363  -28.4767   20.9260 C   0  0  0  0  0  0  0  0  0  0  0  0
  -22.2743   -8.3156   21.5001 C   0  0  0  0  0  0  0  0  0  0  0  0
  -26.8940  -26.7109   20.1094 C   0  0  0  0  0  0  0  0  0  0  0  0
  -21.8190   -6.1405   22.2641 C   0  0  0  0  0  0  0  0  0  0  0  0
  -22.2478   -4.1233   24.1428 C   0  0  0  0  0  0  0  0  0  0  0  0
  -20.7503   -5.6436   23.0102 C   0  0  0  0  0  0  0  0  0  0  0  0
  -24.3470  -11.9660   22.0254 C   0  0  0  0  0  0  0  0  0  0  0  0
  -28.4352  -20.9606   19.2706 C   0  0  0  0  0  0  0  0  0  0  0  0
  -25.8822  -13.4940   22.4043 C   0  0  0  0  0  0  0  0  0  0  0  0
  -27.4815  -19.0455   19.6859 C   0  0  0  0  0  0  0  0  0  0  0  0
  -28.5741  -22.4163   19.0975 C   0  0  0  0  0  0  0  0  0  0  0  0
  -27.5818  -23.3100   19.2309 C   0  0  0  0  0  0  0  0  0  0  0  0
  -26.7192  -11.1456   22.5864 C   0  0  0  0  0  0  0  0  0  0  0  0
  -25.8272  -31.7122   21.9294 C   0  0  0  0  0  0  0  0  0  0  0  0
  -22.7582  -30.7740   22.4020 C   0  0  0  0  0  0  0  0  0  0  0  0
  -20.4340  -28.2801   22.2438 C   0  0  0  0  0  0  0  0  0  0  0  0
  -25.0843  -18.5927   20.3141 C   0  0  0  0  0  0  0  0  0  0  0  0
  -25.6880  -35.9854   24.7183 C   0  0  0  0  0  0  0  0  0  0  0  0
  -25.2689  -30.6753   19.7002 C   0  0  0  0  0  0  0  0  0  0  0  0
  -24.4401  -28.9479   21.9527 C   0  0  0  0  0  0  0  0  0  0  0  0
  -25.2104  -34.5470   24.9001 C   0  0  0  0  0  0  0  0  0  0  0  0
  -22.4971  -17.2571   22.3634 C   0  0  0  0  0  0  0  0  0  0  0  0
  -26.3267  -33.5663   24.5552 C   0  0  0  0  0  0  0  0  0  0  0  0
  -22.8596  -15.7752   22.4850 C   0  0  0  0  0  0  0  0  0  0  0  0
  -22.8212  -17.8082   20.9759 C   0  0  0  0  0  0  0  0  0  0  0  0
  -24.5614  -16.0961   20.6444 C   0  0  0  0  0  0  0  0  0  0  0  0
  -26.7532  -33.7092   23.0893 C   0  0  1  0  0  0  0  0  0  0  0  0
  -24.7335  -31.2581   21.0045 C   0  0  1  0  0  0  0  0  0  0  0  0
  -24.3132  -15.5126   22.0450 C   0  0  2  0  0  0  0  0  0  0  0  0
  -18.0193  -27.8037   22.7335 C   0  0  0  0  0  0  0  0  0  0  0  0
  -23.3945  -30.6253   25.3825 C   0  0  0  0  0  0  0  0  0  0  0  0
  -21.3123  -29.2690   25.6882 C   0  0  0  0  0  0  0  0  0  0  0  0
  -21.1605  -31.6102   24.8405 C   0  0  0  0  0  0  0  0  0  0  0  0
  -19.8634  -27.6494   19.4091 C   0  0  0  0  0  0  0  0  0  0  0  0
  -27.7685  -24.7799   19.0312 C   0  0  0  0  0  0  0  0  0  1  0  0
  -22.0683  -29.8003   23.3266 C   0  0  1  0  0  0  0  0  0  0  0  0
  -19.0236  -28.2517   21.6830 C   0  0  2  0  0  0  0  0  0  0  0  0
  -22.0041  -30.3177   24.7914 C   0  0  0  0  0  0  0  0  0  0  0  0
  -23.7050  -13.1284   21.8809 N   0  0  0  0  0  0  0  0  0  0  0  0
  -24.6651  -14.0385   22.1177 N   0  0  0  0  0  0  0  0  0  0  0  0
  -23.9095  -30.3065   21.7525 N   0  0  0  0  0  0  0  0  0  0  0  0
  -24.2157  -17.5262   20.6285 N   0  0  0  0  0  0  0  0  0  0  0  0
  -26.9578  -14.2662   22.6673 N   0  0  0  0  0  0  0  0  0  0  0  0
  -26.3677   -9.7921   22.4919 N   0  0  0  0  0  0  0  0  0  0  0  0
  -26.3940  -18.2058   20.0319 N   0  0  0  0  0  0  0  0  0  0  0  0
  -25.7946  -33.0631   22.2186 N   0  0  0  0  0  0  0  0  0  0  0  0
  -20.7645  -29.5266   22.7319 N   0  0  0  0  0  0  0  0  0  0  0  0
  -18.9445  -27.3142   20.5272 N   0  3  0  0  0  0  0  0  0  0  0  0
  -27.8971  -11.4544   22.8876 O   0  0  0  0  0  0  0  0  0  0  0  0
  -26.6395  -30.8972   22.3506 O   0  0  0  0  0  0  0  0  0  0  0  0
  -22.2888  -31.9054   22.2558 O   0  0  0  0  0  0  0  0  0  0  0  0
  -21.1677  -27.2941   22.2517 O   0  0  0  0  0  0  0  0  0  0  0  0
  -24.7016  -19.7655   20.3230 O   0  0  0  0  0  0  0  0  0  0  0  0
  -27.2539  -20.3833   19.6137 O   0  0  0  0  0  0  0  0  0  0  0  0
  -21.6076   -7.1412   21.3305 O   0  0  0  0  0  0  0  0  0  0  0  0
  -27.4048  -25.4557   20.2343 O   0  0  0  0  0  0  0  0  0  1  0  0
  -22.4536   -3.1537   25.0438 F   0  0  0  0  0  0  0  0  0  0  0  0
  -19.5151   -6.1305   22.8281 F   0  0  0  0  0  0  0  0  0  0  0  0
  1  2  1  0  0  0  0
  1  5  2  0  0  0  0
  2  6  2  0  0  0  0
  3  8  2  0  0  0  0
  3 17  1  0  0  0  0
  4  9  1  0  0  0  0
  4 17  2  0  0  0  0
  5 19  1  0  0  0  0
  6 21  1  0  0  0  0
  7 10  2  0  0  0  0
  7 20  1  0  0  0  0
  8 23  1  0  0  0  0
  9 23  2  0  0  0  0
 10 24  1  0  0  0  0
 11 12  2  0  0  0  0
 11 25  1  0  0  0  0
 12 26  1  0  0  0  0
 13 14  1  0  0  0  0
 13 29  2  0  0  0  0
 14 31  2  0  0  0  0
 15 22  1  0  0  0  0
 15 24  2  0  0  0  0
 16 26  2  0  0  0  0
 16 27  1  0  0  0  0
 17 28  1  0  0  0  0
 18 28  1  0  0  0  0
 18 30  2  0  0  0  0
 18 34  1  0  0  0  0
 19 21  2  0  0  0  0
 19 39  1  0  0  0  0
 20 22  2  0  0  0  0
 20 40  1  0  0  0  0
 21 48  1  0  0  0  0
 22 41  1  0  0  0  0
 23 76  1  0  0  0  0
 24 77  1  0  0  0  0
 25 27  2  0  0  0  0
 25 76  1  0  0  0  0
 26 78  1  0  0  0  0
 27 79  1  0  0  0  0
 28 60  2  0  0  0  0
 29 32  1  0  0  0  0
 29 75  1  0  0  0  0
 30 61  1  0  0  0  0
 30 64  1  0  0  0  0
 31 66  1  0  0  0  0
 31 75  1  0  0  0  0
 32 33  2  0  0  0  0
 33 56  1  0  0  0  0
 34 65  1  0  0  0  0
 34 70  2  0  0  0  0
 35 49  1  0  0  0  0
 35 67  1  0  0  0  0
 35 71  2  0  0  0  0
 36 57  1  0  0  0  0
 36 62  1  0  0  0  0
 36 72  2  0  0  0  0
 37 58  1  0  0  0  0
 37 68  1  0  0  0  0
 37 73  2  0  0  0  0
 38 63  1  0  0  0  0
 38 66  1  0  0  0  0
 38 74  2  0  0  0  0
 39 42  1  0  0  0  0
 40 49  1  0  0  0  0
 41 62  1  0  0  0  0
 42 44  1  0  0  0  0
 43 45  1  0  0  0  0
 43 46  1  0  0  0  0
 44 48  1  0  0  0  0
 45 50  1  0  0  0  0
 46 63  1  0  0  0  0
 47 50  1  0  0  0  0
 47 63  1  0  0  0  0
 48 67  1  0  0  0  0
 49 62  1  0  0  0  0
 50 61  1  0  0  0  0
 51 58  1  0  0  0  0
 52 59  1  0  0  0  0
 53 59  1  0  0  0  0
 54 59  1  0  0  0  0
 55 69  1  0  0  0  0
 56 77  1  0  0  0  0
 57 59  1  0  0  0  0
 57 68  1  0  0  0  0
 58 69  1  0  0  0  0
 60 61  1  0  0  0  0
M  CHG  1  69   1
M  ISO  4  38 100  56 101  66 100  77 101
M  END
> <Batch ID>
0113

> <Smiles>
CNC(C)C(=O)NC(C(=O)N1Cc2cc([101O:1][101CH2:1]C=Cc3ccc([100NH:0][100C:0](=O)N4CCCC(n5nc(-c6ccc(Oc7ccc(F)cc7F)cc6)c(C(N)=O)c5N)C4)o3)ccc2CC1C(=O)NC1CCCc2ccccc21)C(C)(C)C

> <Shape>
0.289

> <Color>
0.096

> <Negative vol penalty>
0.000

$$$$

  -OEChem-04052301343D

 86 94  0     1  0  0  0  0  0999 V2000
  -18.3939  -14.1156   21.4636 C   0  0  0  0  0  0  0  0  0  0  0  0
  -18.9705  -15.3668   21.6574 C   0  0  0  0  0  0  0  0  0  0  0  0
  -24.8271  -29.2517   22.0110 C   0  0  0  0  0  0  0  0  0  0  0  0
  -22.8765  -30.0446   20.8263 C   0  0  0  0  0  0  0  0  0  0  0  0
  -19.1564  -12.9624   21.6439 C   0  0  0  0  0  0  0  0  0  0  0  0
  -20.3098  -15.4654   22.0328 C   0  0  0  0  0  0  0  0  0  0  0  0
  -24.2863  -19.8186   20.3769 C   0  0  0  0  0  0  0  0  0  0  0  0
  -24.7227  -30.3220   22.8993 C   0  0  0  0  0  0  0  0  0  0  0  0
  -22.7721  -31.1149   21.7147 C   0  0  0  0  0  0  0  0  0  0  0  0
  -24.7367  -20.9711   21.0193 C   0  0  0  0  0  0  0  0  0  0  0  0
  -25.4874  -33.6141   22.9331 C   0  0  0  0  0  0  0  0  0  0  0  0
  -26.6555  -34.3060   23.2532 C   0  0  0  0  0  0  0  0  0  0  0  0
  -26.6679  -19.7650   21.8161 C   0  0  0  0  0  0  0  0  0  0  0  0
  -26.3526  -33.7398   25.5823 C   0  0  0  0  0  0  0  0  0  0  0  0
  -23.9041  -29.1130   20.9744 C   0  0  0  0  0  0  0  0  0  0  0  0
  -23.4187  -26.7374   20.1817 C   0  0  0  0  0  0  0  0  0  0  0  0
  -20.5084  -13.0472   22.0122 C   0  0  0  0  0  0  0  0  0  0  0  0
  -25.0191  -18.6258   20.4585 C   0  0  0  0  0  0  0  0  0  0  0  0
  -21.0908  -14.3121   22.2195 C   0  0  0  0  0  0  0  0  0  0  0  0
  -26.2260  -18.5994   21.1717 C   0  0  0  0  0  0  0  0  0  0  0  0
  -23.6952  -31.2536   22.7512 C   0  0  0  0  0  0  0  0  0  0  0  0
  -25.9262  -20.9437   21.7414 C   0  0  0  0  0  0  0  0  0  0  0  0
  -24.7519  -32.9851   23.9376 C   0  0  0  0  0  0  0  0  0  0  0  0
  -27.0881  -34.3688   24.5778 C   0  0  0  0  0  0  0  0  0  0  0  0
  -25.1845  -33.0479   25.2622 C   0  0  0  0  0  0  0  0  0  0  0  0
  -24.0117  -28.0080   20.0561 C   0  0  0  0  0  0  0  0  0  0  0  0
  -29.6631  -22.7411   17.8248 C   0  0  0  0  0  0  0  0  0  0  0  0
  -30.4374  -21.6071   17.9542 C   0  0  0  0  0  0  0  0  0  0  0  0
  -23.8230  -26.0573   19.0590 C   0  0  0  0  0  0  0  0  0  0  0  0
  -29.3860  -22.3960   19.9729 C   0  0  0  0  0  0  0  0  0  0  0  0
  -31.1801  -20.8902   16.9934 C   0  0  0  0  0  0  0  0  0  0  0  0
  -22.5775  -26.2184   21.2202 C   0  0  0  0  0  0  0  0  0  0  0  0
  -29.4511  -23.4748   16.5506 C   0  0  0  0  0  0  0  0  0  0  0  0
  -32.5368  -20.6352   16.9874 C   0  0  0  0  0  0  0  0  0  0  0  0
  -24.4534  -15.7207   21.6179 C   0  0  0  0  0  0  0  0  0  0  0  0
  -27.3276  -15.0489   20.2724 C   0  0  0  0  0  0  0  0  0  0  0  0
  -30.3474  -16.1921   19.1676 C   0  0  0  0  0  0  0  0  0  0  0  0
  -28.3413  -25.4535   15.5623 C   0  0  0  0  0  0  0  0  0  0  0  0
  -21.2797  -11.7715   22.2414 C   0  0  0  0  0  0  0  0  0  0  0  0
  -24.5333  -17.3983   19.7376 C   0  0  0  0  0  0  0  0  0  0  0  0
  -27.0601  -17.3494   21.2731 C   0  0  0  0  0  0  0  0  0  0  0  0
  -22.7926  -11.9721   22.2747 C   0  0  0  0  0  0  0  0  0  0  0  0
  -25.5382  -27.3841   14.6070 C   0  0  0  0  0  0  0  0  0  0  0  0
  -23.1537  -13.1649   23.1543 C   0  0  0  0  0  0  0  0  0  0  0  0
  -24.7917  -27.6130   15.9240 C   0  0  0  0  0  0  0  0  0  0  0  0
  -27.0536  -27.4294   14.7985 C   0  0  0  0  0  0  0  0  0  0  0  0
  -26.8303  -26.7788   17.1617 C   0  0  0  0  0  0  0  0  0  0  0  0
  -22.5472  -14.4608   22.6027 C   0  0  1  0  0  0  0  0  0  0  0  0
  -25.0971  -16.1037   20.3153 C   0  0  1  0  0  0  0  0  0  0  0  0
  -25.3020  -26.6727   17.0344 C   0  0  1  0  0  0  0  0  0  0  0  0
  -33.2021  -19.8651   15.8782 C   0  0  0  0  0  0  0  0  0  0  0  0
  -33.4686  -21.0820   18.0805 C   0  0  0  0  0  0  0  0  0  0  0  0
  -32.6056  -16.1224   18.0753 C   0  0  0  0  0  0  0  0  0  0  0  0
  -25.6833  -24.3170   21.9988 C   0  0  0  0  0  0  0  0  0  0  0  0
  -28.2062  -13.9708   22.9882 C   0  0  0  0  0  0  0  0  0  0  0  0
  -30.5763  -14.0883   22.1900 C   0  0  0  0  0  0  0  0  0  0  0  0
  -28.9446  -12.5982   21.0324 C   0  0  0  0  0  0  0  0  0  0  0  0
  -29.2072  -16.8034   16.5058 C   0  0  0  0  0  0  0  0  0  0  0  0
  -28.0862  -23.6291   21.7095 C   0  0  0  0  0  0  0  0  0  0  0  0
  -28.7634  -15.1025   20.7355 C   0  0  1  0  0  0  0  0  0  0  0  0
  -31.1084  -15.9425   17.8780 C   0  0  2  0  0  0  0  0  0  0  0  0
  -26.6265  -23.2087   21.5539 C   0  0  1  0  0  0  0  0  0  1  0  0
  -29.1062  -13.9631   21.7364 C   0  0  0  0  0  0  0  0  0  0  0  0
  -24.7377  -28.1303   18.9416 N   0  0  0  0  0  0  0  0  0  0  0  0
  -29.0591  -23.1947   18.9812 N   0  0  0  0  0  0  0  0  0  0  0  0
  -24.6036  -26.9278   18.3567 N   0  0  0  0  0  0  0  0  0  0  0  0
  -26.5398  -16.1735   20.5562 N   0  0  0  0  0  0  0  0  0  0  0  0
  -27.4566  -26.5048   15.8596 N   0  0  0  0  0  0  0  0  0  0  0  0
  -23.5836  -24.8055   18.6139 N   0  0  0  0  0  0  0  0  0  0  0  0
  -22.2601  -27.0513   22.3018 N   0  0  0  0  0  0  0  0  0  0  0  0
  -28.9541  -22.5565   21.2788 N   0  0  0  0  0  0  0  0  0  0  0  0
  -28.6312  -24.6005   16.6331 N   0  0  0  0  0  0  0  0  0  0  0  0
  -23.3205  -14.9420   21.4780 N   0  0  0  0  0  0  0  0  0  0  0  0
  -29.5820  -15.1032   19.5278 N   0  0  0  0  0  0  0  0  0  0  0  0
  -30.6569  -16.8886   16.8188 N   0  3  0  0  0  0  0  0  0  0  0  0
  -22.1342  -25.0452   21.1982 O   0  0  0  0  0  0  0  0  0  0  0  0
  -30.0222  -23.0870   15.5351 O   0  0  0  0  0  0  0  0  0  0  0  0
  -24.9488  -16.1021   22.6718 O   0  0  0  0  0  0  0  0  0  0  0  0
  -26.9219  -14.0492   19.6744 O   0  0  0  0  0  0  0  0  0  0  0  0
  -30.4271  -17.2460   19.7948 O   0  0  0  0  0  0  0  0  0  0  0  0
  -28.8034  -25.2673   14.4322 O   0  0  0  0  0  0  0  0  0  0  0  0
  -23.5928  -32.2979   23.6181 O   0  0  0  0  0  0  0  0  0  0  0  0
  -26.3678  -22.0670   22.3699 O   0  0  0  0  0  0  0  0  0  1  0  0
  -28.2106  -35.0320   24.8849 F   0  0  0  0  0  0  0  0  0  0  0  0
  -24.4827  -32.4446   26.2314 F   0  0  0  0  0  0  0  0  0  0  0  0
  -30.4171  -21.0799   19.5861 S   0  0  0  0  0  0  0  0  0  0  0  0
  1  2  1  0  0  0  0
  1  5  2  0  0  0  0
  2  6  2  0  0  0  0
  3  8  2  0  0  0  0
  3 15  1  0  0  0  0
  4  9  1  0  0  0  0
  4 15  2  0  0  0  0
  5 17  1  0  0  0  0
  6 19  1  0  0  0  0
  7 10  2  0  0  0  0
  7 18  1  0  0  0  0
  8 21  1  0  0  0  0
  9 21  2  0  0  0  0
 10 22  1  0  0  0  0
 11 12  2  0  0  0  0
 11 23  1  0  0  0  0
 12 24  1  0  0  0  0
 13 20  1  0  0  0  0
 13 22  2  0  0  0  0
 14 24  2  0  0  0  0
 14 25  1  0  0  0  0
 15 26  1  0  0  0  0
 16 26  1  0  0  0  0
 16 29  2  0  0  0  0
 16 32  1  0  0  0  0
 17 19  2  0  0  0  0
 17 39  1  0  0  0  0
 18 20  2  0  0  0  0
 18 40  1  0  0  0  0
 19 48  1  0  0  0  0
 20 41  1  0  0  0  0
 21 82  1  0  0  0  0
 22 83  1  0  0  0  0
 23 25  2  0  0  0  0
 23 82  1  0  0  0  0
 24 84  1  0  0  0  0
 25 85  1  0  0  0  0
 26 64  2  0  0  0  0
 27 28  2  0  0  0  0
 27 33  1  0  0  0  0
 27 65  1  0  0  0  0
 28 31  1  0  0  0  0
 28 86  1  0  0  0  0
 29 66  1  0  0  0  0
 29 69  1  0  0  0  0
 30 65  2  0  0  0  0
 30 71  1  0  0  0  0
 30 86  1  0  0  0  0
 31 34  2  0  0  0  0
 32 70  1  0  0  0  0
 32 76  2  0  0  0  0
 33 72  1  0  0  0  0
 33 77  2  0  0  0  0
 34 51  1  0  0  0  0
 34 52  1  0  0  0  0
 35 49  1  0  0  0  0
 35 73  1  0  0  0  0
 35 78  2  0  0  0  0
 36 60  1  0  0  0  0
 36 67  1  0  0  0  0
 36 79  2  0  0  0  0
 37 61  1  0  0  0  0
 37 74  1  0  0  0  0
 37 80  2  0  0  0  0
 38 68  1  0  0  0  0
 38 72  1  0  0  0  0
 38 81  2  0  0  0  0
 39 42  1  0  0  0  0
 40 49  1  0  0  0  0
 41 67  1  0  0  0  0
 42 44  1  0  0  0  0
 43 45  1  0  0  0  0
 43 46  1  0  0  0  0
 44 48  1  0  0  0  0
 45 50  1  0  0  0  0
 46 68  1  0  0  0  0
 47 50  1  0  0  0  0
 47 68  1  0  0  0  0
 48 73  1  0  0  0  0
 49 67  1  0  0  0  0
 50 66  1  0  0  0  0
 53 61  1  0  0  0  0
 54 62  1  0  0  0  0
 55 63  1  0  0  0  0
 56 63  1  0  0  0  0
 57 63  1  0  0  0  0
 58 75  1  0  0  0  0
 59 62  1  0  0  0  0
 59 71  1  0  0  0  0
 60 63  1  0  0  0  0
 60 74  1  0  0  0  0
 61 75  1  0  0  0  0
 62 83  1  0  0  0  0
 64 66  1  0  0  0  0
M  CHG  1  75   1
M  ISO  4  38 100  62 101  72 100  83 101
M  END
> <Batch ID>
0113

> <Smiles>
CNC(C)C(=O)NC(C(=O)N1Cc2cc([101O:1][101CH:1](C)CNc3nc(C(=O)[100NH:0][100C:0](=O)N4CCCC(n5nc(-c6ccc(Oc7ccc(F)cc7F)cc6)c(C(N)=O)c5N)C4)c(C=C(C)C)s3)ccc2CC1C(=O)NC1CCCc2ccccc21)C(C)(C)C

> <Shape>
0.199

> <Color>
0.053

> <Negative vol penalty>
0.000

$$$$

  -OEChem-04052301343D

 84 92  0     1  0  0  0  0  0999 V2000
  -24.2962   -6.3465   23.6268 C   0  0  0  0  0  0  0  0  0  0  0  0
  -25.4814   -7.0498   23.4366 C   0  0  0  0  0  0  0  0  0  0  0  0
  -23.4447  -32.8666   22.3138 C   0  0  0  0  0  0  0  0  0  0  0  0
  -25.5225  -32.2297   23.3692 C   0  0  0  0  0  0  0  0  0  0  0  0
  -23.1287   -6.7652   22.9901 C   0  0  0  0  0  0  0  0  0  0  0  0
  -25.4999   -8.1716   22.6086 C   0  0  0  0  0  0  0  0  0  0  0  0
  -28.7113  -14.5358   21.9011 C   0  0  0  0  0  0  0  0  0  0  0  0
  -23.4320  -34.0496   23.0528 C   0  0  0  0  0  0  0  0  0  0  0  0
  -25.5099  -33.4127   24.1081 C   0  0  0  0  0  0  0  0  0  0  0  0
  -29.4039  -15.2938   20.9580 C   0  0  0  0  0  0  0  0  0  0  0  0
  -26.2476  -36.6716   23.6022 C   0  0  0  0  0  0  0  0  0  0  0  0
  -27.4389  -37.3916   23.6903 C   0  0  0  0  0  0  0  0  0  0  0  0
  -27.3088  -15.9710   19.9726 C   0  0  0  0  0  0  0  0  0  0  0  0
  -28.9187  -22.5480   19.6247 C   0  0  0  0  0  0  0  0  0  0  0  0
  -26.7776  -21.8814   21.2843 C   0  0  0  0  0  0  0  0  0  0  0  0
  -27.4052  -37.1532   26.0943 C   0  0  0  0  0  0  0  0  0  0  0  0
  -24.4899  -31.9566   22.4721 C   0  0  0  0  0  0  0  0  0  0  0  0
  -25.0835  -30.5284   20.4434 C   0  0  0  0  0  0  0  0  0  0  0  0
  -23.1307   -7.8983   22.1615 C   0  0  0  0  0  0  0  0  0  0  0  0
  -27.3102  -14.4809   21.8803 C   0  0  0  0  0  0  0  0  0  0  0  0
  -24.3316   -8.6050   21.9592 C   0  0  0  0  0  0  0  0  0  0  0  0
  -26.6007  -15.2136   20.9181 C   0  0  0  0  0  0  0  0  0  0  0  0
  -28.8870  -21.3050   20.2568 C   0  0  0  0  0  0  0  0  0  0  0  0
  -27.8164  -20.9717   21.0866 C   0  0  0  0  0  0  0  0  0  0  0  0
  -26.8095  -23.1244   20.6522 C   0  0  0  0  0  0  0  0  0  0  0  0
  -24.4646  -34.3226   23.9499 C   0  0  0  0  0  0  0  0  0  0  0  0
  -28.7028  -16.0092   19.9918 C   0  0  0  0  0  0  0  0  0  0  0  0
  -25.6350  -36.1924   24.7601 C   0  0  0  0  0  0  0  0  0  0  0  0
  -27.8800  -23.4578   19.8225 C   0  0  0  0  0  0  0  0  0  0  0  0
  -28.0178  -37.6324   24.9364 C   0  0  0  0  0  0  0  0  0  0  0  0
  -26.2138  -36.4332   26.0062 C   0  0  0  0  0  0  0  0  0  0  0  0
  -24.5033  -30.7342   21.7095 C   0  0  0  0  0  0  0  0  0  0  0  0
  -24.8254  -29.2099   20.1577 C   0  0  0  0  0  0  0  0  0  0  0  0
  -29.8020  -19.5945   19.0477 C   0  0  0  0  0  0  0  0  0  0  0  0
  -25.7924  -31.4468   19.6010 C   0  0  0  0  0  0  0  0  0  0  0  0
  -25.1615  -12.1733   21.4781 C   0  0  0  0  0  0  0  0  0  0  0  0
  -23.0615  -14.5376   22.2009 C   0  0  0  0  0  0  0  0  0  0  0  0
  -22.3873  -17.8814   22.3068 C   0  0  0  0  0  0  0  0  0  0  0  0
  -24.6167  -23.8516   21.6569 C   0  0  0  0  0  0  0  0  0  0  0  0
  -21.8544   -8.2849   21.4571 C   0  0  0  0  0  0  0  0  0  0  0  0
  -26.5770  -13.6799   22.9211 C   0  0  0  0  0  0  0  0  0  0  0  0
  -25.0955  -15.2043   20.8653 C   0  0  0  0  0  0  0  0  0  0  0  0
  -21.8755   -9.7032   20.8930 C   0  0  0  0  0  0  0  0  0  0  0  0
  -21.7975  -25.8717   22.4621 C   0  0  0  0  0  0  0  0  0  0  0  0
  -23.1811   -9.9619   20.1478 C   0  0  0  0  0  0  0  0  0  0  0  0
  -22.2979  -27.2999   22.2339 C   0  0  0  0  0  0  0  0  0  0  0  0
  -22.8884  -24.9749   23.0447 C   0  0  0  0  0  0  0  0  0  0  0  0
  -24.6499  -26.3910   22.0644 C   0  0  0  0  0  0  0  0  0  0  0  0
  -24.3863   -9.8414   21.0882 C   0  0  1  0  0  0  0  0  0  0  0  0
  -25.1683  -13.2853   22.4886 C   0  0  1  0  0  0  0  0  0  0  0  0
  -23.6053  -27.3154   21.4179 C   0  0  2  0  0  0  0  0  0  0  0  0
  -20.5731  -19.5071   22.9094 C   0  0  0  0  0  0  0  0  0  0  0  0
  -21.5912  -13.8506   19.6171 C   0  0  0  0  0  0  0  0  0  0  0  0
  -20.4095  -16.0514   19.7864 C   0  0  0  0  0  0  0  0  0  0  0  0
  -20.1025  -14.3326   21.5680 C   0  0  0  0  0  0  0  0  0  0  0  0
  -24.0596  -19.1537   24.3910 C   0  0  0  0  0  0  0  0  0  0  0  0
  -28.5695  -25.7328   19.8897 C   0  0  0  0  0  0  0  0  0  0  0  0
  -30.8759  -18.5939   18.7138 C   0  0  0  0  0  0  0  0  0  0  0  0
  -30.6318  -17.2981   19.4686 C   0  0  0  0  0  0  0  0  0  1  0  0
  -22.3005  -15.5714   21.4065 C   0  0  1  0  0  0  0  0  0  0  0  0
  -21.8015  -18.7568   23.4000 C   0  0  2  0  0  0  0  0  0  0  0  0
  -21.1294  -14.9503   20.5940 C   0  0  0  0  0  0  0  0  0  0  0  0
  -23.9205  -29.6346   22.1945 N   0  0  0  0  0  0  0  0  0  0  0  0
  -29.9445  -20.4046   20.0454 N   0  0  0  0  0  0  0  0  0  0  0  0
  -24.1330  -28.7252   21.2281 N   0  0  0  0  0  0  0  0  0  0  0  0
  -24.4242  -14.4011   21.9006 N   0  0  0  0  0  0  0  0  0  0  0  0
  -24.0951  -25.0369   22.2172 N   0  0  0  0  0  0  0  0  0  0  0  0
  -27.7677  -19.7178   21.7353 N   0  0  0  0  0  0  0  0  0  0  0  0
  -25.1254  -28.4296   19.0978 N   0  0  0  0  0  0  0  0  0  0  0  0
  -25.9683  -32.7636   20.0476 N   0  0  0  0  0  0  0  0  0  0  0  0
  -25.7473  -24.0384   20.8622 N   0  0  0  0  0  0  0  0  0  0  0  0
  -24.5119  -11.0304   21.9037 N   0  0  0  0  0  0  0  0  0  0  0  0
  -21.8891  -16.5968   22.3592 N   0  0  0  0  0  0  0  0  0  0  0  0
  -22.8086  -19.7541   23.8604 N   0  3  0  0  0  0  0  0  0  0  0  0
  -26.2417  -31.1141   18.4781 O   0  0  0  0  0  0  0  0  0  0  0  0
  -25.7041  -12.3405   20.3921 O   0  0  0  0  0  0  0  0  0  0  0  0
  -22.4703  -13.8806   23.0614 O   0  0  0  0  0  0  0  0  0  0  0  0
  -23.2024  -18.2968   21.4861 O   0  0  0  0  0  0  0  0  0  0  0  0
  -24.0828  -22.7554   21.8446 O   0  0  0  0  0  0  0  0  0  0  0  0
  -24.4526  -35.4770   24.6709 O   0  0  0  0  0  0  0  0  0  0  0  0
  -27.9288  -24.6660   19.1936 O   0  0  0  0  0  0  0  0  0  0  0  0
  -29.3764  -16.7494   19.0696 O   0  0  0  0  0  0  0  0  0  1  0  0
  -29.1626  -38.3226   25.0207 F   0  0  0  0  0  0  0  0  0  0  0  0
  -25.6305  -35.9743   27.1220 F   0  0  0  0  0  0  0  0  0  0  0  0
  1  2  1  0  0  0  0
  1  5  2  0  0  0  0
  2  6  2  0  0  0  0
  3  8  2  0  0  0  0
  3 17  1  0  0  0  0
  4  9  1  0  0  0  0
  4 17  2  0  0  0  0
  5 19  1  0  0  0  0
  6 21  1  0  0  0  0
  7 10  2  0  0  0  0
  7 20  1  0  0  0  0
  8 26  1  0  0  0  0
  9 26  2  0  0  0  0
 10 27  1  0  0  0  0
 11 12  2  0  0  0  0
 11 28  1  0  0  0  0
 12 30  1  0  0  0  0
 13 22  1  0  0  0  0
 13 27  2  0  0  0  0
 14 23  1  0  0  0  0
 14 29  2  0  0  0  0
 15 24  1  0  0  0  0
 15 25  2  0  0  0  0
 16 30  2  0  0  0  0
 16 31  1  0  0  0  0
 17 32  1  0  0  0  0
 18 32  1  0  0  0  0
 18 33  2  0  0  0  0
 18 35  1  0  0  0  0
 19 21  2  0  0  0  0
 19 40  1  0  0  0  0
 20 22  2  0  0  0  0
 20 41  1  0  0  0  0
 21 49  1  0  0  0  0
 22 42  1  0  0  0  0
 23 24  2  0  0  0  0
 23 64  1  0  0  0  0
 24 68  1  0  0  0  0
 25 29  1  0  0  0  0
 25 71  1  0  0  0  0
 26 80  1  0  0  0  0
 27 82  1  0  0  0  0
 28 31  2  0  0  0  0
 28 80  1  0  0  0  0
 29 81  1  0  0  0  0
 30 83  1  0  0  0  0
 31 84  1  0  0  0  0
 32 63  2  0  0  0  0
 33 65  1  0  0  0  0
 33 69  1  0  0  0  0
 34 58  1  0  0  0  0
 34 64  2  0  0  0  0
 35 70  1  0  0  0  0
 35 75  2  0  0  0  0
 36 50  1  0  0  0  0
 36 72  1  0  0  0  0
 36 76  2  0  0  0  0
 37 60  1  0  0  0  0
 37 66  1  0  0  0  0
 37 77  2  0  0  0  0
 38 61  1  0  0  0  0
 38 73  1  0  0  0  0
 38 78  2  0  0  0  0
 39 67  1  0  0  0  0
 39 71  1  0  0  0  0
 39 79  2  0  0  0  0
 40 43  1  0  0  0  0
 41 50  1  0  0  0  0
 42 66  1  0  0  0  0
 43 45  1  0  0  0  0
 44 46  1  0  0  0  0
 44 47  1  0  0  0  0
 45 49  1  0  0  0  0
 46 51  1  0  0  0  0
 47 67  1  0  0  0  0
 48 51  1  0  0  0  0
 48 67  1  0  0  0  0
 49 72  1  0  0  0  0
 50 66  1  0  0  0  0
 51 65  1  0  0  0  0
 52 61  1  0  0  0  0
 53 62  1  0  0  0  0
 54 62  1  0  0  0  0
 55 62  1  0  0  0  0
 56 74  1  0  0  0  0
 57 81  1  0  0  0  0
 58 59  1  0  0  0  0
 59 82  1  0  0  0  0
 60 62  1  0  0  0  0
 60 73  1  0  0  0  0
 61 74  1  0  0  0  0
 63 65  1  0  0  0  0
M  CHG  1  74   1
M  ISO  4  39 100  59 101  71 100  82 101
M  END
> <Batch ID>
0113

> <Smiles>
CNC(C)C(=O)NC(C(=O)N1Cc2cc([101O:1][101CH2:1]C=CNc3cc(OC)c([100NH:0][100C:0](=O)N4CCCC(n5nc(-c6ccc(Oc7ccc(F)cc7F)cc6)c(C(N)=O)c5N)C4)cc3N)ccc2CC1C(=O)NC1CCCc2ccccc21)C(C)(C)C

> <Shape>
0.262

> <Color>
0.060

> <Negative vol penalty>
0.000

$$$$

  -OEChem-04052301343D

 87 96  0     1  0  0  0  0  0999 V2000
  -18.2566  -25.6415   21.1690 C   0  0  0  0  0  0  0  0  0  0  0  0
  -19.5595  -25.7342   20.6902 C   0  0  0  0  0  0  0  0  0  0  0  0
  -26.3425  -12.6448   21.5708 C   0  0  0  0  0  0  0  0  0  0  0  0
  -26.2416  -13.2644   19.2378 C   0  0  0  0  0  0  0  0  0  0  0  0
  -17.6083  -26.7794   21.6474 C   0  0  0  0  0  0  0  0  0  0  0  0
  -20.2145  -26.9652   20.6885 C   0  0  0  0  0  0  0  0  0  0  0  0
  -24.9733  -26.6359   22.3887 C   0  0  0  0  0  0  0  0  0  0  0  0
  -25.1085  -12.0050   21.4543 C   0  0  0  0  0  0  0  0  0  0  0  0
  -25.0076  -12.6245   19.1212 C   0  0  0  0  0  0  0  0  0  0  0  0
  -25.9306  -26.1335   21.5084 C   0  0  0  0  0  0  0  0  0  0  0  0
  -21.8460  -12.8840   21.3664 C   0  0  0  0  0  0  0  0  0  0  0  0
  -20.9038  -13.1071   22.3704 C   0  0  0  0  0  0  0  0  0  0  0  0
  -26.6529  -28.3826   21.0196 C   0  0  0  0  0  0  0  0  0  0  0  0
  -20.8717  -10.7427   22.8658 C   0  0  0  0  0  0  0  0  0  0  0  0
  -26.9090  -13.2745   20.4625 C   0  0  0  0  0  0  0  0  0  0  0  0
  -29.4567  -13.3719   20.3772 C   0  0  0  0  0  0  0  0  0  0  0  0
  -18.2591  -28.0231   21.6605 C   0  0  0  0  0  0  0  0  0  0  0  0
  -24.8411  -28.0184   22.5831 C   0  0  0  0  0  0  0  0  0  0  0  0
  -19.5739  -28.1210   21.1662 C   0  0  0  0  0  0  0  0  0  0  0  0
  -25.6948  -28.8999   21.9048 C   0  0  0  0  0  0  0  0  0  0  0  0
  -24.4411  -11.9948   20.2295 C   0  0  0  0  0  0  0  0  0  0  0  0
  -26.7686  -27.0069   20.8215 C   0  0  0  0  0  0  0  0  0  0  0  0
  -22.3010  -11.5902   21.1120 C   0  0  0  0  0  0  0  0  0  0  0  0
  -20.4167  -12.0365   23.1201 C   0  0  0  0  0  0  0  0  0  0  0  0
  -21.8139  -10.5195   21.8617 C   0  0  0  0  0  0  0  0  0  0  0  0
  -28.1834  -13.9361   20.5824 C   0  0  0  0  0  0  0  0  0  0  0  0
  -30.3053  -22.5593   16.5060 C   0  0  0  0  0  0  0  0  0  0  0  0
  -29.9036  -21.6581   15.5424 C   0  0  0  0  0  0  0  0  0  0  0  0
  -30.3317  -14.4041   20.6126 C   0  0  0  0  0  0  0  0  0  0  0  0
  -29.8061  -20.8742   17.8180 C   0  0  0  0  0  0  0  0  0  0  0  0
  -28.4961  -26.4963   17.7123 C   0  0  0  0  0  0  0  0  0  0  0  0
  -28.0257  -26.3701   16.4617 C   0  0  0  0  0  0  0  0  0  0  0  0
  -29.6514  -25.5721   17.8302 C   0  0  0  0  0  0  0  0  0  0  0  0
  -29.8165  -12.0343   20.0069 C   0  0  0  0  0  0  0  0  0  0  0  0
  -22.5243  -30.1402   22.0992 C   0  0  0  0  0  0  0  0  0  0  0  0
  -24.5888  -32.1519   23.5870 C   0  0  0  0  0  0  0  0  0  0  0  0
  -27.8112  -32.8898   24.4347 C   0  0  0  0  0  0  0  0  0  0  0  0
  -29.8162  -20.3480   20.2816 C   0  0  0  0  0  0  0  0  0  0  0  0
  -17.5009  -29.2341   22.1435 C   0  0  0  0  0  0  0  0  0  0  0  0
  -23.8213  -28.5431   23.5563 C   0  0  0  0  0  0  0  0  0  0  0  0
  -25.6071  -30.3916   22.0937 C   0  0  0  0  0  0  0  0  0  0  0  0
  -28.7984  -25.3804   15.6492 C   0  0  0  0  0  0  0  0  0  0  0  0
  -18.3974  -30.4298   22.4548 C   0  0  0  0  0  0  0  0  0  0  0  0
  -30.7584  -18.4483   23.1418 C   0  0  0  0  0  0  0  0  0  0  0  0
  -19.4047  -30.6489   21.3304 C   0  0  0  0  0  0  0  0  0  0  0  0
  -30.3264  -17.0232   22.7888 C   0  0  0  0  0  0  0  0  0  0  0  0
  -29.7717  -19.4876   22.6124 C   0  0  0  0  0  0  0  0  0  0  0  0
  -29.0374  -17.9580   20.8263 C   0  0  0  0  0  0  0  0  0  0  0  0
  -20.3265  -29.4339   21.1710 C   0  0  1  0  0  0  0  0  0  0  0  0
  -23.4308  -29.9934   23.2886 C   0  0  1  0  0  0  0  0  0  0  0  0
  -30.0339  -16.8798   21.2824 C   0  0  2  0  0  0  0  0  0  0  0  0
  -29.8353  -21.8022   14.0745 C   0  0  0  0  0  0  0  0  0  0  0  0
  -25.5916  -26.2990   16.0427 C   0  0  0  0  0  0  0  0  0  0  0  0
  -29.1896  -34.6201   25.6193 C   0  0  0  0  0  0  0  0  0  0  0  0
  -24.3020  -34.0179   21.1899 C   0  0  0  0  0  0  0  0  0  0  0  0
  -26.3613  -35.2138   21.9628 C   0  0  0  0  0  0  0  0  0  0  0  0
  -24.3301  -35.1686   23.4102 C   0  0  0  0  0  0  0  0  0  0  0  0
  -28.7758  -30.9251   26.4268 C   0  0  0  0  0  0  0  0  0  0  0  0
  -30.7883  -23.9594   16.2603 C   0  0  0  0  0  0  0  0  0  0  0  0
  -28.0568  -27.3429   18.8509 C   0  0  0  0  0  0  0  0  0  1  0  0
  -26.8750  -27.0783   15.8353 C   0  0  0  0  0  0  0  0  0  0  0  0
  -25.7042  -33.0641   23.1367 C   0  0  1  0  0  0  0  0  0  0  0  0
  -28.4354  -33.3064   25.7542 C   0  0  2  0  0  0  0  0  0  0  0  0
  -25.1750  -34.3382   22.4197 C   0  0  0  0  0  0  0  0  0  0  0  0
  -28.2399  -15.2266   20.9221 N   0  0  0  0  0  0  0  0  0  0  0  0
  -30.2497  -22.1117   17.8115 N   0  0  0  0  0  0  0  0  0  0  0  0
  -29.5593  -15.4818   20.9324 N   0  0  0  0  0  0  0  0  0  0  0  0
  -29.7860  -24.9459   16.6020 N   0  0  0  0  0  0  0  0  0  0  0  0
  -24.5898  -30.8563   23.0512 N   0  0  0  0  0  0  0  0  0  0  0  0
  -29.5466  -19.2927   21.1785 N   0  0  0  0  0  0  0  0  0  0  0  0
  -31.6786  -14.4860   20.5754 N   0  0  0  0  0  0  0  0  0  0  0  0
  -28.7926  -11.0990   19.8036 N   0  0  0  0  0  0  0  0  0  0  0  0
  -29.5958  -20.0356   18.9406 N   0  0  0  0  0  0  0  0  0  0  0  0
  -21.3425  -29.4316   22.2017 N   0  0  0  0  0  0  0  0  0  0  0  0
  -26.5118  -33.3367   24.3208 N   0  0  0  0  0  0  0  0  0  0  0  0
  -29.3888  -32.2637   26.2283 N   0  3  0  0  0  0  0  0  0  0  0  0
  -30.3201  -25.4306   18.8408 O   0  0  0  0  0  0  0  0  0  0  0  0
  -31.0112  -11.6748   19.8766 O   0  0  0  0  0  0  0  0  0  0  0  0
  -22.8709  -30.8455   21.1589 O   0  0  0  0  0  0  0  0  0  0  0  0
  -23.7517  -32.5712   24.3901 O   0  0  0  0  0  0  0  0  0  0  0  0
  -28.4170  -32.2366   23.5880 O   0  0  0  0  0  0  0  0  0  0  0  0
  -30.2393  -21.4392   20.6719 O   0  0  0  0  0  0  0  0  0  0  0  0
  -23.2371  -11.3704   20.1154 O   0  0  0  0  0  0  0  0  0  0  0  0
  -27.7034  -26.5192   19.9613 O   0  0  0  0  0  0  0  0  0  1  0  0
  -19.5130  -12.2511   24.0853 F   0  0  0  0  0  0  0  0  0  0  0  0
  -22.2482   -9.2745   21.6227 F   0  0  0  0  0  0  0  0  0  0  0  0
  -29.4370  -20.1866   16.2896 S   0  0  0  0  0  0  0  0  0  0  0  0
  1  2  1  0  0  0  0
  1  5  2  0  0  0  0
  2  6  2  0  0  0  0
  3  8  2  0  0  0  0
  3 15  1  0  0  0  0
  4  9  1  0  0  0  0
  4 15  2  0  0  0  0
  5 17  1  0  0  0  0
  6 19  1  0  0  0  0
  7 10  2  0  0  0  0
  7 18  1  0  0  0  0
  8 21  1  0  0  0  0
  9 21  2  0  0  0  0
 10 22  1  0  0  0  0
 11 12  2  0  0  0  0
 11 23  1  0  0  0  0
 12 24  1  0  0  0  0
 13 20  1  0  0  0  0
 13 22  2  0  0  0  0
 14 24  2  0  0  0  0
 14 25  1  0  0  0  0
 15 26  1  0  0  0  0
 16 26  1  0  0  0  0
 16 29  2  0  0  0  0
 16 34  1  0  0  0  0
 17 19  2  0  0  0  0
 17 39  1  0  0  0  0
 18 20  2  0  0  0  0
 18 40  1  0  0  0  0
 19 49  1  0  0  0  0
 20 41  1  0  0  0  0
 21 83  1  0  0  0  0
 22 84  1  0  0  0  0
 23 25  2  0  0  0  0
 23 83  1  0  0  0  0
 24 85  1  0  0  0  0
 25 86  1  0  0  0  0
 26 65  2  0  0  0  0
 27 28  2  0  0  0  0
 27 59  1  0  0  0  0
 27 66  1  0  0  0  0
 28 52  1  0  0  0  0
 28 87  1  0  0  0  0
 29 67  1  0  0  0  0
 29 71  1  0  0  0  0
 30 66  2  0  0  0  0
 30 73  1  0  0  0  0
 30 87  1  0  0  0  0
 31 32  2  0  0  0  0
 31 33  1  0  0  0  0
 31 60  1  0  0  0  0
 32 42  1  0  0  0  0
 32 61  1  0  0  0  0
 33 68  1  0  0  0  0
 33 77  2  0  0  0  0
 34 72  1  0  0  0  0
 34 78  2  0  0  0  0
 35 50  1  0  0  0  0
 35 74  1  0  0  0  0
 35 79  2  0  0  0  0
 36 62  1  0  0  0  0
 36 69  1  0  0  0  0
 36 80  2  0  0  0  0
 37 63  1  0  0  0  0
 37 75  1  0  0  0  0
 37 81  2  0  0  0  0
 38 70  1  0  0  0  0
 38 73  1  0  0  0  0
 38 82  2  0  0  0  0
 39 43  1  0  0  0  0
 40 50  1  0  0  0  0
 41 69  1  0  0  0  0
 42 68  1  0  0  0  0
 43 45  1  0  0  0  0
 44 46  1  0  0  0  0
 44 47  1  0  0  0  0
 45 49  1  0  0  0  0
 46 51  1  0  0  0  0
 47 70  1  0  0  0  0
 48 51  1  0  0  0  0
 48 70  1  0  0  0  0
 49 74  1  0  0  0  0
 50 69  1  0  0  0  0
 51 67  1  0  0  0  0
 53 61  1  0  0  0  0
 54 63  1  0  0  0  0
 55 64  1  0  0  0  0
 56 64  1  0  0  0  0
 57 64  1  0  0  0  0
 58 76  1  0  0  0  0
 59 68  1  0  0  0  0
 60 84  1  0  0  0  0
 62 64  1  0  0  0  0
 62 75  1  0  0  0  0
 63 76  1  0  0  0  0
 65 67  1  0  0  0  0
M  CHG  1  76   1
M  ISO  4  38 100  60 101  73 100  84 101
M  END
> <Batch ID>
0113

> <Smiles>
CCC1=C([101CH2:1][101O:1]c2ccc3c(c2)CN(C(=O)C(NC(=O)C(C)NC)C(C)(C)C)C(C(=O)NC2CCCc4ccccc42)C3)C(=O)N(Cc2nc([100NH:0][100C:0](=O)N3CCCC(n4nc(-c5ccc(Oc6ccc(F)cc6F)cc5)c(C(N)=O)c4N)C3)sc2C)C1

> <Shape>
0.331

> <Color>
0.089

> <Negative vol penalty>
0.000

$$$$

  -OEChem-04052301343D

 82 90  0     1  0  0  0  0  0999 V2000
  -17.9313  -30.2472   23.6340 C   0  0  0  0  0  0  0  0  0  0  0  0
  -19.2795  -30.5691   23.5149 C   0  0  0  0  0  0  0  0  0  0  0  0
  -24.4301  -13.6527   18.9063 C   0  0  0  0  0  0  0  0  0  0  0  0
  -23.3390  -15.1410   20.4656 C   0  0  0  0  0  0  0  0  0  0  0  0
  -17.5014  -28.9456   23.3792 C   0  0  0  0  0  0  0  0  0  0  0  0
  -20.1988  -29.5892   23.1419 C   0  0  0  0  0  0  0  0  0  0  0  0
  -25.2142  -30.3605   19.7132 C   0  0  0  0  0  0  0  0  0  0  0  0
  -23.6189  -12.6040   19.3395 C   0  0  0  0  0  0  0  0  0  0  0  0
  -22.5277  -14.0923   20.8988 C   0  0  0  0  0  0  0  0  0  0  0  0
  -26.5597  -30.5201   20.0418 C   0  0  0  0  0  0  0  0  0  0  0  0
  -23.4851  -10.4798   21.9651 C   0  0  0  0  0  0  0  0  0  0  0  0
  -24.0944   -9.2498   22.2130 C   0  0  0  0  0  0  0  0  0  0  0  0
  -26.9153  -28.1577   19.7070 C   0  0  0  0  0  0  0  0  0  0  0  0
  -22.6919   -8.2176   20.5382 C   0  0  0  0  0  0  0  0  0  0  0  0
  -24.2902  -14.9212   19.4694 C   0  0  0  0  0  0  0  0  0  0  0  0
  -24.8640  -16.9081   17.9758 C   0  0  0  0  0  0  0  0  0  0  0  0
  -18.4144  -27.9515   22.9935 C   0  0  0  0  0  0  0  0  0  0  0  0
  -24.7060  -29.0944   19.3891 C   0  0  0  0  0  0  0  0  0  0  0  0
  -19.7808  -28.2727   22.8830 C   0  0  0  0  0  0  0  0  0  0  0  0
  -25.5636  -27.9852   19.3722 C   0  0  0  0  0  0  0  0  0  0  0  0
  -22.6676  -12.8238   20.3357 C   0  0  0  0  0  0  0  0  0  0  0  0
  -27.4098  -29.4181   20.0416 C   0  0  0  0  0  0  0  0  0  0  0  0
  -22.4791  -10.5787   21.0039 C   0  0  0  0  0  0  0  0  0  0  0  0
  -23.6979   -8.1187   21.4995 C   0  0  0  0  0  0  0  0  0  0  0  0
  -22.0826   -9.4476   20.2904 C   0  0  0  0  0  0  0  0  0  0  0  0
  -25.1284  -16.0048   19.0227 C   0  0  0  0  0  0  0  0  0  0  0  0
  -30.1003  -23.8745   19.3948 C   0  0  0  0  0  0  0  0  0  0  0  0
  -29.1801  -23.2282   20.1933 C   0  0  0  0  0  0  0  0  0  0  0  0
  -25.9592  -17.7367   17.9526 C   0  0  0  0  0  0  0  0  0  0  0  0
  -29.5975  -25.5386   20.7318 C   0  0  0  0  0  0  0  0  0  0  0  0
  -23.7299  -16.9908   17.1026 C   0  0  0  0  0  0  0  0  0  0  0  0
  -22.5039  -27.1737   20.6402 C   0  0  0  0  0  0  0  0  0  0  0  0
  -29.7015  -20.8595   20.6972 C   0  0  0  0  0  0  0  0  0  0  0  0
  -23.1054  -25.4009   17.9911 C   0  0  0  0  0  0  0  0  0  0  0  0
  -25.2768  -24.5695   15.4929 C   0  0  0  0  0  0  0  0  0  0  0  0
  -17.9093  -26.5474   22.7746 C   0  0  0  0  0  0  0  0  0  0  0  0
  -23.2580  -28.9436   19.0108 C   0  0  0  0  0  0  0  0  0  0  0  0
  -25.0718  -26.6080   19.0117 C   0  0  0  0  0  0  0  0  0  0  0  0
  -18.8933  -25.6568   22.0203 C   0  0  0  0  0  0  0  0  0  0  0  0
  -30.4234  -17.3738   20.2866 C   0  0  0  0  0  0  0  0  0  0  0  0
  -20.2973  -25.8033   22.5985 C   0  0  0  0  0  0  0  0  0  0  0  0
  -29.0815  -16.7766   19.8647 C   0  0  0  0  0  0  0  0  0  0  0  0
  -30.2382  -18.5170   21.2795 C   0  0  0  0  0  0  0  0  0  0  0  0
  -27.9889  -19.0067   20.3726 C   0  0  0  0  0  0  0  0  0  0  0  0
  -20.8049  -27.2433   22.4566 C   0  0  1  0  0  0  0  0  0  0  0  0
  -22.7367  -27.5220   19.1973 C   0  0  1  0  0  0  0  0  0  0  0  0
  -28.1290  -17.8685   19.3462 C   0  0  2  0  0  0  0  0  0  0  0  0
  -30.2701  -23.6997   16.8994 C   0  0  0  0  0  0  0  0  0  0  0  0
  -25.5020  -23.0622   13.4993 C   0  0  0  0  0  0  0  0  0  0  0  0
  -30.6045  -29.4981   18.9051 C   0  0  0  0  0  0  0  0  0  0  0  0
  -23.6014  -23.0282   19.8442 C   0  0  0  0  0  0  0  0  0  0  0  0
  -24.7196  -21.8590   17.9335 C   0  0  0  0  0  0  0  0  0  0  0  0
  -22.3096  -22.4825   17.7735 C   0  0  0  0  0  0  0  0  0  0  0  0
  -25.5725  -26.8634   13.6465 C   0  0  0  0  0  0  0  0  0  0  0  0
  -30.8356  -23.2800   18.2598 C   0  0  0  0  0  0  0  0  0  0  0  0
  -28.6922  -21.8353   20.1466 C   0  0  0  0  0  0  0  0  0  0  0  0
  -30.3995  -27.8990   20.8369 C   0  0  0  0  0  0  0  0  0  0  0  0
  -24.0695  -24.2928   17.6425 C   0  0  1  0  0  0  0  0  0  0  0  0
  -25.0840  -24.4385   13.9929 C   0  0  2  0  0  0  0  0  0  0  0  0
  -29.6496  -28.6718   19.7543 C   0  0  1  0  0  0  0  0  0  1  0  0
  -23.6842  -22.9411   18.3071 C   0  0  0  0  0  0  0  0  0  0  0  0
  -26.2996  -16.2374   19.6211 N   0  0  0  0  0  0  0  0  0  0  0  0
  -30.3406  -25.1995   19.7018 N   0  0  0  0  0  0  0  0  0  0  0  0
  -26.7810  -17.2963   18.9480 N   0  0  0  0  0  0  0  0  0  0  0  0
  -23.6467  -26.5107   18.6554 N   0  0  0  0  0  0  0  0  0  0  0  0
  -29.3095  -19.5222   20.7595 N   0  0  0  0  0  0  0  0  0  0  0  0
  -26.2897  -18.7918   17.1780 N   0  0  0  0  0  0  0  0  0  0  0  0
  -22.6935  -16.0612   17.2635 N   0  0  0  0  0  0  0  0  0  0  0  0
  -29.5877  -26.7989   21.3058 N   0  0  0  0  0  0  0  0  0  0  0  0
  -21.2407  -27.4942   21.0996 N   0  0  0  0  0  0  0  0  0  0  0  0
  -24.1289  -24.2468   16.1855 N   0  0  0  0  0  0  0  0  0  0  0  0
  -25.8955  -25.4617   13.2750 N   0  3  0  0  0  0  0  0  0  0  0  0
  -23.6458  -17.8531   16.1954 O   0  0  0  0  0  0  0  0  0  0  0  0
  -23.4032  -26.6514   21.2884 O   0  0  0  0  0  0  0  0  0  0  0  0
  -30.8058  -21.2749   21.0579 O   0  0  0  0  0  0  0  0  0  0  0  0
  -21.9173  -25.2892   17.6790 O   0  0  0  0  0  0  0  0  0  0  0  0
  -26.3404  -24.9192   15.9998 O   0  0  0  0  0  0  0  0  0  0  0  0
  -21.8757  -11.8007   20.7585 O   0  0  0  0  0  0  0  0  0  0  0  0
  -28.7234  -29.5709   20.3626 O   0  0  0  0  0  0  0  0  0  1  0  0
  -24.2842   -6.9379   21.7365 F   0  0  0  0  0  0  0  0  0  0  0  0
  -21.1176   -9.5367   19.3649 F   0  0  0  0  0  0  0  0  0  0  0  0
  -28.5866  -24.3134   21.3813 S   0  0  0  0  0  0  0  0  0  0  0  0
  1  2  1  0  0  0  0
  1  5  2  0  0  0  0
  2  6  2  0  0  0  0
  3  8  2  0  0  0  0
  3 15  1  0  0  0  0
  4  9  1  0  0  0  0
  4 15  2  0  0  0  0
  5 17  1  0  0  0  0
  6 19  1  0  0  0  0
  7 10  2  0  0  0  0
  7 18  1  0  0  0  0
  8 21  1  0  0  0  0
  9 21  2  0  0  0  0
 10 22  1  0  0  0  0
 11 12  2  0  0  0  0
 11 23  1  0  0  0  0
 12 24  1  0  0  0  0
 13 20  1  0  0  0  0
 13 22  2  0  0  0  0
 14 24  2  0  0  0  0
 14 25  1  0  0  0  0
 15 26  1  0  0  0  0
 16 26  1  0  0  0  0
 16 29  2  0  0  0  0
 16 31  1  0  0  0  0
 17 19  2  0  0  0  0
 17 36  1  0  0  0  0
 18 20  2  0  0  0  0
 18 37  1  0  0  0  0
 19 45  1  0  0  0  0
 20 38  1  0  0  0  0
 21 78  1  0  0  0  0
 22 79  1  0  0  0  0
 23 25  2  0  0  0  0
 23 78  1  0  0  0  0
 24 80  1  0  0  0  0
 25 81  1  0  0  0  0
 26 62  2  0  0  0  0
 27 28  2  0  0  0  0
 27 55  1  0  0  0  0
 27 63  1  0  0  0  0
 28 56  1  0  0  0  0
 28 82  1  0  0  0  0
 29 64  1  0  0  0  0
 29 67  1  0  0  0  0
 30 63  2  0  0  0  0
 30 69  1  0  0  0  0
 30 82  1  0  0  0  0
 31 68  1  0  0  0  0
 31 73  2  0  0  0  0
 32 46  1  0  0  0  0
 32 70  1  0  0  0  0
 32 74  2  0  0  0  0
 33 56  1  0  0  0  0
 33 66  1  0  0  0  0
 33 75  2  0  0  0  0
 34 58  1  0  0  0  0
 34 65  1  0  0  0  0
 34 76  2  0  0  0  0
 35 59  1  0  0  0  0
 35 71  1  0  0  0  0
 35 77  2  0  0  0  0
 36 39  1  0  0  0  0
 37 46  1  0  0  0  0
 38 65  1  0  0  0  0
 39 41  1  0  0  0  0
 40 42  1  0  0  0  0
 40 43  1  0  0  0  0
 41 45  1  0  0  0  0
 42 47  1  0  0  0  0
 43 66  1  0  0  0  0
 44 47  1  0  0  0  0
 44 66  1  0  0  0  0
 45 70  1  0  0  0  0
 46 65  1  0  0  0  0
 47 64  1  0  0  0  0
 48 55  1  0  0  0  0
 49 59  1  0  0  0  0
 50 60  1  0  0  0  0
 51 61  1  0  0  0  0
 52 61  1  0  0  0  0
 53 61  1  0  0  0  0
 54 72  1  0  0  0  0
 57 60  1  0  0  0  0
 57 69  1  0  0  0  0
 58 61  1  0  0  0  0
 58 71  1  0  0  0  0
 59 72  1  0  0  0  0
 60 79  1  0  0  0  0
 62 64  1  0  0  0  0
M  CHG  1  72   1
M  ISO  4  33 100  56 100  60 101  79 101
M  END
> <Batch ID>
0113

> <Smiles>
CCc1nc(NC[101CH:1](C)[101O:1]c2ccc3c(c2)CN(C(=O)C(NC(=O)C(C)NC)C(C)(C)C)C(C(=O)NC2CCCc4ccccc42)C3)sc1[100CH2:0][100C:0](=O)N1CCCC(n2nc(-c3ccc(Oc4ccc(F)cc4F)cc3)c(C(N)=O)c2N)C1

> <Shape>
0.274

> <Color>
0.059

> <Negative vol penalty>
0.000

$$$$

  -OEChem-04052301343D

 87 96  0     1  0  0  0  0  0999 V2000
  -28.8937  -37.2617   25.1970 C   0  0  0  0  0  0  0  0  0  0  0  0
  -29.2404  -35.9557   24.8659 C   0  0  0  0  0  0  0  0  0  0  0  0
  -23.7496   -8.8080   19.5098 C   0  0  0  0  0  0  0  0  0  0  0  0
  -23.2579  -10.1790   21.4375 C   0  0  0  0  0  0  0  0  0  0  0  0
  -27.5954  -37.5528   25.6136 C   0  0  0  0  0  0  0  0  0  0  0  0
  -28.2891  -34.9398   24.9523 C   0  0  0  0  0  0  0  0  0  0  0  0
  -27.7817  -30.0508   21.2990 C   0  0  0  0  0  0  0  0  0  0  0  0
  -22.9972   -7.7687   20.0570 C   0  0  0  0  0  0  0  0  0  0  0  0
  -22.5055   -9.1397   21.9847 C   0  0  0  0  0  0  0  0  0  0  0  0
  -28.1999  -28.7282   21.4385 C   0  0  0  0  0  0  0  0  0  0  0  0
  -20.7524   -6.7221   24.0563 C   0  0  0  0  0  0  0  0  0  0  0  0
  -20.9371   -6.4297   25.4076 C   0  0  0  0  0  0  0  0  0  0  0  0
  -30.0287  -19.9463   19.5825 C   0  0  0  0  0  0  0  0  0  0  0  0
  -30.3010  -18.5660   19.8080 C   0  0  0  0  0  0  0  0  0  0  0  0
  -26.0075  -28.1264   22.2448 C   0  0  0  0  0  0  0  0  0  0  0  0
  -23.2676   -5.9523   24.9859 C   0  0  0  0  0  0  0  0  0  0  0  0
  -23.8800  -10.0131   20.2001 C   0  0  0  0  0  0  0  0  0  0  0  0
  -24.1998  -12.1138   18.7886 C   0  0  0  0  0  0  0  0  0  0  0  0
  -26.6252  -36.5416   25.6960 C   0  0  0  0  0  0  0  0  0  0  0  0
  -26.4743  -30.4239   21.6422 C   0  0  0  0  0  0  0  0  0  0  0  0
  -26.9770  -35.2174   25.3718 C   0  0  0  0  0  0  0  0  0  0  0  0
  -25.5744  -29.4539   22.1063 C   0  0  0  0  0  0  0  0  0  0  0  0
  -22.3751   -7.9346   21.2944 C   0  0  0  0  0  0  0  0  0  0  0  0
  -27.3137  -27.7663   21.9142 C   0  0  0  0  0  0  0  0  0  0  0  0
  -21.8253   -6.6295   23.1697 C   0  0  0  0  0  0  0  0  0  0  0  0
  -22.1947   -6.0449   25.8724 C   0  0  0  0  0  0  0  0  0  0  0  0
  -23.0829   -6.2447   23.6345 C   0  0  0  0  0  0  0  0  0  0  0  0
  -24.6576  -11.0868   19.6356 C   0  0  0  0  0  0  0  0  0  0  0  0
  -28.6800  -20.1923   19.4475 C   0  0  0  0  0  0  0  0  0  0  0  0
  -25.3161  -12.8727   18.5347 C   0  0  0  0  0  0  0  0  0  0  0  0
  -29.1499  -17.8096   19.8370 C   0  0  0  0  0  0  0  0  0  0  0  0
  -28.3682  -23.8425   19.8235 C   0  0  0  0  0  0  0  0  0  0  0  0
  -28.5819  -24.5472   20.9440 C   0  0  0  0  0  0  0  0  0  0  0  0
  -22.8832  -12.3600   18.2772 C   0  0  0  0  0  0  0  0  0  0  0  0
  -28.0997  -21.5255   19.2064 C   0  0  0  0  0  0  0  0  0  0  0  0
  -28.2251  -24.4244   18.4933 C   0  0  0  0  0  0  0  0  0  0  0  0
  -25.1929  -32.4043   23.7728 C   0  0  0  0  0  0  0  0  0  0  0  0
  -22.4336  -31.6317   22.2523 C   0  0  0  0  0  0  0  0  0  0  0  0
  -20.7115  -29.3968   20.3323 C   0  0  0  0  0  0  0  0  0  0  0  0
  -29.9436  -15.4539   20.2456 C   0  0  0  0  0  0  0  0  0  0  0  0
  -25.2476  -36.8964   26.1969 C   0  0  0  0  0  0  0  0  0  0  0  0
  -26.0307  -31.8496   21.4606 C   0  0  0  0  0  0  0  0  0  0  0  0
  -24.1540  -29.7990   22.4693 C   0  0  0  0  0  0  0  0  0  0  0  0
  -28.6773  -23.6236   22.1292 C   0  0  0  0  0  0  0  0  0  0  0  0
  -24.1983  -35.8274   25.9024 C   0  0  0  0  0  0  0  0  0  0  0  0
  -30.2004  -11.9782   19.5173 C   0  0  0  0  0  0  0  0  0  0  0  0
  -24.7295  -34.4440   26.2642 C   0  0  0  0  0  0  0  0  0  0  0  0
  -28.7436  -11.5209   19.4135 C   0  0  0  0  0  0  0  0  0  0  0  0
  -28.4832  -22.2278   21.5277 C   0  0  0  0  0  0  0  0  0  0  0  0
  -30.3869  -13.0353   20.6043 C   0  0  0  0  0  0  0  0  0  0  0  0
  -28.0344  -13.7372   20.3993 C   0  0  0  0  0  0  0  0  0  0  0  0
  -25.9665  -34.0923   25.4291 C   0  0  1  0  0  0  0  0  0  0  0  0
  -24.8298  -32.2167   22.3269 C   0  0  1  0  0  0  0  0  0  0  0  0
  -27.7852  -12.7199   19.2739 C   0  0  2  0  0  0  0  0  0  0  0  0
  -27.1012  -25.4064   18.2591 C   0  0  0  0  0  0  0  0  0  0  0  0
  -18.4630  -29.0232   19.2826 C   0  0  0  0  0  0  0  0  0  0  0  0
  -21.2888  -30.8785   24.9785 C   0  0  0  0  0  0  0  0  0  0  0  0
  -19.4563  -29.6522   23.7925 C   0  0  0  0  0  0  0  0  0  0  0  0
  -19.7066  -32.1154   23.4882 C   0  0  0  0  0  0  0  0  0  0  0  0
  -21.8623  -29.3544   17.6060 C   0  0  0  0  0  0  0  0  0  0  0  0
  -28.7257  -26.0106   21.1528 C   0  0  0  0  0  0  0  0  0  1  0  0
  -21.3860  -30.5575   22.4185 C   0  0  1  0  0  0  0  0  0  0  0  0
  -19.8637  -29.5820   19.0867 C   0  0  2  0  0  0  0  0  0  0  0  0
  -20.4867  -30.7944   23.6645 C   0  0  0  0  0  0  0  0  0  0  0  0
  -25.9630  -11.1815   19.9018 N   0  0  0  0  0  0  0  0  0  0  0  0
  -26.3351  -12.2770   19.2181 N   0  0  0  0  0  0  0  0  0  0  0  0
  -28.2997  -22.4887   20.0867 N   0  0  0  0  0  0  0  0  0  0  0  0
  -23.7697  -31.2076   22.2803 N   0  0  0  0  0  0  0  0  0  0  0  0
  -29.4489  -14.1422   20.4051 N   0  0  0  0  0  0  0  0  0  0  0  0
  -25.5157  -13.9846   17.7957 N   0  0  0  0  0  0  0  0  0  0  0  0
  -21.8516  -11.4823   18.6374 N   0  0  0  0  0  0  0  0  0  0  0  0
  -28.9601  -16.4188   20.0304 N   0  0  0  0  0  0  0  0  0  0  0  0
  -25.5777  -33.6921   24.0937 N   0  0  0  0  0  0  0  0  0  0  0  0
  -20.6559  -30.5007   21.1567 N   0  0  0  0  0  0  0  0  0  0  0  0
  -27.3854  -21.7376   18.1050 N   0  3  0  0  0  0  0  0  0  0  0  0
  -20.4891  -28.8867   17.9264 N   0  3  0  0  0  0  0  0  0  0  0  0
  -22.6324  -13.3201   17.5099 O   0  0  0  0  0  0  0  0  0  0  0  0
  -28.9988  -24.1163   17.5797 O   0  0  0  0  0  0  0  0  0  0  0  0
  -25.1272  -31.4517   24.5408 O   0  0  0  0  0  0  0  0  0  0  0  0
  -22.0794  -32.8029   22.0960 O   0  0  0  0  0  0  0  0  0  0  0  0
  -21.3555  -28.3737   20.5537 O   0  0  0  0  0  0  0  0  0  0  0  0
  -31.1525  -15.6989   20.2690 O   0  0  0  0  0  0  0  0  0  0  0  0
  -21.6406   -6.9208   21.8286 O   0  0  0  0  0  0  0  0  0  0  0  0
  -27.7195  -26.4747   22.0520 O   0  0  0  0  0  0  0  0  0  1  0  0
  -22.3722   -5.7657   27.1703 F   0  0  0  0  0  0  0  0  0  0  0  0
  -24.1177   -6.1551   22.7878 F   0  0  0  0  0  0  0  0  0  0  0  0
  -27.7485  -18.7628   19.5928 S   0  0  0  0  0  0  0  0  0  0  0  0
  1  2  1  0  0  0  0
  1  5  2  0  0  0  0
  2  6  2  0  0  0  0
  3  8  2  0  0  0  0
  3 17  1  0  0  0  0
  4  9  1  0  0  0  0
  4 17  2  0  0  0  0
  5 19  1  0  0  0  0
  6 21  1  0  0  0  0
  7 10  2  0  0  0  0
  7 20  1  0  0  0  0
  8 23  1  0  0  0  0
  9 23  2  0  0  0  0
 10 24  1  0  0  0  0
 11 12  2  0  0  0  0
 11 25  1  0  0  0  0
 12 26  1  0  0  0  0
 13 14  1  0  0  0  0
 13 29  2  0  0  0  0
 14 31  2  0  0  0  0
 15 22  1  0  0  0  0
 15 24  2  0  0  0  0
 16 26  2  0  0  0  0
 16 27  1  0  0  0  0
 17 28  1  0  0  0  0
 18 28  1  0  0  0  0
 18 30  2  0  0  0  0
 18 34  1  0  0  0  0
 19 21  2  0  0  0  0
 19 41  1  0  0  0  0
 20 22  2  0  0  0  0
 20 42  1  0  0  0  0
 21 52  1  0  0  0  0
 22 43  1  0  0  0  0
 23 83  1  0  0  0  0
 24 84  1  0  0  0  0
 25 27  2  0  0  0  0
 25 83  1  0  0  0  0
 26 85  1  0  0  0  0
 27 86  1  0  0  0  0
 28 65  2  0  0  0  0
 29 35  1  0  0  0  0
 29 87  1  0  0  0  0
 30 66  1  0  0  0  0
 30 70  1  0  0  0  0
 31 72  1  0  0  0  0
 31 87  1  0  0  0  0
 32 33  2  0  0  0  0
 32 36  1  0  0  0  0
 32 67  1  0  0  0  0
 33 44  1  0  0  0  0
 33 61  1  0  0  0  0
 34 71  1  0  0  0  0
 34 77  2  0  0  0  0
 35 67  1  0  0  0  0
 35 75  2  0  0  0  0
 36 55  1  0  0  0  0
 36 78  2  0  0  0  0
 37 53  1  0  0  0  0
 37 73  1  0  0  0  0
 37 79  2  0  0  0  0
 38 62  1  0  0  0  0
 38 68  1  0  0  0  0
 38 80  2  0  0  0  0
 39 63  1  0  0  0  0
 39 74  1  0  0  0  0
 39 81  2  0  0  0  0
 40 69  1  0  0  0  0
 40 72  1  0  0  0  0
 40 82  2  0  0  0  0
 41 45  1  0  0  0  0
 42 53  1  0  0  0  0
 43 68  1  0  0  0  0
 44 49  1  0  0  0  0
 45 47  1  0  0  0  0
 46 48  1  0  0  0  0
 46 50  1  0  0  0  0
 47 52  1  0  0  0  0
 48 54  1  0  0  0  0
 49 67  1  0  0  0  0
 50 69  1  0  0  0  0
 51 54  1  0  0  0  0
 51 69  1  0  0  0  0
 52 73  1  0  0  0  0
 53 68  1  0  0  0  0
 54 66  1  0  0  0  0
 56 63  1  0  0  0  0
 57 64  1  0  0  0  0
 58 64  1  0  0  0  0
 59 64  1  0  0  0  0
 60 76  1  0  0  0  0
 61 84  1  0  0  0  0
 62 64  1  0  0  0  0
 62 74  1  0  0  0  0
 63 76  1  0  0  0  0
 65 66  1  0  0  0  0
M  CHG  2  75   1  76   1
M  ISO  4  40 100  61 101  72 100  84 101
M  END
> <Batch ID>
0113

> <Smiles>
CNC(C)C(=O)NC(C(=O)N1Cc2cc([101O:1][101CH2:1]C3=C(C(C)=O)N(C(=N)c4ccc([100NH:0][100C:0](=O)N5CCCC(n6nc(-c7ccc(Oc8ccc(F)cc8F)cc7)c(C(N)=O)c6N)C5)s4)CC3)ccc2CC1C(=O)NC1CCCc2ccccc21)C(C)(C)C

> <Shape>
0.319

> <Color>
0.088

> <Negative vol penalty>
0.000

$$$$

  -OEChem-04052301343D

 88 97  0     1  0  0  0  0  0999 V2000
  -14.3060  -18.0842   29.6085 C   0  0  0  0  0  0  0  0  0  0  0  0
  -15.5202  -17.8218   28.9841 C   0  0  0  0  0  0  0  0  0  0  0  0
  -23.3062  -10.2175   22.2387 C   0  0  0  0  0  0  0  0  0  0  0  0
  -23.6004   -9.5290   19.9416 C   0  0  0  0  0  0  0  0  0  0  0  0
  -31.9923  -18.8742   21.6124 C   0  0  0  0  0  0  0  0  0  0  0  0
  -13.7688  -19.3691   29.5673 C   0  0  0  0  0  0  0  0  0  0  0  0
  -16.2034  -18.8467   28.3286 C   0  0  0  0  0  0  0  0  0  0  0  0
  -23.0456  -19.0277   27.0186 C   0  0  0  0  0  0  0  0  0  0  0  0
  -31.5686  -19.3831   22.8400 C   0  0  0  0  0  0  0  0  0  0  0  0
  -22.5605   -9.0655   22.4885 C   0  0  0  0  0  0  0  0  0  0  0  0
  -22.8548   -8.3769   20.1915 C   0  0  0  0  0  0  0  0  0  0  0  0
  -24.3865  -19.0353   26.6340 C   0  0  0  0  0  0  0  0  0  0  0  0
  -19.4093   -7.9716   21.9431 C   0  0  0  0  0  0  0  0  0  0  0  0
  -18.2257   -8.1110   22.6678 C   0  0  0  0  0  0  0  0  0  0  0  0
  -24.0782  -21.1813   25.5627 C   0  0  0  0  0  0  0  0  0  0  0  0
  -19.0889   -6.6227   24.3639 C   0  0  0  0  0  0  0  0  0  0  0  0
  -23.8261  -10.4493   20.9652 C   0  0  0  0  0  0  0  0  0  0  0  0
  -31.5001  -17.6510   21.1571 C   0  0  0  0  0  0  0  0  0  0  0  0
  -24.1690  -12.9741   20.8412 C   0  0  0  0  0  0  0  0  0  0  0  0
  -14.4403  -20.4068   28.9000 C   0  0  0  0  0  0  0  0  0  0  0  0
  -22.2186  -20.1053   26.6896 C   0  0  0  0  0  0  0  0  0  0  0  0
  -15.6893  -20.1556   28.2964 C   0  0  0  0  0  0  0  0  0  0  0  0
  -22.7373  -21.1850   25.9560 C   0  0  0  0  0  0  0  0  0  0  0  0
  -30.1608  -17.4454   23.1574 C   0  0  0  0  0  0  0  0  0  0  0  0
  -30.6530  -18.6687   23.6126 C   0  0  0  0  0  0  0  0  0  0  0  0
  -30.5845  -16.9366   21.9297 C   0  0  0  0  0  0  0  0  0  0  0  0
  -22.3348   -8.1452   21.4649 C   0  0  0  0  0  0  0  0  0  0  0  0
  -24.9014  -20.1093   25.9077 C   0  0  0  0  0  0  0  0  0  0  0  0
  -20.4327   -7.1576   22.4287 C   0  0  0  0  0  0  0  0  0  0  0  0
  -18.0655   -7.4366   23.8782 C   0  0  0  0  0  0  0  0  0  0  0  0
  -20.2725   -6.4832   23.6391 C   0  0  0  0  0  0  0  0  0  0  0  0
  -24.5959  -11.6395   20.7064 C   0  0  0  0  0  0  0  0  0  0  0  0
  -25.2619  -13.7226   20.4780 C   0  0  0  0  0  0  0  0  0  0  0  0
  -28.4744  -20.0607   26.2803 C   0  0  0  0  0  0  0  0  0  0  0  0
  -29.3980  -20.0037   27.4480 C   0  0  0  0  0  0  0  0  0  0  0  0
  -33.2359  -16.8695   19.6106 C   0  0  0  0  0  0  0  0  0  0  0  0
  -31.9690  -17.1540   19.8686 C   0  0  0  0  0  0  0  0  0  0  0  0
  -27.1573  -20.0628   26.5256 C   0  0  0  0  0  0  0  0  0  1  0  0
  -22.8981  -13.4911   21.2575 C   0  0  0  0  0  0  0  0  0  0  0  0
  -18.8011  -21.6402   26.8909 C   0  0  0  0  0  0  0  0  0  0  0  0
  -20.8229  -23.9094   27.3069 C   0  0  0  0  0  0  0  0  0  0  0  0
  -23.3541  -26.0398   28.1386 C   0  0  0  0  0  0  0  0  0  0  0  0
  -30.7282  -14.7665   20.6581 C   0  0  0  0  0  0  0  0  0  0  0  0
  -13.8173  -21.7805   28.8931 C   0  0  0  0  0  0  0  0  0  0  0  0
  -20.7530  -20.1114   27.0299 C   0  0  0  0  0  0  0  0  0  0  0  0
  -21.8021  -22.3065   25.5945 C   0  0  0  0  0  0  0  0  0  0  0  0
  -29.0680  -20.0729   24.9015 C   0  0  0  0  0  0  0  0  0  0  0  0
  -30.6719  -19.2154   27.2564 C   0  0  0  0  0  0  0  0  0  0  0  0
  -14.3874  -22.6864   27.8066 C   0  0  0  0  0  0  0  0  0  0  0  0
  -29.6161  -12.3489   18.2927 C   0  0  0  0  0  0  0  0  0  0  0  0
  -15.9079  -22.6567   27.8500 C   0  0  0  0  0  0  0  0  0  0  0  0
  -28.1758  -12.0586   18.7209 C   0  0  0  0  0  0  0  0  0  0  0  0
  -31.2665  -19.4122   25.8690 C   0  0  0  0  0  0  0  0  0  0  0  0
  -30.5297  -12.5795   19.4951 C   0  0  0  0  0  0  0  0  0  0  0  0
  -28.6211  -13.3071   20.8726 C   0  0  0  0  0  0  0  0  0  0  0  0
  -16.4354  -21.2476   27.5513 C   0  0  1  0  0  0  0  0  0  0  0  0
  -20.2179  -21.5143   27.3685 C   0  0  1  0  0  0  0  0  0  0  0  0
  -27.6498  -13.1321   19.6938 C   0  0  2  0  0  0  0  0  0  0  0  0
  -29.1779  -16.6813   23.9901 C   0  0  0  0  0  0  0  0  0  0  0  0
  -23.7892  -28.4264   28.7805 C   0  0  0  0  0  0  0  0  0  0  0  0
  -20.4367  -24.7572   24.4024 C   0  0  0  0  0  0  0  0  0  0  0  0
  -21.7630  -26.8209   24.9026 C   0  0  0  0  0  0  0  0  0  0  0  0
  -19.6086  -26.4067   26.0899 C   0  0  0  0  0  0  0  0  0  0  0  0
  -24.4800  -25.2512   30.7596 C   0  0  0  0  0  0  0  0  0  0  0  0
  -21.6345  -25.0121   26.6753 C   0  0  1  0  0  0  0  0  0  0  0  0
  -23.5095  -27.0201   29.2872 C   0  0  2  0  0  0  0  0  0  0  0  0
  -20.8718  -25.7234   25.5222 C   0  0  0  0  0  0  0  0  0  0  0  0
  -25.8613  -11.5424   20.2900 N   0  0  0  0  0  0  0  0  0  0  0  0
  -26.2388  -12.8256   20.1599 N   0  0  0  0  0  0  0  0  0  0  0  0
  -30.2415  -19.1957   24.8412 N   0  0  2  0  0  0  0  0  0  0  0  0
  -20.9423  -22.6335   26.7428 N   0  0  0  0  0  0  0  0  0  0  0  0
  -29.9699  -13.6121   20.3699 N   0  0  0  0  0  0  0  0  0  0  0  0
  -25.4728  -15.0538   20.4029 N   0  0  0  0  0  0  0  0  0  0  0  0
  -21.8854  -12.5829   21.5950 N   0  0  0  0  0  0  0  0  0  0  0  0
  -30.0801  -15.6933   21.4740 N   0  0  0  0  0  0  0  0  0  0  0  0
  -17.8586  -21.2124   27.8064 N   0  0  0  0  0  0  0  0  0  0  0  0
  -22.0350  -25.8983   27.7628 N   0  0  0  0  0  0  0  0  0  0  0  0
  -24.6351  -26.6069   30.1722 N   0  3  0  0  0  0  0  0  0  0  0  0
  -29.1082  -20.5049   28.5318 O   0  0  0  0  0  0  0  0  0  0  0  0
  -22.6622  -14.7219   21.3123 O   0  0  0  0  0  0  0  0  0  0  0  0
  -18.5779  -22.0935   25.7744 O   0  0  0  0  0  0  0  0  0  0  0  0
  -20.0976  -24.1706   28.2707 O   0  0  0  0  0  0  0  0  0  0  0  0
  -24.3079  -25.4605   27.6236 O   0  0  0  0  0  0  0  0  0  0  0  0
  -31.8580  -14.9340   20.1917 O   0  0  0  0  0  0  0  0  0  0  0  0
  -21.6075   -7.0208   21.7084 O   0  0  0  0  0  0  0  0  0  0  0  0
  -26.2126  -20.1124   25.5393 O   0  0  0  0  0  0  0  0  0  1  0  0
  -16.9295   -7.5719   24.5749 F   0  0  0  0  0  0  0  0  0  0  0  0
  -21.2526   -5.7008   24.1114 F   0  0  0  0  0  0  0  0  0  0  0  0
  1  2  1  0  0  0  0
  1  6  2  0  0  0  0
  2  7  2  0  0  0  0
  3 10  2  0  0  0  0
  3 17  1  0  0  0  0
  4 11  1  0  0  0  0
  4 17  2  0  0  0  0
  5  9  2  0  0  0  0
  5 18  1  0  0  0  0
  6 20  1  0  0  0  0
  7 22  1  0  0  0  0
  8 12  2  0  0  0  0
  8 21  1  0  0  0  0
  9 25  1  0  0  0  0
 10 27  1  0  0  0  0
 11 27  2  0  0  0  0
 12 28  1  0  0  0  0
 13 14  2  0  0  0  0
 13 29  1  0  0  0  0
 14 30  1  0  0  0  0
 15 23  1  0  0  0  0
 15 28  2  0  0  0  0
 16 30  2  0  0  0  0
 16 31  1  0  0  0  0
 17 32  1  0  0  0  0
 18 26  2  0  0  0  0
 18 37  1  0  0  0  0
 19 32  1  0  0  0  0
 19 33  2  0  0  0  0
 19 39  1  0  0  0  0
 20 22  2  0  0  0  0
 20 44  1  0  0  0  0
 21 23  2  0  0  0  0
 21 45  1  0  0  0  0
 22 56  1  0  0  0  0
 23 46  1  0  0  0  0
 24 25  2  0  0  0  0
 24 26  1  0  0  0  0
 24 59  1  0  0  0  0
 25 70  1  0  0  0  0
 26 75  1  0  0  0  0
 27 85  1  0  0  0  0
 28 86  1  0  0  0  0
 29 31  2  0  0  0  0
 29 85  1  0  0  0  0
 30 87  1  0  0  0  0
 31 88  1  0  0  0  0
 32 68  2  0  0  0  0
 33 69  1  0  0  0  0
 33 73  1  0  0  0  0
 34 35  1  0  0  0  0
 34 38  2  0  0  0  0
 34 47  1  0  0  0  0
 35 48  1  0  0  0  0
 35 79  2  0  0  0  0
 36 37  2  0  0  0  0
 38 86  1  0  0  0  0
 39 74  1  0  0  0  0
 39 80  2  0  0  0  0
 40 57  1  0  0  0  0
 40 76  1  0  0  0  0
 40 81  2  0  0  0  0
 41 65  1  0  0  0  0
 41 71  1  0  0  0  0
 41 82  2  0  0  0  0
 42 66  1  0  0  0  0
 42 77  1  0  0  0  0
 42 83  2  0  0  0  0
 43 72  1  0  0  0  0
 43 75  1  0  0  0  0
 43 84  2  0  0  0  0
 44 49  1  0  0  0  0
 45 57  1  0  0  0  0
 46 71  1  0  0  0  0
 47 70  1  0  0  0  0
 48 53  1  0  0  0  0
 49 51  1  0  0  0  0
 50 52  1  0  0  0  0
 50 54  1  0  0  0  0
 51 56  1  0  0  0  0
 52 58  1  0  0  0  0
 53 70  1  0  0  0  0
 54 72  1  0  0  0  0
 55 58  1  0  0  0  0
 55 72  1  0  0  0  0
 56 76  1  0  0  0  0
 57 71  1  0  0  0  0
 58 69  1  0  0  0  0
 60 66  1  0  0  0  0
 61 67  1  0  0  0  0
 62 67  1  0  0  0  0
 63 67  1  0  0  0  0
 64 78  1  0  0  0  0
 65 67  1  0  0  0  0
 65 77  1  0  0  0  0
 66 78  1  0  0  0  0
 68 69  1  0  0  0  0
M  CHG  1  78   1
M  ISO  4  38 101  43 100  75 100  86 101
M  END
> <Batch ID>
0113

> <Smiles>
C=Cc1ccc(N2CCC(=O)C(=[101CH:1][101O:1]c3ccc4c(c3)CN(C(=O)C(NC(=O)C(C)NC)C(C)(C)C)C(C(=O)NC3CCCc5ccccc53)C4)C2)c(C)c1[100NH:0][100C:0](=O)N1CCCC(n2nc(-c3ccc(Oc4ccc(F)cc4F)cc3)c(C(N)=O)c2N)C1

> <Shape>
0.157

> <Color>
0.187

> <Negative vol penalty>
0.000

$$$$

  -OEChem-04052301343D

 87 95  0     1  0  0  0  0  0999 V2000
  -25.1815  -29.0166   20.1273 C   0  0  0  0  0  0  0  0  0  0  0  0
  -24.8666  -27.8242   19.4834 C   0  0  0  0  0  0  0  0  0  0  0  0
  -23.9812  -15.6559   22.5662 C   0  0  0  0  0  0  0  0  0  0  0  0
  -23.0493  -15.6747   20.3372 C   0  0  0  0  0  0  0  0  0  0  0  0
  -26.4784  -29.2364   20.5897 C   0  0  0  0  0  0  0  0  0  0  0  0
  -25.8487  -26.8514   19.3005 C   0  0  0  0  0  0  0  0  0  0  0  0
  -24.2010  -22.1940   20.4131 C   0  0  0  0  0  0  0  0  0  0  0  0
  -23.2295  -16.7854   22.8900 C   0  0  0  0  0  0  0  0  0  0  0  0
  -22.2976  -16.8042   20.6610 C   0  0  0  0  0  0  0  0  0  0  0  0
  -23.4034  -21.5570   19.4634 C   0  0  0  0  0  0  0  0  0  0  0  0
  -19.4492  -17.5009   22.3408 C   0  0  0  0  0  0  0  0  0  0  0  0
  -18.1090  -17.5181   21.9548 C   0  0  0  0  0  0  0  0  0  0  0  0
  -27.2255  -14.9404   14.4751 C   0  0  0  0  0  0  0  0  0  0  0  0
  -28.9694  -15.9408   15.8148 C   0  0  0  0  0  0  0  0  0  0  0  0
  -25.3180  -20.2986   18.7083 C   0  0  0  0  0  0  0  0  0  0  0  0
  -27.5492  -17.3344   14.4444 C   0  0  0  0  0  0  0  0  0  0  0  0
  -18.5171  -19.4942   20.6259 C   0  0  0  0  0  0  0  0  0  0  0  0
  -23.8911  -15.1006   21.2898 C   0  0  0  0  0  0  0  0  0  0  0  0
  -28.2803  -14.8093   15.3784 C   0  0  0  0  0  0  0  0  0  0  0  0
  -24.2860  -12.5873   21.1026 C   0  0  0  0  0  0  0  0  0  0  0  0
  -27.4745  -28.2618   20.4209 C   0  0  0  0  0  0  0  0  0  0  0  0
  -25.5677  -21.8955   20.5104 C   0  0  0  0  0  0  0  0  0  0  0  0
  -27.1605  -27.0590   19.7598 C   0  0  0  0  0  0  0  0  0  0  0  0
  -26.1302  -20.9314   19.6617 C   0  0  0  0  0  0  0  0  0  0  0  0
  -26.8601  -16.2029   14.0080 C   0  0  0  0  0  0  0  0  0  0  0  0
  -22.3877  -17.3595   21.9375 C   0  0  0  0  0  0  0  0  0  0  0  0
  -23.9624  -20.6113   18.6089 C   0  0  0  0  0  0  0  0  0  0  0  0
  -20.3234  -18.4804   21.8695 C   0  0  0  0  0  0  0  0  0  0  0  0
  -28.6040  -17.2034   15.3478 C   0  0  0  0  0  0  0  0  0  0  0  0
  -17.6429  -18.5147   21.0973 C   0  0  0  0  0  0  0  0  0  0  0  0
  -19.8574  -19.4770   21.0121 C   0  0  0  0  0  0  0  0  0  0  0  0
  -24.6678  -13.9342   20.9545 C   0  0  0  0  0  0  0  0  0  0  0  0
  -25.3654  -11.8721   20.6444 C   0  0  0  0  0  0  0  0  0  0  0  0
  -28.6613  -13.4929   15.8655 C   0  0  0  0  0  0  0  0  0  0  0  0
  -23.0649  -12.0323   21.6089 C   0  0  0  0  0  0  0  0  0  0  0  0
  -29.7761  -13.3187   16.8247 C   0  0  0  0  0  0  0  0  0  0  0  0
  -28.2566  -23.5520   20.1505 C   0  0  0  0  0  0  0  0  0  0  0  0
  -29.6292  -20.8071   21.2011 C   0  0  0  0  0  0  0  0  0  0  0  0
  -23.9559  -17.7592   14.0437 C   0  0  0  0  0  0  0  0  0  0  0  0
  -29.4184  -17.4217   21.5768 C   0  0  0  0  0  0  0  0  0  0  0  0
  -28.8738  -28.5641   20.8956 C   0  0  0  0  0  0  0  0  0  0  0  0
  -26.4088  -22.5719   21.5579 C   0  0  0  0  0  0  0  0  0  0  0  0
  -27.5879  -20.5604   19.7391 C   0  0  0  0  0  0  0  0  0  0  0  0
  -29.7637  -27.3279   20.9949 C   0  0  0  0  0  0  0  0  0  0  0  0
  -30.1129  -12.1181   20.1865 C   0  0  0  0  0  0  0  0  0  0  0  0
  -29.6304  -26.4719   19.7394 C   0  0  0  0  0  0  0  0  0  0  0  0
  -28.7294  -12.3616   20.7886 C   0  0  0  0  0  0  0  0  0  0  0  0
  -30.4834  -13.2040   19.1817 C   0  0  0  0  0  0  0  0  0  0  0  0
  -28.0906  -13.6259   18.6865 C   0  0  0  0  0  0  0  0  0  0  0  0
  -28.1923  -25.9693   19.5645 C   0  0  1  0  0  0  0  0  0  0  0  0
  -27.8976  -22.5650   21.2250 C   0  0  1  0  0  0  0  0  0  0  0  0
  -27.6698  -12.5342   19.6858 C   0  0  2  0  0  0  0  0  0  0  0  0
  -30.7123  -15.4507   22.4362 C   0  0  0  0  0  0  0  0  0  0  0  0
  -31.3979  -20.8878   18.7161 C   0  0  0  0  0  0  0  0  0  0  0  0
  -31.9642  -18.4837   19.1263 C   0  0  0  0  0  0  0  0  0  0  0  0
  -32.5784  -20.2137   20.8153 C   0  0  0  0  0  0  0  0  0  0  0  0
  -27.3393  -16.7851   23.5846 C   0  0  0  0  0  0  0  0  0  0  0  0
  -28.8503  -19.5670   15.2564 C   0  0  0  0  0  0  0  0  0  0  0  0
  -25.7249  -16.3441   13.0355 C   0  0  0  0  0  0  0  0  0  0  0  0
  -23.4192  -19.1792   14.0157 C   0  0  0  0  0  0  0  0  0  0  0  0
  -22.8005  -19.5950   15.3454 C   0  0  0  0  0  0  0  0  0  0  0  0
  -23.8235  -19.5769   16.4719 C   0  0  0  0  0  0  0  0  0  1  0  0
  -30.1531  -19.5537   20.5427 C   0  0  1  0  0  0  0  0  0  0  0  0
  -29.6858  -16.5220   22.7699 C   0  0  2  0  0  0  0  0  0  0  0  0
  -31.4963  -19.7929   19.7971 C   0  0  0  0  0  0  0  0  0  0  0  0
  -25.8940  -14.0693   20.4425 N   0  0  0  0  0  0  0  0  0  0  0  0
  -28.0598  -12.3926   15.5018 N   0  0  0  0  0  0  0  0  0  0  0  0
  -26.2921  -12.7981   20.2648 N   0  0  0  0  0  0  0  0  0  0  0  0
  -29.4407  -13.3667   18.1706 N   0  0  0  0  0  0  0  0  0  0  0  0
  -28.3702  -21.2539   20.7757 N   0  0  0  0  0  0  0  0  0  0  0  0
  -25.6027  -10.5479   20.5332 N   0  0  0  0  0  0  0  0  0  0  0  0
  -22.0594  -12.9096   22.0375 N   0  0  0  0  0  0  0  0  0  0  0  0
  -27.9325  -24.8599   20.4568 N   0  0  0  0  0  0  0  0  0  0  0  0
  -25.0366  -17.6040   13.1879 N   0  0  0  0  0  0  0  0  0  0  0  0
  -30.2234  -18.5411   21.5906 N   0  0  0  0  0  0  0  0  0  0  0  0
  -28.4286  -15.8495   23.2036 N   0  3  0  0  0  0  0  0  0  0  0  0
  -22.8775  -10.7949   21.6945 O   0  0  0  0  0  0  0  0  0  0  0  0
  -30.8807  -13.1506   16.3247 O   0  0  0  0  0  0  0  0  0  0  0  0
  -28.7896  -23.1564   19.1204 O   0  0  0  0  0  0  0  0  0  0  0  0
  -30.3089  -21.3651   22.0662 O   0  0  0  0  0  0  0  0  0  0  0  0
  -23.4787  -16.8712   14.7452 O   0  0  0  0  0  0  0  0  0  0  0  0
  -28.5819  -17.1560   20.7165 O   0  0  0  0  0  0  0  0  0  0  0  0
  -21.6539  -18.4615   22.2532 O   0  0  0  0  0  0  0  0  0  0  0  0
  -29.2763  -18.3074   15.7739 O   0  0  0  0  0  0  0  0  0  0  0  0
  -23.1863  -19.9885   17.6806 O   0  0  0  0  0  0  0  0  0  1  0  0
  -16.3562  -18.5302   20.7254 F   0  0  0  0  0  0  0  0  0  0  0  0
  -20.6927  -20.4199   20.5550 F   0  0  0  0  0  0  0  0  0  0  0  0
  1  2  1  0  0  0  0
  1  5  2  0  0  0  0
  2  6  2  0  0  0  0
  3  8  2  0  0  0  0
  3 18  1  0  0  0  0
  4  9  1  0  0  0  0
  4 18  2  0  0  0  0
  5 21  1  0  0  0  0
  6 23  1  0  0  0  0
  7 10  2  0  0  0  0
  7 22  1  0  0  0  0
  8 26  1  0  0  0  0
  9 26  2  0  0  0  0
 10 27  1  0  0  0  0
 11 12  2  0  0  0  0
 11 28  1  0  0  0  0
 12 30  1  0  0  0  0
 13 19  1  0  0  0  0
 13 25  2  0  0  0  0
 14 19  2  0  0  0  0
 14 29  1  0  0  0  0
 15 24  1  0  0  0  0
 15 27  2  0  0  0  0
 16 25  1  0  0  0  0
 16 29  2  0  0  0  0
 17 30  2  0  0  0  0
 17 31  1  0  0  0  0
 18 32  1  0  0  0  0
 19 34  1  0  0  0  0
 20 32  1  0  0  0  0
 20 33  2  0  0  0  0
 20 35  1  0  0  0  0
 21 23  2  0  0  0  0
 21 41  1  0  0  0  0
 22 24  2  0  0  0  0
 22 42  1  0  0  0  0
 23 50  1  0  0  0  0
 24 43  1  0  0  0  0
 25 59  1  0  0  0  0
 26 83  1  0  0  0  0
 27 85  1  0  0  0  0
 28 31  2  0  0  0  0
 28 83  1  0  0  0  0
 29 84  1  0  0  0  0
 30 86  1  0  0  0  0
 31 87  1  0  0  0  0
 32 66  2  0  0  0  0
 33 68  1  0  0  0  0
 33 71  1  0  0  0  0
 34 36  1  0  0  0  0
 34 67  2  0  0  0  0
 35 72  1  0  0  0  0
 35 77  2  0  0  0  0
 36 69  1  0  0  0  0
 36 78  2  0  0  0  0
 37 51  1  0  0  0  0
 37 73  1  0  0  0  0
 37 79  2  0  0  0  0
 38 63  1  0  0  0  0
 38 70  1  0  0  0  0
 38 80  2  0  0  0  0
 39 60  1  0  0  0  0
 39 74  1  0  0  0  0
 39 81  2  0  0  0  0
 40 64  1  0  0  0  0
 40 75  1  0  0  0  0
 40 82  2  0  0  0  0
 41 44  1  0  0  0  0
 42 51  1  0  0  0  0
 43 70  1  0  0  0  0
 44 46  1  0  0  0  0
 45 47  1  0  0  0  0
 45 48  1  0  0  0  0
 46 50  1  0  0  0  0
 47 52  1  0  0  0  0
 48 69  1  0  0  0  0
 49 52  1  0  0  0  0
 49 69  1  0  0  0  0
 50 73  1  0  0  0  0
 51 70  1  0  0  0  0
 52 68  1  0  0  0  0
 53 64  1  0  0  0  0
 54 65  1  0  0  0  0
 55 65  1  0  0  0  0
 56 65  1  0  0  0  0
 57 76  1  0  0  0  0
 58 84  1  0  0  0  0
 59 74  1  0  0  0  0
 60 61  1  0  0  0  0
 61 62  1  0  0  0  0
 62 85  1  0  0  0  0
 63 65  1  0  0  0  0
 63 75  1  0  0  0  0
 64 76  1  0  0  0  0
 66 68  1  0  0  0  0
M  CHG  1  76   1
M  ISO  4  34 100  36 100  62 101  85 101
M  END
> <Batch ID>
0113

> <Smiles>
CNC(C)C(=O)NC(C(=O)N1Cc2cc([101O:1][101CH2:1]CCC(=O)NCc3cc(OC)cc([100C:0](=N)[100C:0](=O)N4CCCC(n5nc(-c6ccc(Oc7ccc(F)cc7F)cc6)c(C(N)=O)c5N)C4)c3)ccc2CC1C(=O)NC1CCCc2ccccc21)C(C)(C)C

> <Shape>
0.211

> <Color>
0.096

> <Negative vol penalty>
0.000

$$$$

  -OEChem-04052301343D

 90 98  0     1  0  0  0  0  0999 V2000
  -32.0690  -33.1037   14.7805 C   0  0  0  0  0  0  0  0  0  0  0  0
  -31.0554  -32.2970   14.2735 C   0  0  0  0  0  0  0  0  0  0  0  0
  -23.1954   -9.8154   19.9272 C   0  0  0  0  0  0  0  0  0  0  0  0
  -23.5540   -9.9968   22.3095 C   0  0  0  0  0  0  0  0  0  0  0  0
  -33.3001  -32.5439   15.1196 C   0  0  0  0  0  0  0  0  0  0  0  0
  -31.2726  -30.9300   14.1043 C   0  0  0  0  0  0  0  0  0  0  0  0
  -27.1748  -26.4350   14.8177 C   0  0  0  0  0  0  0  0  0  0  0  0
  -22.4272   -8.6690   20.1301 C   0  0  0  0  0  0  0  0  0  0  0  0
  -22.7857   -8.8504   22.5124 C   0  0  0  0  0  0  0  0  0  0  0  0
  -26.3954  -25.7231   13.9069 C   0  0  0  0  0  0  0  0  0  0  0  0
  -23.1883   -5.5035   22.2532 C   0  0  0  0  0  0  0  0  0  0  0  0
  -23.6791   -4.5425   23.1370 C   0  0  0  0  0  0  0  0  0  0  0  0
  -28.0473  -23.9654   13.8763 C   0  0  0  0  0  0  0  0  0  0  0  0
  -21.7111   -4.8035   24.5139 C   0  0  0  0  0  0  0  0  0  0  0  0
  -26.2954  -18.6821   16.3131 C   0  0  0  0  0  0  0  0  0  0  0  0
  -23.7588  -10.4793   21.0169 C   0  0  0  0  0  0  0  0  0  0  0  0
  -27.9442  -17.9188   14.9832 C   0  0  0  0  0  0  0  0  0  0  0  0
  -24.1001  -12.9957   20.7748 C   0  0  0  0  0  0  0  0  0  0  0  0
  -33.5293  -31.1678   14.9635 C   0  0  0  0  0  0  0  0  0  0  0  0
  -28.4036  -25.9216   15.2569 C   0  0  0  0  0  0  0  0  0  0  0  0
  -32.5084  -30.3515   14.4404 C   0  0  0  0  0  0  0  0  0  0  0  0
  -28.8393  -24.6716   14.7946 C   0  0  0  0  0  0  0  0  0  0  0  0
  -26.7277  -18.6444   15.0058 C   0  0  0  0  0  0  0  0  0  0  0  0
  -22.2223   -8.1865   21.4227 C   0  0  0  0  0  0  0  0  0  0  0  0
  -26.8329  -24.4895   13.4339 C   0  0  0  0  0  0  0  0  0  0  0  0
  -21.9588   -6.1146   22.4998 C   0  0  0  0  0  0  0  0  0  0  0  0
  -22.9405   -4.1924   24.2673 C   0  0  0  0  0  0  0  0  0  0  0  0
  -21.2203   -5.7646   23.6301 C   0  0  0  0  0  0  0  0  0  0  0  0
  -24.5530  -11.6632   20.8079 C   0  0  0  0  0  0  0  0  0  0  0  0
  -28.2183  -17.5350   16.2775 C   0  0  0  0  0  0  0  0  0  0  0  0
  -25.2333  -13.7380   20.5485 C   0  0  0  0  0  0  0  0  0  0  0  0
  -25.6401  -22.5482   12.9052 C   0  0  0  0  0  0  0  0  0  1  0  0
  -28.7681  -17.6180   13.8450 C   0  0  0  0  0  0  0  0  0  0  0  0
  -22.7736  -13.5160   20.9344 C   0  0  0  0  0  0  0  0  0  0  0  0
  -29.3804  -16.7555   16.7761 C   0  0  0  0  0  0  0  0  0  0  0  0
  -24.8886  -21.7646   12.1201 C   0  0  0  0  0  0  0  0  0  0  0  0
  -24.4582  -20.4175   12.5967 C   0  0  0  0  0  0  0  0  0  0  0  0
  -24.8683  -19.9419   13.9564 C   0  0  0  0  0  0  0  0  0  0  0  0
  -31.4305  -26.8723   15.0615 C   0  0  0  0  0  0  0  0  0  0  0  0
  -31.9497  -24.3176   16.9920 C   0  0  0  0  0  0  0  0  0  0  0  0
  -30.8937  -21.2729   18.1151 C   0  0  0  0  0  0  0  0  0  0  0  0
  -30.0173  -14.6480   17.9058 C   0  0  0  0  0  0  0  0  0  0  0  0
  -34.8922  -30.6162   15.2995 C   0  0  0  0  0  0  0  0  0  0  0  0
  -29.2200  -26.6896   16.2600 C   0  0  0  0  0  0  0  0  0  0  0  0
  -30.1412  -24.0672   15.2507 C   0  0  0  0  0  0  0  0  0  0  0  0
  -34.9162  -29.0965   15.4414 C   0  0  0  0  0  0  0  0  0  0  0  0
  -30.1194  -12.4066   20.6376 C   0  0  0  0  0  0  0  0  0  0  0  0
  -34.1721  -28.4403   14.2827 C   0  0  0  0  0  0  0  0  0  0  0  0
  -28.6428  -12.1269   20.9306 C   0  0  0  0  0  0  0  0  0  0  0  0
  -30.3870  -12.5289   19.1382 C   0  0  0  0  0  0  0  0  0  0  0  0
  -28.0568  -13.2023   18.7206 C   0  0  0  0  0  0  0  0  0  0  0  0
  -32.6974  -28.8602   14.2656 C   0  0  1  0  0  0  0  0  0  0  0  0
  -30.6971  -26.3085   16.2456 C   0  0  1  0  0  0  0  0  0  0  0  0
  -27.7233  -13.1403   20.2200 C   0  0  1  0  0  0  0  0  0  0  0  0
  -28.0966  -17.4642   12.5022 C   0  0  0  0  0  0  0  0  0  0  0  0
  -24.4265  -22.1533   10.7474 C   0  0  0  0  0  0  0  0  0  0  0  0
  -31.5475  -19.4092   19.6631 C   0  0  0  0  0  0  0  0  0  0  0  0
  -34.0276  -23.3695   14.9689 C   0  0  0  0  0  0  0  0  0  0  0  0
  -33.9450  -21.1114   16.0471 C   0  0  0  0  0  0  0  0  0  0  0  0
  -34.6993  -23.0925   17.3619 C   0  0  0  0  0  0  0  0  0  0  0  0
  -27.1074  -17.8217   18.5084 C   0  0  0  0  0  0  0  0  0  0  0  0
  -28.4553  -21.6240   19.7551 C   0  0  0  0  0  0  0  0  0  0  0  0
  -32.2524  -22.8552   16.7717 C   0  0  1  0  0  0  0  0  0  0  0  0
  -30.7657  -20.7054   19.5173 C   0  0  2  0  0  0  0  0  0  0  0  0
  -33.7074  -22.6191   16.2771 C   0  0  0  0  0  0  0  0  0  0  0  0
  -25.8712  -11.5618   20.6177 N   0  0  0  0  0  0  0  0  0  0  0  0
  -27.2091  -18.0042   17.0772 N   0  0  0  0  0  0  0  0  0  0  0  0
  -26.2563  -12.8400   20.4629 N   0  0  0  0  0  0  0  0  0  0  0  0
  -30.9068  -24.8594   16.2273 N   0  0  0  0  0  0  0  0  0  0  0  0
  -29.4829  -13.5141   18.5422 N   0  0  0  0  0  0  0  0  0  0  0  0
  -25.4447  -15.0648   20.4164 N   0  0  0  0  0  0  0  0  0  0  0  0
  -21.7248  -12.6141   21.1601 N   0  0  0  0  0  0  0  0  0  0  0  0
  -26.0515  -19.2355   13.9137 N   0  0  0  0  0  0  0  0  0  0  0  0
  -29.0712  -15.5500   17.4066 N   0  0  0  0  0  0  0  0  0  0  0  0
  -31.9533  -28.1339   15.2722 N   0  0  0  0  0  0  0  0  0  0  0  0
  -31.9295  -22.1784   18.0231 N   0  0  0  0  0  0  0  0  0  0  0  0
  -29.3362  -20.4306   19.8364 N   0  3  0  0  0  0  0  0  0  0  0  0
  -30.0015  -17.4655   13.8642 O   0  0  0  0  0  0  0  0  0  0  0  0
  -22.5232  -14.7430   20.8620 O   0  0  0  0  0  0  0  0  0  0  0  0
  -30.5152  -17.1807   16.5776 O   0  0  0  0  0  0  0  0  0  0  0  0
  -23.7625  -19.6571   11.9370 O   0  0  0  0  0  0  0  0  0  0  0  0
  -24.1238  -20.2159   14.8827 O   0  0  0  0  0  0  0  0  0  0  0  0
  -31.5169  -26.2109   14.0335 O   0  0  0  0  0  0  0  0  0  0  0  0
  -32.6093  -24.9541   17.8175 O   0  0  0  0  0  0  0  0  0  0  0  0
  -30.1516  -20.9429   17.1927 O   0  0  0  0  0  0  0  0  0  0  0  0
  -31.2314  -14.8585   17.8227 O   0  0  0  0  0  0  0  0  0  0  0  0
  -21.4725   -7.0680   21.6211 O   0  0  0  0  0  0  0  0  0  0  0  0
  -26.0744  -23.7928   12.5444 O   0  0  0  0  0  0  0  0  0  1  0  0
  -23.4113   -3.2684   25.1151 F   0  0  0  0  0  0  0  0  0  0  0  0
  -20.0380   -6.3474   23.8717 F   0  0  0  0  0  0  0  0  0  0  0  0
  1  2  1  0  0  0  0
  1  5  2  0  0  0  0
  2  6  2  0  0  0  0
  3  8  2  0  0  0  0
  3 16  1  0  0  0  0
  4  9  1  0  0  0  0
  4 16  2  0  0  0  0
  5 19  1  0  0  0  0
  6 21  1  0  0  0  0
  7 10  2  0  0  0  0
  7 20  1  0  0  0  0
  8 24  1  0  0  0  0
  9 24  2  0  0  0  0
 10 25  1  0  0  0  0
 11 12  2  0  0  0  0
 11 26  1  0  0  0  0
 12 27  1  0  0  0  0
 13 22  1  0  0  0  0
 13 25  2  0  0  0  0
 14 27  2  0  0  0  0
 14 28  1  0  0  0  0
 15 23  2  0  0  0  0
 15 67  1  0  0  0  0
 16 29  1  0  0  0  0
 17 23  1  0  0  0  0
 17 30  2  0  0  0  0
 17 33  1  0  0  0  0
 18 29  1  0  0  0  0
 18 31  2  0  0  0  0
 18 34  1  0  0  0  0
 19 21  2  0  0  0  0
 19 43  1  0  0  0  0
 20 22  2  0  0  0  0
 20 44  1  0  0  0  0
 21 52  1  0  0  0  0
 22 45  1  0  0  0  0
 23 73  1  0  0  0  0
 24 87  1  0  0  0  0
 25 88  1  0  0  0  0
 26 28  2  0  0  0  0
 26 87  1  0  0  0  0
 27 89  1  0  0  0  0
 28 90  1  0  0  0  0
 29 66  2  0  0  0  0
 30 35  1  0  0  0  0
 30 67  1  0  0  0  0
 31 68  1  0  0  0  0
 31 71  1  0  0  0  0
 32 36  2  0  0  0  0
 32 88  1  0  0  0  0
 33 55  1  0  0  0  0
 33 78  2  0  0  0  0
 34 72  1  0  0  0  0
 34 79  2  0  0  0  0
 35 74  1  0  0  0  0
 35 80  2  0  0  0  0
 36 37  1  0  0  0  0
 36 56  1  0  0  0  0
 37 38  1  0  0  0  0
 37 81  2  0  0  0  0
 38 73  1  0  0  0  0
 38 82  2  0  0  0  0
 39 53  1  0  0  0  0
 39 75  1  0  0  0  0
 39 83  2  0  0  0  0
 40 63  1  0  0  0  0
 40 69  1  0  0  0  0
 40 84  2  0  0  0  0
 41 64  1  0  0  0  0
 41 76  1  0  0  0  0
 41 85  2  0  0  0  0
 42 70  1  0  0  0  0
 42 74  1  0  0  0  0
 42 86  2  0  0  0  0
 43 46  1  0  0  0  0
 44 53  1  0  0  0  0
 45 69  1  0  0  0  0
 46 48  1  0  0  0  0
 47 49  1  0  0  0  0
 47 50  1  0  0  0  0
 48 52  1  0  0  0  0
 49 54  1  0  0  0  0
 50 70  1  0  0  0  0
 51 54  1  0  0  0  0
 51 70  1  0  0  0  0
 52 75  1  0  0  0  0
 53 69  1  0  0  0  0
 54 68  1  0  0  0  0
 57 64  1  0  0  0  0
 58 65  1  0  0  0  0
 59 65  1  0  0  0  0
 60 65  1  0  0  0  0
 61 67  1  0  0  0  0
 62 77  1  0  0  0  0
 63 65  1  0  0  0  0
 63 76  1  0  0  0  0
 64 77  1  0  0  0  0
 66 68  1  0  0  0  0
M  CHG  1  77   1
M  ISO  4  32 101  42 100  74 100  88 101
M  END
> <Batch ID>
0113

> <Smiles>
CNC(C)C(=O)NC(C(=O)N1Cc2cc([101O:1][101CH:1]=C(C)C(=O)C(=O)Nc3cn(C)c(C(=O)[100NH:0][100C:0](=O)N4CCCC(n5nc(-c6ccc(Oc7ccc(F)cc7F)cc6)c(C(N)=O)c5N)C4)c3C(C)=O)ccc2CC1C(=O)NC1CCCc2ccccc21)C(C)(C)C

> <Shape>
0.167

> <Color>
0.168

> <Negative vol penalty>
0.000

$$$$

  -OEChem-04052301343D

 82 90  0     1  0  0  0  0  0999 V2000
  -30.2895  -33.9975   17.2597 C   0  0  0  0  0  0  0  0  0  0  0  0
  -30.3494  -32.6077   17.2494 C   0  0  0  0  0  0  0  0  0  0  0  0
  -23.5120  -16.6724   22.3682 C   0  0  0  0  0  0  0  0  0  0  0  0
  -22.6135  -16.4513   20.1364 C   0  0  0  0  0  0  0  0  0  0  0  0
  -29.6718  -34.6597   18.3199 C   0  0  0  0  0  0  0  0  0  0  0  0
  -29.7924  -31.8791   18.2998 C   0  0  0  0  0  0  0  0  0  0  0  0
  -27.0299  -26.4252   17.9393 C   0  0  0  0  0  0  0  0  0  0  0  0
  -29.4220  -19.0414   22.5727 C   0  0  0  0  0  0  0  0  0  0  0  0
  -29.8451  -17.7125   22.5977 C   0  0  0  0  0  0  0  0  0  0  0  0
  -22.5973  -17.6909   22.6356 C   0  0  0  0  0  0  0  0  0  0  0  0
  -21.6987  -17.4698   20.4038 C   0  0  0  0  0  0  0  0  0  0  0  0
  -27.4775  -25.1287   18.1894 C   0  0  0  0  0  0  0  0  0  0  0  0
  -22.2703  -20.9859   21.9573 C   0  0  0  0  0  0  0  0  0  0  0  0
  -22.7449  -22.1305   22.5978 C   0  0  0  0  0  0  0  0  0  0  0  0
  -26.5544  -25.2458   20.4150 C   0  0  0  0  0  0  0  0  0  0  0  0
  -30.6657  -17.9310   20.3359 C   0  0  0  0  0  0  0  0  0  0  0  0
  -21.2133  -21.7426   24.4257 C   0  0  0  0  0  0  0  0  0  0  0  0
  -23.5202  -16.0526   21.1186 C   0  0  0  0  0  0  0  0  0  0  0  0
  -24.2860  -13.6202   21.0503 C   0  0  0  0  0  0  0  0  0  0  0  0
  -29.0984  -33.9385   19.3790 C   0  0  0  0  0  0  0  0  0  0  0  0
  -26.3497  -27.1470   18.9306 C   0  0  0  0  0  0  0  0  0  0  0  0
  -29.1676  -32.5322   19.3758 C   0  0  0  0  0  0  0  0  0  0  0  0
  -26.0970  -26.5504   20.1742 C   0  0  0  0  0  0  0  0  0  0  0  0
  -30.2425  -19.2599   20.3108 C   0  0  0  0  0  0  0  0  0  0  0  0
  -29.6207  -19.8151   21.4291 C   0  0  0  0  0  0  0  0  0  0  0  0
  -30.4670  -17.1573   21.4794 C   0  0  0  0  0  0  0  0  0  0  0  0
  -21.6906  -18.0896   21.6534 C   0  0  0  0  0  0  0  0  0  0  0  0
  -27.2423  -24.5399   19.4284 C   0  0  0  0  0  0  0  0  0  0  0  0
  -21.2672  -20.2197   22.5509 C   0  0  0  0  0  0  0  0  0  0  0  0
  -22.2164  -22.5089   23.8320 C   0  0  0  0  0  0  0  0  0  0  0  0
  -20.7388  -20.5980   23.7851 C   0  0  0  0  0  0  0  0  0  0  0  0
  -24.4652  -15.0009   20.8415 C   0  0  0  0  0  0  0  0  0  0  0  0
  -25.4648  -13.0537   20.6309 C   0  0  0  0  0  0  0  0  0  0  0  0
  -27.9784  -21.3491   21.0103 C   0  0  0  0  0  0  0  0  0  0  0  0
  -23.1551  -12.9131   21.5761 C   0  0  0  0  0  0  0  0  0  0  0  0
  -26.8997  -29.8470   20.5154 C   0  0  0  0  0  0  0  0  0  0  0  0
  -23.9220  -29.3100   21.6849 C   0  0  0  0  0  0  0  0  0  0  0  0
  -21.4426  -27.0702   22.3796 C   0  0  0  0  0  0  0  0  0  0  0  0
  -30.9443  -15.0034   20.3286 C   0  0  0  0  0  0  0  0  0  0  0  0
  -28.4830  -34.6998   20.5264 C   0  0  0  0  0  0  0  0  0  0  0  0
  -25.8499  -28.5347   18.6360 C   0  0  0  0  0  0  0  0  0  0  0  0
  -25.3535  -27.2752   21.2651 C   0  0  0  0  0  0  0  0  0  0  0  0
  -27.5871  -33.8417   21.4159 C   0  0  0  0  0  0  0  0  0  0  0  0
  -29.0784  -13.7328   17.5815 C   0  0  0  0  0  0  0  0  0  0  0  0
  -28.2752  -32.5226   21.7526 C   0  0  0  0  0  0  0  0  0  0  0  0
  -27.6531  -13.7911   18.1299 C   0  0  0  0  0  0  0  0  0  0  0  0
  -29.9046  -14.9480   18.0043 C   0  0  0  0  0  0  0  0  0  0  0  0
  -28.4927  -15.2445   20.0150 C   0  0  0  0  0  0  0  0  0  0  0  0
  -28.5531  -31.7060   20.4848 C   0  0  1  0  0  0  0  0  0  0  0  0
  -25.6188  -29.3662   19.8940 C   0  0  1  0  0  0  0  0  0  0  0  0
  -27.6560  -14.0073   19.6535 C   0  0  1  0  0  0  0  0  0  0  0  0
  -30.4649  -20.0690   19.0748 C   0  0  0  0  0  0  0  0  0  0  0  0
  -19.1408  -26.9235   23.3685 C   0  0  0  0  0  0  0  0  0  0  0  0
  -25.1105  -29.5675   24.4833 C   0  0  0  0  0  0  0  0  0  0  0  0
  -23.0372  -28.4938   25.3870 C   0  0  0  0  0  0  0  0  0  0  0  0
  -22.8883  -30.6760   24.1876 C   0  0  0  0  0  0  0  0  0  0  0  0
  -31.5385  -15.2720   22.7266 C   0  0  0  0  0  0  0  0  0  0  0  0
  -20.2921  -26.0632   19.8456 C   0  0  0  0  0  0  0  0  0  0  0  0
  -27.4032  -22.7332   20.9665 C   0  0  0  0  0  0  0  0  0  1  0  0
  -23.3575  -28.5684   22.8725 C   0  0  1  0  0  0  0  0  0  0  0  0
  -19.9519  -27.0969   22.0938 C   0  0  2  0  0  0  0  0  0  0  0  0
  -23.6141  -29.3132   24.2129 C   0  0  0  0  0  0  0  0  0  0  0  0
  -25.6636  -15.2937   20.3295 N   0  0  0  0  0  0  0  0  0  0  0  0
  -29.1881  -21.1520   21.4218 N   0  0  0  0  0  0  0  0  0  0  0  0
  -26.2481  -14.0891   20.2130 N   0  0  0  0  0  0  0  0  0  0  0  0
  -24.8905  -28.6322   20.9308 N   0  0  0  0  0  0  0  0  0  0  0  0
  -29.8444  -15.1378   19.4605 N   0  0  0  0  0  0  0  0  0  0  0  0
  -25.8975  -11.7759   20.5825 N   0  0  0  0  0  0  0  0  0  0  0  0
  -22.0256  -13.6494   21.9588 N   0  0  0  0  0  0  0  0  0  0  0  0
  -27.3426  -31.0602   20.0242 N   0  0  0  0  0  0  0  0  0  0  0  0
  -21.9475  -28.3380   22.5773 N   0  0  0  0  0  0  0  0  0  0  0  0
  -30.9046  -15.7814   21.5057 N   0  0  0  0  0  0  0  0  0  0  0  0
  -19.5856  -26.0025   21.1510 N   0  3  0  0  0  0  0  0  0  0  0  0
  -23.1525  -11.6668   21.7183 O   0  0  0  0  0  0  0  0  0  0  0  0
  -27.4448  -29.1682   21.3778 O   0  0  0  0  0  0  0  0  0  0  0  0
  -23.5134  -30.4459   21.4313 O   0  0  0  0  0  0  0  0  0  0  0  0
  -22.0932  -26.0286   22.4267 O   0  0  0  0  0  0  0  0  0  0  0  0
  -31.8772  -14.2289   20.0842 O   0  0  0  0  0  0  0  0  0  0  0  0
  -20.7977  -19.0832   21.9141 O   0  0  0  0  0  0  0  0  0  0  0  0
  -27.6787  -23.2748   19.6753 O   0  0  0  0  0  0  0  0  0  1  0  0
  -22.6733  -23.6072   24.4477 F   0  0  0  0  0  0  0  0  0  0  0  0
  -19.7758  -19.8653   24.3609 F   0  0  0  0  0  0  0  0  0  0  0  0
  1  2  1  0  0  0  0
  1  5  2  0  0  0  0
  2  6  2  0  0  0  0
  3 10  2  0  0  0  0
  3 18  1  0  0  0  0
  4 11  1  0  0  0  0
  4 18  2  0  0  0  0
  5 20  1  0  0  0  0
  6 22  1  0  0  0  0
  7 12  2  0  0  0  0
  7 21  1  0  0  0  0
  8  9  2  0  0  0  0
  8 25  1  0  0  0  0
  9 26  1  0  0  0  0
 10 27  1  0  0  0  0
 11 27  2  0  0  0  0
 12 28  1  0  0  0  0
 13 14  2  0  0  0  0
 13 29  1  0  0  0  0
 14 30  1  0  0  0  0
 15 23  1  0  0  0  0
 15 28  2  0  0  0  0
 16 24  1  0  0  0  0
 16 26  2  0  0  0  0
 17 30  2  0  0  0  0
 17 31  1  0  0  0  0
 18 32  1  0  0  0  0
 19 32  1  0  0  0  0
 19 33  2  0  0  0  0
 19 35  1  0  0  0  0
 20 22  2  0  0  0  0
 20 40  1  0  0  0  0
 21 23  2  0  0  0  0
 21 41  1  0  0  0  0
 22 49  1  0  0  0  0
 23 42  1  0  0  0  0
 24 25  2  0  0  0  0
 24 52  1  0  0  0  0
 25 64  1  0  0  0  0
 26 72  1  0  0  0  0
 27 79  1  0  0  0  0
 28 80  1  0  0  0  0
 29 31  2  0  0  0  0
 29 79  1  0  0  0  0
 30 81  1  0  0  0  0
 31 82  1  0  0  0  0
 32 63  2  0  0  0  0
 33 65  1  0  0  0  0
 33 68  1  0  0  0  0
 34 59  1  0  0  0  0
 34 64  2  0  0  0  0
 35 69  1  0  0  0  0
 35 74  2  0  0  0  0
 36 50  1  0  0  0  0
 36 70  1  0  0  0  0
 36 75  2  0  0  0  0
 37 60  1  0  0  0  0
 37 66  1  0  0  0  0
 37 76  2  0  0  0  0
 38 61  1  0  0  0  0
 38 71  1  0  0  0  0
 38 77  2  0  0  0  0
 39 67  1  0  0  0  0
 39 72  1  0  0  0  0
 39 78  2  0  0  0  0
 40 43  1  0  0  0  0
 41 50  1  0  0  0  0
 42 66  1  0  0  0  0
 43 45  1  0  0  0  0
 44 46  1  0  0  0  0
 44 47  1  0  0  0  0
 45 49  1  0  0  0  0
 46 51  1  0  0  0  0
 47 67  1  0  0  0  0
 48 51  1  0  0  0  0
 48 67  1  0  0  0  0
 49 70  1  0  0  0  0
 50 66  1  0  0  0  0
 51 65  1  0  0  0  0
 53 61  1  0  0  0  0
 54 62  1  0  0  0  0
 55 62  1  0  0  0  0
 56 62  1  0  0  0  0
 57 72  1  0  0  0  0
 58 73  1  0  0  0  0
 59 80  1  0  0  0  0
 60 62  1  0  0  0  0
 60 71  1  0  0  0  0
 61 73  1  0  0  0  0
 63 65  1  0  0  0  0
M  CHG  1  73   1
M  ISO  4  39 100  59 101  72 100  80 101
M  END
> <Batch ID>
0113

> <Smiles>
CNC(C)C(=O)NC(C(=O)N1Cc2cc([101O:1][101CH:1]=CNc3ccc([100N:0](C)[100C:0](=O)N4CCCC(n5nc(-c6ccc(Oc7ccc(F)cc7F)cc6)c(C(N)=O)c5N)C4)cc3C)ccc2CC1C(=O)NC1CCCc2ccccc21)C(C)(C)C

> <Shape>
0.238

> <Color>
0.091

> <Negative vol penalty>
0.000

$$$$

  -OEChem-04052301343D

 91 99  0     1  0  0  0  0  0999 V2000
  -30.8958  -15.9272   22.4578 C   0  0  0  0  0  0  0  0  0  0  0  0
  -31.1833  -15.4997   23.5426 C   0  0  0  0  0  0  0  0  0  0  0  0
  -28.8018  -36.0032   25.7584 C   0  0  0  0  0  0  0  0  0  0  0  0
  -29.2216  -34.7743   25.2595 C   0  0  0  0  0  0  0  0  0  0  0  0
  -23.4197   -6.4611   23.4867 C   0  0  0  0  0  0  0  0  0  0  0  0
  -21.1565   -6.6242   22.6568 C   0  0  0  0  0  0  0  0  0  0  0  0
  -25.3671  -18.6412   20.3990 C   0  0  0  0  0  0  0  0  0  0  0  0
  -27.4432  -36.2472   25.9550 C   0  0  0  0  0  0  0  0  0  0  0  0
  -28.2830  -33.7881   24.9580 C   0  0  0  0  0  0  0  0  0  0  0  0
  -27.1201  -28.3994   20.3835 C   0  0  0  0  0  0  0  0  0  0  0  0
  -25.4545  -20.0333   20.4046 C   0  0  0  0  0  0  0  0  0  0  0  0
  -23.0321   -5.4288   24.3409 C   0  0  0  0  0  0  0  0  0  0  0  0
  -20.7689   -5.5918   23.5109 C   0  0  0  0  0  0  0  0  0  0  0  0
  -26.7952  -27.0436   20.3765 C   0  0  0  0  0  0  0  0  0  0  0  0
  -22.3975   -2.1152   24.1159 C   0  0  0  0  0  0  0  0  0  0  0  0
  -23.2202   -0.9913   24.1894 C   0  0  0  0  0  0  0  0  0  0  0  0
  -24.4693  -27.6055   20.6821 C   0  0  0  0  0  0  0  0  0  0  0  0
  -23.5396   -1.3797   26.5525 C   0  0  0  0  0  0  0  0  0  0  0  0
  -22.4819   -7.0589   22.6447 C   0  0  0  0  0  0  0  0  0  0  0  0
  -26.5194  -17.8706   20.2436 C   0  0  0  0  0  0  0  0  0  0  0  0
  -23.3565   -8.0047   20.4428 C   0  0  0  0  0  0  0  0  0  0  0  0
  -26.4868  -35.2670   25.6467 C   0  0  0  0  0  0  0  0  0  0  0  0
  -26.1216  -29.3697   20.5510 C   0  0  0  0  0  0  0  0  0  0  0  0
  -26.9104  -34.0187   25.1520 C   0  0  0  0  0  0  0  0  0  0  0  0
  -24.7837  -28.9731   20.6883 C   0  0  0  0  0  0  0  0  0  0  0  0
  -27.7591  -18.4921   20.0936 C   0  0  0  0  0  0  0  0  0  0  0  0
  -26.6942  -20.6548   20.2546 C   0  0  0  0  0  0  0  0  0  0  0  0
  -21.7067   -4.9941   24.3530 C   0  0  0  0  0  0  0  0  0  0  0  0
  -25.4700  -26.6464   20.5288 C   0  0  0  0  0  0  0  0  0  0  0  0
  -22.1459   -2.8715   25.2606 C   0  0  0  0  0  0  0  0  0  0  0  0
  -27.8465  -19.8842   20.0991 C   0  0  0  0  0  0  0  0  0  0  0  0
  -23.7913   -0.6235   25.4077 C   0  0  0  0  0  0  0  0  0  0  0  0
  -22.7169   -2.5037   26.4789 C   0  0  0  0  0  0  0  0  0  0  0  0
  -22.8815   -8.1257   21.7625 C   0  0  0  0  0  0  0  0  0  0  0  0
  -23.5951   -9.2971   20.0438 C   0  0  0  0  0  0  0  0  0  0  0  0
  -26.3925  -16.4190   20.2422 C   0  0  0  0  0  0  0  0  0  0  0  0
  -25.8814  -15.6791   21.2472 C   0  0  0  0  0  0  0  0  0  0  0  0
  -30.5560  -16.4355   21.1560 C   0  0  0  0  0  0  0  0  0  0  0  0
  -23.5635   -6.8291   19.6486 C   0  0  0  0  0  0  0  0  0  0  0  0
  -25.8108  -14.2124   21.0906 C   0  0  0  0  0  0  0  0  0  0  0  0
  -25.5144  -31.6121   22.7205 C   0  0  0  0  0  0  0  0  0  0  0  0
  -23.1671  -32.4389   20.6400 C   0  0  0  0  0  0  0  0  0  0  0  0
  -25.7143  -22.9680   20.4052 C   0  0  0  0  0  0  0  0  0  0  0  0
  -21.0728  -31.5023   18.1134 C   0  0  0  0  0  0  0  0  0  0  0  0
  -25.0329  -35.5598   25.9207 C   0  0  0  0  0  0  0  0  0  0  0  0
  -26.4851  -30.8291   20.5295 C   0  0  0  0  0  0  0  0  0  0  0  0
  -23.6720  -29.9760   20.8509 C   0  0  0  0  0  0  0  0  0  0  0  0
  -24.0757  -34.5966   25.2234 C   0  0  0  0  0  0  0  0  0  0  0  0
  -22.3462  -13.6966   22.1688 C   0  0  0  0  0  0  0  0  0  0  0  0
  -24.5372  -33.1550   25.4125 C   0  0  0  0  0  0  0  0  0  0  0  0
  -22.2384  -12.1760   22.0930 C   0  0  0  0  0  0  0  0  0  0  0  0
  -23.7439  -14.1505   22.5873 C   0  0  0  0  0  0  0  0  0  0  0  0
  -24.7241  -12.0741   21.6558 C   0  0  0  0  0  0  0  0  0  0  0  0
  -25.9208  -32.9326   24.7898 C   0  0  1  0  0  0  0  0  0  0  0  0
  -25.4522  -31.7124   21.2226 C   0  0  1  0  0  0  0  0  0  0  0  0
  -23.3395  -11.5965   21.1908 C   0  0  1  0  0  0  0  0  0  0  0  0
  -31.5330  -14.9786   24.8633 C   0  0  0  0  0  0  0  0  0  0  0  0
  -31.4453  -16.1467   19.9913 C   0  0  0  0  0  0  0  0  0  0  0  0
  -19.2409  -32.3859   16.6435 C   0  0  0  0  0  0  0  0  0  0  0  0
  -21.2045  -32.2350   22.9674 C   0  0  0  0  0  0  0  0  0  0  0  0
  -19.3389  -32.1816   21.2986 C   0  0  0  0  0  0  0  0  0  0  0  0
  -20.8206  -34.1830   21.4467 C   0  0  0  0  0  0  0  0  0  0  0  0
  -22.6526  -31.0206   15.6575 C   0  0  0  0  0  0  0  0  0  0  0  0
  -29.7942  -20.7644   21.1421 C   0  0  0  0  0  0  0  0  0  0  0  0
  -29.0051  -17.6792   19.9244 C   0  0  0  0  0  0  0  0  0  0  0  0
  -26.2226  -24.3969   20.3566 C   0  0  0  0  0  0  0  0  0  1  0  0
  -21.7230  -32.0441   20.4454 C   0  0  1  0  0  0  0  0  0  0  0  0
  -20.7379  -32.1597   16.7867 C   0  0  2  0  0  0  0  0  0  0  0  0
  -20.7927  -32.6417   21.5384 C   0  0  0  0  0  0  0  0  0  0  0  0
  -22.8214   -9.3949   22.1745 N   0  0  0  0  0  0  0  0  0  0  0  0
  -29.4650  -17.1057   21.1928 N   0  0  0  0  0  0  0  0  0  0  0  0
  -23.2618  -10.0831   21.1075 N   0  0  0  0  0  0  0  0  0  0  0  0
  -24.7832  -13.5372   21.7468 N   0  0  0  0  0  0  0  0  0  0  0  0
  -24.0788  -31.3908   20.8297 N   0  0  0  0  0  0  0  0  0  0  0  0
  -24.0554   -9.8265   18.8905 N   0  0  0  0  0  0  0  0  0  0  0  0
  -23.2674   -5.5808   20.2129 N   0  0  0  0  0  0  0  0  0  0  0  0
  -26.7648  -22.0681   20.2615 N   0  0  0  0  0  0  0  0  0  0  0  0
  -25.8134  -32.8041   23.3523 N   0  0  0  0  0  0  0  0  0  0  0  0
  -21.3730  -32.4345   19.0840 N   0  0  0  0  0  0  0  0  0  0  0  0
  -21.1944  -31.3043   15.6549 N   0  3  0  0  0  0  0  0  0  0  0  0
  -24.0137   -6.8828   18.4790 O   0  0  0  0  0  0  0  0  0  0  0  0
  -26.6704  -13.6732   20.3912 O   0  0  0  0  0  0  0  0  0  0  0  0
  -25.3050  -30.5334   23.2630 O   0  0  0  0  0  0  0  0  0  0  0  0
  -23.4758  -33.6330   20.6171 O   0  0  0  0  0  0  0  0  0  0  0  0
  -24.5234  -22.7144   20.5536 O   0  0  0  0  0  0  0  0  0  0  0  0
  -21.0651  -30.2838   18.2737 O   0  0  0  0  0  0  0  0  0  0  0  0
  -21.3282   -3.9866   25.1862 O   0  0  0  0  0  0  0  0  0  0  0  0
  -29.0596  -20.4920   19.9517 O   0  0  0  0  0  0  0  0  0  0  0  0
  -25.1503  -25.3236   20.5230 O   0  0  0  0  0  0  0  0  0  1  0  0
  -24.5801    0.4568   25.4784 F   0  0  0  0  0  0  0  0  0  0  0  0
  -22.4779   -3.2256   27.5824 F   0  0  0  0  0  0  0  0  0  0  0  0
  1  2  3  0  0  0  0
  1 38  1  0  0  0  0
  2 57  1  0  0  0  0
  3  4  1  0  0  0  0
  3  8  2  0  0  0  0
  4  9  2  0  0  0  0
  5 12  2  0  0  0  0
  5 19  1  0  0  0  0
  6 13  1  0  0  0  0
  6 19  2  0  0  0  0
  7 11  1  0  0  0  0
  7 20  2  0  0  0  0
  8 22  1  0  0  0  0
  9 24  1  0  0  0  0
 10 14  2  0  0  0  0
 10 23  1  0  0  0  0
 11 27  2  0  0  0  0
 12 28  1  0  0  0  0
 13 28  2  0  0  0  0
 14 29  1  0  0  0  0
 15 16  2  0  0  0  0
 15 30  1  0  0  0  0
 16 32  1  0  0  0  0
 17 25  1  0  0  0  0
 17 29  2  0  0  0  0
 18 32  2  0  0  0  0
 18 33  1  0  0  0  0
 19 34  1  0  0  0  0
 20 26  1  0  0  0  0
 20 36  1  0  0  0  0
 21 34  1  0  0  0  0
 21 35  2  0  0  0  0
 21 39  1  0  0  0  0
 22 24  2  0  0  0  0
 22 45  1  0  0  0  0
 23 25  2  0  0  0  0
 23 46  1  0  0  0  0
 24 54  1  0  0  0  0
 25 47  1  0  0  0  0
 26 31  2  0  0  0  0
 26 65  1  0  0  0  0
 27 31  1  0  0  0  0
 27 77  1  0  0  0  0
 28 87  1  0  0  0  0
 29 89  1  0  0  0  0
 30 33  2  0  0  0  0
 30 87  1  0  0  0  0
 31 88  1  0  0  0  0
 32 90  1  0  0  0  0
 33 91  1  0  0  0  0
 34 70  2  0  0  0  0
 35 72  1  0  0  0  0
 35 75  1  0  0  0  0
 36 37  2  0  0  0  0
 37 40  1  0  0  0  0
 38 58  1  0  0  0  0
 38 71  2  0  0  0  0
 39 76  1  0  0  0  0
 39 81  2  0  0  0  0
 40 73  1  0  0  0  0
 40 82  2  0  0  0  0
 41 55  1  0  0  0  0
 41 78  1  0  0  0  0
 41 83  2  0  0  0  0
 42 67  1  0  0  0  0
 42 74  1  0  0  0  0
 42 84  2  0  0  0  0
 43 66  1  0  0  0  0
 43 77  1  0  0  0  0
 43 85  2  0  0  0  0
 44 68  1  0  0  0  0
 44 79  1  0  0  0  0
 44 86  2  0  0  0  0
 45 48  1  0  0  0  0
 46 55  1  0  0  0  0
 47 74  1  0  0  0  0
 48 50  1  0  0  0  0
 49 51  1  0  0  0  0
 49 52  1  0  0  0  0
 50 54  1  0  0  0  0
 51 56  1  0  0  0  0
 52 73  1  0  0  0  0
 53 56  1  0  0  0  0
 53 73  1  0  0  0  0
 54 78  1  0  0  0  0
 55 74  1  0  0  0  0
 56 72  1  0  0  0  0
 59 68  1  0  0  0  0
 60 69  1  0  0  0  0
 61 69  1  0  0  0  0
 62 69  1  0  0  0  0
 63 80  1  0  0  0  0
 64 88  1  0  0  0  0
 65 71  1  0  0  0  0
 66 89  1  0  0  0  0
 67 69  1  0  0  0  0
 67 79  1  0  0  0  0
 68 80  1  0  0  0  0
 70 72  1  0  0  0  0
M  CHG  1  80   1
M  ISO  4  37 100  40 100  66 101  89 101
M  END
> <Batch ID>
0113

> <Smiles>
CC#CC(C)=NCc1c(C=[100CH:0][100C:0](=O)N2CCCC(n3nc(-c4ccc(Oc5ccc(F)cc5F)cc4)c(C(N)=O)c3N)C2)ccc(NC(=O)[101CH2:1][101O:1]c2ccc3c(c2)CN(C(=O)C(NC(=O)C(C)NC)C(C)(C)C)C(C(=O)NC2CCCc4ccccc42)C3)c1OC

> <Shape>
0.270

> <Color>
0.075

> <Negative vol penalty>
0.000

$$$$

  -OEChem-04052301343D

 87 95  0     1  0  0  0  0  0999 V2000
  -17.5851  -32.3543   23.7073 C   0  0  0  0  0  0  0  0  0  0  0  0
  -18.8376  -32.6992   23.2093 C   0  0  0  0  0  0  0  0  0  0  0  0
  -23.7470  -11.9931   19.7753 C   0  0  0  0  0  0  0  0  0  0  0  0
  -24.0825  -12.0779   22.1664 C   0  0  0  0  0  0  0  0  0  0  0  0
  -17.3868  -31.1009   24.2847 C   0  0  0  0  0  0  0  0  0  0  0  0
  -19.8927  -31.7911   23.2895 C   0  0  0  0  0  0  0  0  0  0  0  0
  -25.7710  -29.7360   19.7485 C   0  0  0  0  0  0  0  0  0  0  0  0
  -31.5225  -24.4686   17.1526 C   0  0  0  0  0  0  0  0  0  0  0  0
  -23.5855  -10.6095   19.8470 C   0  0  0  0  0  0  0  0  0  0  0  0
  -23.9209  -10.6943   22.2381 C   0  0  0  0  0  0  0  0  0  0  0  0
  -27.1342  -29.5276   19.9535 C   0  0  0  0  0  0  0  0  0  0  0  0
  -31.2976  -23.4688   16.2064 C   0  0  0  0  0  0  0  0  0  0  0  0
  -23.2385   -7.2288   23.0999 C   0  0  0  0  0  0  0  0  0  0  0  0
  -22.4269   -6.7217   24.1147 C   0  0  0  0  0  0  0  0  0  0  0  0
  -26.6545  -27.3614   20.9004 C   0  0  0  0  0  0  0  0  0  0  0  0
  -20.5536   -7.9728   23.2416 C   0  0  0  0  0  0  0  0  0  0  0  0
  -23.9956  -12.7274   20.9350 C   0  0  0  0  0  0  0  0  0  0  0  0
  -29.5013  -22.5899   17.5621 C   0  0  0  0  0  0  0  0  0  0  0  0
  -23.1584  -15.1368   20.9679 C   0  0  0  0  0  0  0  0  0  0  0  0
  -18.4376  -30.1733   24.3633 C   0  0  0  0  0  0  0  0  0  0  0  0
  -24.8369  -28.7616   20.1285 C   0  0  0  0  0  0  0  0  0  0  0  0
  -19.7086  -30.5246   23.8697 C   0  0  0  0  0  0  0  0  0  0  0  0
  -25.2802  -27.5588   20.6968 C   0  0  0  0  0  0  0  0  0  0  0  0
  -29.7263  -23.5896   18.5084 C   0  0  0  0  0  0  0  0  0  0  0  0
  -30.7369  -24.5290   18.3037 C   0  0  0  0  0  0  0  0  0  0  0  0
  -23.6724   -9.9601   21.0784 C   0  0  0  0  0  0  0  0  0  0  0  0
  -27.5759  -28.3414   20.5321 C   0  0  0  0  0  0  0  0  0  0  0  0
  -30.2870  -22.5295   16.4111 C   0  0  0  0  0  0  0  0  0  0  0  0
  -22.7077   -8.1080   22.1561 C   0  0  0  0  0  0  0  0  0  0  0  0
  -21.0845   -7.0936   24.1855 C   0  0  0  0  0  0  0  0  0  0  0  0
  -21.3652   -8.4800   22.2269 C   0  0  0  0  0  0  0  0  0  0  0  0
  -24.1631  -14.1566   20.8615 C   0  0  0  0  0  0  0  0  0  0  0  0
  -23.8265  -16.3293   20.8327 C   0  0  0  0  0  0  0  0  0  0  0  0
  -28.4443  -21.6041   17.7669 C   0  0  0  0  0  0  0  0  0  0  0  0
  -28.6306  -20.2742   17.8724 C   0  0  0  0  0  0  0  0  0  0  0  0
  -30.8515  -26.7558   18.8062 C   0  0  0  0  0  0  0  0  0  0  0  0
  -21.7474  -14.9833   21.1708 C   0  0  0  0  0  0  0  0  0  0  0  0
  -27.4565  -19.4051   18.0890 C   0  0  0  0  0  0  0  0  0  0  0  0
  -22.4151  -28.6569   22.1847 C   0  0  0  0  0  0  0  0  0  0  0  0
  -21.9179  -25.7423   20.8504 C   0  0  0  0  0  0  0  0  0  0  0  0
  -23.2066  -23.0702   19.1635 C   0  0  0  0  0  0  0  0  0  0  0  0
  -18.1873  -28.8483   25.0389 C   0  0  0  0  0  0  0  0  0  0  0  0
  -23.3719  -28.9904   19.8761 C   0  0  0  0  0  0  0  0  0  0  0  0
  -24.3195  -26.4726   21.1038 C   0  0  0  0  0  0  0  0  0  0  0  0
  -19.2611  -27.8034   24.7470 C   0  0  0  0  0  0  0  0  0  0  0  0
  -28.7597  -17.3749   20.8480 C   0  0  0  0  0  0  0  0  0  0  0  0
  -20.6522  -28.4082   24.9073 C   0  0  0  0  0  0  0  0  0  0  0  0
  -27.6035  -16.4034   21.0693 C   0  0  0  0  0  0  0  0  0  0  0  0
  -28.9156  -17.7522   19.3756 C   0  0  0  0  0  0  0  0  0  0  0  0
  -26.5086  -17.3133   18.9828 C   0  0  0  0  0  0  0  0  0  0  0  0
  -20.8717  -29.5575   23.9160 C   0  0  1  0  0  0  0  0  0  0  0  0
  -22.4720  -28.1458   20.7729 C   0  0  1  0  0  0  0  0  0  0  0  0
  -26.3039  -16.9568   20.4635 C   0  0  1  0  0  0  0  0  0  0  0  0
  -29.6261  -23.1338   20.9718 C   0  0  0  0  0  0  0  0  0  0  0  0
  -32.2376  -28.7590   19.1716 C   0  0  0  0  0  0  0  0  0  0  0  0
  -22.5660  -20.8231   18.2483 C   0  0  0  0  0  0  0  0  0  0  0  0
  -21.9746  -24.5801   23.6711 C   0  0  0  0  0  0  0  0  0  0  0  0
  -22.2870  -22.3131   22.6556 C   0  0  0  0  0  0  0  0  0  0  0  0
  -20.2132  -23.6156   22.1806 C   0  0  0  0  0  0  0  0  0  0  0  0
  -23.8624  -23.8821   16.3940 C   0  0  0  0  0  0  0  0  0  0  0  0
  -29.1739  -21.8605   14.4187 C   0  0  0  0  0  0  0  0  0  0  0  0
  -28.8900  -23.6676   19.7489 C   0  0  0  0  0  0  0  0  0  0  0  0
  -29.8059  -28.7611   19.8200 C   0  0  0  0  0  0  0  0  0  1  0  0
  -31.0845  -27.9325   19.7272 C   0  0  1  0  0  0  0  0  0  0  0  0
  -22.3985  -24.3399   21.1356 C   0  0  1  0  0  0  0  0  0  0  0  0
  -22.7053  -22.3079   17.9502 C   0  0  2  0  0  0  0  0  0  0  0  0
  -21.7366  -23.7333   22.4049 C   0  0  0  0  0  0  0  0  0  0  0  0
  -25.3771  -14.6808   20.6730 N   0  0  0  0  0  0  0  0  0  0  0  0
  -30.9791  -25.5452   19.2429 N   0  0  0  0  0  0  0  0  0  0  0  0
  -25.1395  -16.0034   20.6599 N   0  0  0  0  0  0  0  0  0  0  0  0
  -27.6454  -18.2233   18.8033 N   0  0  0  0  0  0  0  0  0  0  0  0
  -22.8967  -26.7461   20.8423 N   0  0  0  0  0  0  0  0  0  0  0  0
  -23.4129  -17.6143   20.8458 N   0  0  0  0  0  0  0  0  0  0  0  0
  -21.2265  -13.6875   21.2891 N   0  0  0  0  0  0  0  0  0  0  0  0
  -21.1518  -29.0385   22.5944 N   0  0  0  0  0  0  0  0  0  0  0  0
  -22.1666  -23.5732   19.9163 N   0  0  0  0  0  0  0  0  0  0  0  0
  -23.6496  -22.4716   16.8090 N   0  3  0  0  0  0  0  0  0  0  0  0
  -20.9692  -15.9654   21.2287 O   0  0  0  0  0  0  0  0  0  0  0  0
  -26.3795  -19.7768   17.6194 O   0  0  0  0  0  0  0  0  0  0  0  0
  -23.4412  -28.7005   22.8533 O   0  0  0  0  0  0  0  0  0  0  0  0
  -20.7192  -25.9388   20.6355 O   0  0  0  0  0  0  0  0  0  0  0  0
  -24.4013  -23.2029   19.4199 O   0  0  0  0  0  0  0  0  0  0  0  0
  -23.5145   -8.6101   21.1488 O   0  0  0  0  0  0  0  0  0  0  0  0
  -30.0915  -21.5634   15.4684 O   0  0  0  0  0  0  0  0  0  0  0  0
  -28.9059  -28.1358   20.7340 O   0  0  0  0  0  0  0  0  0  1  0  0
  -20.3048   -6.6053   25.1591 F   0  0  0  0  0  0  0  0  0  0  0  0
  -20.8492   -9.3234   21.3223 F   0  0  0  0  0  0  0  0  0  0  0  0
  1  2  1  0  0  0  0
  1  5  2  0  0  0  0
  2  6  2  0  0  0  0
  3  9  2  0  0  0  0
  3 17  1  0  0  0  0
  4 10  1  0  0  0  0
  4 17  2  0  0  0  0
  5 20  1  0  0  0  0
  6 22  1  0  0  0  0
  7 11  2  0  0  0  0
  7 21  1  0  0  0  0
  8 12  1  0  0  0  0
  8 25  2  0  0  0  0
  9 26  1  0  0  0  0
 10 26  2  0  0  0  0
 11 27  1  0  0  0  0
 12 28  2  0  0  0  0
 13 14  2  0  0  0  0
 13 29  1  0  0  0  0
 14 30  1  0  0  0  0
 15 23  1  0  0  0  0
 15 27  2  0  0  0  0
 16 30  2  0  0  0  0
 16 31  1  0  0  0  0
 17 32  1  0  0  0  0
 18 24  2  0  0  0  0
 18 28  1  0  0  0  0
 18 34  1  0  0  0  0
 19 32  1  0  0  0  0
 19 33  2  0  0  0  0
 19 37  1  0  0  0  0
 20 22  2  0  0  0  0
 20 42  1  0  0  0  0
 21 23  2  0  0  0  0
 21 43  1  0  0  0  0
 22 51  1  0  0  0  0
 23 44  1  0  0  0  0
 24 25  1  0  0  0  0
 24 62  1  0  0  0  0
 25 69  1  0  0  0  0
 26 83  1  0  0  0  0
 27 85  1  0  0  0  0
 28 84  1  0  0  0  0
 29 31  2  0  0  0  0
 29 83  1  0  0  0  0
 30 86  1  0  0  0  0
 31 87  1  0  0  0  0
 32 68  2  0  0  0  0
 33 70  1  0  0  0  0
 33 73  1  0  0  0  0
 34 35  2  0  0  0  0
 35 38  1  0  0  0  0
 36 64  1  0  0  0  0
 36 69  2  0  0  0  0
 37 74  1  0  0  0  0
 37 78  2  0  0  0  0
 38 71  1  0  0  0  0
 38 79  2  0  0  0  0
 39 52  1  0  0  0  0
 39 75  1  0  0  0  0
 39 80  2  0  0  0  0
 40 65  1  0  0  0  0
 40 72  1  0  0  0  0
 40 81  2  0  0  0  0
 41 66  1  0  0  0  0
 41 76  1  0  0  0  0
 41 82  2  0  0  0  0
 42 45  1  0  0  0  0
 43 52  1  0  0  0  0
 44 72  1  0  0  0  0
 45 47  1  0  0  0  0
 46 48  1  0  0  0  0
 46 49  1  0  0  0  0
 47 51  1  0  0  0  0
 48 53  1  0  0  0  0
 49 71  1  0  0  0  0
 50 53  1  0  0  0  0
 50 71  1  0  0  0  0
 51 75  1  0  0  0  0
 52 72  1  0  0  0  0
 53 70  1  0  0  0  0
 54 62  1  0  0  0  0
 55 64  1  0  0  0  0
 56 66  1  0  0  0  0
 57 67  1  0  0  0  0
 58 67  1  0  0  0  0
 59 67  1  0  0  0  0
 60 77  1  0  0  0  0
 61 84  1  0  0  0  0
 63 64  1  0  0  0  0
 63 85  1  0  0  0  0
 65 67  1  0  0  0  0
 65 76  1  0  0  0  0
 66 77  1  0  0  0  0
 68 70  1  0  0  0  0
M  CHG  1  77   1
M  ISO  4  35 100  38 100  63 101  85 101
M  END
> <Batch ID>
0113

> <Smiles>
CCc1c(NC=C(C)[101CH2:1][101O:1]c2ccc3c(c2)CN(C(=O)C(NC(=O)C(C)NC)C(C)(C)C)C(C(=O)NC2CCCc4ccccc42)C3)ccc(OC)c1C=[100CH:0][100C:0](=O)N1CCCC(n2nc(-c3ccc(Oc4ccc(F)cc4F)cc3)c(C(N)=O)c2N)C1

> <Shape>
0.269

> <Color>
0.083

> <Negative vol penalty>
0.000

$$$$

  -OEChem-04052301343D

 86 94  0     1  0  0  0  0  0999 V2000
  -31.3561  -25.2704   14.7865 C   0  0  0  0  0  0  0  0  0  0  0  0
  -30.1143  -25.8722   14.6097 C   0  0  0  0  0  0  0  0  0  0  0  0
  -27.2529  -14.4406   22.0772 C   0  0  0  0  0  0  0  0  0  0  0  0
  -26.1405  -14.9554   19.9952 C   0  0  0  0  0  0  0  0  0  0  0  0
  -31.6686  -24.6635   16.0023 C   0  0  0  0  0  0  0  0  0  0  0  0
  -29.1838  -25.8664   15.6482 C   0  0  0  0  0  0  0  0  0  0  0  0
  -23.9336  -29.8458   18.4619 C   0  0  0  0  0  0  0  0  0  0  0  0
  -26.9318  -13.0929   21.9156 C   0  0  0  0  0  0  0  0  0  0  0  0
  -25.8195  -13.6076   19.8336 C   0  0  0  0  0  0  0  0  0  0  0  0
  -22.5972  -29.7492   18.8469 C   0  0  0  0  0  0  0  0  0  0  0  0
  -23.5301  -11.4303   21.0373 C   0  0  0  0  0  0  0  0  0  0  0  0
  -22.2296  -11.1168   20.6426 C   0  0  0  0  0  0  0  0  0  0  0  0
  -23.2766  -28.7401   20.9301 C   0  0  0  0  0  0  0  0  0  0  0  0
  -20.7103  -24.1008   18.5502 C   0  0  0  0  0  0  0  0  0  0  0  0
  -21.2372  -23.2667   20.7556 C   0  0  0  0  0  0  0  0  0  0  0  0
  -23.0910  -10.0426   18.6574 C   0  0  0  0  0  0  0  0  0  0  0  0
  -26.8572  -15.3719   21.1171 C   0  0  0  0  0  0  0  0  0  0  0  0
  -22.6057  -22.6366   18.8668 C   0  0  0  0  0  0  0  0  0  0  0  0
  -28.3456  -17.4235   20.8281 C   0  0  0  0  0  0  0  0  0  0  0  0
  -30.7450  -24.6588   17.0595 C   0  0  0  0  0  0  0  0  0  0  0  0
  -24.9527  -29.3796   19.3048 C   0  0  0  0  0  0  0  0  0  0  0  0
  -29.4837  -25.2578   16.8787 C   0  0  0  0  0  0  0  0  0  0  0  0
  -24.6253  -28.8343   20.5545 C   0  0  0  0  0  0  0  0  0  0  0  0
  -21.7982  -23.4027   18.0262 C   0  0  0  0  0  0  0  0  0  0  0  0
  -22.3252  -22.5685   20.2315 C   0  0  0  0  0  0  0  0  0  0  0  0
  -26.2151  -12.6764   20.7938 C   0  0  0  0  0  0  0  0  0  0  0  0
  -22.2683  -29.1936   20.0799 C   0  0  0  0  0  0  0  0  0  0  0  0
  -24.6112  -11.0500   20.2420 C   0  0  0  0  0  0  0  0  0  0  0  0
  -20.4298  -24.0328   19.9149 C   0  0  0  0  0  0  0  0  0  0  0  0
  -22.0100  -10.4229   19.4527 C   0  0  0  0  0  0  0  0  0  0  0  0
  -24.3916  -10.3561   19.0520 C   0  0  0  0  0  0  0  0  0  0  0  0
  -27.1881  -16.7643   21.2838 C   0  0  0  0  0  0  0  0  0  0  0  0
  -28.1826  -18.7248   21.2360 C   0  0  0  0  0  0  0  0  0  0  0  0
  -24.9668  -22.4095   18.2431 C   0  0  0  0  0  0  0  0  0  0  0  0
  -23.7448  -21.9089   18.3122 C   0  0  0  0  0  0  0  0  0  0  0  0
  -29.4677  -16.9057   20.1011 C   0  0  0  0  0  0  0  0  0  0  0  0
  -27.1911  -27.1332   19.0878 C   0  0  0  0  0  0  0  0  0  0  0  0
  -19.1761  -27.5937   21.0996 C   0  0  0  0  0  0  0  0  0  0  0  0
  -28.1722  -28.3871   21.9140 C   0  0  0  0  0  0  0  0  0  0  0  0
  -27.3857  -30.1399   24.7347 C   0  0  0  0  0  0  0  0  0  0  0  0
  -23.3692  -22.0457   22.4638 C   0  0  0  0  0  0  0  0  0  0  0  0
  -31.1101  -23.9491   18.3392 C   0  0  0  0  0  0  0  0  0  0  0  0
  -26.3910  -29.5155   18.8862 C   0  0  0  0  0  0  0  0  0  0  0  0
  -25.6831  -28.3377   21.5047 C   0  0  0  0  0  0  0  0  0  0  0  0
  -30.2095  -24.3140   19.5164 C   0  0  0  0  0  0  0  0  0  0  0  0
  -26.0868  -21.3433   24.6543 C   0  0  0  0  0  0  0  0  0  0  0  0
  -28.7428  -24.2741   19.0990 C   0  0  0  0  0  0  0  0  0  0  0  0
  -26.7865  -20.1532   23.9939 C   0  0  0  0  0  0  0  0  0  0  0  0
  -24.5692  -21.2681   24.4962 C   0  0  0  0  0  0  0  0  0  0  0  0
  -24.7963  -19.9059   22.4561 C   0  0  0  0  0  0  0  0  0  0  0  0
  -28.4570  -25.2939   17.9899 C   0  0  1  0  0  0  0  0  0  0  0  0
  -27.3171  -28.5386   19.6042 C   0  0  1  0  0  0  0  0  0  0  0  0
  -26.3304  -19.9711   22.5330 C   0  0  2  0  0  0  0  0  0  0  0  0
  -22.0656  -23.5032   16.5583 C   0  0  0  0  0  0  0  0  0  0  0  0
  -28.3869  -30.9727   26.8797 C   0  0  0  0  0  0  0  0  0  0  0  0
  -28.0372  -25.5663   23.0693 C   0  0  0  0  0  0  0  0  0  0  0  0
  -28.1076  -26.5759   25.3593 C   0  0  0  0  0  0  0  0  0  0  0  0
  -30.0254  -26.8975   23.7968 C   0  0  0  0  0  0  0  0  0  0  0  0
  -26.8582  -32.9630   24.0201 C   0  0  0  0  0  0  0  0  0  0  0  0
  -18.6841  -26.4508   21.9752 C   0  0  0  0  0  0  0  0  0  0  0  0
  -20.6162  -28.0144   21.3193 C   0  0  0  0  0  0  0  0  0  1  0  0
  -19.4724  -25.1646   21.7746 C   0  0  0  0  0  0  0  0  0  0  0  0
  -27.8571  -28.1246   23.3669 C   0  0  1  0  0  0  0  0  0  0  0  0
  -28.0798  -31.2992   25.4265 C   0  0  2  0  0  0  0  0  0  0  0  0
  -28.4866  -26.7986   23.8796 C   0  0  0  0  0  0  0  0  0  0  0  0
  -26.3518  -17.5796   21.9316 N   0  0  0  0  0  0  0  0  0  0  0  0
  -26.9843  -18.7644   21.8861 N   0  0  0  0  0  0  0  0  0  0  0  0
  -27.0746  -28.4866   21.0473 N   0  0  0  0  0  0  0  0  0  0  0  0
  -24.2115  -21.1000   23.0860 N   0  0  0  0  0  0  0  0  0  0  0  0
  -28.9489  -19.8277   21.0984 N   0  0  0  0  0  0  0  0  0  0  0  0
  -29.4743  -15.5458   19.7622 N   0  0  0  0  0  0  0  0  0  0  0  0
  -23.1250  -21.7998   21.1131 N   0  0  0  0  0  0  0  0  0  0  0  0
  -28.3560  -26.6273   18.5432 N   0  0  0  0  0  0  0  0  0  0  0  0
  -28.2860  -29.3117   24.0985 N   0  0  0  0  0  0  0  0  0  0  0  0
  -27.2186  -32.5150   25.3899 N   0  3  0  0  0  0  0  0  0  0  0  0
  -30.4434  -17.6241   19.7763 O   0  0  0  0  0  0  0  0  0  0  0  0
  -26.1170  -26.5503   19.1782 O   0  0  0  0  0  0  0  0  0  0  0  0
  -18.4613  -28.1446   20.2639 O   0  0  0  0  0  0  0  0  0  0  0  0
  -29.3484  -28.5068   21.5624 O   0  0  0  0  0  0  0  0  0  0  0  0
  -26.1670  -29.9826   24.7594 O   0  0  0  0  0  0  0  0  0  0  0  0
  -22.9211  -23.0181   23.0767 O   0  0  0  0  0  0  0  0  0  0  0  0
  -25.9018  -11.3613   20.6356 O   0  0  0  0  0  0  0  0  0  0  0  0
  -20.9645  -29.0975   20.4580 O   0  0  0  0  0  0  0  0  0  1  0  0
  -19.3608  -24.7189   20.4286 O   0  0  0  0  0  0  0  0  0  0  0  0
  -20.7611  -10.1205   19.0745 F   0  0  0  0  0  0  0  0  0  0  0  0
  -25.4262   -9.9871   18.2844 F   0  0  0  0  0  0  0  0  0  0  0  0
  1  2  1  0  0  0  0
  1  5  2  0  0  0  0
  2  6  2  0  0  0  0
  3  8  2  0  0  0  0
  3 17  1  0  0  0  0
  4  9  1  0  0  0  0
  4 17  2  0  0  0  0
  5 20  1  0  0  0  0
  6 22  1  0  0  0  0
  7 10  2  0  0  0  0
  7 21  1  0  0  0  0
  8 26  1  0  0  0  0
  9 26  2  0  0  0  0
 10 27  1  0  0  0  0
 11 12  2  0  0  0  0
 11 28  1  0  0  0  0
 12 30  1  0  0  0  0
 13 23  1  0  0  0  0
 13 27  2  0  0  0  0
 14 24  2  0  0  0  0
 14 29  1  0  0  0  0
 15 25  1  0  0  0  0
 15 29  2  0  0  0  0
 16 30  2  0  0  0  0
 16 31  1  0  0  0  0
 17 32  1  0  0  0  0
 18 24  1  0  0  0  0
 18 25  2  0  0  0  0
 18 35  1  0  0  0  0
 19 32  1  0  0  0  0
 19 33  2  0  0  0  0
 19 36  1  0  0  0  0
 20 22  2  0  0  0  0
 20 42  1  0  0  0  0
 21 23  2  0  0  0  0
 21 43  1  0  0  0  0
 22 51  1  0  0  0  0
 23 44  1  0  0  0  0
 24 54  1  0  0  0  0
 25 72  1  0  0  0  0
 26 82  1  0  0  0  0
 27 83  1  0  0  0  0
 28 31  2  0  0  0  0
 28 82  1  0  0  0  0
 29 84  1  0  0  0  0
 30 85  1  0  0  0  0
 31 86  1  0  0  0  0
 32 66  2  0  0  0  0
 33 67  1  0  0  0  0
 33 70  1  0  0  0  0
 34 35  2  0  0  0  0
 36 71  1  0  0  0  0
 36 76  2  0  0  0  0
 37 52  1  0  0  0  0
 37 73  1  0  0  0  0
 37 77  2  0  0  0  0
 38 60  1  0  0  0  0
 38 61  1  0  0  0  0
 38 78  2  0  0  0  0
 39 63  1  0  0  0  0
 39 68  1  0  0  0  0
 39 79  2  0  0  0  0
 40 64  1  0  0  0  0
 40 74  1  0  0  0  0
 40 80  2  0  0  0  0
 41 69  1  0  0  0  0
 41 72  1  0  0  0  0
 41 81  2  0  0  0  0
 42 45  1  0  0  0  0
 43 52  1  0  0  0  0
 44 68  1  0  0  0  0
 45 47  1  0  0  0  0
 46 48  1  0  0  0  0
 46 49  1  0  0  0  0
 47 51  1  0  0  0  0
 48 53  1  0  0  0  0
 49 69  1  0  0  0  0
 50 53  1  0  0  0  0
 50 69  1  0  0  0  0
 51 73  1  0  0  0  0
 52 68  1  0  0  0  0
 53 67  1  0  0  0  0
 55 64  1  0  0  0  0
 56 65  1  0  0  0  0
 57 65  1  0  0  0  0
 58 65  1  0  0  0  0
 59 75  1  0  0  0  0
 60 62  1  0  0  0  0
 61 83  1  0  0  0  0
 62 84  1  0  0  0  0
 63 65  1  0  0  0  0
 63 74  1  0  0  0  0
 64 75  1  0  0  0  0
 66 67  1  0  0  0  0
M  CHG  1  75   1
M  ISO  4  41 100  61 101  72 100  83 101
M  END
> <Batch ID>
0113

> <Smiles>
C=Cc1c(C)cc(OCCC(=O)[101CH2:1][101O:1]c2ccc3c(c2)CN(C(=O)C(NC(=O)C(C)NC)C(C)(C)C)C(C(=O)NC2CCCc4ccccc42)C3)cc1[100NH:0][100C:0](=O)N1CCCC(n2nc(-c3ccc(Oc4ccc(F)cc4F)cc3)c(C(N)=O)c2N)C1

> <Shape>
0.228

> <Color>
0.052

> <Negative vol penalty>
0.000

$$$$

  -OEChem-04052301343D

 82 90  0     1  0  0  0  0  0999 V2000
  -28.8742  -28.8723   11.4563 C   0  0  0  0  0  0  0  0  0  0  0  0
  -29.0213  -28.0005   12.5304 C   0  0  0  0  0  0  0  0  0  0  0  0
  -22.9673   -9.9796   19.9715 C   0  0  0  0  0  0  0  0  0  0  0  0
  -23.7829   -9.9240   22.2450 C   0  0  0  0  0  0  0  0  0  0  0  0
  -28.3723  -30.1561   11.6656 C   0  0  0  0  0  0  0  0  0  0  0  0
  -28.6674  -28.4124   13.8148 C   0  0  0  0  0  0  0  0  0  0  0  0
  -26.0081  -24.9035   16.3168 C   0  0  0  0  0  0  0  0  0  0  0  0
  -22.1945   -8.8455   20.2210 C   0  0  0  0  0  0  0  0  0  0  0  0
  -23.0101   -8.7900   22.4945 C   0  0  0  0  0  0  0  0  0  0  0  0
  -26.7186  -23.8355   16.8629 C   0  0  0  0  0  0  0  0  0  0  0  0
  -23.1845   -5.4707   21.8757 C   0  0  0  0  0  0  0  0  0  0  0  0
  -23.7854   -4.4149   22.5611 C   0  0  0  0  0  0  0  0  0  0  0  0
  -29.7458  -17.3942   20.0794 C   0  0  0  0  0  0  0  0  0  0  0  0
  -26.6460  -24.9011   19.0259 C   0  0  0  0  0  0  0  0  0  0  0  0
  -22.1324   -4.6110   24.3122 C   0  0  0  0  0  0  0  0  0  0  0  0
  -23.7616  -10.5188   20.9835 C   0  0  0  0  0  0  0  0  0  0  0  0
  -29.5468  -16.6416   21.2614 C   0  0  0  0  0  0  0  0  0  0  0  0
  -24.1783  -13.0340   20.8964 C   0  0  0  0  0  0  0  0  0  0  0  0
  -28.0030  -30.5806   12.9517 C   0  0  0  0  0  0  0  0  0  0  0  0
  -25.6200  -25.9853   17.1202 C   0  0  0  0  0  0  0  0  0  0  0  0
  -28.1613  -29.7036   14.0417 C   0  0  0  0  0  0  0  0  0  0  0  0
  -25.9284  -25.9804   18.4881 C   0  0  0  0  0  0  0  0  0  0  0  0
  -22.2158   -8.2507   21.4825 C   0  0  0  0  0  0  0  0  0  0  0  0
  -27.0402  -23.8355   18.2170 C   0  0  0  0  0  0  0  0  0  0  0  0
  -22.0576   -6.0967   22.4085 C   0  0  0  0  0  0  0  0  0  0  0  0
  -23.2593   -3.9851   23.7794 C   0  0  0  0  0  0  0  0  0  0  0  0
  -21.5315   -5.6669   23.6268 C   0  0  0  0  0  0  0  0  0  0  0  0
  -24.5606  -11.6899   20.7262 C   0  0  0  0  0  0  0  0  0  0  0  0
  -28.8350  -18.4240   20.1243 C   0  0  0  0  0  0  0  0  0  0  0  0
  -28.5288  -17.2652   21.9445 C   0  0  0  0  0  0  0  0  0  0  0  0
  -25.2838  -13.7560   20.5183 C   0  0  0  0  0  0  0  0  0  0  0  0
  -26.9371  -17.5328   23.7912 C   0  0  0  0  0  0  0  0  0  0  0  0
  -28.6396  -19.4870   19.1244 C   0  0  0  0  0  0  0  0  0  0  0  0
  -27.9599  -16.8957   23.1872 C   0  0  0  0  0  0  0  0  0  0  0  0
  -27.7203  -20.4619   19.2006 C   0  0  0  0  0  0  0  0  0  0  0  0
  -30.2521  -15.4646   21.6814 C   0  0  0  0  0  0  0  0  0  0  0  0
  -22.9350  -13.5811   21.3553 C   0  0  0  0  0  0  0  0  0  0  0  0
  -30.8241  -14.5040   20.7102 C   0  0  0  0  0  0  0  0  0  0  0  0
  -26.2561  -29.0995   17.1494 C   0  0  0  0  0  0  0  0  0  0  0  0
  -24.0218  -29.1375   19.5007 C   0  0  0  0  0  0  0  0  0  0  0  0
  -22.3511  -27.4297   21.9378 C   0  0  0  0  0  0  0  0  0  0  0  0
  -27.5095  -31.9939   13.1358 C   0  0  0  0  0  0  0  0  0  0  0  0
  -24.8307  -27.1171   16.5214 C   0  0  0  0  0  0  0  0  0  0  0  0
  -25.5172  -27.1081   19.3977 C   0  0  0  0  0  0  0  0  0  0  0  0
  -26.8063  -32.2244   14.4710 C   0  0  0  0  0  0  0  0  0  0  0  0
  -29.5234  -12.3236   18.1783 C   0  0  0  0  0  0  0  0  0  0  0  0
  -27.6187  -31.6224   15.6131 C   0  0  0  0  0  0  0  0  0  0  0  0
  -28.0973  -12.0443   18.6515 C   0  0  0  0  0  0  0  0  0  0  0  0
  -30.4822  -12.4756   19.3547 C   0  0  0  0  0  0  0  0  0  0  0  0
  -28.6345  -13.2411   20.8204 C   0  0  0  0  0  0  0  0  0  0  0  0
  -27.7653  -30.1051   15.4460 C   0  0  1  0  0  0  0  0  0  0  0  0
  -24.9335  -28.4088   17.3265 C   0  0  1  0  0  0  0  0  0  0  0  0
  -27.6319  -13.1090   19.6607 C   0  0  2  0  0  0  0  0  0  0  0  0
  -20.6110  -27.7379   23.7194 C   0  0  0  0  0  0  0  0  0  0  0  0
  -26.0735  -30.5592   21.2554 C   0  0  0  0  0  0  0  0  0  0  0  0
  -24.6628  -29.9915   23.2443 C   0  0  0  0  0  0  0  0  0  0  0  0
  -23.7446  -31.4513   21.4419 C   0  0  0  0  0  0  0  0  0  0  0  0
  -20.5499  -25.4436   20.6849 C   0  0  0  0  0  0  0  0  0  0  0  0
  -27.5502  -21.5135   18.1515 C   0  0  0  0  0  0  0  0  0  1  0  0
  -24.0468  -28.9800   21.0019 C   0  0  1  0  0  0  0  0  0  0  0  0
  -20.8735  -27.3428   22.2745 C   0  0  2  0  0  0  0  0  0  0  0  0
  -24.6415  -30.2250   21.7186 C   0  0  0  0  0  0  0  0  0  0  0  0
  -25.8112  -11.5628   20.2749 N   0  0  0  0  0  0  0  0  0  0  0  0
  -30.4536  -15.1373   22.9405 N   0  0  0  0  0  0  0  0  0  0  0  0
  -26.2244  -12.8363   20.1583 N   0  0  0  0  0  0  0  0  0  0  0  0
  -29.9929  -13.4668   20.3108 N   0  0  0  0  0  0  0  0  0  0  0  0
  -24.7526  -28.1949   18.7638 N   0  0  0  0  0  0  0  0  0  0  0  0
  -25.5334  -15.0815   20.4619 N   0  0  0  0  0  0  0  0  0  0  0  0
  -21.9040  -12.6975   21.7028 N   0  0  0  0  0  0  0  0  0  0  0  0
  -26.5457  -29.4331   15.8401 N   0  0  0  0  0  0  0  0  0  0  0  0
  -22.6814  -28.6562   21.4012 N   0  0  0  0  0  0  0  0  0  0  0  0
  -20.3763  -25.9529   22.0696 N   0  3  0  0  0  0  0  0  0  0  0  0
  -22.7383  -14.8172   21.4387 O   0  0  0  0  0  0  0  0  0  0  0  0
  -31.9760  -14.7287   20.3622 O   0  0  0  0  0  0  0  0  0  0  0  0
  -26.9609  -29.3152   18.1284 O   0  0  0  0  0  0  0  0  0  0  0  0
  -23.3717  -30.0586   19.0001 O   0  0  0  0  0  0  0  0  0  0  0  0
  -23.1348  -26.5036   22.1348 O   0  0  0  0  0  0  0  0  0  0  0  0
  -28.0894  -18.3526   21.2581 O   0  0  0  0  0  0  0  0  0  0  0  0
  -21.4617   -7.1442   21.7264 O   0  0  0  0  0  0  0  0  0  0  0  0
  -27.7342  -22.7946   18.7525 O   0  0  0  0  0  0  0  0  0  1  0  0
  -23.8356   -2.9702   24.4367 F   0  0  0  0  0  0  0  0  0  0  0  0
  -20.4484   -6.2636   24.1431 F   0  0  0  0  0  0  0  0  0  0  0  0
  1  2  1  0  0  0  0
  1  5  2  0  0  0  0
  2  6  2  0  0  0  0
  3  8  2  0  0  0  0
  3 16  1  0  0  0  0
  4  9  1  0  0  0  0
  4 16  2  0  0  0  0
  5 19  1  0  0  0  0
  6 21  1  0  0  0  0
  7 10  2  0  0  0  0
  7 20  1  0  0  0  0
  8 23  1  0  0  0  0
  9 23  2  0  0  0  0
 10 24  1  0  0  0  0
 11 12  2  0  0  0  0
 11 25  1  0  0  0  0
 12 26  1  0  0  0  0
 13 17  1  0  0  0  0
 13 29  2  0  0  0  0
 14 22  1  0  0  0  0
 14 24  2  0  0  0  0
 15 26  2  0  0  0  0
 15 27  1  0  0  0  0
 16 28  1  0  0  0  0
 17 30  2  0  0  0  0
 17 36  1  0  0  0  0
 18 28  1  0  0  0  0
 18 31  2  0  0  0  0
 18 37  1  0  0  0  0
 19 21  2  0  0  0  0
 19 42  1  0  0  0  0
 20 22  2  0  0  0  0
 20 43  1  0  0  0  0
 21 51  1  0  0  0  0
 22 44  1  0  0  0  0
 23 79  1  0  0  0  0
 24 80  1  0  0  0  0
 25 27  2  0  0  0  0
 25 79  1  0  0  0  0
 26 81  1  0  0  0  0
 27 82  1  0  0  0  0
 28 63  2  0  0  0  0
 29 33  1  0  0  0  0
 29 78  1  0  0  0  0
 30 34  1  0  0  0  0
 30 78  1  0  0  0  0
 31 65  1  0  0  0  0
 31 68  1  0  0  0  0
 32 34  2  0  0  0  0
 33 35  2  0  0  0  0
 35 59  1  0  0  0  0
 36 38  1  0  0  0  0
 36 64  2  0  0  0  0
 37 69  1  0  0  0  0
 37 73  2  0  0  0  0
 38 66  1  0  0  0  0
 38 74  2  0  0  0  0
 39 52  1  0  0  0  0
 39 70  1  0  0  0  0
 39 75  2  0  0  0  0
 40 60  1  0  0  0  0
 40 67  1  0  0  0  0
 40 76  2  0  0  0  0
 41 61  1  0  0  0  0
 41 71  1  0  0  0  0
 41 77  2  0  0  0  0
 42 45  1  0  0  0  0
 43 52  1  0  0  0  0
 44 67  1  0  0  0  0
 45 47  1  0  0  0  0
 46 48  1  0  0  0  0
 46 49  1  0  0  0  0
 47 51  1  0  0  0  0
 48 53  1  0  0  0  0
 49 66  1  0  0  0  0
 50 53  1  0  0  0  0
 50 66  1  0  0  0  0
 51 70  1  0  0  0  0
 52 67  1  0  0  0  0
 53 65  1  0  0  0  0
 54 61  1  0  0  0  0
 55 62  1  0  0  0  0
 56 62  1  0  0  0  0
 57 62  1  0  0  0  0
 58 72  1  0  0  0  0
 59 80  1  0  0  0  0
 60 62  1  0  0  0  0
 60 71  1  0  0  0  0
 61 72  1  0  0  0  0
 63 65  1  0  0  0  0
M  CHG  1  72   1
M  ISO  4  36 100  38 100  59 101  80 101
M  END
> <Batch ID>
0113

> <Smiles>
C=Cc1oc(C=C[101CH2:1][101O:1]c2ccc3c(c2)CN(C(=O)C(NC(=O)C(C)NC)C(C)(C)C)C(C(=O)NC2CCCc4ccccc42)C3)cc1[100C:0](=N)[100C:0](=O)N1CCCC(n2nc(-c3ccc(Oc4ccc(F)cc4F)cc3)c(C(N)=O)c2N)C1

> <Shape>
0.315

> <Color>
0.195

> <Negative vol penalty>
0.000

$$$$

  -OEChem-04052301343D

 86 94  0     1  0  0  0  0  0999 V2000
  -34.0235  -37.5657   19.4848 C   0  0  0  0  0  0  0  0  0  0  0  0
  -34.0325  -36.1818   19.6264 C   0  0  0  0  0  0  0  0  0  0  0  0
  -23.0531   -9.8034   20.1176 C   0  0  0  0  0  0  0  0  0  0  0  0
  -23.6709  -10.1096   22.4331 C   0  0  0  0  0  0  0  0  0  0  0  0
  -33.2558  -38.3484   20.3462 C   0  0  0  0  0  0  0  0  0  0  0  0
  -33.2746  -35.5798   20.6302 C   0  0  0  0  0  0  0  0  0  0  0  0
  -30.4162  -30.1712   20.3425 C   0  0  0  0  0  0  0  0  0  0  0  0
  -22.2923   -8.6881   20.4681 C   0  0  0  0  0  0  0  0  0  0  0  0
  -22.9100   -8.9944   22.7836 C   0  0  0  0  0  0  0  0  0  0  0  0
  -30.7649  -28.9006   20.7982 C   0  0  0  0  0  0  0  0  0  0  0  0
  -23.2258   -5.6298   22.6779 C   0  0  0  0  0  0  0  0  0  0  0  0
  -23.7934   -4.7088   23.5583 C   0  0  0  0  0  0  0  0  0  0  0  0
  -30.7297  -19.1090   19.7747 C   0  0  0  0  0  0  0  0  0  0  0  0
  -29.4738  -29.2713   22.8018 C   0  0  0  0  0  0  0  0  0  0  0  0
  -30.0496  -19.4432   22.0688 C   0  0  0  0  0  0  0  0  0  0  0  0
  -21.9909   -5.0917   25.1208 C   0  0  0  0  0  0  0  0  0  0  0  0
  -23.7425  -10.5141   21.1002 C   0  0  0  0  0  0  0  0  0  0  0  0
  -30.5629  -17.7325   19.9257 C   0  0  0  0  0  0  0  0  0  0  0  0
  -24.0977  -13.0046   20.6769 C   0  0  0  0  0  0  0  0  0  0  0  0
  -32.4805  -37.7551   21.3549 C   0  0  0  0  0  0  0  0  0  0  0  0
  -29.6011  -31.0071   21.1194 C   0  0  0  0  0  0  0  0  0  0  0  0
  -32.4969  -36.3554   21.5067 C   0  0  0  0  0  0  0  0  0  0  0  0
  -29.1141  -30.5511   22.3527 C   0  0  0  0  0  0  0  0  0  0  0  0
  -29.8828  -18.0666   22.2198 C   0  0  0  0  0  0  0  0  0  0  0  0
  -30.4731  -19.9644   20.8462 C   0  0  0  0  0  0  0  0  0  0  0  0
  -30.1395  -17.2112   21.1483 C   0  0  0  0  0  0  0  0  0  0  0  0
  -22.2207   -8.2836   21.8011 C   0  0  0  0  0  0  0  0  0  0  0  0
  -30.2961  -28.4515   22.0293 C   0  0  0  0  0  0  0  0  0  0  0  0
  -22.0408   -6.2819   23.0190 C   0  0  0  0  0  0  0  0  0  0  0  0
  -23.1759   -4.4397   24.7797 C   0  0  0  0  0  0  0  0  0  0  0  0
  -21.4233   -6.0128   24.2404 C   0  0  0  0  0  0  0  0  0  0  0  0
  -24.5291  -11.6660   20.7387 C   0  0  0  0  0  0  0  0  0  0  0  0
  -25.2121  -13.7068   20.2876 C   0  0  0  0  0  0  0  0  0  0  0  0
  -29.9403  -16.5586   17.8643 C   0  0  0  0  0  0  0  0  0  0  0  0
  -30.8419  -16.8723   18.7815 C   0  0  0  0  0  0  0  0  0  0  0  0
  -22.8053  -13.5633   20.9473 C   0  0  0  0  0  0  0  0  0  0  0  0
  -29.9671  -33.8497   22.4939 C   0  0  0  0  0  0  0  0  0  0  0  0
  -26.8136  -33.4962   23.1667 C   0  0  0  0  0  0  0  0  0  0  0  0
  -30.4334  -22.3508   21.6501 C   0  0  0  0  0  0  0  0  0  0  0  0
  -24.1696  -31.3900   23.6357 C   0  0  0  0  0  0  0  0  0  0  0  0
  -30.6600  -14.7951   20.6603 C   0  0  0  0  0  0  0  0  0  0  0  0
  -31.7037  -38.6456   22.2920 C   0  0  0  0  0  0  0  0  0  0  0  0
  -29.2122  -32.3647   20.6017 C   0  0  0  0  0  0  0  0  0  0  0  0
  -28.2196  -31.4019   23.2156 C   0  0  0  0  0  0  0  0  0  0  0  0
  -30.6355  -37.9041   23.0915 C   0  0  0  0  0  0  0  0  0  0  0  0
  -29.6866  -12.0906   18.5591 C   0  0  0  0  0  0  0  0  0  0  0  0
  -31.2050  -36.6157   23.6768 C   0  0  0  0  0  0  0  0  0  0  0  0
  -28.2226  -11.8491   18.9337 C   0  0  0  0  0  0  0  0  0  0  0  0
  -30.5269  -12.4771   19.7750 C   0  0  0  0  0  0  0  0  0  0  0  0
  -28.5407  -13.3633   20.9321 C   0  0  0  0  0  0  0  0  0  0  0  0
  -31.6686  -35.6636   22.5676 C   0  0  1  0  0  0  0  0  0  0  0  0
  -28.7969  -33.3296   21.7079 C   0  0  1  0  0  0  0  0  0  0  0  0
  -27.6415  -13.0346   19.7291 C   0  0  2  0  0  0  0  0  0  0  0  0
  -29.4260  -17.5391   23.5416 C   0  0  0  0  0  0  0  0  0  0  0  0
  -21.7271  -31.3925   24.2116 C   0  0  0  0  0  0  0  0  0  0  0  0
  -27.5059  -34.0280   26.0904 C   0  0  0  0  0  0  0  0  0  0  0  0
  -25.2686  -33.0956   26.7174 C   0  0  0  0  0  0  0  0  0  0  0  0
  -25.4118  -35.1401   25.2953 C   0  0  0  0  0  0  0  0  0  0  0  0
  -23.4407  -30.1405   21.0538 C   0  0  0  0  0  0  0  0  0  0  0  0
  -30.7334  -23.7258   21.0697 C   0  0  0  0  0  0  0  0  0  0  0  0
  -30.5195  -24.8488   22.0788 C   0  0  0  0  0  0  0  0  0  0  0  0
  -30.8710  -26.2076   21.4907 C   0  0  0  0  0  0  0  0  0  1  0  0
  -26.0240  -32.8959   24.3048 C   0  0  1  0  0  0  0  0  0  0  0  0
  -22.7534  -31.4140   23.0896 C   0  0  2  0  0  0  0  0  0  0  0  0
  -26.0710  -33.7744   25.5869 C   0  0  0  0  0  0  0  0  0  0  0  0
  -25.8170  -11.5238   20.4144 N   0  0  0  0  0  0  0  0  0  0  0  0
  -26.2044  -12.7821   20.1451 N   0  0  0  0  0  0  0  0  0  0  0  0
  -27.8725  -32.7240   22.6686 N   0  0  0  0  0  0  0  0  0  0  0  0
  -29.9178  -13.6093   20.4764 N   0  0  0  0  0  0  0  0  0  0  0  0
  -25.4301  -15.0189   20.0567 N   0  0  0  0  0  0  0  0  0  0  0  0
  -21.7722  -12.6998   21.3364 N   0  0  0  0  0  0  0  0  0  0  0  0
  -30.6426  -21.3611   20.6938 N   0  0  0  0  0  0  0  0  0  0  0  0
  -29.9660  -15.8144   21.3116 N   0  0  0  0  0  0  0  0  0  0  0  0
  -30.5335  -34.9952   21.9682 N   0  0  0  0  0  0  0  0  0  0  0  0
  -24.6792  -32.6619   23.7898 N   0  0  0  0  0  0  0  0  0  0  0  0
  -22.5162  -30.2324   22.2130 N   0  3  0  0  0  0  0  0  0  0  0  0
  -22.5692  -14.7898   20.8310 O   0  0  0  0  0  0  0  0  0  0  0  0
  -30.3284  -33.2565   23.5036 O   0  0  0  0  0  0  0  0  0  0  0  0
  -26.4978  -34.6061   22.7309 O   0  0  0  0  0  0  0  0  0  0  0  0
  -30.0612  -22.2002   22.8091 O   0  0  0  0  0  0  0  0  0  0  0  0
  -24.7629  -30.3473   23.9028 O   0  0  0  0  0  0  0  0  0  0  0  0
  -31.8161  -14.9082   20.2449 O   0  0  0  0  0  0  0  0  0  0  0  0
  -21.4781   -7.1955   22.1435 O   0  0  0  0  0  0  0  0  0  0  0  0
  -30.6355  -27.2120   22.4767 O   0  0  0  0  0  0  0  0  0  1  0  0
  -23.7202   -3.5540   25.6244 F   0  0  0  0  0  0  0  0  0  0  0  0
  -20.2842   -6.6352   24.5731 F   0  0  0  0  0  0  0  0  0  0  0  0
  1  2  1  0  0  0  0
  1  5  2  0  0  0  0
  2  6  2  0  0  0  0
  3  8  2  0  0  0  0
  3 17  1  0  0  0  0
  4  9  1  0  0  0  0
  4 17  2  0  0  0  0
  5 20  1  0  0  0  0
  6 22  1  0  0  0  0
  7 10  2  0  0  0  0
  7 21  1  0  0  0  0
  8 27  1  0  0  0  0
  9 27  2  0  0  0  0
 10 28  1  0  0  0  0
 11 12  2  0  0  0  0
 11 29  1  0  0  0  0
 12 30  1  0  0  0  0
 13 18  1  0  0  0  0
 13 25  2  0  0  0  0
 14 23  1  0  0  0  0
 14 28  2  0  0  0  0
 15 24  2  0  0  0  0
 15 25  1  0  0  0  0
 16 30  2  0  0  0  0
 16 31  1  0  0  0  0
 17 32  1  0  0  0  0
 18 26  2  0  0  0  0
 18 35  1  0  0  0  0
 19 32  1  0  0  0  0
 19 33  2  0  0  0  0
 19 36  1  0  0  0  0
 20 22  2  0  0  0  0
 20 42  1  0  0  0  0
 21 23  2  0  0  0  0
 21 43  1  0  0  0  0
 22 51  1  0  0  0  0
 23 44  1  0  0  0  0
 24 26  1  0  0  0  0
 24 54  1  0  0  0  0
 25 72  1  0  0  0  0
 26 73  1  0  0  0  0
 27 83  1  0  0  0  0
 28 84  1  0  0  0  0
 29 31  2  0  0  0  0
 29 83  1  0  0  0  0
 30 85  1  0  0  0  0
 31 86  1  0  0  0  0
 32 66  2  0  0  0  0
 33 67  1  0  0  0  0
 33 70  1  0  0  0  0
 34 35  2  0  0  0  0
 36 71  1  0  0  0  0
 36 77  2  0  0  0  0
 37 52  1  0  0  0  0
 37 74  1  0  0  0  0
 37 78  2  0  0  0  0
 38 63  1  0  0  0  0
 38 68  1  0  0  0  0
 38 79  2  0  0  0  0
 39 60  1  0  0  0  0
 39 72  1  0  0  0  0
 39 80  2  0  0  0  0
 40 64  1  0  0  0  0
 40 75  1  0  0  0  0
 40 81  2  0  0  0  0
 41 69  1  0  0  0  0
 41 73  1  0  0  0  0
 41 82  2  0  0  0  0
 42 45  1  0  0  0  0
 43 52  1  0  0  0  0
 44 68  1  0  0  0  0
 45 47  1  0  0  0  0
 46 48  1  0  0  0  0
 46 49  1  0  0  0  0
 47 51  1  0  0  0  0
 48 53  1  0  0  0  0
 49 69  1  0  0  0  0
 50 53  1  0  0  0  0
 50 69  1  0  0  0  0
 51 74  1  0  0  0  0
 52 68  1  0  0  0  0
 53 67  1  0  0  0  0
 55 64  1  0  0  0  0
 56 65  1  0  0  0  0
 57 65  1  0  0  0  0
 58 65  1  0  0  0  0
 59 76  1  0  0  0  0
 60 61  1  0  0  0  0
 61 62  1  0  0  0  0
 62 84  1  0  0  0  0
 63 65  1  0  0  0  0
 63 75  1  0  0  0  0
 64 76  1  0  0  0  0
 66 67  1  0  0  0  0
M  CHG  1  76   1
M  ISO  4  41 100  62 101  73 100  84 101
M  END
> <Batch ID>
0113

> <Smiles>
C=Cc1cc(NC(=O)CC[101CH2:1][101O:1]c2ccc3c(c2)CN(C(=O)C(NC(=O)C(C)NC)C(C)(C)C)C(C(=O)NC2CCCc4ccccc42)C3)cc(C)c1[100NH:0][100C:0](=O)N1CCCC(n2nc(-c3ccc(Oc4ccc(F)cc4F)cc3)c(C(N)=O)c2N)C1

> <Shape>
0.294

> <Color>
0.208

> <Negative vol penalty>
0.000

$$$$

  -OEChem-04052301343D

 89 98  0     1  0  0  0  0  0999 V2000
  -30.4103  -22.4288   15.0714 C   0  0  0  0  0  0  0  0  0  0  0  0
  -29.9886  -22.2877   16.3897 C   0  0  0  0  0  0  0  0  0  0  0  0
  -28.1479  -14.2199   19.8279 C   0  0  0  0  0  0  0  0  0  0  0  0
  -26.6092  -14.7111   21.6246 C   0  0  0  0  0  0  0  0  0  0  0  0
  -30.6813  -23.6970   14.5594 C   0  0  0  0  0  0  0  0  0  0  0  0
  -29.8387  -23.4147   17.1970 C   0  0  0  0  0  0  0  0  0  0  0  0
  -25.5421  -23.3280   19.8759 C   0  0  0  0  0  0  0  0  0  0  0  0
  -27.6413  -12.9228   19.7486 C   0  0  0  0  0  0  0  0  0  0  0  0
  -26.1025  -13.4139   21.5453 C   0  0  0  0  0  0  0  0  0  0  0  0
  -25.5161  -22.5199   21.0117 C   0  0  0  0  0  0  0  0  0  0  0  0
  -23.9577  -11.6953   19.5789 C   0  0  0  0  0  0  0  0  0  0  0  0
  -22.5719  -11.5395   19.6090 C   0  0  0  0  0  0  0  0  0  0  0  0
  -25.9040  -24.4591   22.3930 C   0  0  0  0  0  0  0  0  0  0  0  0
  -24.2243  -19.7959   25.0654 C   0  0  0  0  0  0  0  0  0  0  0  0
  -26.6274  -19.9984   25.2085 C   0  0  0  0  0  0  0  0  0  0  0  0
  -30.5685  -21.5639   27.3094 C   0  0  0  0  0  0  0  0  0  0  0  0
  -27.9697  -21.2433   28.2718 C   0  0  0  0  0  0  0  0  0  0  0  0
  -22.7670  -10.1890   21.6028 C   0  0  0  0  0  0  0  0  0  0  0  0
  -27.6319  -15.1141   20.7660 C   0  0  0  0  0  0  0  0  0  0  0  0
  -27.7012  -17.5886   20.1501 C   0  0  0  0  0  0  0  0  0  0  0  0
  -30.5254  -24.8409   15.3579 C   0  0  0  0  0  0  0  0  0  0  0  0
  -25.7604  -24.7085   19.9894 C   0  0  0  0  0  0  0  0  0  0  0  0
  -30.1092  -24.6993   16.6955 C   0  0  0  0  0  0  0  0  0  0  0  0
  -25.9297  -25.2830   21.2573 C   0  0  0  0  0  0  0  0  0  0  0  0
  -25.4359  -20.2161   24.5168 C   0  0  0  0  0  0  0  0  0  0  0  0
  -25.3957  -18.9403   26.9974 C   0  0  0  0  0  0  0  0  0  0  0  0
  -24.2041  -19.1580   26.3057 C   0  0  0  0  0  0  0  0  0  0  0  0
  -30.0067  -22.5355   28.1375 C   0  0  0  0  0  0  0  0  0  0  0  0
  -29.8309  -20.4320   26.9623 C   0  0  0  0  0  0  0  0  0  0  0  0
  -28.7073  -22.3752   28.6188 C   0  0  0  0  0  0  0  0  0  0  0  0
  -26.6186  -12.5197   20.6072 C   0  0  0  0  0  0  0  0  0  0  0  0
  -25.7000  -23.0850   22.2702 C   0  0  0  0  0  0  0  0  0  0  0  0
  -24.7482  -11.0979   20.5607 C   0  0  0  0  0  0  0  0  0  0  0  0
  -26.6074  -19.3605   26.4488 C   0  0  0  0  0  0  0  0  0  0  0  0
  -28.5315  -20.2717   27.4435 C   0  0  0  0  0  0  0  0  0  0  0  0
  -21.9766  -10.7864   20.6209 C   0  0  0  0  0  0  0  0  0  0  0  0
  -24.1528  -10.3448   21.5726 C   0  0  0  0  0  0  0  0  0  0  0  0
  -28.1553  -16.4540   20.8488 C   0  0  0  0  0  0  0  0  0  0  0  0
  -28.5213  -18.6049   20.5757 C   0  0  0  0  0  0  0  0  0  0  0  0
  -26.6336  -17.7129   19.2012 C   0  0  0  0  0  0  0  0  0  0  0  0
  -27.9946  -26.7188   18.9545 C   0  0  0  0  0  0  0  0  0  0  0  0
  -26.0042  -28.9576   20.1989 C   0  0  0  0  0  0  0  0  0  0  0  0
  -23.5229  -29.7174   22.4154 C   0  0  0  0  0  0  0  0  0  0  0  0
  -31.6940  -19.4723   25.5644 C   0  0  0  0  0  0  0  0  0  0  0  0
  -30.8759  -26.1868   14.7744 C   0  0  0  0  0  0  0  0  0  0  0  0
  -25.7589  -25.5704   18.7567 C   0  0  0  0  0  0  0  0  0  0  0  0
  -26.1473  -26.7627   21.4348 C   0  0  0  0  0  0  0  0  0  0  0  0
  -30.3319  -27.3616   15.5833 C   0  0  0  0  0  0  0  0  0  0  0  0
  -32.9435  -19.4042   22.2310 C   0  0  0  0  0  0  0  0  0  0  0  0
  -30.6089  -27.1602   17.0697 C   0  0  0  0  0  0  0  0  0  0  0  0
  -31.8136  -18.7487   21.4336 C   0  0  0  0  0  0  0  0  0  0  0  0
  -33.0861  -18.7898   23.6224 C   0  0  0  0  0  0  0  0  0  0  0  0
  -30.7210  -18.1005   23.6184 C   0  0  0  0  0  0  0  0  0  0  0  0
  -29.9109  -25.8999   17.5951 C   0  0  1  0  0  0  0  0  0  0  0  0
  -26.5017  -26.8890   18.9487 C   0  0  1  0  0  0  0  0  0  0  0  0
  -30.4964  -18.7300   22.2338 C   0  0  2  0  0  0  0  0  0  0  0  0
  -25.3832  -18.2580   28.3288 C   0  0  0  0  0  0  0  0  0  0  0  0
  -22.1283  -31.6386   23.2287 C   0  0  0  0  0  0  0  0  0  0  0  0
  -28.3852  -30.0085   21.7916 C   0  0  0  0  0  0  0  0  0  0  0  0
  -26.7730  -31.2529   23.2477 C   0  0  0  0  0  0  0  0  0  0  0  0
  -26.9186  -31.7830   20.8145 C   0  0  0  0  0  0  0  0  0  0  0  0
  -21.0106  -28.4057   21.5629 C   0  0  0  0  0  0  0  0  0  0  0  0
  -25.4572  -20.9021   23.1825 C   0  0  0  0  0  0  0  0  0  1  0  0
  -25.8451  -29.6149   21.5486 C   0  0  1  0  0  0  0  0  0  0  0  0
  -22.2213  -30.4803   22.2476 C   0  0  2  0  0  0  0  0  0  0  0  0
  -26.9783  -30.6366   21.8474 C   0  0  0  0  0  0  0  0  0  0  0  0
  -29.1841  -16.7235   21.6568 N   0  0  0  0  0  0  0  0  0  0  0  0
  -29.3834  -18.0391   21.4685 N   0  0  0  0  0  0  0  0  0  0  0  0
  -26.1439  -27.5625   20.1988 N   0  0  0  0  0  0  0  0  0  0  0  0
  -31.8001  -18.8103   24.3229 N   0  0  0  0  0  0  0  0  0  0  0  0
  -22.9676  -18.7388   26.8445 N   0  0  0  0  0  0  0  0  0  0  0  0
  -30.7703  -23.6755   28.4745 N   0  0  0  0  0  0  0  0  0  0  0  0
  -28.1200  -23.3463   29.4603 N   0  0  0  0  0  0  0  0  0  0  0  0
  -28.5820  -19.9183   20.2696 N   0  0  0  0  0  0  0  0  0  0  0  0
  -25.8913  -16.5691   18.8771 N   0  0  0  0  0  0  0  0  0  0  0  0
  -30.4153  -19.4535   26.1203 N   0  0  0  0  0  0  0  0  0  0  0  0
  -28.5006  -26.1517   17.8005 N   0  0  0  0  0  0  0  0  0  0  0  0
  -24.5035  -30.1879   21.5679 N   0  0  0  0  0  0  0  0  0  0  0  0
  -21.0582  -29.5768   22.4756 N   0  3  0  0  0  0  0  0  0  0  0  0
  -26.3570  -18.8025   18.6445 O   0  0  0  0  0  0  0  0  0  0  0  0
  -28.6397  -27.0769   19.9329 O   0  0  0  0  0  0  0  0  0  0  0  0
  -25.9974  -29.6555   19.1818 O   0  0  0  0  0  0  0  0  0  0  0  0
  -23.6574  -28.7985   23.2205 O   0  0  0  0  0  0  0  0  0  0  0  0
  -32.6597  -20.0392   26.0822 O   0  0  0  0  0  0  0  0  0  0  0  0
  -26.1238  -11.2541   20.5299 O   0  0  0  0  0  0  0  0  0  0  0  0
  -27.7817  -19.1573   27.1094 O   0  0  0  0  0  0  0  0  0  0  0  0
  -25.6757  -22.2984   23.3804 O   0  0  0  0  0  0  0  0  0  1  0  0
  -20.6456  -10.6381   20.6506 F   0  0  0  0  0  0  0  0  0  0  0  0
  -24.9069   -9.7694   22.5193 F   0  0  0  0  0  0  0  0  0  0  0  0
  1  2  1  0  0  0  0
  1  5  2  0  0  0  0
  2  6  2  0  0  0  0
  3  8  2  0  0  0  0
  3 19  1  0  0  0  0
  4  9  1  0  0  0  0
  4 19  2  0  0  0  0
  5 21  1  0  0  0  0
  6 23  1  0  0  0  0
  7 10  2  0  0  0  0
  7 22  1  0  0  0  0
  8 31  1  0  0  0  0
  9 31  2  0  0  0  0
 10 32  1  0  0  0  0
 11 12  2  0  0  0  0
 11 33  1  0  0  0  0
 12 36  1  0  0  0  0
 13 24  1  0  0  0  0
 13 32  2  0  0  0  0
 14 25  1  0  0  0  0
 14 27  2  0  0  0  0
 15 25  2  0  0  0  0
 15 34  1  0  0  0  0
 16 28  2  0  0  0  0
 16 29  1  0  0  0  0
 17 30  2  0  0  0  0
 17 35  1  0  0  0  0
 18 36  2  0  0  0  0
 18 37  1  0  0  0  0
 19 38  1  0  0  0  0
 20 38  1  0  0  0  0
 20 39  2  0  0  0  0
 20 40  1  0  0  0  0
 21 23  2  0  0  0  0
 21 45  1  0  0  0  0
 22 24  2  0  0  0  0
 22 46  1  0  0  0  0
 23 54  1  0  0  0  0
 24 47  1  0  0  0  0
 25 63  1  0  0  0  0
 26 27  1  0  0  0  0
 26 34  2  0  0  0  0
 26 57  1  0  0  0  0
 27 71  1  0  0  0  0
 28 30  1  0  0  0  0
 28 72  1  0  0  0  0
 29 35  2  0  0  0  0
 29 76  1  0  0  0  0
 30 73  1  0  0  0  0
 31 85  1  0  0  0  0
 32 87  1  0  0  0  0
 33 37  2  0  0  0  0
 33 85  1  0  0  0  0
 34 86  1  0  0  0  0
 35 86  1  0  0  0  0
 36 88  1  0  0  0  0
 37 89  1  0  0  0  0
 38 67  2  0  0  0  0
 39 68  1  0  0  0  0
 39 74  1  0  0  0  0
 40 75  1  0  0  0  0
 40 80  2  0  0  0  0
 41 55  1  0  0  0  0
 41 77  1  0  0  0  0
 41 81  2  0  0  0  0
 42 64  1  0  0  0  0
 42 69  1  0  0  0  0
 42 82  2  0  0  0  0
 43 65  1  0  0  0  0
 43 78  1  0  0  0  0
 43 83  2  0  0  0  0
 44 70  1  0  0  0  0
 44 76  1  0  0  0  0
 44 84  2  0  0  0  0
 45 48  1  0  0  0  0
 46 55  1  0  0  0  0
 47 69  1  0  0  0  0
 48 50  1  0  0  0  0
 49 51  1  0  0  0  0
 49 52  1  0  0  0  0
 50 54  1  0  0  0  0
 51 56  1  0  0  0  0
 52 70  1  0  0  0  0
 53 56  1  0  0  0  0
 53 70  1  0  0  0  0
 54 77  1  0  0  0  0
 55 69  1  0  0  0  0
 56 68  1  0  0  0  0
 58 65  1  0  0  0  0
 59 66  1  0  0  0  0
 60 66  1  0  0  0  0
 61 66  1  0  0  0  0
 62 79  1  0  0  0  0
 63 87  1  0  0  0  0
 64 66  1  0  0  0  0
 64 78  1  0  0  0  0
 65 79  1  0  0  0  0
 67 68  1  0  0  0  0
M  CHG  1  79   1
M  ISO  4  44 100  63 101  76 100  87 101
M  END
> <Batch ID>
0113

> <Smiles>
CNC(C)C(=O)NC(C(=O)N1Cc2cc([101O:1][101CH2:1]c3cc(N)c(C)c(Oc4cc(N)c(N)cc4[100NH:0][100C:0](=O)N4CCCC(n5nc(-c6ccc(Oc7ccc(F)cc7F)cc6)c(C(N)=O)c5N)C4)c3)ccc2CC1C(=O)NC1CCCc2ccccc21)C(C)(C)C

> <Shape>
0.205

> <Color>
0.066

> <Negative vol penalty>
0.000

$$$$

  -OEChem-04052301343D

 84 92  0     1  0  0  0  0  0999 V2000
  -24.2962   -6.3465   23.6268 C   0  0  0  0  0  0  0  0  0  0  0  0
  -25.4814   -7.0498   23.4366 C   0  0  0  0  0  0  0  0  0  0  0  0
  -23.4447  -32.8666   22.3138 C   0  0  0  0  0  0  0  0  0  0  0  0
  -25.5225  -32.2297   23.3692 C   0  0  0  0  0  0  0  0  0  0  0  0
  -23.1287   -6.7652   22.9901 C   0  0  0  0  0  0  0  0  0  0  0  0
  -25.4999   -8.1716   22.6086 C   0  0  0  0  0  0  0  0  0  0  0  0
  -28.7113  -14.5358   21.9011 C   0  0  0  0  0  0  0  0  0  0  0  0
  -23.4320  -34.0496   23.0528 C   0  0  0  0  0  0  0  0  0  0  0  0
  -25.5099  -33.4127   24.1081 C   0  0  0  0  0  0  0  0  0  0  0  0
  -29.4039  -15.2938   20.9580 C   0  0  0  0  0  0  0  0  0  0  0  0
  -26.2476  -36.6716   23.6022 C   0  0  0  0  0  0  0  0  0  0  0  0
  -27.4389  -37.3916   23.6903 C   0  0  0  0  0  0  0  0  0  0  0  0
  -27.3088  -15.9710   19.9726 C   0  0  0  0  0  0  0  0  0  0  0  0
  -28.9187  -22.5480   19.6247 C   0  0  0  0  0  0  0  0  0  0  0  0
  -26.7776  -21.8814   21.2843 C   0  0  0  0  0  0  0  0  0  0  0  0
  -27.4052  -37.1532   26.0943 C   0  0  0  0  0  0  0  0  0  0  0  0
  -24.4899  -31.9566   22.4721 C   0  0  0  0  0  0  0  0  0  0  0  0
  -25.0835  -30.5284   20.4434 C   0  0  0  0  0  0  0  0  0  0  0  0
  -23.1307   -7.8983   22.1615 C   0  0  0  0  0  0  0  0  0  0  0  0
  -27.3102  -14.4809   21.8803 C   0  0  0  0  0  0  0  0  0  0  0  0
  -24.3316   -8.6050   21.9592 C   0  0  0  0  0  0  0  0  0  0  0  0
  -26.6007  -15.2136   20.9181 C   0  0  0  0  0  0  0  0  0  0  0  0
  -28.8870  -21.3050   20.2568 C   0  0  0  0  0  0  0  0  0  0  0  0
  -27.8164  -20.9717   21.0866 C   0  0  0  0  0  0  0  0  0  0  0  0
  -26.8095  -23.1244   20.6522 C   0  0  0  0  0  0  0  0  0  0  0  0
  -24.4646  -34.3226   23.9499 C   0  0  0  0  0  0  0  0  0  0  0  0
  -28.7028  -16.0092   19.9918 C   0  0  0  0  0  0  0  0  0  0  0  0
  -25.6350  -36.1924   24.7601 C   0  0  0  0  0  0  0  0  0  0  0  0
  -27.8800  -23.4578   19.8225 C   0  0  0  0  0  0  0  0  0  0  0  0
  -28.0178  -37.6324   24.9364 C   0  0  0  0  0  0  0  0  0  0  0  0
  -26.2138  -36.4332   26.0062 C   0  0  0  0  0  0  0  0  0  0  0  0
  -24.5033  -30.7342   21.7095 C   0  0  0  0  0  0  0  0  0  0  0  0
  -24.8254  -29.2099   20.1577 C   0  0  0  0  0  0  0  0  0  0  0  0
  -29.8020  -19.5945   19.0477 C   0  0  0  0  0  0  0  0  0  0  0  0
  -25.7924  -31.4468   19.6010 C   0  0  0  0  0  0  0  0  0  0  0  0
  -25.1615  -12.1733   21.4781 C   0  0  0  0  0  0  0  0  0  0  0  0
  -23.0615  -14.5376   22.2009 C   0  0  0  0  0  0  0  0  0  0  0  0
  -22.3873  -17.8814   22.3068 C   0  0  0  0  0  0  0  0  0  0  0  0
  -24.6167  -23.8516   21.6569 C   0  0  0  0  0  0  0  0  0  0  0  0
  -21.8544   -8.2849   21.4571 C   0  0  0  0  0  0  0  0  0  0  0  0
  -26.5770  -13.6799   22.9211 C   0  0  0  0  0  0  0  0  0  0  0  0
  -25.0955  -15.2043   20.8653 C   0  0  0  0  0  0  0  0  0  0  0  0
  -21.8755   -9.7032   20.8930 C   0  0  0  0  0  0  0  0  0  0  0  0
  -21.7975  -25.8717   22.4621 C   0  0  0  0  0  0  0  0  0  0  0  0
  -23.1811   -9.9619   20.1478 C   0  0  0  0  0  0  0  0  0  0  0  0
  -22.2979  -27.2999   22.2339 C   0  0  0  0  0  0  0  0  0  0  0  0
  -22.8884  -24.9749   23.0447 C   0  0  0  0  0  0  0  0  0  0  0  0
  -24.6499  -26.3910   22.0644 C   0  0  0  0  0  0  0  0  0  0  0  0
  -24.3863   -9.8414   21.0882 C   0  0  1  0  0  0  0  0  0  0  0  0
  -25.1683  -13.2853   22.4886 C   0  0  1  0  0  0  0  0  0  0  0  0
  -23.6053  -27.3154   21.4179 C   0  0  2  0  0  0  0  0  0  0  0  0
  -20.5731  -19.5071   22.9094 C   0  0  0  0  0  0  0  0  0  0  0  0
  -21.5912  -13.8506   19.6171 C   0  0  0  0  0  0  0  0  0  0  0  0
  -20.4095  -16.0514   19.7864 C   0  0  0  0  0  0  0  0  0  0  0  0
  -20.1025  -14.3326   21.5680 C   0  0  0  0  0  0  0  0  0  0  0  0
  -24.0596  -19.1537   24.3910 C   0  0  0  0  0  0  0  0  0  0  0  0
  -28.5695  -25.7328   19.8897 C   0  0  0  0  0  0  0  0  0  0  0  0
  -30.8759  -18.5939   18.7138 C   0  0  0  0  0  0  0  0  0  0  0  0
  -30.6318  -17.2981   19.4686 C   0  0  0  0  0  0  0  0  0  1  0  0
  -22.3005  -15.5714   21.4065 C   0  0  1  0  0  0  0  0  0  0  0  0
  -21.8015  -18.7568   23.4000 C   0  0  2  0  0  0  0  0  0  0  0  0
  -21.1294  -14.9503   20.5940 C   0  0  0  0  0  0  0  0  0  0  0  0
  -23.9205  -29.6346   22.1945 N   0  0  0  0  0  0  0  0  0  0  0  0
  -29.9445  -20.4046   20.0454 N   0  0  0  0  0  0  0  0  0  0  0  0
  -24.1330  -28.7252   21.2281 N   0  0  0  0  0  0  0  0  0  0  0  0
  -24.4242  -14.4011   21.9006 N   0  0  0  0  0  0  0  0  0  0  0  0
  -24.0951  -25.0369   22.2172 N   0  0  0  0  0  0  0  0  0  0  0  0
  -27.7677  -19.7178   21.7353 N   0  0  0  0  0  0  0  0  0  0  0  0
  -25.1254  -28.4296   19.0978 N   0  0  0  0  0  0  0  0  0  0  0  0
  -25.9683  -32.7636   20.0476 N   0  0  0  0  0  0  0  0  0  0  0  0
  -25.7473  -24.0384   20.8622 N   0  0  0  0  0  0  0  0  0  0  0  0
  -24.5119  -11.0304   21.9037 N   0  0  0  0  0  0  0  0  0  0  0  0
  -21.8891  -16.5968   22.3592 N   0  0  0  0  0  0  0  0  0  0  0  0
  -22.8086  -19.7541   23.8604 N   0  3  0  0  0  0  0  0  0  0  0  0
  -26.2417  -31.1141   18.4781 O   0  0  0  0  0  0  0  0  0  0  0  0
  -25.7041  -12.3405   20.3921 O   0  0  0  0  0  0  0  0  0  0  0  0
  -22.4703  -13.8806   23.0614 O   0  0  0  0  0  0  0  0  0  0  0  0
  -23.2024  -18.2968   21.4861 O   0  0  0  0  0  0  0  0  0  0  0  0
  -24.0828  -22.7554   21.8446 O   0  0  0  0  0  0  0  0  0  0  0  0
  -24.4526  -35.4770   24.6709 O   0  0  0  0  0  0  0  0  0  0  0  0
  -27.9288  -24.6660   19.1936 O   0  0  0  0  0  0  0  0  0  0  0  0
  -29.3764  -16.7494   19.0696 O   0  0  0  0  0  0  0  0  0  1  0  0
  -29.1626  -38.3226   25.0207 F   0  0  0  0  0  0  0  0  0  0  0  0
  -25.6305  -35.9743   27.1220 F   0  0  0  0  0  0  0  0  0  0  0  0
  1  2  1  0  0  0  0
  1  5  2  0  0  0  0
  2  6  2  0  0  0  0
  3  8  2  0  0  0  0
  3 17  1  0  0  0  0
  4  9  1  0  0  0  0
  4 17  2  0  0  0  0
  5 19  1  0  0  0  0
  6 21  1  0  0  0  0
  7 10  2  0  0  0  0
  7 20  1  0  0  0  0
  8 26  1  0  0  0  0
  9 26  2  0  0  0  0
 10 27  1  0  0  0  0
 11 12  2  0  0  0  0
 11 28  1  0  0  0  0
 12 30  1  0  0  0  0
 13 22  1  0  0  0  0
 13 27  2  0  0  0  0
 14 23  1  0  0  0  0
 14 29  2  0  0  0  0
 15 24  1  0  0  0  0
 15 25  2  0  0  0  0
 16 30  2  0  0  0  0
 16 31  1  0  0  0  0
 17 32  1  0  0  0  0
 18 32  1  0  0  0  0
 18 33  2  0  0  0  0
 18 35  1  0  0  0  0
 19 21  2  0  0  0  0
 19 40  1  0  0  0  0
 20 22  2  0  0  0  0
 20 41  1  0  0  0  0
 21 49  1  0  0  0  0
 22 42  1  0  0  0  0
 23 24  2  0  0  0  0
 23 64  1  0  0  0  0
 24 68  1  0  0  0  0
 25 29  1  0  0  0  0
 25 71  1  0  0  0  0
 26 80  1  0  0  0  0
 27 82  1  0  0  0  0
 28 31  2  0  0  0  0
 28 80  1  0  0  0  0
 29 81  1  0  0  0  0
 30 83  1  0  0  0  0
 31 84  1  0  0  0  0
 32 63  2  0  0  0  0
 33 65  1  0  0  0  0
 33 69  1  0  0  0  0
 34 58  1  0  0  0  0
 34 64  2  0  0  0  0
 35 70  1  0  0  0  0
 35 75  2  0  0  0  0
 36 50  1  0  0  0  0
 36 72  1  0  0  0  0
 36 76  2  0  0  0  0
 37 60  1  0  0  0  0
 37 66  1  0  0  0  0
 37 77  2  0  0  0  0
 38 61  1  0  0  0  0
 38 73  1  0  0  0  0
 38 78  2  0  0  0  0
 39 67  1  0  0  0  0
 39 71  1  0  0  0  0
 39 79  2  0  0  0  0
 40 43  1  0  0  0  0
 41 50  1  0  0  0  0
 42 66  1  0  0  0  0
 43 45  1  0  0  0  0
 44 46  1  0  0  0  0
 44 47  1  0  0  0  0
 45 49  1  0  0  0  0
 46 51  1  0  0  0  0
 47 67  1  0  0  0  0
 48 51  1  0  0  0  0
 48 67  1  0  0  0  0
 49 72  1  0  0  0  0
 50 66  1  0  0  0  0
 51 65  1  0  0  0  0
 52 61  1  0  0  0  0
 53 62  1  0  0  0  0
 54 62  1  0  0  0  0
 55 62  1  0  0  0  0
 56 74  1  0  0  0  0
 57 81  1  0  0  0  0
 58 59  1  0  0  0  0
 59 82  1  0  0  0  0
 60 62  1  0  0  0  0
 60 73  1  0  0  0  0
 61 74  1  0  0  0  0
 63 65  1  0  0  0  0
M  CHG  1  74   1
M  ISO  4  39 100  59 101  71 100  82 101
M  END
> <Batch ID>
0113

> <Smiles>
CNC(C)C(=O)NC(C(=O)N1Cc2cc([101O:1][101CH2:1]C=CNc3cc(OC)c([100NH:0][100C:0](=O)N4CCCC(n5nc(-c6ccc(Oc7ccc(F)cc7F)cc6)c(C(N)=O)c5N)C4)cc3N)ccc2CC1C(=O)NC1CCCc2ccccc21)C(C)(C)C

> <Shape>
0.262

> <Color>
0.060

> <Negative vol penalty>
0.000

$$$$

  -OEChem-04052301343D

 87 95  0     1  0  0  0  0  0999 V2000
  -17.3126  -13.8360   23.4536 C   0  0  0  0  0  0  0  0  0  0  0  0
  -18.2270  -14.8554   23.2083 C   0  0  0  0  0  0  0  0  0  0  0  0
  -26.7767  -28.3616   22.5171 C   0  0  0  0  0  0  0  0  0  0  0  0
  -25.4377  -28.3830   20.5062 C   0  0  0  0  0  0  0  0  0  0  0  0
  -17.7656  -12.5535   23.7601 C   0  0  0  0  0  0  0  0  0  0  0  0
  -19.5951  -14.5931   23.2705 C   0  0  0  0  0  0  0  0  0  0  0  0
  -22.1418  -16.6302   19.3963 C   0  0  0  0  0  0  0  0  0  0  0  0
  -27.7587  -27.6245   21.8554 C   0  0  0  0  0  0  0  0  0  0  0  0
  -26.4197  -27.6459   19.8444 C   0  0  0  0  0  0  0  0  0  0  0  0
  -22.4085  -17.9973   19.4582 C   0  0  0  0  0  0  0  0  0  0  0  0
  -30.2597  -28.2155   19.6580 C   0  0  0  0  0  0  0  0  0  0  0  0
  -31.5877  -28.6078   19.8253 C   0  0  0  0  0  0  0  0  0  0  0  0
  -24.6533  -17.5197   20.2011 C   0  0  0  0  0  0  0  0  0  0  0  0
  -20.6513  -24.6253   22.8877 C   0  0  0  0  0  0  0  0  0  0  0  0
  -19.4076  -26.4858   21.2221 C   0  0  0  0  0  0  0  0  0  0  0  0
  -32.1105  -26.4410   20.7574 C   0  0  0  0  0  0  0  0  0  0  0  0
  -25.6161  -28.7409   21.8425 C   0  0  0  0  0  0  0  0  0  0  0  0
  -24.5003  -30.9036   22.6075 C   0  0  0  0  0  0  0  0  0  0  0  0
  -19.1400  -12.2731   23.8165 C   0  0  0  0  0  0  0  0  0  0  0  0
  -23.1272  -15.6963   19.7475 C   0  0  0  0  0  0  0  0  0  0  0  0
  -20.0670  -13.3059   23.5793 C   0  0  0  0  0  0  0  0  0  0  0  0
  -24.3975  -16.1413   20.1404 C   0  0  0  0  0  0  0  0  0  0  0  0
  -19.7521  -25.5481   23.4219 C   0  0  0  0  0  0  0  0  0  0  0  0
  -20.9288  -24.6328   21.5207 C   0  0  0  0  0  0  0  0  0  0  0  0
  -19.1302  -26.4783   22.5891 C   0  0  0  0  0  0  0  0  0  0  0  0
  -27.5802  -27.2667   20.5191 C   0  0  0  0  0  0  0  0  0  0  0  0
  -23.6634  -18.4423   19.8634 C   0  0  0  0  0  0  0  0  0  0  0  0
  -29.8570  -26.9359   20.0404 C   0  0  0  0  0  0  0  0  0  0  0  0
  -20.3069  -25.5630   20.6879 C   0  0  0  0  0  0  0  0  0  0  0  0
  -32.5131  -27.7206   20.3750 C   0  0  0  0  0  0  0  0  0  0  0  0
  -30.7824  -26.0487   20.5901 C   0  0  0  0  0  0  0  0  0  0  0  0
  -24.6011  -29.5018   22.5257 C   0  0  0  0  0  0  0  0  0  0  0  0
  -23.3724  -31.1234   23.3598 C   0  0  0  0  0  0  0  0  0  0  0  0
  -16.2666  -28.8318   22.8478 C   0  0  0  0  0  0  0  0  0  0  0  0
  -23.3353  -21.8624   20.8965 C   0  0  0  0  0  0  0  0  0  0  0  0
  -17.1410  -27.9419   22.3733 C   0  0  0  0  0  0  0  0  0  0  0  0
  -23.1630  -20.5441   20.7592 C   0  0  0  0  0  0  0  0  0  1  0  0
  -25.3502  -31.9164   22.0529 C   0  0  0  0  0  0  0  0  0  0  0  0
  -23.3959  -13.4521   21.9825 C   0  0  0  0  0  0  0  0  0  0  0  0
  -26.1285  -12.7396   20.3864 C   0  0  0  0  0  0  0  0  0  0  0  0
  -28.6289  -13.7853   18.3124 C   0  0  0  0  0  0  0  0  0  0  0  0
  -18.4512  -28.0130   24.3991 C   0  0  0  0  0  0  0  0  0  0  0  0
  -19.5820  -10.8826   24.1983 C   0  0  0  0  0  0  0  0  0  0  0  0
  -22.8322  -14.2246   19.6498 C   0  0  0  0  0  0  0  0  0  0  0  0
  -25.4961  -15.1790   20.5084 C   0  0  0  0  0  0  0  0  0  0  0  0
  -21.0470  -10.5992   23.8761 C   0  0  0  0  0  0  0  0  0  0  0  0
  -20.7129  -29.1527   26.8021 C   0  0  0  0  0  0  0  0  0  0  0  0
  -21.9285  -11.7552   24.3382 C   0  0  0  0  0  0  0  0  0  0  0  0
  -21.9627  -29.5036   25.9955 C   0  0  0  0  0  0  0  0  0  0  0  0
  -20.0651  -27.8756   26.2794 C   0  0  0  0  0  0  0  0  0  0  0  0
  -20.9578  -28.2777   24.0067 C   0  0  0  0  0  0  0  0  0  0  0  0
  -21.5590  -13.0549   23.6130 C   0  0  1  0  0  0  0  0  0  0  0  0
  -23.7473  -13.3725   20.5238 C   0  0  1  0  0  0  0  0  0  0  0  0
  -21.6485  -29.5686   24.4904 C   0  0  2  0  0  0  0  0  0  0  0  0
  -19.4757  -25.5191   24.8901 C   0  0  0  0  0  0  0  0  0  0  0  0
  -21.9953  -26.4523   17.6359 C   0  0  0  0  0  0  0  0  0  0  0  0
  -30.7415  -12.9893   17.2166 C   0  0  0  0  0  0  0  0  0  0  0  0
  -27.6000  -12.9890   23.0477 C   0  0  0  0  0  0  0  0  0  0  0  0
  -29.7468  -13.1330   21.7676 C   0  0  0  0  0  0  0  0  0  0  0  0
  -28.3440  -11.0756   21.6195 C   0  0  0  0  0  0  0  0  0  0  0  0
  -27.5304  -14.2370   15.6016 C   0  0  0  0  0  0  0  0  0  0  0  0
  -22.5020  -22.7160   21.7976 C   0  0  0  0  0  0  0  0  0  0  0  0
  -21.1123  -26.7918   18.8178 C   0  0  0  0  0  0  0  0  0  0  0  0
  -27.5664  -13.1910   20.4739 C   0  0  1  0  0  0  0  0  0  0  0  0
  -29.2370  -13.1571   17.0714 C   0  0  2  0  0  0  0  0  0  0  0  0
  -28.2932  -12.6156   21.7222 C   0  0  0  0  0  0  0  0  0  0  0  0
  -23.6159  -28.8753   23.1745 N   0  0  0  0  0  0  0  0  0  0  0  0
  -22.8854  -29.8881   23.6711 N   0  0  0  0  0  0  0  0  0  0  0  0
  -25.1568  -13.7503   20.4029 N   0  0  0  0  0  0  0  0  0  0  0  0
  -19.7870  -27.9752   24.8462 N   0  0  0  0  0  0  0  0  0  0  0  0
  -22.7597  -32.2510   23.7790 N   0  0  0  0  0  0  0  0  0  0  0  0
  -26.4667  -31.5164   21.3061 N   0  0  0  0  0  0  0  0  0  0  0  0
  -21.8231  -23.7082   21.0021 N   0  0  0  0  0  0  0  0  0  0  0  0
  -22.1036  -13.0579   22.2722 N   0  0  0  0  0  0  0  0  0  0  0  0
  -28.1855  -12.8306   19.2030 N   0  0  0  0  0  0  0  0  0  0  0  0
  -18.1931  -27.4441   23.1249 N   0  0  0  0  0  0  0  0  0  0  0  0
  -28.9722  -14.0084   15.8771 N   0  3  0  0  0  0  0  0  0  0  0  0
  -25.1353  -33.1397   22.2286 O   0  0  0  0  0  0  0  0  0  0  0  0
  -24.2356  -13.8409   22.7859 O   0  0  0  0  0  0  0  0  0  0  0  0
  -25.8770  -11.5352   20.2991 O   0  0  0  0  0  0  0  0  0  0  0  0
  -28.5580  -15.0011   18.4770 O   0  0  0  0  0  0  0  0  0  0  0  0
  -17.5465  -28.4982   25.0908 O   0  0  0  0  0  0  0  0  0  0  0  0
  -28.5384  -26.5476   19.8730 O   0  0  0  0  0  0  0  0  0  0  0  0
  -23.9261  -19.7761   19.9252 O   0  0  0  0  0  0  0  0  0  1  0  0
  -20.5651  -25.5873   19.3498 O   0  0  0  0  0  0  0  0  0  0  0  0
  -33.7887  -28.0970   20.5341 F   0  0  0  0  0  0  0  0  0  0  0  0
  -30.4017  -24.8177   20.9583 F   0  0  0  0  0  0  0  0  0  0  0  0
  1  2  1  0  0  0  0
  1  5  2  0  0  0  0
  2  6  2  0  0  0  0
  3  8  2  0  0  0  0
  3 17  1  0  0  0  0
  4  9  1  0  0  0  0
  4 17  2  0  0  0  0
  5 19  1  0  0  0  0
  6 21  1  0  0  0  0
  7 10  2  0  0  0  0
  7 20  1  0  0  0  0
  8 26  1  0  0  0  0
  9 26  2  0  0  0  0
 10 27  1  0  0  0  0
 11 12  2  0  0  0  0
 11 28  1  0  0  0  0
 12 30  1  0  0  0  0
 13 22  1  0  0  0  0
 13 27  2  0  0  0  0
 14 23  1  0  0  0  0
 14 24  2  0  0  0  0
 15 25  1  0  0  0  0
 15 29  2  0  0  0  0
 16 30  2  0  0  0  0
 16 31  1  0  0  0  0
 17 32  1  0  0  0  0
 18 32  1  0  0  0  0
 18 33  2  0  0  0  0
 18 38  1  0  0  0  0
 19 21  2  0  0  0  0
 19 43  1  0  0  0  0
 20 22  2  0  0  0  0
 20 44  1  0  0  0  0
 21 52  1  0  0  0  0
 22 45  1  0  0  0  0
 23 25  2  0  0  0  0
 23 55  1  0  0  0  0
 24 29  1  0  0  0  0
 24 73  1  0  0  0  0
 25 76  1  0  0  0  0
 26 83  1  0  0  0  0
 27 84  1  0  0  0  0
 28 31  2  0  0  0  0
 28 83  1  0  0  0  0
 29 85  1  0  0  0  0
 30 86  1  0  0  0  0
 31 87  1  0  0  0  0
 32 67  2  0  0  0  0
 33 68  1  0  0  0  0
 33 71  1  0  0  0  0
 34 36  2  0  0  0  0
 35 37  2  0  0  0  0
 35 62  1  0  0  0  0
 36 76  1  0  0  0  0
 37 84  1  0  0  0  0
 38 72  1  0  0  0  0
 38 78  2  0  0  0  0
 39 53  1  0  0  0  0
 39 74  1  0  0  0  0
 39 79  2  0  0  0  0
 40 64  1  0  0  0  0
 40 69  1  0  0  0  0
 40 80  2  0  0  0  0
 41 65  1  0  0  0  0
 41 75  1  0  0  0  0
 41 81  2  0  0  0  0
 42 70  1  0  0  0  0
 42 76  1  0  0  0  0
 42 82  2  0  0  0  0
 43 46  1  0  0  0  0
 44 53  1  0  0  0  0
 45 69  1  0  0  0  0
 46 48  1  0  0  0  0
 47 49  1  0  0  0  0
 47 50  1  0  0  0  0
 48 52  1  0  0  0  0
 49 54  1  0  0  0  0
 50 70  1  0  0  0  0
 51 54  1  0  0  0  0
 51 70  1  0  0  0  0
 52 74  1  0  0  0  0
 53 69  1  0  0  0  0
 54 68  1  0  0  0  0
 56 63  1  0  0  0  0
 57 65  1  0  0  0  0
 58 66  1  0  0  0  0
 59 66  1  0  0  0  0
 60 66  1  0  0  0  0
 61 77  1  0  0  0  0
 62 73  1  0  0  0  0
 63 85  1  0  0  0  0
 64 66  1  0  0  0  0
 64 75  1  0  0  0  0
 65 77  1  0  0  0  0
 67 68  1  0  0  0  0
M  CHG  1  77   1
M  ISO  4  37 101  42 100  76 100  84 101
M  END
> <Batch ID>
0113

> <Smiles>
C=C[100N:0](c1cc(OCC)c(NCC=[101CH:1][101O:1]c2ccc3c(c2)CN(C(=O)C(NC(=O)C(C)NC)C(C)(C)C)C(C(=O)NC2CCCc4ccccc42)C3)cc1C)[100C:0](=O)N1CCCC(n2nc(-c3ccc(Oc4ccc(F)cc4F)cc3)c(C(N)=O)c2N)C1

> <Shape>
0.238

> <Color>
0.088

> <Negative vol penalty>
0.000

$$$$

  -OEChem-04052301343D

 86 94  0     1  0  0  0  0  0999 V2000
  -29.1063  -23.3941   17.5678 C   0  0  0  0  0  0  0  0  0  0  0  0
  -27.8796  -23.5778   18.1978 C   0  0  0  0  0  0  0  0  0  0  0  0
  -28.5325  -16.3795   19.7871 C   0  0  0  0  0  0  0  0  0  0  0  0
  -27.3841  -18.2731   20.7527 C   0  0  0  0  0  0  0  0  0  0  0  0
  -30.2408  -24.0453   18.0501 C   0  0  0  0  0  0  0  0  0  0  0  0
  -27.7870  -24.4120   19.3113 C   0  0  0  0  0  0  0  0  0  0  0  0
  -23.7746  -27.4944   19.1010 C   0  0  0  0  0  0  0  0  0  0  0  0
  -29.4594  -17.2409   19.2001 C   0  0  0  0  0  0  0  0  0  0  0  0
  -28.3110  -19.1345   20.1659 C   0  0  0  0  0  0  0  0  0  0  0  0
  -22.5327  -26.9456   19.4179 C   0  0  0  0  0  0  0  0  0  0  0  0
  -31.9188  -18.9668   17.1517 C   0  0  0  0  0  0  0  0  0  0  0  0
  -32.2632  -18.7408   15.8190 C   0  0  0  0  0  0  0  0  0  0  0  0
  -20.4363  -21.1036   20.6394 C   0  0  0  0  0  0  0  0  0  0  0  0
  -22.6831  -27.8975   21.6293 C   0  0  0  0  0  0  0  0  0  0  0  0
  -18.2484  -20.5753   21.5175 C   0  0  0  0  0  0  0  0  0  0  0  0
  -29.9565  -19.0502   15.1705 C   0  0  0  0  0  0  0  0  0  0  0  0
  -27.4948  -16.8956   20.5633 C   0  0  0  0  0  0  0  0  0  0  0  0
  -20.5479  -19.8070   20.1374 C   0  0  0  0  0  0  0  0  0  0  0  0
  -19.5097  -18.8946   20.3254 C   0  0  0  0  0  0  0  0  0  0  0  0
  -26.6183  -15.4076   22.4409 C   0  0  0  0  0  0  0  0  0  0  0  0
  -30.1602  -24.8955   19.1642 C   0  0  0  0  0  0  0  0  0  0  0  0
  -24.4862  -28.2410   20.0511 C   0  0  0  0  0  0  0  0  0  0  0  0
  -28.9217  -25.0742   19.8098 C   0  0  0  0  0  0  0  0  0  0  0  0
  -23.9326  -28.4569   21.3212 C   0  0  0  0  0  0  0  0  0  0  0  0
  -18.3600  -19.2787   21.0155 C   0  0  0  0  0  0  0  0  0  0  0  0
  -19.2865  -21.4877   21.3295 C   0  0  0  0  0  0  0  0  0  0  0  0
  -29.3487  -18.6184   19.3896 C   0  0  0  0  0  0  0  0  0  0  0  0
  -21.9881  -27.1447   20.6831 C   0  0  0  0  0  0  0  0  0  0  0  0
  -30.5932  -19.2343   17.4938 C   0  0  0  0  0  0  0  0  0  0  0  0
  -31.2820  -18.7826   14.8285 C   0  0  0  0  0  0  0  0  0  0  0  0
  -29.6121  -19.2761   16.5032 C   0  0  0  0  0  0  0  0  0  0  0  0
  -26.5367  -16.0063   21.1694 C   0  0  0  0  0  0  0  0  0  0  0  0
  -25.4703  -14.6604   22.5429 C   0  0  0  0  0  0  0  0  0  0  0  0
  -22.9721  -19.4712   19.9776 C   0  0  0  0  0  0  0  0  0  0  0  0
  -21.7706  -19.4539   19.4234 C   0  0  0  0  0  0  0  0  0  0  0  0
  -19.6132  -17.5326   19.8049 C   0  0  0  0  0  0  0  0  0  0  0  0
  -20.1066  -16.4788   20.4813 C   0  0  0  0  0  0  0  0  0  0  0  0
  -27.6404  -15.5171   23.4405 C   0  0  0  0  0  0  0  0  0  0  0  0
  -20.1354  -15.1553   19.8173 C   0  0  0  0  0  0  0  0  0  0  0  0
  -27.2964  -27.9280   21.5030 C   0  0  0  0  0  0  0  0  0  0  0  0
  -26.5763  -30.8639   22.6797 C   0  0  0  0  0  0  0  0  0  0  0  0
  -20.1037  -23.8341   21.7425 C   0  0  0  0  0  0  0  0  0  0  0  0
  -24.1785  -33.1602   23.4699 C   0  0  0  0  0  0  0  0  0  0  0  0
  -31.4229  -25.5408   19.6779 C   0  0  0  0  0  0  0  0  0  0  0  0
  -25.8124  -28.8488   19.6848 C   0  0  0  0  0  0  0  0  0  0  0  0
  -24.6470  -29.2678   22.3702 C   0  0  0  0  0  0  0  0  0  0  0  0
  -31.1676  -26.7018   20.6355 C   0  0  0  0  0  0  0  0  0  0  0  0
  -22.2861  -12.2872   19.8900 C   0  0  0  0  0  0  0  0  0  0  0  0
  -30.1175  -26.3171   21.6729 C   0  0  0  0  0  0  0  0  0  0  0  0
  -23.6369  -12.8693   20.3050 C   0  0  0  0  0  0  0  0  0  0  0  0
  -21.4999  -13.2646   19.0223 C   0  0  0  0  0  0  0  0  0  0  0  0
  -22.6525  -15.1934   20.0710 C   0  0  0  0  0  0  0  0  0  0  0  0
  -28.7762  -25.9906   21.0053 C   0  0  1  0  0  0  0  0  0  0  0  0
  -26.6829  -29.1593   20.8986 C   0  0  1  0  0  0  0  0  0  0  0  0
  -23.4638  -14.2457   20.9715 C   0  0  2  0  0  0  0  0  0  0  0  0
  -17.2242  -18.3315   21.2386 C   0  0  0  0  0  0  0  0  0  0  0  0
  -23.8931  -35.4522   24.4509 C   0  0  0  0  0  0  0  0  0  0  0  0
  -27.0669  -29.7285   25.4690 C   0  0  0  0  0  0  0  0  0  0  0  0
  -25.8732  -31.7168   26.4124 C   0  0  0  0  0  0  0  0  0  0  0  0
  -27.9745  -32.0303   25.1052 C   0  0  0  0  0  0  0  0  0  0  0  0
  -22.9579  -34.1995   20.9821 C   0  0  0  0  0  0  0  0  0  0  0  0
  -19.5811  -25.0907   22.4294 C   0  0  0  0  0  0  0  0  0  0  0  0
  -20.5539  -26.2581   22.3603 C   0  0  0  0  0  0  0  0  0  1  0  0
  -25.8503  -31.3782   23.8993 C   0  0  1  0  0  0  0  0  0  0  0  0
  -24.0695  -34.6451   23.1741 C   0  0  2  0  0  0  0  0  0  0  0  0
  -26.6784  -31.1965   25.2026 C   0  0  0  0  0  0  0  0  0  0  0  0
  -25.4249  -15.6685   20.5108 N   0  0  0  0  0  0  0  0  0  0  0  0
  -24.7973  -14.8494   21.3718 N   0  0  0  0  0  0  0  0  0  0  0  0
  -21.3852  -14.5706   19.6681 N   0  0  0  0  0  0  0  0  0  0  0  0
  -25.9437  -29.8361   21.9661 N   0  0  0  0  0  0  0  0  0  0  0  0
  -24.9811  -13.8668   23.5192 N   0  0  0  0  0  0  0  0  0  0  0  0
  -28.7525  -16.3270   23.1730 N   0  0  0  0  0  0  0  0  0  0  0  0
  -19.1727  -22.8033   21.8385 N   0  0  0  0  0  0  0  0  0  0  0  0
  -28.0890  -27.2077   20.6298 N   0  0  0  0  0  0  0  0  0  0  0  0
  -25.4914  -32.7618   23.6074 N   0  0  0  0  0  0  0  0  0  0  0  0
  -22.9038  -34.9119   22.2847 N   0  3  0  0  0  0  0  0  0  0  0  0
  -27.5774  -14.9016   24.5317 O   0  0  0  0  0  0  0  0  0  0  0  0
  -19.0472  -14.7164   19.4687 O   0  0  0  0  0  0  0  0  0  0  0  0
  -27.0689  -27.6528   22.6752 O   0  0  0  0  0  0  0  0  0  0  0  0
  -27.6614  -31.3608   22.3676 O   0  0  0  0  0  0  0  0  0  0  0  0
  -21.2019  -23.7967   21.1977 O   0  0  0  0  0  0  0  0  0  0  0  0
  -23.1970  -32.4276   23.5727 O   0  0  0  0  0  0  0  0  0  0  0  0
  -30.2531  -19.4592   18.8172 O   0  0  0  0  0  0  0  0  0  0  0  0
  -20.7765  -26.6096   20.9953 O   0  0  0  0  0  0  0  0  0  1  0  0
  -31.6131  -18.5671   13.5486 F   0  0  0  0  0  0  0  0  0  0  0  0
  -28.3372  -19.5338   16.8256 F   0  0  0  0  0  0  0  0  0  0  0  0
  1  2  1  0  0  0  0
  1  5  2  0  0  0  0
  2  6  2  0  0  0  0
  3  8  2  0  0  0  0
  3 17  1  0  0  0  0
  4  9  1  0  0  0  0
  4 17  2  0  0  0  0
  5 21  1  0  0  0  0
  6 23  1  0  0  0  0
  7 10  2  0  0  0  0
  7 22  1  0  0  0  0
  8 27  1  0  0  0  0
  9 27  2  0  0  0  0
 10 28  1  0  0  0  0
 11 12  2  0  0  0  0
 11 29  1  0  0  0  0
 12 30  1  0  0  0  0
 13 18  1  0  0  0  0
 13 26  2  0  0  0  0
 14 24  1  0  0  0  0
 14 28  2  0  0  0  0
 15 25  2  0  0  0  0
 15 26  1  0  0  0  0
 16 30  2  0  0  0  0
 16 31  1  0  0  0  0
 17 32  1  0  0  0  0
 18 19  2  0  0  0  0
 18 35  1  0  0  0  0
 19 25  1  0  0  0  0
 19 36  1  0  0  0  0
 20 32  1  0  0  0  0
 20 33  2  0  0  0  0
 20 38  1  0  0  0  0
 21 23  2  0  0  0  0
 21 44  1  0  0  0  0
 22 24  2  0  0  0  0
 22 45  1  0  0  0  0
 23 53  1  0  0  0  0
 24 46  1  0  0  0  0
 25 56  1  0  0  0  0
 26 73  1  0  0  0  0
 27 83  1  0  0  0  0
 28 84  1  0  0  0  0
 29 31  2  0  0  0  0
 29 83  1  0  0  0  0
 30 85  1  0  0  0  0
 31 86  1  0  0  0  0
 32 67  2  0  0  0  0
 33 68  1  0  0  0  0
 33 71  1  0  0  0  0
 34 35  2  0  0  0  0
 36 37  2  0  0  0  0
 37 39  1  0  0  0  0
 38 72  1  0  0  0  0
 38 77  2  0  0  0  0
 39 69  1  0  0  0  0
 39 78  2  0  0  0  0
 40 54  1  0  0  0  0
 40 74  1  0  0  0  0
 40 79  2  0  0  0  0
 41 64  1  0  0  0  0
 41 70  1  0  0  0  0
 41 80  2  0  0  0  0
 42 62  1  0  0  0  0
 42 73  1  0  0  0  0
 42 81  2  0  0  0  0
 43 65  1  0  0  0  0
 43 75  1  0  0  0  0
 43 82  2  0  0  0  0
 44 47  1  0  0  0  0
 45 54  1  0  0  0  0
 46 70  1  0  0  0  0
 47 49  1  0  0  0  0
 48 50  1  0  0  0  0
 48 51  1  0  0  0  0
 49 53  1  0  0  0  0
 50 55  1  0  0  0  0
 51 69  1  0  0  0  0
 52 55  1  0  0  0  0
 52 69  1  0  0  0  0
 53 74  1  0  0  0  0
 54 70  1  0  0  0  0
 55 68  1  0  0  0  0
 57 65  1  0  0  0  0
 58 66  1  0  0  0  0
 59 66  1  0  0  0  0
 60 66  1  0  0  0  0
 61 76  1  0  0  0  0
 62 63  1  0  0  0  0
 63 84  1  0  0  0  0
 64 66  1  0  0  0  0
 64 75  1  0  0  0  0
 65 76  1  0  0  0  0
 67 68  1  0  0  0  0
M  CHG  1  76   1
M  ISO  4  37 100  39 100  63 101  84 101
M  END
> <Batch ID>
0113

> <Smiles>
C=Cc1cc(NC(=O)C[101CH2:1][101O:1]c2ccc3c(c2)CN(C(=O)C(NC(=O)C(C)NC)C(C)(C)C)C(C(=O)NC2CCCc4ccccc42)C3)cc(C)c1C=[100CH:0][100C:0](=O)N1CCCC(n2nc(-c3ccc(Oc4ccc(F)cc4F)cc3)c(C(N)=O)c2N)C1

> <Shape>
0.234

> <Color>
0.057

> <Negative vol penalty>
0.000

$$$$

  -OEChem-04052301343D

 84 92  0     1  0  0  0  0  0999 V2000
  -28.6818  -37.7288   23.3043 C   0  0  0  0  0  0  0  0  0  0  0  0
  -29.1020  -36.5101   22.7813 C   0  0  0  0  0  0  0  0  0  0  0  0
  -26.6135  -10.9116   21.5022 C   0  0  0  0  0  0  0  0  0  0  0  0
  -25.7033  -11.5457   19.3560 C   0  0  0  0  0  0  0  0  0  0  0  0
  -27.6416  -37.7664   24.2320 C   0  0  0  0  0  0  0  0  0  0  0  0
  -28.4831  -35.3281   23.1865 C   0  0  0  0  0  0  0  0  0  0  0  0
  -27.4523  -30.3526   19.7678 C   0  0  0  0  0  0  0  0  0  0  0  0
  -25.3776  -10.3792   21.8691 C   0  0  0  0  0  0  0  0  0  0  0  0
  -24.4673  -11.0132   19.7228 C   0  0  0  0  0  0  0  0  0  0  0  0
  -28.1336  -29.1426   19.6431 C   0  0  0  0  0  0  0  0  0  0  0  0
  -23.6073   -7.5588   21.2824 C   0  0  0  0  0  0  0  0  0  0  0  0
  -23.5976   -6.3073   21.8981 C   0  0  0  0  0  0  0  0  0  0  0  0
  -28.5776  -20.2901   17.1068 C   0  0  0  0  0  0  0  0  0  0  0  0
  -27.2242  -20.7368   15.1561 C   0  0  0  0  0  0  0  0  0  0  0  0
  -26.6269  -28.1371   21.2362 C   0  0  0  0  0  0  0  0  0  0  0  0
  -27.8740  -18.4701   15.6822 C   0  0  0  0  0  0  0  0  0  0  0  0
  -22.5511   -7.2750   23.8488 C   0  0  0  0  0  0  0  0  0  0  0  0
  -26.7764  -11.4950   20.2457 C   0  0  0  0  0  0  0  0  0  0  0  0
  -27.9099  -21.1946   16.2812 C   0  0  0  0  0  0  0  0  0  0  0  0
  -29.1092  -11.3763   19.2203 C   0  0  0  0  0  0  0  0  0  0  0  0
  -27.0031  -36.5852   24.6416 C   0  0  0  0  0  0  0  0  0  0  0  0
  -26.3581  -30.4671   20.6373 C   0  0  0  0  0  0  0  0  0  0  0  0
  -27.4343  -35.3498   24.1216 C   0  0  0  0  0  0  0  0  0  0  0  0
  -25.9319  -29.3489   21.3682 C   0  0  0  0  0  0  0  0  0  0  0  0
  -28.5597  -18.9279   16.8073 C   0  0  0  0  0  0  0  0  0  0  0  0
  -24.3045  -10.4299   20.9794 C   0  0  0  0  0  0  0  0  0  0  0  0
  -27.7227  -28.0354   20.3795 C   0  0  0  0  0  0  0  0  0  0  0  0
  -23.0889   -8.6685   21.9499 C   0  0  0  0  0  0  0  0  0  0  0  0
  -27.2063  -19.3746   14.8565 C   0  0  0  0  0  0  0  0  0  0  0  0
  -23.0695   -6.1653   23.1813 C   0  0  0  0  0  0  0  0  0  0  0  0
  -22.5608   -8.5266   23.2331 C   0  0  0  0  0  0  0  0  0  0  0  0
  -28.0526  -12.0457   19.8663 C   0  0  0  0  0  0  0  0  0  0  0  0
  -30.0885  -12.3298   19.0857 C   0  0  0  0  0  0  0  0  0  0  0  0
  -27.9275  -22.6348   16.5979 C   0  0  0  0  0  0  0  0  0  0  0  0
  -29.0655  -25.0970   18.8140 C   0  0  0  0  0  0  0  0  0  0  0  0
  -28.4796  -24.4498   17.7987 C   0  0  0  0  0  0  0  0  0  0  0  0
  -29.1974  -10.0143   18.7810 C   0  0  0  0  0  0  0  0  0  0  0  0
  -25.7192  -32.2030   23.2223 C   0  0  0  0  0  0  0  0  0  0  0  0
  -22.7804  -30.8640   22.9176 C   0  0  0  0  0  0  0  0  0  0  0  0
  -20.8783  -28.2886   21.7360 C   0  0  0  0  0  0  0  0  0  0  0  0
  -29.9644  -18.2971   18.8011 C   0  0  0  0  0  0  0  0  0  0  0  0
  -25.9150  -36.6715   25.6823 C   0  0  0  0  0  0  0  0  0  0  0  0
  -25.6173  -31.7721   20.7404 C   0  0  0  0  0  0  0  0  0  0  0  0
  -24.7506  -29.4140   22.3003 C   0  0  0  0  0  0  0  0  0  0  0  0
  -25.0616  -35.4093   25.7774 C   0  0  0  0  0  0  0  0  0  0  0  0
  -31.7460  -16.3144   21.1616 C   0  0  0  0  0  0  0  0  0  0  0  0
  -25.9467  -34.1673   25.8052 C   0  0  0  0  0  0  0  0  0  0  0  0
  -31.1013  -14.9323   21.0342 C   0  0  0  0  0  0  0  0  0  0  0  0
  -30.7199  -17.4354   21.0061 C   0  0  0  0  0  0  0  0  0  0  0  0
  -29.2550  -15.9798   19.6628 C   0  0  0  0  0  0  0  0  0  0  0  0
  -26.7712  -34.0485   24.5178 C   0  0  1  0  0  0  0  0  0  0  0  0
  -24.8350  -31.9138   22.0424 C   0  0  1  0  0  0  0  0  0  0  0  0
  -30.2599  -14.8194   19.7478 C   0  0  2  0  0  0  0  0  0  0  0  0
  -18.5129  -27.4528   21.6758 C   0  0  0  0  0  0  0  0  0  0  0  0
  -23.0278  -29.9620   25.8220 C   0  0  0  0  0  0  0  0  0  0  0  0
  -21.1388  -28.3700   25.4155 C   0  0  0  0  0  0  0  0  0  0  0  0
  -20.7686  -30.8263   25.1869 C   0  0  0  0  0  0  0  0  0  0  0  0
  -20.7872  -28.4121   18.7804 C   0  0  0  0  0  0  0  0  0  0  0  0
  -25.8755  -19.9062   12.9585 C   0  0  0  0  0  0  0  0  0  0  0  0
  -29.0001  -26.5772   19.0018 C   0  0  0  0  0  0  0  0  0  1  0  0
  -22.1195  -29.6077   23.4313 C   0  0  1  0  0  0  0  0  0  0  0  0
  -19.5741  -28.2734   20.9594 C   0  0  2  0  0  0  0  0  0  0  0  0
  -21.7871  -29.6905   24.9479 C   0  0  0  0  0  0  0  0  0  0  0  0
  -28.3343  -13.3255   20.1244 N   0  0  0  0  0  0  0  0  0  0  0  0
  -28.5499  -23.0984   17.6320 N   0  0  0  0  0  0  0  0  0  0  0  0
  -29.5790  -13.4680   19.6381 N   0  0  0  0  0  0  0  0  0  0  0  0
  -24.0629  -30.7139   22.3713 N   0  0  0  0  0  0  0  0  0  0  0  0
  -29.9636  -17.2653   19.7635 N   0  0  0  0  0  0  0  0  0  0  0  0
  -31.3272  -12.2973   18.5499 N   0  0  0  0  0  0  0  0  0  0  0  0
  -28.1000   -9.1699   18.9978 N   0  0  0  0  0  0  0  0  0  0  0  0
  -29.2375  -18.0091   17.6464 N   0  0  0  0  0  0  0  0  0  0  0  0
  -25.9500  -33.5485   23.4360 N   0  0  0  0  0  0  0  0  0  0  0  0
  -20.9593  -29.3783   22.5770 N   0  0  0  0  0  0  0  0  0  0  0  0
  -19.7847  -27.6892   19.6046 N   0  3  0  0  0  0  0  0  0  0  0  0
  -30.2254   -9.5552   18.2277 O   0  0  0  0  0  0  0  0  0  0  0  0
  -26.1583  -31.2741   23.8903 O   0  0  0  0  0  0  0  0  0  0  0  0
  -22.1779  -31.9379   22.9917 O   0  0  0  0  0  0  0  0  0  0  0  0
  -21.7377  -27.4187   21.6119 O   0  0  0  0  0  0  0  0  0  0  0  0
  -30.5881  -19.3471   18.9759 O   0  0  0  0  0  0  0  0  0  0  0  0
  -23.0985   -9.9102   21.3370 O   0  0  0  0  0  0  0  0  0  0  0  0
  -26.5370  -18.9276   13.7590 O   0  0  0  0  0  0  0  0  0  0  0  0
  -28.3863  -26.8533   20.2602 O   0  0  0  0  0  0  0  0  0  1  0  0
  -23.0590   -4.9631   23.7718 F   0  0  0  0  0  0  0  0  0  0  0  0
  -22.0603   -9.5888   23.8789 F   0  0  0  0  0  0  0  0  0  0  0  0
  1  2  1  0  0  0  0
  1  5  2  0  0  0  0
  2  6  2  0  0  0  0
  3  8  2  0  0  0  0
  3 18  1  0  0  0  0
  4  9  1  0  0  0  0
  4 18  2  0  0  0  0
  5 21  1  0  0  0  0
  6 23  1  0  0  0  0
  7 10  2  0  0  0  0
  7 22  1  0  0  0  0
  8 26  1  0  0  0  0
  9 26  2  0  0  0  0
 10 27  1  0  0  0  0
 11 12  2  0  0  0  0
 11 28  1  0  0  0  0
 12 30  1  0  0  0  0
 13 19  1  0  0  0  0
 13 25  2  0  0  0  0
 14 19  2  0  0  0  0
 14 29  1  0  0  0  0
 15 24  1  0  0  0  0
 15 27  2  0  0  0  0
 16 25  1  0  0  0  0
 16 29  2  0  0  0  0
 17 30  2  0  0  0  0
 17 31  1  0  0  0  0
 18 32  1  0  0  0  0
 19 34  1  0  0  0  0
 20 32  1  0  0  0  0
 20 33  2  0  0  0  0
 20 37  1  0  0  0  0
 21 23  2  0  0  0  0
 21 42  1  0  0  0  0
 22 24  2  0  0  0  0
 22 43  1  0  0  0  0
 23 51  1  0  0  0  0
 24 44  1  0  0  0  0
 25 71  1  0  0  0  0
 26 80  1  0  0  0  0
 27 82  1  0  0  0  0
 28 31  2  0  0  0  0
 28 80  1  0  0  0  0
 29 81  1  0  0  0  0
 30 83  1  0  0  0  0
 31 84  1  0  0  0  0
 32 64  2  0  0  0  0
 33 66  1  0  0  0  0
 33 69  1  0  0  0  0
 34 65  2  0  0  0  0
 35 36  2  0  0  0  0
 35 60  1  0  0  0  0
 36 65  1  0  0  0  0
 37 70  1  0  0  0  0
 37 75  2  0  0  0  0
 38 52  1  0  0  0  0
 38 72  1  0  0  0  0
 38 76  2  0  0  0  0
 39 61  1  0  0  0  0
 39 67  1  0  0  0  0
 39 77  2  0  0  0  0
 40 62  1  0  0  0  0
 40 73  1  0  0  0  0
 40 78  2  0  0  0  0
 41 68  1  0  0  0  0
 41 71  1  0  0  0  0
 41 79  2  0  0  0  0
 42 45  1  0  0  0  0
 43 52  1  0  0  0  0
 44 67  1  0  0  0  0
 45 47  1  0  0  0  0
 46 48  1  0  0  0  0
 46 49  1  0  0  0  0
 47 51  1  0  0  0  0
 48 53  1  0  0  0  0
 49 68  1  0  0  0  0
 50 53  1  0  0  0  0
 50 68  1  0  0  0  0
 51 72  1  0  0  0  0
 52 67  1  0  0  0  0
 53 66  1  0  0  0  0
 54 62  1  0  0  0  0
 55 63  1  0  0  0  0
 56 63  1  0  0  0  0
 57 63  1  0  0  0  0
 58 74  1  0  0  0  0
 59 81  1  0  0  0  0
 60 82  1  0  0  0  0
 61 63  1  0  0  0  0
 61 73  1  0  0  0  0
 62 74  1  0  0  0  0
 64 66  1  0  0  0  0
M  CHG  1  74   1
M  ISO  4  41 100  60 101  71 100  82 101
M  END
> <Batch ID>
0113

> <Smiles>
CNC(C)C(=O)NC(C(=O)N1Cc2cc([101O:1][101CH2:1]C=CN=Cc3cc([100NH:0][100C:0](=O)N4CCCC(n5nc(-c6ccc(Oc7ccc(F)cc7F)cc6)c(C(N)=O)c5N)C4)cc(OC)c3)ccc2CC1C(=O)NC1CCCc2ccccc21)C(C)(C)C

> <Shape>
0.316

> <Color>
0.077

> <Negative vol penalty>
0.000

$$$$

  -OEChem-04052301343D

 83 91  0     1  0  0  0  0  0999 V2000
  -28.5842  -30.8397   23.0405 C   0  0  0  0  0  0  0  0  0  0  0  0
  -28.1152  -30.2330   21.8797 C   0  0  0  0  0  0  0  0  0  0  0  0
  -23.2992   -9.7752   19.8531 C   0  0  0  0  0  0  0  0  0  0  0  0
  -23.6930   -9.8692   22.2350 C   0  0  0  0  0  0  0  0  0  0  0  0
  -29.8164  -30.4633   23.5735 C   0  0  0  0  0  0  0  0  0  0  0  0
  -28.8787  -29.2504   21.2506 C   0  0  0  0  0  0  0  0  0  0  0  0
  -26.8013  -24.3153   18.2782 C   0  0  0  0  0  0  0  0  0  0  0  0
  -22.5757   -8.5943   20.0193 C   0  0  0  0  0  0  0  0  0  0  0  0
  -22.9695   -8.6883   22.4012 C   0  0  0  0  0  0  0  0  0  0  0  0
  -26.6005  -24.0515   16.9240 C   0  0  0  0  0  0  0  0  0  0  0  0
  -19.4749   -7.6929   21.0220 C   0  0  0  0  0  0  0  0  0  0  0  0
  -18.2623   -7.5746   20.3429 C   0  0  0  0  0  0  0  0  0  0  0  0
  -28.7598  -22.9812   16.8185 C   0  0  0  0  0  0  0  0  0  0  0  0
  -19.1033   -5.6308   19.1802 C   0  0  0  0  0  0  0  0  0  0  0  0
  -27.8942  -18.7291   15.3859 C   0  0  0  0  0  0  0  0  0  0  0  0
  -23.8579  -10.4126   20.9610 C   0  0  0  0  0  0  0  0  0  0  0  0
  -24.1055  -12.9477   20.8209 C   0  0  0  0  0  0  0  0  0  0  0  0
  -30.5910  -29.4687   22.9559 C   0  0  0  0  0  0  0  0  0  0  0  0
  -27.9895  -23.9231   18.9112 C   0  0  0  0  0  0  0  0  0  0  0  0
  -30.1230  -28.8613   21.7750 C   0  0  0  0  0  0  0  0  0  0  0  0
  -28.9722  -23.2390   18.1814 C   0  0  0  0  0  0  0  0  0  0  0  0
  -22.4108   -8.0508   21.2933 C   0  0  0  0  0  0  0  0  0  0  0  0
  -27.5810  -23.3869   16.1932 C   0  0  0  0  0  0  0  0  0  0  0  0
  -20.5017   -6.7803   20.7802 C   0  0  0  0  0  0  0  0  0  0  0  0
  -18.0765   -6.5435   19.4220 C   0  0  0  0  0  0  0  0  0  0  0  0
  -20.3159   -5.7492   19.8593 C   0  0  0  0  0  0  0  0  0  0  0  0
  -24.6058  -11.6322   20.7899 C   0  0  0  0  0  0  0  0  0  0  0  0
  -27.9807  -17.8173   16.4550 C   0  0  0  0  0  0  0  0  0  0  0  0
  -25.2076  -13.7393   20.6083 C   0  0  0  0  0  0  0  0  0  0  0  0
  -26.5858  -19.1468   15.3958 C   0  0  0  0  0  0  0  0  0  0  0  0
  -22.7645  -13.4126   21.0239 C   0  0  0  0  0  0  0  0  0  0  0  0
  -29.1783  -17.0601   16.9012 C   0  0  0  0  0  0  0  0  0  0  0  0
  -30.3630  -25.4515   20.3720 C   0  0  0  0  0  0  0  0  0  0  0  0
  -31.3544  -22.4417   21.0655 C   0  0  0  0  0  0  0  0  0  0  0  0
  -31.3258  -19.1249   20.2628 C   0  0  0  0  0  0  0  0  0  0  0  0
  -29.9092  -14.9314   17.9300 C   0  0  0  0  0  0  0  0  0  0  0  0
  -31.9381  -29.1289   23.5428 C   0  0  0  0  0  0  0  0  0  0  0  0
  -28.1794  -24.1914   20.3789 C   0  0  0  0  0  0  0  0  0  0  0  0
  -30.2568  -22.7789   18.8189 C   0  0  0  0  0  0  0  0  0  0  0  0
  -32.5144  -27.8140   23.0238 C   0  0  0  0  0  0  0  0  0  0  0  0
  -30.1385  -12.5827   20.5620 C   0  0  0  0  0  0  0  0  0  0  0  0
  -32.3827  -27.7355   21.5061 C   0  0  0  0  0  0  0  0  0  0  0  0
  -28.6782  -12.2378   20.8666 C   0  0  0  0  0  0  0  0  0  0  0  0
  -30.3753  -12.7773   19.0650 C   0  0  0  0  0  0  0  0  0  0  0  0
  -28.0157  -13.3830   18.7140 C   0  0  0  0  0  0  0  0  0  0  0  0
  -30.9109  -27.7738   21.0773 C   0  0  1  0  0  0  0  0  0  0  0  0
  -29.6458  -24.2023   20.7995 C   0  0  1  0  0  0  0  0  0  0  0  0
  -27.7110  -13.2463   20.2145 C   0  0  1  0  0  0  0  0  0  0  0  0
  -32.2606  -16.9133   20.9926 C   0  0  0  0  0  0  0  0  0  0  0  0
  -34.0551  -23.1871   19.8568 C   0  0  0  0  0  0  0  0  0  0  0  0
  -34.5991  -20.7460   19.7421 C   0  0  0  0  0  0  0  0  0  0  0  0
  -34.1892  -21.8282   21.9520 C   0  0  0  0  0  0  0  0  0  0  0  0
  -24.6110  -18.5858   16.8442 C   0  0  0  0  0  0  0  0  0  0  0  0
  -28.6270  -18.0179   20.7627 C   0  0  0  0  0  0  0  0  0  0  0  0
  -26.0171  -22.0044   13.2344 C   0  0  0  0  0  0  0  0  0  0  0  0
  -26.0424  -22.9346   14.4371 C   0  0  0  0  0  0  0  0  0  1  0  0
  -26.6264  -20.6478   13.5516 C   0  0  0  0  0  0  0  0  0  0  0  0
  -32.2432  -21.4264   20.3887 C   0  0  1  0  0  0  0  0  0  0  0  0
  -31.0970  -17.8856   21.1092 C   0  0  2  0  0  0  0  0  0  0  0  0
  -33.7484  -21.8072   20.4721 C   0  0  0  0  0  0  0  0  0  0  0  0
  -25.9232  -11.5865   20.5744 N   0  0  0  0  0  0  0  0  0  0  0  0
  -26.8197  -17.6643   17.0974 N   0  0  0  0  0  0  0  0  0  0  0  0
  -26.2600  -12.8832   20.4680 N   0  0  0  0  0  0  0  0  0  0  0  0
  -25.9913  -18.4857   16.4301 N   0  0  0  0  0  0  0  0  0  0  0  0
  -30.3984  -23.0703   20.2550 N   0  0  0  0  0  0  0  0  0  0  0  0
  -29.4265  -13.7533   18.5261 N   0  0  0  0  0  0  0  0  0  0  0  0
  -25.3695  -15.0772   20.5295 N   0  0  0  0  0  0  0  0  0  0  0  0
  -21.7524  -12.4647   21.2278 N   0  0  0  0  0  0  0  0  0  0  0  0
  -28.9230  -15.8188   17.4848 N   0  0  0  0  0  0  0  0  0  0  0  0
  -30.2895  -26.4838   21.2876 N   0  0  0  0  0  0  0  0  0  0  0  0
  -31.9192  -20.1363   20.9881 N   0  0  0  0  0  0  0  0  0  0  0  0
  -29.8545  -17.1854   20.6771 N   0  3  0  0  0  0  0  0  0  0  0  0
  -22.4696  -14.6318   21.0080 O   0  0  0  0  0  0  0  0  0  0  0  0
  -30.2936  -17.5339   16.7028 O   0  0  0  0  0  0  0  0  0  0  0  0
  -30.9416  -25.4764   19.2920 O   0  0  0  0  0  0  0  0  0  0  0  0
  -31.4982  -22.6636   22.2703 O   0  0  0  0  0  0  0  0  0  0  0  0
  -31.0131  -19.1879   19.0759 O   0  0  0  0  0  0  0  0  0  0  0  0
  -31.1134  -15.1890   17.8364 O   0  0  0  0  0  0  0  0  0  0  0  0
  -21.7047   -6.8987   21.4559 O   0  0  0  0  0  0  0  0  0  0  0  0
  -27.3879  -23.1287   14.8712 O   0  0  0  0  0  0  0  0  0  1  0  0
  -25.8968  -20.0245   14.5999 O   0  0  0  0  0  0  0  0  0  0  0  0
  -16.9115   -6.4290   18.7710 F   0  0  0  0  0  0  0  0  0  0  0  0
  -21.2982   -4.8687   19.6237 F   0  0  0  0  0  0  0  0  0  0  0  0
  1  2  1  0  0  0  0
  1  5  2  0  0  0  0
  2  6  2  0  0  0  0
  3  8  2  0  0  0  0
  3 16  1  0  0  0  0
  4  9  1  0  0  0  0
  4 16  2  0  0  0  0
  5 18  1  0  0  0  0
  6 20  1  0  0  0  0
  7 10  2  0  0  0  0
  7 19  1  0  0  0  0
  8 22  1  0  0  0  0
  9 22  2  0  0  0  0
 10 23  1  0  0  0  0
 11 12  2  0  0  0  0
 11 24  1  0  0  0  0
 12 25  1  0  0  0  0
 13 21  1  0  0  0  0
 13 23  2  0  0  0  0
 14 25  2  0  0  0  0
 14 26  1  0  0  0  0
 15 28  1  0  0  0  0
 15 30  2  0  0  0  0
 16 27  1  0  0  0  0
 17 27  1  0  0  0  0
 17 29  2  0  0  0  0
 17 31  1  0  0  0  0
 18 20  2  0  0  0  0
 18 37  1  0  0  0  0
 19 21  2  0  0  0  0
 19 38  1  0  0  0  0
 20 46  1  0  0  0  0
 21 39  1  0  0  0  0
 22 79  1  0  0  0  0
 23 80  1  0  0  0  0
 24 26  2  0  0  0  0
 24 79  1  0  0  0  0
 25 82  1  0  0  0  0
 26 83  1  0  0  0  0
 27 61  2  0  0  0  0
 28 32  1  0  0  0  0
 28 62  2  0  0  0  0
 29 63  1  0  0  0  0
 29 67  1  0  0  0  0
 30 64  1  0  0  0  0
 30 81  1  0  0  0  0
 31 68  1  0  0  0  0
 31 73  2  0  0  0  0
 32 69  1  0  0  0  0
 32 74  2  0  0  0  0
 33 47  1  0  0  0  0
 33 70  1  0  0  0  0
 33 75  2  0  0  0  0
 34 58  1  0  0  0  0
 34 65  1  0  0  0  0
 34 76  2  0  0  0  0
 35 59  1  0  0  0  0
 35 71  1  0  0  0  0
 35 77  2  0  0  0  0
 36 66  1  0  0  0  0
 36 69  1  0  0  0  0
 36 78  2  0  0  0  0
 37 40  1  0  0  0  0
 38 47  1  0  0  0  0
 39 65  1  0  0  0  0
 40 42  1  0  0  0  0
 41 43  1  0  0  0  0
 41 44  1  0  0  0  0
 42 46  1  0  0  0  0
 43 48  1  0  0  0  0
 44 66  1  0  0  0  0
 45 48  1  0  0  0  0
 45 66  1  0  0  0  0
 46 70  1  0  0  0  0
 47 65  1  0  0  0  0
 48 63  1  0  0  0  0
 49 59  1  0  0  0  0
 50 60  1  0  0  0  0
 51 60  1  0  0  0  0
 52 60  1  0  0  0  0
 53 64  1  0  0  0  0
 54 72  1  0  0  0  0
 55 56  1  0  0  0  0
 55 57  1  0  0  0  0
 56 80  1  0  0  0  0
 57 81  1  0  0  0  0
 58 60  1  0  0  0  0
 58 71  1  0  0  0  0
 59 72  1  0  0  0  0
 61 63  1  0  0  0  0
 62 64  1  0  0  0  0
M  CHG  1  72   1
M  ISO  4  36 100  56 101  69 100  80 101
M  END
> <Batch ID>
0113

> <Smiles>
CNC(C)C(=O)NC(C(=O)N1Cc2cc([101O:1][101CH2:1]CCOc3cc(C(=O)[100NH:0][100C:0](=O)N4CCCC(n5nc(-c6ccc(Oc7ccc(F)cc7F)cc6)c(C(N)=O)c5N)C4)nn3C)ccc2CC1C(=O)NC1CCCc2ccccc21)C(C)(C)C

> <Shape>
0.210

> <Color>
0.191

> <Negative vol penalty>
0.000

$$$$

  -OEChem-04052301343D

 82 90  0     1  0  0  0  0  0999 V2000
  -25.9181  -36.2071   16.5204 C   0  0  0  0  0  0  0  0  0  0  0  0
  -26.4321  -34.9145   16.5384 C   0  0  0  0  0  0  0  0  0  0  0  0
  -24.2734   -9.9584   21.0955 C   0  0  0  0  0  0  0  0  0  0  0  0
  -24.9365  -10.8292   23.2493 C   0  0  0  0  0  0  0  0  0  0  0  0
  -25.5472  -36.8252   17.7139 C   0  0  0  0  0  0  0  0  0  0  0  0
  -26.5766  -34.2396   17.7500 C   0  0  0  0  0  0  0  0  0  0  0  0
  -25.8740  -28.2346   18.7260 C   0  0  0  0  0  0  0  0  0  0  0  0
  -23.9385   -8.7420   21.6903 C   0  0  0  0  0  0  0  0  0  0  0  0
  -24.6016   -9.6128   23.8442 C   0  0  0  0  0  0  0  0  0  0  0  0
  -26.7887  -27.1870   18.8240 C   0  0  0  0  0  0  0  0  0  0  0  0
  -21.3758   -7.4735   23.4948 C   0  0  0  0  0  0  0  0  0  0  0  0
  -20.1663   -6.8836   23.1277 C   0  0  0  0  0  0  0  0  0  0  0  0
  -26.7613  -27.3960   21.2271 C   0  0  0  0  0  0  0  0  0  0  0  0
  -21.3569   -4.9381   22.3310 C   0  0  0  0  0  0  0  0  0  0  0  0
  -24.7724  -11.0020   21.8750 C   0  0  0  0  0  0  0  0  0  0  0  0
  -24.2787  -13.3717   21.0698 C   0  0  0  0  0  0  0  0  0  0  0  0
  -25.6782  -36.1540   18.9398 C   0  0  0  0  0  0  0  0  0  0  0  0
  -25.4037  -28.8791   19.8792 C   0  0  0  0  0  0  0  0  0  0  0  0
  -26.2084  -34.8499   18.9611 C   0  0  0  0  0  0  0  0  0  0  0  0
  -25.8388  -28.4499   21.1411 C   0  0  0  0  0  0  0  0  0  0  0  0
  -29.2212  -19.1512   21.1682 C   0  0  0  0  0  0  0  0  0  0  0  0
  -24.1026   -8.5692   23.0647 C   0  0  0  0  0  0  0  0  0  0  0  0
  -27.2347  -26.7694   20.0745 C   0  0  0  0  0  0  0  0  0  0  0  0
  -22.5759   -6.7958   23.2799 C   0  0  0  0  0  0  0  0  0  0  0  0
  -20.1568   -5.6159   22.5459 C   0  0  0  0  0  0  0  0  0  0  0  0
  -22.5664   -5.5281   22.6980 C   0  0  0  0  0  0  0  0  0  0  0  0
  -25.1190  -12.2586   21.2610 C   0  0  0  0  0  0  0  0  0  0  0  0
  -30.3779  -19.5941   21.8374 C   0  0  0  0  0  0  0  0  0  0  0  0
  -28.3593  -20.2188   21.2291 C   0  0  0  0  0  0  0  0  0  0  0  0
  -25.0765  -14.3016   20.4492 C   0  0  0  0  0  0  0  0  0  0  0  0
  -22.9002  -13.5493   21.4219 C   0  0  0  0  0  0  0  0  0  0  0  0
  -25.5556  -31.8456   21.0108 C   0  0  0  0  0  0  0  0  0  0  0  0
  -28.5237  -23.5253   21.0548 C   0  0  0  0  0  0  0  0  0  0  0  0
  -23.5774  -30.6605   23.2922 C   0  0  0  0  0  0  0  0  0  0  0  0
  -22.4290  -27.9397   25.0025 C   0  0  0  0  0  0  0  0  0  0  0  0
  -29.9015  -17.0396   19.9745 C   0  0  0  0  0  0  0  0  0  0  0  0
  -25.3080  -36.8807   20.2085 C   0  0  0  0  0  0  0  0  0  0  0  0
  -24.3969  -29.9900   19.7578 C   0  0  0  0  0  0  0  0  0  0  0  0
  -25.3490  -29.0953   22.4107 C   0  0  0  0  0  0  0  0  0  0  0  0
  -25.1428  -35.9577   21.4131 C   0  0  0  0  0  0  0  0  0  0  0  0
  -29.6864  -13.8494   18.4081 C   0  0  0  0  0  0  0  0  0  0  0  0
  -26.3055  -34.9737   21.4951 C   0  0  0  0  0  0  0  0  0  0  0  0
  -28.4098  -13.2427   18.9949 C   0  0  0  0  0  0  0  0  0  0  0  0
  -30.4495  -14.6749   19.4425 C   0  0  0  0  0  0  0  0  0  0  0  0
  -28.3791  -15.1006   20.7080 C   0  0  0  0  0  0  0  0  0  0  0  0
  -26.3571  -34.0759   20.2530 C   0  0  1  0  0  0  0  0  0  0  0  0
  -24.3774  -30.9140   20.9716 C   0  0  1  0  0  0  0  0  0  0  0  0
  -27.5429  -14.3136   19.6857 C   0  0  2  0  0  0  0  0  0  0  0  0
  -31.6268  -18.8484   22.0747 C   0  0  0  0  0  0  0  0  0  0  0  0
  -26.9861  -20.3952   20.7175 C   0  0  0  0  0  0  0  0  0  0  0  0
  -20.8409  -27.2903   26.8338 C   0  0  0  0  0  0  0  0  0  0  0  0
  -25.5460  -31.7166   25.3705 C   0  0  0  0  0  0  0  0  0  0  0  0
  -24.4358  -30.2474   27.0668 C   0  0  0  0  0  0  0  0  0  0  0  0
  -23.1367  -32.0589   25.9471 C   0  0  0  0  0  0  0  0  0  0  0  0
  -20.8413  -26.2331   23.1789 C   0  0  0  0  0  0  0  0  0  0  0  0
  -28.5171  -22.5755   22.2388 C   0  0  0  0  0  0  0  0  0  0  0  0
  -28.0645  -24.9404   21.3482 C   0  0  0  0  0  0  0  0  0  1  0  0
  -23.7699  -29.9939   24.6330 C   0  0  1  0  0  0  0  0  0  0  0  0
  -21.0211  -27.4799   25.3357 C   0  0  2  0  0  0  0  0  0  0  0  0
  -24.2330  -30.9931   25.7305 C   0  0  0  0  0  0  0  0  0  0  0  0
  -26.3558  -12.4608   20.7990 N   0  0  0  0  0  0  0  0  0  0  0  0
  -30.2644  -20.8456   22.2899 N   0  0  0  0  0  0  0  0  0  0  0  0
  -29.0262  -21.1983   21.9044 N   0  0  0  0  0  0  0  0  0  0  0  0
  -26.2985  -13.7118   20.3113 N   0  0  0  0  0  0  0  0  0  0  0  0
  -24.3699  -30.1814   22.2395 N   0  0  0  0  0  0  0  0  0  0  0  0
  -29.5659  -15.6713   20.0519 N   0  0  0  0  0  0  0  0  0  0  0  0
  -24.8449  -15.5581   20.0132 N   0  0  0  0  0  0  0  0  0  0  0  0
  -22.2307  -12.4928   22.0543 N   0  0  0  0  0  0  0  0  0  0  0  0
  -28.9701  -17.8958   20.5610 N   0  0  0  0  0  0  0  0  0  0  0  0
  -25.3541  -33.0362   20.3390 N   0  0  0  0  0  0  0  0  0  0  0  0
  -22.5148  -29.3142   24.9348 N   0  0  0  0  0  0  0  0  0  0  0  0
  -20.7253  -26.1855   24.6592 N   0  3  0  0  0  0  0  0  0  0  0  0
  -22.2760  -14.6073   21.1680 O   0  0  0  0  0  0  0  0  0  0  0  0
  -26.5718  -31.5098   21.6078 O   0  0  0  0  0  0  0  0  0  0  0  0
  -28.8753  -23.1817   19.9270 O   0  0  0  0  0  0  0  0  0  0  0  0
  -22.7492  -31.5679   23.1813 O   0  0  0  0  0  0  0  0  0  0  0  0
  -23.3603  -27.1579   24.8241 O   0  0  0  0  0  0  0  0  0  0  0  0
  -30.9252  -17.4255   19.4043 O   0  0  0  0  0  0  0  0  0  0  0  0
  -23.7758   -7.3825   23.6455 O   0  0  0  0  0  0  0  0  0  0  0  0
  -28.1279  -25.7474   20.1730 O   0  0  0  0  0  0  0  0  0  1  0  0
  -18.9952   -5.0489   22.1948 F   0  0  0  0  0  0  0  0  0  0  0  0
  -23.7161   -4.8716   22.4901 F   0  0  0  0  0  0  0  0  0  0  0  0
  1  2  1  0  0  0  0
  1  5  2  0  0  0  0
  2  6  2  0  0  0  0
  3  8  2  0  0  0  0
  3 15  1  0  0  0  0
  4  9  1  0  0  0  0
  4 15  2  0  0  0  0
  5 17  1  0  0  0  0
  6 19  1  0  0  0  0
  7 10  2  0  0  0  0
  7 18  1  0  0  0  0
  8 22  1  0  0  0  0
  9 22  2  0  0  0  0
 10 23  1  0  0  0  0
 11 12  2  0  0  0  0
 11 24  1  0  0  0  0
 12 25  1  0  0  0  0
 13 20  1  0  0  0  0
 13 23  2  0  0  0  0
 14 25  2  0  0  0  0
 14 26  1  0  0  0  0
 15 27  1  0  0  0  0
 16 27  1  0  0  0  0
 16 30  2  0  0  0  0
 16 31  1  0  0  0  0
 17 19  2  0  0  0  0
 17 37  1  0  0  0  0
 18 20  2  0  0  0  0
 18 38  1  0  0  0  0
 19 46  1  0  0  0  0
 20 39  1  0  0  0  0
 21 28  1  0  0  0  0
 21 29  2  0  0  0  0
 21 69  1  0  0  0  0
 22 79  1  0  0  0  0
 23 80  1  0  0  0  0
 24 26  2  0  0  0  0
 24 79  1  0  0  0  0
 25 81  1  0  0  0  0
 26 82  1  0  0  0  0
 27 61  2  0  0  0  0
 28 49  1  0  0  0  0
 28 62  2  0  0  0  0
 29 50  1  0  0  0  0
 29 63  1  0  0  0  0
 30 64  1  0  0  0  0
 30 67  1  0  0  0  0
 31 68  1  0  0  0  0
 31 73  2  0  0  0  0
 32 47  1  0  0  0  0
 32 70  1  0  0  0  0
 32 74  2  0  0  0  0
 33 56  1  0  0  0  0
 33 57  1  0  0  0  0
 33 75  2  0  0  0  0
 34 58  1  0  0  0  0
 34 65  1  0  0  0  0
 34 76  2  0  0  0  0
 35 59  1  0  0  0  0
 35 71  1  0  0  0  0
 35 77  2  0  0  0  0
 36 66  1  0  0  0  0
 36 69  1  0  0  0  0
 36 78  2  0  0  0  0
 37 40  1  0  0  0  0
 38 47  1  0  0  0  0
 39 65  1  0  0  0  0
 40 42  1  0  0  0  0
 41 43  1  0  0  0  0
 41 44  1  0  0  0  0
 42 46  1  0  0  0  0
 43 48  1  0  0  0  0
 44 66  1  0  0  0  0
 45 48  1  0  0  0  0
 45 66  1  0  0  0  0
 46 70  1  0  0  0  0
 47 65  1  0  0  0  0
 48 64  1  0  0  0  0
 51 59  1  0  0  0  0
 52 60  1  0  0  0  0
 53 60  1  0  0  0  0
 54 60  1  0  0  0  0
 55 72  1  0  0  0  0
 56 63  1  0  0  0  0
 57 80  1  0  0  0  0
 58 60  1  0  0  0  0
 58 71  1  0  0  0  0
 59 72  1  0  0  0  0
 61 64  1  0  0  0  0
 62 63  1  0  0  0  0
M  CHG  1  72   1
M  ISO  4  36 100  57 101  69 100  80 101
M  END
> <Batch ID>
0113

> <Smiles>
CNC(C)C(=O)NC(C(=O)N1Cc2cc([101O:1][101CH2:1]C(=O)Cn3nc(C)c([100NH:0][100C:0](=O)N4CCCC(n5nc(-c6ccc(Oc7ccc(F)cc7F)cc6)c(C(N)=O)c5N)C4)c3C)ccc2CC1C(=O)NC1CCCc2ccccc21)C(C)(C)C

> <Shape>
0.288

> <Color>
0.144

> <Negative vol penalty>
0.000

$$$$

  -OEChem-04052301343D

 87 95  0     1  0  0  0  0  0999 V2000
  -17.1487  -14.5928   20.1132 C   0  0  0  0  0  0  0  0  0  0  0  0
  -18.2268  -15.4263   19.8335 C   0  0  0  0  0  0  0  0  0  0  0  0
  -23.0538   -9.8898   19.9503 C   0  0  0  0  0  0  0  0  0  0  0  0
  -23.8682   -9.8701   22.2248 C   0  0  0  0  0  0  0  0  0  0  0  0
  -16.1480  -14.4059   19.1605 C   0  0  0  0  0  0  0  0  0  0  0  0
  -18.3054  -16.0728   18.6005 C   0  0  0  0  0  0  0  0  0  0  0  0
  -19.6215  -20.9430   19.0406 C   0  0  0  0  0  0  0  0  0  0  0  0
  -22.3131   -8.7358   20.2055 C   0  0  0  0  0  0  0  0  0  0  0  0
  -23.1275   -8.7161   22.4800 C   0  0  0  0  0  0  0  0  0  0  0  0
  -20.9694  -21.2206   19.2639 C   0  0  0  0  0  0  0  0  0  0  0  0
  -19.9126   -7.9193   23.1509 C   0  0  0  0  0  0  0  0  0  0  0  0
  -19.1837   -7.8684   24.3390 C   0  0  0  0  0  0  0  0  0  0  0  0
  -29.7847  -17.3351   19.9640 C   0  0  0  0  0  0  0  0  0  0  0  0
  -27.7005  -18.4169   21.4701 C   0  0  0  0  0  0  0  0  0  0  0  0
  -21.2436  -21.7410   16.9244 C   0  0  0  0  0  0  0  0  0  0  0  0
  -20.4373   -5.9202   25.0246 C   0  0  0  0  0  0  0  0  0  0  0  0
  -23.8314  -10.4570   20.9599 C   0  0  0  0  0  0  0  0  0  0  0  0
  -29.4318  -16.7564   21.1831 C   0  0  0  0  0  0  0  0  0  0  0  0
  -28.3896  -17.2973   21.9361 C   0  0  0  0  0  0  0  0  0  0  0  0
  -24.1768  -12.9825   20.8590 C   0  0  0  0  0  0  0  0  0  0  0  0
  -16.2094  -15.0580   17.9188 C   0  0  0  0  0  0  0  0  0  0  0  0
  -19.0761  -21.0520   17.7533 C   0  0  0  0  0  0  0  0  0  0  0  0
  -17.3052  -15.8934   17.6298 C   0  0  0  0  0  0  0  0  0  0  0  0
  -19.8879  -21.4667   16.6879 C   0  0  0  0  0  0  0  0  0  0  0  0
  -29.0956  -18.4548   19.4980 C   0  0  0  0  0  0  0  0  0  0  0  0
  -22.3499   -8.1489   21.4703 C   0  0  0  0  0  0  0  0  0  0  0  0
  -21.7813  -21.6169   18.2052 C   0  0  0  0  0  0  0  0  0  0  0  0
  -20.9038   -6.9706   22.8995 C   0  0  0  0  0  0  0  0  0  0  0  0
  -28.0535  -18.9957   20.2511 C   0  0  0  0  0  0  0  0  0  0  0  0
  -19.4461   -6.8689   25.2759 C   0  0  0  0  0  0  0  0  0  0  0  0
  -21.1662   -5.9711   23.8364 C   0  0  0  0  0  0  0  0  0  0  0  0
  -24.5972  -11.6488   20.6967 C   0  0  0  0  0  0  0  0  0  0  0  0
  -25.2619  -13.7333   20.4778 C   0  0  0  0  0  0  0  0  0  0  0  0
  -27.9941  -16.7175   23.2137 C   0  0  0  0  0  0  0  0  0  0  0  0
  -28.0286  -17.3444   24.4095 C   0  0  0  0  0  0  0  0  0  0  0  0
  -30.1786  -15.5884   21.6358 C   0  0  0  0  0  0  0  0  0  0  0  0
  -22.9180  -13.4967   21.3137 C   0  0  0  0  0  0  0  0  0  0  0  0
  -30.7786  -14.6389   20.6706 C   0  0  0  0  0  0  0  0  0  0  0  0
  -17.7096  -19.0291   15.7175 C   0  0  0  0  0  0  0  0  0  0  0  0
  -25.2130  -20.9743   19.1626 C   0  0  0  0  0  0  0  0  0  0  0  0
  -17.1839  -21.7274   13.9955 C   0  0  0  0  0  0  0  0  0  0  0  0
  -18.0993  -24.9385   13.2900 C   0  0  0  0  0  0  0  0  0  0  0  0
  -15.1280  -14.7879   16.9028 C   0  0  0  0  0  0  0  0  0  0  0  0
  -17.6141  -20.7747   17.5340 C   0  0  0  0  0  0  0  0  0  0  0  0
  -19.3463  -21.6186   15.2907 C   0  0  0  0  0  0  0  0  0  0  0  0
  -15.0952  -15.8036   15.7637 C   0  0  0  0  0  0  0  0  0  0  0  0
  -29.5428  -12.4083   18.1499 C   0  0  0  0  0  0  0  0  0  0  0  0
  -16.5016  -16.0489   15.2265 C   0  0  0  0  0  0  0  0  0  0  0  0
  -28.1247  -12.0915   18.6233 C   0  0  0  0  0  0  0  0  0  0  0  0
  -30.4957  -12.5941   19.3263 C   0  0  0  0  0  0  0  0  0  0  0  0
  -28.6255  -13.3152   20.7859 C   0  0  0  0  0  0  0  0  0  0  0  0
  -17.4133  -16.6316   16.3131 C   0  0  1  0  0  0  0  0  0  0  0  0
  -17.2834  -20.4217   16.0871 C   0  0  1  0  0  0  0  0  0  0  0  0
  -27.6283  -13.1482   19.6261 C   0  0  2  0  0  0  0  0  0  0  0  0
  -27.6212  -16.7063   25.6977 C   0  0  0  0  0  0  0  0  0  0  0  0
  -17.5058  -26.8761   11.8099 C   0  0  0  0  0  0  0  0  0  0  0  0
  -18.5276  -20.3342   11.6369 C   0  0  0  0  0  0  0  0  0  0  0  0
  -18.7608  -22.5716   10.5379 C   0  0  0  0  0  0  0  0  0  0  0  0
  -16.4935  -21.6623   11.0430 C   0  0  0  0  0  0  0  0  0  0  0  0
  -17.4753  -26.6684   15.6088 C   0  0  0  0  0  0  0  0  0  0  0  0
  -23.7438  -21.1743   19.4736 C   0  0  0  0  0  0  0  0  0  1  0  0
  -26.0096  -20.2106   20.2004 C   0  0  0  0  0  0  0  0  0  0  0  0
  -17.9487  -22.4873   12.9388 C   0  0  1  0  0  0  0  0  0  0  0  0
  -17.2846  -26.2128   13.1604 C   0  0  2  0  0  0  0  0  0  0  0  0
  -17.9436  -21.7592   11.5650 C   0  0  0  0  0  0  0  0  0  0  0  0
  -25.8515  -11.5545   20.2473 N   0  0  0  0  0  0  0  0  0  0  0  0
  -30.3669  -15.3070   22.8946 N   0  0  0  0  0  0  0  0  0  0  0  0
  -26.2285  -12.8385   20.1239 N   0  0  0  0  0  0  0  0  0  0  0  0
  -29.9775  -13.5764   20.2763 N   0  0  0  0  0  0  0  0  0  0  0  0
  -17.9121  -21.3300   15.1258 N   0  0  0  0  0  0  0  0  0  0  0  0
  -29.4631  -19.0305   18.2622 N   0  0  0  0  0  0  0  0  0  0  0  0
  -25.4740  -15.0650   20.4142 N   0  0  0  0  0  0  0  0  0  0  0  0
  -21.9121  -12.5863   21.6652 N   0  0  0  0  0  0  0  0  0  0  0  0
  -17.1416  -18.0409   16.4986 N   0  0  0  0  0  0  0  0  0  0  0  0
  -17.3764  -23.8289   12.9062 N   0  0  0  0  0  0  0  0  0  0  0  0
  -17.6646  -27.1813   14.2275 N   0  3  0  0  0  0  0  0  0  0  0  0
  -22.6864  -14.7272   21.3900 O   0  0  0  0  0  0  0  0  0  0  0  0
  -31.9240  -14.8942   20.3224 O   0  0  0  0  0  0  0  0  0  0  0  0
  -18.4945  -18.8634   14.7911 O   0  0  0  0  0  0  0  0  0  0  0  0
  -25.7270  -21.4058   18.1318 O   0  0  0  0  0  0  0  0  0  0  0  0
  -15.9829  -21.5012   13.8276 O   0  0  0  0  0  0  0  0  0  0  0  0
  -19.2620  -24.9288   13.6881 O   0  0  0  0  0  0  0  0  0  0  0  0
  -21.6271   -7.0229   21.7198 O   0  0  0  0  0  0  0  0  0  0  0  0
  -23.0975  -21.8879   18.4203 O   0  0  0  0  0  0  0  0  0  1  0  0
  -27.3619  -20.0988   19.8096 O   0  0  0  0  0  0  0  0  0  0  0  0
  -18.7471   -6.8211   26.4175 F   0  0  0  0  0  0  0  0  0  0  0  0
  -22.1180   -5.0576   23.6011 F   0  0  0  0  0  0  0  0  0  0  0  0
  1  2  1  0  0  0  0
  1  5  2  0  0  0  0
  2  6  2  0  0  0  0
  3  8  2  0  0  0  0
  3 17  1  0  0  0  0
  4  9  1  0  0  0  0
  4 17  2  0  0  0  0
  5 21  1  0  0  0  0
  6 23  1  0  0  0  0
  7 10  2  0  0  0  0
  7 22  1  0  0  0  0
  8 26  1  0  0  0  0
  9 26  2  0  0  0  0
 10 27  1  0  0  0  0
 11 12  2  0  0  0  0
 11 28  1  0  0  0  0
 12 30  1  0  0  0  0
 13 18  1  0  0  0  0
 13 25  2  0  0  0  0
 14 19  1  0  0  0  0
 14 29  2  0  0  0  0
 15 24  1  0  0  0  0
 15 27  2  0  0  0  0
 16 30  2  0  0  0  0
 16 31  1  0  0  0  0
 17 32  1  0  0  0  0
 18 19  2  0  0  0  0
 18 36  1  0  0  0  0
 19 34  1  0  0  0  0
 20 32  1  0  0  0  0
 20 33  2  0  0  0  0
 20 37  1  0  0  0  0
 21 23  2  0  0  0  0
 21 43  1  0  0  0  0
 22 24  2  0  0  0  0
 22 44  1  0  0  0  0
 23 52  1  0  0  0  0
 24 45  1  0  0  0  0
 25 29  1  0  0  0  0
 25 71  1  0  0  0  0
 26 83  1  0  0  0  0
 27 84  1  0  0  0  0
 28 31  2  0  0  0  0
 28 83  1  0  0  0  0
 29 85  1  0  0  0  0
 30 86  1  0  0  0  0
 31 87  1  0  0  0  0
 32 66  2  0  0  0  0
 33 68  1  0  0  0  0
 33 72  1  0  0  0  0
 34 35  2  0  0  0  0
 35 55  1  0  0  0  0
 36 38  1  0  0  0  0
 36 67  2  0  0  0  0
 37 73  1  0  0  0  0
 37 77  2  0  0  0  0
 38 69  1  0  0  0  0
 38 78  2  0  0  0  0
 39 53  1  0  0  0  0
 39 74  1  0  0  0  0
 39 79  2  0  0  0  0
 40 61  1  0  0  0  0
 40 62  1  0  0  0  0
 40 80  2  0  0  0  0
 41 63  1  0  0  0  0
 41 70  1  0  0  0  0
 41 81  2  0  0  0  0
 42 64  1  0  0  0  0
 42 75  1  0  0  0  0
 42 82  2  0  0  0  0
 43 46  1  0  0  0  0
 44 53  1  0  0  0  0
 45 70  1  0  0  0  0
 46 48  1  0  0  0  0
 47 49  1  0  0  0  0
 47 50  1  0  0  0  0
 48 52  1  0  0  0  0
 49 54  1  0  0  0  0
 50 69  1  0  0  0  0
 51 54  1  0  0  0  0
 51 69  1  0  0  0  0
 52 74  1  0  0  0  0
 53 70  1  0  0  0  0
 54 68  1  0  0  0  0
 56 64  1  0  0  0  0
 57 65  1  0  0  0  0
 58 65  1  0  0  0  0
 59 65  1  0  0  0  0
 60 76  1  0  0  0  0
 61 84  1  0  0  0  0
 62 85  1  0  0  0  0
 63 65  1  0  0  0  0
 63 75  1  0  0  0  0
 64 76  1  0  0  0  0
 66 68  1  0  0  0  0
M  CHG  1  76   1
M  ISO  4  36 100  38 100  61 101  84 101
M  END
> <Batch ID>
0113

> <Smiles>
CC=Cc1cc(OCC(=O)[101CH2:1][101O:1]c2ccc3c(c2)CN(C(=O)C(NC(=O)C(C)NC)C(C)(C)C)C(C(=O)NC2CCCc4ccccc42)C3)c(N)cc1[100C:0](=N)[100C:0](=O)N1CCCC(n2nc(-c3ccc(Oc4ccc(F)cc4F)cc3)c(C(N)=O)c2N)C1

> <Shape>
0.198

> <Color>
0.175

> <Negative vol penalty>
0.000

$$$$

  -OEChem-04052301343D

 92100  0     1  0  0  0  0  0999 V2000
  -20.3639  -33.2964   18.9622 C   0  0  0  0  0  0  0  0  0  0  0  0
  -20.8014  -32.1212   18.3597 C   0  0  0  0  0  0  0  0  0  0  0  0
  -23.0222  -10.0812   19.9454 C   0  0  0  0  0  0  0  0  0  0  0  0
  -23.7458   -9.8119   22.2347 C   0  0  0  0  0  0  0  0  0  0  0  0
  -21.2911  -34.2415   19.3990 C   0  0  0  0  0  0  0  0  0  0  0  0
  -22.1665  -31.8910   18.1928 C   0  0  0  0  0  0  0  0  0  0  0  0
  -23.5127  -27.1795   19.4712 C   0  0  0  0  0  0  0  0  0  0  0  0
  -22.1970   -8.9641   20.0748 C   0  0  0  0  0  0  0  0  0  0  0  0
  -22.9205   -8.6949   22.3642 C   0  0  0  0  0  0  0  0  0  0  0  0
  -23.2371  -26.1672   18.5531 C   0  0  0  0  0  0  0  0  0  0  0  0
  -22.9905   -5.4306   21.4863 C   0  0  0  0  0  0  0  0  0  0  0  0
  -23.5229   -4.2998   22.1055 C   0  0  0  0  0  0  0  0  0  0  0  0
  -26.9377  -20.0733   17.4213 C   0  0  0  0  0  0  0  0  0  0  0  0
  -25.5313  -26.2250   17.8097 C   0  0  0  0  0  0  0  0  0  0  0  0
  -25.9749  -18.5309   15.8303 C   0  0  0  0  0  0  0  0  0  0  0  0
  -21.8117   -4.4254   23.8064 C   0  0  0  0  0  0  0  0  0  0  0  0
  -23.7967  -10.5051   21.0253 C   0  0  0  0  0  0  0  0  0  0  0  0
  -28.0277  -19.2193   17.5896 C   0  0  0  0  0  0  0  0  0  0  0  0
  -28.0913  -18.0212   16.8782 C   0  0  0  0  0  0  0  0  0  0  0  0
  -24.3134  -12.9998   21.1563 C   0  0  0  0  0  0  0  0  0  0  0  0
  -22.6686  -34.0184   19.2461 C   0  0  0  0  0  0  0  0  0  0  0  0
  -24.7993  -27.7306   19.5581 C   0  0  0  0  0  0  0  0  0  0  0  0
  -23.1130  -32.8346   18.6268 C   0  0  0  0  0  0  0  0  0  0  0  0
  -25.8213  -27.2424   18.7316 C   0  0  0  0  0  0  0  0  0  0  0  0
  -25.9113  -19.7290   16.5417 C   0  0  0  0  0  0  0  0  0  0  0  0
  -22.1461   -8.2710   21.2842 C   0  0  0  0  0  0  0  0  0  0  0  0
  -24.2457  -25.6918   17.7201 C   0  0  0  0  0  0  0  0  0  0  0  0
  -21.8687   -6.0589   22.0272 C   0  0  0  0  0  0  0  0  0  0  0  0
  -27.0649  -17.6769   15.9986 C   0  0  0  0  0  0  0  0  0  0  0  0
  -22.9336   -3.7972   23.2655 C   0  0  0  0  0  0  0  0  0  0  0  0
  -21.2793   -5.5563   23.1872 C   0  0  0  0  0  0  0  0  0  0  0  0
  -24.6498  -11.6586   20.8920 C   0  0  0  0  0  0  0  0  0  0  0  0
  -25.4599  -13.7027   20.8775 C   0  0  0  0  0  0  0  0  0  0  0  0
  -29.0812  -19.6130   18.5175 C   0  0  0  0  0  0  0  0  0  0  0  0
  -29.2433  -17.0981   17.0445 C   0  0  0  0  0  0  0  0  0  0  0  0
  -23.0752  -13.5601   21.6131 C   0  0  0  0  0  0  0  0  0  0  0  0
  -29.0568  -19.2732   19.8394 C   0  0  0  0  0  0  0  0  0  0  0  0
  -26.0347  -30.6247   19.1093 C   0  0  0  0  0  0  0  0  0  0  0  0
  -28.7366  -29.2178   20.2240 C   0  0  0  0  0  0  0  0  0  0  0  0
  -24.5815  -21.8196   16.9949 C   0  0  0  0  0  0  0  0  0  0  0  0
  -30.5225  -26.3499   20.7064 C   0  0  0  0  0  0  0  0  0  0  0  0
  -29.8574  -14.7885   17.6867 C   0  0  0  0  0  0  0  0  0  0  0  0
  -23.6315  -35.0905   19.6913 C   0  0  0  0  0  0  0  0  0  0  0  0
  -25.0869  -28.8035   20.5724 C   0  0  0  0  0  0  0  0  0  0  0  0
  -27.2241  -27.7864   18.7996 C   0  0  0  0  0  0  0  0  0  0  0  0
  -25.0723  -34.6017   19.8158 C   0  0  0  0  0  0  0  0  0  0  0  0
  -30.1718  -12.0920   19.9510 C   0  0  0  0  0  0  0  0  0  0  0  0
  -25.4669  -33.7853   18.5892 C   0  0  0  0  0  0  0  0  0  0  0  0
  -28.7368  -11.8517   20.4278 C   0  0  0  0  0  0  0  0  0  0  0  0
  -30.2227  -12.4650   18.4701 C   0  0  0  0  0  0  0  0  0  0  0  0
  -27.9229  -13.3381   18.5536 C   0  0  0  0  0  0  0  0  0  0  0  0
  -24.5864  -32.5375   18.4503 C   0  0  1  0  0  0  0  0  0  0  0  0
  -26.3068  -29.6485   20.2186 C   0  0  1  0  0  0  0  0  0  0  0  0
  -27.8124  -13.0282   20.0553 C   0  0  1  0  0  0  0  0  0  0  0  0
  -30.1950  -20.4067   17.8668 C   0  0  0  0  0  0  0  0  0  0  0  0
  -30.1362  -19.6683   20.8234 C   0  0  0  0  0  0  0  0  0  0  0  0
  -26.8102  -19.2704   20.9892 C   0  0  0  0  0  0  0  0  0  0  0  0
  -32.7133  -25.5215   21.6074 C   0  0  0  0  0  0  0  0  0  0  0  0
  -30.1473  -30.2245   17.7127 C   0  0  0  0  0  0  0  0  0  0  0  0
  -31.9983  -28.6072   18.1885 C   0  0  0  0  0  0  0  0  0  0  0  0
  -31.4871  -30.4285   19.8146 C   0  0  0  0  0  0  0  0  0  0  0  0
  -29.1836  -24.6947   22.7622 C   0  0  0  0  0  0  0  0  0  0  0  0
  -27.7350  -16.5498   14.0145 C   0  0  0  0  0  0  0  0  0  0  0  0
  -27.9635  -18.4264   20.4658 C   0  0  0  0  0  0  0  0  0  0  0  0
  -23.2643  -22.4256   16.5240 C   0  0  0  0  0  0  0  0  0  0  0  0
  -22.9595  -23.7685   17.1702 C   0  0  0  0  0  0  0  0  0  1  0  0
  -29.8935  -28.4778   19.5970 C   0  0  1  0  0  0  0  0  0  0  0  0
  -31.2540  -25.8114   21.9227 C   0  0  2  0  0  0  0  0  0  0  0  0
  -30.8547  -29.4254   18.8253 C   0  0  0  0  0  0  0  0  0  0  0  0
  -25.9113  -11.5155   20.4770 N   0  0  0  0  0  0  0  0  0  0  0  0
  -26.3776  -12.7760   20.4783 N   0  0  0  0  0  0  0  0  0  0  0  0
  -27.4540  -28.8389   19.8031 N   0  0  0  0  0  0  0  0  0  0  0  0
  -29.3281  -13.5924   18.2019 N   0  0  0  0  0  0  0  0  0  0  0  0
  -25.7626  -15.0169   20.9371 N   0  0  0  0  0  0  0  0  0  0  0  0
  -21.9980  -12.6955   21.8510 N   0  0  0  0  0  0  0  0  0  0  0  0
  -24.8053  -20.5953   16.3707 N   0  0  0  0  0  0  0  0  0  0  0  0
  -28.9287  -15.8194   17.5055 N   0  0  0  0  0  0  0  0  0  0  0  0
  -25.0114  -31.5130   19.3799 N   0  0  0  0  0  0  0  0  0  0  0  0
  -30.5307  -27.7283   20.6744 N   0  0  0  0  0  0  0  0  0  0  0  0
  -30.6157  -24.5501   22.3947 N   0  3  0  0  0  0  0  0  0  0  0  0
  -30.3682  -17.4845   16.7393 O   0  0  0  0  0  0  0  0  0  0  0  0
  -22.9234  -14.7928   21.7888 O   0  0  0  0  0  0  0  0  0  0  0  0
  -26.7047  -30.5766   18.0843 O   0  0  0  0  0  0  0  0  0  0  0  0
  -28.9624  -30.0946   21.0617 O   0  0  0  0  0  0  0  0  0  0  0  0
  -25.3023  -22.3803   17.8137 O   0  0  0  0  0  0  0  0  0  0  0  0
  -29.9996  -25.6206   19.8667 O   0  0  0  0  0  0  0  0  0  0  0  0
  -31.0592  -14.9388   17.4449 O   0  0  0  0  0  0  0  0  0  0  0  0
  -21.3408   -7.1810   21.4109 O   0  0  0  0  0  0  0  0  0  0  0  0
  -27.1054  -16.5112   15.2933 O   0  0  0  0  0  0  0  0  0  0  0  0
  -23.9792  -24.7043   16.8226 O   0  0  0  0  0  0  0  0  0  1  0  0
  -23.4440   -2.7103   23.8591 F   0  0  0  0  0  0  0  0  0  0  0  0
  -20.2008   -6.1549   23.7109 F   0  0  0  0  0  0  0  0  0  0  0  0
  1  2  1  0  0  0  0
  1  5  2  0  0  0  0
  2  6  2  0  0  0  0
  3  8  2  0  0  0  0
  3 17  1  0  0  0  0
  4  9  1  0  0  0  0
  4 17  2  0  0  0  0
  5 21  1  0  0  0  0
  6 23  1  0  0  0  0
  7 10  2  0  0  0  0
  7 22  1  0  0  0  0
  8 26  1  0  0  0  0
  9 26  2  0  0  0  0
 10 27  1  0  0  0  0
 11 12  2  0  0  0  0
 11 28  1  0  0  0  0
 12 30  1  0  0  0  0
 13 18  1  0  0  0  0
 13 25  2  0  0  0  0
 14 24  1  0  0  0  0
 14 27  2  0  0  0  0
 15 25  1  0  0  0  0
 15 29  2  0  0  0  0
 16 30  2  0  0  0  0
 16 31  1  0  0  0  0
 17 32  1  0  0  0  0
 18 19  2  0  0  0  0
 18 34  1  0  0  0  0
 19 29  1  0  0  0  0
 19 35  1  0  0  0  0
 20 32  1  0  0  0  0
 20 33  2  0  0  0  0
 20 36  1  0  0  0  0
 21 23  2  0  0  0  0
 21 43  1  0  0  0  0
 22 24  2  0  0  0  0
 22 44  1  0  0  0  0
 23 52  1  0  0  0  0
 24 45  1  0  0  0  0
 25 76  1  0  0  0  0
 26 88  1  0  0  0  0
 27 90  1  0  0  0  0
 28 31  2  0  0  0  0
 28 88  1  0  0  0  0
 29 89  1  0  0  0  0
 30 91  1  0  0  0  0
 31 92  1  0  0  0  0
 32 70  2  0  0  0  0
 33 71  1  0  0  0  0
 33 74  1  0  0  0  0
 34 37  2  0  0  0  0
 34 55  1  0  0  0  0
 35 77  1  0  0  0  0
 35 81  2  0  0  0  0
 36 75  1  0  0  0  0
 36 82  2  0  0  0  0
 37 56  1  0  0  0  0
 37 64  1  0  0  0  0
 38 53  1  0  0  0  0
 38 78  1  0  0  0  0
 38 83  2  0  0  0  0
 39 67  1  0  0  0  0
 39 72  1  0  0  0  0
 39 84  2  0  0  0  0
 40 65  1  0  0  0  0
 40 76  1  0  0  0  0
 40 85  2  0  0  0  0
 41 68  1  0  0  0  0
 41 79  1  0  0  0  0
 41 86  2  0  0  0  0
 42 73  1  0  0  0  0
 42 77  1  0  0  0  0
 42 87  2  0  0  0  0
 43 46  1  0  0  0  0
 44 53  1  0  0  0  0
 45 72  1  0  0  0  0
 46 48  1  0  0  0  0
 47 49  1  0  0  0  0
 47 50  1  0  0  0  0
 48 52  1  0  0  0  0
 49 54  1  0  0  0  0
 50 73  1  0  0  0  0
 51 54  1  0  0  0  0
 51 73  1  0  0  0  0
 52 78  1  0  0  0  0
 53 72  1  0  0  0  0
 54 71  1  0  0  0  0
 57 64  1  0  0  0  0
 58 68  1  0  0  0  0
 59 69  1  0  0  0  0
 60 69  1  0  0  0  0
 61 69  1  0  0  0  0
 62 80  1  0  0  0  0
 63 89  1  0  0  0  0
 65 66  1  0  0  0  0
 66 90  1  0  0  0  0
 67 69  1  0  0  0  0
 67 79  1  0  0  0  0
 68 80  1  0  0  0  0
 70 71  1  0  0  0  0
M  CHG  1  80   1
M  ISO  4  42 100  66 101  77 100  90 101
M  END
> <Batch ID>
0113

> <Smiles>
CCC(C)=C(C)c1cc(NC(=O)C[101CH2:1][101O:1]c2ccc3c(c2)CN(C(=O)C(NC(=O)C(C)NC)C(C)(C)C)C(C(=O)NC2CCCc4ccccc42)C3)cc(OC)c1C(=O)[100NH:0][100C:0](=O)N1CCCC(n2nc(-c3ccc(Oc4ccc(F)cc4F)cc3)c(C(N)=O)c2N)C1

> <Shape>
0.244

> <Color>
0.161

> <Negative vol penalty>
0.000

$$$$

  -OEChem-04052301343D

 85 93  0     1  0  0  0  0  0999 V2000
  -22.2739  -29.4721   23.3219 C   0  0  0  0  0  0  0  0  0  0  0  0
  -22.1892  -28.2682   22.6299 C   0  0  0  0  0  0  0  0  0  0  0  0
  -31.8066  -18.9299   23.9207 C   0  0  0  0  0  0  0  0  0  0  0  0
  -30.6151  -17.2139   25.1343 C   0  0  0  0  0  0  0  0  0  0  0  0
  -23.2833  -30.3829   23.0129 C   0  0  0  0  0  0  0  0  0  0  0  0
  -23.1133  -27.9749   21.6276 C   0  0  0  0  0  0  0  0  0  0  0  0
  -24.8626  -23.2319   21.9257 C   0  0  0  0  0  0  0  0  0  0  0  0
  -31.9652  -19.6550   25.1015 C   0  0  0  0  0  0  0  0  0  0  0  0
  -30.7738  -17.9391   26.3153 C   0  0  0  0  0  0  0  0  0  0  0  0
  -24.0343  -22.2167   21.4492 C   0  0  0  0  0  0  0  0  0  0  0  0
  -32.3701  -22.1304   27.7345 C   0  0  0  0  0  0  0  0  0  0  0  0
  -32.1228  -23.5025   27.6929 C   0  0  0  0  0  0  0  0  0  0  0  0
  -23.0637  -12.3664   21.8936 C   0  0  0  0  0  0  0  0  0  0  0  0
  -25.2966  -22.1597   19.3943 C   0  0  0  0  0  0  0  0  0  0  0  0
  -21.8693  -14.3444   21.1880 C   0  0  0  0  0  0  0  0  0  0  0  0
  -29.8486  -23.0716   27.0004 C   0  0  0  0  0  0  0  0  0  0  0  0
  -31.1315  -17.7093   23.9370 C   0  0  0  0  0  0  0  0  0  0  0  0
  -24.2457  -12.8951   21.3752 C   0  0  0  0  0  0  0  0  0  0  0  0
  -31.8376  -15.9852   22.1944 C   0  0  0  0  0  0  0  0  0  0  0  0
  -24.2261  -30.0964   22.0130 C   0  0  0  0  0  0  0  0  0  0  0  0
  -25.9091  -23.7270   21.1344 C   0  0  0  0  0  0  0  0  0  0  0  0
  -24.1355  -28.8833   21.3041 C   0  0  0  0  0  0  0  0  0  0  0  0
  -26.1383  -23.1795   19.8641 C   0  0  0  0  0  0  0  0  0  0  0  0
  -21.8754  -13.0910   21.8000 C   0  0  0  0  0  0  0  0  0  0  0  0
  -24.2396  -14.1485   20.7632 C   0  0  0  0  0  0  0  0  0  0  0  0
  -31.4488  -19.1597   26.2989 C   0  0  0  0  0  0  0  0  0  0  0  0
  -24.2495  -21.6824   20.1822 C   0  0  0  0  0  0  0  0  0  0  0  0
  -31.3567  -21.2289   27.4089 C   0  0  0  0  0  0  0  0  0  0  0  0
  -23.0514  -14.8732   20.6696 C   0  0  0  0  0  0  0  0  0  0  0  0
  -30.8620  -23.9731   27.3259 C   0  0  0  0  0  0  0  0  0  0  0  0
  -30.0960  -21.6995   27.0420 C   0  0  0  0  0  0  0  0  0  0  0  0
  -30.9669  -16.9600   22.7174 C   0  0  0  0  0  0  0  0  0  0  0  0
  -31.2361  -15.5774   21.0289 C   0  0  0  0  0  0  0  0  0  0  0  0
  -22.6404  -18.4625   20.0819 C   0  0  0  0  0  0  0  0  0  0  0  0
  -23.3860  -19.5214   20.4177 C   0  0  0  0  0  0  0  0  0  1  0  0
  -25.4693  -12.1109   21.4901 C   0  0  0  0  0  0  0  0  0  0  0  0
  -33.0791  -15.4925   22.7156 C   0  0  0  0  0  0  0  0  0  0  0  0
  -26.6207  -26.5552   19.8700 C   0  0  0  0  0  0  0  0  0  0  0  0
  -29.3671  -25.0501   19.0252 C   0  0  0  0  0  0  0  0  0  0  0  0
  -31.2381  -22.2111   17.8181 C   0  0  0  0  0  0  0  0  0  0  0  0
  -25.5634  -15.5614   19.1514 C   0  0  0  0  0  0  0  0  0  0  0  0
  -25.2708  -31.1326   21.6820 C   0  0  0  0  0  0  0  0  0  0  0  0
  -26.8101  -24.8039   21.6737 C   0  0  0  0  0  0  0  0  0  0  0  0
  -27.2607  -23.6620   18.9833 C   0  0  0  0  0  0  0  0  0  0  0  0
  -26.4360  -30.5828   20.8632 C   0  0  0  0  0  0  0  0  0  0  0  0
  -28.3265  -17.1520   17.5664 C   0  0  0  0  0  0  0  0  0  0  0  0
  -25.9212  -29.7281   19.7093 C   0  0  0  0  0  0  0  0  0  0  0  0
  -29.3985  -17.1890   18.6580 C   0  0  0  0  0  0  0  0  0  0  0  0
  -26.9273  -17.3745   18.1378 C   0  0  0  0  0  0  0  0  0  0  0  0
  -27.6330  -16.5219   20.3387 C   0  0  0  0  0  0  0  0  0  0  0  0
  -25.1341  -28.5182   20.2273 C   0  0  1  0  0  0  0  0  0  0  0  0
  -27.5263  -25.5877   20.5782 C   0  0  1  0  0  0  0  0  0  0  0  0
  -29.0523  -16.2380   19.8204 C   0  0  2  0  0  0  0  0  0  0  0  0
  -25.5914  -11.1917   22.6686 C   0  0  0  0  0  0  0  0  0  0  0  0
  -33.4914  -21.2202   17.3297 C   0  0  0  0  0  0  0  0  0  0  0  0
  -28.8307  -25.9487   16.1590 C   0  0  0  0  0  0  0  0  0  0  0  0
  -30.5108  -24.2597   15.3890 C   0  0  0  0  0  0  0  0  0  0  0  0
  -31.2186  -26.1304   16.8797 C   0  0  0  0  0  0  0  0  0  0  0  0
  -31.2711  -20.7305   20.3804 C   0  0  0  0  0  0  0  0  0  0  0  0
  -22.5983  -17.1985   20.8783 C   0  0  0  0  0  0  0  0  0  0  0  0
  -29.8229  -24.2486   17.8298 C   0  0  1  0  0  0  0  0  0  0  0  0
  -32.5131  -21.6427   18.4147 C   0  0  2  0  0  0  0  0  0  0  0  0
  -30.0733  -25.1389   16.5799 C   0  0  0  0  0  0  0  0  0  0  0  0
  -29.8940  -17.1595   21.9472 N   0  0  0  0  0  0  0  0  0  0  0  0
  -30.0866  -16.3045   20.9284 N   0  0  0  0  0  0  0  0  0  0  0  0
  -28.1105  -24.7209   19.5527 N   0  0  0  0  0  0  0  0  0  0  0  0
  -26.6681  -16.4355   19.2314 N   0  0  0  0  0  0  0  0  0  0  0  0
  -20.6801  -12.5565   22.3241 N   0  0  0  0  0  0  0  0  0  0  0  0
  -31.5836  -14.6713   20.0905 N   0  0  0  0  0  0  0  0  0  0  0  0
  -33.5525  -16.0200   23.9247 N   0  0  0  0  0  0  0  0  0  0  0  0
  -25.4365  -14.6920   20.2343 N   0  0  0  0  0  0  0  0  0  0  0  0
  -26.0383  -27.4925   20.7017 N   0  0  0  0  0  0  0  0  0  0  0  0
  -30.9903  -23.4909   18.2674 N   0  0  0  0  0  0  0  0  0  0  0  0
  -32.2048  -20.4537   19.2585 N   0  3  0  0  0  0  0  0  0  0  0  0
  -26.4080  -12.1522   20.6952 O   0  0  0  0  0  0  0  0  0  0  0  0
  -33.7569  -14.6223   22.1182 O   0  0  0  0  0  0  0  0  0  0  0  0
  -26.4631  -26.4593   18.6585 O   0  0  0  0  0  0  0  0  0  0  0  0
  -30.1022  -25.9308   19.4787 O   0  0  0  0  0  0  0  0  0  0  0  0
  -30.5346  -21.5840   17.0292 O   0  0  0  0  0  0  0  0  0  0  0  0
  -24.8027  -15.5641   18.1802 O   0  0  0  0  0  0  0  0  0  0  0  0
  -31.6036  -19.8669   27.4514 O   0  0  0  0  0  0  0  0  0  0  0  0
  -23.4421  -20.6918   19.7143 O   0  0  0  0  0  0  0  0  0  1  0  0
  -23.0217  -16.1064   20.0726 O   0  0  0  0  0  0  0  0  0  0  0  0
  -30.6242  -25.2907   27.2875 F   0  0  0  0  0  0  0  0  0  0  0  0
  -29.1181  -20.8382   26.7293 F   0  0  0  0  0  0  0  0  0  0  0  0
  1  2  1  0  0  0  0
  1  5  2  0  0  0  0
  2  6  2  0  0  0  0
  3  8  2  0  0  0  0
  3 17  1  0  0  0  0
  4  9  1  0  0  0  0
  4 17  2  0  0  0  0
  5 20  1  0  0  0  0
  6 22  1  0  0  0  0
  7 10  2  0  0  0  0
  7 21  1  0  0  0  0
  8 26  1  0  0  0  0
  9 26  2  0  0  0  0
 10 27  1  0  0  0  0
 11 12  2  0  0  0  0
 11 28  1  0  0  0  0
 12 30  1  0  0  0  0
 13 18  2  0  0  0  0
 13 24  1  0  0  0  0
 14 23  1  0  0  0  0
 14 27  2  0  0  0  0
 15 24  2  0  0  0  0
 15 29  1  0  0  0  0
 16 30  2  0  0  0  0
 16 31  1  0  0  0  0
 17 32  1  0  0  0  0
 18 25  1  0  0  0  0
 18 36  1  0  0  0  0
 19 32  1  0  0  0  0
 19 33  2  0  0  0  0
 19 37  1  0  0  0  0
 20 22  2  0  0  0  0
 20 42  1  0  0  0  0
 21 23  2  0  0  0  0
 21 43  1  0  0  0  0
 22 51  1  0  0  0  0
 23 44  1  0  0  0  0
 24 68  1  0  0  0  0
 25 29  2  0  0  0  0
 25 71  1  0  0  0  0
 26 81  1  0  0  0  0
 27 82  1  0  0  0  0
 28 31  2  0  0  0  0
 28 81  1  0  0  0  0
 29 83  1  0  0  0  0
 30 84  1  0  0  0  0
 31 85  1  0  0  0  0
 32 64  2  0  0  0  0
 33 65  1  0  0  0  0
 33 69  1  0  0  0  0
 34 35  2  0  0  0  0
 34 60  1  0  0  0  0
 35 82  1  0  0  0  0
 36 54  1  0  0  0  0
 36 75  2  0  0  0  0
 37 70  1  0  0  0  0
 37 76  2  0  0  0  0
 38 52  1  0  0  0  0
 38 72  1  0  0  0  0
 38 77  2  0  0  0  0
 39 61  1  0  0  0  0
 39 66  1  0  0  0  0
 39 78  2  0  0  0  0
 40 62  1  0  0  0  0
 40 73  1  0  0  0  0
 40 79  2  0  0  0  0
 41 67  1  0  0  0  0
 41 71  1  0  0  0  0
 41 80  2  0  0  0  0
 42 45  1  0  0  0  0
 43 52  1  0  0  0  0
 44 66  1  0  0  0  0
 45 47  1  0  0  0  0
 46 48  1  0  0  0  0
 46 49  1  0  0  0  0
 47 51  1  0  0  0  0
 48 53  1  0  0  0  0
 49 67  1  0  0  0  0
 50 53  1  0  0  0  0
 50 67  1  0  0  0  0
 51 72  1  0  0  0  0
 52 66  1  0  0  0  0
 53 65  1  0  0  0  0
 55 62  1  0  0  0  0
 56 63  1  0  0  0  0
 57 63  1  0  0  0  0
 58 63  1  0  0  0  0
 59 74  1  0  0  0  0
 60 83  1  0  0  0  0
 61 63  1  0  0  0  0
 61 73  1  0  0  0  0
 62 74  1  0  0  0  0
 64 65  1  0  0  0  0
M  CHG  1  74   1
M  ISO  4  35 101  41 100  71 100  82 101
M  END
> <Batch ID>
0113

> <Smiles>
CNC(C)C(=O)NC(C(=O)N1Cc2cc([101O:1][101CH:1]=CCOc3cc(N)cc(C(C)=O)c3[100NH:0][100C:0](=O)N3CCCC(n4nc(-c5ccc(Oc6ccc(F)cc6F)cc5)c(C(N)=O)c4N)C3)ccc2CC1C(=O)NC1CCCc2ccccc21)C(C)(C)C

> <Shape>
0.201

> <Color>
0.069

> <Negative vol penalty>
0.000

$$$$

  -OEChem-04052301343D

 85 93  0     1  0  0  0  0  0999 V2000
  -25.9837  -35.2590   21.9115 C   0  0  0  0  0  0  0  0  0  0  0  0
  -26.5413  -33.9881   21.8143 C   0  0  0  0  0  0  0  0  0  0  0  0
  -22.3775  -11.0027   22.1411 C   0  0  0  0  0  0  0  0  0  0  0  0
  -23.3193  -10.7112   19.9354 C   0  0  0  0  0  0  0  0  0  0  0  0
  -24.7471  -35.4309   22.5321 C   0  0  0  0  0  0  0  0  0  0  0  0
  -25.8629  -32.8885   22.3387 C   0  0  0  0  0  0  0  0  0  0  0  0
  -25.8730  -28.9192   19.1939 C   0  0  0  0  0  0  0  0  0  0  0  0
  -21.9346   -9.6802   22.1269 C   0  0  0  0  0  0  0  0  0  0  0  0
  -22.8765   -9.3885   19.9212 C   0  0  0  0  0  0  0  0  0  0  0  0
  -27.0405  -28.1598   19.1308 C   0  0  0  0  0  0  0  0  0  0  0  0
  -20.8713   -6.2737   22.8200 C   0  0  0  0  0  0  0  0  0  0  0  0
  -21.0784   -5.5081   23.9674 C   0  0  0  0  0  0  0  0  0  0  0  0
  -26.0484  -26.5235   20.5996 C   0  0  0  0  0  0  0  0  0  0  0  0
  -28.0689  -20.8033   17.9550 C   0  0  0  0  0  0  0  0  0  0  0  0
  -23.4625   -5.8387   23.7576 C   0  0  0  0  0  0  0  0  0  0  0  0
  -23.0698  -11.5183   21.0454 C   0  0  0  0  0  0  0  0  0  0  0  0
  -24.7668  -13.3615   21.5254 C   0  0  0  0  0  0  0  0  0  0  0  0
  -24.0488  -34.3314   23.0558 C   0  0  0  0  0  0  0  0  0  0  0  0
  -24.7866  -28.4911   19.9704 C   0  0  0  0  0  0  0  0  0  0  0  0
  -24.6164  -33.0459   22.9681 C   0  0  0  0  0  0  0  0  0  0  0  0
  -24.8673  -27.2780   20.6689 C   0  0  0  0  0  0  0  0  0  0  0  0
  -27.7952  -21.8799   18.7985 C   0  0  0  0  0  0  0  0  0  0  0  0
  -27.0966  -19.8287   17.7301 C   0  0  0  0  0  0  0  0  0  0  0  0
  -25.8506  -19.9308   18.3488 C   0  0  0  0  0  0  0  0  0  0  0  0
  -22.1842   -8.8730   21.0170 C   0  0  0  0  0  0  0  0  0  0  0  0
  -27.1294  -26.9632   19.8360 C   0  0  0  0  0  0  0  0  0  0  0  0
  -21.9598   -6.8218   22.1414 C   0  0  0  0  0  0  0  0  0  0  0  0
  -25.5769  -21.0074   19.1923 C   0  0  0  0  0  0  0  0  0  0  0  0
  -22.3740   -5.2906   24.4362 C   0  0  0  0  0  0  0  0  0  0  0  0
  -23.2554   -6.6043   22.6102 C   0  0  0  0  0  0  0  0  0  0  0  0
  -26.5492  -21.9820   19.4172 C   0  0  0  0  0  0  0  0  0  0  0  0
  -23.5270  -12.8846   21.0592 C   0  0  0  0  0  0  0  0  0  0  0  0
  -24.7113  -14.7186   21.3214 C   0  0  0  0  0  0  0  0  0  0  0  0
  -28.7668  -23.8623   18.2059 C   0  0  0  0  0  0  0  0  0  0  0  0
  -25.8699  -12.6420   22.0921 C   0  0  0  0  0  0  0  0  0  0  0  0
  -23.2313  -29.6544   22.4866 C   0  0  0  0  0  0  0  0  0  0  0  0
  -21.2659  -27.1306   21.9482 C   0  0  0  0  0  0  0  0  0  0  0  0
  -20.8514  -24.0118   20.6261 C   0  0  0  0  0  0  0  0  0  0  0  0
  -23.4744  -19.1200   18.1432 C   0  0  0  0  0  0  0  0  0  0  0  0
  -22.7370  -34.5730   23.7597 C   0  0  0  0  0  0  0  0  0  0  0  0
  -23.5244  -29.3084   20.0066 C   0  0  0  0  0  0  0  0  0  0  0  0
  -23.7217  -26.7641   21.5007 C   0  0  0  0  0  0  0  0  0  0  0  0
  -21.9091  -33.3057   23.9569 C   0  0  0  0  0  0  0  0  0  0  0  0
  -20.8245  -17.7029   20.0530 C   0  0  0  0  0  0  0  0  0  0  0  0
  -22.7824  -32.1756   24.4927 C   0  0  0  0  0  0  0  0  0  0  0  0
  -21.3934  -16.3622   20.5234 C   0  0  0  0  0  0  0  0  0  0  0  0
  -21.2869  -18.0504   18.6390 C   0  0  0  0  0  0  0  0  0  0  0  0
  -23.3091  -16.6685   18.9038 C   0  0  0  0  0  0  0  0  0  0  0  0
  -23.8998  -31.8250   23.5027 C   0  0  1  0  0  0  0  0  0  0  0  0
  -22.6692  -29.0327   21.2395 C   0  0  1  0  0  0  0  0  0  0  0  0
  -22.9236  -16.3064   20.3474 C   0  0  2  0  0  0  0  0  0  0  0  0
  -19.1448  -22.1890   20.3761 C   0  0  0  0  0  0  0  0  0  0  0  0
  -21.6815  -26.3445   24.8670 C   0  0  0  0  0  0  0  0  0  0  0  0
  -20.7694  -24.0794   24.3142 C   0  0  0  0  0  0  0  0  0  0  0  0
  -19.3321  -26.1004   24.0452 C   0  0  0  0  0  0  0  0  0  0  0  0
  -20.9351  -24.1793   17.6725 C   0  0  0  0  0  0  0  0  0  0  0  0
  -24.2301  -20.5175   21.0902 C   0  0  0  0  0  0  0  0  0  0  0  0
  -29.7608  -24.9827   18.3562 C   0  0  0  0  0  0  0  0  0  0  0  0
  -29.0324  -26.2982   18.5740 C   0  0  0  0  0  0  0  0  0  1  0  0
  -21.2185  -25.6946   22.4115 C   0  0  1  0  0  0  0  0  0  0  0  0
  -19.7616  -23.4278   19.7453 C   0  0  2  0  0  0  0  0  0  0  0  0
  -20.7728  -25.5651   23.8954 C   0  0  0  0  0  0  0  0  0  0  0  0
  -22.7413  -13.8596   20.5943 N   0  0  0  0  0  0  0  0  0  0  0  0
  -28.7756  -22.8607   19.0237 N   0  0  0  0  0  0  0  0  0  0  0  0
  -23.4892  -14.9627   20.7674 N   0  0  0  0  0  0  0  0  0  0  0  0
  -22.5113  -27.6022   21.5094 N   0  0  0  0  0  0  0  0  0  0  0  0
  -22.7470  -17.9810   18.5488 N   0  0  0  0  0  0  0  0  0  0  0  0
  -27.3962  -18.7471   16.8712 N   0  0  0  0  0  0  0  0  0  0  0  0
  -25.5892  -15.7151   21.5638 N   0  0  0  0  0  0  0  0  0  0  0  0
  -25.7606  -11.2516   22.2300 N   0  0  0  0  0  0  0  0  0  0  0  0
  -24.8577  -18.9447   18.1262 N   0  0  0  0  0  0  0  0  0  0  0  0
  -23.3784  -31.0265   22.4142 N   0  0  0  0  0  0  0  0  0  0  0  0
  -20.3604  -24.9888   21.4661 N   0  0  0  0  0  0  0  0  0  0  0  0
  -20.3174  -23.0506   18.4150 N   0  3  0  0  0  0  0  0  0  0  0  0
  -26.9149  -13.2172   22.4802 O   0  0  0  0  0  0  0  0  0  0  0  0
  -23.5094  -28.9422   23.4443 O   0  0  0  0  0  0  0  0  0  0  0  0
  -20.2344  -27.8067   21.9679 O   0  0  0  0  0  0  0  0  0  0  0  0
  -22.0205  -23.6360   20.5767 O   0  0  0  0  0  0  0  0  0  0  0  0
  -22.9131  -20.1814   17.8599 O   0  0  0  0  0  0  0  0  0  0  0  0
  -21.7524   -7.5823   21.0028 O   0  0  0  0  0  0  0  0  0  0  0  0
  -24.3662  -21.1257   19.8078 O   0  0  0  0  0  0  0  0  0  0  0  0
  -28.2681  -26.2204   19.7766 O   0  0  0  0  0  0  0  0  0  1  0  0
  -22.5727   -4.5566   25.5390 F   0  0  0  0  0  0  0  0  0  0  0  0
  -24.3049   -7.1292   21.9631 F   0  0  0  0  0  0  0  0  0  0  0  0
  -26.2842  -23.0156   20.2296 F   0  0  0  0  0  0  0  0  0  0  0  0
  1  2  1  0  0  0  0
  1  5  2  0  0  0  0
  2  6  2  0  0  0  0
  3  8  2  0  0  0  0
  3 16  1  0  0  0  0
  4  9  1  0  0  0  0
  4 16  2  0  0  0  0
  5 18  1  0  0  0  0
  6 20  1  0  0  0  0
  7 10  2  0  0  0  0
  7 19  1  0  0  0  0
  8 25  1  0  0  0  0
  9 25  2  0  0  0  0
 10 26  1  0  0  0  0
 11 12  2  0  0  0  0
 11 27  1  0  0  0  0
 12 29  1  0  0  0  0
 13 21  1  0  0  0  0
 13 26  2  0  0  0  0
 14 22  1  0  0  0  0
 14 23  2  0  0  0  0
 15 29  2  0  0  0  0
 15 30  1  0  0  0  0
 16 32  1  0  0  0  0
 17 32  1  0  0  0  0
 17 33  2  0  0  0  0
 17 35  1  0  0  0  0
 18 20  2  0  0  0  0
 18 40  1  0  0  0  0
 19 21  2  0  0  0  0
 19 41  1  0  0  0  0
 20 49  1  0  0  0  0
 21 42  1  0  0  0  0
 22 31  2  0  0  0  0
 22 64  1  0  0  0  0
 23 24  1  0  0  0  0
 23 68  1  0  0  0  0
 24 28  2  0  0  0  0
 24 71  1  0  0  0  0
 25 80  1  0  0  0  0
 26 82  1  0  0  0  0
 27 30  2  0  0  0  0
 27 80  1  0  0  0  0
 28 31  1  0  0  0  0
 28 81  1  0  0  0  0
 29 83  1  0  0  0  0
 30 84  1  0  0  0  0
 31 85  1  0  0  0  0
 32 63  2  0  0  0  0
 33 65  1  0  0  0  0
 33 69  1  0  0  0  0
 34 58  1  0  0  0  0
 34 64  2  0  0  0  0
 35 70  1  0  0  0  0
 35 75  2  0  0  0  0
 36 50  1  0  0  0  0
 36 72  1  0  0  0  0
 36 76  2  0  0  0  0
 37 60  1  0  0  0  0
 37 66  1  0  0  0  0
 37 77  2  0  0  0  0
 38 61  1  0  0  0  0
 38 73  1  0  0  0  0
 38 78  2  0  0  0  0
 39 67  1  0  0  0  0
 39 71  1  0  0  0  0
 39 79  2  0  0  0  0
 40 43  1  0  0  0  0
 41 50  1  0  0  0  0
 42 66  1  0  0  0  0
 43 45  1  0  0  0  0
 44 46  1  0  0  0  0
 44 47  1  0  0  0  0
 45 49  1  0  0  0  0
 46 51  1  0  0  0  0
 47 67  1  0  0  0  0
 48 51  1  0  0  0  0
 48 67  1  0  0  0  0
 49 72  1  0  0  0  0
 50 66  1  0  0  0  0
 51 65  1  0  0  0  0
 52 61  1  0  0  0  0
 53 62  1  0  0  0  0
 54 62  1  0  0  0  0
 55 62  1  0  0  0  0
 56 74  1  0  0  0  0
 57 81  1  0  0  0  0
 58 59  1  0  0  0  0
 59 82  1  0  0  0  0
 60 62  1  0  0  0  0
 60 73  1  0  0  0  0
 61 74  1  0  0  0  0
 63 65  1  0  0  0  0
M  CHG  1  74   1
M  ISO  4  39 100  59 101  71 100  82 101
M  END
> <Batch ID>
0113

> <Smiles>
CNC(C)C(=O)NC(C(=O)N1Cc2cc([101O:1][101CH2:1]C=CNc3cc(N)c([100NH:0][100C:0](=O)N4CCCC(n5nc(-c6ccc(Oc7ccc(F)cc7F)cc6)c(C(N)=O)c5N)C4)c(OC)c3F)ccc2CC1C(=O)NC1CCCc2ccccc21)C(C)(C)C

> <Shape>
0.239

> <Color>
0.102

> <Negative vol penalty>
0.000

$$$$

  -OEChem-04052301343D

 81 89  0     1  0  0  0  0  0999 V2000
  -27.6506  -10.6879   22.5091 C   0  0  0  0  0  0  0  0  0  0  0  0
  -28.3445  -11.8757   22.3014 C   0  0  0  0  0  0  0  0  0  0  0  0
  -19.7519  -28.8531   23.4128 C   0  0  0  0  0  0  0  0  0  0  0  0
  -20.7501  -26.9173   22.3673 C   0  0  0  0  0  0  0  0  0  0  0  0
  -26.4018  -10.4990   21.9186 C   0  0  0  0  0  0  0  0  0  0  0  0
  -27.7903  -12.8750   21.5022 C   0  0  0  0  0  0  0  0  0  0  0  0
  -28.3486  -18.9266   22.2584 C   0  0  0  0  0  0  0  0  0  0  0  0
  -18.5640  -28.6138   22.7220 C   0  0  0  0  0  0  0  0  0  0  0  0
  -19.5622  -26.6779   21.6764 C   0  0  0  0  0  0  0  0  0  0  0  0
  -29.1826  -19.8731   21.6648 C   0  0  0  0  0  0  0  0  0  0  0  0
  -16.6751  -25.3480   19.9117 C   0  0  0  0  0  0  0  0  0  0  0  0
  -16.2018  -24.0366   19.8690 C   0  0  0  0  0  0  0  0  0  0  0  0
  -31.0453  -27.3447   19.8796 C   0  0  0  0  0  0  0  0  0  0  0  0
  -30.3279  -28.4276   20.4650 C   0  0  0  0  0  0  0  0  0  0  0  0
  -27.4375  -20.4142   20.0896 C   0  0  0  0  0  0  0  0  0  0  0  0
  -16.0600  -24.0091   22.2807 C   0  0  0  0  0  0  0  0  0  0  0  0
  -20.8450  -28.0049   23.2354 C   0  0  0  0  0  0  0  0  0  0  0  0
  -22.4350  -27.7548   25.2145 C   0  0  0  0  0  0  0  0  0  0  0  0
  -25.8277  -11.5004   21.1196 C   0  0  0  0  0  0  0  0  0  0  0  0
  -27.0544  -18.7088   21.7643 C   0  0  0  0  0  0  0  0  0  0  0  0
  -26.5332  -12.6988   20.8994 C   0  0  0  0  0  0  0  0  0  0  0  0
  -26.5881  -19.4662   20.6803 C   0  0  0  0  0  0  0  0  0  0  0  0
  -18.4691  -27.5262   21.8538 C   0  0  0  0  0  0  0  0  0  0  0  0
  -28.7282  -20.6150   20.5784 C   0  0  0  0  0  0  0  0  0  0  0  0
  -16.8409  -25.9900   21.1390 C   0  0  0  0  0  0  0  0  0  0  0  0
  -15.8942  -23.3671   21.0534 C   0  0  0  0  0  0  0  0  0  0  0  0
  -16.5333  -25.3205   22.3234 C   0  0  0  0  0  0  0  0  0  0  0  0
  -22.0725  -28.2520   23.9483 C   0  0  0  0  0  0  0  0  0  0  0  0
  -30.2891  -26.1948   19.8208 C   0  0  0  0  0  0  0  0  0  0  0  0
  -23.6854  -28.2753   25.4426 C   0  0  0  0  0  0  0  0  0  0  0  0
  -29.0505  -28.0641   20.8312 C   0  0  0  0  0  0  0  0  0  0  0  0
  -31.1865  -24.1212   20.1666 C   0  0  0  0  0  0  0  0  0  0  0  0
  -21.7067  -26.8989   26.1048 C   0  0  0  0  0  0  0  0  0  0  0  0
  -25.5294  -16.2306   20.4850 C   0  0  0  0  0  0  0  0  0  0  0  0
  -22.9723  -18.2201   20.6439 C   0  0  0  0  0  0  0  0  0  0  0  0
  -21.7956  -21.4208   20.7789 C   0  0  0  0  0  0  0  0  0  0  0  0
  -28.0484  -30.1543   21.8178 C   0  0  0  0  0  0  0  0  0  0  0  0
  -24.4964  -11.2316   20.4638 C   0  0  0  0  0  0  0  0  0  0  0  0
  -26.1576  -17.7030   22.4326 C   0  0  0  0  0  0  0  0  0  0  0  0
  -25.1999  -19.2848   20.1249 C   0  0  0  0  0  0  0  0  0  0  0  0
  -23.8124  -12.4900   19.9358 C   0  0  0  0  0  0  0  0  0  0  0  0
  -26.4255  -32.0500   24.3574 C   0  0  0  0  0  0  0  0  0  0  0  0
  -24.8037  -13.3503   19.1586 C   0  0  0  0  0  0  0  0  0  0  0  0
  -25.1611  -31.2427   24.6603 C   0  0  0  0  0  0  0  0  0  0  0  0
  -26.7798  -32.0130   22.8719 C   0  0  0  0  0  0  0  0  0  0  0  0
  -25.6136  -29.8609   22.5932 C   0  0  0  0  0  0  0  0  0  0  0  0
  -25.9542  -13.8163   20.0591 C   0  0  1  0  0  0  0  0  0  0  0  0
  -25.0406  -17.2009   21.5229 C   0  0  1  0  0  0  0  0  0  0  0  0
  -25.2533  -29.8150   24.0871 C   0  0  2  0  0  0  0  0  0  0  0  0
  -33.1169  -22.6054   19.9582 C   0  0  0  0  0  0  0  0  0  0  0  0
  -19.6574  -22.7316   20.8629 C   0  0  0  0  0  0  0  0  0  0  0  0
  -22.5337  -17.6907   17.6712 C   0  0  0  0  0  0  0  0  0  0  0  0
  -21.0377  -19.6972   17.6058 C   0  0  0  0  0  0  0  0  0  0  0  0
  -20.4419  -17.7456   19.0407 C   0  0  0  0  0  0  0  0  0  0  0  0
  -22.4937  -22.6130   23.3962 C   0  0  0  0  0  0  0  0  0  0  0  0
  -30.8461  -21.6965   20.5507 C   0  0  0  0  0  0  0  0  0  1  0  0
  -31.6148  -22.7354   19.7384 C   0  0  1  0  0  0  0  0  0  0  0  0
  -22.3579  -19.2471   19.7237 C   0  0  1  0  0  0  0  0  0  0  0  0
  -20.7627  -22.0772   21.6770 C   0  0  2  0  0  0  0  0  0  0  0  0
  -21.6197  -18.5974   18.5193 C   0  0  0  0  0  0  0  0  0  0  0  0
  -23.0162  -29.0288   23.4098 N   0  0  0  0  0  0  0  0  0  0  0  0
  -30.6517  -24.9351   19.3155 N   0  0  0  0  0  0  0  0  0  0  0  0
  -23.9841  -29.0237   24.3422 N   0  0  0  0  0  0  0  0  0  0  0  0
  -24.3631  -18.2849   20.8086 N   0  0  0  0  0  0  0  0  0  0  0  0
  -26.8538  -30.6285   22.3999 N   0  0  0  0  0  0  0  0  0  0  0  0
  -24.5476  -28.1613   26.4751 N   0  0  0  0  0  0  0  0  0  0  0  0
  -20.4357  -26.4553   25.7146 N   0  0  0  0  0  0  0  0  0  0  0  0
  -28.0114  -28.8134   21.4367 N   0  0  0  0  0  0  0  0  0  0  0  0
  -25.5251  -14.9127   20.9006 N   0  0  0  0  0  0  0  0  0  0  0  0
  -21.5101  -20.0896   20.5602 N   0  0  0  0  0  0  0  0  0  0  0  0
  -21.4030  -23.1219   22.5253 N   0  3  0  0  0  0  0  0  0  0  0  0
  -22.1623  -26.5515   27.2207 O   0  0  0  0  0  0  0  0  0  0  0  0
  -25.8827  -16.6466   19.3879 O   0  0  0  0  0  0  0  0  0  0  0  0
  -22.2440  -17.3955   21.2018 O   0  0  0  0  0  0  0  0  0  0  0  0
  -22.7573  -22.0290   20.3144 O   0  0  0  0  0  0  0  0  0  0  0  0
  -29.0409  -30.8764   21.6932 O   0  0  0  0  0  0  0  0  0  0  0  0
  -17.3101  -27.2922   21.1797 O   0  0  0  0  0  0  0  0  0  0  0  0
  -29.5404  -21.5390   19.9968 O   0  0  0  0  0  0  0  0  0  1  0  0
  -15.4383  -22.1083   21.0121 F   0  0  0  0  0  0  0  0  0  0  0  0
  -16.6894  -25.9325   23.5053 F   0  0  0  0  0  0  0  0  0  0  0  0
  -28.7209  -26.4232   20.4694 S   0  0  0  0  0  0  0  0  0  0  0  0
  1  2  1  0  0  0  0
  1  5  2  0  0  0  0
  2  6  2  0  0  0  0
  3  8  2  0  0  0  0
  3 17  1  0  0  0  0
  4  9  1  0  0  0  0
  4 17  2  0  0  0  0
  5 19  1  0  0  0  0
  6 21  1  0  0  0  0
  7 10  2  0  0  0  0
  7 20  1  0  0  0  0
  8 23  1  0  0  0  0
  9 23  2  0  0  0  0
 10 24  1  0  0  0  0
 11 12  2  0  0  0  0
 11 25  1  0  0  0  0
 12 26  1  0  0  0  0
 13 14  1  0  0  0  0
 13 29  2  0  0  0  0
 14 31  2  0  0  0  0
 15 22  1  0  0  0  0
 15 24  2  0  0  0  0
 16 26  2  0  0  0  0
 16 27  1  0  0  0  0
 17 28  1  0  0  0  0
 18 28  1  0  0  0  0
 18 30  2  0  0  0  0
 18 33  1  0  0  0  0
 19 21  2  0  0  0  0
 19 38  1  0  0  0  0
 20 22  2  0  0  0  0
 20 39  1  0  0  0  0
 21 47  1  0  0  0  0
 22 40  1  0  0  0  0
 23 77  1  0  0  0  0
 24 78  1  0  0  0  0
 25 27  2  0  0  0  0
 25 77  1  0  0  0  0
 26 79  1  0  0  0  0
 27 80  1  0  0  0  0
 28 61  2  0  0  0  0
 29 62  1  0  0  0  0
 29 81  1  0  0  0  0
 30 63  1  0  0  0  0
 30 66  1  0  0  0  0
 31 68  1  0  0  0  0
 31 81  1  0  0  0  0
 32 57  1  0  0  0  0
 32 62  2  0  0  0  0
 33 67  1  0  0  0  0
 33 72  2  0  0  0  0
 34 48  1  0  0  0  0
 34 69  1  0  0  0  0
 34 73  2  0  0  0  0
 35 58  1  0  0  0  0
 35 64  1  0  0  0  0
 35 74  2  0  0  0  0
 36 59  1  0  0  0  0
 36 70  1  0  0  0  0
 36 75  2  0  0  0  0
 37 65  1  0  0  0  0
 37 68  1  0  0  0  0
 37 76  2  0  0  0  0
 38 41  1  0  0  0  0
 39 48  1  0  0  0  0
 40 64  1  0  0  0  0
 41 43  1  0  0  0  0
 42 44  1  0  0  0  0
 42 45  1  0  0  0  0
 43 47  1  0  0  0  0
 44 49  1  0  0  0  0
 45 65  1  0  0  0  0
 46 49  1  0  0  0  0
 46 65  1  0  0  0  0
 47 69  1  0  0  0  0
 48 64  1  0  0  0  0
 49 63  1  0  0  0  0
 50 57  1  0  0  0  0
 51 59  1  0  0  0  0
 52 60  1  0  0  0  0
 53 60  1  0  0  0  0
 54 60  1  0  0  0  0
 55 71  1  0  0  0  0
 56 57  1  0  0  0  0
 56 78  1  0  0  0  0
 58 60  1  0  0  0  0
 58 70  1  0  0  0  0
 59 71  1  0  0  0  0
 61 63  1  0  0  0  0
M  CHG  1  71   1
M  ISO  4  37 100  56 101  68 100  78 101
M  END
> <Batch ID>
0113

> <Smiles>
CNC(C)C(=O)NC(C(=O)N1Cc2cc([101O:1][101CH2:1]C(C)=CNc3ccc([100NH:0][100C:0](=O)N4CCCC(n5nc(-c6ccc(Oc7ccc(F)cc7F)cc6)c(C(N)=O)c5N)C4)s3)ccc2CC1C(=O)NC1CCCc2ccccc21)C(C)(C)C

> <Shape>
0.216

> <Color>
0.086

> <Negative vol penalty>
0.000

$$$$

  -OEChem-04052301343D

 88 97  0     1  0  0  0  0  0999 V2000
  -32.7897  -23.6117   11.9639 C   0  0  0  0  0  0  0  0  0  0  0  0
  -32.4453  -23.3825   13.2922 C   0  0  0  0  0  0  0  0  0  0  0  0
  -23.0788   -9.8567   19.9507 C   0  0  0  0  0  0  0  0  0  0  0  0
  -23.8309   -9.8844   22.2465 C   0  0  0  0  0  0  0  0  0  0  0  0
  -33.4794  -24.7718   11.6140 C   0  0  0  0  0  0  0  0  0  0  0  0
  -32.7916  -24.3127   14.2716 C   0  0  0  0  0  0  0  0  0  0  0  0
  -28.9912  -25.2596   17.4818 C   0  0  0  0  0  0  0  0  0  0  0  0
  -22.3348   -8.7053   20.2083 C   0  0  0  0  0  0  0  0  0  0  0  0
  -23.0868   -8.7330   22.5042 C   0  0  0  0  0  0  0  0  0  0  0  0
  -28.7475  -24.3137   18.4767 C   0  0  0  0  0  0  0  0  0  0  0  0
  -19.8571   -7.9385   23.1027 C   0  0  0  0  0  0  0  0  0  0  0  0
  -19.0962   -7.9084   24.2713 C   0  0  0  0  0  0  0  0  0  0  0  0
  -29.9390  -25.6850   20.0639 C   0  0  0  0  0  0  0  0  0  0  0  0
  -31.1451  -17.6900   20.5662 C   0  0  0  0  0  0  0  0  0  0  0  0
  -20.3363   -5.9784   25.0291 C   0  0  0  0  0  0  0  0  0  0  0  0
  -23.8269  -10.4462   20.9698 C   0  0  0  0  0  0  0  0  0  0  0  0
  -24.1676  -12.9704   20.8286 C   0  0  0  0  0  0  0  0  0  0  0  0
  -33.8258  -25.7213   12.5882 C   0  0  0  0  0  0  0  0  0  0  0  0
  -29.7213  -26.4220   17.7684 C   0  0  0  0  0  0  0  0  0  0  0  0
  -33.4878  -25.4860   13.9345 C   0  0  0  0  0  0  0  0  0  0  0  0
  -30.1884  -26.6453   19.0715 C   0  0  0  0  0  0  0  0  0  0  0  0
  -30.2444  -17.1066   21.4502 C   0  0  0  0  0  0  0  0  0  0  0  0
  -22.3388   -8.1435   21.4850 C   0  0  0  0  0  0  0  0  0  0  0  0
  -29.2239  -24.5250   19.7673 C   0  0  0  0  0  0  0  0  0  0  0  0
  -20.8576   -6.9885   22.8972 C   0  0  0  0  0  0  0  0  0  0  0  0
  -19.3358   -6.9284   25.2346 C   0  0  0  0  0  0  0  0  0  0  0  0
  -21.0972   -6.0084   23.8604 C   0  0  0  0  0  0  0  0  0  0  0  0
  -31.3114  -19.0705   20.5620 C   0  0  0  0  0  0  0  0  0  0  0  0
  -24.5961  -11.6353   20.7042 C   0  0  0  0  0  0  0  0  0  0  0  0
  -29.5398  -17.9409   22.3030 C   0  0  0  0  0  0  0  0  0  0  0  0
  -30.5589  -19.8169   21.4544 C   0  0  0  0  0  0  0  0  0  0  0  0
  -25.2605  -13.7174   20.4625 C   0  0  0  0  0  0  0  0  0  0  0  0
  -29.9179  -21.5582   24.7839 C   0  0  0  0  0  0  0  0  0  0  0  0
  -30.6000  -22.0035   23.7144 C   0  0  0  0  0  0  0  0  0  0  0  0
  -22.8954  -13.4891   21.2387 C   0  0  0  0  0  0  0  0  0  0  0  0
  -32.4642  -27.6582   16.7428 C   0  0  0  0  0  0  0  0  0  0  0  0
  -31.5623  -30.1797   18.5734 C   0  0  0  0  0  0  0  0  0  0  0  0
  -29.7225  -31.3395   21.2034 C   0  0  0  0  0  0  0  0  0  0  0  0
  -30.7254  -14.7680   20.6465 C   0  0  0  0  0  0  0  0  0  0  0  0
  -34.6128  -26.9376   12.1688 C   0  0  0  0  0  0  0  0  0  0  0  0
  -29.9527  -27.4453   16.6906 C   0  0  0  0  0  0  0  0  0  0  0  0
  -30.9599  -27.8865   19.4357 C   0  0  0  0  0  0  0  0  0  0  0  0
  -30.4871  -21.5070   26.1712 C   0  0  0  0  0  0  0  0  0  0  0  0
  -32.0329  -22.4643   23.8178 C   0  0  0  0  0  0  0  0  0  0  0  0
  -34.6133  -28.0522   13.2119 C   0  0  0  0  0  0  0  0  0  0  0  0
  -31.7833  -22.3035   26.3215 C   0  0  0  0  0  0  0  0  0  0  0  0
  -32.7095  -22.0711   25.1337 C   0  0  0  0  0  0  0  0  0  0  0  0
  -29.6206  -12.3326   18.2959 C   0  0  0  0  0  0  0  0  0  0  0  0
  -34.9040  -27.4859   14.5981 C   0  0  0  0  0  0  0  0  0  0  0  0
  -28.1796  -12.0439   18.7231 C   0  0  0  0  0  0  0  0  0  0  0  0
  -30.5314  -12.5726   19.4986 C   0  0  0  0  0  0  0  0  0  0  0  0
  -28.6193  -13.3081   20.8669 C   0  0  0  0  0  0  0  0  0  0  0  0
  -33.8240  -26.4832   15.0220 C   0  0  1  0  0  0  0  0  0  0  0  0
  -31.1494  -28.3488   16.9713 C   0  0  1  0  0  0  0  0  0  0  0  0
  -27.6506  -13.1238   19.6873 C   0  0  2  0  0  0  0  0  0  0  0  0
  -29.2191  -33.4398   22.4812 C   0  0  0  0  0  0  0  0  0  0  0  0
  -34.2753  -29.9859   19.9561 C   0  0  0  0  0  0  0  0  0  0  0  0
  -33.3639  -31.4228   21.7927 C   0  0  0  0  0  0  0  0  0  0  0  0
  -33.5167  -32.3188   19.4696 C   0  0  0  0  0  0  0  0  0  0  0  0
  -26.8452  -31.2009   20.5246 C   0  0  0  0  0  0  0  0  0  0  0  0
  -29.9615  -23.4896   21.7772 C   0  0  0  0  0  0  0  0  0  1  0  0
  -29.9800  -22.0726   22.3502 C   0  0  1  0  0  0  0  0  0  0  0  0
  -31.7636  -30.5806   20.0148 C   0  0  1  0  0  0  0  0  0  0  0  0
  -28.7955  -32.5344   21.3350 C   0  0  2  0  0  0  0  0  0  0  0  0
  -33.2171  -31.0526   20.3013 C   0  0  0  0  0  0  0  0  0  0  0  0
  -25.8624  -11.5366   20.2911 N   0  0  0  0  0  0  0  0  0  0  0  0
  -29.6743  -19.2859   22.3280 N   0  0  0  0  0  0  0  0  0  0  0  0
  -26.2390  -12.8192   20.1527 N   0  0  0  0  0  0  0  0  0  0  0  0
  -31.1659  -28.8543   18.3455 N   0  0  0  0  0  0  0  0  0  0  0  0
  -29.9688  -13.6108   20.3649 N   0  0  0  0  0  0  0  0  0  0  0  0
  -28.6190  -17.3551   23.2079 N   0  0  0  0  0  0  0  0  0  0  0  0
  -25.4703  -15.0483   20.3784 N   0  0  0  0  0  0  0  0  0  0  0  0
  -21.8829  -12.5823   21.5805 N   0  0  0  0  0  0  0  0  0  0  0  0
  -30.0747  -15.6998   21.4545 N   0  0  0  0  0  0  0  0  0  0  0  0
  -30.7107  -21.1927   21.4644 N   0  0  0  0  0  0  0  0  0  0  0  0
  -32.6319  -27.1785   15.4578 N   0  0  0  0  0  0  0  0  0  0  0  0
  -30.7421  -31.5805   20.3069 N   0  0  0  0  0  0  0  0  0  0  0  0
  -27.3983  -32.0809   21.5861 N   0  3  0  0  0  0  0  0  0  0  0  0
  -22.6581  -14.7200   21.2843 O   0  0  0  0  0  0  0  0  0  0  0  0
  -33.2677  -27.5686   17.6637 O   0  0  0  0  0  0  0  0  0  0  0  0
  -31.7431  -31.0139   17.6828 O   0  0  0  0  0  0  0  0  0  0  0  0
  -29.5607  -30.2981   21.8355 O   0  0  0  0  0  0  0  0  0  0  0  0
  -31.8560  -14.9333   20.1813 O   0  0  0  0  0  0  0  0  0  0  0  0
  -21.6127   -7.0201   21.7368 O   0  0  0  0  0  0  0  0  0  0  0  0
  -28.9880  -23.6030   20.7400 O   0  0  0  0  0  0  0  0  0  1  0  0
  -18.6061   -6.9006   26.3574 F   0  0  0  0  0  0  0  0  0  0  0  0
  -22.0578   -5.0938   23.6692 F   0  0  0  0  0  0  0  0  0  0  0  0
  -32.4316  -19.7778   19.4602 Cl  0  0  0  0  0  0  0  0  0  0  0  0
  1  2  1  0  0  0  0
  1  5  2  0  0  0  0
  2  6  2  0  0  0  0
  3  8  2  0  0  0  0
  3 16  1  0  0  0  0
  4  9  1  0  0  0  0
  4 16  2  0  0  0  0
  5 18  1  0  0  0  0
  6 20  1  0  0  0  0
  7 10  2  0  0  0  0
  7 19  1  0  0  0  0
  8 23  1  0  0  0  0
  9 23  2  0  0  0  0
 10 24  1  0  0  0  0
 11 12  2  0  0  0  0
 11 25  1  0  0  0  0
 12 26  1  0  0  0  0
 13 21  1  0  0  0  0
 13 24  2  0  0  0  0
 14 22  2  0  0  0  0
 14 28  1  0  0  0  0
 15 26  2  0  0  0  0
 15 27  1  0  0  0  0
 16 29  1  0  0  0  0
 17 29  1  0  0  0  0
 17 32  2  0  0  0  0
 17 35  1  0  0  0  0
 18 20  2  0  0  0  0
 18 40  1  0  0  0  0
 19 21  2  0  0  0  0
 19 41  1  0  0  0  0
 20 53  1  0  0  0  0
 21 42  1  0  0  0  0
 22 30  1  0  0  0  0
 22 74  1  0  0  0  0
 23 84  1  0  0  0  0
 24 85  1  0  0  0  0
 25 27  2  0  0  0  0
 25 84  1  0  0  0  0
 26 86  1  0  0  0  0
 27 87  1  0  0  0  0
 28 31  2  0  0  0  0
 28 88  1  0  0  0  0
 29 66  2  0  0  0  0
 30 67  2  0  0  0  0
 30 71  1  0  0  0  0
 31 67  1  0  0  0  0
 31 75  1  0  0  0  0
 32 68  1  0  0  0  0
 32 72  1  0  0  0  0
 33 34  2  0  0  0  0
 33 43  1  0  0  0  0
 34 44  1  0  0  0  0
 34 62  1  0  0  0  0
 35 73  1  0  0  0  0
 35 79  2  0  0  0  0
 36 54  1  0  0  0  0
 36 76  1  0  0  0  0
 36 80  2  0  0  0  0
 37 63  1  0  0  0  0
 37 69  1  0  0  0  0
 37 81  2  0  0  0  0
 38 64  1  0  0  0  0
 38 77  1  0  0  0  0
 38 82  2  0  0  0  0
 39 70  1  0  0  0  0
 39 74  1  0  0  0  0
 39 83  2  0  0  0  0
 40 45  1  0  0  0  0
 41 54  1  0  0  0  0
 42 69  1  0  0  0  0
 43 46  1  0  0  0  0
 44 47  1  0  0  0  0
 45 49  1  0  0  0  0
 46 47  1  0  0  0  0
 48 50  1  0  0  0  0
 48 51  1  0  0  0  0
 49 53  1  0  0  0  0
 50 55  1  0  0  0  0
 51 70  1  0  0  0  0
 52 55  1  0  0  0  0
 52 70  1  0  0  0  0
 53 76  1  0  0  0  0
 54 69  1  0  0  0  0
 55 68  1  0  0  0  0
 56 64  1  0  0  0  0
 57 65  1  0  0  0  0
 58 65  1  0  0  0  0
 59 65  1  0  0  0  0
 60 78  1  0  0  0  0
 61 62  1  0  0  0  0
 61 85  1  0  0  0  0
 62 75  1  0  0  0  0
 63 65  1  0  0  0  0
 63 77  1  0  0  0  0
 64 78  1  0  0  0  0
 66 68  1  0  0  0  0
M  CHG  1  78   1
M  ISO  4  39 100  61 101  74 100  85 101
M  END
> <Batch ID>
0113

> <Smiles>
CNC(C)C(=O)NC(C(=O)N1Cc2cc([101O:1][101CH2:1]C(Nc3nc(N)c([100NH:0][100C:0](=O)N4CCCC(n5nc(-c6ccc(Oc7ccc(F)cc7F)cc6)c(C(N)=O)c5N)C4)cc3Cl)C3=CCCCC3)ccc2CC1C(=O)NC1CCCc2ccccc21)C(C)(C)C

> <Shape>
0.235

> <Color>
0.180

> <Negative vol penalty>
0.000

$$$$

  -OEChem-04052301343D

 86 94  0     1  0  0  0  0  0999 V2000
  -43.1526  -25.7292   21.0826 C   0  0  0  0  0  0  0  0  0  0  0  0
  -42.4195  -24.5839   20.7888 C   0  0  0  0  0  0  0  0  0  0  0  0
  -23.0556   -9.8839   19.9502 C   0  0  0  0  0  0  0  0  0  0  0  0
  -23.8689   -9.8676   22.2251 C   0  0  0  0  0  0  0  0  0  0  0  0
  -42.5803  -26.9875   20.9010 C   0  0  0  0  0  0  0  0  0  0  0  0
  -41.1132  -24.6963   20.3142 C   0  0  0  0  0  0  0  0  0  0  0  0
  -36.4635  -21.4458   15.9404 C   0  0  0  0  0  0  0  0  0  0  0  0
  -22.3174   -8.7283   20.2058 C   0  0  0  0  0  0  0  0  0  0  0  0
  -23.1306   -8.7120   22.4808 C   0  0  0  0  0  0  0  0  0  0  0  0
  -35.1641  -20.9406   15.9332 C   0  0  0  0  0  0  0  0  0  0  0  0
  -19.9172   -7.9085   23.1505 C   0  0  0  0  0  0  0  0  0  0  0  0
  -19.1878   -7.8568   24.3383 C   0  0  0  0  0  0  0  0  0  0  0  0
  -29.7622  -17.3515   19.9655 C   0  0  0  0  0  0  0  0  0  0  0  0
  -34.3064  -23.1679   15.5831 C   0  0  0  0  0  0  0  0  0  0  0  0
  -28.0195  -18.9976   20.2661 C   0  0  0  0  0  0  0  0  0  0  0  0
  -20.4454   -5.9119   25.0259 C   0  0  0  0  0  0  0  0  0  0  0  0
  -23.8314  -10.4535   20.9599 C   0  0  0  0  0  0  0  0  0  0  0  0
  -29.4181  -16.7648   21.1832 C   0  0  0  0  0  0  0  0  0  0  0  0
  -24.1712  -12.9797   20.8574 C   0  0  0  0  0  0  0  0  0  0  0  0
  -41.2697  -27.1156   20.4147 C   0  0  0  0  0  0  0  0  0  0  0  0
  -36.6938  -22.8197   15.7796 C   0  0  0  0  0  0  0  0  0  0  0  0
  -40.5224  -25.9575   20.1271 C   0  0  0  0  0  0  0  0  0  0  0  0
  -35.6098  -23.6877   15.5861 C   0  0  0  0  0  0  0  0  0  0  0  0
  -28.3746  -17.2944   21.9424 C   0  0  0  0  0  0  0  0  0  0  0  0
  -27.6753  -18.4109   21.4838 C   0  0  0  0  0  0  0  0  0  0  0  0
  -22.3549   -8.1424   21.4711 C   0  0  0  0  0  0  0  0  0  0  0  0
  -34.0851  -21.8020   15.7574 C   0  0  0  0  0  0  0  0  0  0  0  0
  -20.9106   -6.9618   22.9003 C   0  0  0  0  0  0  0  0  0  0  0  0
  -29.0630  -18.4680   19.5069 C   0  0  0  0  0  0  0  0  0  0  0  0
  -19.4519   -6.8585   25.2760 C   0  0  0  0  0  0  0  0  0  0  0  0
  -21.1748   -5.9636   23.8380 C   0  0  0  0  0  0  0  0  0  0  0  0
  -24.5947  -11.6468   20.6963 C   0  0  0  0  0  0  0  0  0  0  0  0
  -25.2548  -13.7327   20.4763 C   0  0  0  0  0  0  0  0  0  0  0  0
  -30.1667  -15.5996   21.6356 C   0  0  0  0  0  0  0  0  0  0  0  0
  -22.9110  -13.4914   21.3111 C   0  0  0  0  0  0  0  0  0  0  0  0
  -30.7694  -14.6507   20.6714 C   0  0  0  0  0  0  0  0  0  0  0  0
  -37.9967  -25.1002   17.5700 C   0  0  0  0  0  0  0  0  0  0  0  0
  -31.1389  -20.1359   17.0418 C   0  0  0  0  0  0  0  0  0  0  0  0
  -37.5788  -26.8941   14.8998 C   0  0  0  0  0  0  0  0  0  0  0  0
  -35.8885  -27.3878   11.9764 C   0  0  0  0  0  0  0  0  0  0  0  0
  -40.6772  -28.4959   20.2795 C   0  0  0  0  0  0  0  0  0  0  0  0
  -38.1030  -23.3454   15.7630 C   0  0  0  0  0  0  0  0  0  0  0  0
  -35.8047  -25.1681   15.3889 C   0  0  0  0  0  0  0  0  0  0  0  0
  -39.4181  -28.5366   19.4173 C   0  0  0  0  0  0  0  0  0  0  0  0
  -29.5399  -12.4157   18.1515 C   0  0  0  0  0  0  0  0  0  0  0  0
  -38.4656  -27.4118   19.8102 C   0  0  0  0  0  0  0  0  0  0  0  0
  -28.1222  -12.0960   18.6244 C   0  0  0  0  0  0  0  0  0  0  0  0
  -30.4918  -12.6044   19.3282 C   0  0  0  0  0  0  0  0  0  0  0  0
  -28.6191  -13.3223   20.7865 C   0  0  0  0  0  0  0  0  0  0  0  0
  -39.1111  -26.0389   19.5868 C   0  0  1  0  0  0  0  0  0  0  0  0
  -38.1912  -24.8295   16.1048 C   0  0  1  0  0  0  0  0  0  0  0  0
  -27.6229  -13.1523   19.6262 C   0  0  2  0  0  0  0  0  0  0  0  0
  -28.5249  -17.4630   24.4395 C   0  0  0  0  0  0  0  0  0  0  0  0
  -35.7441  -28.9599   10.0258 C   0  0  0  0  0  0  0  0  0  0  0  0
  -36.0933  -28.9128   16.6399 C   0  0  0  0  0  0  0  0  0  0  0  0
  -35.1757  -29.9364   14.5475 C   0  0  0  0  0  0  0  0  0  0  0  0
  -37.6370  -29.9259   14.9533 C   0  0  0  0  0  0  0  0  0  0  0  0
  -36.6077  -25.2546   10.0552 C   0  0  0  0  0  0  0  0  0  0  0  0
  -28.0058  -16.6643   23.2494 C   0  0  0  0  0  0  0  0  0  0  0  0
  -32.5661  -20.1449   16.5336 C   0  0  0  0  0  0  0  0  0  1  0  0
  -30.7527  -18.9525   17.9051 C   0  0  0  0  0  0  0  0  0  0  0  0
  -36.4696  -27.7635   14.3588 C   0  0  1  0  0  0  0  0  0  0  0  0
  -36.3748  -27.6876   10.5700 C   0  0  2  0  0  0  0  0  0  0  0  0
  -36.3398  -29.1071   15.1305 C   0  0  0  0  0  0  0  0  0  0  0  0
  -25.8494  -11.5551   20.2476 N   0  0  0  0  0  0  0  0  0  0  0  0
  -30.3563  -15.3174   22.8948 N   0  0  0  0  0  0  0  0  0  0  0  0
  -26.2236  -12.8399   20.1235 N   0  0  0  0  0  0  0  0  0  0  0  0
  -29.9708  -13.5862   20.2773 N   0  0  0  0  0  0  0  0  0  0  0  0
  -37.2011  -25.6347   15.3868 N   0  0  0  0  0  0  0  0  0  0  0  0
  -26.6157  -18.9623   22.2377 N   0  0  0  0  0  0  0  0  0  0  0  0
  -25.4639  -15.0648   20.4119 N   0  0  0  0  0  0  0  0  0  0  0  0
  -21.9070  -12.5789   21.6627 N   0  0  0  0  0  0  0  0  0  0  0  0
  -39.0856  -25.6909   18.1823 N   0  0  0  0  0  0  0  0  0  0  0  0
  -36.7304  -27.9170   12.9316 N   0  0  0  0  0  0  0  0  0  0  0  0
  -36.0324  -26.5639    9.6530 N   0  3  0  0  0  0  0  0  0  0  0  0
  -22.6766  -14.7214   21.3864 O   0  0  0  0  0  0  0  0  0  0  0  0
  -31.9144  -14.9084   20.3235 O   0  0  0  0  0  0  0  0  0  0  0  0
  -36.9367  -24.7970   18.1049 O   0  0  0  0  0  0  0  0  0  0  0  0
  -30.3431  -21.0336   16.7699 O   0  0  0  0  0  0  0  0  0  0  0  0
  -38.7386  -27.3139   14.8841 O   0  0  0  0  0  0  0  0  0  0  0  0
  -34.8623  -26.7512   12.2049 O   0  0  0  0  0  0  0  0  0  0  0  0
  -21.6344   -7.0150   21.7209 O   0  0  0  0  0  0  0  0  0  0  0  0
  -32.8158  -21.3115   15.7507 O   0  0  0  0  0  0  0  0  0  1  0  0
  -29.4023  -19.0464   18.3068 O   0  0  0  0  0  0  0  0  0  0  0  0
  -18.7525   -6.8099   26.4173 F   0  0  0  0  0  0  0  0  0  0  0  0
  -22.1288   -5.0521   23.6038 F   0  0  0  0  0  0  0  0  0  0  0  0
  1  2  1  0  0  0  0
  1  5  2  0  0  0  0
  2  6  2  0  0  0  0
  3  8  2  0  0  0  0
  3 17  1  0  0  0  0
  4  9  1  0  0  0  0
  4 17  2  0  0  0  0
  5 20  1  0  0  0  0
  6 22  1  0  0  0  0
  7 10  2  0  0  0  0
  7 21  1  0  0  0  0
  8 26  1  0  0  0  0
  9 26  2  0  0  0  0
 10 27  1  0  0  0  0
 11 12  2  0  0  0  0
 11 28  1  0  0  0  0
 12 30  1  0  0  0  0
 13 18  1  0  0  0  0
 13 29  2  0  0  0  0
 14 23  1  0  0  0  0
 14 27  2  0  0  0  0
 15 25  2  0  0  0  0
 15 29  1  0  0  0  0
 16 30  2  0  0  0  0
 16 31  1  0  0  0  0
 17 32  1  0  0  0  0
 18 24  2  0  0  0  0
 18 34  1  0  0  0  0
 19 32  1  0  0  0  0
 19 33  2  0  0  0  0
 19 35  1  0  0  0  0
 20 22  2  0  0  0  0
 20 41  1  0  0  0  0
 21 23  2  0  0  0  0
 21 42  1  0  0  0  0
 22 50  1  0  0  0  0
 23 43  1  0  0  0  0
 24 25  1  0  0  0  0
 24 59  1  0  0  0  0
 25 70  1  0  0  0  0
 26 82  1  0  0  0  0
 27 83  1  0  0  0  0
 28 31  2  0  0  0  0
 28 82  1  0  0  0  0
 29 84  1  0  0  0  0
 30 85  1  0  0  0  0
 31 86  1  0  0  0  0
 32 65  2  0  0  0  0
 33 67  1  0  0  0  0
 33 71  1  0  0  0  0
 34 36  1  0  0  0  0
 34 66  2  0  0  0  0
 35 72  1  0  0  0  0
 35 76  2  0  0  0  0
 36 68  1  0  0  0  0
 36 77  2  0  0  0  0
 37 51  1  0  0  0  0
 37 73  1  0  0  0  0
 37 78  2  0  0  0  0
 38 60  1  0  0  0  0
 38 61  1  0  0  0  0
 38 79  2  0  0  0  0
 39 62  1  0  0  0  0
 39 69  1  0  0  0  0
 39 80  2  0  0  0  0
 40 63  1  0  0  0  0
 40 74  1  0  0  0  0
 40 81  2  0  0  0  0
 41 44  1  0  0  0  0
 42 51  1  0  0  0  0
 43 69  1  0  0  0  0
 44 46  1  0  0  0  0
 45 47  1  0  0  0  0
 45 48  1  0  0  0  0
 46 50  1  0  0  0  0
 47 52  1  0  0  0  0
 48 68  1  0  0  0  0
 49 52  1  0  0  0  0
 49 68  1  0  0  0  0
 50 73  1  0  0  0  0
 51 69  1  0  0  0  0
 52 67  1  0  0  0  0
 53 59  1  0  0  0  0
 54 63  1  0  0  0  0
 55 64  1  0  0  0  0
 56 64  1  0  0  0  0
 57 64  1  0  0  0  0
 58 75  1  0  0  0  0
 60 83  1  0  0  0  0
 61 84  1  0  0  0  0
 62 64  1  0  0  0  0
 62 74  1  0  0  0  0
 63 75  1  0  0  0  0
 65 67  1  0  0  0  0
M  CHG  1  75   1
M  ISO  4  34 100  36 100  60 101  83 101
M  END
> <Batch ID>
0113

> <Smiles>
CCc1c(N)cc(OCC(=O)[101CH2:1][101O:1]c2ccc3c(c2)CN(C(=O)C(NC(=O)C(C)NC)C(C)(C)C)C(C(=O)NC2CCCc4ccccc42)C3)cc1[100C:0](=N)[100C:0](=O)N1CCCC(n2nc(-c3ccc(Oc4ccc(F)cc4F)cc3)c(C(N)=O)c2N)C1

> <Shape>
0.196

> <Color>
0.175

> <Negative vol penalty>
0.000

$$$$

  -OEChem-04052301343D

 83 91  0     1  0  0  0  0  0999 V2000
  -23.9126  -32.4032   14.3091 C   0  0  0  0  0  0  0  0  0  0  0  0
  -24.7695  -31.5237   14.9631 C   0  0  0  0  0  0  0  0  0  0  0  0
  -22.6060  -10.8457   20.4941 C   0  0  0  0  0  0  0  0  0  0  0  0
  -24.2909  -10.0552   22.0346 C   0  0  0  0  0  0  0  0  0  0  0  0
  -23.4287  -33.5281   14.9756 C   0  0  0  0  0  0  0  0  0  0  0  0
  -25.1438  -31.7693   16.2837 C   0  0  0  0  0  0  0  0  0  0  0  0
  -24.9261  -27.6136   19.1695 C   0  0  0  0  0  0  0  0  0  0  0  0
  -30.0815  -19.5227   24.3640 C   0  0  0  0  0  0  0  0  0  0  0  0
  -29.8694  -20.6677   23.5962 C   0  0  0  0  0  0  0  0  0  0  0  0
  -22.0647   -9.5620   20.4273 C   0  0  0  0  0  0  0  0  0  0  0  0
  -23.7496   -8.7714   21.9678 C   0  0  0  0  0  0  0  0  0  0  0  0
  -25.9725  -26.7001   19.0504 C   0  0  0  0  0  0  0  0  0  0  0  0
  -21.1220   -7.1061   23.2882 C   0  0  0  0  0  0  0  0  0  0  0  0
  -20.9532   -6.4125   24.4865 C   0  0  0  0  0  0  0  0  0  0  0  0
  -26.9716  -27.5921   21.0567 C   0  0  0  0  0  0  0  0  0  0  0  0
  -22.4227   -4.6703   23.6851 C   0  0  0  0  0  0  0  0  0  0  0  0
  -23.7191  -11.0924   21.2977 C   0  0  0  0  0  0  0  0  0  0  0  0
  -23.9334  -13.4411   22.2700 C   0  0  0  0  0  0  0  0  0  0  0  0
  -23.7896  -33.7825   16.3082 C   0  0  0  0  0  0  0  0  0  0  0  0
  -24.9001  -28.5320   20.2289 C   0  0  0  0  0  0  0  0  0  0  0  0
  -24.6653  -32.8994   16.9682 C   0  0  0  0  0  0  0  0  0  0  0  0
  -25.9224  -28.5145   21.1885 C   0  0  0  0  0  0  0  0  0  0  0  0
  -29.9544  -18.2605   23.7840 C   0  0  0  0  0  0  0  0  0  0  0  0
  -29.5301  -20.5506   22.2483 C   0  0  0  0  0  0  0  0  0  0  0  0
  -29.6151  -18.1434   22.4361 C   0  0  0  0  0  0  0  0  0  0  0  0
  -22.6365   -8.5248   21.1642 C   0  0  0  0  0  0  0  0  0  0  0  0
  -26.9970  -26.6912   19.9924 C   0  0  0  0  0  0  0  0  0  0  0  0
  -21.9412   -6.5818   22.2882 C   0  0  0  0  0  0  0  0  0  0  0  0
  -21.6035   -5.1946   24.6850 C   0  0  0  0  0  0  0  0  0  0  0  0
  -22.5915   -5.3639   22.4867 C   0  0  0  0  0  0  0  0  0  0  0  0
  -29.4029  -19.2884   21.6682 C   0  0  0  0  0  0  0  0  0  0  0  0
  -24.2791  -12.4182   21.3667 C   0  0  0  0  0  0  0  0  0  0  0  0
  -24.7449  -14.4937   21.9238 C   0  0  0  0  0  0  0  0  0  0  0  0
  -29.1933  -24.0001   20.8905 C   0  0  0  0  0  0  0  0  0  0  0  0
  -28.2194  -24.9154   20.8997 C   0  0  0  0  0  0  0  0  0  1  0  0
  -22.9652  -13.4398   23.3275 C   0  0  0  0  0  0  0  0  0  0  0  0
  -24.9617  -31.7022   20.4513 C   0  0  0  0  0  0  0  0  0  0  0  0
  -24.4672  -31.1017   23.6005 C   0  0  0  0  0  0  0  0  0  0  0  0
  -24.7430  -28.9227   26.2125 C   0  0  0  0  0  0  0  0  0  0  0  0
  -29.7209  -16.5425   20.4938 C   0  0  0  0  0  0  0  0  0  0  0  0
  -23.2787  -35.0367   16.9719 C   0  0  0  0  0  0  0  0  0  0  0  0
  -23.7504  -29.4931   20.3582 C   0  0  0  0  0  0  0  0  0  0  0  0
  -25.9306  -29.4661   22.3559 C   0  0  0  0  0  0  0  0  0  0  0  0
  -23.4255  -35.0249   18.4913 C   0  0  0  0  0  0  0  0  0  0  0  0
  -27.7233  -15.1676   17.8868 C   0  0  0  0  0  0  0  0  0  0  0  0
  -24.8201  -34.5521   18.8892 C   0  0  0  0  0  0  0  0  0  0  0  0
  -26.6207  -14.4139   18.6341 C   0  0  0  0  0  0  0  0  0  0  0  0
  -29.0675  -15.0653   18.6055 C   0  0  0  0  0  0  0  0  0  0  0  0
  -27.9438  -14.7034   20.7678 C   0  0  0  0  0  0  0  0  0  0  0  0
  -25.0746  -33.1184   18.4086 C   0  0  1  0  0  0  0  0  0  0  0  0
  -24.0921  -30.7250   21.1907 C   0  0  1  0  0  0  0  0  0  0  0  0
  -26.5572  -14.8320   20.1162 C   0  0  2  0  0  0  0  0  0  0  0  0
  -24.2878  -28.7289   28.6727 C   0  0  0  0  0  0  0  0  0  0  0  0
  -26.9072  -32.8376   24.1862 C   0  0  0  0  0  0  0  0  0  0  0  0
  -26.9688  -31.8526   26.4871 C   0  0  0  0  0  0  0  0  0  0  0  0
  -24.9862  -33.1758   25.7515 C   0  0  0  0  0  0  0  0  0  0  0  0
  -22.8748  -26.6635   25.8068 C   0  0  0  0  0  0  0  0  0  0  0  0
  -29.4287  -23.0317   22.0050 C   0  0  0  0  0  0  0  0  0  0  0  0
  -25.3576  -30.8646   24.7963 C   0  0  1  0  0  0  0  0  0  0  0  0
  -23.7462  -28.4890   27.2720 C   0  0  2  0  0  0  0  0  0  0  0  0
  -26.0561  -32.1659   25.2823 C   0  0  0  0  0  0  0  0  0  0  0  0
  -25.2356  -12.7877   20.5108 N   0  0  0  0  0  0  0  0  0  0  0  0
  -25.4979  -14.0545   20.8748 N   0  0  0  0  0  0  0  0  0  0  0  0
  -24.7879  -30.3910   22.4351 N   0  0  0  0  0  0  0  0  0  0  0  0
  -28.9312  -15.4812   20.0031 N   0  0  0  0  0  0  0  0  0  0  0  0
  -30.1747  -17.1141   24.5804 N   0  0  0  0  0  0  0  0  0  0  0  0
  -24.8808  -15.7428   22.4173 N   0  0  0  0  0  0  0  0  0  0  0  0
  -22.2170  -12.2752   23.5471 N   0  0  0  0  0  0  0  0  0  0  0  0
  -29.4811  -16.8707   21.8278 N   0  0  0  0  0  0  0  0  0  0  0  0
  -29.3192  -21.6908   21.4873 N   0  0  0  0  0  0  0  0  0  0  0  0
  -24.4082  -32.1693   19.2744 N   0  0  0  0  0  0  0  0  0  0  0  0
  -24.5231  -30.2216   25.8055 N   0  0  0  0  0  0  0  0  0  0  0  0
  -23.4374  -27.0380   27.1297 N   0  3  0  0  0  0  0  0  0  0  0  0
  -22.7579  -14.4472   24.0457 O   0  0  0  0  0  0  0  0  0  0  0  0
  -26.0532  -32.0108   20.9150 O   0  0  0  0  0  0  0  0  0  0  0  0
  -23.5178  -31.8830   23.6989 O   0  0  0  0  0  0  0  0  0  0  0  0
  -25.6306  -28.1843   25.7910 O   0  0  0  0  0  0  0  0  0  0  0  0
  -30.5296  -17.1358   19.7754 O   0  0  0  0  0  0  0  0  0  0  0  0
  -22.1084   -7.2720   21.0994 O   0  0  0  0  0  0  0  0  0  0  0  0
  -28.0200  -25.8010   19.8781 O   0  0  0  0  0  0  0  0  0  1  0  0
  -21.4425   -4.5294   25.8364 F   0  0  0  0  0  0  0  0  0  0  0  0
  -23.3806   -4.8557   21.5303 F   0  0  0  0  0  0  0  0  0  0  0  0
  -29.0762  -19.1772   20.3713 F   0  0  0  0  0  0  0  0  0  0  0  0
  1  2  1  0  0  0  0
  1  5  2  0  0  0  0
  2  6  2  0  0  0  0
  3 10  2  0  0  0  0
  3 17  1  0  0  0  0
  4 11  1  0  0  0  0
  4 17  2  0  0  0  0
  5 19  1  0  0  0  0
  6 21  1  0  0  0  0
  7 12  2  0  0  0  0
  7 20  1  0  0  0  0
  8  9  2  0  0  0  0
  8 23  1  0  0  0  0
  9 24  1  0  0  0  0
 10 26  1  0  0  0  0
 11 26  2  0  0  0  0
 12 27  1  0  0  0  0
 13 14  2  0  0  0  0
 13 28  1  0  0  0  0
 14 29  1  0  0  0  0
 15 22  1  0  0  0  0
 15 27  2  0  0  0  0
 16 29  2  0  0  0  0
 16 30  1  0  0  0  0
 17 32  1  0  0  0  0
 18 32  1  0  0  0  0
 18 33  2  0  0  0  0
 18 36  1  0  0  0  0
 19 21  2  0  0  0  0
 19 41  1  0  0  0  0
 20 22  2  0  0  0  0
 20 42  1  0  0  0  0
 21 50  1  0  0  0  0
 22 43  1  0  0  0  0
 23 25  2  0  0  0  0
 23 66  1  0  0  0  0
 24 31  2  0  0  0  0
 24 70  1  0  0  0  0
 25 31  1  0  0  0  0
 25 69  1  0  0  0  0
 26 79  1  0  0  0  0
 27 80  1  0  0  0  0
 28 30  2  0  0  0  0
 28 79  1  0  0  0  0
 29 81  1  0  0  0  0
 30 82  1  0  0  0  0
 31 83  1  0  0  0  0
 32 62  2  0  0  0  0
 33 63  1  0  0  0  0
 33 67  1  0  0  0  0
 34 35  2  0  0  0  0
 34 58  1  0  0  0  0
 35 80  1  0  0  0  0
 36 68  1  0  0  0  0
 36 74  2  0  0  0  0
 37 51  1  0  0  0  0
 37 71  1  0  0  0  0
 37 75  2  0  0  0  0
 38 59  1  0  0  0  0
 38 64  1  0  0  0  0
 38 76  2  0  0  0  0
 39 60  1  0  0  0  0
 39 72  1  0  0  0  0
 39 77  2  0  0  0  0
 40 65  1  0  0  0  0
 40 69  1  0  0  0  0
 40 78  2  0  0  0  0
 41 44  1  0  0  0  0
 42 51  1  0  0  0  0
 43 64  1  0  0  0  0
 44 46  1  0  0  0  0
 45 47  1  0  0  0  0
 45 48  1  0  0  0  0
 46 50  1  0  0  0  0
 47 52  1  0  0  0  0
 48 65  1  0  0  0  0
 49 52  1  0  0  0  0
 49 65  1  0  0  0  0
 50 71  1  0  0  0  0
 51 64  1  0  0  0  0
 52 63  1  0  0  0  0
 53 60  1  0  0  0  0
 54 61  1  0  0  0  0
 55 61  1  0  0  0  0
 56 61  1  0  0  0  0
 57 73  1  0  0  0  0
 58 70  1  0  0  0  0
 59 61  1  0  0  0  0
 59 72  1  0  0  0  0
 60 73  1  0  0  0  0
 62 63  1  0  0  0  0
M  CHG  1  73   1
M  ISO  4  35 101  40 100  69 100  80 101
M  END
> <Batch ID>
0113

> <Smiles>
CNC(C)C(=O)NC(C(=O)N1Cc2cc([101O:1][101CH:1]=CCNc3ccc(N)c([100NH:0][100C:0](=O)N4CCCC(n5nc(-c6ccc(Oc7ccc(F)cc7F)cc6)c(C(N)=O)c5N)C4)c3F)ccc2CC1C(=O)NC1CCCc2ccccc21)C(C)(C)C

> <Shape>
0.288

> <Color>
0.118

> <Negative vol penalty>
0.000

$$$$

  -OEChem-04052301343D

 91 99  0     1  0  0  0  0  0999 V2000
  -15.7849  -26.5232   23.5091 C   0  0  0  0  0  0  0  0  0  0  0  0
  -17.0096  -25.9142   23.2547 C   0  0  0  0  0  0  0  0  0  0  0  0
  -22.9868   -9.9384   20.2205 C   0  0  0  0  0  0  0  0  0  0  0  0
  -23.6563  -10.2268   22.5239 C   0  0  0  0  0  0  0  0  0  0  0  0
  -15.7305  -27.8890   23.7837 C   0  0  0  0  0  0  0  0  0  0  0  0
  -18.1806  -26.6711   23.2736 C   0  0  0  0  0  0  0  0  0  0  0  0
  -21.9350  -24.3788   25.7826 C   0  0  0  0  0  0  0  0  0  0  0  0
  -22.1746   -8.8665   20.5908 C   0  0  0  0  0  0  0  0  0  0  0  0
  -22.8441   -9.1550   22.8942 C   0  0  0  0  0  0  0  0  0  0  0  0
  -22.6141  -23.3580   25.1189 C   0  0  0  0  0  0  0  0  0  0  0  0
  -19.1347   -8.4155   22.0008 C   0  0  0  0  0  0  0  0  0  0  0  0
  -17.8470   -8.3633   21.4673 C   0  0  0  0  0  0  0  0  0  0  0  0
  -32.0215  -18.5229   23.6809 C   0  0  0  0  0  0  0  0  0  0  0  0
  -30.0468  -17.5735   22.6630 C   0  0  0  0  0  0  0  0  0  0  0  0
  -32.2053  -16.5526   22.2948 C   0  0  0  0  0  0  0  0  0  0  0  0
  -24.3989  -24.8940   24.5952 C   0  0  0  0  0  0  0  0  0  0  0  0
  -18.3555   -6.2324   20.4485 C   0  0  0  0  0  0  0  0  0  0  0  0
  -23.7277  -10.6185   21.1871 C   0  0  0  0  0  0  0  0  0  0  0  0
  -30.6438  -18.5467   23.4643 C   0  0  0  0  0  0  0  0  0  0  0  0
  -32.8023  -17.5259   23.0961 C   0  0  0  0  0  0  0  0  0  0  0  0
  -24.2052  -13.0843   20.7404 C   0  0  0  0  0  0  0  0  0  0  0  0
  -16.9025  -28.6612   23.8155 C   0  0  0  0  0  0  0  0  0  0  0  0
  -22.4785  -25.6698   25.8483 C   0  0  0  0  0  0  0  0  0  0  0  0
  -18.1417  -28.0488   23.5476 C   0  0  0  0  0  0  0  0  0  0  0  0
  -23.7259  -25.9288   25.2626 C   0  0  0  0  0  0  0  0  0  0  0  0
  -30.8276  -16.5764   22.0782 C   0  0  0  0  0  0  0  0  0  0  0  0
  -22.1033   -8.4748   21.9276 C   0  0  0  0  0  0  0  0  0  0  0  0
  -23.8449  -23.6162   24.5226 C   0  0  0  0  0  0  0  0  0  0  0  0
  -20.0329   -7.3762   21.7582 C   0  0  0  0  0  0  0  0  0  0  0  0
  -17.4574   -7.2718   20.6911 C   0  0  0  0  0  0  0  0  0  0  0  0
  -19.6433   -6.2846   20.9821 C   0  0  0  0  0  0  0  0  0  0  0  0
  -24.5673  -11.7254   20.8051 C   0  0  0  0  0  0  0  0  0  0  0  0
  -25.3483  -13.7250   20.3288 C   0  0  0  0  0  0  0  0  0  0  0  0
  -29.8188  -19.5996   24.0825 C   0  0  0  0  0  0  0  0  0  0  0  0
  -28.5963  -19.9537   23.6601 C   0  0  0  0  0  0  0  0  0  0  0  0
  -26.5177  -21.3245   23.7836 C   0  0  0  0  0  0  0  0  0  0  0  0
  -25.7537  -22.2793   24.3234 C   0  0  0  0  0  0  0  0  0  1  0  0
  -34.2388  -17.5005   23.3223 C   0  0  0  0  0  0  0  0  0  0  0  0
  -22.9480  -13.7113   21.0268 C   0  0  0  0  0  0  0  0  0  0  0  0
  -27.8576  -21.0402   24.3603 C   0  0  0  0  0  0  0  0  0  0  0  0
  -35.6342  -15.6481   23.4399 C   0  0  0  0  0  0  0  0  0  0  0  0
  -36.3546  -14.5570   22.6950 C   0  0  0  0  0  0  0  0  0  0  0  0
  -21.5763  -28.5386   24.8190 C   0  0  0  0  0  0  0  0  0  0  0  0
  -24.1795  -29.5246   26.4844 C   0  0  0  0  0  0  0  0  0  0  0  0
  -27.2285  -28.7610   27.8138 C   0  0  0  0  0  0  0  0  0  0  0  0
  -30.8506  -14.5302   20.6089 C   0  0  0  0  0  0  0  0  0  0  0  0
  -16.7886  -30.1433   24.0704 C   0  0  0  0  0  0  0  0  0  0  0  0
  -21.7460  -26.7533   26.5911 C   0  0  0  0  0  0  0  0  0  0  0  0
  -24.3621  -27.2927   25.3223 C   0  0  0  0  0  0  0  0  0  0  0  0
  -18.1153  -30.8013   24.4408 C   0  0  0  0  0  0  0  0  0  0  0  0
  -29.7047  -11.8667   18.5426 C   0  0  0  0  0  0  0  0  0  0  0  0
  -19.2199  -30.3467   23.4922 C   0  0  0  0  0  0  0  0  0  0  0  0
  -28.2362  -11.7043   18.9417 C   0  0  0  0  0  0  0  0  0  0  0  0
  -30.5831  -12.2166   19.7425 C   0  0  0  0  0  0  0  0  0  0  0  0
  -28.6643  -13.2125   20.9239 C   0  0  0  0  0  0  0  0  0  0  0  0
  -19.4365  -28.8313   23.5836 C   0  0  1  0  0  0  0  0  0  0  0  0
  -22.1521  -28.1572   26.1535 C   0  0  1  0  0  0  0  0  0  0  0  0
  -27.7303  -12.9235   19.7374 C   0  0  2  0  0  0  0  0  0  0  0  0
  -35.7384  -15.6339   24.9379 C   0  0  0  0  0  0  0  0  0  0  0  0
  -37.8392  -14.4755   22.8789 C   0  0  0  0  0  0  0  0  0  0  0  0
  -29.1353  -29.7836   29.0849 C   0  0  0  0  0  0  0  0  0  0  0  0
  -25.1206  -30.9244   23.9418 C   0  0  0  0  0  0  0  0  0  0  0  0
  -27.3991  -31.0991   24.9647 C   0  0  0  0  0  0  0  0  0  0  0  0
  -25.4593  -32.2385   26.0425 C   0  0  0  0  0  0  0  0  0  0  0  0
  -26.8699  -26.8939   30.0819 C   0  0  0  0  0  0  0  0  0  0  0  0
  -25.6420  -29.7198   26.1652 C   0  0  1  0  0  0  0  0  0  0  0  0
  -27.8230  -29.0217   29.1860 C   0  0  2  0  0  0  0  0  0  0  0  0
  -25.8926  -30.9701   25.2756 C   0  0  0  0  0  0  0  0  0  0  0  0
  -25.8407  -11.5142   20.4619 N   0  0  0  0  0  0  0  0  0  0  0  0
  -34.9606  -16.4806   22.7110 N   0  0  0  0  0  0  0  0  0  0  0  0
  -26.2888  -12.7489   20.1775 N   0  0  0  0  0  0  0  0  0  0  0  0
  -23.6039  -28.3206   26.0545 N   0  0  0  0  0  0  0  0  0  0  0  0
  -30.0450  -13.3835   20.4451 N   0  0  0  0  0  0  0  0  0  0  0  0
  -25.6305  -15.0224   20.0850 N   0  0  0  0  0  0  0  0  0  0  0  0
  -21.8777  -12.9054   21.4381 N   0  0  0  0  0  0  0  0  0  0  0  0
  -30.2211  -15.5884   21.2635 N   0  0  0  0  0  0  0  0  0  0  0  0
  -20.1959  -28.4999   24.7701 N   0  0  0  0  0  0  0  0  0  0  0  0
  -26.3392  -29.7486   27.4464 N   0  0  0  0  0  0  0  0  0  0  0  0
  -28.0798  -27.7349   29.8924 N   0  3  0  0  0  0  0  0  0  0  0  0
  -34.7840  -18.3387   24.0643 O   0  0  0  0  0  0  0  0  0  0  0  0
  -22.7743  -14.9477   20.9054 O   0  0  0  0  0  0  0  0  0  0  0  0
  -28.3105  -21.6450   25.3242 O   0  0  0  0  0  0  0  0  0  0  0  0
  -35.6953  -13.8074   21.9906 O   0  0  0  0  0  0  0  0  0  0  0  0
  -22.3287  -28.8466   23.9021 O   0  0  0  0  0  0  0  0  0  0  0  0
  -23.5720  -30.4048   27.0992 O   0  0  0  0  0  0  0  0  0  0  0  0
  -27.5262  -27.7812   27.1341 O   0  0  0  0  0  0  0  0  0  0  0  0
  -32.0043  -14.5802   20.1747 O   0  0  0  0  0  0  0  0  0  0  0  0
  -21.3107   -7.4291   22.2893 O   0  0  0  0  0  0  0  0  0  0  0  0
  -24.5095  -22.6218   23.8735 O   0  0  0  0  0  0  0  0  0  1  0  0
  -16.2203   -7.2210   20.1801 F   0  0  0  0  0  0  0  0  0  0  0  0
  -20.5013   -5.2826   20.7466 F   0  0  0  0  0  0  0  0  0  0  0  0
  1  2  1  0  0  0  0
  1  5  2  0  0  0  0
  2  6  2  0  0  0  0
  3  8  2  0  0  0  0
  3 18  1  0  0  0  0
  4  9  1  0  0  0  0
  4 18  2  0  0  0  0
  5 22  1  0  0  0  0
  6 24  1  0  0  0  0
  7 10  2  0  0  0  0
  7 23  1  0  0  0  0
  8 27  1  0  0  0  0
  9 27  2  0  0  0  0
 10 28  1  0  0  0  0
 11 12  2  0  0  0  0
 11 29  1  0  0  0  0
 12 30  1  0  0  0  0
 13 19  2  0  0  0  0
 13 20  1  0  0  0  0
 14 19  1  0  0  0  0
 14 26  2  0  0  0  0
 15 20  2  0  0  0  0
 15 26  1  0  0  0  0
 16 25  1  0  0  0  0
 16 28  2  0  0  0  0
 17 30  2  0  0  0  0
 17 31  1  0  0  0  0
 18 32  1  0  0  0  0
 19 34  1  0  0  0  0
 20 38  1  0  0  0  0
 21 32  1  0  0  0  0
 21 33  2  0  0  0  0
 21 39  1  0  0  0  0
 22 24  2  0  0  0  0
 22 47  1  0  0  0  0
 23 25  2  0  0  0  0
 23 48  1  0  0  0  0
 24 56  1  0  0  0  0
 25 49  1  0  0  0  0
 26 76  1  0  0  0  0
 27 88  1  0  0  0  0
 28 89  1  0  0  0  0
 29 31  2  0  0  0  0
 29 88  1  0  0  0  0
 30 90  1  0  0  0  0
 31 91  1  0  0  0  0
 32 69  2  0  0  0  0
 33 71  1  0  0  0  0
 33 74  1  0  0  0  0
 34 35  2  0  0  0  0
 35 40  1  0  0  0  0
 36 37  2  0  0  0  0
 36 40  1  0  0  0  0
 37 89  1  0  0  0  0
 38 70  1  0  0  0  0
 38 80  2  0  0  0  0
 39 75  1  0  0  0  0
 39 81  2  0  0  0  0
 40 82  2  0  0  0  0
 41 42  1  0  0  0  0
 41 59  1  0  0  0  0
 41 70  2  0  0  0  0
 42 60  1  0  0  0  0
 42 83  2  0  0  0  0
 43 57  1  0  0  0  0
 43 77  1  0  0  0  0
 43 84  2  0  0  0  0
 44 66  1  0  0  0  0
 44 72  1  0  0  0  0
 44 85  2  0  0  0  0
 45 67  1  0  0  0  0
 45 78  1  0  0  0  0
 45 86  2  0  0  0  0
 46 73  1  0  0  0  0
 46 76  1  0  0  0  0
 46 87  2  0  0  0  0
 47 50  1  0  0  0  0
 48 57  1  0  0  0  0
 49 72  1  0  0  0  0
 50 52  1  0  0  0  0
 51 53  1  0  0  0  0
 51 54  1  0  0  0  0
 52 56  1  0  0  0  0
 53 58  1  0  0  0  0
 54 73  1  0  0  0  0
 55 58  1  0  0  0  0
 55 73  1  0  0  0  0
 56 77  1  0  0  0  0
 57 72  1  0  0  0  0
 58 71  1  0  0  0  0
 61 67  1  0  0  0  0
 62 68  1  0  0  0  0
 63 68  1  0  0  0  0
 64 68  1  0  0  0  0
 65 79  1  0  0  0  0
 66 68  1  0  0  0  0
 66 78  1  0  0  0  0
 67 79  1  0  0  0  0
 69 71  1  0  0  0  0
M  CHG  1  79   1
M  ISO  4  37 101  46 100  76 100  89 101
M  END
> <Batch ID>
0113

> <Smiles>
CNC(C)C(=O)NC(C(=O)N1Cc2cc([101O:1][101CH:1]=CC(=O)C=Cc3cc([100NH:0][100C:0](=O)N4CCCC(n5nc(-c6ccc(Oc7ccc(F)cc7F)cc6)c(C(N)=O)c5N)C4)cc(C(=O)N=C(C)C(C)=O)c3)ccc2CC1C(=O)NC1CCCc2ccccc21)C(C)(C)C

> <Shape>
0.236

> <Color>
0.192

> <Negative vol penalty>
0.000

$$$$

  -OEChem-04052301343D

 87 95  0     1  0  0  0  0  0999 V2000
  -29.7082  -25.3185   17.3860 C   0  0  0  0  0  0  0  0  0  0  0  0
  -28.3283  -25.4860   17.4424 C   0  0  0  0  0  0  0  0  0  0  0  0
  -25.6228  -14.6958   21.8256 C   0  0  0  0  0  0  0  0  0  0  0  0
  -27.9627  -14.1684   21.5356 C   0  0  0  0  0  0  0  0  0  0  0  0
  -30.4979  -25.6764   18.4778 C   0  0  0  0  0  0  0  0  0  0  0  0
  -27.7372  -26.0104   18.5913 C   0  0  0  0  0  0  0  0  0  0  0  0
  -22.8130  -29.6411   18.8685 C   0  0  0  0  0  0  0  0  0  0  0  0
  -25.2789  -13.4280   21.3565 C   0  0  0  0  0  0  0  0  0  0  0  0
  -27.6188  -12.9006   21.0665 C   0  0  0  0  0  0  0  0  0  0  0  0
  -21.4686  -29.3800   19.1298 C   0  0  0  0  0  0  0  0  0  0  0  0
  -23.7727  -10.4582   19.8953 C   0  0  0  0  0  0  0  0  0  0  0  0
  -22.7354  -10.3678   18.9672 C   0  0  0  0  0  0  0  0  0  0  0  0
  -21.9081  -24.1158   21.2969 C   0  0  0  0  0  0  0  0  0  0  0  0
  -21.8097  -29.9715   21.4435 C   0  0  0  0  0  0  0  0  0  0  0  0
  -24.2745  -24.9701   22.5023 C   0  0  0  0  0  0  0  0  0  0  0  0
  -23.9776  -11.7711   17.4424 C   0  0  0  0  0  0  0  0  0  0  0  0
  -26.9647  -15.0660   21.9151 C   0  0  0  0  0  0  0  0  0  0  0  0
  -23.0647  -23.3438   21.1876 C   0  0  0  0  0  0  0  0  0  0  0  0
  -27.5705  -16.7500   23.7330 C   0  0  0  0  0  0  0  0  0  0  0  0
  -29.9172  -26.2146   19.6370 C   0  0  0  0  0  0  0  0  0  0  0  0
  -23.6698  -30.0596   19.8967 C   0  0  0  0  0  0  0  0  0  0  0  0
  -28.5197  -26.3747   19.7002 C   0  0  0  0  0  0  0  0  0  0  0  0
  -23.1640  -30.2397   21.1921 C   0  0  0  0  0  0  0  0  0  0  0  0
  -21.9348  -25.3150   22.0089 C   0  0  0  0  0  0  0  0  0  0  0  0
  -24.2479  -23.7709   21.7903 C   0  0  0  0  0  0  0  0  0  0  0  0
  -26.2769  -12.5304   20.9769 C   0  0  0  0  0  0  0  0  0  0  0  0
  -20.9675  -29.5424   20.4180 C   0  0  0  0  0  0  0  0  0  0  0  0
  -24.9124  -11.2051   19.5971 C   0  0  0  0  0  0  0  0  0  0  0  0
  -22.8379  -11.0243   17.7407 C   0  0  0  0  0  0  0  0  0  0  0  0
  -23.1180  -25.7422   22.6115 C   0  0  0  0  0  0  0  0  0  0  0  0
  -25.0149  -11.8615   18.3706 C   0  0  0  0  0  0  0  0  0  0  0  0
  -27.3206  -16.3756   22.3991 C   0  0  0  0  0  0  0  0  0  0  0  0
  -27.8648  -18.0899   23.6641 C   0  0  0  0  0  0  0  0  0  0  0  0
  -22.7025  -22.0346   19.1455 C   0  0  0  0  0  0  0  0  0  0  0  0
  -22.9990  -22.0969   20.4343 C   0  0  0  0  0  0  0  0  0  0  0  0
  -27.5395  -15.9576   24.9274 C   0  0  0  0  0  0  0  0  0  0  0  0
  -26.2893  -28.8770   21.2545 C   0  0  0  0  0  0  0  0  0  0  0  0
  -26.2954  -31.7225   22.8120 C   0  0  0  0  0  0  0  0  0  0  0  0
  -19.5055  -25.8231   21.5808 C   0  0  0  0  0  0  0  0  0  0  0  0
  -24.5250  -34.4182   23.9280 C   0  0  0  0  0  0  0  0  0  0  0  0
  -26.0461  -22.6985   20.4444 C   0  0  0  0  0  0  0  0  0  0  0  0
  -30.8070  -26.5426   20.8097 C   0  0  0  0  0  0  0  0  0  0  0  0
  -25.1113  -30.3628   19.5929 C   0  0  0  0  0  0  0  0  0  0  0  0
  -24.0376  -30.7064   22.3267 C   0  0  0  0  0  0  0  0  0  0  0  0
  -30.1398  -27.4407   21.8482 C   0  0  0  0  0  0  0  0  0  0  0  0
  -29.3835  -21.1617   20.1122 C   0  0  0  0  0  0  0  0  0  0  0  0
  -28.7357  -26.9367   22.1666 C   0  0  0  0  0  0  0  0  0  0  0  0
  -29.1862  -19.7811   20.7360 C   0  0  0  0  0  0  0  0  0  0  0  0
  -28.0961  -21.6902   19.4865 C   0  0  0  0  0  0  0  0  0  0  0  0
  -26.7397  -20.3306   21.0492 C   0  0  0  0  0  0  0  0  0  0  0  0
  -27.8439  -26.9635   20.9194 C   0  0  1  0  0  0  0  0  0  0  0  0
  -26.0097  -30.2891   20.8237 C   0  0  1  0  0  0  0  0  0  0  0  0
  -28.0084  -19.7895   21.7257 C   0  0  1  0  0  0  0  0  0  0  0  0
  -24.7968  -36.5633   25.2017 C   0  0  0  0  0  0  0  0  0  0  0  0
  -26.4403  -30.1507   25.4233 C   0  0  0  0  0  0  0  0  0  0  0  0
  -25.7578  -32.2334   26.6336 C   0  0  0  0  0  0  0  0  0  0  0  0
  -27.8946  -32.1839   25.3473 C   0  0  0  0  0  0  0  0  0  0  0  0
  -26.2156  -22.7207   22.9224 C   0  0  0  0  0  0  0  0  0  0  0  0
  -23.6436  -36.0392   21.6140 C   0  0  0  0  0  0  0  0  0  0  0  0
  -18.5205  -26.9285   21.9352 C   0  0  0  0  0  0  0  0  0  0  0  0
  -17.9378  -27.6130   20.7036 C   0  0  0  0  0  0  0  0  0  0  0  0
  -19.0175  -28.2939   19.8751 C   0  0  0  0  0  0  0  0  0  1  0  0
  -25.6970  -32.2384   24.0984 C   0  0  1  0  0  0  0  0  0  0  0  0
  -24.7913  -35.9094   23.8287 C   0  0  2  0  0  0  0  0  0  0  0  0
  -26.4311  -31.6909   25.3549 C   0  0  0  0  0  0  0  0  0  0  0  0
  -27.4451  -17.3953   21.5454 N   0  0  0  0  0  0  0  0  0  0  0  0
  -27.7764  -18.4236   22.3447 N   0  0  0  0  0  0  0  0  0  0  0  0
  -25.4414  -30.9839   21.9807 N   0  0  0  0  0  0  0  0  0  0  0  0
  -26.9820  -21.6448   20.4343 N   0  0  0  0  0  0  0  0  0  0  0  0
  -28.1880  -19.0033   24.6042 N   0  0  0  0  0  0  0  0  0  0  0  0
  -27.2187  -14.5976   24.8188 N   0  0  0  0  0  0  0  0  0  0  0  0
  -20.7605  -26.0975   22.1171 N   0  0  0  0  0  0  0  0  0  0  0  0
  -27.3950  -28.3123   20.6480 N   0  0  0  0  0  0  0  0  0  0  0  0
  -25.6962  -33.6935   23.9935 N   0  0  0  0  0  0  0  0  0  0  0  0
  -25.4613  -22.9941   21.6948 N   0  0  0  0  0  0  0  0  0  0  0  0
  -23.7437  -36.5685   22.9985 N   0  3  0  0  0  0  0  0  0  0  0  0
  -27.7727  -16.4448   26.0596 O   0  0  0  0  0  0  0  0  0  0  0  0
  -25.5569  -28.3402   22.0774 O   0  0  0  0  0  0  0  0  0  0  0  0
  -27.4749  -31.9719   22.5510 O   0  0  0  0  0  0  0  0  0  0  0  0
  -19.1782  -24.8493   20.9109 O   0  0  0  0  0  0  0  0  0  0  0  0
  -23.3913  -33.9440   23.9494 O   0  0  0  0  0  0  0  0  0  0  0  0
  -25.7777  -23.3426   19.4233 O   0  0  0  0  0  0  0  0  0  0  0  0
  -25.9416  -11.2932   20.5193 O   0  0  0  0  0  0  0  0  0  0  0  0
  -19.6558  -29.2877   20.6760 O   0  0  0  0  0  0  0  0  0  1  0  0
  -21.8424  -10.9362   16.8488 F   0  0  0  0  0  0  0  0  0  0  0  0
  -23.1556  -26.8932   23.2979 F   0  0  0  0  0  0  0  0  0  0  0  0
  -26.1078  -12.5795   18.0780 F   0  0  0  0  0  0  0  0  0  0  0  0
  1  2  1  0  0  0  0
  1  5  2  0  0  0  0
  2  6  2  0  0  0  0
  3  8  2  0  0  0  0
  3 17  1  0  0  0  0
  4  9  1  0  0  0  0
  4 17  2  0  0  0  0
  5 20  1  0  0  0  0
  6 22  1  0  0  0  0
  7 10  2  0  0  0  0
  7 21  1  0  0  0  0
  8 26  1  0  0  0  0
  9 26  2  0  0  0  0
 10 27  1  0  0  0  0
 11 12  2  0  0  0  0
 11 28  1  0  0  0  0
 12 29  1  0  0  0  0
 13 18  1  0  0  0  0
 13 24  2  0  0  0  0
 14 23  1  0  0  0  0
 14 27  2  0  0  0  0
 15 25  1  0  0  0  0
 15 30  2  0  0  0  0
 16 29  2  0  0  0  0
 16 31  1  0  0  0  0
 17 32  1  0  0  0  0
 18 25  2  0  0  0  0
 18 35  1  0  0  0  0
 19 32  1  0  0  0  0
 19 33  2  0  0  0  0
 19 36  1  0  0  0  0
 20 22  2  0  0  0  0
 20 42  1  0  0  0  0
 21 23  2  0  0  0  0
 21 43  1  0  0  0  0
 22 51  1  0  0  0  0
 23 44  1  0  0  0  0
 24 30  1  0  0  0  0
 24 72  1  0  0  0  0
 25 75  1  0  0  0  0
 26 83  1  0  0  0  0
 27 84  1  0  0  0  0
 28 31  2  0  0  0  0
 28 83  1  0  0  0  0
 29 85  1  0  0  0  0
 30 86  1  0  0  0  0
 31 87  1  0  0  0  0
 32 66  2  0  0  0  0
 33 67  1  0  0  0  0
 33 70  1  0  0  0  0
 34 35  2  0  0  0  0
 36 71  1  0  0  0  0
 36 77  2  0  0  0  0
 37 52  1  0  0  0  0
 37 73  1  0  0  0  0
 37 78  2  0  0  0  0
 38 63  1  0  0  0  0
 38 68  1  0  0  0  0
 38 79  2  0  0  0  0
 39 60  1  0  0  0  0
 39 72  1  0  0  0  0
 39 80  2  0  0  0  0
 40 64  1  0  0  0  0
 40 74  1  0  0  0  0
 40 81  2  0  0  0  0
 41 69  1  0  0  0  0
 41 75  1  0  0  0  0
 41 82  2  0  0  0  0
 42 45  1  0  0  0  0
 43 52  1  0  0  0  0
 44 68  1  0  0  0  0
 45 47  1  0  0  0  0
 46 48  1  0  0  0  0
 46 49  1  0  0  0  0
 47 51  1  0  0  0  0
 48 53  1  0  0  0  0
 49 69  1  0  0  0  0
 50 53  1  0  0  0  0
 50 69  1  0  0  0  0
 51 73  1  0  0  0  0
 52 68  1  0  0  0  0
 53 67  1  0  0  0  0
 54 64  1  0  0  0  0
 55 65  1  0  0  0  0
 56 65  1  0  0  0  0
 57 65  1  0  0  0  0
 58 75  1  0  0  0  0
 59 76  1  0  0  0  0
 60 61  1  0  0  0  0
 61 62  1  0  0  0  0
 62 84  1  0  0  0  0
 63 65  1  0  0  0  0
 63 74  1  0  0  0  0
 64 76  1  0  0  0  0
 66 67  1  0  0  0  0
M  CHG  1  76   1
M  ISO  4  41 100  62 101  75 100  84 101
M  END
> <Batch ID>
0113

> <Smiles>
C=Cc1cc(NC(=O)CC[101CH2:1][101O:1]c2ccc3c(c2)CN(C(=O)C(NC(=O)C(C)NC)C(C)(C)C)C(C(=O)NC2CCCc4ccccc42)C3)c(F)cc1[100N:0](C)[100C:0](=O)N1CCCC(n2nc(-c3ccc(Oc4ccc(F)cc4F)cc3)c(C(N)=O)c2N)C1

> <Shape>
0.291

> <Color>
0.069

> <Negative vol penalty>
0.000

$$$$

  -OEChem-04052301343D

 83 91  0     1  0  0  0  0  0999 V2000
  -27.4880  -33.3140   25.7559 C   0  0  0  0  0  0  0  0  0  0  0  0
  -28.0506  -32.0491   25.6186 C   0  0  0  0  0  0  0  0  0  0  0  0
  -23.0422   -9.8551   19.9732 C   0  0  0  0  0  0  0  0  0  0  0  0
  -23.7536   -9.9323   22.2808 C   0  0  0  0  0  0  0  0  0  0  0  0
  -26.2397  -33.5849   25.1971 C   0  0  0  0  0  0  0  0  0  0  0  0
  -27.3647  -31.0539   24.9233 C   0  0  0  0  0  0  0  0  0  0  0  0
  -29.8045  -26.6531   21.4324 C   0  0  0  0  0  0  0  0  0  0  0  0
  -22.2945   -8.7087   20.2420 C   0  0  0  0  0  0  0  0  0  0  0  0
  -23.0059   -8.7859   22.5497 C   0  0  0  0  0  0  0  0  0  0  0  0
  -30.0991  -25.3134   21.6817 C   0  0  0  0  0  0  0  0  0  0  0  0
  -23.3123   -5.4492   22.0987 C   0  0  0  0  0  0  0  0  0  0  0  0
  -23.9137   -4.4470   22.8599 C   0  0  0  0  0  0  0  0  0  0  0  0
  -27.9915  -24.6732   20.6980 C   0  0  0  0  0  0  0  0  0  0  0  0
  -22.1766   -4.6688   24.5243 C   0  0  0  0  0  0  0  0  0  0  0  0
  -23.7718  -10.4670   20.9926 C   0  0  0  0  0  0  0  0  0  0  0  0
  -31.8913  -16.8934   22.7434 C   0  0  0  0  0  0  0  0  0  0  0  0
  -24.1131  -12.9880   20.8039 C   0  0  0  0  0  0  0  0  0  0  0  0
  -25.5424  -32.5953   24.4863 C   0  0  0  0  0  0  0  0  0  0  0  0
  -28.5943  -27.0143   20.8229 C   0  0  0  0  0  0  0  0  0  0  0  0
  -26.1053  -31.3113   24.3556 C   0  0  0  0  0  0  0  0  0  0  0  0
  -27.6851  -26.0180   20.4398 C   0  0  0  0  0  0  0  0  0  0  0  0
  -32.0037  -17.9419   23.7015 C   0  0  0  0  0  0  0  0  0  0  0  0
  -22.2764   -8.1741   21.5303 C   0  0  0  0  0  0  0  0  0  0  0  0
  -29.1913  -24.3234   21.3171 C   0  0  0  0  0  0  0  0  0  0  0  0
  -22.1430   -6.0613   22.5503 C   0  0  0  0  0  0  0  0  0  0  0  0
  -23.3459   -4.0568   24.0727 C   0  0  0  0  0  0  0  0  0  0  0  0
  -21.5752   -5.6710   23.7631 C   0  0  0  0  0  0  0  0  0  0  0  0
  -24.5447  -11.6509   20.7154 C   0  0  0  0  0  0  0  0  0  0  0  0
  -30.7769  -18.4729   24.0339 C   0  0  0  0  0  0  0  0  0  0  0  0
  -25.2118  -13.7281   20.4413 C   0  0  0  0  0  0  0  0  0  0  0  0
  -30.5826  -16.6626   22.3801 C   0  0  0  0  0  0  0  0  0  0  0  0
  -34.0220  -16.6915   21.5457 C   0  0  0  0  0  0  0  0  0  0  0  0
  -32.9792  -16.1568   22.2082 C   0  0  0  0  0  0  0  0  0  0  0  0
  -22.8335  -13.5139   21.1803 C   0  0  0  0  0  0  0  0  0  0  0  0
  -26.0794  -28.7555   21.6873 C   0  0  0  0  0  0  0  0  0  0  0  0
  -25.1585  -28.2392   18.6201 C   0  0  0  0  0  0  0  0  0  0  0  0
  -25.3596  -26.2941   15.8231 C   0  0  0  0  0  0  0  0  0  0  0  0
  -30.6720  -14.7882   20.6995 C   0  0  0  0  0  0  0  0  0  0  0  0
  -24.1747  -32.9212   23.9405 C   0  0  0  0  0  0  0  0  0  0  0  0
  -28.3034  -28.4620   20.5367 C   0  0  0  0  0  0  0  0  0  0  0  0
  -26.3810  -26.3519   19.7642 C   0  0  0  0  0  0  0  0  0  0  0  0
  -23.6809  -31.9215   22.8979 C   0  0  0  0  0  0  0  0  0  0  0  0
  -29.6104  -12.3025   18.3818 C   0  0  0  0  0  0  0  0  0  0  0  0
  -23.9099  -30.4920   23.3784 C   0  0  0  0  0  0  0  0  0  0  0  0
  -28.1624  -12.0214   18.7896 C   0  0  0  0  0  0  0  0  0  0  0  0
  -30.4997  -12.5688   19.5950 C   0  0  0  0  0  0  0  0  0  0  0  0
  -28.5633  -13.3310   20.9135 C   0  0  0  0  0  0  0  0  0  0  0  0
  -25.4032  -30.2127   23.5873 C   0  0  1  0  0  0  0  0  0  0  0  0
  -26.8141  -28.7518   20.3766 C   0  0  1  0  0  0  0  0  0  0  0  0
  -27.6157  -13.1208   19.7212 C   0  0  2  0  0  0  0  0  0  0  0  0
  -33.2877  -18.4148   24.2806 C   0  0  0  0  0  0  0  0  0  0  0  0
  -24.4633  -26.1047   13.4868 C   0  0  0  0  0  0  0  0  0  0  0  0
  -22.5129  -27.1924   19.7225 C   0  0  0  0  0  0  0  0  0  0  0  0
  -22.0676  -26.1629   17.4842 C   0  0  0  0  0  0  0  0  0  0  0  0
  -22.2984  -28.6380   17.6930 C   0  0  0  0  0  0  0  0  0  0  0  0
  -28.0610  -26.5511   14.6418 C   0  0  0  0  0  0  0  0  0  0  0  0
  -30.4558  -19.5865   24.9986 C   0  0  0  0  0  0  0  0  0  0  0  0
  -30.7669  -20.9854   24.4550 C   0  0  0  0  0  0  0  0  0  0  0  0
  -29.9321  -21.3496   23.2265 C   0  0  0  0  0  0  0  0  0  0  0  0
  -30.2963  -22.7280   22.6917 C   0  0  0  0  0  0  0  0  0  1  0  0
  -24.3517  -27.1789   17.9102 C   0  0  1  0  0  0  0  0  0  0  0  0
  -25.5806  -26.6484   14.3636 C   0  0  2  0  0  0  0  0  0  0  0  0
  -22.8313  -27.2866   18.2169 C   0  0  0  0  0  0  0  0  0  0  0  0
  -25.8182  -11.5448   20.3269 N   0  0  0  0  0  0  0  0  0  0  0  0
  -26.1963  -12.8246   20.1680 N   0  0  0  0  0  0  0  0  0  0  0  0
  -26.1394  -27.7820   19.5116 N   0  0  0  0  0  0  0  0  0  0  0  0
  -29.9213  -13.6245   20.4291 N   0  0  0  0  0  0  0  0  0  0  0  0
  -25.4222  -15.0572   20.3328 N   0  0  0  0  0  0  0  0  0  0  0  0
  -21.8158  -12.6134   21.5235 N   0  0  0  0  0  0  0  0  0  0  0  0
  -30.0065  -15.7362   21.4760 N   0  0  0  0  0  0  0  0  0  0  0  0
  -26.0575  -29.9855   22.3165 N   0  0  0  0  0  0  0  0  0  0  0  0
  -24.6851  -27.2920   16.4944 N   0  0  0  0  0  0  0  0  0  0  0  0
  -26.8728  -26.0823   13.8831 N   0  3  0  0  0  0  0  0  0  0  0  0
  -22.5947  -14.7452   21.1957 O   0  0  0  0  0  0  0  0  0  0  0  0
  -25.5689  -27.7194   22.0966 O   0  0  0  0  0  0  0  0  0  0  0  0
  -24.9317  -29.4290   18.3868 O   0  0  0  0  0  0  0  0  0  0  0  0
  -25.7433  -25.2363   16.3173 O   0  0  0  0  0  0  0  0  0  0  0  0
  -31.8105  -14.9448   20.2508 O   0  0  0  0  0  0  0  0  0  0  0  0
  -21.5467   -7.0555   21.7930 O   0  0  0  0  0  0  0  0  0  0  0  0
  -29.4760  -23.0150   21.5598 O   0  0  0  0  0  0  0  0  0  1  0  0
  -23.9227   -3.0933   24.8029 F   0  0  0  0  0  0  0  0  0  0  0  0
  -20.4513   -6.2545   24.2015 F   0  0  0  0  0  0  0  0  0  0  0  0
  -29.4965  -17.7079   23.1926 S   0  0  0  0  0  0  0  0  0  0  0  0
  1  2  1  0  0  0  0
  1  5  2  0  0  0  0
  2  6  2  0  0  0  0
  3  8  2  0  0  0  0
  3 15  1  0  0  0  0
  4  9  1  0  0  0  0
  4 15  2  0  0  0  0
  5 18  1  0  0  0  0
  6 20  1  0  0  0  0
  7 10  2  0  0  0  0
  7 19  1  0  0  0  0
  8 23  1  0  0  0  0
  9 23  2  0  0  0  0
 10 24  1  0  0  0  0
 11 12  2  0  0  0  0
 11 25  1  0  0  0  0
 12 26  1  0  0  0  0
 13 21  1  0  0  0  0
 13 24  2  0  0  0  0
 14 26  2  0  0  0  0
 14 27  1  0  0  0  0
 15 28  1  0  0  0  0
 16 22  1  0  0  0  0
 16 31  2  0  0  0  0
 16 33  1  0  0  0  0
 17 28  1  0  0  0  0
 17 30  2  0  0  0  0
 17 34  1  0  0  0  0
 18 20  2  0  0  0  0
 18 39  1  0  0  0  0
 19 21  2  0  0  0  0
 19 40  1  0  0  0  0
 20 48  1  0  0  0  0
 21 41  1  0  0  0  0
 22 29  2  0  0  0  0
 22 51  1  0  0  0  0
 23 79  1  0  0  0  0
 24 80  1  0  0  0  0
 25 27  2  0  0  0  0
 25 79  1  0  0  0  0
 26 81  1  0  0  0  0
 27 82  1  0  0  0  0
 28 64  2  0  0  0  0
 29 57  1  0  0  0  0
 29 83  1  0  0  0  0
 30 65  1  0  0  0  0
 30 68  1  0  0  0  0
 31 70  1  0  0  0  0
 31 83  1  0  0  0  0
 32 33  2  0  0  0  0
 34 69  1  0  0  0  0
 34 74  2  0  0  0  0
 35 49  1  0  0  0  0
 35 71  1  0  0  0  0
 35 75  2  0  0  0  0
 36 61  1  0  0  0  0
 36 66  1  0  0  0  0
 36 76  2  0  0  0  0
 37 62  1  0  0  0  0
 37 72  1  0  0  0  0
 37 77  2  0  0  0  0
 38 67  1  0  0  0  0
 38 70  1  0  0  0  0
 38 78  2  0  0  0  0
 39 42  1  0  0  0  0
 40 49  1  0  0  0  0
 41 66  1  0  0  0  0
 42 44  1  0  0  0  0
 43 45  1  0  0  0  0
 43 46  1  0  0  0  0
 44 48  1  0  0  0  0
 45 50  1  0  0  0  0
 46 67  1  0  0  0  0
 47 50  1  0  0  0  0
 47 67  1  0  0  0  0
 48 71  1  0  0  0  0
 49 66  1  0  0  0  0
 50 65  1  0  0  0  0
 52 62  1  0  0  0  0
 53 63  1  0  0  0  0
 54 63  1  0  0  0  0
 55 63  1  0  0  0  0
 56 73  1  0  0  0  0
 57 58  1  0  0  0  0
 58 59  1  0  0  0  0
 59 60  1  0  0  0  0
 60 80  1  0  0  0  0
 61 63  1  0  0  0  0
 61 72  1  0  0  0  0
 62 73  1  0  0  0  0
 64 65  1  0  0  0  0
M  CHG  1  73   1
M  ISO  4  38 100  60 101  70 100  80 101
M  END
> <Batch ID>
0113

> <Smiles>
C=Cc1c([100NH:0][100C:0](=O)N2CCCC(n3nc(-c4ccc(Oc5ccc(F)cc5F)cc4)c(C(N)=O)c3N)C2)sc(CCC[101CH2:1][101O:1]c2ccc3c(c2)CN(C(=O)C(NC(=O)C(C)NC)C(C)(C)C)C(C(=O)NC2CCCc4ccccc42)C3)c1C

> <Shape>
0.329

> <Color>
0.204

> <Negative vol penalty>
0.000

$$$$

  -OEChem-04052301343D

 79 86  0     1  0  0  0  0  0999 V2000
  -28.2080  -24.2952   17.6798 C   0  0  0  0  0  0  0  0  0  0  0  0
  -26.9714  -24.6282   18.2230 C   0  0  0  0  0  0  0  0  0  0  0  0
  -27.5716  -15.3897   22.9348 C   0  0  0  0  0  0  0  0  0  0  0  0
  -26.2248  -15.3144   20.9305 C   0  0  0  0  0  0  0  0  0  0  0  0
  -29.3790  -24.7516   18.2834 C   0  0  0  0  0  0  0  0  0  0  0  0
  -26.9050  -25.4170   19.3710 C   0  0  0  0  0  0  0  0  0  0  0  0
  -23.4035  -29.0592   19.0258 C   0  0  0  0  0  0  0  0  0  0  0  0
  -27.1953  -14.0810   23.2369 C   0  0  0  0  0  0  0  0  0  0  0  0
  -25.8484  -14.0057   21.2326 C   0  0  0  0  0  0  0  0  0  0  0  0
  -22.0741  -28.6843   19.2152 C   0  0  0  0  0  0  0  0  0  0  0  0
  -24.8188  -10.5193   21.2881 C   0  0  0  0  0  0  0  0  0  0  0  0
  -24.8413   -9.5824   20.2550 C   0  0  0  0  0  0  0  0  0  0  0  0
  -22.1718  -29.5053   21.4814 C   0  0  0  0  0  0  0  0  0  0  0  0
  -27.2065   -9.9719   19.9532 C   0  0  0  0  0  0  0  0  0  0  0  0
  -27.0863  -16.0065   21.7816 C   0  0  0  0  0  0  0  0  0  0  0  0
  -28.5844  -17.7700   20.7077 C   0  0  0  0  0  0  0  0  0  0  0  0
  -29.3267  -25.5544   19.4338 C   0  0  0  0  0  0  0  0  0  0  0  0
  -24.1316  -29.6510   20.0679 C   0  0  0  0  0  0  0  0  0  0  0  0
  -28.0764  -25.8834   19.9914 C   0  0  0  0  0  0  0  0  0  0  0  0
  -23.5095  -29.8891   21.3018 C   0  0  0  0  0  0  0  0  0  0  0  0
  -26.3337  -13.3890   22.3858 C   0  0  0  0  0  0  0  0  0  0  0  0
  -21.4589  -28.9048   20.4440 C   0  0  0  0  0  0  0  0  0  0  0  0
  -25.9902  -11.1826   21.6537 C   0  0  0  0  0  0  0  0  0  0  0  0
  -26.0351   -9.3087   19.5876 C   0  0  0  0  0  0  0  0  0  0  0  0
  -27.1840  -10.9088   20.9863 C   0  0  0  0  0  0  0  0  0  0  0  0
  -27.4743  -17.3585   21.4693 C   0  0  0  0  0  0  0  0  0  0  0  0
  -28.5098  -19.1415   20.7053 C   0  0  0  0  0  0  0  0  0  0  0  0
  -22.3248  -24.6845   20.8619 C   0  0  0  0  0  0  0  0  0  0  0  0
  -19.0187  -28.2142   22.7221 C   0  0  0  0  0  0  0  0  0  0  0  0
  -29.5928  -16.9829   20.0602 C   0  0  0  0  0  0  0  0  0  0  0  0
  -26.7367  -28.8666   21.7116 C   0  0  0  0  0  0  0  0  0  0  0  0
  -20.2186  -25.4482   20.4072 C   0  0  0  0  0  0  0  0  0  0  0  0
  -23.8691  -22.7889   21.3658 C   0  0  0  0  0  0  0  0  0  0  0  0
  -26.3449  -31.8212   22.9918 C   0  0  0  0  0  0  0  0  0  0  0  0
  -24.2400  -34.4062   23.7225 C   0  0  0  0  0  0  0  0  0  0  0  0
  -30.6206  -25.9847   20.0782 C   0  0  0  0  0  0  0  0  0  0  0  0
  -25.5568  -30.0739   19.8391 C   0  0  0  0  0  0  0  0  0  0  0  0
  -24.2412  -30.5396   22.4463 C   0  0  0  0  0  0  0  0  0  0  0  0
  -30.4533  -27.1272   21.0768 C   0  0  0  0  0  0  0  0  0  0  0  0
  -26.9370  -22.8184   23.3187 C   0  0  0  0  0  0  0  0  0  0  0  0
  -29.2758  -26.8547   22.0073 C   0  0  0  0  0  0  0  0  0  0  0  0
  -27.5084  -21.4349   23.0113 C   0  0  0  0  0  0  0  0  0  0  0  0
  -25.4122  -22.7938   23.3858 C   0  0  0  0  0  0  0  0  0  0  0  0
  -25.3340  -20.8547   21.8501 C   0  0  0  0  0  0  0  0  0  0  0  0
  -27.9626  -26.7576   21.2215 C   0  0  1  0  0  0  0  0  0  0  0  0
  -26.3575  -30.1998   21.1316 C   0  0  1  0  0  0  0  0  0  0  0  0
  -26.8681  -20.8426   21.7437 C   0  0  2  0  0  0  0  0  0  0  0  0
  -24.2018  -36.6698   24.8053 C   0  0  0  0  0  0  0  0  0  0  0  0
  -26.4328  -30.5042   25.7427 C   0  0  0  0  0  0  0  0  0  0  0  0
  -25.4589  -32.6020   26.7012 C   0  0  0  0  0  0  0  0  0  0  0  0
  -27.6858  -32.6623   25.5788 C   0  0  0  0  0  0  0  0  0  0  0  0
  -23.3930  -35.7218   21.2104 C   0  0  0  0  0  0  0  0  0  0  0  0
  -23.3776  -24.1506   21.7878 C   0  0  0  0  0  0  0  0  0  0  0  0
  -19.2047  -26.3698   21.0594 C   0  0  0  0  0  0  0  0  0  0  0  0
  -19.8975  -27.5873   21.6615 C   0  0  1  0  0  0  0  0  0  1  0  0
  -25.5994  -32.3818   24.1788 C   0  0  1  0  0  0  0  0  0  0  0  0
  -24.3684  -35.9028   23.5027 C   0  0  2  0  0  0  0  0  0  0  0  0
  -26.2807  -32.0235   25.5296 C   0  0  0  0  0  0  0  0  0  0  0  0
  -26.7478  -18.3855   21.9183 N   0  0  0  0  0  0  0  0  0  0  0  0
  -21.1425  -24.9555   21.3042 N   0  0  0  0  0  0  0  0  0  0  0  0
  -27.4028  -19.4558   21.4374 N   0  0  0  0  0  0  0  0  0  0  0  0
  -25.6348  -30.9295   22.1754 N   0  0  0  0  0  0  0  0  0  0  0  0
  -24.8421  -22.1974   22.1719 N   0  0  0  0  0  0  0  0  0  0  0  0
  -29.2838  -20.0971   20.1484 N   0  0  0  0  0  0  0  0  0  0  0  0
  -29.5192  -15.5871   20.1630 N   0  0  0  0  0  0  0  0  0  0  0  0
  -27.4894  -28.0774   20.8629 N   0  0  0  0  0  0  0  0  0  0  0  0
  -25.4667  -33.8146   23.9380 N   0  0  0  0  0  0  0  0  0  0  0  0
  -23.3314  -36.3761   22.5427 N   0  3  0  0  0  0  0  0  0  0  0  0
  -18.5775  -29.3576   22.6639 O   0  0  0  0  0  0  0  0  0  0  0  0
  -30.5405  -17.5025   19.4235 O   0  0  0  0  0  0  0  0  0  0  0  0
  -26.3746  -28.5760   22.8457 O   0  0  0  0  0  0  0  0  0  0  0  0
  -20.1526  -25.1974   19.2046 O   0  0  0  0  0  0  0  0  0  0  0  0
  -23.4031  -22.2694   20.3484 O   0  0  0  0  0  0  0  0  0  0  0  0
  -27.5119  -32.1675   22.7921 O   0  0  0  0  0  0  0  0  0  0  0  0
  -23.1592  -33.8212   23.7085 O   0  0  0  0  0  0  0  0  0  0  0  0
  -25.9665  -12.1119   22.6801 O   0  0  0  0  0  0  0  0  0  0  0  0
  -20.1616  -28.5393   20.6318 O   0  0  0  0  0  0  0  0  0  1  0  0
  -26.0568   -8.4078   18.5965 F   0  0  0  0  0  0  0  0  0  0  0  0
  -28.3128  -11.5420   21.3339 F   0  0  0  0  0  0  0  0  0  0  0  0
  1  2  1  0  0  0  0
  1  5  2  0  0  0  0
  2  6  2  0  0  0  0
  3  8  2  0  0  0  0
  3 15  1  0  0  0  0
  4  9  1  0  0  0  0
  4 15  2  0  0  0  0
  5 17  1  0  0  0  0
  6 19  1  0  0  0  0
  7 10  2  0  0  0  0
  7 18  1  0  0  0  0
  8 21  1  0  0  0  0
  9 21  2  0  0  0  0
 10 22  1  0  0  0  0
 11 12  2  0  0  0  0
 11 23  1  0  0  0  0
 12 24  1  0  0  0  0
 13 20  1  0  0  0  0
 13 22  2  0  0  0  0
 14 24  2  0  0  0  0
 14 25  1  0  0  0  0
 15 26  1  0  0  0  0
 16 26  1  0  0  0  0
 16 27  2  0  0  0  0
 16 30  1  0  0  0  0
 17 19  2  0  0  0  0
 17 36  1  0  0  0  0
 18 20  2  0  0  0  0
 18 37  1  0  0  0  0
 19 45  1  0  0  0  0
 20 38  1  0  0  0  0
 21 76  1  0  0  0  0
 22 77  1  0  0  0  0
 23 25  2  0  0  0  0
 23 76  1  0  0  0  0
 24 78  1  0  0  0  0
 25 79  1  0  0  0  0
 26 59  2  0  0  0  0
 27 61  1  0  0  0  0
 27 64  1  0  0  0  0
 28 53  1  0  0  0  0
 28 60  2  0  0  0  0
 29 55  1  0  0  0  0
 29 69  2  0  0  0  0
 30 65  1  0  0  0  0
 30 70  2  0  0  0  0
 31 46  1  0  0  0  0
 31 66  1  0  0  0  0
 31 71  2  0  0  0  0
 32 54  1  0  0  0  0
 32 60  1  0  0  0  0
 32 72  2  0  0  0  0
 33 53  1  0  0  0  0
 33 63  1  0  0  0  0
 33 73  2  0  0  0  0
 34 56  1  0  0  0  0
 34 62  1  0  0  0  0
 34 74  2  0  0  0  0
 35 57  1  0  0  0  0
 35 67  1  0  0  0  0
 35 75  2  0  0  0  0
 36 39  1  0  0  0  0
 37 46  1  0  0  0  0
 38 62  1  0  0  0  0
 39 41  1  0  0  0  0
 40 42  1  0  0  0  0
 40 43  1  0  0  0  0
 41 45  1  0  0  0  0
 42 47  1  0  0  0  0
 43 63  1  0  0  0  0
 44 47  1  0  0  0  0
 44 63  1  0  0  0  0
 45 66  1  0  0  0  0
 46 62  1  0  0  0  0
 47 61  1  0  0  0  0
 48 57  1  0  0  0  0
 49 58  1  0  0  0  0
 50 58  1  0  0  0  0
 51 58  1  0  0  0  0
 52 68  1  0  0  0  0
 54 55  1  0  0  0  0
 55 77  1  0  0  0  0
 56 58  1  0  0  0  0
 56 67  1  0  0  0  0
 57 68  1  0  0  0  0
 59 61  1  0  0  0  0
M  CHG  1  68   1
M  ISO  4  33 100  53 100  55 101  77 101
M  END
> <Batch ID>
0113

> <Smiles>
CNC(C)C(=O)NC(C(=O)N1Cc2cc([101O:1][101CH:1](C=O)CC(=O)NC=[100CH:0][100C:0](=O)N3CCCC(n4nc(-c5ccc(Oc6ccc(F)cc6F)cc5)c(C(N)=O)c4N)C3)ccc2CC1C(=O)NC1CCCc2ccccc21)C(C)(C)C

> <Shape>
0.288

> <Color>
0.078

> <Negative vol penalty>
0.000

$$$$

  -OEChem-04052301343D

 85 93  0     1  0  0  0  0  0999 V2000
  -24.5430  -36.0787   20.9663 C   0  0  0  0  0  0  0  0  0  0  0  0
  -25.7536  -35.3933   20.9550 C   0  0  0  0  0  0  0  0  0  0  0  0
  -23.7670   -9.6154   21.0041 C   0  0  0  0  0  0  0  0  0  0  0  0
  -24.3857  -10.4362   23.1906 C   0  0  0  0  0  0  0  0  0  0  0  0
  -23.3880  -35.4437   21.4210 C   0  0  0  0  0  0  0  0  0  0  0  0
  -25.8102  -34.0729   21.3996 C   0  0  0  0  0  0  0  0  0  0  0  0
  -29.2660  -27.9166   20.1855 C   0  0  0  0  0  0  0  0  0  0  0  0
  -23.2546   -8.4552   21.5847 C   0  0  0  0  0  0  0  0  0  0  0  0
  -23.8733   -9.2760   23.7711 C   0  0  0  0  0  0  0  0  0  0  0  0
  -29.9807  -26.9307   20.8644 C   0  0  0  0  0  0  0  0  0  0  0  0
  -21.4579   -5.4375   22.5230 C   0  0  0  0  0  0  0  0  0  0  0  0
  -20.2160   -4.9839   22.0786 C   0  0  0  0  0  0  0  0  0  0  0  0
  -29.2783  -20.4836   21.8701 C   0  0  0  0  0  0  0  0  0  0  0  0
  -27.9065  -25.9099   21.5535 C   0  0  0  0  0  0  0  0  0  0  0  0
  -31.3219  -19.4495   22.6389 C   0  0  0  0  0  0  0  0  0  0  0  0
  -19.2059   -7.0642   22.7780 C   0  0  0  0  0  0  0  0  0  0  0  0
  -24.3326  -10.6059   21.8071 C   0  0  0  0  0  0  0  0  0  0  0  0
  -28.9036  -19.2878   21.2575 C   0  0  0  0  0  0  0  0  0  0  0  0
  -24.1719  -13.0044   20.9531 C   0  0  0  0  0  0  0  0  0  0  0  0
  -23.4286  -34.1117   21.8623 C   0  0  0  0  0  0  0  0  0  0  0  0
  -27.8637  -27.9128   20.1947 C   0  0  0  0  0  0  0  0  0  0  0  0
  -24.6549  -33.4199   21.8619 C   0  0  0  0  0  0  0  0  0  0  0  0
  -27.1763  -26.8955   20.8719 C   0  0  0  0  0  0  0  0  0  0  0  0
  -30.4875  -20.5645   22.5608 C   0  0  0  0  0  0  0  0  0  0  0  0
  -29.7381  -18.1728   21.3356 C   0  0  0  0  0  0  0  0  0  0  0  0
  -23.3078   -8.2855   22.9681 C   0  0  0  0  0  0  0  0  0  0  0  0
  -29.3010  -25.9288   21.5509 C   0  0  0  0  0  0  0  0  0  0  0  0
  -21.5739   -6.7045   23.0950 C   0  0  0  0  0  0  0  0  0  0  0  0
  -19.0900   -5.7973   22.2061 C   0  0  0  0  0  0  0  0  0  0  0  0
  -30.9472  -18.2537   22.0264 C   0  0  0  0  0  0  0  0  0  0  0  0
  -20.4479   -7.5178   23.2225 C   0  0  0  0  0  0  0  0  0  0  0  0
  -24.8625  -11.8044   21.2079 C   0  0  0  0  0  0  0  0  0  0  0  0
  -25.1114  -13.8260   20.3797 C   0  0  0  0  0  0  0  0  0  0  0  0
  -26.4652  -19.5067   21.1113 C   0  0  0  0  0  0  0  0  0  0  0  0
  -27.6323  -19.2425   20.5448 C   0  0  0  0  0  0  0  0  0  0  0  0
  -31.5530  -22.5835   22.4468 C   0  0  0  0  0  0  0  0  0  0  0  0
  -22.8036  -13.3458   21.2116 C   0  0  0  0  0  0  0  0  0  0  0  0
  -25.6220  -29.9080   21.2425 C   0  0  0  0  0  0  0  0  0  0  0  0
  -23.6232  -27.8070   19.7888 C   0  0  0  0  0  0  0  0  0  0  0  0
  -23.0831  -24.6355   18.6501 C   0  0  0  0  0  0  0  0  0  0  0  0
  -30.2435  -15.9788   20.2055 C   0  0  0  0  0  0  0  0  0  0  0  0
  -22.1631  -33.4827   22.3892 C   0  0  0  0  0  0  0  0  0  0  0  0
  -27.1075  -28.9682   19.4352 C   0  0  0  0  0  0  0  0  0  0  0  0
  -25.6716  -26.8349   20.8955 C   0  0  0  0  0  0  0  0  0  0  0  0
  -22.2361  -31.9614   22.4919 C   0  0  0  0  0  0  0  0  0  0  0  0
  -29.7599  -12.8117   18.6522 C   0  0  0  0  0  0  0  0  0  0  0  0
  -23.5451  -31.5327   23.1474 C   0  0  0  0  0  0  0  0  0  0  0  0
  -28.3859  -12.3660   19.1577 C   0  0  0  0  0  0  0  0  0  0  0  0
  -30.5453  -13.5588   19.7287 C   0  0  0  0  0  0  0  0  0  0  0  0
  -28.4609  -14.2406   20.8510 C   0  0  0  0  0  0  0  0  0  0  0  0
  -24.7519  -31.9786   22.3130 C   0  0  1  0  0  0  0  0  0  0  0  0
  -25.6808  -29.1608   19.9402 C   0  0  1  0  0  0  0  0  0  0  0  0
  -27.6067  -13.5405   19.7814 C   0  0  2  0  0  0  0  0  0  0  0  0
  -33.5365  -23.9455   22.9740 C   0  0  0  0  0  0  0  0  0  0  0  0
  -21.3396  -23.2102   17.5429 C   0  0  0  0  0  0  0  0  0  0  0  0
  -22.1067  -27.6151   22.4295 C   0  0  0  0  0  0  0  0  0  0  0  0
  -21.0146  -25.5323   21.5708 C   0  0  0  0  0  0  0  0  0  0  0  0
  -20.6536  -27.7030   20.3960 C   0  0  0  0  0  0  0  0  0  0  0  0
  -24.8208  -24.1244   16.3095 C   0  0  0  0  0  0  0  0  0  0  0  0
  -31.4203  -25.0424   22.1663 C   0  0  0  0  0  0  0  0  0  1  0  0
  -32.0135  -23.9121   23.0034 C   0  0  1  0  0  0  0  0  0  0  0  0
  -22.8977  -26.5530   20.2131 C   0  0  1  0  0  0  0  0  0  0  0  0
  -22.5410  -24.1179   17.3300 C   0  0  2  0  0  0  0  0  0  0  0  0
  -21.6965  -26.8528   21.1537 C   0  0  0  0  0  0  0  0  0  0  0  0
  -26.1418  -11.8549   20.8275 N   0  0  0  0  0  0  0  0  0  0  0  0
  -30.8652  -21.7684   23.1785 N   0  0  0  0  0  0  0  0  0  0  0  0
  -26.2626  -13.0965   20.3277 N   0  0  0  0  0  0  0  0  0  0  0  0
  -24.9771  -27.8929   20.1432 N   0  0  0  0  0  0  0  0  0  0  0  0
  -29.7463  -14.6600   20.2707 N   0  0  0  0  0  0  0  0  0  0  0  0
  -25.0568  -15.0941   19.9199 N   0  0  0  0  0  0  0  0  0  0  0  0
  -21.9758  -12.3838   21.8062 N   0  0  0  0  0  0  0  0  0  0  0  0
  -29.3822  -16.9460   20.7226 N   0  0  0  0  0  0  0  0  0  0  0  0
  -24.9310  -31.1027   21.1750 N   0  0  0  0  0  0  0  0  0  0  0  0
  -22.5347  -25.8557   18.9841 N   0  0  0  0  0  0  0  0  0  0  0  0
  -23.5905  -23.3463   16.6059 N   0  3  0  0  0  0  0  0  0  0  0  0
  -22.3249  -14.4651   20.9089 O   0  0  0  0  0  0  0  0  0  0  0  0
  -26.1623  -29.4348   22.2354 O   0  0  0  0  0  0  0  0  0  0  0  0
  -23.0131  -28.6751   19.1597 O   0  0  0  0  0  0  0  0  0  0  0  0
  -23.9076  -24.0173   19.3198 O   0  0  0  0  0  0  0  0  0  0  0  0
  -31.3401  -16.2348   19.7016 O   0  0  0  0  0  0  0  0  0  0  0  0
  -22.8077   -7.1536   23.5350 O   0  0  0  0  0  0  0  0  0  0  0  0
  -29.9962  -24.9656   22.2149 O   0  0  0  0  0  0  0  0  0  1  0  0
  -17.8978   -5.3622   21.7779 F   0  0  0  0  0  0  0  0  0  0  0  0
  -31.7585  -17.1893   22.1084 F   0  0  0  0  0  0  0  0  0  0  0  0
  -20.5533   -8.7364   23.7701 F   0  0  0  0  0  0  0  0  0  0  0  0
  1  2  1  0  0  0  0
  1  5  2  0  0  0  0
  2  6  2  0  0  0  0
  3  8  2  0  0  0  0
  3 17  1  0  0  0  0
  4  9  1  0  0  0  0
  4 17  2  0  0  0  0
  5 20  1  0  0  0  0
  6 22  1  0  0  0  0
  7 10  2  0  0  0  0
  7 21  1  0  0  0  0
  8 26  1  0  0  0  0
  9 26  2  0  0  0  0
 10 27  1  0  0  0  0
 11 12  2  0  0  0  0
 11 28  1  0  0  0  0
 12 29  1  0  0  0  0
 13 18  1  0  0  0  0
 13 24  2  0  0  0  0
 14 23  1  0  0  0  0
 14 27  2  0  0  0  0
 15 24  1  0  0  0  0
 15 30  2  0  0  0  0
 16 29  2  0  0  0  0
 16 31  1  0  0  0  0
 17 32  1  0  0  0  0
 18 25  2  0  0  0  0
 18 35  1  0  0  0  0
 19 32  1  0  0  0  0
 19 33  2  0  0  0  0
 19 37  1  0  0  0  0
 20 22  2  0  0  0  0
 20 42  1  0  0  0  0
 21 23  2  0  0  0  0
 21 43  1  0  0  0  0
 22 51  1  0  0  0  0
 23 44  1  0  0  0  0
 24 66  1  0  0  0  0
 25 30  1  0  0  0  0
 25 72  1  0  0  0  0
 26 81  1  0  0  0  0
 27 82  1  0  0  0  0
 28 31  2  0  0  0  0
 28 81  1  0  0  0  0
 29 83  1  0  0  0  0
 30 84  1  0  0  0  0
 31 85  1  0  0  0  0
 32 65  2  0  0  0  0
 33 67  1  0  0  0  0
 33 70  1  0  0  0  0
 34 35  2  0  0  0  0
 36 61  1  0  0  0  0
 36 66  2  0  0  0  0
 37 71  1  0  0  0  0
 37 76  2  0  0  0  0
 38 52  1  0  0  0  0
 38 73  1  0  0  0  0
 38 77  2  0  0  0  0
 39 62  1  0  0  0  0
 39 68  1  0  0  0  0
 39 78  2  0  0  0  0
 40 63  1  0  0  0  0
 40 74  1  0  0  0  0
 40 79  2  0  0  0  0
 41 69  1  0  0  0  0
 41 72  1  0  0  0  0
 41 80  2  0  0  0  0
 42 45  1  0  0  0  0
 43 52  1  0  0  0  0
 44 68  1  0  0  0  0
 45 47  1  0  0  0  0
 46 48  1  0  0  0  0
 46 49  1  0  0  0  0
 47 51  1  0  0  0  0
 48 53  1  0  0  0  0
 49 69  1  0  0  0  0
 50 53  1  0  0  0  0
 50 69  1  0  0  0  0
 51 73  1  0  0  0  0
 52 68  1  0  0  0  0
 53 67  1  0  0  0  0
 54 61  1  0  0  0  0
 55 63  1  0  0  0  0
 56 64  1  0  0  0  0
 57 64  1  0  0  0  0
 58 64  1  0  0  0  0
 59 75  1  0  0  0  0
 60 61  1  0  0  0  0
 60 82  1  0  0  0  0
 62 64  1  0  0  0  0
 62 74  1  0  0  0  0
 63 75  1  0  0  0  0
 65 67  1  0  0  0  0
M  CHG  1  75   1
M  ISO  4  41 100  60 101  72 100  82 101
M  END
> <Batch ID>
0113

> <Smiles>
C=Cc1cc(NC=C(C)[101CH2:1][101O:1]c2ccc3c(c2)CN(C(=O)C(NC(=O)C(C)NC)C(C)(C)C)C(C(=O)NC2CCCc4ccccc42)C3)cc(F)c1[100NH:0][100C:0](=O)N1CCCC(n2nc(-c3ccc(Oc4ccc(F)cc4F)cc3)c(C(N)=O)c2N)C1

> <Shape>
0.287

> <Color>
0.130

> <Negative vol penalty>
0.000

$$$$

  -OEChem-04052301343D

 84 92  0     1  0  0  0  0  0999 V2000
  -30.2722  -35.5553   18.6576 C   0  0  0  0  0  0  0  0  0  0  0  0
  -30.4227  -34.1811   18.5019 C   0  0  0  0  0  0  0  0  0  0  0  0
  -23.3047   -9.6520   21.0563 C   0  0  0  0  0  0  0  0  0  0  0  0
  -23.9607  -10.4701   23.2329 C   0  0  0  0  0  0  0  0  0  0  0  0
  -29.5250  -36.0575   19.7222 C   0  0  0  0  0  0  0  0  0  0  0  0
  -29.8269  -33.3081   19.4116 C   0  0  0  0  0  0  0  0  0  0  0  0
  -27.4644  -27.7873   18.2097 C   0  0  0  0  0  0  0  0  0  0  0  0
  -22.6383   -8.5847   21.6583 C   0  0  0  0  0  0  0  0  0  0  0  0
  -23.2943   -9.4028   23.8349 C   0  0  0  0  0  0  0  0  0  0  0  0
  -27.9722  -26.4973   18.3575 C   0  0  0  0  0  0  0  0  0  0  0  0
  -19.6967   -8.0581   23.2402 C   0  0  0  0  0  0  0  0  0  0  0  0
  -18.4194   -7.7459   22.7749 C   0  0  0  0  0  0  0  0  0  0  0  0
  -26.8578  -26.3093   20.4887 C   0  0  0  0  0  0  0  0  0  0  0  0
  -33.0960  -19.2949   21.7844 C   0  0  0  0  0  0  0  0  0  0  0  0
  -31.0796  -20.5971   21.5094 C   0  0  0  0  0  0  0  0  0  0  0  0
  -19.1793   -5.5328   22.1736 C   0  0  0  0  0  0  0  0  0  0  0  0
  -23.9659  -10.5947   21.8436 C   0  0  0  0  0  0  0  0  0  0  0  0
  -24.1241  -12.9623   20.9070 C   0  0  0  0  0  0  0  0  0  0  0  0
  -28.9118  -35.1900   20.6399 C   0  0  0  0  0  0  0  0  0  0  0  0
  -26.6570  -28.3530   19.2070 C   0  0  0  0  0  0  0  0  0  0  0  0
  -29.0719  -33.7992   20.4903 C   0  0  0  0  0  0  0  0  0  0  0  0
  -26.3389  -27.6057   20.3500 C   0  0  0  0  0  0  0  0  0  0  0  0
  -33.8638  -20.4437   21.5941 C   0  0  0  0  0  0  0  0  0  0  0  0
  -31.7038  -19.3716   21.7420 C   0  0  0  0  0  0  0  0  0  0  0  0
  -31.8475  -21.7460   21.3191 C   0  0  0  0  0  0  0  0  0  0  0  0
  -33.2396  -21.6692   21.3615 C   0  0  0  0  0  0  0  0  0  0  0  0
  -22.6331   -8.4601   23.0476 C   0  0  0  0  0  0  0  0  0  0  0  0
  -27.6713  -25.7592   19.4985 C   0  0  0  0  0  0  0  0  0  0  0  0
  -20.7154   -7.1077   23.1722 C   0  0  0  0  0  0  0  0  0  0  0  0
  -18.1607   -6.4833   22.2416 C   0  0  0  0  0  0  0  0  0  0  0  0
  -20.4567   -5.8450   22.6389 C   0  0  0  0  0  0  0  0  0  0  0  0
  -24.6549  -11.6972   21.2223 C   0  0  0  0  0  0  0  0  0  0  0  0
  -25.1723  -13.6420   20.3365 C   0  0  0  0  0  0  0  0  0  0  0  0
  -30.0024  -23.1934   20.4862 C   0  0  0  0  0  0  0  0  0  0  0  0
  -29.3768  -24.3526   20.2623 C   0  0  0  0  0  0  0  0  0  1  0  0
  -30.6443  -17.5464   20.8626 C   0  0  0  0  0  0  0  0  0  0  0  0
  -22.8016  -13.4771   21.1117 C   0  0  0  0  0  0  0  0  0  0  0  0
  -26.8943  -30.8811   21.1191 C   0  0  0  0  0  0  0  0  0  0  0  0
  -30.5731  -15.0976   20.3869 C   0  0  0  0  0  0  0  0  0  0  0  0
  -23.8692  -30.0517   21.9457 C   0  0  0  0  0  0  0  0  0  0  0  0
  -21.4901  -27.6145   22.1631 C   0  0  0  0  0  0  0  0  0  0  0  0
  -28.1531  -35.7808   21.8018 C   0  0  0  0  0  0  0  0  0  0  0  0
  -26.0952  -29.7357   19.0202 C   0  0  0  0  0  0  0  0  0  0  0  0
  -25.4600  -28.1597   21.4404 C   0  0  0  0  0  0  0  0  0  0  0  0
  -27.2424  -34.7790   22.5071 C   0  0  0  0  0  0  0  0  0  0  0  0
  -29.6925  -12.0246   18.7679 C   0  0  0  0  0  0  0  0  0  0  0  0
  -27.9835  -33.4700   22.7603 C   0  0  0  0  0  0  0  0  0  0  0  0
  -28.2713  -11.7540   19.2600 C   0  0  0  0  0  0  0  0  0  0  0  0
  -30.5420  -12.6841   19.8498 C   0  0  0  0  0  0  0  0  0  0  0  0
  -28.5298  -13.6710   20.8981 C   0  0  0  0  0  0  0  0  0  0  0  0
  -28.4204  -32.8196   21.4421 C   0  0  1  0  0  0  0  0  0  0  0  0
  -25.7047  -30.4046   20.3346 C   0  0  1  0  0  0  0  0  0  0  0  0
  -27.6292  -13.0332   19.8255 C   0  0  2  0  0  0  0  0  0  0  0  0
  -35.3531  -20.3299   21.6440 C   0  0  0  0  0  0  0  0  0  0  0  0
  -19.1271  -27.2299   22.9151 C   0  0  0  0  0  0  0  0  0  0  0  0
  -24.7966  -30.0538   24.8526 C   0  0  0  0  0  0  0  0  0  0  0  0
  -22.7279  -28.7719   25.4406 C   0  0  0  0  0  0  0  0  0  0  0  0
  -22.5403  -31.0650   24.4766 C   0  0  0  0  0  0  0  0  0  0  0  0
  -20.6267  -26.8409   19.4401 C   0  0  0  0  0  0  0  0  0  0  0  0
  -29.8322  -16.2881   20.9415 C   0  0  0  0  0  0  0  0  0  0  0  0
  -23.2552  -29.1497   22.9890 C   0  0  1  0  0  0  0  0  0  0  0  0
  -20.0306  -27.5917   21.7465 C   0  0  2  0  0  0  0  0  0  0  0  0
  -23.3482  -29.7501   24.4202 C   0  0  0  0  0  0  0  0  0  0  0  0
  -25.9405  -11.5776   20.8803 N   0  0  0  0  0  0  0  0  0  0  0  0
  -30.9339  -18.2194   21.9314 N   0  0  0  0  0  0  0  0  0  0  0  0
  -26.2262  -12.7763   20.3441 N   0  0  0  0  0  0  0  0  0  0  0  0
  -24.9401  -29.5184   21.2144 N   0  0  0  0  0  0  0  0  0  0  0  0
  -29.8874  -13.8828   20.3769 N   0  0  0  0  0  0  0  0  0  0  0  0
  -34.0221  -22.8325   21.1703 N   0  0  0  0  0  0  0  0  0  0  0  0
  -25.2862  -14.8898   19.8340 N   0  0  0  0  0  0  0  0  0  0  0  0
  -21.8463  -12.6453   21.7115 N   0  0  0  0  0  0  0  0  0  0  0  0
  -31.1973  -22.9697   21.0881 N   0  0  0  0  0  0  0  0  0  0  0  0
  -27.2978  -32.1649   20.8052 N   0  0  0  0  0  0  0  0  0  0  0  0
  -21.8932  -28.8774   22.5426 N   0  0  0  0  0  0  0  0  0  0  0  0
  -19.8173  -26.5932   20.6609 N   0  3  0  0  0  0  0  0  0  0  0  0
  -22.4723  -14.6346   20.7578 O   0  0  0  0  0  0  0  0  0  0  0  0
  -27.4071  -30.1395   21.9490 O   0  0  0  0  0  0  0  0  0  0  0  0
  -31.7259  -15.2454   19.9727 O   0  0  0  0  0  0  0  0  0  0  0  0
  -23.4108  -31.1849   21.7806 O   0  0  0  0  0  0  0  0  0  0  0  0
  -22.2006  -26.6116   22.1563 O   0  0  0  0  0  0  0  0  0  0  0  0
  -21.9828   -7.4188   23.6354 O   0  0  0  0  0  0  0  0  0  0  0  0
  -28.1662  -24.5001   19.6455 O   0  0  0  0  0  0  0  0  0  1  0  0
  -16.9336   -6.1831   21.7962 F   0  0  0  0  0  0  0  0  0  0  0  0
  -21.4310   -4.9274   22.5721 F   0  0  0  0  0  0  0  0  0  0  0  0
  1  2  1  0  0  0  0
  1  5  2  0  0  0  0
  2  6  2  0  0  0  0
  3  8  2  0  0  0  0
  3 17  1  0  0  0  0
  4  9  1  0  0  0  0
  4 17  2  0  0  0  0
  5 19  1  0  0  0  0
  6 21  1  0  0  0  0
  7 10  2  0  0  0  0
  7 20  1  0  0  0  0
  8 27  1  0  0  0  0
  9 27  2  0  0  0  0
 10 28  1  0  0  0  0
 11 12  2  0  0  0  0
 11 29  1  0  0  0  0
 12 30  1  0  0  0  0
 13 22  1  0  0  0  0
 13 28  2  0  0  0  0
 14 23  2  0  0  0  0
 14 24  1  0  0  0  0
 15 24  2  0  0  0  0
 15 25  1  0  0  0  0
 16 30  2  0  0  0  0
 16 31  1  0  0  0  0
 17 32  1  0  0  0  0
 18 32  1  0  0  0  0
 18 33  2  0  0  0  0
 18 37  1  0  0  0  0
 19 21  2  0  0  0  0
 19 42  1  0  0  0  0
 20 22  2  0  0  0  0
 20 43  1  0  0  0  0
 21 51  1  0  0  0  0
 22 44  1  0  0  0  0
 23 26  1  0  0  0  0
 23 54  1  0  0  0  0
 24 65  1  0  0  0  0
 25 26  2  0  0  0  0
 25 72  1  0  0  0  0
 26 69  1  0  0  0  0
 27 81  1  0  0  0  0
 28 82  1  0  0  0  0
 29 31  2  0  0  0  0
 29 81  1  0  0  0  0
 30 83  1  0  0  0  0
 31 84  1  0  0  0  0
 32 64  2  0  0  0  0
 33 66  1  0  0  0  0
 33 70  1  0  0  0  0
 34 35  2  0  0  0  0
 34 72  1  0  0  0  0
 35 82  1  0  0  0  0
 36 60  1  0  0  0  0
 36 65  2  0  0  0  0
 37 71  1  0  0  0  0
 37 76  2  0  0  0  0
 38 52  1  0  0  0  0
 38 73  1  0  0  0  0
 38 77  2  0  0  0  0
 39 60  1  0  0  0  0
 39 68  1  0  0  0  0
 39 78  2  0  0  0  0
 40 61  1  0  0  0  0
 40 67  1  0  0  0  0
 40 79  2  0  0  0  0
 41 62  1  0  0  0  0
 41 74  1  0  0  0  0
 41 80  2  0  0  0  0
 42 45  1  0  0  0  0
 43 52  1  0  0  0  0
 44 67  1  0  0  0  0
 45 47  1  0  0  0  0
 46 48  1  0  0  0  0
 46 49  1  0  0  0  0
 47 51  1  0  0  0  0
 48 53  1  0  0  0  0
 49 68  1  0  0  0  0
 50 53  1  0  0  0  0
 50 68  1  0  0  0  0
 51 73  1  0  0  0  0
 52 67  1  0  0  0  0
 53 66  1  0  0  0  0
 55 62  1  0  0  0  0
 56 63  1  0  0  0  0
 57 63  1  0  0  0  0
 58 63  1  0  0  0  0
 59 75  1  0  0  0  0
 61 63  1  0  0  0  0
 61 74  1  0  0  0  0
 62 75  1  0  0  0  0
 64 66  1  0  0  0  0
M  CHG  1  75   1
M  ISO  4  35 101  39 100  60 100  82 101
M  END
> <Batch ID>
0113

> <Smiles>
CNC(C)C(=O)NC(C(=O)N1Cc2cc([101O:1][101CH:1]=CNc3cc(NC=[100CH:0][100C:0](=O)N4CCCC(n5nc(-c6ccc(Oc7ccc(F)cc7F)cc6)c(C(N)=O)c5N)C4)cc(C)c3N)ccc2CC1C(=O)NC1CCCc2ccccc21)C(C)(C)C

> <Shape>
0.293

> <Color>
0.168

> <Negative vol penalty>
0.000

$$$$

  -OEChem-04052301343D

 84 93  0     1  0  0  0  0  0999 V2000
  -26.8331  -37.5942   22.1412 C   0  0  0  0  0  0  0  0  0  0  0  0
  -27.4182  -36.4254   21.6649 C   0  0  0  0  0  0  0  0  0  0  0  0
  -22.7867  -10.9313   19.4286 C   0  0  0  0  0  0  0  0  0  0  0  0
  -23.2809   -9.9537   21.5820 C   0  0  0  0  0  0  0  0  0  0  0  0
  -25.8727  -37.5307   23.1500 C   0  0  0  0  0  0  0  0  0  0  0  0
  -27.0441  -35.1924   22.1978 C   0  0  0  0  0  0  0  0  0  0  0  0
  -26.6415  -29.8607   19.2116 C   0  0  0  0  0  0  0  0  0  0  0  0
  -21.7793   -9.9870   19.2310 C   0  0  0  0  0  0  0  0  0  0  0  0
  -22.2734   -9.0094   21.3845 C   0  0  0  0  0  0  0  0  0  0  0  0
  -27.5107  -28.7755   19.1084 C   0  0  0  0  0  0  0  0  0  0  0  0
  -18.9033   -8.8828   21.6004 C   0  0  0  0  0  0  0  0  0  0  0  0
  -18.0371   -8.6294   22.6639 C   0  0  0  0  0  0  0  0  0  0  0  0
  -28.0736  -18.4669   18.4972 C   0  0  0  0  0  0  0  0  0  0  0  0
  -27.7081  -19.8391   18.6144 C   0  0  0  0  0  0  0  0  0  0  0  0
  -26.3210  -27.6613   20.8867 C   0  0  0  0  0  0  0  0  0  0  0  0
  -18.7234   -6.3129   22.6708 C   0  0  0  0  0  0  0  0  0  0  0  0
  -23.5375  -10.9147   20.6040 C   0  0  0  0  0  0  0  0  0  0  0  0
  -24.4518  -13.1549   21.4122 C   0  0  0  0  0  0  0  0  0  0  0  0
  -25.4796  -36.2954   23.6888 C   0  0  0  0  0  0  0  0  0  0  0  0
  -25.6105  -29.8590   20.1621 C   0  0  0  0  0  0  0  0  0  0  0  0
  -26.0785  -35.1123   23.2156 C   0  0  0  0  0  0  0  0  0  0  0  0
  -25.4385  -28.7466   20.9982 C   0  0  0  0  0  0  0  0  0  0  0  0
  -21.5226   -9.0261   20.2090 C   0  0  0  0  0  0  0  0  0  0  0  0
  -27.3523  -27.6768   19.9479 C   0  0  0  0  0  0  0  0  0  0  0  0
  -19.6795   -7.8512   21.0720 C   0  0  0  0  0  0  0  0  0  0  0  0
  -17.9471   -7.3445   23.1991 C   0  0  0  0  0  0  0  0  0  0  0  0
  -19.5895   -6.5663   21.6073 C   0  0  0  0  0  0  0  0  0  0  0  0
  -24.5787  -11.8895   20.8084 C   0  0  0  0  0  0  0  0  0  0  0  0
  -29.4065  -18.2607   18.7776 C   0  0  0  0  0  0  0  0  0  0  0  0
  -25.7172  -13.6867   21.3641 C   0  0  0  0  0  0  0  0  0  0  0  0
  -28.7756  -20.6294   18.9803 C   0  0  0  0  0  0  0  0  0  0  0  0
  -28.4043  -24.2866   19.4275 C   0  0  0  0  0  0  0  0  0  0  0  0
  -27.8141  -22.9616   19.0995 C   0  0  0  0  0  0  0  0  0  0  0  0
  -30.1688  -16.9995   18.7700 C   0  0  0  0  0  0  0  0  0  0  0  0
  -27.6682  -25.3939   19.5486 C   0  0  0  0  0  0  0  0  0  1  0  0
  -23.2936  -13.7925   21.9669 C   0  0  0  0  0  0  0  0  0  0  0  0
  -24.8719  -31.6622   22.6734 C   0  0  0  0  0  0  0  0  0  0  0  0
  -22.1944  -29.8315   22.7090 C   0  0  0  0  0  0  0  0  0  0  0  0
  -20.6848  -26.8895   21.8648 C   0  0  0  0  0  0  0  0  0  0  0  0
  -30.3883  -14.7267   18.4917 C   0  0  0  0  0  0  0  0  0  0  0  0
  -24.4719  -36.2806   24.8108 C   0  0  0  0  0  0  0  0  0  0  0  0
  -24.6650  -31.0260   20.2427 C   0  0  0  0  0  0  0  0  0  0  0  0
  -24.3350  -28.6868   22.0215 C   0  0  0  0  0  0  0  0  0  0  0  0
  -29.8763  -24.1642   19.6124 C   0  0  0  0  0  0  0  0  0  0  0  0
  -23.8587  -34.9051   25.0606 C   0  0  0  0  0  0  0  0  0  0  0  0
  -30.1527  -11.5641   20.2084 C   0  0  0  0  0  0  0  0  0  0  0  0
  -24.9447  -33.8345   25.0938 C   0  0  0  0  0  0  0  0  0  0  0  0
  -28.6633  -11.4568   20.5352 C   0  0  0  0  0  0  0  0  0  0  0  0
  -30.0942  -22.6610   19.6651 C   0  0  0  0  0  0  0  0  0  0  0  0
  -30.3837  -12.2610   18.8711 C   0  0  0  0  0  0  0  0  0  0  0  0
  -28.2503  -13.5039   19.1005 C   0  0  0  0  0  0  0  0  0  0  0  0
  -25.6810  -33.7539   23.7511 C   0  0  1  0  0  0  0  0  0  0  0  0
  -23.9671  -31.1373   21.5948 C   0  0  1  0  0  0  0  0  0  0  0  0
  -27.9798  -12.8336   20.4584 C   0  0  1  0  0  0  0  0  0  0  0  0
  -18.5014  -25.6682   22.0617 C   0  0  0  0  0  0  0  0  0  0  0  0
  -22.8055  -29.2154   25.6342 C   0  0  0  0  0  0  0  0  0  0  0  0
  -21.1954  -27.3032   25.4955 C   0  0  0  0  0  0  0  0  0  0  0  0
  -20.3906  -29.6373   25.1395 C   0  0  0  0  0  0  0  0  0  0  0  0
  -20.3579  -26.7626   18.9261 C   0  0  0  0  0  0  0  0  0  0  0  0
  -21.7998  -28.5269   23.3582 C   0  0  1  0  0  0  0  0  0  0  0  0
  -19.3496  -26.5954   21.2051 C   0  0  2  0  0  0  0  0  0  0  0  0
  -21.5699  -28.6723   24.8890 C   0  0  0  0  0  0  0  0  0  0  0  0
  -25.8262  -11.6329   20.4062 N   0  0  0  0  0  0  0  0  0  0  0  0
  -29.6122  -15.8699   18.4776 N   0  0  0  0  0  0  0  0  0  0  0  0
  -26.4948  -12.7444   20.7578 N   0  0  0  0  0  0  0  0  0  0  0  0
  -28.8619  -22.0381   19.2081 N   0  0  0  0  0  0  0  0  0  0  0  0
  -23.4401  -29.8550   22.0661 N   0  0  0  0  0  0  0  0  0  0  0  0
  -29.6920  -13.5499   18.8231 N   0  0  0  0  0  0  0  0  0  0  0  0
  -26.2296  -14.8638   21.7817 N   0  0  0  0  0  0  0  0  0  0  0  0
  -22.0725  -13.1053   21.9344 N   0  0  0  0  0  0  0  0  0  0  0  0
  -24.8817  -33.0400   22.7784 N   0  0  0  0  0  0  0  0  0  0  0  0
  -20.6375  -28.0403   22.6229 N   0  0  0  0  0  0  0  0  0  0  0  0
  -19.5584  -25.9497   19.8784 N   0  3  0  0  0  0  0  0  0  0  0  0
  -26.6390  -22.8046   18.8123 O   0  0  0  0  0  0  0  0  0  0  0  0
  -23.3368  -14.9445   22.4617 O   0  0  0  0  0  0  0  0  0  0  0  0
  -25.5125  -30.8754   23.3606 O   0  0  0  0  0  0  0  0  0  0  0  0
  -21.4224  -30.7921   22.7640 O   0  0  0  0  0  0  0  0  0  0  0  0
  -21.6701  -26.1683   21.7248 O   0  0  0  0  0  0  0  0  0  0  0  0
  -31.5941  -14.7112   18.2328 O   0  0  0  0  0  0  0  0  0  0  0  0
  -20.5396   -8.1046   20.0167 O   0  0  0  0  0  0  0  0  0  0  0  0
  -28.1996  -26.6165   19.8497 O   0  0  0  0  0  0  0  0  0  1  0  0
  -17.1164   -7.1016   24.2214 F   0  0  0  0  0  0  0  0  0  0  0  0
  -20.3336   -5.5715   21.1047 F   0  0  0  0  0  0  0  0  0  0  0  0
  -30.2112  -19.7176   19.1804 S   0  0  0  0  0  0  0  0  0  0  0  0
  1  2  1  0  0  0  0
  1  5  2  0  0  0  0
  2  6  2  0  0  0  0
  3  8  2  0  0  0  0
  3 17  1  0  0  0  0
  4  9  1  0  0  0  0
  4 17  2  0  0  0  0
  5 19  1  0  0  0  0
  6 21  1  0  0  0  0
  7 10  2  0  0  0  0
  7 20  1  0  0  0  0
  8 23  1  0  0  0  0
  9 23  2  0  0  0  0
 10 24  1  0  0  0  0
 11 12  2  0  0  0  0
 11 25  1  0  0  0  0
 12 26  1  0  0  0  0
 13 14  1  0  0  0  0
 13 29  2  0  0  0  0
 14 31  2  0  0  0  0
 15 22  1  0  0  0  0
 15 24  2  0  0  0  0
 16 26  2  0  0  0  0
 16 27  1  0  0  0  0
 17 28  1  0  0  0  0
 18 28  1  0  0  0  0
 18 30  2  0  0  0  0
 18 36  1  0  0  0  0
 19 21  2  0  0  0  0
 19 41  1  0  0  0  0
 20 22  2  0  0  0  0
 20 42  1  0  0  0  0
 21 52  1  0  0  0  0
 22 43  1  0  0  0  0
 23 80  1  0  0  0  0
 24 81  1  0  0  0  0
 25 27  2  0  0  0  0
 25 80  1  0  0  0  0
 26 82  1  0  0  0  0
 27 83  1  0  0  0  0
 28 63  2  0  0  0  0
 29 34  1  0  0  0  0
 29 84  1  0  0  0  0
 30 65  1  0  0  0  0
 30 69  1  0  0  0  0
 31 66  1  0  0  0  0
 31 84  1  0  0  0  0
 32 33  1  0  0  0  0
 32 35  2  0  0  0  0
 32 44  1  0  0  0  0
 33 66  1  0  0  0  0
 33 74  2  0  0  0  0
 34 64  2  0  0  0  0
 35 81  1  0  0  0  0
 36 70  1  0  0  0  0
 36 75  2  0  0  0  0
 37 53  1  0  0  0  0
 37 71  1  0  0  0  0
 37 76  2  0  0  0  0
 38 60  1  0  0  0  0
 38 67  1  0  0  0  0
 38 77  2  0  0  0  0
 39 61  1  0  0  0  0
 39 72  1  0  0  0  0
 39 78  2  0  0  0  0
 40 64  1  0  0  0  0
 40 68  1  0  0  0  0
 40 79  2  0  0  0  0
 41 45  1  0  0  0  0
 42 53  1  0  0  0  0
 43 67  1  0  0  0  0
 44 49  1  0  0  0  0
 45 47  1  0  0  0  0
 46 48  1  0  0  0  0
 46 50  1  0  0  0  0
 47 52  1  0  0  0  0
 48 54  1  0  0  0  0
 49 66  1  0  0  0  0
 50 68  1  0  0  0  0
 51 54  1  0  0  0  0
 51 68  1  0  0  0  0
 52 71  1  0  0  0  0
 53 67  1  0  0  0  0
 54 65  1  0  0  0  0
 55 61  1  0  0  0  0
 56 62  1  0  0  0  0
 57 62  1  0  0  0  0
 58 62  1  0  0  0  0
 59 73  1  0  0  0  0
 60 62  1  0  0  0  0
 60 72  1  0  0  0  0
 61 73  1  0  0  0  0
 63 65  1  0  0  0  0
M  CHG  1  73   1
M  ISO  4  35 101  40 100  64 100  81 101
M  END
> <Batch ID>
0113

> <Smiles>
CNC(C)C(=O)NC(C(=O)N1Cc2cc([101O:1][101CH:1]=C3CCN(c4ccc(C=[100N:0][100C:0](=O)N5CCCC(n6nc(-c7ccc(Oc8ccc(F)cc8F)cc7)c(C(N)=O)c6N)C5)s4)C3=O)ccc2CC1C(=O)NC1CCCc2ccccc21)C(C)(C)C

> <Shape>
0.357

> <Color>
0.133

> <Negative vol penalty>
0.000

$$$$

  -OEChem-04052301343D

 86 94  0     1  0  0  0  0  0999 V2000
  -31.5118  -17.7531   20.5454 C   0  0  0  0  0  0  0  0  0  0  0  0
  -30.2464  -18.2723   20.2913 C   0  0  0  0  0  0  0  0  0  0  0  0
  -29.2026  -28.0667   19.1053 C   0  0  0  0  0  0  0  0  0  0  0  0
  -28.1570  -26.1799   20.1932 C   0  0  0  0  0  0  0  0  0  0  0  0
  -31.6824  -16.3775   20.6950 C   0  0  0  0  0  0  0  0  0  0  0  0
  -29.1510  -17.4160   20.1855 C   0  0  0  0  0  0  0  0  0  0  0  0
  -25.1067  -19.1131   22.7170 C   0  0  0  0  0  0  0  0  0  0  0  0
  -30.3633  -27.3161   18.9188 C   0  0  0  0  0  0  0  0  0  0  0  0
  -29.3177  -25.4291   20.0066 C   0  0  0  0  0  0  0  0  0  0  0  0
  -24.3614  -20.1285   22.1193 C   0  0  0  0  0  0  0  0  0  0  0  0
  -30.8044  -23.7273   17.4939 C   0  0  0  0  0  0  0  0  0  0  0  0
  -30.6612  -22.4202   17.0285 C   0  0  0  0  0  0  0  0  0  0  0  0
  -20.3963  -26.8684   22.7741 C   0  0  0  0  0  0  0  0  0  0  0  0
  -22.7485  -18.4973   21.3731 C   0  0  0  0  0  0  0  0  0  0  0  0
  -17.8665  -27.8752   22.1666 C   0  0  0  0  0  0  0  0  0  0  0  0
  -31.7339  -21.5907   19.0281 C   0  0  0  0  0  0  0  0  0  0  0  0
  -28.0994  -27.4987   19.7426 C   0  0  0  0  0  0  0  0  0  0  0  0
  -20.0300  -28.1424   23.2082 C   0  0  0  0  0  0  0  0  0  0  0  0
  -25.8035  -28.3761   19.0596 C   0  0  0  0  0  0  0  0  0  0  0  0
  -30.5870  -15.5047   20.6006 C   0  0  0  0  0  0  0  0  0  0  0  0
  -24.6834  -17.7786   22.6378 C   0  0  0  0  0  0  0  0  0  0  0  0
  -29.3073  -16.0272   20.3326 C   0  0  0  0  0  0  0  0  0  0  0  0
  -23.4888  -17.4671   21.9729 C   0  0  0  0  0  0  0  0  0  0  0  0
  -19.4978  -26.0979   22.0362 C   0  0  0  0  0  0  0  0  0  0  0  0
  -18.7651  -28.6457   22.9045 C   0  0  0  0  0  0  0  0  0  0  0  0
  -30.4209  -25.9972   19.3694 C   0  0  0  0  0  0  0  0  0  0  0  0
  -23.1836  -19.8204   21.4448 C   0  0  0  0  0  0  0  0  0  0  0  0
  -31.4125  -23.9661   18.7263 C   0  0  0  0  0  0  0  0  0  0  0  0
  -31.1259  -21.3519   17.7956 C   0  0  0  0  0  0  0  0  0  0  0  0
  -18.2329  -26.6012   21.7324 C   0  0  0  0  0  0  0  0  0  0  0  0
  -31.8772  -22.8978   19.4934 C   0  0  0  0  0  0  0  0  0  0  0  0
  -26.9004  -28.2738   19.9361 C   0  0  0  0  0  0  0  0  0  0  0  0
  -24.9325  -29.2253   19.6973 C   0  0  0  0  0  0  0  0  0  0  0  0
  -21.0110  -28.9384   23.9932 C   0  0  0  0  0  0  0  0  0  0  0  0
  -25.5910  -27.7585   17.7832 C   0  0  0  0  0  0  0  0  0  0  0  0
  -25.8872  -15.1138   21.3913 C   0  0  0  0  0  0  0  0  0  0  0  0
  -21.2087  -22.8489   21.2619 C   0  0  0  0  0  0  0  0  0  0  0  0
  -23.3253  -13.7444   22.8349 C   0  0  0  0  0  0  0  0  0  0  0  0
  -20.1700  -14.1023   24.0850 C   0  0  0  0  0  0  0  0  0  0  0  0
  -22.2611  -30.8570   24.2635 C   0  0  0  0  0  0  0  0  0  0  0  0
  -30.8284  -14.0209   20.7225 C   0  0  0  0  0  0  0  0  0  0  0  0
  -25.4847  -16.6981   23.3107 C   0  0  0  0  0  0  0  0  0  0  0  0
  -22.9804  -16.0527   21.8766 C   0  0  0  0  0  0  0  0  0  0  0  0
  -29.5555  -13.2149   20.9682 C   0  0  0  0  0  0  0  0  0  0  0  0
  -25.5515  -32.1570   23.7705 C   0  0  0  0  0  0  0  0  0  0  0  0
  -28.4504  -13.6586   20.0150 C   0  0  0  0  0  0  0  0  0  0  0  0
  -26.1175  -31.2572   22.6700 C   0  0  0  0  0  0  0  0  0  0  0  0
  -24.6536  -31.3778   24.7280 C   0  0  0  0  0  0  0  0  0  0  0  0
  -24.1210  -29.7287   22.9604 C   0  0  0  0  0  0  0  0  0  0  0  0
  -28.0905  -15.1328   20.2356 C   0  0  1  0  0  0  0  0  0  0  0  0
  -25.2279  -15.3122   22.7268 C   0  0  1  0  0  0  0  0  0  0  0  0
  -24.9955  -30.4873   21.9484 C   0  0  2  0  0  0  0  0  0  0  0  0
  -21.5060  -28.3647   25.3067 C   0  0  0  0  0  0  0  0  0  0  0  0
  -18.3194  -12.7966   25.1657 C   0  0  0  0  0  0  0  0  0  0  0  0
  -22.6162  -12.5176   20.1327 C   0  0  0  0  0  0  0  0  0  0  0  0
  -20.3264  -12.0432   21.0273 C   0  0  0  0  0  0  0  0  0  0  0  0
  -22.3212  -10.9826   22.0849 C   0  0  0  0  0  0  0  0  0  0  0  0
  -20.2665  -15.7670   26.5301 C   0  0  0  0  0  0  0  0  0  0  0  0
  -21.1475  -24.2331   21.8721 C   0  0  0  0  0  0  0  0  0  0  0  0
  -22.5131  -22.1021   21.4618 C   0  0  0  0  0  0  0  0  0  1  0  0
  -21.9005  -13.4515   22.4309 C   0  0  1  0  0  0  0  0  0  0  0  0
  -19.5504  -13.6589   25.3980 C   0  0  2  0  0  0  0  0  0  0  0  0
  -21.8014  -12.2752   21.4189 C   0  0  0  0  0  0  0  0  0  0  0  0
  -26.7430  -29.0002   21.0459 N   0  0  0  0  0  0  0  0  0  0  0  0
  -21.3777  -30.0972   23.5288 N   0  0  0  0  0  0  0  0  0  0  0  0
  -25.5371  -29.5670   20.8710 N   0  0  0  0  0  0  0  0  0  0  0  0
  -23.8024  -15.0306   22.5454 N   0  0  0  0  0  0  0  0  0  0  0  0
  -23.6230  -30.6480   23.9907 N   0  0  0  0  0  0  0  0  0  0  0  0
  -18.3742  -29.9333   23.3345 N   0  0  0  0  0  0  0  0  0  0  0  0
  -23.7160  -29.7056   19.3628 N   0  0  0  0  0  0  0  0  0  0  0  0
  -26.5877  -26.9143   17.2752 N   0  0  0  0  0  0  0  0  0  0  0  0
  -19.8644  -24.8310   21.6049 N   0  0  0  0  0  0  0  0  0  0  0  0
  -27.2589  -15.2796   21.4109 N   0  0  0  0  0  0  0  0  0  0  0  0
  -21.1606  -13.2377   23.6700 N   0  0  0  0  0  0  0  0  0  0  0  0
  -19.1482  -14.8439   26.2073 N   0  3  0  0  0  0  0  0  0  0  0  0
  -24.5552  -27.9627   17.1056 O   0  0  0  0  0  0  0  0  0  0  0  0
  -25.2022  -14.8297   20.4157 O   0  0  0  0  0  0  0  0  0  0  0  0
  -20.2686  -22.3528   20.6423 O   0  0  0  0  0  0  0  0  0  0  0  0
  -23.9881  -12.8667   23.3935 O   0  0  0  0  0  0  0  0  0  0  0  0
  -19.8086  -15.1125   23.4855 O   0  0  0  0  0  0  0  0  0  0  0  0
  -21.8732  -31.6510   25.1218 O   0  0  0  0  0  0  0  0  0  0  0  0
  -31.5532  -25.2643   19.1873 O   0  0  0  0  0  0  0  0  0  0  0  0
  -22.4547  -20.8095   20.8599 O   0  0  0  0  0  0  0  0  0  1  0  0
  -30.9869  -20.0967   17.3492 F   0  0  0  0  0  0  0  0  0  0  0  0
  -17.3617  -25.8694   21.0233 F   0  0  0  0  0  0  0  0  0  0  0  0
  -32.4611  -23.1210   20.6788 F   0  0  0  0  0  0  0  0  0  0  0  0
  1  2  1  0  0  0  0
  1  5  2  0  0  0  0
  2  6  2  0  0  0  0
  3  8  2  0  0  0  0
  3 17  1  0  0  0  0
  4  9  1  0  0  0  0
  4 17  2  0  0  0  0
  5 20  1  0  0  0  0
  6 22  1  0  0  0  0
  7 10  2  0  0  0  0
  7 21  1  0  0  0  0
  8 26  1  0  0  0  0
  9 26  2  0  0  0  0
 10 27  1  0  0  0  0
 11 12  2  0  0  0  0
 11 28  1  0  0  0  0
 12 29  1  0  0  0  0
 13 18  2  0  0  0  0
 13 24  1  0  0  0  0
 14 23  1  0  0  0  0
 14 27  2  0  0  0  0
 15 25  2  0  0  0  0
 15 30  1  0  0  0  0
 16 29  2  0  0  0  0
 16 31  1  0  0  0  0
 17 32  1  0  0  0  0
 18 25  1  0  0  0  0
 18 34  1  0  0  0  0
 19 32  1  0  0  0  0
 19 33  2  0  0  0  0
 19 35  1  0  0  0  0
 20 22  2  0  0  0  0
 20 41  1  0  0  0  0
 21 23  2  0  0  0  0
 21 42  1  0  0  0  0
 22 50  1  0  0  0  0
 23 43  1  0  0  0  0
 24 30  2  0  0  0  0
 24 72  1  0  0  0  0
 25 69  1  0  0  0  0
 26 82  1  0  0  0  0
 27 83  1  0  0  0  0
 28 31  2  0  0  0  0
 28 82  1  0  0  0  0
 29 84  1  0  0  0  0
 30 85  1  0  0  0  0
 31 86  1  0  0  0  0
 32 64  2  0  0  0  0
 33 66  1  0  0  0  0
 33 70  1  0  0  0  0
 34 53  1  0  0  0  0
 34 65  2  0  0  0  0
 35 71  1  0  0  0  0
 35 76  2  0  0  0  0
 36 51  1  0  0  0  0
 36 73  1  0  0  0  0
 36 77  2  0  0  0  0
 37 59  1  0  0  0  0
 37 60  1  0  0  0  0
 37 78  2  0  0  0  0
 38 61  1  0  0  0  0
 38 67  1  0  0  0  0
 38 79  2  0  0  0  0
 39 62  1  0  0  0  0
 39 74  1  0  0  0  0
 39 80  2  0  0  0  0
 40 65  1  0  0  0  0
 40 68  1  0  0  0  0
 40 81  2  0  0  0  0
 41 44  1  0  0  0  0
 42 51  1  0  0  0  0
 43 67  1  0  0  0  0
 44 46  1  0  0  0  0
 45 47  1  0  0  0  0
 45 48  1  0  0  0  0
 46 50  1  0  0  0  0
 47 52  1  0  0  0  0
 48 68  1  0  0  0  0
 49 52  1  0  0  0  0
 49 68  1  0  0  0  0
 50 73  1  0  0  0  0
 51 67  1  0  0  0  0
 52 66  1  0  0  0  0
 54 62  1  0  0  0  0
 55 63  1  0  0  0  0
 56 63  1  0  0  0  0
 57 63  1  0  0  0  0
 58 75  1  0  0  0  0
 59 72  1  0  0  0  0
 60 83  1  0  0  0  0
 61 63  1  0  0  0  0
 61 74  1  0  0  0  0
 62 75  1  0  0  0  0
 64 66  1  0  0  0  0
M  CHG  1  75   1
M  ISO  4  40 100  60 101  65 100  83 101
M  END
> <Batch ID>
0113

> <Smiles>
CNC(C)C(=O)NC(C(=O)N1Cc2cc([101O:1][101CH2:1]C(=O)CNc3cc(C(C)=[100N:0][100C:0](=O)N4CCCC(n5nc(-c6ccc(Oc7ccc(F)cc7F)cc6)c(C(N)=O)c5N)C4)c(N)cc3F)ccc2CC1C(=O)NC1CCCc2ccccc21)C(C)(C)C

> <Shape>
0.268

> <Color>
0.056

> <Negative vol penalty>
0.000

$$$$

  -OEChem-04052301343D

 86 94  0     1  0  0  0  0  0999 V2000
  -17.0420  -29.9922   23.7154 C   0  0  0  0  0  0  0  0  0  0  0  0
  -18.3308  -30.5108   23.6404 C   0  0  0  0  0  0  0  0  0  0  0  0
  -25.0797  -13.5285   20.0280 C   0  0  0  0  0  0  0  0  0  0  0  0
  -24.8266  -14.4475   22.2480 C   0  0  0  0  0  0  0  0  0  0  0  0
  -16.8231  -28.6354   23.4804 C   0  0  0  0  0  0  0  0  0  0  0  0
  -19.4015  -29.6727   23.3313 C   0  0  0  0  0  0  0  0  0  0  0  0
  -25.7239  -29.7033   19.9635 C   0  0  0  0  0  0  0  0  0  0  0  0
  -24.9387  -12.2407   20.5450 C   0  0  0  0  0  0  0  0  0  0  0  0
  -24.6855  -13.1597   22.7650 C   0  0  0  0  0  0  0  0  0  0  0  0
  -27.0605  -29.3698   20.1786 C   0  0  0  0  0  0  0  0  0  0  0  0
  -22.4216  -10.2326   21.5768 C   0  0  0  0  0  0  0  0  0  0  0  0
  -21.5819   -9.3499   20.8977 C   0  0  0  0  0  0  0  0  0  0  0  0
  -26.5521  -27.0578   19.7143 C   0  0  0  0  0  0  0  0  0  0  0  0
  -28.8324  -21.3607   24.5280 C   0  0  0  0  0  0  0  0  0  0  0  0
  -30.1241  -23.1759   25.4626 C   0  0  0  0  0  0  0  0  0  0  0  0
  -30.6231  -22.3543   23.2461 C   0  0  0  0  0  0  0  0  0  0  0  0
  -23.4417   -7.8472   20.5514 C   0  0  0  0  0  0  0  0  0  0  0  0
  -25.0237  -14.6319   20.8795 C   0  0  0  0  0  0  0  0  0  0  0  0
  -24.1461  -16.8084   19.8794 C   0  0  0  0  0  0  0  0  0  0  0  0
  -17.8904  -27.7821   23.1589 C   0  0  0  0  0  0  0  0  0  0  0  0
  -24.7878  -28.7132   19.6323 C   0  0  0  0  0  0  0  0  0  0  0  0
  -19.1968  -28.3030   23.0932 C   0  0  0  0  0  0  0  0  0  0  0  0
  -25.2048  -27.3817   19.4930 C   0  0  0  0  0  0  0  0  0  0  0  0
  -29.0966  -22.2396   25.5783 C   0  0  0  0  0  0  0  0  0  0  0  0
  -29.5957  -21.4180   23.3618 C   0  0  0  0  0  0  0  0  0  0  0  0
  -30.8873  -23.2332   24.2964 C   0  0  0  0  0  0  0  0  0  0  0  0
  -24.7416  -12.0563   21.9135 C   0  0  0  0  0  0  0  0  0  0  0  0
  -27.4742  -28.0465   20.0569 C   0  0  0  0  0  0  0  0  0  0  0  0
  -23.7714   -9.9227   21.7431 C   0  0  0  0  0  0  0  0  0  0  0  0
  -22.0919   -8.1571   20.3850 C   0  0  0  0  0  0  0  0  0  0  0  0
  -24.2815   -8.7300   21.2304 C   0  0  0  0  0  0  0  0  0  0  0  0
  -25.1700  -15.9624   20.3462 C   0  0  0  0  0  0  0  0  0  0  0  0
  -24.7984  -17.9500   19.4822 C   0  0  0  0  0  0  0  0  0  0  0  0
  -34.0274  -25.0489   25.0240 C   0  0  0  0  0  0  0  0  0  0  0  0
  -33.0108  -24.1857   25.0759 C   0  0  0  0  0  0  0  0  0  0  0  0
  -22.7319  -16.5826   19.8111 C   0  0  0  0  0  0  0  0  0  0  0  0
  -22.1476  -27.5782   20.9907 C   0  0  0  0  0  0  0  0  0  0  0  0
  -21.9156  -25.8969   18.2264 C   0  0  0  0  0  0  0  0  0  0  0  0
  -31.9214  -25.1423   23.1099 C   0  0  0  0  0  0  0  0  0  0  0  0
  -23.4886  -24.5505   15.5135 C   0  0  0  0  0  0  0  0  0  0  0  0
  -29.9890  -20.4482   21.0703 C   0  0  0  0  0  0  0  0  0  0  0  0
  -17.6109  -26.3135   22.9597 C   0  0  0  0  0  0  0  0  0  0  0  0
  -23.3549  -29.0932   19.3773 C   0  0  0  0  0  0  0  0  0  0  0  0
  -24.2431  -26.2844   19.1195 C   0  0  0  0  0  0  0  0  0  0  0  0
  -18.7486  -25.5651   22.2698 C   0  0  0  0  0  0  0  0  0  0  0  0
  -29.0184  -19.4559   17.7915 C   0  0  0  0  0  0  0  0  0  0  0  0
  -20.0887  -25.9339   22.8984 C   0  0  0  0  0  0  0  0  0  0  0  0
  -27.8244  -18.5292   18.0317 C   0  0  0  0  0  0  0  0  0  0  0  0
  -30.0872  -19.2953   18.8712 C   0  0  0  0  0  0  0  0  0  0  0  0
  -28.4076  -18.5043   20.4906 C   0  0  0  0  0  0  0  0  0  0  0  0
  -20.3807  -27.4306   22.7363 C   0  0  1  0  0  0  0  0  0  0  0  0
  -22.3876  -27.9261   19.5488 C   0  0  1  0  0  0  0  0  0  0  0  0
  -27.2758  -18.6768   19.4645 C   0  0  2  0  0  0  0  0  0  0  0  0
  -28.2810  -22.1771   26.8256 C   0  0  0  0  0  0  0  0  0  0  0  0
  -23.0412  -23.2005   13.4459 C   0  0  0  0  0  0  0  0  0  0  0  0
  -21.6843  -23.3738   19.9266 C   0  0  0  0  0  0  0  0  0  0  0  0
  -22.1951  -22.0297   17.8771 C   0  0  0  0  0  0  0  0  0  0  0  0
  -20.1453  -23.4491   17.9568 C   0  0  0  0  0  0  0  0  0  0  0  0
  -24.4338  -26.7285   13.7467 C   0  0  0  0  0  0  0  0  0  0  0  0
  -30.6861  -25.1016   22.2059 C   0  0  0  0  0  0  0  0  0  0  0  0
  -30.3255  -26.4580   21.5996 C   0  0  0  0  0  0  0  0  0  0  0  0
  -29.0452  -26.4113   20.7737 C   0  0  0  0  0  0  0  0  0  1  0  0
  -22.4100  -24.5532   17.7476 C   0  0  1  0  0  0  0  0  0  0  0  0
  -23.1605  -24.5987   14.0322 C   0  0  2  0  0  0  0  0  0  0  0  0
  -21.6266  -23.3716   18.3860 C   0  0  0  0  0  0  0  0  0  0  0  0
  -26.3807  -16.5190   20.2544 N   0  0  0  0  0  0  0  0  0  0  0  0
  -26.1218  -17.7269   19.7253 N   0  0  0  0  0  0  0  0  0  0  0  0
  -22.8517  -26.7053   18.8866 N   0  0  0  0  0  0  0  0  0  0  0  0
  -29.4953  -19.4520   20.2016 N   0  0  0  0  0  0  0  0  0  0  0  0
  -24.3634  -19.1128   18.9520 N   0  0  0  0  0  0  0  0  0  0  0  0
  -22.2289  -15.3544   20.2614 N   0  0  0  0  0  0  0  0  0  0  0  0
  -29.3270  -20.5248   22.2952 N   0  0  0  0  0  0  0  0  0  0  0  0
  -20.8321  -27.7147   21.3910 N   0  0  0  0  0  0  0  0  0  0  0  0
  -22.3502  -24.5919   16.2904 N   0  0  0  0  0  0  0  0  0  0  0  0
  -31.9577  -24.2068   24.1764 N   0  0  0  0  0  0  0  0  0  0  0  0
  -24.2252  -25.3305   13.2893 N   0  3  0  0  0  0  0  0  0  0  0  0
  -21.9396  -17.4382   19.3489 O   0  0  0  0  0  0  0  0  0  0  0  0
  -23.0862  -27.2116   21.6881 O   0  0  0  0  0  0  0  0  0  0  0  0
  -20.7439  -26.2202   18.0159 O   0  0  0  0  0  0  0  0  0  0  0  0
  -32.7964  -25.9883   22.9005 O   0  0  0  0  0  0  0  0  0  0  0  0
  -24.6395  -24.4791   15.9389 O   0  0  0  0  0  0  0  0  0  0  0  0
  -30.9118  -21.1976   20.7405 O   0  0  0  0  0  0  0  0  0  0  0  0
  -24.6036  -10.7998   22.4183 O   0  0  0  0  0  0  0  0  0  0  0  0
  -28.7780  -27.7182   20.2669 O   0  0  0  0  0  0  0  0  0  1  0  0
  -21.2851   -7.3088   19.7342 F   0  0  0  0  0  0  0  0  0  0  0  0
  -25.5771   -8.4262   21.3881 F   0  0  0  0  0  0  0  0  0  0  0  0
  1  2  1  0  0  0  0
  1  5  2  0  0  0  0
  2  6  2  0  0  0  0
  3  8  2  0  0  0  0
  3 18  1  0  0  0  0
  4  9  1  0  0  0  0
  4 18  2  0  0  0  0
  5 20  1  0  0  0  0
  6 22  1  0  0  0  0
  7 10  2  0  0  0  0
  7 21  1  0  0  0  0
  8 27  1  0  0  0  0
  9 27  2  0  0  0  0
 10 28  1  0  0  0  0
 11 12  2  0  0  0  0
 11 29  1  0  0  0  0
 12 30  1  0  0  0  0
 13 23  1  0  0  0  0
 13 28  2  0  0  0  0
 14 24  1  0  0  0  0
 14 25  2  0  0  0  0
 15 24  2  0  0  0  0
 15 26  1  0  0  0  0
 16 25  1  0  0  0  0
 16 26  2  0  0  0  0
 17 30  2  0  0  0  0
 17 31  1  0  0  0  0
 18 32  1  0  0  0  0
 19 32  1  0  0  0  0
 19 33  2  0  0  0  0
 19 36  1  0  0  0  0
 20 22  2  0  0  0  0
 20 42  1  0  0  0  0
 21 23  2  0  0  0  0
 21 43  1  0  0  0  0
 22 51  1  0  0  0  0
 23 44  1  0  0  0  0
 24 54  1  0  0  0  0
 25 72  1  0  0  0  0
 26 75  1  0  0  0  0
 27 83  1  0  0  0  0
 28 84  1  0  0  0  0
 29 31  2  0  0  0  0
 29 83  1  0  0  0  0
 30 85  1  0  0  0  0
 31 86  1  0  0  0  0
 32 66  2  0  0  0  0
 33 67  1  0  0  0  0
 33 70  1  0  0  0  0
 34 35  2  0  0  0  0
 35 75  1  0  0  0  0
 36 71  1  0  0  0  0
 36 77  2  0  0  0  0
 37 52  1  0  0  0  0
 37 73  1  0  0  0  0
 37 78  2  0  0  0  0
 38 63  1  0  0  0  0
 38 68  1  0  0  0  0
 38 79  2  0  0  0  0
 39 60  1  0  0  0  0
 39 75  1  0  0  0  0
 39 80  2  0  0  0  0
 40 64  1  0  0  0  0
 40 74  1  0  0  0  0
 40 81  2  0  0  0  0
 41 69  1  0  0  0  0
 41 72  1  0  0  0  0
 41 82  2  0  0  0  0
 42 45  1  0  0  0  0
 43 52  1  0  0  0  0
 44 68  1  0  0  0  0
 45 47  1  0  0  0  0
 46 48  1  0  0  0  0
 46 49  1  0  0  0  0
 47 51  1  0  0  0  0
 48 53  1  0  0  0  0
 49 69  1  0  0  0  0
 50 53  1  0  0  0  0
 50 69  1  0  0  0  0
 51 73  1  0  0  0  0
 52 68  1  0  0  0  0
 53 67  1  0  0  0  0
 55 64  1  0  0  0  0
 56 65  1  0  0  0  0
 57 65  1  0  0  0  0
 58 65  1  0  0  0  0
 59 76  1  0  0  0  0
 60 61  1  0  0  0  0
 61 62  1  0  0  0  0
 62 84  1  0  0  0  0
 63 65  1  0  0  0  0
 63 74  1  0  0  0  0
 64 76  1  0  0  0  0
 66 67  1  0  0  0  0
M  CHG  1  76   1
M  ISO  4  41 100  62 101  72 100  84 101
M  END
> <Batch ID>
0113

> <Smiles>
C=CN(C(=O)CC[101CH2:1][101O:1]c1ccc2c(c1)CN(C(=O)C(NC(=O)C(C)NC)C(C)(C)C)C(C(=O)NC1CCCc3ccccc31)C2)c1cc(C)cc([100NH:0][100C:0](=O)N2CCCC(n3nc(-c4ccc(Oc5ccc(F)cc5F)cc4)c(C(N)=O)c3N)C2)c1

> <Shape>
0.225

> <Color>
0.076

> <Negative vol penalty>
0.000

$$$$

  -OEChem-04052301343D

 85 93  0     1  0  0  0  0  0999 V2000
  -33.9782  -30.0128   20.6977 C   0  0  0  0  0  0  0  0  0  0  0  0
  -33.4317  -29.1545   21.6464 C   0  0  0  0  0  0  0  0  0  0  0  0
  -23.3088   -9.7846   19.9257 C   0  0  0  0  0  0  0  0  0  0  0  0
  -23.7491   -9.9514   22.2954 C   0  0  0  0  0  0  0  0  0  0  0  0
  -33.8441  -29.7255   19.3400 C   0  0  0  0  0  0  0  0  0  0  0  0
  -32.7499  -28.0089   21.2379 C   0  0  0  0  0  0  0  0  0  0  0  0
  -32.6285  -22.5863   24.0817 C   0  0  0  0  0  0  0  0  0  0  0  0
  -22.5935   -8.6067   20.1415 C   0  0  0  0  0  0  0  0  0  0  0  0
  -23.0338   -8.7735   22.5113 C   0  0  0  0  0  0  0  0  0  0  0  0
  -31.6999  -21.9972   24.9387 C   0  0  0  0  0  0  0  0  0  0  0  0
  -19.7953   -7.8317   22.7249 C   0  0  0  0  0  0  0  0  0  0  0  0
  -18.8892   -7.8106   23.7851 C   0  0  0  0  0  0  0  0  0  0  0  0
  -30.1782  -15.1290   22.9293 C   0  0  0  0  0  0  0  0  0  0  0  0
  -30.7200  -20.8330   23.0670 C   0  0  0  0  0  0  0  0  0  0  0  0
  -29.4482  -14.8556   25.6080 C   0  0  0  0  0  0  0  0  0  0  0  0
  -20.1097   -5.9848   24.7920 C   0  0  0  0  0  0  0  0  0  0  0  0
  -23.8867  -10.4569   21.0027 C   0  0  0  0  0  0  0  0  0  0  0  0
  -30.2476  -13.8804   23.5472 C   0  0  0  0  0  0  0  0  0  0  0  0
  -24.1213  -12.9875   20.7818 C   0  0  0  0  0  0  0  0  0  0  0  0
  -33.1686  -28.5707   18.9149 C   0  0  0  0  0  0  0  0  0  0  0  0
  -32.6028  -22.3111   22.7069 C   0  0  0  0  0  0  0  0  0  0  0  0
  -32.6055  -27.7065   19.8732 C   0  0  0  0  0  0  0  0  0  0  0  0
  -31.6509  -21.4179   22.1950 C   0  0  0  0  0  0  0  0  0  0  0  0
  -29.3788  -16.1043   24.9901 C   0  0  0  0  0  0  0  0  0  0  0  0
  -22.4560   -8.1012   21.4343 C   0  0  0  0  0  0  0  0  0  0  0  0
  -30.7437  -21.1226   24.4310 C   0  0  0  0  0  0  0  0  0  0  0  0
  -20.8586   -6.9293   22.6982 C   0  0  0  0  0  0  0  0  0  0  0  0
  -29.7438  -16.2410   23.6508 C   0  0  0  0  0  0  0  0  0  0  0  0
  -19.0464   -6.8872   24.8186 C   0  0  0  0  0  0  0  0  0  0  0  0
  -29.8826  -13.7437   24.8865 C   0  0  0  0  0  0  0  0  0  0  0  0
  -21.0158   -6.0059   23.7317 C   0  0  0  0  0  0  0  0  0  0  0  0
  -24.6262  -11.6734   20.7803 C   0  0  0  0  0  0  0  0  0  0  0  0
  -25.2159  -13.7761   20.5238 C   0  0  0  0  0  0  0  0  0  0  0  0
  -29.8619  -17.8805   26.3454 C   0  0  0  0  0  0  0  0  0  0  0  0
  -30.7005  -12.7236   22.7906 C   0  0  0  0  0  0  0  0  0  0  0  0
  -22.7827  -13.4536   20.9973 C   0  0  0  0  0  0  0  0  0  0  0  0
  -31.0935  -12.8389   21.3674 C   0  0  0  0  0  0  0  0  0  0  0  0
  -32.1566  -24.0447   20.0803 C   0  0  0  0  0  0  0  0  0  0  0  0
  -32.9125  -21.2657   18.5876 C   0  0  0  0  0  0  0  0  0  0  0  0
  -33.0717  -17.8591   18.7145 C   0  0  0  0  0  0  0  0  0  0  0  0
  -33.0083  -28.3267   17.4352 C   0  0  0  0  0  0  0  0  0  0  0  0
  -33.6282  -22.9340   21.7997 C   0  0  0  0  0  0  0  0  0  0  0  0
  -31.5938  -21.0736   20.7299 C   0  0  0  0  0  0  0  0  0  0  0  0
  -32.5953  -26.8971   17.0948 C   0  0  0  0  0  0  0  0  0  0  0  0
  -29.4458  -13.7209   18.3073 C   0  0  0  0  0  0  0  0  0  0  0  0
  -31.4528  -26.4423   17.9974 C   0  0  0  0  0  0  0  0  0  0  0  0
  -27.9821  -13.3784   18.5830 C   0  0  0  0  0  0  0  0  0  0  0  0
  -30.3885  -12.7483   19.0087 C   0  0  0  0  0  0  0  0  0  0  0  0
  -28.6954  -12.3029   20.7648 C   0  0  0  0  0  0  0  0  0  0  0  0
  -31.8802  -26.4410   19.4701 C   0  0  1  0  0  0  0  0  0  0  0  0
  -33.1853  -22.9809   20.3406 C   0  0  1  0  0  0  0  0  0  0  0  0
  -27.7134  -13.2801   20.0953 C   0  0  2  0  0  0  0  0  0  0  0  0
  -33.6959  -15.8631   17.3274 C   0  0  0  0  0  0  0  0  0  0  0  0
  -30.3136  -21.5493   17.0143 C   0  0  0  0  0  0  0  0  0  0  0  0
  -30.5159  -19.1359   16.3797 C   0  0  0  0  0  0  0  0  0  0  0  0
  -32.2680  -20.7622   15.6671 C   0  0  0  0  0  0  0  0  0  0  0  0
  -35.1812  -17.0461   20.6245 C   0  0  0  0  0  0  0  0  0  0  0  0
  -28.4561  -17.7914   22.3883 C   0  0  0  0  0  0  0  0  0  0  0  0
  -29.5146  -19.0995   27.1573 C   0  0  0  0  0  0  0  0  0  0  0  0
  -30.2472  -20.3136   26.6116 C   0  0  0  0  0  0  0  0  0  1  0  0
  -32.1331  -20.0703   18.0951 C   0  0  1  0  0  0  0  0  0  0  0  0
  -34.1776  -16.8878   18.3427 C   0  0  2  0  0  0  0  0  0  0  0  0
  -31.3073  -20.3872   16.8164 C   0  0  0  0  0  0  0  0  0  0  0  0
  -25.9393  -11.6257   20.5402 N   0  0  0  0  0  0  0  0  0  0  0  0
  -30.7934  -11.5254   23.3009 N   0  0  0  0  0  0  0  0  0  0  0  0
  -28.9399  -17.2159   25.7288 N   0  0  0  0  0  0  0  0  0  0  0  0
  -26.2687  -12.9197   20.3883 N   0  0  0  0  0  0  0  0  0  0  0  0
  -30.0830  -12.6517   20.4347 N   0  0  0  0  0  0  0  0  0  0  0  0
  -32.6138  -21.7130   19.8824 N   0  0  0  0  0  0  0  0  0  0  0  0
  -25.3707  -15.1116   20.4017 N   0  0  0  0  0  0  0  0  0  0  0  0
  -21.7787  -12.5088   21.2496 N   0  0  0  0  0  0  0  0  0  0  0  0
  -32.6913  -25.2780   19.7599 N   0  0  0  0  0  0  0  0  0  0  0  0
  -33.1015  -18.9919   17.9290 N   0  0  0  0  0  0  0  0  0  0  0  0
  -34.6572  -16.1613   19.5523 N   0  3  0  0  0  0  0  0  0  0  0  0
  -22.4827  -14.6707   20.9507 O   0  0  0  0  0  0  0  0  0  0  0  0
  -32.2747  -13.0881   21.1650 O   0  0  0  0  0  0  0  0  0  0  0  0
  -30.9659  -23.7668   20.1624 O   0  0  0  0  0  0  0  0  0  0  0  0
  -33.7604  -21.7791   17.8533 O   0  0  0  0  0  0  0  0  0  0  0  0
  -32.2602  -17.6336   19.6096 O   0  0  0  0  0  0  0  0  0  0  0  0
  -21.7578   -6.9520   21.6453 O   0  0  0  0  0  0  0  0  0  0  0  0
  -29.6826  -17.4539   23.0328 O   0  0  0  0  0  0  0  0  0  0  0  0
  -29.8357  -20.5468   25.2652 O   0  0  0  0  0  0  0  0  0  1  0  0
  -18.1770   -6.8681   25.8375 F   0  0  0  0  0  0  0  0  0  0  0  0
  -29.9461  -12.5485   25.4903 F   0  0  0  0  0  0  0  0  0  0  0  0
  -22.0361   -5.1372   23.7121 F   0  0  0  0  0  0  0  0  0  0  0  0
  1  2  1  0  0  0  0
  1  5  2  0  0  0  0
  2  6  2  0  0  0  0
  3  8  2  0  0  0  0
  3 17  1  0  0  0  0
  4  9  1  0  0  0  0
  4 17  2  0  0  0  0
  5 20  1  0  0  0  0
  6 22  1  0  0  0  0
  7 10  2  0  0  0  0
  7 21  1  0  0  0  0
  8 25  1  0  0  0  0
  9 25  2  0  0  0  0
 10 26  1  0  0  0  0
 11 12  2  0  0  0  0
 11 27  1  0  0  0  0
 12 29  1  0  0  0  0
 13 18  2  0  0  0  0
 13 28  1  0  0  0  0
 14 23  1  0  0  0  0
 14 26  2  0  0  0  0
 15 24  1  0  0  0  0
 15 30  2  0  0  0  0
 16 29  2  0  0  0  0
 16 31  1  0  0  0  0
 17 32  1  0  0  0  0
 18 30  1  0  0  0  0
 18 35  1  0  0  0  0
 19 32  1  0  0  0  0
 19 33  2  0  0  0  0
 19 36  1  0  0  0  0
 20 22  2  0  0  0  0
 20 41  1  0  0  0  0
 21 23  2  0  0  0  0
 21 42  1  0  0  0  0
 22 50  1  0  0  0  0
 23 43  1  0  0  0  0
 24 28  2  0  0  0  0
 24 66  1  0  0  0  0
 25 80  1  0  0  0  0
 26 82  1  0  0  0  0
 27 31  2  0  0  0  0
 27 80  1  0  0  0  0
 28 81  1  0  0  0  0
 29 83  1  0  0  0  0
 30 84  1  0  0  0  0
 31 85  1  0  0  0  0
 32 64  2  0  0  0  0
 33 67  1  0  0  0  0
 33 70  1  0  0  0  0
 34 59  1  0  0  0  0
 34 66  2  0  0  0  0
 35 37  1  0  0  0  0
 35 65  2  0  0  0  0
 36 71  1  0  0  0  0
 36 75  2  0  0  0  0
 37 68  1  0  0  0  0
 37 76  2  0  0  0  0
 38 51  1  0  0  0  0
 38 72  1  0  0  0  0
 38 77  2  0  0  0  0
 39 61  1  0  0  0  0
 39 69  1  0  0  0  0
 39 78  2  0  0  0  0
 40 62  1  0  0  0  0
 40 73  1  0  0  0  0
 40 79  2  0  0  0  0
 41 44  1  0  0  0  0
 42 51  1  0  0  0  0
 43 69  1  0  0  0  0
 44 46  1  0  0  0  0
 45 47  1  0  0  0  0
 45 48  1  0  0  0  0
 46 50  1  0  0  0  0
 47 52  1  0  0  0  0
 48 68  1  0  0  0  0
 49 52  1  0  0  0  0
 49 68  1  0  0  0  0
 50 72  1  0  0  0  0
 51 69  1  0  0  0  0
 52 67  1  0  0  0  0
 53 62  1  0  0  0  0
 54 63  1  0  0  0  0
 55 63  1  0  0  0  0
 56 63  1  0  0  0  0
 57 74  1  0  0  0  0
 58 81  1  0  0  0  0
 59 60  1  0  0  0  0
 60 82  1  0  0  0  0
 61 63  1  0  0  0  0
 61 73  1  0  0  0  0
 62 74  1  0  0  0  0
 64 67  1  0  0  0  0
M  CHG  1  74   1
M  ISO  4  35 100  37 100  60 101  82 101
M  END
> <Batch ID>
0113

> <Smiles>
CNC(C)C(=O)NC(C(=O)N1Cc2cc([101O:1][101CH2:1]C=CNc3cc(F)c([100C:0](=N)[100C:0](=O)N4CCCC(n5nc(-c6ccc(Oc7ccc(F)cc7F)cc6)c(C(N)=O)c5N)C4)cc3OC)ccc2CC1C(=O)NC1CCCc2ccccc21)C(C)(C)C

> <Shape>
0.168

> <Color>
0.171

> <Negative vol penalty>
0.000

$$$$

  -OEChem-04052301343D

 87 95  0     1  0  0  0  0  0999 V2000
  -37.3187  -28.4909   17.7280 C   0  0  0  0  0  0  0  0  0  0  0  0
  -36.5488  -27.3363   17.8256 C   0  0  0  0  0  0  0  0  0  0  0  0
  -23.0648   -9.8719   19.9509 C   0  0  0  0  0  0  0  0  0  0  0  0
  -23.8791   -9.8625   22.2255 C   0  0  0  0  0  0  0  0  0  0  0  0
  -37.4552  -29.3318   18.8318 C   0  0  0  0  0  0  0  0  0  0  0  0
  -35.9157  -27.0214   19.0275 C   0  0  0  0  0  0  0  0  0  0  0  0
  -31.1243  -25.5219   18.3646 C   0  0  0  0  0  0  0  0  0  0  0  0
  -22.3344   -8.7117   20.2076 C   0  0  0  0  0  0  0  0  0  0  0  0
  -23.1487   -8.7022   22.4822 C   0  0  0  0  0  0  0  0  0  0  0  0
  -30.9214  -24.2150   17.9235 C   0  0  0  0  0  0  0  0  0  0  0  0
  -19.9409   -7.8777   23.1538 C   0  0  0  0  0  0  0  0  0  0  0  0
  -19.2124   -7.8219   24.3420 C   0  0  0  0  0  0  0  0  0  0  0  0
  -30.4321  -23.5341   20.1854 C   0  0  0  0  0  0  0  0  0  0  0  0
  -20.4832   -5.8858   25.0302 C   0  0  0  0  0  0  0  0  0  0  0  0
  -23.8372  -10.4473   20.9599 C   0  0  0  0  0  0  0  0  0  0  0  0
  -29.1089  -17.2036   19.8753 C   0  0  0  0  0  0  0  0  0  0  0  0
  -29.3897  -16.7839   21.1990 C   0  0  0  0  0  0  0  0  0  0  0  0
  -24.1602  -12.9757   20.8558 C   0  0  0  0  0  0  0  0  0  0  0  0
  -36.8155  -29.0320   20.0449 C   0  0  0  0  0  0  0  0  0  0  0  0
  -30.9931  -25.8431   19.7233 C   0  0  0  0  0  0  0  0  0  0  0  0
  -36.0448  -27.8584   20.1489 C   0  0  0  0  0  0  0  0  0  0  0  0
  -30.6314  -24.8463   20.6408 C   0  0  0  0  0  0  0  0  0  0  0  0
  -22.3763   -8.1268   21.4732 C   0  0  0  0  0  0  0  0  0  0  0  0
  -30.5781  -23.2203   18.8344 C   0  0  0  0  0  0  0  0  0  0  0  0
  -20.9406   -6.9375   22.9038 C   0  0  0  0  0  0  0  0  0  0  0  0
  -19.4836   -6.8260   25.2802 C   0  0  0  0  0  0  0  0  0  0  0  0
  -21.2117   -5.9416   23.8420 C   0  0  0  0  0  0  0  0  0  0  0  0
  -24.5924  -11.6455   20.6953 C   0  0  0  0  0  0  0  0  0  0  0  0
  -28.3604  -18.3568   19.9595 C   0  0  0  0  0  0  0  0  0  0  0  0
  -25.2386  -13.7356   20.4738 C   0  0  0  0  0  0  0  0  0  0  0  0
  -28.8040  -17.6934   22.0518 C   0  0  0  0  0  0  0  0  0  0  0  0
  -29.5067  -16.5805   18.6711 C   0  0  0  0  0  0  0  0  0  0  0  0
  -30.6495  -16.8259   17.9430 C   0  0  0  0  0  0  0  0  0  0  0  0
  -30.1384  -15.6359   21.6298 C   0  0  0  0  0  0  0  0  0  0  0  0
  -22.8968  -13.4792   21.3097 C   0  0  0  0  0  0  0  0  0  0  0  0
  -30.7470  -14.6905   20.6659 C   0  0  0  0  0  0  0  0  0  0  0  0
  -32.9490  -26.9712   21.9606 C   0  0  0  0  0  0  0  0  0  0  0  0
  -30.2365  -27.0560   23.7375 C   0  0  0  0  0  0  0  0  0  0  0  0
  -27.0865  -25.8581   24.2750 C   0  0  0  0  0  0  0  0  0  0  0  0
  -37.0310  -29.9467   21.2245 C   0  0  0  0  0  0  0  0  0  0  0  0
  -31.1892  -27.2630   20.1790 C   0  0  0  0  0  0  0  0  0  0  0  0
  -30.4582  -25.1434   22.1071 C   0  0  0  0  0  0  0  0  0  0  0  0
  -36.0224  -29.7360   22.3509 C   0  0  0  0  0  0  0  0  0  0  0  0
  -29.5313  -12.4458   18.1479 C   0  0  0  0  0  0  0  0  0  0  0  0
  -35.8598  -28.2492   22.6506 C   0  0  0  0  0  0  0  0  0  0  0  0
  -28.1160  -12.1169   18.6216 C   0  0  0  0  0  0  0  0  0  0  0  0
  -30.4824  -12.6415   19.3241 C   0  0  0  0  0  0  0  0  0  0  0  0
  -28.6057  -13.3479   20.7827 C   0  0  0  0  0  0  0  0  0  0  0  0
  -35.3223  -27.4955   21.4281 C   0  0  1  0  0  0  0  0  0  0  0  0
  -31.5324  -27.3728   21.6614 C   0  0  1  0  0  0  0  0  0  0  0  0
  -27.6101  -13.1705   19.6230 C   0  0  2  0  0  0  0  0  0  0  0  0
  -31.0256  -16.1470   16.6661 C   0  0  0  0  0  0  0  0  0  0  0  0
  -26.0670  -19.3910   22.3089 C   0  0  0  0  0  0  0  0  0  0  0  0
  -25.1281  -26.0920   25.8266 C   0  0  0  0  0  0  0  0  0  0  0  0
  -31.7180  -25.4264   25.8492 C   0  0  0  0  0  0  0  0  0  0  0  0
  -29.5043  -24.8912   26.8890 C   0  0  0  0  0  0  0  0  0  0  0  0
  -30.2816  -27.2582   26.7633 C   0  0  0  0  0  0  0  0  0  0  0  0
  -25.3095  -26.7532   22.0841 C   0  0  0  0  0  0  0  0  0  0  0  0
  -29.8235  -18.4744   24.0534 C   0  0  0  0  0  0  0  0  0  0  0  0
  -27.7862  -19.2322   18.8744 C   0  0  0  0  0  0  0  0  0  0  0  0
  -28.8219  -20.1314   18.1959 C   0  0  0  0  0  0  0  0  0  0  0  0
  -27.4464  -19.7800   21.8054 C   0  0  0  0  0  0  0  0  0  0  0  0
  -29.4491  -21.1497   19.1410 C   0  0  0  0  0  0  0  0  0  1  0  0
  -29.5276  -26.0875   24.6531 C   0  0  1  0  0  0  0  0  0  0  0  0
  -25.7693  -26.5675   24.5322 C   0  0  2  0  0  0  0  0  0  0  0  0
  -30.2630  -25.9095   26.0114 C   0  0  0  0  0  0  0  0  0  0  0  0
  -25.8475  -11.5619   20.2461 N   0  0  0  0  0  0  0  0  0  0  0  0
  -30.3488  -15.3275   22.8912 N   0  0  0  0  0  0  0  0  0  0  0  0
  -28.1809  -18.6449   21.2873 N   0  0  0  0  0  0  0  0  0  0  0  0
  -26.2131  -12.8490   20.1210 N   0  0  0  0  0  0  0  0  0  0  0  0
  -29.9554  -13.6204   20.2728 N   0  0  0  0  0  0  0  0  0  0  0  0
  -30.6670  -26.5455   22.5046 N   0  0  0  0  0  0  0  0  0  0  0  0
  -25.4388  -15.0690   20.4084 N   0  0  0  0  0  0  0  0  0  0  0  0
  -21.8990  -12.5604   21.6623 N   0  0  0  0  0  0  0  0  0  0  0  0
  -33.8988  -27.7139   21.2854 N   0  0  0  0  0  0  0  0  0  0  0  0
  -28.1562  -26.5702   24.7748 N   0  0  0  0  0  0  0  0  0  0  0  0
  -24.8169  -26.3126   23.4146 N   0  3  0  0  0  0  0  0  0  0  0  0
  -22.6542  -14.7077   21.3843 O   0  0  0  0  0  0  0  0  0  0  0  0
  -31.8901  -14.9555   20.3174 O   0  0  0  0  0  0  0  0  0  0  0  0
  -33.1645  -26.0564   22.7469 O   0  0  0  0  0  0  0  0  0  0  0  0
  -30.3960  -28.2243   24.0998 O   0  0  0  0  0  0  0  0  0  0  0  0
  -27.1589  -24.7782   23.6925 O   0  0  0  0  0  0  0  0  0  0  0  0
  -21.6635   -6.9948   21.7241 O   0  0  0  0  0  0  0  0  0  0  0  0
  -30.3801  -21.9437   18.4067 O   0  0  0  0  0  0  0  0  0  1  0  0
  -28.7737  -17.7521   23.3775 O   0  0  0  0  0  0  0  0  0  0  0  0
  -18.7849   -6.7735   26.4218 F   0  0  0  0  0  0  0  0  0  0  0  0
  -22.1717   -5.0363   23.6079 F   0  0  0  0  0  0  0  0  0  0  0  0
  1  2  1  0  0  0  0
  1  5  2  0  0  0  0
  2  6  2  0  0  0  0
  3  8  2  0  0  0  0
  3 15  1  0  0  0  0
  4  9  1  0  0  0  0
  4 15  2  0  0  0  0
  5 19  1  0  0  0  0
  6 21  1  0  0  0  0
  7 10  2  0  0  0  0
  7 20  1  0  0  0  0
  8 23  1  0  0  0  0
  9 23  2  0  0  0  0
 10 24  1  0  0  0  0
 11 12  2  0  0  0  0
 11 25  1  0  0  0  0
 12 26  1  0  0  0  0
 13 22  1  0  0  0  0
 13 24  2  0  0  0  0
 14 26  2  0  0  0  0
 14 27  1  0  0  0  0
 15 28  1  0  0  0  0
 16 17  1  0  0  0  0
 16 29  2  0  0  0  0
 16 32  1  0  0  0  0
 17 31  2  0  0  0  0
 17 34  1  0  0  0  0
 18 28  1  0  0  0  0
 18 30  2  0  0  0  0
 18 35  1  0  0  0  0
 19 21  2  0  0  0  0
 19 40  1  0  0  0  0
 20 22  2  0  0  0  0
 20 41  1  0  0  0  0
 21 49  1  0  0  0  0
 22 42  1  0  0  0  0
 23 83  1  0  0  0  0
 24 84  1  0  0  0  0
 25 27  2  0  0  0  0
 25 83  1  0  0  0  0
 26 86  1  0  0  0  0
 27 87  1  0  0  0  0
 28 67  2  0  0  0  0
 29 60  1  0  0  0  0
 29 69  1  0  0  0  0
 30 70  1  0  0  0  0
 30 73  1  0  0  0  0
 31 69  1  0  0  0  0
 31 85  1  0  0  0  0
 32 33  2  0  0  0  0
 33 52  1  0  0  0  0
 34 36  1  0  0  0  0
 34 68  2  0  0  0  0
 35 74  1  0  0  0  0
 35 78  2  0  0  0  0
 36 71  1  0  0  0  0
 36 79  2  0  0  0  0
 37 50  1  0  0  0  0
 37 75  1  0  0  0  0
 37 80  2  0  0  0  0
 38 64  1  0  0  0  0
 38 72  1  0  0  0  0
 38 81  2  0  0  0  0
 39 65  1  0  0  0  0
 39 76  1  0  0  0  0
 39 82  2  0  0  0  0
 40 43  1  0  0  0  0
 41 50  1  0  0  0  0
 42 72  1  0  0  0  0
 43 45  1  0  0  0  0
 44 46  1  0  0  0  0
 44 47  1  0  0  0  0
 45 49  1  0  0  0  0
 46 51  1  0  0  0  0
 47 71  1  0  0  0  0
 48 51  1  0  0  0  0
 48 71  1  0  0  0  0
 49 75  1  0  0  0  0
 50 72  1  0  0  0  0
 51 70  1  0  0  0  0
 53 62  1  0  0  0  0
 54 65  1  0  0  0  0
 55 66  1  0  0  0  0
 56 66  1  0  0  0  0
 57 66  1  0  0  0  0
 58 77  1  0  0  0  0
 59 85  1  0  0  0  0
 60 61  1  0  0  0  0
 61 63  1  0  0  0  0
 62 69  1  0  0  0  0
 63 84  1  0  0  0  0
 64 66  1  0  0  0  0
 64 76  1  0  0  0  0
 65 77  1  0  0  0  0
 67 70  1  0  0  0  0
M  CHG  1  77   1
M  ISO  4  34 100  36 100  63 101  84 101
M  END
> <Batch ID>
0113

> <Smiles>
CC=Cc1c([100C:0](=N)[100C:0](=O)N2CCCC(n3nc(-c4ccc(Oc5ccc(F)cc5F)cc4)c(C(N)=O)c3N)C2)c(OC)n(CC)c1CC[101CH2:1][101O:1]c1ccc2c(c1)CN(C(=O)C(NC(=O)C(C)NC)C(C)(C)C)C(C(=O)NC1CCCc3ccccc31)C2

> <Shape>
0.259

> <Color>
0.186

> <Negative vol penalty>
0.000

$$$$

  -OEChem-04052301343D

 85 93  0     1  0  0  0  0  0999 V2000
  -23.7049   -7.2590   24.6198 C   0  0  0  0  0  0  0  0  0  0  0  0
  -24.7313   -8.1863   24.7689 C   0  0  0  0  0  0  0  0  0  0  0  0
  -22.6926  -29.0150   22.2837 C   0  0  0  0  0  0  0  0  0  0  0  0
  -23.2197  -27.1568   23.7351 C   0  0  0  0  0  0  0  0  0  0  0  0
  -22.9365   -7.2524   23.4564 C   0  0  0  0  0  0  0  0  0  0  0  0
  -24.9906   -9.1068   23.7541 C   0  0  0  0  0  0  0  0  0  0  0  0
  -26.8989  -14.8871   24.4265 C   0  0  0  0  0  0  0  0  0  0  0  0
  -28.8321  -20.4529   20.7241 C   0  0  0  0  0  0  0  0  0  0  0  0
  -28.0149  -21.4368   20.1675 C   0  0  0  0  0  0  0  0  0  0  0  0
  -21.3415  -28.6723   22.3355 C   0  0  0  0  0  0  0  0  0  0  0  0
  -21.8685  -26.8141   23.7869 C   0  0  0  0  0  0  0  0  0  0  0  0
  -28.1600  -15.4749   24.3379 C   0  0  0  0  0  0  0  0  0  0  0  0
  -18.7596  -29.0385   24.4878 C   0  0  0  0  0  0  0  0  0  0  0  0
  -17.8374  -30.0659   24.6868 C   0  0  0  0  0  0  0  0  0  0  0  0
  -27.7095  -16.0820   22.0471 C   0  0  0  0  0  0  0  0  0  0  0  0
  -16.7865  -29.5311   22.5781 C   0  0  0  0  0  0  0  0  0  0  0  0
  -23.6317  -28.2572   22.9834 C   0  0  0  0  0  0  0  0  0  0  0  0
  -29.4624  -23.1487   21.0681 C   0  0  0  0  0  0  0  0  0  0  0  0
  -25.7180  -29.4810   23.7942 C   0  0  0  0  0  0  0  0  0  0  0  0
  -23.1803   -8.1796   22.4310 C   0  0  0  0  0  0  0  0  0  0  0  0
  -26.0364  -14.8828   23.3209 C   0  0  0  0  0  0  0  0  0  0  0  0
  -24.2256   -9.1117   22.5754 C   0  0  0  0  0  0  0  0  0  0  0  0
  -26.4370  -15.4958   22.1251 C   0  0  0  0  0  0  0  0  0  0  0  0
  -29.9644  -20.8170   21.4529 C   0  0  0  0  0  0  0  0  0  0  0  0
  -28.3301  -22.7846   20.3394 C   0  0  0  0  0  0  0  0  0  0  0  0
  -20.9295  -27.5718   23.0871 C   0  0  0  0  0  0  0  0  0  0  0  0
  -28.5667  -16.0698   23.1472 C   0  0  0  0  0  0  0  0  0  0  0  0
  -18.6953  -28.2574   23.3339 C   0  0  0  0  0  0  0  0  0  0  0  0
  -30.2795  -22.1648   21.6249 C   0  0  0  0  0  0  0  0  0  0  0  0
  -16.8509  -30.3122   23.7320 C   0  0  0  0  0  0  0  0  0  0  0  0
  -17.7088  -28.5037   22.3790 C   0  0  0  0  0  0  0  0  0  0  0  0
  -25.0276  -28.6104   22.9298 C   0  0  0  0  0  0  0  0  0  0  0  0
  -27.0087  -29.4791   23.3244 C   0  0  0  0  0  0  0  0  0  0  0  0
  -30.4657  -19.4379   23.2056 C   0  0  0  0  0  0  0  0  0  0  0  0
  -29.8018  -24.5566   21.2520 C   0  0  0  0  0  0  0  0  0  0  0  0
  -25.2358  -30.2250   24.9210 C   0  0  0  0  0  0  0  0  0  0  0  0
  -30.0695  -25.4387   20.0929 C   0  0  0  0  0  0  0  0  0  0  0  0
  -24.6969  -12.6242   21.5297 C   0  0  0  0  0  0  0  0  0  0  0  0
  -23.1551  -15.1455   20.1924 C   0  0  0  0  0  0  0  0  0  0  0  0
  -23.1089  -18.4928   19.5290 C   0  0  0  0  0  0  0  0  0  0  0  0
  -22.3539   -8.1032   21.1717 C   0  0  0  0  0  0  0  0  0  0  0  0
  -24.6688  -14.2682   23.4409 C   0  0  0  0  0  0  0  0  0  0  0  0
  -25.5406  -15.5358   20.9154 C   0  0  0  0  0  0  0  0  0  0  0  0
  -22.4502   -9.3548   20.3030 C   0  0  0  0  0  0  0  0  0  0  0  0
  -29.5471  -28.9010   19.3206 C   0  0  0  0  0  0  0  0  0  0  0  0
  -23.9049   -9.7872   20.1491 C   0  0  0  0  0  0  0  0  0  0  0  0
  -28.3658  -29.2868   20.2102 C   0  0  0  0  0  0  0  0  0  0  0  0
  -29.4333  -27.4594   18.8356 C   0  0  0  0  0  0  0  0  0  0  0  0
  -28.1008  -26.8443   20.8343 C   0  0  0  0  0  0  0  0  0  0  0  0
  -24.5215  -10.1423   21.5075 C   0  0  1  0  0  0  0  0  0  0  0  0
  -24.0729  -13.8689   22.0944 C   0  0  1  0  0  0  0  0  0  0  0  0
  -28.1948  -28.2851   21.3661 C   0  0  2  0  0  0  0  0  0  0  0  0
  -21.7371  -20.2556   18.3852 C   0  0  0  0  0  0  0  0  0  0  0  0
  -24.1405  -14.1500   17.4817 C   0  0  0  0  0  0  0  0  0  0  0  0
  -23.5744  -16.3952   16.5295 C   0  0  0  0  0  0  0  0  0  0  0  0
  -21.7757  -14.9635   17.4976 C   0  0  0  0  0  0  0  0  0  0  0  0
  -22.7140  -19.9876   22.0526 C   0  0  0  0  0  0  0  0  0  0  0  0
  -32.6066  -22.6552   21.6134 C   0  0  0  0  0  0  0  0  0  0  0  0
  -31.2549  -18.3599   23.8991 C   0  0  0  0  0  0  0  0  0  0  0  0
  -30.3448  -17.1962   24.2542 C   0  0  0  0  0  0  0  0  0  1  0  0
  -23.4353  -16.0822   19.0422 C   0  0  1  0  0  0  0  0  0  0  0  0
  -22.0204  -19.5378   19.6957 C   0  0  2  0  0  0  0  0  0  0  0  0
  -23.2494  -15.3954   17.6598 C   0  0  0  0  0  0  0  0  0  0  0  0
  -25.8145  -28.0930   21.9826 N   0  0  0  0  0  0  0  0  0  0  0  0
  -29.8882  -25.1202   22.4232 N   0  0  0  0  0  0  0  0  0  0  0  0
  -30.7766  -19.8140   22.0082 N   0  0  0  0  0  0  0  0  0  0  0  0
  -27.0126  -28.6403   22.2489 N   0  0  0  0  0  0  0  0  0  0  0  0
  -29.2358  -26.5395   19.9540 N   0  0  0  0  0  0  0  0  0  0  0  0
  -24.2155  -14.9158   21.0805 N   0  0  0  0  0  0  0  0  0  0  0  0
  -27.4888  -23.7640   19.7657 N   0  0  0  0  0  0  0  0  0  0  0  0
  -28.1292  -30.1131   23.7305 N   0  0  0  0  0  0  0  0  0  0  0  0
  -23.8822  -30.1119   25.2665 N   0  0  0  0  0  0  0  0  0  0  0  0
  -24.0832  -11.4540   21.9340 N   0  0  0  0  0  0  0  0  0  0  0  0
  -22.5840  -17.2488   19.2492 N   0  0  0  0  0  0  0  0  0  0  0  0
  -22.4271  -20.5522   20.7088 N   0  3  0  0  0  0  0  0  0  0  0  0
  -25.9794  -30.9807   25.5913 O   0  0  0  0  0  0  0  0  0  0  0  0
  -31.0029  -25.1001   19.3769 O   0  0  0  0  0  0  0  0  0  0  0  0
  -25.6627  -12.7185   20.7813 O   0  0  0  0  0  0  0  0  0  0  0  0
  -22.0345  -14.6419   20.3030 O   0  0  0  0  0  0  0  0  0  0  0  0
  -24.3052  -18.7547   19.6328 O   0  0  0  0  0  0  0  0  0  0  0  0
  -19.6111  -27.2373   23.1381 O   0  0  0  0  0  0  0  0  0  0  0  0
  -31.3883  -22.5153   22.3394 O   0  0  0  0  0  0  0  0  0  0  0  0
  -29.7974  -16.6437   23.0578 O   0  0  0  0  0  0  0  0  0  1  0  0
  -15.9644  -31.2978   23.9239 F   0  0  0  0  0  0  0  0  0  0  0  0
  -17.6413  -27.7559   21.2691 F   0  0  0  0  0  0  0  0  0  0  0  0
  1  2  1  0  0  0  0
  1  5  2  0  0  0  0
  2  6  2  0  0  0  0
  3 10  2  0  0  0  0
  3 17  1  0  0  0  0
  4 11  1  0  0  0  0
  4 17  2  0  0  0  0
  5 20  1  0  0  0  0
  6 22  1  0  0  0  0
  7 12  2  0  0  0  0
  7 21  1  0  0  0  0
  8  9  2  0  0  0  0
  8 24  1  0  0  0  0
  9 25  1  0  0  0  0
 10 26  1  0  0  0  0
 11 26  2  0  0  0  0
 12 27  1  0  0  0  0
 13 14  2  0  0  0  0
 13 28  1  0  0  0  0
 14 30  1  0  0  0  0
 15 23  1  0  0  0  0
 15 27  2  0  0  0  0
 16 30  2  0  0  0  0
 16 31  1  0  0  0  0
 17 32  1  0  0  0  0
 18 25  2  0  0  0  0
 18 29  1  0  0  0  0
 18 35  1  0  0  0  0
 19 32  1  0  0  0  0
 19 33  2  0  0  0  0
 19 36  1  0  0  0  0
 20 22  2  0  0  0  0
 20 41  1  0  0  0  0
 21 23  2  0  0  0  0
 21 42  1  0  0  0  0
 22 50  1  0  0  0  0
 23 43  1  0  0  0  0
 24 29  2  0  0  0  0
 24 66  1  0  0  0  0
 25 70  1  0  0  0  0
 26 81  1  0  0  0  0
 27 83  1  0  0  0  0
 28 31  2  0  0  0  0
 28 81  1  0  0  0  0
 29 82  1  0  0  0  0
 30 84  1  0  0  0  0
 31 85  1  0  0  0  0
 32 64  2  0  0  0  0
 33 67  1  0  0  0  0
 33 71  1  0  0  0  0
 34 59  1  0  0  0  0
 34 66  2  0  0  0  0
 35 37  1  0  0  0  0
 35 65  2  0  0  0  0
 36 72  1  0  0  0  0
 36 76  2  0  0  0  0
 37 68  1  0  0  0  0
 37 77  2  0  0  0  0
 38 51  1  0  0  0  0
 38 73  1  0  0  0  0
 38 78  2  0  0  0  0
 39 61  1  0  0  0  0
 39 69  1  0  0  0  0
 39 79  2  0  0  0  0
 40 62  1  0  0  0  0
 40 74  1  0  0  0  0
 40 80  2  0  0  0  0
 41 44  1  0  0  0  0
 42 51  1  0  0  0  0
 43 69  1  0  0  0  0
 44 46  1  0  0  0  0
 45 47  1  0  0  0  0
 45 48  1  0  0  0  0
 46 50  1  0  0  0  0
 47 52  1  0  0  0  0
 48 68  1  0  0  0  0
 49 52  1  0  0  0  0
 49 68  1  0  0  0  0
 50 73  1  0  0  0  0
 51 69  1  0  0  0  0
 52 67  1  0  0  0  0
 53 62  1  0  0  0  0
 54 63  1  0  0  0  0
 55 63  1  0  0  0  0
 56 63  1  0  0  0  0
 57 75  1  0  0  0  0
 58 82  1  0  0  0  0
 59 60  1  0  0  0  0
 60 83  1  0  0  0  0
 61 63  1  0  0  0  0
 61 74  1  0  0  0  0
 62 75  1  0  0  0  0
 64 67  1  0  0  0  0
M  CHG  1  75   1
M  ISO  4  35 100  37 100  60 101  83 101
M  END
> <Batch ID>
0113

> <Smiles>
CNC(C)C(=O)NC(C(=O)N1Cc2cc([101O:1][101CH2:1]C=CNc3ccc(N)c([100C:0](=N)[100C:0](=O)N4CCCC(n5nc(-c6ccc(Oc7ccc(F)cc7F)cc6)c(C(N)=O)c5N)C4)c3OC)ccc2CC1C(=O)NC1CCCc2ccccc21)C(C)(C)C

> <Shape>
0.257

> <Color>
0.071

> <Negative vol penalty>
0.000

$$$$

  -OEChem-04052301343D

 80 88  0     1  0  0  0  0  0999 V2000
  -27.9234  -30.0420   19.2951 C   0  0  0  0  0  0  0  0  0  0  0  0
  -27.9030  -28.6529   19.3695 C   0  0  0  0  0  0  0  0  0  0  0  0
  -30.5843  -23.0052   20.8948 C   0  0  0  0  0  0  0  0  0  0  0  0
  -28.7842  -23.1864   19.2935 C   0  0  0  0  0  0  0  0  0  0  0  0
  -26.8678  -30.7829   19.8248 C   0  0  0  0  0  0  0  0  0  0  0  0
  -26.8273  -28.0040   19.9747 C   0  0  0  0  0  0  0  0  0  0  0  0
  -24.4046  -22.6130   18.3705 C   0  0  0  0  0  0  0  0  0  0  0  0
  -31.1588  -24.1676   20.3806 C   0  0  0  0  0  0  0  0  0  0  0  0
  -29.3587  -24.3489   18.7794 C   0  0  0  0  0  0  0  0  0  0  0  0
  -24.5738  -21.3226   18.8705 C   0  0  0  0  0  0  0  0  0  0  0  0
  -30.5401  -27.1643   16.8077 C   0  0  0  0  0  0  0  0  0  0  0  0
  -30.6129  -27.2928   15.4207 C   0  0  0  0  0  0  0  0  0  0  0  0
  -22.6016  -21.5980   20.2320 C   0  0  0  0  0  0  0  0  0  0  0  0
  -24.0973  -13.2365   20.4807 C   0  0  0  0  0  0  0  0  0  0  0  0
  -31.9650  -25.2939   15.3064 C   0  0  0  0  0  0  0  0  0  0  0  0
  -29.3971  -22.5145   20.3512 C   0  0  0  0  0  0  0  0  0  0  0  0
  -27.8645  -21.2189   21.9261 C   0  0  0  0  0  0  0  0  0  0  0  0
  -25.7741  -30.1423   20.4282 C   0  0  0  0  0  0  0  0  0  0  0  0
  -23.3370  -23.4109   18.8064 C   0  0  0  0  0  0  0  0  0  0  0  0
  -25.7567  -28.7371   20.5141 C   0  0  0  0  0  0  0  0  0  0  0  0
  -22.4196  -22.8973   19.7340 C   0  0  0  0  0  0  0  0  0  0  0  0
  -24.2321  -14.6452   20.6472 C   0  0  0  0  0  0  0  0  0  0  0  0
  -30.5459  -24.8395   19.3230 C   0  0  0  0  0  0  0  0  0  0  0  0
  -23.6739  -20.8160   19.8036 C   0  0  0  0  0  0  0  0  0  0  0  0
  -31.1799  -26.1006   17.4441 C   0  0  0  0  0  0  0  0  0  0  0  0
  -31.3253  -26.3576   14.6701 C   0  0  0  0  0  0  0  0  0  0  0  0
  -31.8923  -25.1654   16.6935 C   0  0  0  0  0  0  0  0  0  0  0  0
  -28.8035  -21.3135   20.8815 C   0  0  0  0  0  0  0  0  0  0  0  0
  -22.8587  -12.7845   20.8796 C   0  0  0  0  0  0  0  0  0  0  0  0
  -23.0911  -15.2162   21.1668 C   0  0  0  0  0  0  0  0  0  0  0  0
  -27.6201  -19.8728   22.0472 C   0  0  0  0  0  0  0  0  0  0  0  0
  -22.9171  -17.3892   20.4786 C   0  0  0  0  0  0  0  0  0  0  0  0
  -27.2666  -22.2552   22.7162 C   0  0  0  0  0  0  0  0  0  0  0  0
  -23.0895  -26.1861   20.3362 C   0  0  0  0  0  0  0  0  0  0  0  0
  -19.9284  -25.7994   19.7197 C   0  0  0  0  0  0  0  0  0  0  0  0
  -17.3488  -23.6717   19.0374 C   0  0  0  0  0  0  0  0  0  0  0  0
  -26.5895  -14.8870   19.7927 C   0  0  0  0  0  0  0  0  0  0  0  0
  -24.6787  -30.9874   21.0287 C   0  0  0  0  0  0  0  0  0  0  0  0
  -23.1531  -24.7910   18.2373 C   0  0  0  0  0  0  0  0  0  0  0  0
  -21.2452  -23.7060   20.2190 C   0  0  0  0  0  0  0  0  0  0  0  0
  -23.3985  -30.2085   21.3196 C   0  0  0  0  0  0  0  0  0  0  0  0
  -29.9972  -15.8966   20.0072 C   0  0  0  0  0  0  0  0  0  0  0  0
  -23.7215  -28.8945   22.0237 C   0  0  0  0  0  0  0  0  0  0  0  0
  -29.9131  -17.3881   20.3397 C   0  0  0  0  0  0  0  0  0  0  0  0
  -28.8886  -15.4660   19.0483 C   0  0  0  0  0  0  0  0  0  0  0  0
  -27.4443  -17.3129   19.8047 C   0  0  0  0  0  0  0  0  0  0  0  0
  -24.5957  -27.9958   21.1408 C   0  0  1  0  0  0  0  0  0  0  0  0
  -22.3243  -25.7027   19.1369 C   0  0  1  0  0  0  0  0  0  0  0  0
  -28.5015  -17.7801   20.8185 C   0  0  2  0  0  0  0  0  0  0  0  0
  -22.3346  -11.4016   20.8645 C   0  0  0  0  0  0  0  0  0  0  0  0
  -14.8741  -23.6455   18.6222 C   0  0  0  0  0  0  0  0  0  0  0  0
  -19.4261  -26.1939   22.7033 C   0  0  0  0  0  0  0  0  0  0  0  0
  -17.1383  -25.2317   22.3744 C   0  0  0  0  0  0  0  0  0  0  0  0
  -17.7819  -27.3407   21.2080 C   0  0  0  0  0  0  0  0  0  0  0  0
  -17.6988  -22.5442   16.3235 C   0  0  0  0  0  0  0  0  0  0  0  0
  -22.6578  -18.8523   20.6796 C   0  0  0  0  0  0  0  0  0  1  0  0
  -18.7715  -25.1459   20.4363 C   0  0  1  0  0  0  0  0  0  0  0  0
  -16.2538  -23.7204   17.9871 C   0  0  2  0  0  0  0  0  0  0  0  0
  -18.3026  -25.9632   21.6731 C   0  0  0  0  0  0  0  0  0  0  0  0
  -29.1333  -20.1223   20.3752 N   0  0  0  0  0  0  0  0  0  0  0  0
  -22.8368  -16.5643   21.4709 N   0  0  0  0  0  0  0  0  0  0  0  0
  -28.3975  -19.2665   21.1048 N   0  0  0  0  0  0  0  0  0  0  0  0
  -21.1119  -25.0521   19.6377 N   0  0  0  0  0  0  0  0  0  0  0  0
  -27.5799  -15.8669   19.5693 N   0  0  0  0  0  0  0  0  0  0  0  0
  -26.8182  -19.1604   22.8670 N   0  0  0  0  0  0  0  0  0  0  0  0
  -27.6296  -23.5845   22.4598 N   0  0  0  0  0  0  0  0  0  0  0  0
  -25.3973  -15.3820   20.3201 N   0  0  0  0  0  0  0  0  0  0  0  0
  -23.7936  -27.3554   20.1205 N   0  0  0  0  0  0  0  0  0  0  0  0
  -17.7352  -24.9353   19.4313 N   0  0  0  0  0  0  0  0  0  0  0  0
  -16.3963  -22.5810   17.0371 N   0  3  0  0  0  0  0  0  0  0  0  0
  -26.4476  -22.0085   23.6337 O   0  0  0  0  0  0  0  0  0  0  0  0
  -23.0433  -25.5465   21.3804 O   0  0  0  0  0  0  0  0  0  0  0  0
  -19.7850  -26.9283   19.2437 O   0  0  0  0  0  0  0  0  0  0  0  0
  -17.8122  -22.6180   19.4682 O   0  0  0  0  0  0  0  0  0  0  0  0
  -26.7942  -13.6928   19.5606 O   0  0  0  0  0  0  0  0  0  0  0  0
  -31.1060  -25.9739   18.8211 O   0  0  0  0  0  0  0  0  0  0  0  0
  -23.8371  -19.5570   20.2938 O   0  0  0  0  0  0  0  0  0  1  0  0
  -31.3938  -26.4803   13.3380 F   0  0  0  0  0  0  0  0  0  0  0  0
  -32.5079  -24.1407   17.2991 F   0  0  0  0  0  0  0  0  0  0  0  0
  -21.8645  -14.0559   21.4519 S   0  0  0  0  0  0  0  0  0  0  0  0
  1  2  1  0  0  0  0
  1  5  2  0  0  0  0
  2  6  2  0  0  0  0
  3  8  2  0  0  0  0
  3 16  1  0  0  0  0
  4  9  1  0  0  0  0
  4 16  2  0  0  0  0
  5 18  1  0  0  0  0
  6 20  1  0  0  0  0
  7 10  2  0  0  0  0
  7 19  1  0  0  0  0
  8 23  1  0  0  0  0
  9 23  2  0  0  0  0
 10 24  1  0  0  0  0
 11 12  2  0  0  0  0
 11 25  1  0  0  0  0
 12 26  1  0  0  0  0
 13 21  1  0  0  0  0
 13 24  2  0  0  0  0
 14 22  1  0  0  0  0
 14 29  2  0  0  0  0
 15 26  2  0  0  0  0
 15 27  1  0  0  0  0
 16 28  1  0  0  0  0
 17 28  1  0  0  0  0
 17 31  2  0  0  0  0
 17 33  1  0  0  0  0
 18 20  2  0  0  0  0
 18 38  1  0  0  0  0
 19 21  2  0  0  0  0
 19 39  1  0  0  0  0
 20 47  1  0  0  0  0
 21 40  1  0  0  0  0
 22 30  2  0  0  0  0
 22 67  1  0  0  0  0
 23 76  1  0  0  0  0
 24 77  1  0  0  0  0
 25 27  2  0  0  0  0
 25 76  1  0  0  0  0
 26 78  1  0  0  0  0
 27 79  1  0  0  0  0
 28 60  2  0  0  0  0
 29 50  1  0  0  0  0
 29 80  1  0  0  0  0
 30 61  1  0  0  0  0
 30 80  1  0  0  0  0
 31 62  1  0  0  0  0
 31 65  1  0  0  0  0
 32 56  1  0  0  0  0
 32 61  2  0  0  0  0
 33 66  1  0  0  0  0
 33 71  2  0  0  0  0
 34 48  1  0  0  0  0
 34 68  1  0  0  0  0
 34 72  2  0  0  0  0
 35 57  1  0  0  0  0
 35 63  1  0  0  0  0
 35 73  2  0  0  0  0
 36 58  1  0  0  0  0
 36 69  1  0  0  0  0
 36 74  2  0  0  0  0
 37 64  1  0  0  0  0
 37 67  1  0  0  0  0
 37 75  2  0  0  0  0
 38 41  1  0  0  0  0
 39 48  1  0  0  0  0
 40 63  1  0  0  0  0
 41 43  1  0  0  0  0
 42 44  1  0  0  0  0
 42 45  1  0  0  0  0
 43 47  1  0  0  0  0
 44 49  1  0  0  0  0
 45 64  1  0  0  0  0
 46 49  1  0  0  0  0
 46 64  1  0  0  0  0
 47 68  1  0  0  0  0
 48 63  1  0  0  0  0
 49 62  1  0  0  0  0
 51 58  1  0  0  0  0
 52 59  1  0  0  0  0
 53 59  1  0  0  0  0
 54 59  1  0  0  0  0
 55 70  1  0  0  0  0
 56 77  1  0  0  0  0
 57 59  1  0  0  0  0
 57 69  1  0  0  0  0
 58 70  1  0  0  0  0
 60 62  1  0  0  0  0
M  CHG  1  70   1
M  ISO  4  37 100  56 101  67 100  77 101
M  END
> <Batch ID>
0113

> <Smiles>
CNC(C)C(=O)NC(C(=O)N1Cc2cc([101O:1][101CH:1]=CNc3sc(C)cc3[100NH:0][100C:0](=O)N3CCCC(n4nc(-c5ccc(Oc6ccc(F)cc6F)cc5)c(C(N)=O)c4N)C3)ccc2CC1C(=O)NC1CCCc2ccccc21)C(C)(C)C

> <Shape>
0.201

> <Color>
0.056

> <Negative vol penalty>
0.000

$$$$

  -OEChem-04052301343D

 84 92  0     1  0  0  0  0  0999 V2000
  -16.9859  -25.4469   24.1770 C   0  0  0  0  0  0  0  0  0  0  0  0
  -18.1535  -24.7776   24.5295 C   0  0  0  0  0  0  0  0  0  0  0  0
  -23.1688   -9.7635   19.9856 C   0  0  0  0  0  0  0  0  0  0  0  0
  -23.8405   -9.9220   22.3009 C   0  0  0  0  0  0  0  0  0  0  0  0
  -17.0535  -26.6001   23.3962 C   0  0  0  0  0  0  0  0  0  0  0  0
  -19.3893  -25.2605   24.1005 C   0  0  0  0  0  0  0  0  0  0  0  0
  -24.6918  -25.0358   27.1564 C   0  0  0  0  0  0  0  0  0  0  0  0
  -22.4635   -8.5942   20.2703 C   0  0  0  0  0  0  0  0  0  0  0  0
  -23.1352   -8.7527   22.5856 C   0  0  0  0  0  0  0  0  0  0  0  0
  -25.7806  -24.1681   27.0832 C   0  0  0  0  0  0  0  0  0  0  0  0
  -19.9217   -7.8505   23.1146 C   0  0  0  0  0  0  0  0  0  0  0  0
  -19.1233   -7.8393   24.2583 C   0  0  0  0  0  0  0  0  0  0  0  0
  -26.9045  -25.7123   25.6095 C   0  0  0  0  0  0  0  0  0  0  0  0
  -20.4137   -5.9974   25.1411 C   0  0  0  0  0  0  0  0  0  0  0  0
  -30.2141  -20.0776   21.2135 C   0  0  0  0  0  0  0  0  0  0  0  0
  -23.8574  -10.4273   21.0010 C   0  0  0  0  0  0  0  0  0  0  0  0
  -24.1006  -12.9551   20.7583 C   0  0  0  0  0  0  0  0  0  0  0  0
  -18.2915  -27.1028   22.9655 C   0  0  0  0  0  0  0  0  0  0  0  0
  -24.6966  -26.2454   26.4469 C   0  0  0  0  0  0  0  0  0  0  0  0
  -19.4734  -26.4207   23.3121 C   0  0  0  0  0  0  0  0  0  0  0  0
  -25.8156  -26.5948   25.6775 C   0  0  0  0  0  0  0  0  0  0  0  0
  -29.7285  -18.1455   22.5126 C   0  0  0  0  0  0  0  0  0  0  0  0
  -29.8451  -19.5286   22.4310 C   0  0  0  0  0  0  0  0  0  0  0  0
  -29.9809  -17.3646   21.3902 C   0  0  0  0  0  0  0  0  0  0  0  0
  -22.4467   -8.0889   21.5703 C   0  0  0  0  0  0  0  0  0  0  0  0
  -26.8859  -24.5050   26.3074 C   0  0  0  0  0  0  0  0  0  0  0  0
  -20.9661   -6.9351   22.9841 C   0  0  0  0  0  0  0  0  0  0  0  0
  -19.3693   -6.9128   25.2715 C   0  0  0  0  0  0  0  0  0  0  0  0
  -21.2121   -6.0086   23.9973 C   0  0  0  0  0  0  0  0  0  0  0  0
  -24.5866  -11.6349   20.7074 C   0  0  0  0  0  0  0  0  0  0  0  0
  -30.3436  -18.0105   20.2192 C   0  0  0  0  0  0  0  0  0  0  0  0
  -25.1743  -13.7305   20.3946 C   0  0  0  0  0  0  0  0  0  0  0  0
  -31.5037  -17.6598   18.0870 C   0  0  0  0  0  0  0  0  0  0  0  0
  -30.6266  -17.2669   18.9980 C   0  0  0  0  0  0  0  0  0  0  0  0
  -29.3259  -22.3356   24.8200 C   0  0  0  0  0  0  0  0  0  0  0  0
  -28.2996  -23.1713   25.0060 C   0  0  0  0  0  0  0  0  0  1  0  0
  -22.7953  -13.4374   21.1035 C   0  0  0  0  0  0  0  0  0  0  0  0
  -22.9122  -27.4954   24.1324 C   0  0  0  0  0  0  0  0  0  0  0  0
  -24.7291  -30.1251   24.6850 C   0  0  0  0  0  0  0  0  0  0  0  0
  -27.6555  -31.4300   25.8598 C   0  0  0  0  0  0  0  0  0  0  0  0
  -30.5830  -15.0156   20.7076 C   0  0  0  0  0  0  0  0  0  0  0  0
  -18.3111  -28.3261   22.0836 C   0  0  0  0  0  0  0  0  0  0  0  0
  -23.5255  -27.1827   26.5577 C   0  0  0  0  0  0  0  0  0  0  0  0
  -25.8788  -27.8909   24.9128 C   0  0  0  0  0  0  0  0  0  0  0  0
  -19.6855  -28.9828   21.9834 C   0  0  0  0  0  0  0  0  0  0  0  0
  -29.6579  -12.4367   18.4337 C   0  0  0  0  0  0  0  0  0  0  0  0
  -20.7620  -27.9320   21.7307 C   0  0  0  0  0  0  0  0  0  0  0  0
  -28.2161  -12.1068   18.8267 C   0  0  0  0  0  0  0  0  0  0  0  0
  -30.5169  -12.7664   19.6532 C   0  0  0  0  0  0  0  0  0  0  0  0
  -28.5312  -13.4798   20.9249 C   0  0  0  0  0  0  0  0  0  0  0  0
  -20.8345  -26.9273   22.8868 C   0  0  1  0  0  0  0  0  0  0  0  0
  -23.4227  -28.1518   25.3839 C   0  0  1  0  0  0  0  0  0  0  0  0
  -27.6115  -13.2043   19.7242 C   0  0  2  0  0  0  0  0  0  0  0  0
  -29.3319  -17.5031   23.8053 C   0  0  0  0  0  0  0  0  0  0  0  0
  -28.8671  -33.6092   26.1437 C   0  0  0  0  0  0  0  0  0  0  0  0
  -25.3746  -30.1520   21.7029 C   0  0  0  0  0  0  0  0  0  0  0  0
  -27.2770  -31.7019   22.1997 C   0  0  0  0  0  0  0  0  0  0  0  0
  -24.9356  -32.4051   22.6957 C   0  0  0  0  0  0  0  0  0  0  0  0
  -27.7544  -31.1249   28.8019 C   0  0  0  0  0  0  0  0  0  0  0  0
  -29.7139  -21.7865   23.4847 C   0  0  0  0  0  0  0  0  0  0  0  0
  -26.0374  -30.6529   24.1475 C   0  0  1  0  0  0  0  0  0  0  0  0
  -27.9367  -32.5954   26.7912 C   0  0  2  0  0  0  0  0  0  0  0  0
  -25.9045  -31.2026   22.6992 C   0  0  0  0  0  0  0  0  0  0  0  0
  -30.4673  -19.3516   20.1015 N   0  0  0  0  0  0  0  0  0  0  0  0
  -25.8692  -11.5714   20.3402 N   0  0  0  0  0  0  0  0  0  0  0  0
  -26.1982  -12.8614   20.1569 N   0  0  0  0  0  0  0  0  0  0  0  0
  -24.7064  -28.7711   25.0481 N   0  0  0  0  0  0  0  0  0  0  0  0
  -29.8837  -13.8167   20.4537 N   0  0  0  0  0  0  0  0  0  0  0  0
  -25.3330  -15.0641   20.2580 N   0  0  0  0  0  0  0  0  0  0  0  0
  -21.8091  -12.5047   21.4527 N   0  0  0  0  0  0  0  0  0  0  0  0
  -29.8681  -15.9535   21.4518 N   0  0  0  0  0  0  0  0  0  0  0  0
  -29.6046  -20.3496   23.5227 N   0  0  0  0  0  0  0  0  0  0  0  0
  -21.5354  -27.5037   24.0142 N   0  0  0  0  0  0  0  0  0  0  0  0
  -26.5114  -31.6338   25.1178 N   0  0  0  0  0  0  0  0  0  0  0  0
  -28.5717  -32.1112   28.0495 N   0  3  0  0  0  0  0  0  0  0  0  0
  -22.5072  -14.6581   21.0865 O   0  0  0  0  0  0  0  0  0  0  0  0
  -23.7084  -27.0181   23.3325 O   0  0  0  0  0  0  0  0  0  0  0  0
  -23.7650  -30.8880   24.7859 O   0  0  0  0  0  0  0  0  0  0  0  0
  -28.3806  -30.4398   25.7942 O   0  0  0  0  0  0  0  0  0  0  0  0
  -31.7211  -15.2077   20.2721 O   0  0  0  0  0  0  0  0  0  0  0  0
  -21.7583   -6.9481   21.8484 O   0  0  0  0  0  0  0  0  0  0  0  0
  -27.9497  -23.6595   26.2336 O   0  0  0  0  0  0  0  0  0  1  0  0
  -18.6034   -6.9031   26.3704 F   0  0  0  0  0  0  0  0  0  0  0  0
  -22.2147   -5.1275   23.8782 F   0  0  0  0  0  0  0  0  0  0  0  0
  1  2  1  0  0  0  0
  1  5  2  0  0  0  0
  2  6  2  0  0  0  0
  3  8  2  0  0  0  0
  3 16  1  0  0  0  0
  4  9  1  0  0  0  0
  4 16  2  0  0  0  0
  5 18  1  0  0  0  0
  6 20  1  0  0  0  0
  7 10  2  0  0  0  0
  7 19  1  0  0  0  0
  8 25  1  0  0  0  0
  9 25  2  0  0  0  0
 10 26  1  0  0  0  0
 11 12  2  0  0  0  0
 11 27  1  0  0  0  0
 12 28  1  0  0  0  0
 13 21  1  0  0  0  0
 13 26  2  0  0  0  0
 14 28  2  0  0  0  0
 14 29  1  0  0  0  0
 15 23  1  0  0  0  0
 15 64  2  0  0  0  0
 16 30  1  0  0  0  0
 17 30  1  0  0  0  0
 17 32  2  0  0  0  0
 17 37  1  0  0  0  0
 18 20  2  0  0  0  0
 18 42  1  0  0  0  0
 19 21  2  0  0  0  0
 19 43  1  0  0  0  0
 20 51  1  0  0  0  0
 21 44  1  0  0  0  0
 22 23  2  0  0  0  0
 22 24  1  0  0  0  0
 22 54  1  0  0  0  0
 23 72  1  0  0  0  0
 24 31  2  0  0  0  0
 24 71  1  0  0  0  0
 25 81  1  0  0  0  0
 26 82  1  0  0  0  0
 27 29  2  0  0  0  0
 27 81  1  0  0  0  0
 28 83  1  0  0  0  0
 29 84  1  0  0  0  0
 30 65  2  0  0  0  0
 31 34  1  0  0  0  0
 31 64  1  0  0  0  0
 32 66  1  0  0  0  0
 32 69  1  0  0  0  0
 33 34  2  0  0  0  0
 35 36  2  0  0  0  0
 35 60  1  0  0  0  0
 36 82  1  0  0  0  0
 37 70  1  0  0  0  0
 37 76  2  0  0  0  0
 38 52  1  0  0  0  0
 38 73  1  0  0  0  0
 38 77  2  0  0  0  0
 39 61  1  0  0  0  0
 39 67  1  0  0  0  0
 39 78  2  0  0  0  0
 40 62  1  0  0  0  0
 40 74  1  0  0  0  0
 40 79  2  0  0  0  0
 41 68  1  0  0  0  0
 41 71  1  0  0  0  0
 41 80  2  0  0  0  0
 42 45  1  0  0  0  0
 43 52  1  0  0  0  0
 44 67  1  0  0  0  0
 45 47  1  0  0  0  0
 46 48  1  0  0  0  0
 46 49  1  0  0  0  0
 47 51  1  0  0  0  0
 48 53  1  0  0  0  0
 49 68  1  0  0  0  0
 50 53  1  0  0  0  0
 50 68  1  0  0  0  0
 51 73  1  0  0  0  0
 52 67  1  0  0  0  0
 53 66  1  0  0  0  0
 55 62  1  0  0  0  0
 56 63  1  0  0  0  0
 57 63  1  0  0  0  0
 58 63  1  0  0  0  0
 59 75  1  0  0  0  0
 60 72  1  0  0  0  0
 61 63  1  0  0  0  0
 61 74  1  0  0  0  0
 62 75  1  0  0  0  0
 65 66  1  0  0  0  0
M  CHG  1  75   1
M  ISO  4  36 101  41 100  71 100  82 101
M  END
> <Batch ID>
0113

> <Smiles>
C=Cc1ncc(NCC=[101CH:1][101O:1]c2ccc3c(c2)CN(C(=O)C(NC(=O)C(C)NC)C(C)(C)C)C(C(=O)NC2CCCc4ccccc42)C3)c(C)c1[100NH:0][100C:0](=O)N1CCCC(n2nc(-c3ccc(Oc4ccc(F)cc4F)cc3)c(C(N)=O)c2N)C1

> <Shape>
0.317

> <Color>
0.212

> <Negative vol penalty>
0.000

$$$$

  -OEChem-04052301343D

 88 97  0     1  0  0  0  0  0999 V2000
  -27.6038  -36.2964   24.2165 C   0  0  0  0  0  0  0  0  0  0  0  0
  -28.0750  -35.2039   23.4954 C   0  0  0  0  0  0  0  0  0  0  0  0
  -22.5811  -15.0873   24.3852 C   0  0  0  0  0  0  0  0  0  0  0  0
  -21.9678  -16.1843   22.3219 C   0  0  0  0  0  0  0  0  0  0  0  0
  -26.5795  -36.1266   25.1470 C   0  0  0  0  0  0  0  0  0  0  0  0
  -27.5229  -33.9408   23.7053 C   0  0  0  0  0  0  0  0  0  0  0  0
  -26.6814  -29.5490   19.5208 C   0  0  0  0  0  0  0  0  0  0  0  0
  -21.4657  -15.6427   25.0121 C   0  0  0  0  0  0  0  0  0  0  0  0
  -20.8524  -16.7398   22.9488 C   0  0  0  0  0  0  0  0  0  0  0  0
  -27.4198  -28.4132   19.1917 C   0  0  0  0  0  0  0  0  0  0  0  0
  -18.1400  -15.0511   25.1615 C   0  0  0  0  0  0  0  0  0  0  0  0
  -17.3669  -14.2162   25.9681 C   0  0  0  0  0  0  0  0  0  0  0  0
  -28.6711  -21.2429   16.4961 C   0  0  0  0  0  0  0  0  0  0  0  0
  -27.5784  -19.2381   17.2859 C   0  0  0  0  0  0  0  0  0  0  0  0
  -25.9934  -27.0821   20.6104 C   0  0  0  0  0  0  0  0  0  0  0  0
  -29.6664  -19.9452   18.2745 C   0  0  0  0  0  0  0  0  0  0  0  0
  -17.8059  -15.6441   27.8670 C   0  0  0  0  0  0  0  0  0  0  0  0
  -22.8322  -15.3581   23.0401 C   0  0  0  0  0  0  0  0  0  0  0  0
  -27.6109  -20.3389   16.4298 C   0  0  0  0  0  0  0  0  0  0  0  0
  -24.0541  -13.5524   21.7158 C   0  0  0  0  0  0  0  0  0  0  0  0
  -26.0080  -34.8625   25.3615 C   0  0  0  0  0  0  0  0  0  0  0  0
  -25.5983  -29.4617   20.4073 C   0  0  0  0  0  0  0  0  0  0  0  0
  -26.4909  -33.7537   24.6406 C   0  0  0  0  0  0  0  0  0  0  0  0
  -25.2413  -28.2179   20.9472 C   0  0  0  0  0  0  0  0  0  0  0  0
  -29.6989  -21.0460   17.4184 C   0  0  0  0  0  0  0  0  0  0  0  0
  -28.6062  -19.0413   18.2082 C   0  0  0  0  0  0  0  0  0  0  0  0
  -20.6014  -16.4690   24.2939 C   0  0  0  0  0  0  0  0  0  0  0  0
  -27.0777  -27.1800   19.7387 C   0  0  0  0  0  0  0  0  0  0  0  0
  -18.7462  -16.1826   25.7076 C   0  0  0  0  0  0  0  0  0  0  0  0
  -17.1998  -14.5126   27.3209 C   0  0  0  0  0  0  0  0  0  0  0  0
  -18.5791  -16.4790   27.0603 C   0  0  0  0  0  0  0  0  0  0  0  0
  -23.9845  -14.7851   22.3921 C   0  0  0  0  0  0  0  0  0  0  0  0
  -25.3556  -13.4705   21.2844 C   0  0  0  0  0  0  0  0  0  0  0  0
  -29.9320  -25.0236   19.4527 C   0  0  0  0  0  0  0  0  0  0  0  0
  -24.8636  -23.0196   13.3061 C   0  0  0  0  0  0  0  0  0  0  0  0
  -26.5392  -20.5434   15.4679 C   0  0  0  0  0  0  0  0  0  0  0  0
  -29.1302  -26.0587   19.7203 C   0  0  0  0  0  0  0  0  0  1  0  0
  -25.1627  -21.8612   13.9048 C   0  0  0  0  0  0  0  0  0  0  0  0
  -26.2363  -21.7149   14.8619 C   0  0  0  0  0  0  0  0  0  0  0  0
  -23.0337  -12.5693   21.4970 C   0  0  0  0  0  0  0  0  0  0  0  0
  -24.9192  -30.7129   23.2493 C   0  0  0  0  0  0  0  0  0  0  0  0
  -22.0458  -29.2913   22.7543 C   0  0  0  0  0  0  0  0  0  0  0  0
  -20.2540  -26.8500   21.1806 C   0  0  0  0  0  0  0  0  0  0  0  0
  -29.5132  -17.5807   20.0495 C   0  0  0  0  0  0  0  0  0  0  0  0
  -24.9353  -34.7196   26.4121 C   0  0  0  0  0  0  0  0  0  0  0  0
  -24.7954  -30.6916   20.7313 C   0  0  0  0  0  0  0  0  0  0  0  0
  -24.0747  -28.0671   21.8879 C   0  0  0  0  0  0  0  0  0  0  0  0
  -31.3984  -24.9563   19.7594 C   0  0  0  0  0  0  0  0  0  0  0  0
  -29.5170  -23.7732   18.7449 C   0  0  0  0  0  0  0  0  0  0  0  0
  -24.1477  -33.4164   26.3050 C   0  0  0  0  0  0  0  0  0  0  0  0
  -29.7741  -14.9316   22.4141 C   0  0  0  0  0  0  0  0  0  0  0  0
  -25.0939  -32.2345   26.1192 C   0  0  0  0  0  0  0  0  0  0  0  0
  -28.3260  -14.4771   22.6106 C   0  0  0  0  0  0  0  0  0  0  0  0
  -29.8736  -16.4448   22.2301 C   0  0  0  0  0  0  0  0  0  0  0  0
  -27.5660  -16.5456   21.3734 C   0  0  0  0  0  0  0  0  0  0  0  0
  -31.9139  -23.8973   18.7940 C   0  0  0  0  0  0  0  0  0  0  0  0
  -25.9006  -32.3722   24.8223 C   0  0  1  0  0  0  0  0  0  0  0  0
  -24.0299  -30.5762   22.0459 C   0  0  1  0  0  0  0  0  0  0  0  0
  -27.4086  -15.0214   21.4981 C   0  0  2  0  0  0  0  0  0  0  0  0
  -17.9325  -25.9135   21.0047 C   0  0  0  0  0  0  0  0  0  0  0  0
  -22.3889  -27.9377   25.4673 C   0  0  0  0  0  0  0  0  0  0  0  0
  -20.5747  -26.3381   24.8205 C   0  0  0  0  0  0  0  0  0  0  0  0
  -20.0786  -28.7759   25.0043 C   0  0  0  0  0  0  0  0  0  0  0  0
  -20.1050  -27.4533   18.2871 C   0  0  0  0  0  0  0  0  0  0  0  0
  -30.8398  -22.0177   17.4897 C   0  0  0  0  0  0  0  0  0  0  0  0
  -21.4575  -27.9349   23.0593 C   0  0  1  0  0  0  0  0  0  0  0  0
  -18.9387  -26.8949   20.4241 C   0  0  2  0  0  0  0  0  0  0  0  0
  -21.1481  -27.7495   24.5717 C   0  0  0  0  0  0  0  0  0  0  0  0
  -25.1491  -15.4391   22.3932 N   0  0  0  0  0  0  0  0  0  0  0  0
  -25.9628  -14.6143   21.7123 N   0  0  0  0  0  0  0  0  0  0  0  0
  -23.3244  -29.3000   22.1790 N   0  0  0  0  0  0  0  0  0  0  0  0
  -28.9806  -16.8876   21.1571 N   0  0  0  0  0  0  0  0  0  0  0  0
  -26.0283  -12.5322   20.5848 N   0  0  0  0  0  0  0  0  0  0  0  0
  -21.7514  -12.8122   22.0081 N   0  0  0  0  0  0  0  0  0  0  0  0
  -28.5739  -17.9225   19.0772 N   0  0  0  0  0  0  0  0  0  0  0  0
  -25.0864  -32.0150   23.6804 N   0  0  0  0  0  0  0  0  0  0  0  0
  -20.2954  -27.7891   22.1894 N   0  0  0  0  0  0  0  0  0  0  0  0
  -30.7647  -22.9219   18.6746 N   0  3  2  0  0  0  0  0  0  0  0  0
  -19.1544  -26.5534   18.9896 N   0  3  0  0  0  0  0  0  0  0  0  0
  -23.2566  -11.4995   20.8810 O   0  0  0  0  0  0  0  0  0  0  0  0
  -25.4157  -29.7109   23.7505 O   0  0  0  0  0  0  0  0  0  0  0  0
  -21.3920  -30.3055   23.0103 O   0  0  0  0  0  0  0  0  0  0  0  0
  -21.1533  -26.0583   20.9067 O   0  0  0  0  0  0  0  0  0  0  0  0
  -30.7185  -17.8271   19.9566 O   0  0  0  0  0  0  0  0  0  0  0  0
  -19.5128  -17.0110   24.9052 O   0  0  0  0  0  0  0  0  0  0  0  0
  -27.7971  -26.0698   19.4196 O   0  0  0  0  0  0  0  0  0  1  0  0
  -16.4561  -13.7116   28.0950 F   0  0  0  0  0  0  0  0  0  0  0  0
  -19.1580  -17.5652   27.5903 F   0  0  0  0  0  0  0  0  0  0  0  0
  1  2  1  0  0  0  0
  1  5  2  0  0  0  0
  2  6  2  0  0  0  0
  3  8  2  0  0  0  0
  3 18  1  0  0  0  0
  4  9  1  0  0  0  0
  4 18  2  0  0  0  0
  5 21  1  0  0  0  0
  6 23  1  0  0  0  0
  7 10  2  0  0  0  0
  7 22  1  0  0  0  0
  8 27  1  0  0  0  0
  9 27  2  0  0  0  0
 10 28  1  0  0  0  0
 11 12  2  0  0  0  0
 11 29  1  0  0  0  0
 12 30  1  0  0  0  0
 13 19  1  0  0  0  0
 13 25  2  0  0  0  0
 14 19  2  0  0  0  0
 14 26  1  0  0  0  0
 15 24  1  0  0  0  0
 15 28  2  0  0  0  0
 16 25  1  0  0  0  0
 16 26  2  0  0  0  0
 17 30  2  0  0  0  0
 17 31  1  0  0  0  0
 18 32  1  0  0  0  0
 19 36  1  0  0  0  0
 20 32  1  0  0  0  0
 20 33  2  0  0  0  0
 20 40  1  0  0  0  0
 21 23  2  0  0  0  0
 21 45  1  0  0  0  0
 22 24  2  0  0  0  0
 22 46  1  0  0  0  0
 23 57  1  0  0  0  0
 24 47  1  0  0  0  0
 25 65  1  0  0  0  0
 26 75  1  0  0  0  0
 27 85  1  0  0  0  0
 28 86  1  0  0  0  0
 29 31  2  0  0  0  0
 29 85  1  0  0  0  0
 30 87  1  0  0  0  0
 31 88  1  0  0  0  0
 32 69  2  0  0  0  0
 33 70  1  0  0  0  0
 33 73  1  0  0  0  0
 34 37  2  0  0  0  0
 34 48  1  0  0  0  0
 34 49  1  0  0  0  0
 35 38  2  0  0  0  0
 36 39  2  0  0  0  0
 37 86  1  0  0  0  0
 38 39  1  0  0  0  0
 40 74  1  0  0  0  0
 40 80  2  0  0  0  0
 41 58  1  0  0  0  0
 41 76  1  0  0  0  0
 41 81  2  0  0  0  0
 42 66  1  0  0  0  0
 42 71  1  0  0  0  0
 42 82  2  0  0  0  0
 43 67  1  0  0  0  0
 43 77  1  0  0  0  0
 43 83  2  0  0  0  0
 44 72  1  0  0  0  0
 44 75  1  0  0  0  0
 44 84  2  0  0  0  0
 45 50  1  0  0  0  0
 46 58  1  0  0  0  0
 47 71  1  0  0  0  0
 48 56  1  0  0  0  0
 49 78  1  0  0  0  0
 50 52  1  0  0  0  0
 51 53  1  0  0  0  0
 51 54  1  0  0  0  0
 52 57  1  0  0  0  0
 53 59  1  0  0  0  0
 54 72  1  0  0  0  0
 55 59  1  0  0  0  0
 55 72  1  0  0  0  0
 56 78  1  0  0  0  0
 57 76  1  0  0  0  0
 58 71  1  0  0  0  0
 59 70  1  0  0  0  0
 60 67  1  0  0  0  0
 61 68  1  0  0  0  0
 62 68  1  0  0  0  0
 63 68  1  0  0  0  0
 64 79  1  0  0  0  0
 65 78  1  0  0  0  0
 66 68  1  0  0  0  0
 66 77  1  0  0  0  0
 67 79  1  0  0  0  0
 69 70  1  0  0  0  0
M  CHG  2  78   1  79   1
M  ISO  4  37 101  44 100  75 100  86 101
M  END
> <Batch ID>
0113

> <Smiles>
C=CC=Cc1cc(CN2CCC(=[101CH:1][101O:1]c3ccc4c(c3)CN(C(=O)C(NC(=O)C(C)NC)C(C)(C)C)C(C(=O)NC3CCCc5ccccc53)C4)C2)cc([100NH:0][100C:0](=O)N2CCCC(n3nc(-c4ccc(Oc5ccc(F)cc5F)cc4)c(C(N)=O)c3N)C2)c1

> <Shape>
0.276

> <Color>
0.075

> <Negative vol penalty>
0.000

$$$$

  -OEChem-04052301343D

 86 94  0     1  0  0  0  0  0999 V2000
  -25.9355  -31.4670   20.7544 C   0  0  0  0  0  0  0  0  0  0  0  0
  -25.8456  -30.1004   20.5104 C   0  0  0  0  0  0  0  0  0  0  0  0
  -23.0872   -9.7805   19.9900 C   0  0  0  0  0  0  0  0  0  0  0  0
  -23.8319   -9.8853   22.2860 C   0  0  0  0  0  0  0  0  0  0  0  0
  -25.0504  -32.0748   21.6439 C   0  0  0  0  0  0  0  0  0  0  0  0
  -24.8712  -29.3405   21.1566 C   0  0  0  0  0  0  0  0  0  0  0  0
  -22.5124  -26.1363   18.0238 C   0  0  0  0  0  0  0  0  0  0  0  0
  -22.3739   -8.6161   20.2745 C   0  0  0  0  0  0  0  0  0  0  0  0
  -23.1185   -8.7209   22.5705 C   0  0  0  0  0  0  0  0  0  0  0  0
  -23.1886  -24.9658   17.6825 C   0  0  0  0  0  0  0  0  0  0  0  0
  -23.5047   -5.3915   22.1268 C   0  0  0  0  0  0  0  0  0  0  0  0
  -24.1437   -4.4084   22.8822 C   0  0  0  0  0  0  0  0  0  0  0  0
  -29.5790  -17.4348   19.8728 C   0  0  0  0  0  0  0  0  0  0  0  0
  -21.8899  -23.7481   19.3103 C   0  0  0  0  0  0  0  0  0  0  0  0
  -27.4228  -18.4965   21.2892 C   0  0  0  0  0  0  0  0  0  0  0  0
  -22.4272   -4.5915   24.5725 C   0  0  0  0  0  0  0  0  0  0  0  0
  -23.8163  -10.4151   20.9958 C   0  0  0  0  0  0  0  0  0  0  0  0
  -29.2170  -16.8891   21.1044 C   0  0  0  0  0  0  0  0  0  0  0  0
  -24.0890  -12.9434   20.7928 C   0  0  0  0  0  0  0  0  0  0  0  0
  -24.0584  -31.3237   22.2939 C   0  0  0  0  0  0  0  0  0  0  0  0
  -21.5258  -26.1236   19.0202 C   0  0  0  0  0  0  0  0  0  0  0  0
  -23.9729  -29.9386   22.0566 C   0  0  0  0  0  0  0  0  0  0  0  0
  -21.2008  -24.9193   19.6605 C   0  0  0  0  0  0  0  0  0  0  0  0
  -28.1389  -17.4199   21.8125 C   0  0  0  0  0  0  0  0  0  0  0  0
  -22.3895   -8.0863   21.5648 C   0  0  0  0  0  0  0  0  0  0  0  0
  -22.8794  -23.7721   18.3278 C   0  0  0  0  0  0  0  0  0  0  0  0
  -22.3270   -5.9748   22.5943 C   0  0  0  0  0  0  0  0  0  0  0  0
  -27.7849  -19.0423   20.0576 C   0  0  0  0  0  0  0  0  0  0  0  0
  -23.6049   -4.0083   24.1050 C   0  0  0  0  0  0  0  0  0  0  0  0
  -28.8630  -18.5115   19.3495 C   0  0  0  0  0  0  0  0  0  0  0  0
  -21.7882   -5.5748   23.8171 C   0  0  0  0  0  0  0  0  0  0  0  0
  -24.5538  -11.6176   20.7024 C   0  0  0  0  0  0  0  0  0  0  0  0
  -25.1623  -13.7104   20.4106 C   0  0  0  0  0  0  0  0  0  0  0  0
  -24.9434  -20.8593   18.8001 C   0  0  0  0  0  0  0  0  0  0  0  0
  -24.2479  -21.9889   18.9747 C   0  0  0  0  0  0  0  0  0  1  0  0
  -29.9835  -15.7667   21.6284 C   0  0  0  0  0  0  0  0  0  0  0  0
  -22.8021  -13.4373   21.1872 C   0  0  0  0  0  0  0  0  0  0  0  0
  -30.6410  -14.7952   20.7243 C   0  0  0  0  0  0  0  0  0  0  0  0
  -21.1722  -27.5376   21.8450 C   0  0  0  0  0  0  0  0  0  0  0  0
  -18.2338  -26.1688   21.7255 C   0  0  0  0  0  0  0  0  0  0  0  0
  -16.2374  -23.6976   20.4788 C   0  0  0  0  0  0  0  0  0  0  0  0
  -23.1546  -32.0165   23.2828 C   0  0  0  0  0  0  0  0  0  0  0  0
  -20.7868  -27.3894   19.3579 C   0  0  0  0  0  0  0  0  0  0  0  0
  -20.1355  -24.8483   20.7229 C   0  0  0  0  0  0  0  0  0  0  0  0
  -21.9108  -31.2075   23.6417 C   0  0  0  0  0  0  0  0  0  0  0  0
  -29.5502  -12.4195   18.2702 C   0  0  0  0  0  0  0  0  0  0  0  0
  -22.2845  -29.7598   23.9442 C   0  0  0  0  0  0  0  0  0  0  0  0
  -28.1283  -12.0795   18.7155 C   0  0  0  0  0  0  0  0  0  0  0  0
  -30.4606  -12.6860   19.4645 C   0  0  0  0  0  0  0  0  0  0  0  0
  -28.5258  -13.4113   20.8353 C   0  0  0  0  0  0  0  0  0  0  0  0
  -22.9135  -29.0849   22.7193 C   0  0  1  0  0  0  0  0  0  0  0  0
  -20.1600  -27.3625   20.7485 C   0  0  1  0  0  0  0  0  0  0  0  0
  -27.5701  -13.1629   19.6554 C   0  0  2  0  0  0  0  0  0  0  0  0
  -27.7479  -17.1778   25.6458 C   0  0  0  0  0  0  0  0  0  0  0  0
  -13.8910  -22.8150   20.5933 C   0  0  0  0  0  0  0  0  0  0  0  0
  -18.8287  -24.9487   24.4582 C   0  0  0  0  0  0  0  0  0  0  0  0
  -16.9239  -23.3664   24.0889 C   0  0  0  0  0  0  0  0  0  0  0  0
  -16.5008  -25.8227   24.1903 C   0  0  0  0  0  0  0  0  0  0  0  0
  -15.8009  -24.1542   17.5874 C   0  0  0  0  0  0  0  0  0  0  0  0
  -27.7310  -16.8552   23.1342 C   0  0  0  0  0  0  0  0  0  0  0  0
  -25.7044  -20.1828   19.8942 C   0  0  0  0  0  0  0  0  0  0  0  0
  -28.1928  -17.7365   24.3035 C   0  0  0  0  0  0  0  0  0  0  0  0
  -17.6521  -24.8460   22.1623 C   0  0  1  0  0  0  0  0  0  0  0  0
  -14.8517  -23.7381   19.8600 C   0  0  2  0  0  0  0  0  0  0  0  0
  -17.4979  -24.7473   23.7063 C   0  0  0  0  0  0  0  0  0  0  0  0
  -25.8235  -11.5431   20.2945 N   0  0  0  0  0  0  0  0  0  0  0  0
  -30.1431  -15.5441   22.9037 N   0  0  0  0  0  0  0  0  0  0  0  0
  -26.1656  -12.8317   20.1252 N   0  0  0  0  0  0  0  0  0  0  0  0
  -29.8844  -13.6921   20.3543 N   0  0  0  0  0  0  0  0  0  0  0  0
  -19.4456  -26.1139   21.0223 N   0  0  0  0  0  0  0  0  0  0  0  0
  -25.3363  -15.0440   20.2940 N   0  0  0  0  0  0  0  0  0  0  0  0
  -21.8135  -12.5121   21.5492 N   0  0  0  0  0  0  0  0  0  0  0  0
  -21.8904  -28.7154   21.7648 N   0  0  0  0  0  0  0  0  0  0  0  0
  -16.4030  -24.6862   21.4256 N   0  0  0  0  0  0  0  0  0  0  0  0
  -14.9098  -23.3173   18.4316 N   0  3  0  0  0  0  0  0  0  0  0  0
  -22.5315  -14.6621   21.2018 O   0  0  0  0  0  0  0  0  0  0  0  0
  -31.7883  -15.0707   20.3988 O   0  0  0  0  0  0  0  0  0  0  0  0
  -21.2918  -26.6692   22.7013 O   0  0  0  0  0  0  0  0  0  0  0  0
  -17.6315  -27.2118   21.9920 O   0  0  0  0  0  0  0  0  0  0  0  0
  -17.0865  -22.8693   20.1572 O   0  0  0  0  0  0  0  0  0  0  0  0
  -21.6934   -6.9503   21.8428 O   0  0  0  0  0  0  0  0  0  0  0  0
  -23.5384  -22.6283   17.9971 O   0  0  0  0  0  0  0  0  0  1  0  0
  -27.0800  -20.0998   19.5450 O   0  0  0  0  0  0  0  0  0  0  0  0
  -24.2178   -3.0630   24.8296 F   0  0  0  0  0  0  0  0  0  0  0  0
  -29.2168  -19.0326   18.1666 F   0  0  0  0  0  0  0  0  0  0  0  0
  -20.6564   -6.1306   24.2708 F   0  0  0  0  0  0  0  0  0  0  0  0
  1  2  1  0  0  0  0
  1  5  2  0  0  0  0
  2  6  2  0  0  0  0
  3  8  2  0  0  0  0
  3 17  1  0  0  0  0
  4  9  1  0  0  0  0
  4 17  2  0  0  0  0
  5 20  1  0  0  0  0
  6 22  1  0  0  0  0
  7 10  2  0  0  0  0
  7 21  1  0  0  0  0
  8 25  1  0  0  0  0
  9 25  2  0  0  0  0
 10 26  1  0  0  0  0
 11 12  2  0  0  0  0
 11 27  1  0  0  0  0
 12 29  1  0  0  0  0
 13 18  1  0  0  0  0
 13 30  2  0  0  0  0
 14 23  1  0  0  0  0
 14 26  2  0  0  0  0
 15 24  1  0  0  0  0
 15 28  2  0  0  0  0
 16 29  2  0  0  0  0
 16 31  1  0  0  0  0
 17 32  1  0  0  0  0
 18 24  2  0  0  0  0
 18 36  1  0  0  0  0
 19 32  1  0  0  0  0
 19 33  2  0  0  0  0
 19 37  1  0  0  0  0
 20 22  2  0  0  0  0
 20 42  1  0  0  0  0
 21 23  2  0  0  0  0
 21 43  1  0  0  0  0
 22 51  1  0  0  0  0
 23 44  1  0  0  0  0
 24 60  1  0  0  0  0
 25 81  1  0  0  0  0
 26 82  1  0  0  0  0
 27 31  2  0  0  0  0
 27 81  1  0  0  0  0
 28 30  1  0  0  0  0
 28 83  1  0  0  0  0
 29 84  1  0  0  0  0
 30 85  1  0  0  0  0
 31 86  1  0  0  0  0
 32 66  2  0  0  0  0
 33 68  1  0  0  0  0
 33 71  1  0  0  0  0
 34 35  2  0  0  0  0
 34 61  1  0  0  0  0
 35 82  1  0  0  0  0
 36 38  1  0  0  0  0
 36 67  2  0  0  0  0
 37 72  1  0  0  0  0
 37 76  2  0  0  0  0
 38 69  1  0  0  0  0
 38 77  2  0  0  0  0
 39 52  1  0  0  0  0
 39 73  1  0  0  0  0
 39 78  2  0  0  0  0
 40 63  1  0  0  0  0
 40 70  1  0  0  0  0
 40 79  2  0  0  0  0
 41 64  1  0  0  0  0
 41 74  1  0  0  0  0
 41 80  2  0  0  0  0
 42 45  1  0  0  0  0
 43 52  1  0  0  0  0
 44 70  1  0  0  0  0
 45 47  1  0  0  0  0
 46 48  1  0  0  0  0
 46 49  1  0  0  0  0
 47 51  1  0  0  0  0
 48 53  1  0  0  0  0
 49 69  1  0  0  0  0
 50 53  1  0  0  0  0
 50 69  1  0  0  0  0
 51 73  1  0  0  0  0
 52 70  1  0  0  0  0
 53 68  1  0  0  0  0
 54 62  1  0  0  0  0
 55 64  1  0  0  0  0
 56 65  1  0  0  0  0
 57 65  1  0  0  0  0
 58 65  1  0  0  0  0
 59 75  1  0  0  0  0
 60 62  1  0  0  0  0
 61 83  1  0  0  0  0
 63 65  1  0  0  0  0
 63 74  1  0  0  0  0
 64 75  1  0  0  0  0
 66 68  1  0  0  0  0
M  CHG  1  75   1
M  ISO  4  35 101  36 100  38 100  82 101
M  END
> <Batch ID>
0113

> <Smiles>
CCCc1cc(OCC=[101CH:1][101O:1]c2ccc3c(c2)CN(C(=O)C(NC(=O)C(C)NC)C(C)(C)C)C(C(=O)NC2CCCc4ccccc42)C3)c(F)cc1[100C:0](=N)[100C:0](=O)N1CCCC(n2nc(-c3ccc(Oc4ccc(F)cc4F)cc3)c(C(N)=O)c2N)C1

> <Shape>
0.317

> <Color>
0.209

> <Negative vol penalty>
0.000

$$$$

  -OEChem-04052301343D

 89 98  0     1  0  0  0  0  0999 V2000
  -27.5402  -36.3998   24.8623 C   0  0  0  0  0  0  0  0  0  0  0  0
  -28.0675  -35.2663   24.2519 C   0  0  0  0  0  0  0  0  0  0  0  0
  -22.9863   -9.7102   19.8439 C   0  0  0  0  0  0  0  0  0  0  0  0
  -24.5097   -9.2116   21.6516 C   0  0  0  0  0  0  0  0  0  0  0  0
  -26.2959  -36.3380   25.4883 C   0  0  0  0  0  0  0  0  0  0  0  0
  -27.3512  -34.0700   24.2680 C   0  0  0  0  0  0  0  0  0  0  0  0
  -27.1833  -29.8198   19.8620 C   0  0  0  0  0  0  0  0  0  0  0  0
  -21.9098   -9.3354   20.6477 C   0  0  0  0  0  0  0  0  0  0  0  0
  -23.4332   -8.8369   22.4555 C   0  0  0  0  0  0  0  0  0  0  0  0
  -27.8597  -28.6118   19.6978 C   0  0  0  0  0  0  0  0  0  0  0  0
  -21.4124   -6.1509   22.8200 C   0  0  0  0  0  0  0  0  0  0  0  0
  -21.5339   -4.9740   23.5587 C   0  0  0  0  0  0  0  0  0  0  0  0
  -25.9807  -27.4370   20.6508 C   0  0  0  0  0  0  0  0  0  0  0  0
  -30.6905  -18.8149   19.2514 C   0  0  0  0  0  0  0  0  0  0  0  0
  -28.3031  -18.7358   18.8896 C   0  0  0  0  0  0  0  0  0  0  0  0
  -21.2388   -6.2267   25.6034 C   0  0  0  0  0  0  0  0  0  0  0  0
  -24.2863   -9.6482   20.3458 C   0  0  0  0  0  0  0  0  0  0  0  0
  -25.7813   -9.4639   18.2869 C   0  0  0  0  0  0  0  0  0  0  0  0
  -25.5596  -35.1429   25.5037 C   0  0  0  0  0  0  0  0  0  0  0  0
  -25.9028  -29.8466   20.4329 C   0  0  0  0  0  0  0  0  0  0  0  0
  -26.0965  -33.9919   24.8960 C   0  0  0  0  0  0  0  0  0  0  0  0
  -25.2891  -28.6464   20.8189 C   0  0  0  0  0  0  0  0  0  0  0  0
  -29.4774  -20.8423   18.7462 C   0  0  0  0  0  0  0  0  0  0  0  0
  -29.5033  -18.0864   19.1787 C   0  0  0  0  0  0  0  0  0  0  0  0
  -30.6775  -20.1929   19.0353 C   0  0  0  0  0  0  0  0  0  0  0  0
  -22.1332   -8.8988   21.9535 C   0  0  0  0  0  0  0  0  0  0  0  0
  -27.2596  -27.4204   20.0949 C   0  0  0  0  0  0  0  0  0  0  0  0
  -21.2041   -7.3658   23.4731 C   0  0  0  0  0  0  0  0  0  0  0  0
  -21.4471   -5.0118   24.9503 C   0  0  0  0  0  0  0  0  0  0  0  0
  -28.2901  -20.1138   18.6734 C   0  0  0  0  0  0  0  0  0  0  0  0
  -21.1173   -7.4037   24.8647 C   0  0  0  0  0  0  0  0  0  0  0  0
  -25.3989  -10.0346   19.5157 C   0  0  0  0  0  0  0  0  0  0  0  0
  -26.8890  -10.1807   17.9054 C   0  0  0  0  0  0  0  0  0  0  0  0
  -27.8674  -24.0977   18.8390 C   0  0  0  0  0  0  0  0  0  0  0  0
  -28.6827  -23.1215   19.3212 C   0  0  0  0  0  0  0  0  0  0  0  0
  -29.0410  -22.6369   16.1581 C   0  0  0  0  0  0  0  0  0  0  0  0
  -25.1882   -8.3825   17.5558 C   0  0  0  0  0  0  0  0  0  0  0  0
  -24.6366  -31.1489   23.0414 C   0  0  0  0  0  0  0  0  0  0  0  0
  -21.8616  -30.0530   21.7684 C   0  0  0  0  0  0  0  0  0  0  0  0
  -20.7323  -27.0634   20.0938 C   0  0  0  0  0  0  0  0  0  0  0  0
  -28.4312  -15.8060   19.3659 C   0  0  0  0  0  0  0  0  0  0  0  0
  -24.2402  -35.1124   26.2338 C   0  0  0  0  0  0  0  0  0  0  0  0
  -25.1756  -31.1552   20.5786 C   0  0  0  0  0  0  0  0  0  0  0  0
  -23.9076  -28.6190   21.4182 C   0  0  0  0  0  0  0  0  0  0  0  0
  -27.5690  -24.3188   17.3598 C   0  0  0  0  0  0  0  0  0  0  0  0
  -27.6281  -23.0932   16.4484 C   0  0  0  0  0  0  0  0  0  0  0  0
  -30.0555  -22.7192   17.2723 C   0  0  0  0  0  0  0  0  0  0  0  0
  -23.3769  -33.9038   25.8814 C   0  0  0  0  0  0  0  0  0  0  0  0
  -30.1913  -12.5889   20.4957 C   0  0  0  0  0  0  0  0  0  0  0  0
  -24.2104  -32.6265   25.9080 C   0  0  0  0  0  0  0  0  0  0  0  0
  -29.4797  -11.5812   19.5960 C   0  0  0  0  0  0  0  0  0  0  0  0
  -30.1430  -14.0028   19.9304 C   0  0  0  0  0  0  0  0  0  0  0  0
  -27.7238  -13.4374   19.6411 C   0  0  0  0  0  0  0  0  0  0  0  0
  -25.3386  -32.6822   24.8709 C   0  0  1  0  0  0  0  0  0  0  0  0
  -24.0846  -31.1170   21.6443 C   0  0  1  0  0  0  0  0  0  0  0  0
  -28.1951  -12.1447   18.9567 C   0  0  2  0  0  0  0  0  0  0  0  0
  -28.8983  -22.9686   20.8163 C   0  0  0  0  0  0  0  0  0  0  0  0
  -18.8710  -26.7206   18.4459 C   0  0  0  0  0  0  0  0  0  0  0  0
  -20.2059  -29.3324   24.2280 C   0  0  0  0  0  0  0  0  0  0  0  0
  -19.0941  -27.5466   22.8703 C   0  0  0  0  0  0  0  0  0  0  0  0
  -18.8628  -29.9405   22.2079 C   0  0  0  0  0  0  0  0  0  0  0  0
  -22.5585  -25.8464   18.1081 C   0  0  0  0  0  0  0  0  0  0  0  0
  -27.1212  -25.0762   19.7191 C   0  0  0  0  0  0  0  0  0  1  0  0
  -21.0759  -28.7675   21.8637 C   0  0  1  0  0  0  0  0  0  0  0  0
  -20.3669  -26.9265   18.6267 C   0  0  2  0  0  0  0  0  0  0  0  0
  -19.8380  -28.8971   22.7955 C   0  0  0  0  0  0  0  0  0  0  0  0
  -26.1988  -11.0366   19.8899 N   0  0  0  0  0  0  0  0  0  0  0  0
  -27.0950  -11.1011   18.8905 N   0  0  0  0  0  0  0  0  0  0  0  0
  -29.4448  -22.2482   18.5219 N   0  0  0  0  0  0  0  0  0  0  0  0
  -23.2399  -29.9249   21.5460 N   0  0  0  0  0  0  0  0  0  0  0  0
  -28.7778  -14.4584   19.6305 N   0  0  0  0  0  0  0  0  0  0  0  0
  -31.8917  -20.9114   19.1141 N   0  0  0  0  0  0  0  0  0  0  0  0
  -27.6973  -10.1071   16.8266 N   0  0  0  0  0  0  0  0  0  0  0  0
  -25.6346   -7.0788   17.8115 N   0  0  0  0  0  0  0  0  0  0  0  0
  -29.5159  -16.6863   19.3990 N   0  0  0  0  0  0  0  0  0  0  0  0
  -24.8196  -32.4226   23.5451 N   0  0  0  0  0  0  0  0  0  0  0  0
  -20.7547  -28.3829   20.4935 N   0  0  0  0  0  0  0  0  0  0  0  0
  -21.0777  -25.7645   18.0221 N   0  3  0  0  0  0  0  0  0  0  0  0
  -29.3516  -22.2019   15.0484 O   0  0  0  0  0  0  0  0  0  0  0  0
  -24.3005   -8.5685   16.6892 O   0  0  0  0  0  0  0  0  0  0  0  0
  -24.8772  -30.0959   23.6202 O   0  0  0  0  0  0  0  0  0  0  0  0
  -21.2728  -31.1312   21.8799 O   0  0  0  0  0  0  0  0  0  0  0  0
  -20.9701  -26.0964   20.8141 O   0  0  0  0  0  0  0  0  0  0  0  0
  -27.2704  -16.1399   19.1191 O   0  0  0  0  0  0  0  0  0  0  0  0
  -21.0829   -8.5333   22.7383 O   0  0  0  0  0  0  0  0  0  0  0  0
  -27.9179  -26.2400   19.9363 O   0  0  0  0  0  0  0  0  0  1  0  0
  -21.5623   -3.8813   25.6594 F   0  0  0  0  0  0  0  0  0  0  0  0
  -27.1307  -20.7273   18.3961 F   0  0  0  0  0  0  0  0  0  0  0  0
  -20.9161   -8.5676   25.4976 F   0  0  0  0  0  0  0  0  0  0  0  0
  1  2  1  0  0  0  0
  1  5  2  0  0  0  0
  2  6  2  0  0  0  0
  3  8  2  0  0  0  0
  3 17  1  0  0  0  0
  4  9  1  0  0  0  0
  4 17  2  0  0  0  0
  5 19  1  0  0  0  0
  6 21  1  0  0  0  0
  7 10  2  0  0  0  0
  7 20  1  0  0  0  0
  8 26  1  0  0  0  0
  9 26  2  0  0  0  0
 10 27  1  0  0  0  0
 11 12  2  0  0  0  0
 11 28  1  0  0  0  0
 12 29  1  0  0  0  0
 13 22  1  0  0  0  0
 13 27  2  0  0  0  0
 14 24  1  0  0  0  0
 14 25  2  0  0  0  0
 15 24  2  0  0  0  0
 15 30  1  0  0  0  0
 16 29  2  0  0  0  0
 16 31  1  0  0  0  0
 17 32  1  0  0  0  0
 18 32  1  0  0  0  0
 18 33  2  0  0  0  0
 18 37  1  0  0  0  0
 19 21  2  0  0  0  0
 19 42  1  0  0  0  0
 20 22  2  0  0  0  0
 20 43  1  0  0  0  0
 21 54  1  0  0  0  0
 22 44  1  0  0  0  0
 23 25  1  0  0  0  0
 23 30  2  0  0  0  0
 23 69  1  0  0  0  0
 24 75  1  0  0  0  0
 25 72  1  0  0  0  0
 26 85  1  0  0  0  0
 27 86  1  0  0  0  0
 28 31  2  0  0  0  0
 28 85  1  0  0  0  0
 29 87  1  0  0  0  0
 30 88  1  0  0  0  0
 31 89  1  0  0  0  0
 32 67  2  0  0  0  0
 33 68  1  0  0  0  0
 33 73  1  0  0  0  0
 34 35  2  0  0  0  0
 34 45  1  0  0  0  0
 34 63  1  0  0  0  0
 35 57  1  0  0  0  0
 35 69  1  0  0  0  0
 36 46  1  0  0  0  0
 36 47  1  0  0  0  0
 36 79  2  0  0  0  0
 37 74  1  0  0  0  0
 37 80  2  0  0  0  0
 38 55  1  0  0  0  0
 38 76  1  0  0  0  0
 38 81  2  0  0  0  0
 39 64  1  0  0  0  0
 39 70  1  0  0  0  0
 39 82  2  0  0  0  0
 40 65  1  0  0  0  0
 40 77  1  0  0  0  0
 40 83  2  0  0  0  0
 41 71  1  0  0  0  0
 41 75  1  0  0  0  0
 41 84  2  0  0  0  0
 42 48  1  0  0  0  0
 43 55  1  0  0  0  0
 44 70  1  0  0  0  0
 45 46  1  0  0  0  0
 47 69  1  0  0  0  0
 48 50  1  0  0  0  0
 49 51  1  0  0  0  0
 49 52  1  0  0  0  0
 50 54  1  0  0  0  0
 51 56  1  0  0  0  0
 52 71  1  0  0  0  0
 53 56  1  0  0  0  0
 53 71  1  0  0  0  0
 54 76  1  0  0  0  0
 55 70  1  0  0  0  0
 56 68  1  0  0  0  0
 58 65  1  0  0  0  0
 59 66  1  0  0  0  0
 60 66  1  0  0  0  0
 61 66  1  0  0  0  0
 62 78  1  0  0  0  0
 63 86  1  0  0  0  0
 64 66  1  0  0  0  0
 64 77  1  0  0  0  0
 65 78  1  0  0  0  0
 67 68  1  0  0  0  0
M  CHG  1  78   1
M  ISO  4  41 100  63 101  75 100  86 101
M  END
> <Batch ID>
0113

> <Smiles>
CNC(C)C(=O)NC(C(=O)N1Cc2cc([101O:1][101CH2:1]C3=C(C)N(c4c(N)cc([100NH:0][100C:0](=O)N5CCCC(n6nc(-c7ccc(Oc8ccc(F)cc8F)cc7)c(C(N)=O)c6N)C5)cc4F)CC(=O)CC3)ccc2CC1C(=O)NC1CCCc2ccccc21)C(C)(C)C

> <Shape>
0.342

> <Color>
0.090

> <Negative vol penalty>
0.000

$$$$

  -OEChem-04052301343D

 85 93  0     1  0  0  0  0  0999 V2000
  -29.7633  -22.6592   18.6133 C   0  0  0  0  0  0  0  0  0  0  0  0
  -28.5282  -22.8453   19.2260 C   0  0  0  0  0  0  0  0  0  0  0  0
  -23.3405  -12.9294   19.3356 C   0  0  0  0  0  0  0  0  0  0  0  0
  -24.4094  -14.3277   20.9908 C   0  0  0  0  0  0  0  0  0  0  0  0
  -22.8627  -22.7509   23.8106 C   0  0  0  0  0  0  0  0  0  0  0  0
  -30.8529  -23.4423   18.9916 C   0  0  0  0  0  0  0  0  0  0  0  0
  -28.3825  -23.8141   20.2183 C   0  0  0  0  0  0  0  0  0  0  0  0
  -24.1740  -26.5706   19.6389 C   0  0  0  0  0  0  0  0  0  0  0  0
  -24.2314  -22.4855   23.7672 C   0  0  0  0  0  0  0  0  0  0  0  0
  -24.4947  -12.1512   19.2476 C   0  0  0  0  0  0  0  0  0  0  0  0
  -25.5636  -13.5494   20.9028 C   0  0  0  0  0  0  0  0  0  0  0  0
  -22.9719  -25.9894   20.0399 C   0  0  0  0  0  0  0  0  0  0  0  0
  -28.2023  -13.2338   18.8127 C   0  0  0  0  0  0  0  0  0  0  0  0
  -29.4268  -13.8971   18.7346 C   0  0  0  0  0  0  0  0  0  0  0  0
  -23.0628  -27.2383   22.1017 C   0  0  0  0  0  0  0  0  0  0  0  0
  -30.1438  -12.8132   20.7713 C   0  0  0  0  0  0  0  0  0  0  0  0
  -23.2978  -14.0177   20.2071 C   0  0  0  0  0  0  0  0  0  0  0  0
  -22.1224  -22.7917   22.6291 C   0  0  0  0  0  0  0  0  0  0  0  0
  -21.0145  -14.6298   21.1659 C   0  0  0  0  0  0  0  0  0  0  0  0
  -30.7181  -24.4278   19.9822 C   0  0  0  0  0  0  0  0  0  0  0  0
  -24.8362  -27.4834   20.4724 C   0  0  0  0  0  0  0  0  0  0  0  0
  -29.4717  -24.6103   20.6112 C   0  0  0  0  0  0  0  0  0  0  0  0
  -24.2719  -27.8317   21.7078 C   0  0  0  0  0  0  0  0  0  0  0  0
  -22.7508  -22.5672   21.4042 C   0  0  0  0  0  0  0  0  0  0  0  0
  -24.1195  -22.3018   21.3608 C   0  0  0  0  0  0  0  0  0  0  0  0
  -24.8598  -22.2610   22.5424 C   0  0  0  0  0  0  0  0  0  0  0  0
  -25.6062  -12.4611   20.0313 C   0  0  0  0  0  0  0  0  0  0  0  0
  -22.4176  -26.3210   21.2727 C   0  0  0  0  0  0  0  0  0  0  0  0
  -27.9484  -12.3602   19.8702 C   0  0  0  0  0  0  0  0  0  0  0  0
  -30.3976  -13.6868   19.7139 C   0  0  0  0  0  0  0  0  0  0  0  0
  -28.9192  -12.1499   20.8494 C   0  0  0  0  0  0  0  0  0  0  0  0
  -22.1060  -14.8224   20.2980 C   0  0  0  0  0  0  0  0  0  0  0  0
  -20.1495  -15.6525   20.8618 C   0  0  0  0  0  0  0  0  0  0  0  0
  -19.0093  -24.4257   23.9213 C   0  0  0  0  0  0  0  0  0  0  0  0
  -20.6733  -23.0763   22.7076 C   0  0  0  0  0  0  0  0  0  0  0  0
  -20.8015  -13.6172   22.1583 C   0  0  0  0  0  0  0  0  0  0  0  0
  -20.1952  -24.3648   23.2978 C   0  0  0  0  0  0  0  0  0  0  0  0
  -27.6637  -27.5536   21.9230 C   0  0  0  0  0  0  0  0  0  0  0  0
  -26.7525  -30.5677   22.7023 C   0  0  0  0  0  0  0  0  0  0  0  0
  -24.2091  -32.7875   23.2025 C   0  0  0  0  0  0  0  0  0  0  0  0
  -20.9377  -21.0830   18.4660 C   0  0  0  0  0  0  0  0  0  0  0  0
  -31.9362  -25.2177   20.3909 C   0  0  0  0  0  0  0  0  0  0  0  0
  -26.1186  -28.1218   20.0136 C   0  0  0  0  0  0  0  0  0  0  0  0
  -24.9328  -28.8216   22.6307 C   0  0  0  0  0  0  0  0  0  0  0  0
  -31.6061  -26.4779   21.1866 C   0  0  0  0  0  0  0  0  0  0  0  0
  -18.8292  -18.4883   17.2416 C   0  0  0  0  0  0  0  0  0  0  0  0
  -30.5857  -26.1686   22.2775 C   0  0  0  0  0  0  0  0  0  0  0  0
  -19.3315  -17.2372   17.9644 C   0  0  0  0  0  0  0  0  0  0  0  0
  -19.9750  -19.4339   16.8879 C   0  0  0  0  0  0  0  0  0  0  0  0
  -21.3401  -18.5617   18.7451 C   0  0  0  0  0  0  0  0  0  0  0  0
  -29.2678  -25.6679   21.6741 C   0  0  1  0  0  0  0  0  0  0  0  0
  -26.9688  -28.6493   21.1652 C   0  0  1  0  0  0  0  0  0  0  0  0
  -20.2147  -17.6039   19.1721 C   0  0  2  0  0  0  0  0  0  0  0  0
  -24.7931  -22.0609   20.0460 C   0  0  0  0  0  0  0  0  0  0  0  0
  -23.7740  -35.1672   23.8698 C   0  0  0  0  0  0  0  0  0  0  0  0
  -27.3224  -29.8531   25.6135 C   0  0  0  0  0  0  0  0  0  0  0  0
  -26.0011  -31.8679   26.2939 C   0  0  0  0  0  0  0  0  0  0  0  0
  -28.0746  -32.1393   24.9340 C   0  0  0  0  0  0  0  0  0  0  0  0
  -22.9178  -33.4000   20.6110 C   0  0  0  0  0  0  0  0  0  0  0  0
  -21.9570  -22.6096   20.1362 C   0  0  0  0  0  0  0  0  0  0  0  0
  -21.0483  -25.5764   23.0690 C   0  0  0  0  0  0  0  0  0  1  0  0
  -25.9961  -31.1930   23.8494 C   0  0  1  0  0  0  0  0  0  0  0  0
  -24.0012  -34.2087   22.7112 C   0  0  2  0  0  0  0  0  0  0  0  0
  -26.8368  -31.2432   25.1564 C   0  0  0  0  0  0  0  0  0  0  0  0
  -21.9510  -15.8838   19.5022 N   0  0  0  0  0  0  0  0  0  0  0  0
  -20.7519  -16.3674   19.8687 N   0  0  0  0  0  0  0  0  0  0  0  0
  -26.1882  -29.4139   22.1401 N   0  0  0  0  0  0  0  0  0  0  0  0
  -20.7728  -19.7434   18.0769 N   0  0  0  0  0  0  0  0  0  0  0  0
  -26.2464  -21.9928   22.5199 N   0  0  0  0  0  0  0  0  0  0  0  0
  -18.9399  -16.0009   21.3496 N   0  0  0  0  0  0  0  0  0  0  0  0
  -21.7916  -12.6423   22.3413 N   0  0  0  0  0  0  0  0  0  0  0  0
  -28.5007  -26.7757   21.1460 N   0  0  0  0  0  0  0  0  0  0  0  0
  -25.5458  -32.4982   23.3782 N   0  0  0  0  0  0  0  0  0  0  0  0
  -21.7029  -21.2879   19.6075 N   0  0  0  0  0  0  0  0  0  0  0  0
  -22.8189  -34.2763   21.8065 N   0  3  0  0  0  0  0  0  0  0  0  0
  -19.8793  -22.2521   22.2635 O   0  0  0  0  0  0  0  0  0  0  0  0
  -19.7565  -13.5684   22.8505 O   0  0  0  0  0  0  0  0  0  0  0  0
  -27.4570  -27.4245   23.1239 O   0  0  0  0  0  0  0  0  0  0  0  0
  -27.8016  -31.0880   22.3146 O   0  0  0  0  0  0  0  0  0  0  0  0
  -23.2785  -32.0128   23.4133 O   0  0  0  0  0  0  0  0  0  0  0  0
  -20.4354  -22.0260   17.8453 O   0  0  0  0  0  0  0  0  0  0  0  0
  -26.7325  -11.7018   19.9459 O   0  0  0  0  0  0  0  0  0  0  0  0
  -21.2447  -25.7546   21.6669 O   0  0  0  0  0  0  0  0  0  1  0  0
  -31.5740  -14.3227   19.6379 F   0  0  0  0  0  0  0  0  0  0  0  0
  -28.6817  -11.3109   21.8670 F   0  0  0  0  0  0  0  0  0  0  0  0
  1  2  1  0  0  0  0
  1  6  2  0  0  0  0
  2  7  2  0  0  0  0
  3 10  2  0  0  0  0
  3 17  1  0  0  0  0
  4 11  1  0  0  0  0
  4 17  2  0  0  0  0
  5  9  2  0  0  0  0
  5 18  1  0  0  0  0
  6 20  1  0  0  0  0
  7 22  1  0  0  0  0
  8 12  2  0  0  0  0
  8 21  1  0  0  0  0
  9 26  1  0  0  0  0
 10 27  1  0  0  0  0
 11 27  2  0  0  0  0
 12 28  1  0  0  0  0
 13 14  2  0  0  0  0
 13 29  1  0  0  0  0
 14 30  1  0  0  0  0
 15 23  1  0  0  0  0
 15 28  2  0  0  0  0
 16 30  2  0  0  0  0
 16 31  1  0  0  0  0
 17 32  1  0  0  0  0
 18 24  2  0  0  0  0
 18 35  1  0  0  0  0
 19 32  1  0  0  0  0
 19 33  2  0  0  0  0
 19 36  1  0  0  0  0
 20 22  2  0  0  0  0
 20 42  1  0  0  0  0
 21 23  2  0  0  0  0
 21 43  1  0  0  0  0
 22 51  1  0  0  0  0
 23 44  1  0  0  0  0
 24 25  1  0  0  0  0
 24 60  1  0  0  0  0
 25 26  2  0  0  0  0
 25 54  1  0  0  0  0
 26 69  1  0  0  0  0
 27 82  1  0  0  0  0
 28 83  1  0  0  0  0
 29 31  2  0  0  0  0
 29 82  1  0  0  0  0
 30 84  1  0  0  0  0
 31 85  1  0  0  0  0
 32 65  2  0  0  0  0
 33 66  1  0  0  0  0
 33 70  1  0  0  0  0
 34 37  2  0  0  0  0
 35 37  1  0  0  0  0
 35 76  2  0  0  0  0
 36 71  1  0  0  0  0
 36 77  2  0  0  0  0
 37 61  1  0  0  0  0
 38 52  1  0  0  0  0
 38 72  1  0  0  0  0
 38 78  2  0  0  0  0
 39 62  1  0  0  0  0
 39 67  1  0  0  0  0
 39 79  2  0  0  0  0
 40 63  1  0  0  0  0
 40 73  1  0  0  0  0
 40 80  2  0  0  0  0
 41 68  1  0  0  0  0
 41 74  1  0  0  0  0
 41 81  2  0  0  0  0
 42 45  1  0  0  0  0
 43 52  1  0  0  0  0
 44 67  1  0  0  0  0
 45 47  1  0  0  0  0
 46 48  1  0  0  0  0
 46 49  1  0  0  0  0
 47 51  1  0  0  0  0
 48 53  1  0  0  0  0
 49 68  1  0  0  0  0
 50 53  1  0  0  0  0
 50 68  1  0  0  0  0
 51 72  1  0  0  0  0
 52 67  1  0  0  0  0
 53 66  1  0  0  0  0
 55 63  1  0  0  0  0
 56 64  1  0  0  0  0
 57 64  1  0  0  0  0
 58 64  1  0  0  0  0
 59 75  1  0  0  0  0
 60 74  1  0  0  0  0
 61 83  1  0  0  0  0
 62 64  1  0  0  0  0
 62 73  1  0  0  0  0
 63 75  1  0  0  0  0
 65 66  1  0  0  0  0
M  CHG  1  75   1
M  ISO  4  41 100  61 101  74 100  83 101
M  END
> <Batch ID>
0113

> <Smiles>
C=C(C(=O)c1ccc(N)c(C)c1C[100NH:0][100C:0](=O)N1CCCC(n2nc(-c3ccc(Oc4ccc(F)cc4F)cc3)c(C(N)=O)c2N)C1)[101CH2:1][101O:1]c1ccc2c(c1)CN(C(=O)C(NC(=O)C(C)NC)C(C)(C)C)C(C(=O)NC1CCCc3ccccc31)C2

> <Shape>
0.228

> <Color>
0.078

> <Negative vol penalty>
0.000

$$$$

  -OEChem-04052301343D

 85 94  0     1  0  0  0  0  0999 V2000
  -41.8963  -31.9251   27.6637 C   0  0  0  0  0  0  0  0  0  0  0  0
  -41.6469  -30.6248   28.0909 C   0  0  0  0  0  0  0  0  0  0  0  0
  -23.0004   -9.8944   19.9812 C   0  0  0  0  0  0  0  0  0  0  0  0
  -23.7258   -9.9449   22.2852 C   0  0  0  0  0  0  0  0  0  0  0  0
  -41.2097  -32.4405   26.5652 C   0  0  0  0  0  0  0  0  0  0  0  0
  -40.7097  -29.8396   27.4204 C   0  0  0  0  0  0  0  0  0  0  0  0
  -39.3911  -23.0306   25.6273 C   0  0  0  0  0  0  0  0  0  0  0  0
  -22.2337   -8.7600   20.2474 C   0  0  0  0  0  0  0  0  0  0  0  0
  -22.9590   -8.8105   22.5515 C   0  0  0  0  0  0  0  0  0  0  0  0
  -38.3825  -22.0714   25.7083 C   0  0  0  0  0  0  0  0  0  0  0  0
  -23.2026   -5.4716   22.0791 C   0  0  0  0  0  0  0  0  0  0  0  0
  -23.7901   -4.4542   22.8310 C   0  0  0  0  0  0  0  0  0  0  0  0
  -37.3142  -23.0403   23.7746 C   0  0  0  0  0  0  0  0  0  0  0  0
  -30.5428  -18.3364   23.9969 C   0  0  0  0  0  0  0  0  0  0  0  0
  -22.0664   -4.6973   24.5064 C   0  0  0  0  0  0  0  0  0  0  0  0
  -32.0527  -16.5408   22.5555 C   0  0  0  0  0  0  0  0  0  0  0  0
  -23.7465  -10.4868   21.0000 C   0  0  0  0  0  0  0  0  0  0  0  0
  -24.1323  -13.0023   20.8243 C   0  0  0  0  0  0  0  0  0  0  0  0
  -40.2707  -31.6579   25.8750 C   0  0  0  0  0  0  0  0  0  0  0  0
  -39.3629  -24.0101   24.6243 C   0  0  0  0  0  0  0  0  0  0  0  0
  -40.0089  -30.3455   26.3124 C   0  0  0  0  0  0  0  0  0  0  0  0
  -38.3250  -24.0092   23.6815 C   0  0  0  0  0  0  0  0  0  0  0  0
  -29.9165  -17.4596   23.1162 C   0  0  0  0  0  0  0  0  0  0  0  0
  -30.6755  -16.5505   22.3856 C   0  0  0  0  0  0  0  0  0  0  0  0
  -22.2130   -8.2181   21.5326 C   0  0  0  0  0  0  0  0  0  0  0  0
  -37.3423  -22.0779   24.7836 C   0  0  0  0  0  0  0  0  0  0  0  0
  -22.0471   -6.1019   22.5409 C   0  0  0  0  0  0  0  0  0  0  0  0
  -23.2219   -4.0670   24.0447 C   0  0  0  0  0  0  0  0  0  0  0  0
  -21.4790   -5.7147   23.7545 C   0  0  0  0  0  0  0  0  0  0  0  0
  -24.5392  -11.6583   20.7255 C   0  0  0  0  0  0  0  0  0  0  0  0
  -25.2422  -13.7248   20.4599 C   0  0  0  0  0  0  0  0  0  0  0  0
  -31.9233  -18.2814   24.1262 C   0  0  0  0  0  0  0  0  0  0  0  0
  -34.2265  -20.5878   25.7637 C   0  0  0  0  0  0  0  0  0  0  0  0
  -35.2548  -21.4309   25.6170 C   0  0  0  0  0  0  0  0  0  1  0  0
  -22.8645  -13.5490   21.2110 C   0  0  0  0  0  0  0  0  0  0  0  0
  -39.1766  -27.1831   24.5921 C   0  0  0  0  0  0  0  0  0  0  0  0
  -39.6368  -26.7889   21.4054 C   0  0  0  0  0  0  0  0  0  0  0  0
  -39.3972  -24.7585   18.6728 C   0  0  0  0  0  0  0  0  0  0  0  0
  -30.7219  -14.6847   20.6935 C   0  0  0  0  0  0  0  0  0  0  0  0
  -39.5189  -32.2746   24.7221 C   0  0  0  0  0  0  0  0  0  0  0  0
  -40.4727  -25.0214   24.5344 C   0  0  0  0  0  0  0  0  0  0  0  0
  -38.2594  -25.0269   22.5732 C   0  0  0  0  0  0  0  0  0  0  0  0
  -33.0035  -20.8606   26.5799 C   0  0  0  0  0  0  0  0  0  0  0  0
  -38.8142  -31.2500   23.8367 C   0  0  0  0  0  0  0  0  0  0  0  0
  -29.6029  -12.2323   18.3674 C   0  0  0  0  0  0  0  0  0  0  0  0
  -38.0588  -30.2364   24.6904 C   0  0  0  0  0  0  0  0  0  0  0  0
  -28.1523  -11.9749   18.7816 C   0  0  0  0  0  0  0  0  0  0  0  0
  -31.9113  -20.1271   25.8079 C   0  0  0  0  0  0  0  0  0  0  0  0
  -30.5036  -12.4754   19.5771 C   0  0  0  0  0  0  0  0  0  0  0  0
  -28.5885  -13.2645   20.9109 C   0  0  0  0  0  0  0  0  0  0  0  0
  -39.0177  -29.4542   25.5959 C   0  0  1  0  0  0  0  0  0  0  0  0
  -34.0612  -19.2792   25.0344 C   0  0  1  0  0  0  0  0  0  0  0  0
  -40.0693  -26.2859   23.7822 C   0  0  1  0  0  0  0  0  0  0  0  0
  -27.6307  -13.0785   19.7228 C   0  0  2  0  0  0  0  0  0  0  0  0
  -34.7013  -18.1407   25.8271 C   0  0  0  0  0  0  0  0  0  0  0  0
  -39.8151  -24.7280   16.1986 C   0  0  0  0  0  0  0  0  0  0  0  0
  -37.1223  -28.4595   20.9625 C   0  0  0  0  0  0  0  0  0  0  0  0
  -37.0568  -27.6101   18.6083 C   0  0  0  0  0  0  0  0  0  0  0  0
  -39.0004  -28.9643   19.3902 C   0  0  0  0  0  0  0  0  0  0  0  0
  -41.3572  -22.5541   18.9138 C   0  0  0  0  0  0  0  0  0  0  0  0
  -38.7346  -26.5880   20.2117 C   0  0  1  0  0  0  0  0  0  0  0  0
  -40.3906  -24.4273   17.5738 C   0  0  2  0  0  0  0  0  0  0  0  0
  -37.9784  -27.8874   19.8151 C   0  0  0  0  0  0  0  0  0  0  0  0
  -25.8084  -11.5316   20.3292 N   0  0  0  0  0  0  0  0  0  0  0  0
  -26.2086  -12.8053   20.1757 N   0  0  0  0  0  0  0  0  0  0  0  0
  -32.6301  -17.3960   23.4104 N   0  3  0  0  0  0  0  0  0  0  0  0
  -32.6013  -19.1283   24.9867 N   0  0  0  0  0  0  0  0  0  0  0  0
  -39.3645  -25.9988   22.5312 N   0  0  0  0  0  0  0  0  0  0  0  0
  -29.9488  -13.5364   20.4206 N   0  0  0  0  0  0  0  0  0  0  0  0
  -28.5115  -17.5093   22.9787 N   0  0  0  0  0  0  0  0  0  0  0  0
  -25.4759  -15.0504   20.3580 N   0  0  0  0  0  0  0  0  0  0  0  0
  -21.8326  -12.6650   21.5545 N   0  0  0  0  0  0  0  0  0  0  0  0
  -30.0779  -15.6400   21.4793 N   0  0  0  0  0  0  0  0  0  0  0  0
  -39.7098  -28.4341   24.8377 N   0  0  0  0  0  0  0  0  0  0  0  0
  -39.5747  -26.0388   19.1530 N   0  0  0  0  0  0  0  0  0  0  0  0
  -40.7570  -22.9836   17.6246 N   0  3  0  0  0  0  0  0  0  0  0  0
  -22.6480  -14.7843   21.2349 O   0  0  0  0  0  0  0  0  0  0  0  0
  -38.0844  -26.7714   24.9652 O   0  0  0  0  0  0  0  0  0  0  0  0
  -40.5538  -27.6112   21.3388 O   0  0  0  0  0  0  0  0  0  0  0  0
  -38.5462  -23.9624   19.0636 O   0  0  0  0  0  0  0  0  0  0  0  0
  -31.8605  -14.8235   20.2394 O   0  0  0  0  0  0  0  0  0  0  0  0
  -21.4647   -7.1113   21.7928 O   0  0  0  0  0  0  0  0  0  0  0  0
  -36.3563  -21.1433   24.8608 O   0  0  0  0  0  0  0  0  0  1  0  0
  -23.7852   -3.0889   24.7659 F   0  0  0  0  0  0  0  0  0  0  0  0
  -20.3683   -6.3157   24.2027 F   0  0  0  0  0  0  0  0  0  0  0  0
  1  2  1  0  0  0  0
  1  5  2  0  0  0  0
  2  6  2  0  0  0  0
  3  8  2  0  0  0  0
  3 17  1  0  0  0  0
  4  9  1  0  0  0  0
  4 17  2  0  0  0  0
  5 19  1  0  0  0  0
  6 21  1  0  0  0  0
  7 10  2  0  0  0  0
  7 20  1  0  0  0  0
  8 25  1  0  0  0  0
  9 25  2  0  0  0  0
 10 26  1  0  0  0  0
 11 12  2  0  0  0  0
 11 27  1  0  0  0  0
 12 28  1  0  0  0  0
 13 22  1  0  0  0  0
 13 26  2  0  0  0  0
 14 23  2  0  0  0  0
 14 32  1  0  0  0  0
 15 28  2  0  0  0  0
 15 29  1  0  0  0  0
 16 24  2  0  0  0  0
 16 66  1  0  0  0  0
 17 30  1  0  0  0  0
 18 30  1  0  0  0  0
 18 31  2  0  0  0  0
 18 35  1  0  0  0  0
 19 21  2  0  0  0  0
 19 40  1  0  0  0  0
 20 22  2  0  0  0  0
 20 41  1  0  0  0  0
 21 51  1  0  0  0  0
 22 42  1  0  0  0  0
 23 24  1  0  0  0  0
 23 70  1  0  0  0  0
 24 73  1  0  0  0  0
 25 82  1  0  0  0  0
 26 83  1  0  0  0  0
 27 29  2  0  0  0  0
 27 82  1  0  0  0  0
 28 84  1  0  0  0  0
 29 85  1  0  0  0  0
 30 64  2  0  0  0  0
 31 65  1  0  0  0  0
 31 71  1  0  0  0  0
 32 66  2  0  0  0  0
 32 67  1  0  0  0  0
 33 34  2  0  0  0  0
 33 43  1  0  0  0  0
 33 52  1  0  0  0  0
 34 83  1  0  0  0  0
 35 72  1  0  0  0  0
 35 77  2  0  0  0  0
 36 53  1  0  0  0  0
 36 74  1  0  0  0  0
 36 78  2  0  0  0  0
 37 61  1  0  0  0  0
 37 68  1  0  0  0  0
 37 79  2  0  0  0  0
 38 62  1  0  0  0  0
 38 75  1  0  0  0  0
 38 80  2  0  0  0  0
 39 69  1  0  0  0  0
 39 73  1  0  0  0  0
 39 81  2  0  0  0  0
 40 44  1  0  0  0  0
 41 53  1  0  0  0  0
 42 68  1  0  0  0  0
 43 48  1  0  0  0  0
 44 46  1  0  0  0  0
 45 47  1  0  0  0  0
 45 49  1  0  0  0  0
 46 51  1  0  0  0  0
 47 54  1  0  0  0  0
 48 67  1  0  0  0  0
 49 69  1  0  0  0  0
 50 54  1  0  0  0  0
 50 69  1  0  0  0  0
 51 74  1  0  0  0  0
 52 55  1  0  0  0  0
 52 67  1  0  0  0  0
 53 68  1  0  0  0  0
 54 65  1  0  0  0  0
 56 62  1  0  0  0  0
 57 63  1  0  0  0  0
 58 63  1  0  0  0  0
 59 63  1  0  0  0  0
 60 76  1  0  0  0  0
 61 63  1  0  0  0  0
 61 75  1  0  0  0  0
 62 76  1  0  0  0  0
 64 65  1  0  0  0  0
M  CHG  2  66   1  76   1
M  ISO  4  34 101  39 100  73 100  83 101
M  END
> <Batch ID>
0113

> <Smiles>
CNC(C)C(=O)NC(C(=O)N1Cc2cc([101O:1][101CH:1]=C3CCN(c4cc(N)c([100NH:0][100C:0](=O)N5CCCC(n6nc(-c7ccc(Oc8ccc(F)cc8F)cc7)c(C(N)=O)c6N)C5)cn4)C3C)ccc2CC1C(=O)NC1CCCc2ccccc21)C(C)(C)C

> <Shape>
0.172

> <Color>
0.189

> <Negative vol penalty>
0.000

$$$$

  -OEChem-04052301343D

 87 95  0     1  0  0  0  0  0999 V2000
  -19.3676   -8.6243   20.3149 C   0  0  0  0  0  0  0  0  0  0  0  0
  -19.3269   -9.9280   20.7988 C   0  0  0  0  0  0  0  0  0  0  0  0
  -27.1062  -26.1756   18.4396 C   0  0  0  0  0  0  0  0  0  0  0  0
  -28.4808  -26.2252   20.4258 C   0  0  0  0  0  0  0  0  0  0  0  0
  -20.5657   -7.9115   20.3352 C   0  0  0  0  0  0  0  0  0  0  0  0
  -20.4841  -10.5193   21.3043 C   0  0  0  0  0  0  0  0  0  0  0  0
  -22.0899  -16.4145   20.8877 C   0  0  0  0  0  0  0  0  0  0  0  0
  -27.7837  -25.0387   17.9991 C   0  0  0  0  0  0  0  0  0  0  0  0
  -29.1583  -25.0883   19.9853 C   0  0  0  0  0  0  0  0  0  0  0  0
  -21.9832  -17.4810   21.7793 C   0  0  0  0  0  0  0  0  0  0  0  0
  -28.6261  -21.7523   19.8949 C   0  0  0  0  0  0  0  0  0  0  0  0
  -28.8566  -20.7369   20.8230 C   0  0  0  0  0  0  0  0  0  0  0  0
  -21.1631  -25.4748   23.8099 C   0  0  0  0  0  0  0  0  0  0  0  0
  -24.2550  -17.1010   22.4961 C   0  0  0  0  0  0  0  0  0  0  0  0
  -18.4232  -25.2592   23.3311 C   0  0  0  0  0  0  0  0  0  0  0  0
  -31.2378  -20.9710   20.4877 C   0  0  0  0  0  0  0  0  0  0  0  0
  -27.4548  -26.7689   19.6530 C   0  0  0  0  0  0  0  0  0  0  0  0
  -20.4291  -26.6015   23.4395 C   0  0  0  0  0  0  0  0  0  0  0  0
  -26.6691  -29.1879   19.4554 C   0  0  0  0  0  0  0  0  0  0  0  0
  -21.7404   -8.4978   20.8323 C   0  0  0  0  0  0  0  0  0  0  0  0
  -23.2783  -15.6752   20.8012 C   0  0  0  0  0  0  0  0  0  0  0  0
  -21.6988   -9.8132   21.3325 C   0  0  0  0  0  0  0  0  0  0  0  0
  -24.3751  -16.0273   21.6007 C   0  0  0  0  0  0  0  0  0  0  0  0
  -19.0591  -26.4938   23.2001 C   0  0  0  0  0  0  0  0  0  0  0  0
  -20.5272  -24.2402   23.9409 C   0  0  0  0  0  0  0  0  0  0  0  0
  -28.8098  -24.4950   18.7720 C   0  0  0  0  0  0  0  0  0  0  0  0
  -23.0649  -17.8226   22.5858 C   0  0  0  0  0  0  0  0  0  0  0  0
  -29.7014  -22.3770   19.2631 C   0  0  0  0  0  0  0  0  0  0  0  0
  -19.1572  -24.1324   23.7015 C   0  0  0  0  0  0  0  0  0  0  0  0
  -30.1624  -20.3462   21.1194 C   0  0  0  0  0  0  0  0  0  0  0  0
  -31.0072  -21.9864   19.5595 C   0  0  0  0  0  0  0  0  0  0  0  0
  -26.7557  -27.9437   20.1083 C   0  0  0  0  0  0  0  0  0  0  0  0
  -25.9004  -29.9611   20.2905 C   0  0  0  0  0  0  0  0  0  0  0  0
  -21.7886  -22.4392   23.3430 C   0  0  0  0  0  0  0  0  0  0  0  0
  -21.1179  -27.8784   23.3102 C   0  0  0  0  0  0  0  0  0  0  0  0
  -27.2331  -29.6071   18.2056 C   0  0  0  0  0  0  0  0  0  0  0  0
  -22.5979  -21.2255   23.6665 C   0  0  0  0  0  0  0  0  0  0  0  0
  -21.8254  -28.4907   24.4582 C   0  0  0  0  0  0  0  0  0  0  0  0
  -24.0758  -12.6421   21.3190 C   0  0  0  0  0  0  0  0  0  0  0  0
  -26.9386  -13.5989   20.1311 C   0  0  0  0  0  0  0  0  0  0  0  0
  -29.1238  -16.1536   19.5438 C   0  0  0  0  0  0  0  0  0  0  0  0
  -23.0012   -7.6714   20.8774 C   0  0  0  0  0  0  0  0  0  0  0  0
  -23.3862  -14.5444   19.8152 C   0  0  0  0  0  0  0  0  0  0  0  0
  -25.6798  -15.2781   21.5316 C   0  0  0  0  0  0  0  0  0  0  0  0
  -24.2660   -8.5008   21.0841 C   0  0  0  0  0  0  0  0  0  0  0  0
  -24.7505  -30.5185   24.8922 C   0  0  0  0  0  0  0  0  0  0  0  0
  -24.0631   -9.5127   22.2073 C   0  0  0  0  0  0  0  0  0  0  0  0
  -25.6050  -30.1711   23.6737 C   0  0  0  0  0  0  0  0  0  0  0  0
  -23.9574  -29.3107   25.3806 C   0  0  0  0  0  0  0  0  0  0  0  0
  -23.9554  -28.3334   23.1017 C   0  0  0  0  0  0  0  0  0  0  0  0
  -22.9385  -10.4977   21.8660 C   0  0  1  0  0  0  0  0  0  0  0  0
  -24.4721  -13.5364   20.1785 C   0  0  1  0  0  0  0  0  0  0  0  0
  -24.7500  -29.5357   22.5628 C   0  0  2  0  0  0  0  0  0  0  0  0
  -17.9272  -27.6934   21.3117 C   0  0  0  0  0  0  0  0  0  0  0  0
  -31.3985  -16.6207   18.5925 C   0  0  0  0  0  0  0  0  0  0  0  0
  -28.2243  -12.4607   22.6532 C   0  0  0  0  0  0  0  0  0  0  0  0
  -30.2877  -13.7698   22.1082 C   0  0  0  0  0  0  0  0  0  0  0  0
  -29.4842  -12.0022   20.5421 C   0  0  0  0  0  0  0  0  0  0  0  0
  -28.0131  -17.9344   17.4571 C   0  0  0  0  0  0  0  0  0  0  0  0
  -17.9836  -22.6153   25.1074 C   0  0  0  0  0  0  0  0  0  0  0  0
  -18.2492  -27.6846   22.8028 C   0  0  0  0  0  0  0  0  0  0  0  0
  -22.0889  -19.9307   23.0951 C   0  0  0  0  0  0  0  0  0  1  0  0
  -28.2029  -14.1743   20.7222 C   0  0  1  0  0  0  0  0  0  0  0  0
  -29.9075  -16.5438   18.3036 C   0  0  2  0  0  0  0  0  0  0  0  0
  -29.0247  -13.1148   21.5094 C   0  0  0  0  0  0  0  0  0  0  0  0
  -26.0949  -27.9233   21.2688 N   0  0  0  0  0  0  0  0  0  0  0  0
  -21.1611  -28.5573   22.1972 N   0  0  0  0  0  0  0  0  0  0  0  0
  -21.2784  -23.1132   24.3144 N   0  0  0  0  0  0  0  0  0  0  0  0
  -25.5858  -29.1643   21.3517 N   0  0  0  0  0  0  0  0  0  0  0  0
  -23.1859  -28.7105   24.2941 N   0  0  0  0  0  0  0  0  0  0  0  0
  -25.7338  -14.1764   20.5564 N   0  0  0  0  0  0  0  0  0  0  0  0
  -25.4696  -31.2382   20.2134 N   0  0  0  0  0  0  0  0  0  0  0  0
  -28.5121  -30.1803   18.2086 N   0  0  0  0  0  0  0  0  0  0  0  0
  -23.4082  -11.4965   20.9299 N   0  0  0  0  0  0  0  0  0  0  0  0
  -28.9270  -14.7908   19.6158 N   0  0  0  0  0  0  0  0  0  0  0  0
  -29.4566  -17.8731   17.8029 N   0  3  0  0  0  0  0  0  0  0  0  0
  -26.6143  -29.4922   17.1205 O   0  0  0  0  0  0  0  0  0  0  0  0
  -23.6026  -21.3652   24.3459 O   0  0  0  0  0  0  0  0  0  0  0  0
  -21.1303  -28.7384   25.4348 O   0  0  0  0  0  0  0  0  0  0  0  0
  -24.3562  -12.9666   22.4670 O   0  0  0  0  0  0  0  0  0  0  0  0
  -27.0174  -12.6760   19.3165 O   0  0  0  0  0  0  0  0  0  0  0  0
  -28.7292  -16.9753   20.3683 O   0  0  0  0  0  0  0  0  0  0  0  0
  -29.4709  -23.3855   18.3425 O   0  0  0  0  0  0  0  0  0  0  0  0
  -18.5199  -22.9342   23.8252 O   0  0  0  0  0  0  0  0  0  0  0  0
  -22.9633  -18.8627   23.4574 O   0  0  0  0  0  0  0  0  0  1  0  0
  -30.3837  -19.3721   22.0118 F   0  0  0  0  0  0  0  0  0  0  0  0
  -32.0444  -22.5837   18.9567 F   0  0  0  0  0  0  0  0  0  0  0  0
  1  2  1  0  0  0  0
  1  5  2  0  0  0  0
  2  6  2  0  0  0  0
  3  8  2  0  0  0  0
  3 17  1  0  0  0  0
  4  9  1  0  0  0  0
  4 17  2  0  0  0  0
  5 20  1  0  0  0  0
  6 22  1  0  0  0  0
  7 10  2  0  0  0  0
  7 21  1  0  0  0  0
  8 26  1  0  0  0  0
  9 26  2  0  0  0  0
 10 27  1  0  0  0  0
 11 12  2  0  0  0  0
 11 28  1  0  0  0  0
 12 30  1  0  0  0  0
 13 18  1  0  0  0  0
 13 25  2  0  0  0  0
 14 23  1  0  0  0  0
 14 27  2  0  0  0  0
 15 24  1  0  0  0  0
 15 29  2  0  0  0  0
 16 30  2  0  0  0  0
 16 31  1  0  0  0  0
 17 32  1  0  0  0  0
 18 24  2  0  0  0  0
 18 35  1  0  0  0  0
 19 32  1  0  0  0  0
 19 33  2  0  0  0  0
 19 36  1  0  0  0  0
 20 22  2  0  0  0  0
 20 42  1  0  0  0  0
 21 23  2  0  0  0  0
 21 43  1  0  0  0  0
 22 51  1  0  0  0  0
 23 44  1  0  0  0  0
 24 61  1  0  0  0  0
 25 29  1  0  0  0  0
 25 68  1  0  0  0  0
 26 83  1  0  0  0  0
 27 85  1  0  0  0  0
 28 31  2  0  0  0  0
 28 83  1  0  0  0  0
 29 84  1  0  0  0  0
 30 86  1  0  0  0  0
 31 87  1  0  0  0  0
 32 66  2  0  0  0  0
 33 69  1  0  0  0  0
 33 72  1  0  0  0  0
 34 37  1  0  0  0  0
 34 68  2  0  0  0  0
 35 38  1  0  0  0  0
 35 67  2  0  0  0  0
 36 73  1  0  0  0  0
 36 77  2  0  0  0  0
 37 62  1  0  0  0  0
 37 78  2  0  0  0  0
 38 70  1  0  0  0  0
 38 79  2  0  0  0  0
 39 52  1  0  0  0  0
 39 74  1  0  0  0  0
 39 80  2  0  0  0  0
 40 63  1  0  0  0  0
 40 71  1  0  0  0  0
 40 81  2  0  0  0  0
 41 64  1  0  0  0  0
 41 75  1  0  0  0  0
 41 82  2  0  0  0  0
 42 45  1  0  0  0  0
 43 52  1  0  0  0  0
 44 71  1  0  0  0  0
 45 47  1  0  0  0  0
 46 48  1  0  0  0  0
 46 49  1  0  0  0  0
 47 51  1  0  0  0  0
 48 53  1  0  0  0  0
 49 70  1  0  0  0  0
 50 53  1  0  0  0  0
 50 70  1  0  0  0  0
 51 74  1  0  0  0  0
 52 71  1  0  0  0  0
 53 69  1  0  0  0  0
 54 61  1  0  0  0  0
 55 64  1  0  0  0  0
 56 65  1  0  0  0  0
 57 65  1  0  0  0  0
 58 65  1  0  0  0  0
 59 76  1  0  0  0  0
 60 84  1  0  0  0  0
 62 85  1  0  0  0  0
 63 65  1  0  0  0  0
 63 75  1  0  0  0  0
 64 76  1  0  0  0  0
 66 69  1  0  0  0  0
M  CHG  1  76   1
M  ISO  4  35 100  38 100  62 101  85 101
M  END
> <Batch ID>
0113

> <Smiles>
C=Cc1cc(OC)c(NCC(=O)[101CH2:1][101O:1]c2ccc3c(c2)CN(C(=O)C(NC(=O)C(C)NC)C(C)(C)C)C(C(=O)NC2CCCc4ccccc42)C3)cc1[100C:0](=N)[100C:0](=O)N1CCCC(n2nc(-c3ccc(Oc4ccc(F)cc4F)cc3)c(C(N)=O)c2N)C1

> <Shape>
0.274

> <Color>
0.046

> <Negative vol penalty>
0.000

$$$$

  -OEChem-04052301343D

 87 96  0     1  0  0  0  0  0999 V2000
  -18.7166  -28.9971   22.5413 C   0  0  0  0  0  0  0  0  0  0  0  0
  -20.1043  -29.0910   22.5717 C   0  0  0  0  0  0  0  0  0  0  0  0
  -30.1732  -16.1994   23.2999 C   0  0  0  0  0  0  0  0  0  0  0  0
  -31.0014  -18.0226   21.9482 C   0  0  0  0  0  0  0  0  0  0  0  0
  -18.1032  -27.7453   22.5612 C   0  0  0  0  0  0  0  0  0  0  0  0
  -20.8794  -27.9330   22.6232 C   0  0  0  0  0  0  0  0  0  0  0  0
  -24.7994  -28.0749   19.4204 C   0  0  0  0  0  0  0  0  0  0  0  0
  -30.4791  -15.3019   22.2769 C   0  0  0  0  0  0  0  0  0  0  0  0
  -31.3074  -17.1251   20.9251 C   0  0  0  0  0  0  0  0  0  0  0  0
  -25.9091  -28.8261   19.8052 C   0  0  0  0  0  0  0  0  0  0  0  0
  -29.1311  -14.3251   19.3352 C   0  0  0  0  0  0  0  0  0  0  0  0
  -28.1752  -13.3625   19.0113 C   0  0  0  0  0  0  0  0  0  0  0  0
  -27.0276  -26.8055   20.5020 C   0  0  0  0  0  0  0  0  0  0  0  0
  -28.9745  -27.2726   23.4759 C   0  0  0  0  0  0  0  0  0  0  0  0
  -30.9575  -28.4992   22.8435 C   0  0  0  0  0  0  0  0  0  0  0  0
  -31.0221  -26.0882   22.9844 C   0  0  0  0  0  0  0  0  0  0  0  0
  -29.7514  -11.6141   19.5553 C   0  0  0  0  0  0  0  0  0  0  0  0
  -30.4343  -17.5597   23.1355 C   0  0  0  0  0  0  0  0  0  0  0  0
  -30.6264  -18.4865   25.5045 C   0  0  0  0  0  0  0  0  0  0  0  0
  -18.8713  -26.5710   22.6031 C   0  0  0  0  0  0  0  0  0  0  0  0
  -24.7912  -26.6822   19.5839 C   0  0  0  0  0  0  0  0  0  0  0  0
  -20.2756  -26.6642   22.6450 C   0  0  0  0  0  0  0  0  0  0  0  0
  -25.9175  -26.0387   20.1161 C   0  0  0  0  0  0  0  0  0  0  0  0
  -29.6139  -28.4851   23.2181 C   0  0  0  0  0  0  0  0  0  0  0  0
  -29.6785  -26.0741   23.3591 C   0  0  0  0  0  0  0  0  0  0  0  0
  -31.0462  -15.7648   21.0895 C   0  0  0  0  0  0  0  0  0  0  0  0
  -27.0223  -28.1917   20.3488 C   0  0  0  0  0  0  0  0  0  0  0  0
  -30.3973  -13.9323   19.7691 C   0  0  0  0  0  0  0  0  0  0  0  0
  -31.6616  -27.3007   22.7266 C   0  0  0  0  0  0  0  0  0  0  0  0
  -28.4852  -12.0070   19.1213 C   0  0  0  0  0  0  0  0  0  0  0  0
  -30.7074  -12.5768   19.8792 C   0  0  0  0  0  0  0  0  0  0  0  0
  -30.1180  -18.4874   24.1917 C   0  0  0  0  0  0  0  0  0  0  0  0
  -30.0204  -19.5611   26.1081 C   0  0  0  0  0  0  0  0  0  0  0  0
  -27.5499  -31.2054   24.6988 C   0  0  0  0  0  0  0  0  0  0  0  0
  -31.5628  -17.5941   26.1229 C   0  0  0  0  0  0  0  0  0  0  0  0
  -23.0270  -24.6298   21.2508 C   0  0  0  0  0  0  0  0  0  0  0  0
  -24.7712  -22.4214   19.6374 C   0  0  0  0  0  0  0  0  0  0  0  0
  -28.2163  -21.9916   18.6559 C   0  0  0  0  0  0  0  0  0  0  0  0
  -27.7025  -24.6519   24.0065 C   0  0  0  0  0  0  0  0  0  0  0  0
  -18.1621  -25.2417   22.6709 C   0  0  0  0  0  0  0  0  0  0  0  0
  -23.5968  -25.8835   19.1391 C   0  0  0  0  0  0  0  0  0  0  0  0
  -25.9668  -24.5439   20.2937 C   0  0  0  0  0  0  0  0  0  0  0  0
  -27.5186  -32.2333   23.5985 C   0  0  0  0  0  0  0  0  0  0  0  0
  -27.8098  -29.7707   24.3031 C   0  0  0  0  0  0  0  0  0  0  0  0
  -19.0638  -24.0531   22.3474 C   0  0  0  0  0  0  0  0  0  0  0  0
  -28.7498  -32.0704   22.7254 C   0  0  0  0  0  0  0  0  0  0  0  0
  -26.0167  -22.1835   25.9409 C   0  0  0  0  0  0  0  0  0  0  0  0
  -20.3879  -24.1683   23.0959 C   0  0  0  0  0  0  0  0  0  0  0  0
  -26.9264  -20.9573   25.8363 C   0  0  0  0  0  0  0  0  0  0  0  0
  -25.9796  -22.9751   24.6349 C   0  0  0  0  0  0  0  0  0  0  0  0
  -28.2037  -22.1291   23.9972 C   0  0  0  0  0  0  0  0  0  0  0  0
  -21.1511  -25.4303   22.6760 C   0  0  1  0  0  0  0  0  0  0  0  0
  -23.4961  -24.5256   19.8272 C   0  0  1  0  0  0  0  0  0  0  0  0
  -28.3242  -21.3360   25.3087 C   0  0  2  0  0  0  0  0  0  0  0  0
  -28.9289  -30.6381   22.2049 C   0  0  2  0  0  0  0  0  0  0  0  0
  -29.2195  -20.7304   16.7322 C   0  0  0  0  0  0  0  0  0  0  0  0
  -25.0309  -20.1390   21.6457 C   0  0  0  0  0  0  0  0  0  0  0  0
  -27.2397  -19.5733   20.6115 C   0  0  0  0  0  0  0  0  0  0  0  0
  -25.1550  -19.4382   19.2482 C   0  0  0  0  0  0  0  0  0  0  0  0
  -29.6624  -24.3861   17.6894 C   0  0  0  0  0  0  0  0  0  0  0  0
  -33.5646  -28.5890   22.1146 C   0  0  0  0  0  0  0  0  0  0  0  0
  -27.8677  -30.2584   21.1674 C   0  0  0  0  0  0  0  0  0  1  0  0
  -26.0778  -21.7055   19.8804 C   0  0  1  0  0  0  0  0  0  0  0  0
  -28.7799  -22.0911   17.2499 C   0  0  2  0  0  0  0  0  0  0  0  0
  -25.8710  -20.2400   20.3569 C   0  0  0  0  0  0  0  0  0  0  0  0
  -29.2553  -19.4835   23.9735 N   0  0  0  0  0  0  0  0  0  0  0  0
  -29.2169  -20.1185   25.1573 N   0  0  0  0  0  0  0  0  0  0  0  0
  -28.9066  -29.6897   23.3354 N   0  0  2  0  0  0  0  0  0  0  0  0
  -24.7720  -23.8074   19.8496 N   0  0  0  0  0  0  0  0  0  0  0  0
  -27.3387  -23.3022   24.1983 N   0  0  0  0  0  0  0  0  0  0  0  0
  -30.1018  -20.0742   27.3541 N   0  0  0  0  0  0  0  0  0  0  0  0
  -32.9279  -17.9038   26.0519 N   0  0  0  0  0  0  0  0  0  0  0  0
  -29.0296  -24.8424   23.6228 N   0  0  0  0  0  0  0  0  0  0  0  0
  -21.7908  -25.2307   21.3933 N   0  0  0  0  0  0  0  0  0  0  0  0
  -26.8470  -21.8300   18.6470 N   0  0  0  0  0  0  0  0  0  0  0  0
  -29.9567  -23.0053   17.2270 N   0  3  0  0  0  0  0  0  0  0  0  0
  -27.2618  -31.5052   25.8580 O   0  0  0  0  0  0  0  0  0  0  0  0
  -31.2010  -16.5444   26.7066 O   0  0  0  0  0  0  0  0  0  0  0  0
  -23.7335  -24.1957   22.1531 O   0  0  0  0  0  0  0  0  0  0  0  0
  -23.7879  -21.7758   19.2659 O   0  0  0  0  0  0  0  0  0  0  0  0
  -28.9208  -22.0475   19.6614 O   0  0  0  0  0  0  0  0  0  0  0  0
  -26.9038  -25.5727   24.1969 O   0  0  0  0  0  0  0  0  0  0  0  0
  -31.3450  -14.8893   20.0911 O   0  0  0  0  0  0  0  0  0  0  0  0
  -32.9728  -27.3145   22.3621 O   0  0  0  0  0  0  0  0  0  0  0  0
  -28.1065  -28.9226   20.7258 O   0  0  0  0  0  0  0  0  0  1  0  0
  -27.5666  -11.0827   18.8117 F   0  0  0  0  0  0  0  0  0  0  0  0
  -31.9217  -12.1934   20.2966 F   0  0  0  0  0  0  0  0  0  0  0  0
  1  2  1  0  0  0  0
  1  5  2  0  0  0  0
  2  6  2  0  0  0  0
  3  8  2  0  0  0  0
  3 18  1  0  0  0  0
  4  9  1  0  0  0  0
  4 18  2  0  0  0  0
  5 20  1  0  0  0  0
  6 22  1  0  0  0  0
  7 10  2  0  0  0  0
  7 21  1  0  0  0  0
  8 26  1  0  0  0  0
  9 26  2  0  0  0  0
 10 27  1  0  0  0  0
 11 12  2  0  0  0  0
 11 28  1  0  0  0  0
 12 30  1  0  0  0  0
 13 23  1  0  0  0  0
 13 27  2  0  0  0  0
 14 24  1  0  0  0  0
 14 25  2  0  0  0  0
 15 24  2  0  0  0  0
 15 29  1  0  0  0  0
 16 25  1  0  0  0  0
 16 29  2  0  0  0  0
 17 30  2  0  0  0  0
 17 31  1  0  0  0  0
 18 32  1  0  0  0  0
 19 32  1  0  0  0  0
 19 33  2  0  0  0  0
 19 35  1  0  0  0  0
 20 22  2  0  0  0  0
 20 40  1  0  0  0  0
 21 23  2  0  0  0  0
 21 41  1  0  0  0  0
 22 52  1  0  0  0  0
 23 42  1  0  0  0  0
 24 68  1  0  0  0  0
 25 73  1  0  0  0  0
 26 83  1  0  0  0  0
 27 85  1  0  0  0  0
 28 31  2  0  0  0  0
 28 83  1  0  0  0  0
 29 84  1  0  0  0  0
 30 86  1  0  0  0  0
 31 87  1  0  0  0  0
 32 66  2  0  0  0  0
 33 67  1  0  0  0  0
 33 71  1  0  0  0  0
 34 43  1  0  0  0  0
 34 44  1  0  0  0  0
 34 77  2  0  0  0  0
 35 72  1  0  0  0  0
 35 78  2  0  0  0  0
 36 53  1  0  0  0  0
 36 74  1  0  0  0  0
 36 79  2  0  0  0  0
 37 63  1  0  0  0  0
 37 69  1  0  0  0  0
 37 80  2  0  0  0  0
 38 64  1  0  0  0  0
 38 75  1  0  0  0  0
 38 81  2  0  0  0  0
 39 70  1  0  0  0  0
 39 73  1  0  0  0  0
 39 82  2  0  0  0  0
 40 45  1  0  0  0  0
 41 53  1  0  0  0  0
 42 69  1  0  0  0  0
 43 46  1  0  0  0  0
 44 68  1  0  0  0  0
 45 48  1  0  0  0  0
 46 55  1  0  0  0  0
 47 49  1  0  0  0  0
 47 50  1  0  0  0  0
 48 52  1  0  0  0  0
 49 54  1  0  0  0  0
 50 70  1  0  0  0  0
 51 54  1  0  0  0  0
 51 70  1  0  0  0  0
 52 74  1  0  0  0  0
 53 69  1  0  0  0  0
 54 67  1  0  0  0  0
 55 62  1  0  0  0  0
 55 68  1  0  0  0  0
 56 64  1  0  0  0  0
 57 65  1  0  0  0  0
 58 65  1  0  0  0  0
 59 65  1  0  0  0  0
 60 76  1  0  0  0  0
 61 84  1  0  0  0  0
 62 85  1  0  0  0  0
 63 65  1  0  0  0  0
 63 75  1  0  0  0  0
 64 76  1  0  0  0  0
 66 67  1  0  0  0  0
M  CHG  1  76   1
M  ISO  4  39 100  62 101  73 100  85 101
M  END
> <Batch ID>
0113

> <Smiles>
CNC(C)C(=O)NC(C(=O)N1Cc2cc([101O:1][101CH2:1]C3CCC(=O)CN3c3cc([100NH:0][100C:0](=O)N4CCCC(n5nc(-c6ccc(Oc7ccc(F)cc7F)cc6)c(C(N)=O)c5N)C4)cc(OC)c3)ccc2CC1C(=O)NC1CCCc2ccccc21)C(C)(C)C

> <Shape>
0.212

> <Color>
0.062

> <Negative vol penalty>
0.000

$$$$

  -OEChem-04052301343D

 84 92  0     1  0  0  0  0  0999 V2000
  -23.1567  -30.5103   24.0924 C   0  0  0  0  0  0  0  0  0  0  0  0
  -23.3786  -29.1494   24.2770 C   0  0  0  0  0  0  0  0  0  0  0  0
  -22.3025  -20.4692   22.4646 C   0  0  0  0  0  0  0  0  0  0  0  0
  -24.6438  -20.7185   21.9230 C   0  0  0  0  0  0  0  0  0  0  0  0
  -23.6177  -31.1403   22.9372 C   0  0  0  0  0  0  0  0  0  0  0  0
  -24.0608  -28.4174   23.3058 C   0  0  0  0  0  0  0  0  0  0  0  0
  -28.5414  -22.8705   22.6182 C   0  0  0  0  0  0  0  0  0  0  0  0
  -22.4167  -21.4770   23.4221 C   0  0  0  0  0  0  0  0  0  0  0  0
  -24.7580  -21.7264   22.8806 C   0  0  0  0  0  0  0  0  0  0  0  0
  -28.6705  -21.6703   21.9207 C   0  0  0  0  0  0  0  0  0  0  0  0
  -22.0066  -24.2331   25.7568 C   0  0  0  0  0  0  0  0  0  0  0  0
  -21.0094  -25.2076   25.7947 C   0  0  0  0  0  0  0  0  0  0  0  0
  -29.4903  -22.8806   20.0018 C   0  0  0  0  0  0  0  0  0  0  0  0
  -30.9715  -12.7342   20.8656 C   0  0  0  0  0  0  0  0  0  0  0  0
  -28.6246  -12.1758   20.9974 C   0  0  0  0  0  0  0  0  0  0  0  0
  -21.5323  -25.8312   23.5199 C   0  0  0  0  0  0  0  0  0  0  0  0
  -23.4161  -20.0899   21.7150 C   0  0  0  0  0  0  0  0  0  0  0  0
  -29.3115  -14.2955   20.0635 C   0  0  0  0  0  0  0  0  0  0  0  0
  -22.9685  -19.2008   19.3663 C   0  0  0  0  0  0  0  0  0  0  0  0
  -24.3143  -30.4177   21.9558 C   0  0  0  0  0  0  0  0  0  0  0  0
  -28.8761  -24.0879   22.0080 C   0  0  0  0  0  0  0  0  0  0  0  0
  -24.5304  -29.0380   22.1357 C   0  0  0  0  0  0  0  0  0  0  0  0
  -29.3670  -24.0947   20.6946 C   0  0  0  0  0  0  0  0  0  0  0  0
  -30.6471  -13.9611   20.2869 C   0  0  0  0  0  0  0  0  0  0  0  0
  -28.3002  -13.4028   20.4187 C   0  0  0  0  0  0  0  0  0  0  0  0
  -23.6443  -22.1056   23.6301 C   0  0  0  0  0  0  0  0  0  0  0  0
  -29.1423  -21.6755   20.6113 C   0  0  0  0  0  0  0  0  0  0  0  0
  -22.7668  -24.0577   24.6005 C   0  0  0  0  0  0  0  0  0  0  0  0
  -20.7722  -26.0066   24.6762 C   0  0  0  0  0  0  0  0  0  0  0  0
  -29.9602  -11.8414   21.2208 C   0  0  0  0  0  0  0  0  0  0  0  0
  -22.5296  -24.8567   23.4820 C   0  0  0  0  0  0  0  0  0  0  0  0
  -23.2990  -19.0485   20.7262 C   0  0  0  0  0  0  0  0  0  0  0  0
  -22.9890  -17.9231   18.8627 C   0  0  0  0  0  0  0  0  0  0  0  0
  -28.9644  -15.6089   19.4449 C   0  0  0  0  0  0  0  0  0  0  0  0
  -22.6697  -20.3909   18.6245 C   0  0  0  0  0  0  0  0  0  0  0  0
  -27.2822  -26.7338   21.2578 C   0  0  0  0  0  0  0  0  0  0  0  0
  -30.2307  -27.8120   20.4415 C   0  0  0  0  0  0  0  0  0  0  0  0
  -33.4207  -27.0755   19.4780 C   0  0  0  0  0  0  0  0  0  0  0  0
  -25.8274  -12.9304   20.5122 C   0  0  0  0  0  0  0  0  0  0  0  0
  -24.7521  -31.1323   20.7019 C   0  0  0  0  0  0  0  0  0  0  0  0
  -28.7564  -25.3714   22.7831 C   0  0  0  0  0  0  0  0  0  0  0  0
  -29.7592  -25.3729   20.0012 C   0  0  0  0  0  0  0  0  0  0  0  0
  -25.7940  -30.3626   19.8943 C   0  0  0  0  0  0  0  0  0  0  0  0
  -22.3099  -13.3685   20.1777 C   0  0  0  0  0  0  0  0  0  0  0  0
  -25.3830  -28.9009   19.7482 C   0  0  0  0  0  0  0  0  0  0  0  0
  -22.1348  -14.8887   20.1505 C   0  0  0  0  0  0  0  0  0  0  0  0
  -23.4218  -12.9427   21.1348 C   0  0  0  0  0  0  0  0  0  0  0  0
  -24.5397  -15.1244   20.8909 C   0  0  0  0  0  0  0  0  0  0  0  0
  -25.2881  -28.2151   21.1165 C   0  0  1  0  0  0  0  0  0  0  0  0
  -28.6397  -26.6013   21.8881 C   0  0  1  0  0  0  0  0  0  0  0  0
  -23.4745  -15.6057   19.8921 C   0  0  2  0  0  0  0  0  0  0  0  0
  -35.5904  -28.1682   18.8490 C   0  0  0  0  0  0  0  0  0  0  0  0
  -29.0756  -28.5274   17.7095 C   0  0  0  0  0  0  0  0  0  0  0  0
  -31.4179  -28.7075   16.8438 C   0  0  0  0  0  0  0  0  0  0  0  0
  -30.6404  -30.2315   18.6592 C   0  0  0  0  0  0  0  0  0  0  0  0
  -34.8530  -25.7916   21.7272 C   0  0  0  0  0  0  0  0  0  0  0  0
  -28.7305  -16.8056   20.3546 C   0  0  0  0  0  0  0  0  0  0  0  0
  -29.0935  -18.1257   19.6775 C   0  0  0  0  0  0  0  0  0  0  0  0
  -28.8996  -19.3097   20.6138 C   0  0  0  0  0  0  0  0  0  1  0  0
  -31.0648  -27.7949   19.1833 C   0  0  1  0  0  0  0  0  0  0  0  0
  -34.7645  -27.5732   19.9789 C   0  0  2  0  0  0  0  0  0  0  0  0
  -30.5405  -28.7913   18.1111 C   0  0  0  0  0  0  0  0  0  0  0  0
  -23.5136  -17.7745   21.0651 N   0  0  0  0  0  0  0  0  0  0  0  0
  -23.3174  -17.1146   19.9109 N   0  0  0  0  0  0  0  0  0  0  0  0
  -29.6183  -26.6024   20.7987 N   0  0  0  0  0  0  0  0  0  0  0  0
  -24.6613  -13.6595   20.8273 N   0  0  0  0  0  0  0  0  0  0  0  0
  -31.6885  -14.8491   19.9357 N   0  0  0  0  0  0  0  0  0  0  0  0
  -22.7578  -17.4235   17.6301 N   0  0  0  0  0  0  0  0  0  0  0  0
  -22.6934  -21.6206   19.2964 N   0  0  0  0  0  0  0  0  0  0  0  0
  -26.9356  -13.7194   20.2056 N   0  0  0  0  0  0  0  0  0  0  0  0
  -26.6084  -27.8875   21.6103 N   0  0  0  0  0  0  0  0  0  0  0  0
  -32.4409  -28.0377   19.6026 N   0  0  0  0  0  0  0  0  0  0  0  0
  -35.5376  -26.4537   20.5871 N   0  3  0  0  0  0  0  0  0  0  0  0
  -28.8770  -15.6917   18.2219 O   0  0  0  0  0  0  0  0  0  0  0  0
  -22.3740  -20.3628   17.4058 O   0  0  0  0  0  0  0  0  0  0  0  0
  -26.8768  -25.8551   20.5060 O   0  0  0  0  0  0  0  0  0  0  0  0
  -30.1322  -28.8582   21.0875 O   0  0  0  0  0  0  0  0  0  0  0  0
  -33.2574  -25.9474   19.0185 O   0  0  0  0  0  0  0  0  0  0  0  0
  -25.8348  -11.6970   20.4877 O   0  0  0  0  0  0  0  0  0  0  0  0
  -23.7560  -23.0893   24.5642 O   0  0  0  0  0  0  0  0  0  0  0  0
  -29.2686  -20.5055   19.9280 O   0  0  0  0  0  0  0  0  0  1  0  0
  -19.8134  -26.9413   24.7122 F   0  0  0  0  0  0  0  0  0  0  0  0
  -30.2710  -10.6630   21.7766 F   0  0  0  0  0  0  0  0  0  0  0  0
  -23.2559  -24.6921   22.3679 F   0  0  0  0  0  0  0  0  0  0  0  0
  1  2  1  0  0  0  0
  1  5  2  0  0  0  0
  2  6  2  0  0  0  0
  3  8  2  0  0  0  0
  3 17  1  0  0  0  0
  4  9  1  0  0  0  0
  4 17  2  0  0  0  0
  5 20  1  0  0  0  0
  6 22  1  0  0  0  0
  7 10  2  0  0  0  0
  7 21  1  0  0  0  0
  8 26  1  0  0  0  0
  9 26  2  0  0  0  0
 10 27  1  0  0  0  0
 11 12  2  0  0  0  0
 11 28  1  0  0  0  0
 12 29  1  0  0  0  0
 13 23  1  0  0  0  0
 13 27  2  0  0  0  0
 14 24  2  0  0  0  0
 14 30  1  0  0  0  0
 15 25  1  0  0  0  0
 15 30  2  0  0  0  0
 16 29  2  0  0  0  0
 16 31  1  0  0  0  0
 17 32  1  0  0  0  0
 18 24  1  0  0  0  0
 18 25  2  0  0  0  0
 18 34  1  0  0  0  0
 19 32  1  0  0  0  0
 19 33  2  0  0  0  0
 19 35  1  0  0  0  0
 20 22  2  0  0  0  0
 20 40  1  0  0  0  0
 21 23  2  0  0  0  0
 21 41  1  0  0  0  0
 22 49  1  0  0  0  0
 23 42  1  0  0  0  0
 24 67  1  0  0  0  0
 25 70  1  0  0  0  0
 26 80  1  0  0  0  0
 27 81  1  0  0  0  0
 28 31  2  0  0  0  0
 28 80  1  0  0  0  0
 29 82  1  0  0  0  0
 30 83  1  0  0  0  0
 31 84  1  0  0  0  0
 32 63  2  0  0  0  0
 33 64  1  0  0  0  0
 33 68  1  0  0  0  0
 34 57  1  0  0  0  0
 34 74  2  0  0  0  0
 35 69  1  0  0  0  0
 35 75  2  0  0  0  0
 36 50  1  0  0  0  0
 36 71  1  0  0  0  0
 36 76  2  0  0  0  0
 37 60  1  0  0  0  0
 37 65  1  0  0  0  0
 37 77  2  0  0  0  0
 38 61  1  0  0  0  0
 38 72  1  0  0  0  0
 38 78  2  0  0  0  0
 39 66  1  0  0  0  0
 39 70  1  0  0  0  0
 39 79  2  0  0  0  0
 40 43  1  0  0  0  0
 41 50  1  0  0  0  0
 42 65  1  0  0  0  0
 43 45  1  0  0  0  0
 44 46  1  0  0  0  0
 44 47  1  0  0  0  0
 45 49  1  0  0  0  0
 46 51  1  0  0  0  0
 47 66  1  0  0  0  0
 48 51  1  0  0  0  0
 48 66  1  0  0  0  0
 49 71  1  0  0  0  0
 50 65  1  0  0  0  0
 51 64  1  0  0  0  0
 52 61  1  0  0  0  0
 53 62  1  0  0  0  0
 54 62  1  0  0  0  0
 55 62  1  0  0  0  0
 56 73  1  0  0  0  0
 57 58  1  0  0  0  0
 58 59  1  0  0  0  0
 59 81  1  0  0  0  0
 60 62  1  0  0  0  0
 60 72  1  0  0  0  0
 61 73  1  0  0  0  0
 63 64  1  0  0  0  0
M  CHG  1  73   1
M  ISO  4  39 100  59 101  70 100  81 101
M  END
> <Batch ID>
0113

> <Smiles>
CNC(C)C(=O)NC(C(=O)N1Cc2cc([101O:1][101CH2:1]CCC(=O)c3c(N)cc(F)cc3[100NH:0][100C:0](=O)N3CCCC(n4nc(-c5ccc(Oc6ccc(F)cc6F)cc5)c(C(N)=O)c4N)C3)ccc2CC1C(=O)NC1CCCc2ccccc21)C(C)(C)C

> <Shape>
0.212

> <Color>
0.075

> <Negative vol penalty>
0.000

$$$$

  -OEChem-04052301343D

 85 93  0     1  0  0  0  0  0999 V2000
  -27.0253  -35.9089   19.3845 C   0  0  0  0  0  0  0  0  0  0  0  0
  -27.8443  -34.8008   19.1925 C   0  0  0  0  0  0  0  0  0  0  0  0
  -22.7610  -10.2753   22.6494 C   0  0  0  0  0  0  0  0  0  0  0  0
  -23.5492  -10.0898   20.3731 C   0  0  0  0  0  0  0  0  0  0  0  0
  -26.0192  -35.8718   20.3490 C   0  0  0  0  0  0  0  0  0  0  0  0
  -27.6584  -33.6554   19.9657 C   0  0  0  0  0  0  0  0  0  0  0  0
  -28.4418  -27.8472   18.1891 C   0  0  0  0  0  0  0  0  0  0  0  0
  -22.1763   -9.0129   22.5499 C   0  0  0  0  0  0  0  0  0  0  0  0
  -22.9644   -8.8273   20.2736 C   0  0  0  0  0  0  0  0  0  0  0  0
  -29.4965  -26.9502   18.3531 C   0  0  0  0  0  0  0  0  0  0  0  0
  -20.7849   -5.6867   23.0145 C   0  0  0  0  0  0  0  0  0  0  0  0
  -20.9668   -4.8022   24.0776 C   0  0  0  0  0  0  0  0  0  0  0  0
  -29.2809  -19.5601   18.4253 C   0  0  0  0  0  0  0  0  0  0  0  0
  -28.3961  -26.0192   20.2874 C   0  0  0  0  0  0  0  0  0  0  0  0
  -26.6477  -20.4664   18.5911 C   0  0  0  0  0  0  0  0  0  0  0  0
  -23.3585   -4.9004   23.7502 C   0  0  0  0  0  0  0  0  0  0  0  0
  -23.4474  -10.8138   21.5610 C   0  0  0  0  0  0  0  0  0  0  0  0
  -28.2579  -18.6732   18.7604 C   0  0  0  0  0  0  0  0  0  0  0  0
  -25.3582  -12.4187   22.0908 C   0  0  0  0  0  0  0  0  0  0  0  0
  -25.8145  -34.7219   21.1278 C   0  0  0  0  0  0  0  0  0  0  0  0
  -27.3596  -27.8441   19.0810 C   0  0  0  0  0  0  0  0  0  0  0  0
  -26.6494  -33.6034   20.9425 C   0  0  0  0  0  0  0  0  0  0  0  0
  -27.3277  -26.9154   20.1310 C   0  0  0  0  0  0  0  0  0  0  0  0
  -28.9874  -20.9003   18.1732 C   0  0  0  0  0  0  0  0  0  0  0  0
  -26.9413  -19.1263   18.8433 C   0  0  0  0  0  0  0  0  0  0  0  0
  -22.2780   -8.2889   21.3620 C   0  0  0  0  0  0  0  0  0  0  0  0
  -29.4752  -26.0380   19.4041 C   0  0  0  0  0  0  0  0  0  0  0  0
  -21.8899   -6.1781   22.3193 C   0  0  0  0  0  0  0  0  0  0  0  0
  -27.6708  -21.3534   18.2561 C   0  0  0  0  0  0  0  0  0  0  0  0
  -22.2535   -4.4090   24.4454 C   0  0  0  0  0  0  0  0  0  0  0  0
  -23.1766   -5.7850   22.6871 C   0  0  0  0  0  0  0  0  0  0  0  0
  -24.0512  -12.1181   21.6630 C   0  0  0  0  0  0  0  0  0  0  0  0
  -25.4408  -13.7872   22.0070 C   0  0  0  0  0  0  0  0  0  0  0  0
  -29.4090  -16.8934   19.9943 C   0  0  0  0  0  0  0  0  0  0  0  0
  -28.6032  -17.2800   19.0176 C   0  0  0  0  0  0  0  0  0  0  0  0
  -30.5988  -22.3827   18.8295 C   0  0  0  0  0  0  0  0  0  0  0  0
  -26.4043  -11.5396   22.5251 C   0  0  0  0  0  0  0  0  0  0  0  0
  -26.1243  -29.9501   21.1163 C   0  0  0  0  0  0  0  0  0  0  0  0
  -23.8230  -27.6889   21.4528 C   0  0  0  0  0  0  0  0  0  0  0  0
  -22.9322  -24.4033   21.2116 C   0  0  0  0  0  0  0  0  0  0  0  0
  -24.5278  -18.5650   19.2975 C   0  0  0  0  0  0  0  0  0  0  0  0
  -24.7448  -34.7459   22.1906 C   0  0  0  0  0  0  0  0  0  0  0  0
  -26.2170  -28.8002   18.8746 C   0  0  0  0  0  0  0  0  0  0  0  0
  -26.1794  -26.8576   21.1039 C   0  0  0  0  0  0  0  0  0  0  0  0
  -24.3710  -33.3600   22.7100 C   0  0  0  0  0  0  0  0  0  0  0  0
  -21.8423  -17.2632   21.2392 C   0  0  0  0  0  0  0  0  0  0  0  0
  -25.6257  -32.5466   23.0115 C   0  0  0  0  0  0  0  0  0  0  0  0
  -22.2851  -15.8333   21.5578 C   0  0  0  0  0  0  0  0  0  0  0  0
  -22.2654  -17.6883   19.8342 C   0  0  0  0  0  0  0  0  0  0  0  0
  -24.1357  -16.0850   19.8552 C   0  0  0  0  0  0  0  0  0  0  0  0
  -26.4628  -32.3337   21.7444 C   0  0  1  0  0  0  0  0  0  0  0  0
  -25.4114  -29.0517   20.1455 C   0  0  1  0  0  0  0  0  0  0  0  0
  -23.7887  -15.6348   21.2837 C   0  0  2  0  0  0  0  0  0  0  0  0
  -20.9944  -22.8547   21.5912 C   0  0  0  0  0  0  0  0  0  0  0  0
  -24.3141  -27.8156   24.4616 C   0  0  0  0  0  0  0  0  0  0  0  0
  -23.0876  -25.6443   24.6829 C   0  0  0  0  0  0  0  0  0  0  0  0
  -21.9066  -27.6578   23.8033 C   0  0  0  0  0  0  0  0  0  0  0  0
  -22.8540  -23.6150   18.3601 C   0  0  0  0  0  0  0  0  0  0  0  0
  -27.0512  -23.0111   16.6674 C   0  0  0  0  0  0  0  0  0  0  0  0
  -31.7352  -23.3413   18.5940 C   0  0  0  0  0  0  0  0  0  0  0  0
  -31.1958  -24.7470   18.3899 C   0  0  0  0  0  0  0  0  0  1  0  0
  -23.6211  -26.4948   22.3542 C   0  0  1  0  0  0  0  0  0  0  0  0
  -21.7244  -23.7305   20.5848 C   0  0  2  0  0  0  0  0  0  0  0  0
  -23.2551  -26.9053   23.8085 C   0  0  0  0  0  0  0  0  0  0  0  0
  -23.3535  -13.2079   21.3321 N   0  0  0  0  0  0  0  0  0  0  0  0
  -30.0271  -21.7833   17.8367 N   0  0  0  0  0  0  0  0  0  0  0  0
  -24.2254  -14.2067   21.5521 N   0  0  0  0  0  0  0  0  0  0  0  0
  -25.0889  -27.8172   20.8639 N   0  0  0  0  0  0  0  0  0  0  0  0
  -23.7025  -17.4758   19.6486 N   0  0  0  0  0  0  0  0  0  0  0  0
  -26.4337  -14.6605   22.2788 N   0  0  0  0  0  0  0  0  0  0  0  0
  -26.1511  -10.1613   22.5506 N   0  0  0  0  0  0  0  0  0  0  0  0
  -25.8809  -18.2490   19.1805 N   0  0  0  0  0  0  0  0  0  0  0  0
  -25.8793  -31.2960   20.9216 N   0  0  0  0  0  0  0  0  0  0  0  0
  -22.6230  -25.6547   21.7012 N   0  0  0  0  0  0  0  0  0  0  0  0
  -22.1441  -22.8778   19.4369 N   0  3  0  0  0  0  0  0  0  0  0  0
  -27.5247  -11.9649   22.8957 O   0  0  0  0  0  0  0  0  0  0  0  0
  -26.8423  -29.4584   21.9791 O   0  0  0  0  0  0  0  0  0  0  0  0
  -22.8895  -28.4749   21.2721 O   0  0  0  0  0  0  0  0  0  0  0  0
  -24.0384  -23.8705   21.2652 O   0  0  0  0  0  0  0  0  0  0  0  0
  -24.0718  -19.7006   19.1407 O   0  0  0  0  0  0  0  0  0  0  0  0
  -21.7078   -7.0569   21.2646 O   0  0  0  0  0  0  0  0  0  0  0  0
  -27.3660  -22.6591   18.0130 O   0  0  0  0  0  0  0  0  0  0  0  0
  -30.5037  -25.1619   19.5668 O   0  0  0  0  0  0  0  0  0  1  0  0
  -22.4281   -3.5608   25.4673 F   0  0  0  0  0  0  0  0  0  0  0  0
  -24.2421   -6.2546   22.0237 F   0  0  0  0  0  0  0  0  0  0  0  0
  1  2  1  0  0  0  0
  1  5  2  0  0  0  0
  2  6  2  0  0  0  0
  3  8  2  0  0  0  0
  3 17  1  0  0  0  0
  4  9  1  0  0  0  0
  4 17  2  0  0  0  0
  5 20  1  0  0  0  0
  6 22  1  0  0  0  0
  7 10  2  0  0  0  0
  7 21  1  0  0  0  0
  8 26  1  0  0  0  0
  9 26  2  0  0  0  0
 10 27  1  0  0  0  0
 11 12  2  0  0  0  0
 11 28  1  0  0  0  0
 12 30  1  0  0  0  0
 13 18  1  0  0  0  0
 13 24  2  0  0  0  0
 14 23  1  0  0  0  0
 14 27  2  0  0  0  0
 15 25  1  0  0  0  0
 15 29  2  0  0  0  0
 16 30  2  0  0  0  0
 16 31  1  0  0  0  0
 17 32  1  0  0  0  0
 18 25  2  0  0  0  0
 18 35  1  0  0  0  0
 19 32  1  0  0  0  0
 19 33  2  0  0  0  0
 19 37  1  0  0  0  0
 20 22  2  0  0  0  0
 20 42  1  0  0  0  0
 21 23  2  0  0  0  0
 21 43  1  0  0  0  0
 22 51  1  0  0  0  0
 23 44  1  0  0  0  0
 24 29  1  0  0  0  0
 24 66  1  0  0  0  0
 25 72  1  0  0  0  0
 26 81  1  0  0  0  0
 27 83  1  0  0  0  0
 28 31  2  0  0  0  0
 28 81  1  0  0  0  0
 29 82  1  0  0  0  0
 30 84  1  0  0  0  0
 31 85  1  0  0  0  0
 32 65  2  0  0  0  0
 33 67  1  0  0  0  0
 33 70  1  0  0  0  0
 34 35  2  0  0  0  0
 36 60  1  0  0  0  0
 36 66  2  0  0  0  0
 37 71  1  0  0  0  0
 37 76  2  0  0  0  0
 38 52  1  0  0  0  0
 38 73  1  0  0  0  0
 38 77  2  0  0  0  0
 39 62  1  0  0  0  0
 39 68  1  0  0  0  0
 39 78  2  0  0  0  0
 40 63  1  0  0  0  0
 40 74  1  0  0  0  0
 40 79  2  0  0  0  0
 41 69  1  0  0  0  0
 41 72  1  0  0  0  0
 41 80  2  0  0  0  0
 42 45  1  0  0  0  0
 43 52  1  0  0  0  0
 44 68  1  0  0  0  0
 45 47  1  0  0  0  0
 46 48  1  0  0  0  0
 46 49  1  0  0  0  0
 47 51  1  0  0  0  0
 48 53  1  0  0  0  0
 49 69  1  0  0  0  0
 50 53  1  0  0  0  0
 50 69  1  0  0  0  0
 51 73  1  0  0  0  0
 52 68  1  0  0  0  0
 53 67  1  0  0  0  0
 54 63  1  0  0  0  0
 55 64  1  0  0  0  0
 56 64  1  0  0  0  0
 57 64  1  0  0  0  0
 58 75  1  0  0  0  0
 59 82  1  0  0  0  0
 60 61  1  0  0  0  0
 61 83  1  0  0  0  0
 62 64  1  0  0  0  0
 62 74  1  0  0  0  0
 63 75  1  0  0  0  0
 65 67  1  0  0  0  0
M  CHG  1  75   1
M  ISO  4  41 100  61 101  72 100  83 101
M  END
> <Batch ID>
0113

> <Smiles>
C=Cc1cc(NC=C[101CH2:1][101O:1]c2ccc3c(c2)CN(C(=O)C(NC(=O)C(C)NC)C(C)(C)C)C(C(=O)NC2CCCc4ccccc42)C3)c(OC)cc1[100NH:0][100C:0](=O)N1CCCC(n2nc(-c3ccc(Oc4ccc(F)cc4F)cc3)c(C(N)=O)c2N)C1

> <Shape>
0.226

> <Color>
0.085

> <Negative vol penalty>
0.000

$$$$

  -OEChem-04052301343D

 82 90  0     1  0  0  0  0  0999 V2000
  -42.0235  -27.3450   25.3779 C   0  0  0  0  0  0  0  0  0  0  0  0
  -40.7299  -26.8735   25.1781 C   0  0  0  0  0  0  0  0  0  0  0  0
  -23.0732   -9.8696   19.9425 C   0  0  0  0  0  0  0  0  0  0  0  0
  -23.8309   -9.8784   22.2366 C   0  0  0  0  0  0  0  0  0  0  0  0
  -42.8907  -27.4783   24.2943 C   0  0  0  0  0  0  0  0  0  0  0  0
  -40.3025  -26.5361   23.8944 C   0  0  0  0  0  0  0  0  0  0  0  0
  -37.7801  -22.1465   23.7778 C   0  0  0  0  0  0  0  0  0  0  0  0
  -22.3281   -8.7174   20.1929 C   0  0  0  0  0  0  0  0  0  0  0  0
  -23.0858   -8.7262   22.4871 C   0  0  0  0  0  0  0  0  0  0  0  0
  -36.4538  -22.1626   24.2073 C   0  0  0  0  0  0  0  0  0  0  0  0
  -22.8974   -5.3988   20.4879 C   0  0  0  0  0  0  0  0  0  0  0  0
  -22.9643   -4.3681   19.5505 C   0  0  0  0  0  0  0  0  0  0  0  0
  -35.7172  -22.2219   21.9110 C   0  0  0  0  0  0  0  0  0  0  0  0
  -20.5803   -4.5355   19.1963 C   0  0  0  0  0  0  0  0  0  0  0  0
  -23.8246  -10.4502   20.9643 C   0  0  0  0  0  0  0  0  0  0  0  0
  -24.1687  -12.9749   20.8419 C   0  0  0  0  0  0  0  0  0  0  0  0
  -42.4768  -27.1332   22.9981 C   0  0  0  0  0  0  0  0  0  0  0  0
  -38.0856  -22.1790   22.4095 C   0  0  0  0  0  0  0  0  0  0  0  0
  -41.1646  -26.6662   22.7923 C   0  0  0  0  0  0  0  0  0  0  0  0
  -37.0480  -22.2035   21.4666 C   0  0  0  0  0  0  0  0  0  0  0  0
  -22.3344   -8.1457   21.4652 C   0  0  0  0  0  0  0  0  0  0  0  0
  -35.4222  -22.2032   23.2740 C   0  0  0  0  0  0  0  0  0  0  0  0
  -21.6719   -5.9978   20.7797 C   0  0  0  0  0  0  0  0  0  0  0  0
  -21.8058   -3.9365   18.9046 C   0  0  0  0  0  0  0  0  0  0  0  0
  -20.5134   -5.5662   20.1338 C   0  0  0  0  0  0  0  0  0  0  0  0
  -24.5950  -11.6401   20.7060 C   0  0  0  0  0  0  0  0  0  0  0  0
  -31.9873  -16.8271   22.7555 C   0  0  0  0  0  0  0  0  0  0  0  0
  -25.2618  -13.7231   20.4789 C   0  0  0  0  0  0  0  0  0  0  0  0
  -30.6779  -16.5893   22.3935 C   0  0  0  0  0  0  0  0  0  0  0  0
  -31.0128  -18.2981   24.0579 C   0  0  0  0  0  0  0  0  0  0  0  0
  -34.3539  -16.6746   22.1301 C   0  0  0  0  0  0  0  0  0  0  0  0
  -33.1128  -16.1541   22.2295 C   0  0  0  0  0  0  0  0  0  0  0  0
  -32.4262  -21.0827   24.8988 C   0  0  0  0  0  0  0  0  0  0  0  0
  -33.6781  -21.1677   24.4386 C   0  0  0  0  0  0  0  0  0  1  0  0
  -22.8982  -13.4922   21.2590 C   0  0  0  0  0  0  0  0  0  0  0  0
  -39.6489  -24.1893   20.5074 C   0  0  0  0  0  0  0  0  0  0  0  0
  -39.1649  -21.8627   18.2994 C   0  0  0  0  0  0  0  0  0  0  0  0
  -37.3146  -19.1870   17.2681 C   0  0  0  0  0  0  0  0  0  0  0  0
  -30.7287  -14.7642   20.6578 C   0  0  0  0  0  0  0  0  0  0  0  0
  -43.4345  -27.3391   21.8513 C   0  0  0  0  0  0  0  0  0  0  0  0
  -39.5208  -22.1341   21.9618 C   0  0  0  0  0  0  0  0  0  0  0  0
  -37.3225  -22.2191   19.9858 C   0  0  0  0  0  0  0  0  0  0  0  0
  -43.0253  -26.6053   20.5768 C   0  0  0  0  0  0  0  0  0  0  0  0
  -29.6145  -12.3490   18.2909 C   0  0  0  0  0  0  0  0  0  0  0  0
  -41.5438  -26.8243   20.2869 C   0  0  0  0  0  0  0  0  0  0  0  0
  -28.1742  -12.0590   18.7193 C   0  0  0  0  0  0  0  0  0  0  0  0
  -30.5287  -12.5782   19.4931 C   0  0  0  0  0  0  0  0  0  0  0  0
  -28.6210  -13.3057   20.8719 C   0  0  0  0  0  0  0  0  0  0  0  0
  -40.6720  -26.2664   21.4184 C   0  0  1  0  0  0  0  0  0  0  0  0
  -39.7258  -22.6895   20.5558 C   0  0  1  0  0  0  0  0  0  0  0  0
  -27.6492  -13.1321   19.6933 C   0  0  2  0  0  0  0  0  0  0  0  0
  -37.1378  -17.5147   15.4054 C   0  0  0  0  0  0  0  0  0  0  0  0
  -37.9320  -23.9983   16.5025 C   0  0  0  0  0  0  0  0  0  0  0  0
  -36.9410  -22.1624   15.1184 C   0  0  0  0  0  0  0  0  0  0  0  0
  -39.4186  -22.3714   15.3203 C   0  0  0  0  0  0  0  0  0  0  0  0
  -37.7651  -16.9145   19.1098 C   0  0  0  0  0  0  0  0  0  0  0  0
  -31.9193  -19.9336   25.7099 C   0  0  0  0  0  0  0  0  0  0  0  0
  -38.0788  -21.5470   17.2996 C   0  0  1  0  0  0  0  0  0  0  0  0
  -37.7222  -17.8092   16.7782 C   0  0  2  0  0  0  0  0  0  0  0  0
  -38.0871  -22.5214   16.0881 C   0  0  0  0  0  0  0  0  0  0  0  0
  -25.8601  -11.5428   20.2890 N   0  0  0  0  0  0  0  0  0  0  0  0
  -32.1813  -17.8069   23.7095 N   0  0  0  0  0  0  0  0  0  0  0  0
  -26.2382  -12.8259   20.1597 N   0  0  0  0  0  0  0  0  0  0  0  0
  -38.7422  -22.1804   19.5980 N   0  0  0  0  0  0  0  0  0  0  0  0
  -29.9698  -13.6104   20.3690 N   0  0  0  0  0  0  0  0  0  0  0  0
  -25.4734  -15.0543   20.4046 N   0  0  0  0  0  0  0  0  0  0  0  0
  -21.8852  -12.5842   21.5963 N   0  0  0  0  0  0  0  0  0  0  0  0
  -30.0814  -15.6906   21.4746 N   0  0  0  0  0  0  0  0  0  0  0  0
  -30.8363  -19.3029   24.9976 N   0  0  0  0  0  0  0  0  0  0  0  0
  -40.5711  -24.8264   21.3156 N   0  0  0  0  0  0  0  0  0  0  0  0
  -38.2513  -20.1439   16.9391 N   0  0  0  0  0  0  0  0  0  0  0  0
  -37.2478  -16.7613   17.7256 N   0  3  0  0  0  0  0  0  0  0  0  0
  -22.6629  -14.7231   21.3148 O   0  0  0  0  0  0  0  0  0  0  0  0
  -38.8157  -24.7287   19.7887 O   0  0  0  0  0  0  0  0  0  0  0  0
  -40.3452  -21.8218   17.9433 O   0  0  0  0  0  0  0  0  0  0  0  0
  -36.2680  -19.3944   17.8782 O   0  0  0  0  0  0  0  0  0  0  0  0
  -31.8584  -14.9315   20.1911 O   0  0  0  0  0  0  0  0  0  0  0  0
  -21.6073   -7.0214   21.7101 O   0  0  0  0  0  0  0  0  0  0  0  0
  -34.1268  -22.2197   23.6906 O   0  0  0  0  0  0  0  0  0  1  0  0
  -21.8704   -2.9478   18.0032 F   0  0  0  0  0  0  0  0  0  0  0  0
  -19.3334   -6.1386   20.4091 F   0  0  0  0  0  0  0  0  0  0  0  0
  -29.6387  -17.6277   23.2786 S   0  0  0  0  0  0  0  0  0  0  0  0
  1  2  1  0  0  0  0
  1  5  2  0  0  0  0
  2  6  2  0  0  0  0
  3  8  2  0  0  0  0
  3 15  1  0  0  0  0
  4  9  1  0  0  0  0
  4 15  2  0  0  0  0
  5 17  1  0  0  0  0
  6 19  1  0  0  0  0
  7 10  2  0  0  0  0
  7 18  1  0  0  0  0
  8 21  1  0  0  0  0
  9 21  2  0  0  0  0
 10 22  1  0  0  0  0
 11 12  2  0  0  0  0
 11 23  1  0  0  0  0
 12 24  1  0  0  0  0
 13 20  1  0  0  0  0
 13 22  2  0  0  0  0
 14 24  2  0  0  0  0
 14 25  1  0  0  0  0
 15 26  1  0  0  0  0
 16 26  1  0  0  0  0
 16 28  2  0  0  0  0
 16 35  1  0  0  0  0
 17 19  2  0  0  0  0
 17 40  1  0  0  0  0
 18 20  2  0  0  0  0
 18 41  1  0  0  0  0
 19 49  1  0  0  0  0
 20 42  1  0  0  0  0
 21 78  1  0  0  0  0
 22 79  1  0  0  0  0
 23 25  2  0  0  0  0
 23 78  1  0  0  0  0
 24 80  1  0  0  0  0
 25 81  1  0  0  0  0
 26 61  2  0  0  0  0
 27 29  2  0  0  0  0
 27 32  1  0  0  0  0
 27 62  1  0  0  0  0
 28 63  1  0  0  0  0
 28 66  1  0  0  0  0
 29 68  1  0  0  0  0
 29 82  1  0  0  0  0
 30 62  2  0  0  0  0
 30 69  1  0  0  0  0
 30 82  1  0  0  0  0
 31 32  2  0  0  0  0
 33 34  2  0  0  0  0
 33 57  1  0  0  0  0
 34 79  1  0  0  0  0
 35 67  1  0  0  0  0
 35 73  2  0  0  0  0
 36 50  1  0  0  0  0
 36 70  1  0  0  0  0
 36 74  2  0  0  0  0
 37 58  1  0  0  0  0
 37 64  1  0  0  0  0
 37 75  2  0  0  0  0
 38 59  1  0  0  0  0
 38 71  1  0  0  0  0
 38 76  2  0  0  0  0
 39 65  1  0  0  0  0
 39 68  1  0  0  0  0
 39 77  2  0  0  0  0
 40 43  1  0  0  0  0
 41 50  1  0  0  0  0
 42 64  1  0  0  0  0
 43 45  1  0  0  0  0
 44 46  1  0  0  0  0
 44 47  1  0  0  0  0
 45 49  1  0  0  0  0
 46 51  1  0  0  0  0
 47 65  1  0  0  0  0
 48 51  1  0  0  0  0
 48 65  1  0  0  0  0
 49 70  1  0  0  0  0
 50 64  1  0  0  0  0
 51 63  1  0  0  0  0
 52 59  1  0  0  0  0
 53 60  1  0  0  0  0
 54 60  1  0  0  0  0
 55 60  1  0  0  0  0
 56 72  1  0  0  0  0
 57 69  1  0  0  0  0
 58 60  1  0  0  0  0
 58 71  1  0  0  0  0
 59 72  1  0  0  0  0
 61 63  1  0  0  0  0
M  CHG  1  72   1
M  ISO  4  34 101  39 100  68 100  79 101
M  END
> <Batch ID>
0113

> <Smiles>
C=Cc1nc(NCC=[101CH:1][101O:1]c2ccc3c(c2)CN(C(=O)C(NC(=O)C(C)NC)C(C)(C)C)C(C(=O)NC2CCCc4ccccc42)C3)sc1[100NH:0][100C:0](=O)N1CCCC(n2nc(-c3ccc(Oc4ccc(F)cc4F)cc3)c(C(N)=O)c2N)C1

> <Shape>
0.151

> <Color>
0.187

> <Negative vol penalty>
0.000

$$$$
