
  -OEChem-04052301373D

 87 95  0     1  0  0  0  0  0999 V2000
  -29.5800  -30.8980   13.8166 C   0  0  0  0  0  0  0  0  0  0  0  0
  -29.1262  -29.6364   14.1879 C   0  0  0  0  0  0  0  0  0  0  0  0
  -22.9501   -9.9775   20.0111 C   0  0  0  0  0  0  0  0  0  0  0  0
  -23.6720  -10.0530   22.3155 C   0  0  0  0  0  0  0  0  0  0  0  0
  -29.9928  -31.8041   14.7925 C   0  0  0  0  0  0  0  0  0  0  0  0
  -29.0859  -29.2798   15.5354 C   0  0  0  0  0  0  0  0  0  0  0  0
  -24.9430  -25.6955   18.2730 C   0  0  0  0  0  0  0  0  0  0  0  0
  -22.1626   -8.8616   20.2943 C   0  0  0  0  0  0  0  0  0  0  0  0
  -22.8843   -8.9372   22.5988 C   0  0  0  0  0  0  0  0  0  0  0  0
  -24.9573  -24.3472   18.6276 C   0  0  0  0  0  0  0  0  0  0  0  0
  -23.0686   -5.5871   22.1821 C   0  0  0  0  0  0  0  0  0  0  0  0
  -23.6361   -4.5718   22.9520 C   0  0  0  0  0  0  0  0  0  0  0  0
  -27.7921  -18.4106   21.3070 C   0  0  0  0  0  0  0  0  0  0  0  0
  -29.2492  -18.3303   19.3817 C   0  0  0  0  0  0  0  0  0  0  0  0
  -25.6452  -24.9479   20.8603 C   0  0  0  0  0  0  0  0  0  0  0  0
  -21.9139   -4.8736   24.6194 C   0  0  0  0  0  0  0  0  0  0  0  0
  -23.7049  -10.5731   21.0217 C   0  0  0  0  0  0  0  0  0  0  0  0
  -28.1963  -18.9263   20.0757 C   0  0  0  0  0  0  0  0  0  0  0  0
  -28.4410  -17.2989   21.8445 C   0  0  0  0  0  0  0  0  0  0  0  0
  -29.4939  -16.7028   21.1504 C   0  0  0  0  0  0  0  0  0  0  0  0
  -24.1364  -13.0781   20.8053 C   0  0  0  0  0  0  0  0  0  0  0  0
  -29.9485  -31.4620   16.1532 C   0  0  0  0  0  0  0  0  0  0  0  0
  -25.2909  -26.6811   19.2079 C   0  0  0  0  0  0  0  0  0  0  0  0
  -29.4998  -30.1818   16.5303 C   0  0  0  0  0  0  0  0  0  0  0  0
  -25.6321  -26.3082   20.5158 C   0  0  0  0  0  0  0  0  0  0  0  0
  -22.1296   -8.3415   21.5882 C   0  0  0  0  0  0  0  0  0  0  0  0
  -25.3112  -23.9731   19.9206 C   0  0  0  0  0  0  0  0  0  0  0  0
  -21.9237   -6.2457   22.6309 C   0  0  0  0  0  0  0  0  0  0  0  0
  -29.8981  -17.2185   19.9190 C   0  0  0  0  0  0  0  0  0  0  0  0
  -23.0587   -4.2151   24.1707 C   0  0  0  0  0  0  0  0  0  0  0  0
  -21.3464   -5.8889   23.8495 C   0  0  0  0  0  0  0  0  0  0  0  0
  -24.5191  -11.7255   20.7296 C   0  0  0  0  0  0  0  0  0  0  0  0
  -25.2598  -13.7742   20.4315 C   0  0  0  0  0  0  0  0  0  0  0  0
  -27.9687  -17.5129   24.2416 C   0  0  0  0  0  0  0  0  0  0  0  0
  -27.5117  -20.0997   19.5077 C   0  0  0  0  0  0  0  0  0  0  0  0
  -27.9908  -16.7882   23.1337 C   0  0  0  0  0  0  0  0  0  0  0  0
  -26.2871  -20.5250   19.8554 C   0  0  0  0  0  0  0  0  0  0  0  0
  -30.1842  -15.5369   21.6960 C   0  0  0  0  0  0  0  0  0  0  0  0
  -22.8779  -13.6537   21.1801 C   0  0  0  0  0  0  0  0  0  0  0  0
  -30.7910  -14.5199   20.8068 C   0  0  0  0  0  0  0  0  0  0  0  0
  -27.5805  -28.8770   19.4055 C   0  0  0  0  0  0  0  0  0  0  0  0
  -25.9234  -29.8062   22.0347 C   0  0  0  0  0  0  0  0  0  0  0  0
  -23.7451  -28.9795   24.5284 C   0  0  0  0  0  0  0  0  0  0  0  0
  -30.4496  -32.4580   17.1688 C   0  0  0  0  0  0  0  0  0  0  0  0
  -25.2447  -28.1328   18.8172 C   0  0  0  0  0  0  0  0  0  0  0  0
  -25.9941  -27.3289   21.5625 C   0  0  0  0  0  0  0  0  0  0  0  0
  -30.0228  -32.1369   18.5989 C   0  0  0  0  0  0  0  0  0  0  0  0
  -29.5848  -12.1982   18.3550 C   0  0  0  0  0  0  0  0  0  0  0  0
  -30.2546  -30.6609   18.9065 C   0  0  0  0  0  0  0  0  0  0  0  0
  -28.1392  -11.9502   18.7847 C   0  0  0  0  0  0  0  0  0  0  0  0
  -30.4954  -12.4165   19.5589 C   0  0  0  0  0  0  0  0  0  0  0  0
  -28.5929  -13.2705   20.9004 C   0  0  0  0  0  0  0  0  0  0  0  0
  -29.4180  -29.7669   17.9833 C   0  0  1  0  0  0  0  0  0  0  0  0
  -26.1147  -29.0182   19.7041 C   0  0  1  0  0  0  0  0  0  0  0  0
  -27.6379  -13.0730   19.7102 C   0  0  2  0  0  0  0  0  0  0  0  0
  -31.6428  -15.0027   15.9270 C   0  0  0  0  0  0  0  0  0  0  0  0
  -22.6091  -29.9388   26.5499 C   0  0  0  0  0  0  0  0  0  0  0  0
  -28.5305  -29.5806   23.6039 C   0  0  0  0  0  0  0  0  0  0  0  0
  -27.1821  -29.6093   25.7132 C   0  0  0  0  0  0  0  0  0  0  0  0
  -27.1362  -31.5755   24.1788 C   0  0  0  0  0  0  0  0  0  0  0  0
  -21.0571  -28.5311   23.3741 C   0  0  0  0  0  0  0  0  0  0  0  0
  -25.6263  -21.7164   19.2394 C   0  0  0  0  0  0  0  0  0  1  0  0
  -31.8837  -15.5450   17.3243 C   0  0  0  0  0  0  0  0  0  0  0  0
  -30.6228  -16.1512   17.9212 C   0  0  0  0  0  0  0  0  0  0  0  0
  -25.9542  -29.4460   23.5004 C   0  0  1  0  0  0  0  0  0  0  0  0
  -22.5048  -29.6785   25.0552 C   0  0  2  0  0  0  0  0  0  0  0  0
  -27.1958  -30.0333   24.2290 C   0  0  0  0  0  0  0  0  0  0  0  0
  -25.7866  -11.5694   20.3382 N   0  0  0  0  0  0  0  0  0  0  0  0
  -30.3109  -15.3199   22.9738 N   0  0  0  0  0  0  0  0  0  0  0  0
  -26.2100  -12.8330   20.1646 N   0  0  0  0  0  0  0  0  0  0  0  0
  -29.9720  -13.4630   20.4347 N   0  0  0  0  0  0  0  0  0  0  0  0
  -25.9402  -28.7351   21.1301 N   0  0  0  0  0  0  0  0  0  0  0  0
  -25.5176  -15.0936   20.3082 N   0  0  0  0  0  0  0  0  0  0  0  0
  -21.8295  -12.7943   21.5359 N   0  0  0  0  0  0  0  0  0  0  0  0
  -28.0399  -29.7345   18.4241 N   0  0  0  0  0  0  0  0  0  0  0  0
  -24.6760  -29.8795   24.0542 N   0  0  0  0  0  0  0  0  0  0  0  0
  -21.2951  -28.8444   24.8067 N   0  3  0  0  0  0  0  0  0  0  0  0
  -22.6837  -14.8930   21.1832 O   0  0  0  0  0  0  0  0  0  0  0  0
  -31.9571  -14.7214   20.4938 O   0  0  0  0  0  0  0  0  0  0  0  0
  -28.2458  -28.0523   20.0211 O   0  0  0  0  0  0  0  0  0  0  0  0
  -25.8786  -30.9940   21.7047 O   0  0  0  0  0  0  0  0  0  0  0  0
  -23.8767  -27.7576   24.5400 O   0  0  0  0  0  0  0  0  0  0  0  0
  -21.3610   -7.2529   21.8650 O   0  0  0  0  0  0  0  0  0  0  0  0
  -25.3265  -22.6577   20.2692 O   0  0  0  0  0  0  0  0  0  1  0  0
  -30.9232  -16.6515   19.2222 O   0  0  0  0  0  0  0  0  0  0  0  0
  -23.6029   -3.2390   24.9092 F   0  0  0  0  0  0  0  0  0  0  0  0
  -20.2458   -6.5171   24.2853 F   0  0  0  0  0  0  0  0  0  0  0  0
  1  2  1  0  0  0  0
  1  5  2  0  0  0  0
  2  6  2  0  0  0  0
  3  8  2  0  0  0  0
  3 17  1  0  0  0  0
  4  9  1  0  0  0  0
  4 17  2  0  0  0  0
  5 22  1  0  0  0  0
  6 24  1  0  0  0  0
  7 10  2  0  0  0  0
  7 23  1  0  0  0  0
  8 26  1  0  0  0  0
  9 26  2  0  0  0  0
 10 27  1  0  0  0  0
 11 12  2  0  0  0  0
 11 28  1  0  0  0  0
 12 30  1  0  0  0  0
 13 18  2  0  0  0  0
 13 19  1  0  0  0  0
 14 18  1  0  0  0  0
 14 29  2  0  0  0  0
 15 25  1  0  0  0  0
 15 27  2  0  0  0  0
 16 30  2  0  0  0  0
 16 31  1  0  0  0  0
 17 32  1  0  0  0  0
 18 35  1  0  0  0  0
 19 20  2  0  0  0  0
 19 36  1  0  0  0  0
 20 29  1  0  0  0  0
 20 38  1  0  0  0  0
 21 32  1  0  0  0  0
 21 33  2  0  0  0  0
 21 39  1  0  0  0  0
 22 24  2  0  0  0  0
 22 44  1  0  0  0  0
 23 25  2  0  0  0  0
 23 45  1  0  0  0  0
 24 53  1  0  0  0  0
 25 46  1  0  0  0  0
 26 83  1  0  0  0  0
 27 84  1  0  0  0  0
 28 31  2  0  0  0  0
 28 83  1  0  0  0  0
 29 85  1  0  0  0  0
 30 86  1  0  0  0  0
 31 87  1  0  0  0  0
 32 68  2  0  0  0  0
 33 70  1  0  0  0  0
 33 73  1  0  0  0  0
 34 36  2  0  0  0  0
 35 37  2  0  0  0  0
 37 62  1  0  0  0  0
 38 40  1  0  0  0  0
 38 69  2  0  0  0  0
 39 74  1  0  0  0  0
 39 78  2  0  0  0  0
 40 71  1  0  0  0  0
 40 79  2  0  0  0  0
 41 54  1  0  0  0  0
 41 75  1  0  0  0  0
 41 80  2  0  0  0  0
 42 65  1  0  0  0  0
 42 72  1  0  0  0  0
 42 81  2  0  0  0  0
 43 66  1  0  0  0  0
 43 76  1  0  0  0  0
 43 82  2  0  0  0  0
 44 47  1  0  0  0  0
 45 54  1  0  0  0  0
 46 72  1  0  0  0  0
 47 49  1  0  0  0  0
 48 50  1  0  0  0  0
 48 51  1  0  0  0  0
 49 53  1  0  0  0  0
 50 55  1  0  0  0  0
 51 71  1  0  0  0  0
 52 55  1  0  0  0  0
 52 71  1  0  0  0  0
 53 75  1  0  0  0  0
 54 72  1  0  0  0  0
 55 70  1  0  0  0  0
 56 63  1  0  0  0  0
 57 66  1  0  0  0  0
 58 67  1  0  0  0  0
 59 67  1  0  0  0  0
 60 67  1  0  0  0  0
 61 77  1  0  0  0  0
 62 84  1  0  0  0  0
 63 64  1  0  0  0  0
 64 85  1  0  0  0  0
 65 67  1  0  0  0  0
 65 76  1  0  0  0  0
 66 77  1  0  0  0  0
 68 70  1  0  0  0  0
M  CHG  1  77   1
M  ISO  4  38 100  40 100  62 101  84 101
M  END
> <Batch ID>
0114

> <Smiles>
C=Cc1cc(C=C[101CH2:1][101O:1]c2ccc3c(c2)CN(C(=O)C(NC(=O)C(C)NC)C(C)(C)C)C(C(=O)NC2CCCc4ccccc42)C3)cc(OCCC)c1[100C:0](=N)[100C:0](=O)N1CCCC(n2nc(-c3ccc(Oc4ccc(F)cc4F)cc3)c(C(N)=O)c2N)C1

> <Shape>
0.312

> <Color>
0.211

> <Negative vol penalty>
0.000

$$$$

  -OEChem-04052301373D

 84 92  0     1  0  0  0  0  0999 V2000
  -22.2738  -32.4614   29.8448 C   0  0  0  0  0  0  0  0  0  0  0  0
  -23.2663  -32.5877   28.8782 C   0  0  0  0  0  0  0  0  0  0  0  0
  -26.5931  -11.8215   21.2286 C   0  0  0  0  0  0  0  0  0  0  0  0
  -25.8486  -13.3274   19.4923 C   0  0  0  0  0  0  0  0  0  0  0  0
  -21.3673  -31.4041   29.7776 C   0  0  0  0  0  0  0  0  0  0  0  0
  -23.3538  -31.6560   27.8444 C   0  0  0  0  0  0  0  0  0  0  0  0
  -25.1699  -31.1384   20.9342 C   0  0  0  0  0  0  0  0  0  0  0  0
  -25.2720  -11.4418   21.4658 C   0  0  0  0  0  0  0  0  0  0  0  0
  -24.5275  -12.9477   19.7294 C   0  0  0  0  0  0  0  0  0  0  0  0
  -25.9864  -30.3889   20.0884 C   0  0  0  0  0  0  0  0  0  0  0  0
  -22.9757   -9.3994   20.0557 C   0  0  0  0  0  0  0  0  0  0  0  0
  -22.7088   -8.0383   20.2026 C   0  0  0  0  0  0  0  0  0  0  0  0
  -29.4022  -20.5469   18.2973 C   0  0  0  0  0  0  0  0  0  0  0  0
  -24.3170  -28.6485   20.0291 C   0  0  0  0  0  0  0  0  0  0  0  0
  -30.4441  -21.5817   20.2158 C   0  0  0  0  0  0  0  0  0  0  0  0
  -21.8609   -8.4448   22.4281 C   0  0  0  0  0  0  0  0  0  0  0  0
  -26.8814  -12.7643   20.2418 C   0  0  0  0  0  0  0  0  0  0  0  0
  -28.9379  -21.7933   17.8771 C   0  0  0  0  0  0  0  0  0  0  0  0
  -29.2268  -22.9339   18.6262 C   0  0  0  0  0  0  0  0  0  0  0  0
  -29.1518  -12.5666   19.0956 C   0  0  0  0  0  0  0  0  0  0  0  0
  -21.4377  -30.4645   28.7370 C   0  0  0  0  0  0  0  0  0  0  0  0
  -23.9234  -30.6430   21.3433 C   0  0  0  0  0  0  0  0  0  0  0  0
  -22.4483  -30.5844   27.7639 C   0  0  0  0  0  0  0  0  0  0  0  0
  -23.4855  -29.3948   20.8781 C   0  0  0  0  0  0  0  0  0  0  0  0
  -30.1552  -20.4411   19.4667 C   0  0  0  0  0  0  0  0  0  0  0  0
  -24.2392  -12.0049   20.7162 C   0  0  0  0  0  0  0  0  0  0  0  0
  -25.5612  -29.1426   19.6380 C   0  0  0  0  0  0  0  0  0  0  0  0
  -22.6852  -10.2833   21.0950 C   0  0  0  0  0  0  0  0  0  0  0  0
  -22.1514   -7.5610   21.3888 C   0  0  0  0  0  0  0  0  0  0  0  0
  -29.9799  -22.8281   19.7955 C   0  0  0  0  0  0  0  0  0  0  0  0
  -22.1278   -9.8060   22.2811 C   0  0  0  0  0  0  0  0  0  0  0  0
  -28.2457  -13.1573   19.9967 C   0  0  0  0  0  0  0  0  0  0  0  0
  -30.3042  -13.3005   19.2368 C   0  0  0  0  0  0  0  0  0  0  0  0
  -26.9948  -21.2388   16.4870 C   0  0  0  0  0  0  0  0  0  0  0  0
  -28.1548  -21.8555   16.6476 C   0  0  0  0  0  0  0  0  0  0  0  0
  -28.7545  -24.2677   18.2158 C   0  0  0  0  0  0  0  0  0  0  0  0
  -27.9700  -25.0678   18.9551 C   0  0  0  0  0  0  0  0  0  0  0  0
  -27.5413  -26.3740   18.5071 C   0  0  0  0  0  0  0  0  0  0  0  0
  -26.7605  -27.1745   19.2388 C   0  0  0  0  0  0  0  0  0  1  0  0
  -28.9681  -11.4541   18.2101 C   0  0  0  0  0  0  0  0  0  0  0  0
  -22.6210  -29.8804   24.1408 C   0  0  0  0  0  0  0  0  0  0  0  0
  -19.9533  -29.4617   22.3435 C   0  0  0  0  0  0  0  0  0  0  0  0
  -18.5960  -28.8152   19.2797 C   0  0  0  0  0  0  0  0  0  0  0  0
  -31.3861  -18.8966   21.0306 C   0  0  0  0  0  0  0  0  0  0  0  0
  -20.4651  -29.3118   28.7327 C   0  0  0  0  0  0  0  0  0  0  0  0
  -23.0430  -31.4754   22.2345 C   0  0  0  0  0  0  0  0  0  0  0  0
  -22.1473  -28.8268   21.2716 C   0  0  0  0  0  0  0  0  0  0  0  0
  -20.3937  -28.5800   27.3950 C   0  0  0  0  0  0  0  0  0  0  0  0
  -32.7107  -15.9119   22.4498 C   0  0  0  0  0  0  0  0  0  0  0  0
  -21.7961  -28.3021   26.8630 C   0  0  0  0  0  0  0  0  0  0  0  0
  -31.8022  -14.8124   21.8949 C   0  0  0  0  0  0  0  0  0  0  0  0
  -31.9327  -17.1911   22.7532 C   0  0  0  0  0  0  0  0  0  0  0  0
  -30.2170  -16.6062   21.0848 C   0  0  0  0  0  0  0  0  0  0  0  0
  -22.5602  -29.6080   26.6132 C   0  0  1  0  0  0  0  0  0  0  0  0
  -22.0150  -30.6481   23.0001 C   0  0  1  0  0  0  0  0  0  0  0  0
  -30.9670  -15.3197   20.7030 C   0  0  2  0  0  0  0  0  0  0  0  0
  -16.3878  -28.4969   18.1308 C   0  0  0  0  0  0  0  0  0  0  0  0
  -19.7331  -26.6663   23.5464 C   0  0  0  0  0  0  0  0  0  0  0  0
  -18.1360  -26.0777   21.7104 C   0  0  0  0  0  0  0  0  0  0  0  0
  -17.5592  -27.8837   23.3316 C   0  0  0  0  0  0  0  0  0  0  0  0
  -19.0608  -31.1283   17.4930 C   0  0  0  0  0  0  0  0  0  0  0  0
  -19.3426  -28.3049   21.5898 C   0  0  1  0  0  0  0  0  0  0  0  0
  -17.4739  -29.4907   18.5122 C   0  0  2  0  0  0  0  0  0  0  0  0
  -18.7188  -27.2427   22.5385 C   0  0  0  0  0  0  0  0  0  0  0  0
  -28.7769  -14.1870   20.6613 N   0  0  0  0  0  0  0  0  0  0  0  0
  -30.0292  -14.2490   20.1775 N   0  0  0  0  0  0  0  0  0  0  0  0
  -21.3253  -29.6758   22.1497 N   0  0  0  0  0  0  0  0  0  0  0  0
  -31.1689  -17.6142   21.5774 N   0  0  0  0  0  0  0  0  0  0  0  0
  -31.5158  -13.2205   18.6469 N   0  0  0  0  0  0  0  0  0  0  0  0
  -27.7213  -10.8142   18.1908 N   0  0  0  0  0  0  0  0  0  0  0  0
  -30.6266  -19.1753   19.8948 N   0  0  0  0  0  0  0  0  0  0  0  0
  -22.1178  -30.2245   25.3809 N   0  0  0  0  0  0  0  0  0  0  0  0
  -18.3987  -28.8878   20.6424 N   0  0  0  0  0  0  0  0  0  0  0  0
  -18.0009  -30.1127   17.2647 N   0  3  0  0  0  0  0  0  0  0  0  0
  -29.8876  -11.0293   17.4701 O   0  0  0  0  0  0  0  0  0  0  0  0
  -23.4804  -29.0371   23.9125 O   0  0  0  0  0  0  0  0  0  0  0  0
  -19.2378  -30.1543   23.0715 O   0  0  0  0  0  0  0  0  0  0  0  0
  -19.5502  -28.2737   18.7256 O   0  0  0  0  0  0  0  0  0  0  0  0
  -32.2066  -19.6790   21.5169 O   0  0  0  0  0  0  0  0  0  0  0  0
  -22.9501  -11.6345   20.9472 O   0  0  0  0  0  0  0  0  0  0  0  0
  -26.3565  -28.4087   18.8129 O   0  0  0  0  0  0  0  0  0  1  0  0
  -21.8937   -6.2540   21.5292 F   0  0  0  0  0  0  0  0  0  0  0  0
  -30.2671  -23.9140   20.5287 F   0  0  0  0  0  0  0  0  0  0  0  0
  -21.8455  -10.6504   23.2827 F   0  0  0  0  0  0  0  0  0  0  0  0
  1  2  1  0  0  0  0
  1  5  2  0  0  0  0
  2  6  2  0  0  0  0
  3  8  2  0  0  0  0
  3 17  1  0  0  0  0
  4  9  1  0  0  0  0
  4 17  2  0  0  0  0
  5 21  1  0  0  0  0
  6 23  1  0  0  0  0
  7 10  2  0  0  0  0
  7 22  1  0  0  0  0
  8 26  1  0  0  0  0
  9 26  2  0  0  0  0
 10 27  1  0  0  0  0
 11 12  2  0  0  0  0
 11 28  1  0  0  0  0
 12 29  1  0  0  0  0
 13 18  1  0  0  0  0
 13 25  2  0  0  0  0
 14 24  1  0  0  0  0
 14 27  2  0  0  0  0
 15 25  1  0  0  0  0
 15 30  2  0  0  0  0
 16 29  2  0  0  0  0
 16 31  1  0  0  0  0
 17 32  1  0  0  0  0
 18 19  2  0  0  0  0
 18 35  1  0  0  0  0
 19 30  1  0  0  0  0
 19 36  1  0  0  0  0
 20 32  1  0  0  0  0
 20 33  2  0  0  0  0
 20 40  1  0  0  0  0
 21 23  2  0  0  0  0
 21 45  1  0  0  0  0
 22 24  2  0  0  0  0
 22 46  1  0  0  0  0
 23 54  1  0  0  0  0
 24 47  1  0  0  0  0
 25 71  1  0  0  0  0
 26 80  1  0  0  0  0
 27 81  1  0  0  0  0
 28 31  2  0  0  0  0
 28 80  1  0  0  0  0
 29 82  1  0  0  0  0
 30 83  1  0  0  0  0
 31 84  1  0  0  0  0
 32 65  2  0  0  0  0
 33 66  1  0  0  0  0
 33 69  1  0  0  0  0
 34 35  2  0  0  0  0
 36 37  2  0  0  0  0
 37 38  1  0  0  0  0
 38 39  2  0  0  0  0
 39 81  1  0  0  0  0
 40 70  1  0  0  0  0
 40 75  2  0  0  0  0
 41 55  1  0  0  0  0
 41 72  1  0  0  0  0
 41 76  2  0  0  0  0
 42 62  1  0  0  0  0
 42 67  1  0  0  0  0
 42 77  2  0  0  0  0
 43 63  1  0  0  0  0
 43 73  1  0  0  0  0
 43 78  2  0  0  0  0
 44 68  1  0  0  0  0
 44 71  1  0  0  0  0
 44 79  2  0  0  0  0
 45 48  1  0  0  0  0
 46 55  1  0  0  0  0
 47 67  1  0  0  0  0
 48 50  1  0  0  0  0
 49 51  1  0  0  0  0
 49 52  1  0  0  0  0
 50 54  1  0  0  0  0
 51 56  1  0  0  0  0
 52 68  1  0  0  0  0
 53 56  1  0  0  0  0
 53 68  1  0  0  0  0
 54 72  1  0  0  0  0
 55 67  1  0  0  0  0
 56 66  1  0  0  0  0
 57 63  1  0  0  0  0
 58 64  1  0  0  0  0
 59 64  1  0  0  0  0
 60 64  1  0  0  0  0
 61 74  1  0  0  0  0
 62 64  1  0  0  0  0
 62 73  1  0  0  0  0
 63 74  1  0  0  0  0
 65 66  1  0  0  0  0
M  CHG  1  74   1
M  ISO  4  39 101  44 100  71 100  81 101
M  END
> <Batch ID>
0114

> <Smiles>
C=Cc1cc([100NH:0][100C:0](=O)N2CCCC(n3nc(-c4ccc(Oc5ccc(F)cc5F)cc4)c(C(N)=O)c3N)C2)cc(F)c1C=CC=[101CH:1][101O:1]c1ccc2c(c1)CN(C(=O)C(NC(=O)C(C)NC)C(C)(C)C)C(C(=O)NC1CCCc3ccccc31)C2

> <Shape>
0.299

> <Color>
0.063

> <Negative vol penalty>
0.000

$$$$

  -OEChem-04052301373D

 89 97  0     1  0  0  0  0  0999 V2000
  -26.5301  -37.6808   22.0631 C   0  0  0  0  0  0  0  0  0  0  0  0
  -27.1920  -36.5275   21.6538 C   0  0  0  0  0  0  0  0  0  0  0  0
  -26.6404  -12.2806   19.3356 C   0  0  0  0  0  0  0  0  0  0  0  0
  -27.2304  -14.2124   18.0101 C   0  0  0  0  0  0  0  0  0  0  0  0
  -25.4908  -37.5954   22.9885 C   0  0  0  0  0  0  0  0  0  0  0  0
  -26.8155  -35.2884   22.1707 C   0  0  0  0  0  0  0  0  0  0  0  0
  -26.8440  -29.9131   19.2362 C   0  0  0  0  0  0  0  0  0  0  0  0
  -26.9210  -11.4503   18.2506 C   0  0  0  0  0  0  0  0  0  0  0  0
  -27.5111  -13.3821   16.9250 C   0  0  0  0  0  0  0  0  0  0  0  0
  -27.7544  -28.8573   19.2214 C   0  0  0  0  0  0  0  0  0  0  0  0
  -30.0297  -11.3656   15.9196 C   0  0  0  0  0  0  0  0  0  0  0  0
  -31.2027  -11.6093   15.2054 C   0  0  0  0  0  0  0  0  0  0  0  0
  -27.1330  -22.4781   19.9284 C   0  0  0  0  0  0  0  0  0  0  0  0
  -29.4338  -22.2503   19.2273 C   0  0  0  0  0  0  0  0  0  0  0  0
  -26.4569  -27.7227   20.9091 C   0  0  0  0  0  0  0  0  0  0  0  0
  -29.9049  -11.9873   13.2029 C   0  0  0  0  0  0  0  0  0  0  0  0
  -26.7951  -13.6616   19.2154 C   0  0  0  0  0  0  0  0  0  0  0  0
  -27.1769  -21.2009   20.4874 C   0  0  0  0  0  0  0  0  0  0  0  0
  -29.4777  -20.9731   19.7863 C   0  0  0  0  0  0  0  0  0  0  0  0
  -27.3979  -14.9371   21.3409 C   0  0  0  0  0  0  0  0  0  0  0  0
  -25.0950  -36.3535   23.5096 C   0  0  0  0  0  0  0  0  0  0  0  0
  -25.7372  -29.8865   20.0968 C   0  0  0  0  0  0  0  0  0  0  0  0
  -25.7708  -35.1865   23.1050 C   0  0  0  0  0  0  0  0  0  0  0  0
  -25.5325  -28.7782   20.9310 C   0  0  0  0  0  0  0  0  0  0  0  0
  -28.3492  -20.4484   20.4163 C   0  0  0  0  0  0  0  0  0  0  0  0
  -27.3564  -12.0010   17.0452 C   0  0  0  0  0  0  0  0  0  0  0  0
  -27.5625  -27.7632   20.0600 C   0  0  0  0  0  0  0  0  0  0  0  0
  -28.7942  -11.4326   15.2756 C   0  0  0  0  0  0  0  0  0  0  0  0
  -28.2615  -23.0028   19.2983 C   0  0  0  0  0  0  0  0  0  0  0  0
  -31.1403  -11.9203   13.8470 C   0  0  0  0  0  0  0  0  0  0  0  0
  -28.7318  -11.7435   13.9172 C   0  0  0  0  0  0  0  0  0  0  0  0
  -26.5048  -14.5199   20.3358 C   0  0  0  0  0  0  0  0  0  0  0  0
  -26.6405  -15.7342   22.1639 C   0  0  0  0  0  0  0  0  0  0  0  0
  -25.9665  -20.6782   21.1451 C   0  0  0  0  0  0  0  0  0  0  0  0
  -24.7838  -20.5075   20.5350 C   0  0  0  0  0  0  0  0  0  0  0  0
  -30.7168  -20.2120   19.6953 C   0  0  0  0  0  0  0  0  0  0  0  0
  -28.7878  -14.6314   21.5149 C   0  0  0  0  0  0  0  0  0  0  0  0
  -23.6268  -19.9540   21.3039 C   0  0  0  0  0  0  0  0  0  0  0  0
  -24.7299  -31.6911   22.5119 C   0  0  0  0  0  0  0  0  0  0  0  0
  -22.1213  -29.7699   22.3484 C   0  0  0  0  0  0  0  0  0  0  0  0
  -20.7872  -26.7685   21.4218 C   0  0  0  0  0  0  0  0  0  0  0  0
  -21.5045  -18.7864   20.9327 C   0  0  0  0  0  0  0  0  0  0  0  0
  -23.9973  -36.3165   24.5433 C   0  0  0  0  0  0  0  0  0  0  0  0
  -24.7498  -31.0211   20.0815 C   0  0  0  0  0  0  0  0  0  0  0  0
  -24.3493  -28.6919   21.8589 C   0  0  0  0  0  0  0  0  0  0  0  0
  -23.4115  -34.9237   24.7600 C   0  0  0  0  0  0  0  0  0  0  0  0
  -22.1530  -16.4076   23.6652 C   0  0  0  0  0  0  0  0  0  0  0  0
  -24.5259  -33.8915   24.8991 C   0  0  0  0  0  0  0  0  0  0  0  0
  -23.3812  -15.6441   23.1721 C   0  0  0  0  0  0  0  0  0  0  0  0
  -21.2813  -16.8863   22.5078 C   0  0  0  0  0  0  0  0  0  0  0  0
  -23.2498  -16.9357   21.0044 C   0  0  0  0  0  0  0  0  0  0  0  0
  -25.3751  -33.8212   23.6242 C   0  0  1  0  0  0  0  0  0  0  0  0
  -23.9372  -31.1234   21.3686 C   0  0  1  0  0  0  0  0  0  0  0  0
  -24.1685  -16.4789   22.1477 C   0  0  2  0  0  0  0  0  0  0  0  0
  -28.4050  -19.0760   21.0139 C   0  0  0  0  0  0  0  0  0  0  0  0
  -31.9404  -20.8062   20.3271 C   0  0  0  0  0  0  0  0  0  0  0  0
  -18.6369  -25.4752   21.4519 C   0  0  0  0  0  0  0  0  0  0  0  0
  -22.5039  -29.2078   25.3229 C   0  0  0  0  0  0  0  0  0  0  0  0
  -20.9758  -27.2400   25.0763 C   0  0  0  0  0  0  0  0  0  0  0  0
  -20.1266  -29.5410   24.6214 C   0  0  0  0  0  0  0  0  0  0  0  0
  -21.9090  -20.8730   19.7326 C   0  0  0  0  0  0  0  0  0  0  0  0
  -20.7136  -26.5977   18.4681 C   0  0  0  0  0  0  0  0  0  0  0  0
  -29.1237  -26.4683   18.8183 C   0  0  0  0  0  0  0  0  0  1  0  0
  -29.4389  -24.9880   18.7251 C   0  0  0  0  0  0  0  0  0  0  0  0
  -21.7171  -28.4598   22.9803 C   0  0  1  0  0  0  0  0  0  0  0  0
  -19.5228  -26.4214   20.6566 C   0  0  2  0  0  0  0  0  0  0  0  0
  -21.3543  -28.6143   24.4843 C   0  0  0  0  0  0  0  0  0  0  0  0
  -25.2741  -15.0113   20.5032 N   0  0  0  0  0  0  0  0  0  0  0  0
  -25.3885  -15.7453   21.6231 N   0  0  0  0  0  0  0  0  0  0  0  0
  -23.4154  -29.8291   21.8119 N   0  0  0  0  0  0  0  0  0  0  0  0
  -22.0621  -17.6338   21.5213 N   0  0  0  0  0  0  0  0  0  0  0  0
  -26.9300  -16.4196   23.2904 N   0  0  0  0  0  0  0  0  0  0  0  0
  -29.4109  -13.7967   20.5772 N   0  0  0  0  0  0  0  0  0  0  0  0
  -24.6849  -33.0695   22.5980 N   0  0  0  0  0  0  0  0  0  0  0  0
  -20.6378  -27.9254   22.1571 N   0  0  0  0  0  0  0  0  0  0  0  0
  -22.4209  -19.8053   20.5925 N   0  0  0  0  0  0  0  0  0  0  0  0
  -19.8642  -25.7684   19.3612 N   0  3  0  0  0  0  0  0  0  0  0  0
  -30.8335  -19.1218   19.1350 O   0  0  0  0  0  0  0  0  0  0  0  0
  -29.4534  -15.0718   22.4827 O   0  0  0  0  0  0  0  0  0  0  0  0
  -23.7602  -19.6550   22.4918 O   0  0  0  0  0  0  0  0  0  0  0  0
  -25.3361  -30.9345   23.2613 O   0  0  0  0  0  0  0  0  0  0  0  0
  -21.3159  -30.7040   22.3250 O   0  0  0  0  0  0  0  0  0  0  0  0
  -21.8042  -26.0801   21.3750 O   0  0  0  0  0  0  0  0  0  0  0  0
  -20.2886  -18.9249   20.7589 O   0  0  0  0  0  0  0  0  0  0  0  0
  -27.6305  -11.1911   15.9863 O   0  0  0  0  0  0  0  0  0  0  0  0
  -28.4560  -26.7246   20.0480 O   0  0  0  0  0  0  0  0  0  1  0  0
  -28.2187  -24.2491   18.7526 O   0  0  0  0  0  0  0  0  0  0  0  0
  -32.2668  -12.1559   13.1616 F   0  0  0  0  0  0  0  0  0  0  0  0
  -27.5478  -11.8105   13.2933 F   0  0  0  0  0  0  0  0  0  0  0  0
  1  2  1  0  0  0  0
  1  5  2  0  0  0  0
  2  6  2  0  0  0  0
  3  8  2  0  0  0  0
  3 17  1  0  0  0  0
  4  9  1  0  0  0  0
  4 17  2  0  0  0  0
  5 21  1  0  0  0  0
  6 23  1  0  0  0  0
  7 10  2  0  0  0  0
  7 22  1  0  0  0  0
  8 26  1  0  0  0  0
  9 26  2  0  0  0  0
 10 27  1  0  0  0  0
 11 12  2  0  0  0  0
 11 28  1  0  0  0  0
 12 30  1  0  0  0  0
 13 18  2  0  0  0  0
 13 29  1  0  0  0  0
 14 19  1  0  0  0  0
 14 29  2  0  0  0  0
 15 24  1  0  0  0  0
 15 27  2  0  0  0  0
 16 30  2  0  0  0  0
 16 31  1  0  0  0  0
 17 32  1  0  0  0  0
 18 25  1  0  0  0  0
 18 34  1  0  0  0  0
 19 25  2  0  0  0  0
 19 36  1  0  0  0  0
 20 32  1  0  0  0  0
 20 33  2  0  0  0  0
 20 37  1  0  0  0  0
 21 23  2  0  0  0  0
 21 43  1  0  0  0  0
 22 24  2  0  0  0  0
 22 44  1  0  0  0  0
 23 52  1  0  0  0  0
 24 45  1  0  0  0  0
 25 55  1  0  0  0  0
 26 85  1  0  0  0  0
 27 86  1  0  0  0  0
 28 31  2  0  0  0  0
 28 85  1  0  0  0  0
 29 87  1  0  0  0  0
 30 88  1  0  0  0  0
 31 89  1  0  0  0  0
 32 68  2  0  0  0  0
 33 69  1  0  0  0  0
 33 72  1  0  0  0  0
 34 35  2  0  0  0  0
 35 38  1  0  0  0  0
 36 56  1  0  0  0  0
 36 78  2  0  0  0  0
 37 73  1  0  0  0  0
 37 79  2  0  0  0  0
 38 76  1  0  0  0  0
 38 80  2  0  0  0  0
 39 53  1  0  0  0  0
 39 74  1  0  0  0  0
 39 81  2  0  0  0  0
 40 65  1  0  0  0  0
 40 70  1  0  0  0  0
 40 82  2  0  0  0  0
 41 66  1  0  0  0  0
 41 75  1  0  0  0  0
 41 83  2  0  0  0  0
 42 71  1  0  0  0  0
 42 76  1  0  0  0  0
 42 84  2  0  0  0  0
 43 46  1  0  0  0  0
 44 53  1  0  0  0  0
 45 70  1  0  0  0  0
 46 48  1  0  0  0  0
 47 49  1  0  0  0  0
 47 50  1  0  0  0  0
 48 52  1  0  0  0  0
 49 54  1  0  0  0  0
 50 71  1  0  0  0  0
 51 54  1  0  0  0  0
 51 71  1  0  0  0  0
 52 74  1  0  0  0  0
 53 70  1  0  0  0  0
 54 69  1  0  0  0  0
 57 66  1  0  0  0  0
 58 67  1  0  0  0  0
 59 67  1  0  0  0  0
 60 67  1  0  0  0  0
 61 76  1  0  0  0  0
 62 77  1  0  0  0  0
 63 64  1  0  0  0  0
 63 86  1  0  0  0  0
 64 87  1  0  0  0  0
 65 67  1  0  0  0  0
 65 75  1  0  0  0  0
 66 77  1  0  0  0  0
 68 69  1  0  0  0  0
M  CHG  1  77   1
M  ISO  4  42 100  63 101  76 100  86 101
M  END
> <Batch ID>
0114

> <Smiles>
CNC(C)C(=O)NC(C(=O)N1Cc2cc([101O:1][101CH2:1]COc3cc(C=CC(=O)[100N:0](C)[100C:0](=O)N4CCCC(n5nc(-c6ccc(Oc7ccc(F)cc7F)cc6)c(C(N)=O)c5N)C4)c(C)c(C(C)=O)c3)ccc2CC1C(=O)NC1CCCc2ccccc21)C(C)(C)C

> <Shape>
0.265

> <Color>
0.070

> <Negative vol penalty>
0.000

$$$$

  -OEChem-04052301373D

 89 97  0     1  0  0  0  0  0999 V2000
  -27.7992  -34.2089   25.1081 C   0  0  0  0  0  0  0  0  0  0  0  0
  -27.9920  -32.9266   24.6042 C   0  0  0  0  0  0  0  0  0  0  0  0
  -26.7407  -13.8277   21.1461 C   0  0  0  0  0  0  0  0  0  0  0  0
  -25.5659  -13.1801   19.1367 C   0  0  0  0  0  0  0  0  0  0  0  0
  -27.3069  -20.2332   25.6239 C   0  0  0  0  0  0  0  0  0  0  0  0
  -26.5260  -34.6174   25.5029 C   0  0  0  0  0  0  0  0  0  0  0  0
  -26.9116  -32.0516   24.4958 C   0  0  0  0  0  0  0  0  0  0  0  0
  -26.8304  -29.6049   20.0628 C   0  0  0  0  0  0  0  0  0  0  0  0
  -26.4870  -12.5725   21.6990 C   0  0  0  0  0  0  0  0  0  0  0  0
  -25.3122  -11.9249   19.6896 C   0  0  0  0  0  0  0  0  0  0  0  0
  -28.5555  -20.8500   25.7012 C   0  0  0  0  0  0  0  0  0  0  0  0
  -27.7063  -28.5307   19.9123 C   0  0  0  0  0  0  0  0  0  0  0  0
  -24.0440   -8.6757   20.7115 C   0  0  0  0  0  0  0  0  0  0  0  0
  -22.7556   -8.1577   20.5801 C   0  0  0  0  0  0  0  0  0  0  0  0
  -25.8984  -27.0004   20.3691 C   0  0  0  0  0  0  0  0  0  0  0  0
  -21.8701  -10.0541   21.7872 C   0  0  0  0  0  0  0  0  0  0  0  0
  -26.2801  -14.1315   19.8649 C   0  0  0  0  0  0  0  0  0  0  0  0
  -26.3729  -20.6648   24.6821 C   0  0  0  0  0  0  0  0  0  0  0  0
  -26.6875  -21.7134   23.8177 C   0  0  0  0  0  0  0  0  0  0  0  0
  -27.6547  -15.8076   18.5200 C   0  0  0  0  0  0  0  0  0  0  0  0
  -25.4277  -33.7503   25.3903 C   0  0  0  0  0  0  0  0  0  0  0  0
  -25.4820  -29.3850   20.3788 C   0  0  0  0  0  0  0  0  0  0  0  0
  -25.6227  -32.4484   24.8907 C   0  0  0  0  0  0  0  0  0  0  0  0
  -25.0069  -28.0734   20.5206 C   0  0  0  0  0  0  0  0  0  0  0  0
  -25.7728  -11.6211   20.9707 C   0  0  0  0  0  0  0  0  0  0  0  0
  -27.2410  -27.2283   20.0683 C   0  0  0  0  0  0  0  0  0  0  0  0
  -28.8701  -21.8986   24.8368 C   0  0  0  0  0  0  0  0  0  0  0  0
  -24.2455   -9.8828   21.3809 C   0  0  0  0  0  0  0  0  0  0  0  0
  -27.9361  -22.3303   23.8951 C   0  0  0  0  0  0  0  0  0  0  0  0
  -21.6687   -8.8469   21.1179 C   0  0  0  0  0  0  0  0  0  0  0  0
  -23.1586  -10.5720   21.9186 C   0  0  0  0  0  0  0  0  0  0  0  0
  -26.5414  -15.4282   19.2935 C   0  0  0  0  0  0  0  0  0  0  0  0
  -27.4319  -17.1300   18.2231 C   0  0  0  0  0  0  0  0  0  0  0  0
  -23.3864  -16.7541   24.1543 C   0  0  0  0  0  0  0  0  0  0  0  0
  -25.0792  -19.9943   24.6313 C   0  0  0  0  0  0  0  0  0  0  0  0
  -23.5792  -18.0593   24.3755 C   0  0  0  0  0  0  0  0  0  0  0  0
  -24.8867  -18.6756   24.4076 C   0  0  0  0  0  0  0  0  0  0  0  0
  -25.7053  -22.1866   22.8086 C   0  0  0  0  0  0  0  0  0  0  0  0
  -28.7889  -15.0339   18.1068 C   0  0  0  0  0  0  0  0  0  0  0  0
  -23.5929  -30.1641   22.8136 C   0  0  0  0  0  0  0  0  0  0  0  0
  -21.2887  -28.8691   20.9332 C   0  0  0  0  0  0  0  0  0  0  0  0
  -20.4799  -26.7331   18.3975 C   0  0  0  0  0  0  0  0  0  0  0  0
  -24.3423  -21.4604   20.8751 C   0  0  0  0  0  0  0  0  0  0  0  0
  -24.0789  -34.2206   25.8740 C   0  0  0  0  0  0  0  0  0  0  0  0
  -24.5442  -30.5534   20.5115 C   0  0  0  0  0  0  0  0  0  0  0  0
  -23.5639  -27.7829   20.8399 C   0  0  0  0  0  0  0  0  0  0  0  0
  -22.9197  -33.3606   25.3769 C   0  0  0  0  0  0  0  0  0  0  0  0
  -23.8736  -20.2762   17.5773 C   0  0  0  0  0  0  0  0  0  0  0  0
  -23.2392  -31.8797   25.5547 C   0  0  0  0  0  0  0  0  0  0  0  0
  -24.6190  -18.9389   17.5645 C   0  0  0  0  0  0  0  0  0  0  0  0
  -23.1634  -20.5173   18.9087 C   0  0  0  0  0  0  0  0  0  0  0  0
  -24.7519  -19.0509   20.0852 C   0  0  0  0  0  0  0  0  0  0  0  0
  -24.4714  -31.4788   24.7347 C   0  0  1  0  0  0  0  0  0  0  0  0
  -23.3043  -30.2333   21.3406 C   0  0  1  0  0  0  0  0  0  0  0  0
  -25.5414  -18.7936   18.7915 C   0  0  1  0  0  0  0  0  0  0  0  0
  -18.5108  -25.8596   17.1101 C   0  0  0  0  0  0  0  0  0  0  0  0
  -20.5370  -27.0895   23.2950 C   0  0  0  0  0  0  0  0  0  0  0  0
  -19.2657  -25.6336   21.7036 C   0  0  0  0  0  0  0  0  0  0  0  0
  -18.5913  -28.0137   22.0243 C   0  0  0  0  0  0  0  0  0  0  0  0
  -21.5288  -27.7999   15.8440 C   0  0  0  0  0  0  0  0  0  0  0  0
  -30.2099  -23.6067   25.8082 C   0  0  0  0  0  0  0  0  0  0  0  0
  -29.1081  -24.2651   20.9875 C   0  0  0  0  0  0  0  0  0  0  0  0
  -27.8141  -25.0037   20.6835 C   0  0  0  0  0  0  0  0  0  1  0  0
  -28.8673  -23.0129   21.8159 C   0  0  0  0  0  0  0  0  0  0  0  0
  -20.7102  -27.4868   20.7497 C   0  0  1  0  0  0  0  0  0  0  0  0
  -19.6063  -26.9128   17.1690 C   0  0  2  0  0  0  0  0  0  0  0  0
  -19.8037  -27.0611   21.9390 C   0  0  0  0  0  0  0  0  0  0  0  0
  -25.6757  -16.4287   19.4766 N   0  0  0  0  0  0  0  0  0  0  0  0
  -26.2451  -17.4499   18.8140 N   0  0  0  0  0  0  0  0  0  0  0  0
  -22.6875  -28.9591   20.9661 N   0  0  0  0  0  0  0  0  0  0  0  0
  -24.1070  -20.3709   20.0184 N   0  0  0  0  0  0  0  0  0  0  0  0
  -28.1375  -18.0387   17.5168 N   0  0  0  0  0  0  0  0  0  0  0  0
  -28.8599  -13.6902   18.4992 N   0  0  0  0  0  0  0  0  0  0  0  0
  -25.2918  -21.2334   21.8775 N   0  0  0  0  0  0  0  0  0  0  0  0
  -24.1220  -31.3278   23.3384 N   0  0  0  0  0  0  0  0  0  0  0  0
  -20.0347  -27.4953   19.4567 N   0  0  0  0  0  0  0  0  0  0  0  0
  -20.4272  -26.8069   15.9297 N   0  3  0  0  0  0  0  0  0  0  0  0
  -25.2936  -23.3418   22.8706 O   0  0  0  0  0  0  0  0  0  0  0  0
  -29.7200  -15.5240   17.4240 O   0  0  0  0  0  0  0  0  0  0  0  0
  -23.3520  -29.1320   23.4287 O   0  0  0  0  0  0  0  0  0  0  0  0
  -20.5276  -29.8344   21.0361 O   0  0  0  0  0  0  0  0  0  0  0  0
  -21.4571  -25.9879   18.4167 O   0  0  0  0  0  0  0  0  0  0  0  0
  -23.7839  -22.5532   20.7364 O   0  0  0  0  0  0  0  0  0  0  0  0
  -25.5252  -10.3961   21.5099 O   0  0  0  0  0  0  0  0  0  0  0  0
  -30.0928  -22.4931   24.9248 O   0  0  0  0  0  0  0  0  0  0  0  0
  -28.0939  -26.1780   19.9226 O   0  0  0  0  0  0  0  0  0  1  0  0
  -28.2554  -23.3614   23.0504 O   0  0  0  0  0  0  0  0  0  0  0  0
  -20.4313   -8.3502   20.9902 F   0  0  0  0  0  0  0  0  0  0  0  0
  -23.3458  -11.7327   22.5617 F   0  0  0  0  0  0  0  0  0  0  0  0
  1  2  1  0  0  0  0
  1  6  2  0  0  0  0
  2  7  2  0  0  0  0
  3  9  2  0  0  0  0
  3 17  1  0  0  0  0
  4 10  1  0  0  0  0
  4 17  2  0  0  0  0
  5 11  2  0  0  0  0
  5 18  1  0  0  0  0
  6 21  1  0  0  0  0
  7 23  1  0  0  0  0
  8 12  2  0  0  0  0
  8 22  1  0  0  0  0
  9 25  1  0  0  0  0
 10 25  2  0  0  0  0
 11 27  1  0  0  0  0
 12 26  1  0  0  0  0
 13 14  2  0  0  0  0
 13 28  1  0  0  0  0
 14 30  1  0  0  0  0
 15 24  1  0  0  0  0
 15 26  2  0  0  0  0
 16 30  2  0  0  0  0
 16 31  1  0  0  0  0
 17 32  1  0  0  0  0
 18 19  2  0  0  0  0
 18 35  1  0  0  0  0
 19 29  1  0  0  0  0
 19 38  1  0  0  0  0
 20 32  1  0  0  0  0
 20 33  2  0  0  0  0
 20 39  1  0  0  0  0
 21 23  2  0  0  0  0
 21 44  1  0  0  0  0
 22 24  2  0  0  0  0
 22 45  1  0  0  0  0
 23 53  1  0  0  0  0
 24 46  1  0  0  0  0
 25 84  1  0  0  0  0
 26 86  1  0  0  0  0
 27 29  2  0  0  0  0
 27 85  1  0  0  0  0
 28 31  2  0  0  0  0
 28 84  1  0  0  0  0
 29 87  1  0  0  0  0
 30 88  1  0  0  0  0
 31 89  1  0  0  0  0
 32 68  2  0  0  0  0
 33 69  1  0  0  0  0
 33 72  1  0  0  0  0
 34 36  2  0  0  0  0
 35 37  2  0  0  0  0
 36 37  1  0  0  0  0
 38 74  1  0  0  0  0
 38 78  2  0  0  0  0
 39 73  1  0  0  0  0
 39 79  2  0  0  0  0
 40 54  1  0  0  0  0
 40 75  1  0  0  0  0
 40 80  2  0  0  0  0
 41 65  1  0  0  0  0
 41 70  1  0  0  0  0
 41 81  2  0  0  0  0
 42 66  1  0  0  0  0
 42 76  1  0  0  0  0
 42 82  2  0  0  0  0
 43 71  1  0  0  0  0
 43 74  1  0  0  0  0
 43 83  2  0  0  0  0
 44 47  1  0  0  0  0
 45 54  1  0  0  0  0
 46 70  1  0  0  0  0
 47 49  1  0  0  0  0
 48 50  1  0  0  0  0
 48 51  1  0  0  0  0
 49 53  1  0  0  0  0
 50 55  1  0  0  0  0
 51 71  1  0  0  0  0
 52 55  1  0  0  0  0
 52 71  1  0  0  0  0
 53 75  1  0  0  0  0
 54 70  1  0  0  0  0
 55 69  1  0  0  0  0
 56 66  1  0  0  0  0
 57 67  1  0  0  0  0
 58 67  1  0  0  0  0
 59 67  1  0  0  0  0
 60 77  1  0  0  0  0
 61 85  1  0  0  0  0
 62 63  1  0  0  0  0
 62 64  1  0  0  0  0
 63 86  1  0  0  0  0
 64 87  1  0  0  0  0
 65 67  1  0  0  0  0
 65 76  1  0  0  0  0
 66 77  1  0  0  0  0
 68 69  1  0  0  0  0
M  CHG  1  77   1
M  ISO  4  43 100  63 101  74 100  86 101
M  END
> <Batch ID>
0114

> <Smiles>
C=CC=Cc1ccc(OC)c(OCC[101CH2:1][101O:1]c2ccc3c(c2)CN(C(=O)C(NC(=O)C(C)NC)C(C)(C)C)C(C(=O)NC2CCCc4ccccc42)C3)c1C(=O)[100NH:0][100C:0](=O)N1CCCC(n2nc(-c3ccc(Oc4ccc(F)cc4F)cc3)c(C(N)=O)c2N)C1

> <Shape>
0.227

> <Color>
0.080

> <Negative vol penalty>
0.000

$$$$

  -OEChem-04052301373D

 88 96  0     1  0  0  0  0  0999 V2000
  -20.4132   -9.0606   18.8368 C   0  0  0  0  0  0  0  0  0  0  0  0
  -20.3192  -10.4256   19.0887 C   0  0  0  0  0  0  0  0  0  0  0  0
  -29.4207  -27.9740   21.2761 C   0  0  0  0  0  0  0  0  0  0  0  0
  -27.6890  -27.2890   19.7369 C   0  0  0  0  0  0  0  0  0  0  0  0
  -21.4391   -8.3150   19.4161 C   0  0  0  0  0  0  0  0  0  0  0  0
  -21.2504  -11.0456   19.9210 C   0  0  0  0  0  0  0  0  0  0  0  0
  -23.4588  -16.7322   19.3818 C   0  0  0  0  0  0  0  0  0  0  0  0
  -30.2258  -26.9225   20.8383 C   0  0  0  0  0  0  0  0  0  0  0  0
  -28.4942  -26.2375   19.2990 C   0  0  0  0  0  0  0  0  0  0  0  0
  -23.1267  -17.9310   20.0113 C   0  0  0  0  0  0  0  0  0  0  0  0
  -29.3757  -23.1576   20.3797 C   0  0  0  0  0  0  0  0  0  0  0  0
  -28.7825  -21.9034   20.2363 C   0  0  0  0  0  0  0  0  0  0  0  0
  -21.3533  -26.1417   23.5988 C   0  0  0  0  0  0  0  0  0  0  0  0
  -24.9095  -17.5843   21.5989 C   0  0  0  0  0  0  0  0  0  0  0  0
  -18.7474  -25.8703   22.6406 C   0  0  0  0  0  0  0  0  0  0  0  0
  -29.3557  -21.9006   17.8893 C   0  0  0  0  0  0  0  0  0  0  0  0
  -28.1522  -28.1572   20.7254 C   0  0  0  0  0  0  0  0  0  0  0  0
  -20.6242  -27.2725   23.2308 C   0  0  0  0  0  0  0  0  0  0  0  0
  -27.2677  -30.5489   20.6549 C   0  0  0  0  0  0  0  0  0  0  0  0
  -22.3891   -8.9280   20.2482 C   0  0  0  0  0  0  0  0  0  0  0  0
  -24.5136  -15.9437   19.8635 C   0  0  0  0  0  0  0  0  0  0  0  0
  -22.2892  -10.3072   20.5131 C   0  0  0  0  0  0  0  0  0  0  0  0
  -25.2547  -16.3772   20.9722 C   0  0  0  0  0  0  0  0  0  0  0  0
  -19.3213  -27.1368   22.7517 C   0  0  0  0  0  0  0  0  0  0  0  0
  -29.7626  -26.0543   19.8497 C   0  0  0  0  0  0  0  0  0  0  0  0
  -23.8502  -18.3558   21.1218 C   0  0  0  0  0  0  0  0  0  0  0  0
  -29.9589  -23.7834   19.2779 C   0  0  0  0  0  0  0  0  0  0  0  0
  -20.7795  -24.8752   23.4876 C   0  0  0  0  0  0  0  0  0  0  0  0
  -19.4765  -24.7395   23.0085 C   0  0  0  0  0  0  0  0  0  0  0  0
  -28.7725  -21.2749   18.9911 C   0  0  0  0  0  0  0  0  0  0  0  0
  -29.9489  -23.1549   18.0327 C   0  0  0  0  0  0  0  0  0  0  0  0
  -27.3198  -29.2429   21.1777 C   0  0  0  0  0  0  0  0  0  0  0  0
  -26.3283  -31.1898   21.4251 C   0  0  0  0  0  0  0  0  0  0  0  0
  -18.2372  -30.3967   23.7552 C   0  0  0  0  0  0  0  0  0  0  0  0
  -17.9847  -29.1027   23.5281 C   0  0  0  0  0  0  0  0  0  0  0  0
  -21.2483  -28.5830   23.3554 C   0  0  0  0  0  0  0  0  0  0  0  0
  -28.0026  -31.1307   19.5699 C   0  0  0  0  0  0  0  0  0  0  0  0
  -21.7211  -29.0885   24.6647 C   0  0  0  0  0  0  0  0  0  0  0  0
  -24.7570  -13.0045   21.0491 C   0  0  0  0  0  0  0  0  0  0  0  0
  -27.9348  -13.6486   20.9525 C   0  0  0  0  0  0  0  0  0  0  0  0
  -30.4167  -15.9909   20.9273 C   0  0  0  0  0  0  0  0  0  0  0  0
  -23.4523   -8.0720   20.8896 C   0  0  0  0  0  0  0  0  0  0  0  0
  -24.8764  -14.6663   19.1570 C   0  0  0  0  0  0  0  0  0  0  0  0
  -26.4091  -15.5773   21.5162 C   0  0  0  0  0  0  0  0  0  0  0  0
  -24.6188   -8.8749   21.4597 C   0  0  0  0  0  0  0  0  0  0  0  0
  -24.4107  -31.1708   25.7990 C   0  0  0  0  0  0  0  0  0  0  0  0
  -24.1051  -10.0607   22.2701 C   0  0  0  0  0  0  0  0  0  0  0  0
  -25.4719  -30.9999   24.7126 C   0  0  0  0  0  0  0  0  0  0  0  0
  -23.6212  -29.8839   26.0157 C   0  0  0  0  0  0  0  0  0  0  0  0
  -24.0497  -29.1739   23.6789 C   0  0  0  0  0  0  0  0  0  0  0  0
  -23.2949  -11.0205   21.3906 C   0  0  1  0  0  0  0  0  0  0  0  0
  -25.6405  -13.6888   20.0447 C   0  0  1  0  0  0  0  0  0  0  0  0
  -24.8492  -30.4612   23.4123 C   0  0  2  0  0  0  0  0  0  0  0  0
  -32.9160  -16.2123   20.8828 C   0  0  0  0  0  0  0  0  0  0  0  0
  -28.0529  -12.8808   23.9031 C   0  0  0  0  0  0  0  0  0  0  0  0
  -30.2857  -14.0059   24.0347 C   0  0  0  0  0  0  0  0  0  0  0  0
  -29.9672  -12.0423   22.5295 C   0  0  0  0  0  0  0  0  0  0  0  0
  -30.3572  -17.4555   18.3562 C   0  0  0  0  0  0  0  0  0  0  0  0
  -19.0802  -22.8246   21.6550 C   0  0  0  0  0  0  0  0  0  0  0  0
  -18.5184  -28.3311   22.3504 C   0  0  0  0  0  0  0  0  0  0  0  0
  -24.2865  -21.7290   22.3694 C   0  0  0  0  0  0  0  0  0  0  0  0
  -22.9999  -22.0478   23.1229 C   0  0  0  0  0  0  0  0  0  0  0  0
  -24.5872  -20.2361   22.3777 C   0  0  0  0  0  0  0  0  0  1  0  0
  -22.7213  -23.5439   23.1517 C   0  0  0  0  0  0  0  0  0  0  0  0
  -28.9307  -14.2625   21.9065 C   0  0  1  0  0  0  0  0  0  0  0  0
  -31.6454  -16.1471   20.0496 C   0  0  2  0  0  0  0  0  0  0  0  0
  -29.2862  -13.3122   23.0847 C   0  0  0  0  0  0  0  0  0  0  0  0
  -26.4805  -29.0632   22.2011 N   0  0  0  0  0  0  0  0  0  0  0  0
  -21.4324  -29.3854   22.3437 N   0  0  0  0  0  0  0  0  0  0  0  0
  -25.8921  -30.2648   22.3275 N   0  0  0  0  0  0  0  0  0  0  0  0
  -23.0747  -29.3808   24.7571 N   0  0  0  0  0  0  0  0  0  0  0  0
  -26.7210  -14.3324   20.7947 N   0  0  0  0  0  0  0  0  0  0  0  0
  -25.8411  -32.4488   21.4118 N   0  0  0  0  0  0  0  0  0  0  0  0
  -28.9283  -30.3314   18.8854 N   0  0  0  0  0  0  0  0  0  0  0  0
  -24.1786  -11.8377   20.5871 N   0  0  0  0  0  0  0  0  0  0  0  0
  -30.0759  -14.6657   21.0976 N   0  0  0  0  0  0  0  0  0  0  0  0
  -31.5491  -17.3953   19.2410 N   0  3  0  0  0  0  0  0  0  0  0  0
  -27.8550  -32.3287   19.2285 O   0  0  0  0  0  0  0  0  0  0  0  0
  -20.8622  -29.1946   25.5304 O   0  0  0  0  0  0  0  0  0  0  0  0
  -24.6121  -13.4978   22.1615 O   0  0  0  0  0  0  0  0  0  0  0  0
  -28.2261  -12.6048   20.3633 O   0  0  0  0  0  0  0  0  0  0  0  0
  -29.8212  -16.9484   21.4162 O   0  0  0  0  0  0  0  0  0  0  0  0
  -30.5481  -25.0283   19.4221 O   0  0  0  0  0  0  0  0  0  0  0  0
  -18.9057  -23.5078   22.8948 O   0  0  0  0  0  0  0  0  0  0  0  0
  -23.5277  -19.5252   21.7385 O   0  0  0  0  0  0  0  0  0  1  0  0
  -21.5063  -23.7718   23.8525 O   0  0  0  0  0  0  0  0  0  0  0  0
  -28.2041  -20.0698   18.8539 F   0  0  0  0  0  0  0  0  0  0  0  0
  -30.5086  -23.7506   16.9708 F   0  0  0  0  0  0  0  0  0  0  0  0
  1  2  1  0  0  0  0
  1  5  2  0  0  0  0
  2  6  2  0  0  0  0
  3  8  2  0  0  0  0
  3 17  1  0  0  0  0
  4  9  1  0  0  0  0
  4 17  2  0  0  0  0
  5 20  1  0  0  0  0
  6 22  1  0  0  0  0
  7 10  2  0  0  0  0
  7 21  1  0  0  0  0
  8 25  1  0  0  0  0
  9 25  2  0  0  0  0
 10 26  1  0  0  0  0
 11 12  2  0  0  0  0
 11 27  1  0  0  0  0
 12 30  1  0  0  0  0
 13 18  1  0  0  0  0
 13 28  2  0  0  0  0
 14 23  1  0  0  0  0
 14 26  2  0  0  0  0
 15 24  1  0  0  0  0
 15 29  2  0  0  0  0
 16 30  2  0  0  0  0
 16 31  1  0  0  0  0
 17 32  1  0  0  0  0
 18 24  2  0  0  0  0
 18 36  1  0  0  0  0
 19 32  1  0  0  0  0
 19 33  2  0  0  0  0
 19 37  1  0  0  0  0
 20 22  2  0  0  0  0
 20 42  1  0  0  0  0
 21 23  2  0  0  0  0
 21 43  1  0  0  0  0
 22 51  1  0  0  0  0
 23 44  1  0  0  0  0
 24 60  1  0  0  0  0
 25 83  1  0  0  0  0
 26 85  1  0  0  0  0
 27 31  2  0  0  0  0
 27 83  1  0  0  0  0
 28 29  1  0  0  0  0
 28 86  1  0  0  0  0
 29 84  1  0  0  0  0
 30 87  1  0  0  0  0
 31 88  1  0  0  0  0
 32 68  2  0  0  0  0
 33 70  1  0  0  0  0
 33 73  1  0  0  0  0
 34 35  2  0  0  0  0
 35 60  1  0  0  0  0
 36 38  1  0  0  0  0
 36 69  2  0  0  0  0
 37 74  1  0  0  0  0
 37 78  2  0  0  0  0
 38 71  1  0  0  0  0
 38 79  2  0  0  0  0
 39 52  1  0  0  0  0
 39 75  1  0  0  0  0
 39 80  2  0  0  0  0
 40 65  1  0  0  0  0
 40 72  1  0  0  0  0
 40 81  2  0  0  0  0
 41 66  1  0  0  0  0
 41 76  1  0  0  0  0
 41 82  2  0  0  0  0
 42 45  1  0  0  0  0
 43 52  1  0  0  0  0
 44 72  1  0  0  0  0
 45 47  1  0  0  0  0
 46 48  1  0  0  0  0
 46 49  1  0  0  0  0
 47 51  1  0  0  0  0
 48 53  1  0  0  0  0
 49 71  1  0  0  0  0
 50 53  1  0  0  0  0
 50 71  1  0  0  0  0
 51 75  1  0  0  0  0
 52 72  1  0  0  0  0
 53 70  1  0  0  0  0
 54 66  1  0  0  0  0
 55 67  1  0  0  0  0
 56 67  1  0  0  0  0
 57 67  1  0  0  0  0
 58 77  1  0  0  0  0
 59 84  1  0  0  0  0
 61 62  1  0  0  0  0
 61 63  1  0  0  0  0
 62 64  1  0  0  0  0
 63 85  1  0  0  0  0
 64 86  1  0  0  0  0
 65 67  1  0  0  0  0
 65 76  1  0  0  0  0
 66 77  1  0  0  0  0
 68 70  1  0  0  0  0
M  CHG  1  77   1
M  ISO  4  36 100  38 100  63 101  85 101
M  END
> <Batch ID>
0114

> <Smiles>
C=CCc1cc(OC)c(OCCC[101CH2:1][101O:1]c2ccc3c(c2)CN(C(=O)C(NC(=O)C(C)NC)C(C)(C)C)C(C(=O)NC2CCCc4ccccc42)C3)cc1[100C:0](=N)[100C:0](=O)N1CCCC(n2nc(-c3ccc(Oc4ccc(F)cc4F)cc3)c(C(N)=O)c2N)C1

> <Shape>
0.331

> <Color>
0.052

> <Negative vol penalty>
0.000

$$$$

  -OEChem-04052301373D

 81 89  0     1  0  0  0  0  0999 V2000
  -28.8404  -28.9083   27.4242 C   0  0  0  0  0  0  0  0  0  0  0  0
  -28.5659  -28.2104   26.2525 C   0  0  0  0  0  0  0  0  0  0  0  0
  -24.6524   -9.0598   21.8140 C   0  0  0  0  0  0  0  0  0  0  0  0
  -22.9765  -10.1392   20.4490 C   0  0  0  0  0  0  0  0  0  0  0  0
  -27.8367  -29.6532   28.0420 C   0  0  0  0  0  0  0  0  0  0  0  0
  -27.2871  -28.2560   25.6985 C   0  0  0  0  0  0  0  0  0  0  0  0
  -27.3660  -28.9678   20.6853 C   0  0  0  0  0  0  0  0  0  0  0  0
  -23.6481   -8.4324   22.5510 C   0  0  0  0  0  0  0  0  0  0  0  0
  -21.9721   -9.5118   21.1860 C   0  0  0  0  0  0  0  0  0  0  0  0
  -27.6634  -27.8621   19.8898 C   0  0  0  0  0  0  0  0  0  0  0  0
  -21.5841   -5.7782   22.1933 C   0  0  0  0  0  0  0  0  0  0  0  0
  -21.7378   -4.4206   22.4740 C   0  0  0  0  0  0  0  0  0  0  0  0
  -25.3127  -27.5626   19.4381 C   0  0  0  0  0  0  0  0  0  0  0  0
  -21.6854   -4.9040   24.8406 C   0  0  0  0  0  0  0  0  0  0  0  0
  -24.3166   -9.9132   20.7629 C   0  0  0  0  0  0  0  0  0  0  0  0
  -25.9862  -10.0771   18.8411 C   0  0  0  0  0  0  0  0  0  0  0  0
  -26.5475  -29.7158   27.4901 C   0  0  0  0  0  0  0  0  0  0  0  0
  -26.0367  -29.3733   20.8723 C   0  0  0  0  0  0  0  0  0  0  0  0
  -26.2648  -29.0013   26.3102 C   0  0  0  0  0  0  0  0  0  0  0  0
  -25.0014  -28.6753   20.2344 C   0  0  0  0  0  0  0  0  0  0  0  0
  -22.3079   -8.6584   22.2371 C   0  0  0  0  0  0  0  0  0  0  0  0
  -26.6365  -27.1576   19.2684 C   0  0  0  0  0  0  0  0  0  0  0  0
  -21.4810   -6.6988   23.2363 C   0  0  0  0  0  0  0  0  0  0  0  0
  -21.7885   -3.9835   23.7977 C   0  0  0  0  0  0  0  0  0  0  0  0
  -21.5316   -6.2616   24.5599 C   0  0  0  0  0  0  0  0  0  0  0  0
  -25.3536  -10.5620   20.0015 C   0  0  0  0  0  0  0  0  0  0  0  0
  -26.8884  -11.0572   18.5068 C   0  0  0  0  0  0  0  0  0  0  0  0
  -27.3503  -18.9643   17.7462 C   0  0  0  0  0  0  0  0  0  0  0  0
  -27.7380  -20.4478   19.6068 C   0  0  0  0  0  0  0  0  0  0  0  0
  -27.5433  -19.1313   19.0601 C   0  0  0  0  0  0  0  0  0  0  0  0
  -27.7233  -21.5039   18.7843 C   0  0  0  0  0  0  0  0  0  0  0  0
  -27.3332  -20.1277   16.8350 C   0  0  0  0  0  0  0  0  0  0  0  0
  -27.9065  -22.8598   19.2174 C   0  0  0  0  0  0  0  0  0  0  0  0
  -27.8895  -23.9104   18.3854 C   0  0  0  0  0  0  0  0  0  0  0  0
  -25.7767   -8.8504   18.1290 C   0  0  0  0  0  0  0  0  0  0  0  0
  -24.1025  -29.6329   23.3813 C   0  0  0  0  0  0  0  0  0  0  0  0
  -22.1000  -30.9695   21.2074 C   0  0  0  0  0  0  0  0  0  0  0  0
  -21.1672  -31.2895   17.9403 C   0  0  0  0  0  0  0  0  0  0  0  0
  -26.8379  -16.8973   19.7066 C   0  0  0  0  0  0  0  0  0  0  0  0
  -25.4826  -30.4958   28.2195 C   0  0  0  0  0  0  0  0  0  0  0  0
  -25.7346  -30.5842   21.7118 C   0  0  0  0  0  0  0  0  0  0  0  0
  -23.5592  -29.0821   20.3867 C   0  0  0  0  0  0  0  0  0  0  0  0
  -24.2539  -30.7955   27.3647 C   0  0  0  0  0  0  0  0  0  0  0  0
  -29.5648  -14.5064   20.4182 C   0  0  0  0  0  0  0  0  0  0  0  0
  -23.8038  -29.5430   26.6193 C   0  0  0  0  0  0  0  0  0  0  0  0
  -28.8187  -13.1782   20.3361 C   0  0  0  0  0  0  0  0  0  0  0  0
  -28.6829  -15.6269   20.9678 C   0  0  0  0  0  0  0  0  0  0  0  0
  -26.6560  -14.4659   20.1391 C   0  0  0  0  0  0  0  0  0  0  0  0
  -24.8966  -29.0462   25.6652 C   0  0  1  0  0  0  0  0  0  0  0  0
  -24.3065  -30.5983   22.2482 C   0  0  1  0  0  0  0  0  0  0  0  0
  -27.5131  -13.3386   19.5429 C   0  0  2  0  0  0  0  0  0  0  0  0
  -19.4711  -32.4216   16.4778 C   0  0  0  0  0  0  0  0  0  0  0  0
  -19.9908  -28.9514   22.0954 C   0  0  0  0  0  0  0  0  0  0  0  0
  -18.7074  -29.4810   20.0121 C   0  0  0  0  0  0  0  0  0  0  0  0
  -19.1230  -31.2644   21.7061 C   0  0  0  0  0  0  0  0  0  0  0  0
  -23.2596  -32.7727   16.4635 C   0  0  0  0  0  0  0  0  0  0  0  0
  -28.0853  -25.3224   18.8340 C   0  0  0  0  0  0  0  0  0  1  0  0
  -21.0374  -30.4482   20.2705 C   0  0  1  0  0  0  0  0  0  0  0  0
  -20.8574  -32.5127   17.0964 C   0  0  2  0  0  0  0  0  0  0  0  0
  -19.7416  -30.0272   21.0195 C   0  0  0  0  0  0  0  0  0  0  0  0
  -25.8151  -11.7572   20.3792 N   0  0  0  0  0  0  0  0  0  0  0  0
  -26.7473  -12.0315   19.4508 N   0  0  0  0  0  0  0  0  0  0  0  0
  -23.3144  -30.2689   21.2228 N   0  0  0  0  0  0  0  0  0  0  0  0
  -27.4095  -15.7228   20.2359 N   0  0  0  0  0  0  0  0  0  0  0  0
  -27.7810  -11.1720   17.5005 N   0  0  0  0  0  0  0  0  0  0  0  0
  -24.8106   -7.9557   18.6090 N   0  0  0  0  0  0  0  0  0  0  0  0
  -27.5619  -18.0676   19.9179 N   0  0  0  0  0  0  0  0  0  0  0  0
  -24.9279  -29.8568   24.4667 N   0  0  0  0  0  0  0  0  0  0  0  0
  -20.8358  -31.4852   19.2643 N   0  0  0  0  0  0  0  0  0  0  0  0
  -21.8544  -32.6498   15.9972 N   0  3  0  0  0  0  0  0  0  0  0  0
  -27.1558  -19.9763   15.6306 O   0  0  0  0  0  0  0  0  0  0  0  0
  -26.4386   -8.5491   17.1069 O   0  0  0  0  0  0  0  0  0  0  0  0
  -23.2577  -28.7511   23.2791 O   0  0  0  0  0  0  0  0  0  0  0  0
  -21.8639  -31.9661   21.8950 O   0  0  0  0  0  0  0  0  0  0  0  0
  -21.6511  -30.2617   17.4712 O   0  0  0  0  0  0  0  0  0  0  0  0
  -25.7596  -16.8945   19.1017 O   0  0  0  0  0  0  0  0  0  0  0  0
  -27.5218  -21.3637   17.3927 O   0  0  0  0  0  0  0  0  0  0  0  0
  -21.3276   -8.0462   22.9560 O   0  0  0  0  0  0  0  0  0  0  0  0
  -26.9239  -26.0776   18.4919 O   0  0  0  0  0  0  0  0  0  1  0  0
  -21.9346   -2.6795   24.0671 F   0  0  0  0  0  0  0  0  0  0  0  0
  -21.4320   -7.1411   25.5661 F   0  0  0  0  0  0  0  0  0  0  0  0
  1  2  1  0  0  0  0
  1  5  2  0  0  0  0
  2  6  2  0  0  0  0
  3  8  2  0  0  0  0
  3 15  1  0  0  0  0
  4  9  1  0  0  0  0
  4 15  2  0  0  0  0
  5 17  1  0  0  0  0
  6 19  1  0  0  0  0
  7 10  2  0  0  0  0
  7 18  1  0  0  0  0
  8 21  1  0  0  0  0
  9 21  2  0  0  0  0
 10 22  1  0  0  0  0
 11 12  2  0  0  0  0
 11 23  1  0  0  0  0
 12 24  1  0  0  0  0
 13 20  1  0  0  0  0
 13 22  2  0  0  0  0
 14 24  2  0  0  0  0
 14 25  1  0  0  0  0
 15 26  1  0  0  0  0
 16 26  1  0  0  0  0
 16 27  2  0  0  0  0
 16 35  1  0  0  0  0
 17 19  2  0  0  0  0
 17 40  1  0  0  0  0
 18 20  2  0  0  0  0
 18 41  1  0  0  0  0
 19 49  1  0  0  0  0
 20 42  1  0  0  0  0
 21 78  1  0  0  0  0
 22 79  1  0  0  0  0
 23 25  2  0  0  0  0
 23 78  1  0  0  0  0
 24 80  1  0  0  0  0
 25 81  1  0  0  0  0
 26 61  2  0  0  0  0
 27 62  1  0  0  0  0
 27 65  1  0  0  0  0
 28 30  2  0  0  0  0
 28 32  1  0  0  0  0
 29 30  1  0  0  0  0
 29 31  2  0  0  0  0
 30 67  1  0  0  0  0
 31 33  1  0  0  0  0
 31 77  1  0  0  0  0
 32 71  2  0  0  0  0
 32 77  1  0  0  0  0
 33 34  2  0  0  0  0
 34 57  1  0  0  0  0
 35 66  1  0  0  0  0
 35 72  2  0  0  0  0
 36 50  1  0  0  0  0
 36 68  1  0  0  0  0
 36 73  2  0  0  0  0
 37 58  1  0  0  0  0
 37 63  1  0  0  0  0
 37 74  2  0  0  0  0
 38 59  1  0  0  0  0
 38 69  1  0  0  0  0
 38 75  2  0  0  0  0
 39 64  1  0  0  0  0
 39 67  1  0  0  0  0
 39 76  2  0  0  0  0
 40 43  1  0  0  0  0
 41 50  1  0  0  0  0
 42 63  1  0  0  0  0
 43 45  1  0  0  0  0
 44 46  1  0  0  0  0
 44 47  1  0  0  0  0
 45 49  1  0  0  0  0
 46 51  1  0  0  0  0
 47 64  1  0  0  0  0
 48 51  1  0  0  0  0
 48 64  1  0  0  0  0
 49 68  1  0  0  0  0
 50 63  1  0  0  0  0
 51 62  1  0  0  0  0
 52 59  1  0  0  0  0
 53 60  1  0  0  0  0
 54 60  1  0  0  0  0
 55 60  1  0  0  0  0
 56 70  1  0  0  0  0
 57 79  1  0  0  0  0
 58 60  1  0  0  0  0
 58 69  1  0  0  0  0
 59 70  1  0  0  0  0
 61 62  1  0  0  0  0
M  CHG  1  70   1
M  ISO  4  39 100  57 101  67 100  79 101
M  END
> <Batch ID>
0114

> <Smiles>
CNC(C)C(=O)NC(C(=O)N1Cc2cc([101O:1][101CH2:1]C=Cc3cc([100NH:0][100C:0](=O)N4CCCC(n5nc(-c6ccc(Oc7ccc(F)cc7F)cc6)c(C(N)=O)c5N)C4)cc(=O)o3)ccc2CC1C(=O)NC1CCCc2ccccc21)C(C)(C)C

> <Shape>
0.258

> <Color>
0.114

> <Negative vol penalty>
0.000

$$$$

  -OEChem-04052301373D

 82 90  0     1  0  0  0  0  0999 V2000
  -26.0606  -31.8667   24.0324 C   0  0  0  0  0  0  0  0  0  0  0  0
  -26.8549  -30.7462   24.2535 C   0  0  0  0  0  0  0  0  0  0  0  0
  -21.9108  -22.8507   20.2756 C   0  0  0  0  0  0  0  0  0  0  0  0
  -20.7107  -22.8263   22.3723 C   0  0  0  0  0  0  0  0  0  0  0  0
  -25.0839  -31.8422   23.0377 C   0  0  0  0  0  0  0  0  0  0  0  0
  -26.6723  -29.6000   23.4806 C   0  0  0  0  0  0  0  0  0  0  0  0
  -30.3334  -24.1274   20.6587 C   0  0  0  0  0  0  0  0  0  0  0  0
  -21.2572  -24.0291   19.9152 C   0  0  0  0  0  0  0  0  0  0  0  0
  -20.0571  -24.0047   22.0119 C   0  0  0  0  0  0  0  0  0  0  0  0
  -30.3148  -22.7345   20.6016 C   0  0  0  0  0  0  0  0  0  0  0  0
  -20.7499  -27.3114   21.9333 C   0  0  0  0  0  0  0  0  0  0  0  0
  -20.6520  -28.3167   22.8953 C   0  0  0  0  0  0  0  0  0  0  0  0
  -28.6503  -22.8343   18.8584 C   0  0  0  0  0  0  0  0  0  0  0  0
  -18.2421  -28.2082   22.7636 C   0  0  0  0  0  0  0  0  0  0  0  0
  -21.6375  -22.2493   21.5042 C   0  0  0  0  0  0  0  0  0  0  0  0
  -23.5299  -20.9134   22.5728 C   0  0  0  0  0  0  0  0  0  0  0  0
  -24.8957  -30.6985   22.2458 C   0  0  0  0  0  0  0  0  0  0  0  0
  -29.5013  -24.8853   19.8223 C   0  0  0  0  0  0  0  0  0  0  0  0
  -25.6913  -29.5597   22.4753 C   0  0  0  0  0  0  0  0  0  0  0  0
  -28.6621  -24.2367   18.9051 C   0  0  0  0  0  0  0  0  0  0  0  0
  -20.3304  -24.6061   20.7833 C   0  0  0  0  0  0  0  0  0  0  0  0
  -29.4710  -22.0877   19.7034 C   0  0  0  0  0  0  0  0  0  0  0  0
  -19.5938  -26.7546   21.3864 C   0  0  0  0  0  0  0  0  0  0  0  0
  -19.3982  -28.7651   23.3104 C   0  0  0  0  0  0  0  0  0  0  0  0
  -18.3399  -27.2029   21.8016 C   0  0  0  0  0  0  0  0  0  0  0  0
  -22.3119  -21.0318   21.8768 C   0  0  0  0  0  0  0  0  0  0  0  0
  -27.5140  -14.6959   20.7673 C   0  0  0  0  0  0  0  0  0  0  0  0
  -28.7437  -14.0894   20.8350 C   0  0  0  0  0  0  0  0  0  0  0  0
  -23.7361  -19.5594   22.6761 C   0  0  0  0  0  0  0  0  0  0  0  0
  -28.9643  -16.2172   20.8387 C   0  0  0  0  0  0  0  0  0  0  0  0
  -29.6362  -17.5271   20.8694 C   0  0  0  0  0  0  0  0  0  0  0  0
  -29.0156  -18.7166   20.8320 C   0  0  0  0  0  0  0  0  0  0  0  0
  -24.3972  -21.9360   23.0806 C   0  0  0  0  0  0  0  0  0  0  0  0
  -26.1894  -14.0268   20.6993 C   0  0  0  0  0  0  0  0  0  0  0  0
  -27.1302  -26.9497   20.2911 C   0  0  0  0  0  0  0  0  0  0  0  0
  -27.3423  -27.3257   17.0762 C   0  0  0  0  0  0  0  0  0  0  0  0
  -28.2742  -26.0240   14.0622 C   0  0  0  0  0  0  0  0  0  0  0  0
  -23.7583  -14.4542   20.5233 C   0  0  0  0  0  0  0  0  0  0  0  0
  -23.7955  -30.7028   21.2142 C   0  0  0  0  0  0  0  0  0  0  0  0
  -29.5527  -26.3875   19.8774 C   0  0  0  0  0  0  0  0  0  0  0  0
  -27.7641  -25.0048   17.9712 C   0  0  0  0  0  0  0  0  0  0  0  0
  -23.9179  -29.5789   20.1884 C   0  0  0  0  0  0  0  0  0  0  0  0
  -20.6484  -15.6688   21.6851 C   0  0  0  0  0  0  0  0  0  0  0  0
  -24.2085  -28.2520   20.8825 C   0  0  0  0  0  0  0  0  0  0  0  0
  -20.9033  -17.1625   21.9046 C   0  0  0  0  0  0  0  0  0  0  0  0
  -21.3783  -15.1441   20.4495 C   0  0  0  0  0  0  0  0  0  0  0  0
  -23.0674  -16.9261   20.6221 C   0  0  0  0  0  0  0  0  0  0  0  0
  -25.5400  -28.3061   21.6411 C   0  0  1  0  0  0  0  0  0  0  0  0
  -28.2880  -27.0489   19.3386 C   0  0  1  0  0  0  0  0  0  0  0  0
  -22.4107  -17.4866   21.8940 C   0  0  1  0  0  0  0  0  0  0  0  0
  -29.2174  -12.7011   20.8654 C   0  0  0  0  0  0  0  0  0  0  0  0
  -28.2870  -26.5499   11.6085 C   0  0  0  0  0  0  0  0  0  0  0  0
  -24.3537  -26.7269   16.9347 C   0  0  0  0  0  0  0  0  0  0  0  0
  -24.6207  -26.3287   14.4774 C   0  0  0  0  0  0  0  0  0  0  0  0
  -25.1191  -28.5770   15.4361 C   0  0  0  0  0  0  0  0  0  0  0  0
  -31.2271  -25.8773   13.9279 C   0  0  0  0  0  0  0  0  0  0  0  0
  -29.7427  -20.0228   20.8516 C   0  0  0  0  0  0  0  0  0  1  0  0
  -26.7085  -26.6612   15.8780 C   0  0  1  0  0  0  0  0  0  0  0  0
  -29.0682  -26.6157   12.9116 C   0  0  2  0  0  0  0  0  0  0  0  0
  -25.2159  -27.0586   15.7004 C   0  0  0  0  0  0  0  0  0  0  0  0
  -21.7818  -19.8474   21.5602 N   0  0  0  0  0  0  0  0  0  0  0  0
  -27.6618  -16.0594   20.7702 N   0  0  0  0  0  0  0  0  0  0  0  0
  -22.6709  -18.9720   22.0594 N   0  0  0  0  0  0  0  0  0  0  0  0
  -27.8459  -26.4716   18.0676 N   0  0  0  0  0  0  0  0  0  0  0  0
  -22.8007  -15.4834   20.5209 N   0  0  0  0  0  0  0  0  0  0  0  0
  -24.7230  -18.8260   23.2333 N   0  0  0  0  0  0  0  0  0  0  0  0
  -24.0347  -23.2760   22.8879 N   0  0  0  0  0  0  0  0  0  0  0  0
  -25.0866  -14.8792   20.6374 N   0  0  0  0  0  0  0  0  0  0  0  0
  -26.6506  -28.1716   20.7229 N   0  0  0  0  0  0  0  0  0  0  0  0
  -27.5540  -26.9884   14.7350 N   0  0  0  0  0  0  0  0  0  0  0  0
  -30.3482  -25.8742   12.7302 N   0  3  0  0  0  0  0  0  0  0  0  0
  -25.4703  -21.6694   23.6730 O   0  0  0  0  0  0  0  0  0  0  0  0
  -26.1401  -12.8004   20.6620 O   0  0  0  0  0  0  0  0  0  0  0  0
  -26.7026  -25.8463   20.6095 O   0  0  0  0  0  0  0  0  0  0  0  0
  -27.3952  -28.5570   17.1272 O   0  0  0  0  0  0  0  0  0  0  0  0
  -28.2883  -24.8256   14.3345 O   0  0  0  0  0  0  0  0  0  0  0  0
  -23.4552  -13.2582   20.4673 O   0  0  0  0  0  0  0  0  0  0  0  0
  -29.6911  -15.0671   20.8817 O   0  0  0  0  0  0  0  0  0  0  0  0
  -19.6926  -25.7560   20.4320 O   0  0  0  0  0  0  0  0  0  0  0  0
  -29.4504  -20.7282   19.6460 O   0  0  0  0  0  0  0  0  0  1  0  0
  -19.3043  -29.7294   24.2354 F   0  0  0  0  0  0  0  0  0  0  0  0
  -17.2257  -26.6709   21.2806 F   0  0  0  0  0  0  0  0  0  0  0  0
  1  2  1  0  0  0  0
  1  5  2  0  0  0  0
  2  6  2  0  0  0  0
  3  8  2  0  0  0  0
  3 15  1  0  0  0  0
  4  9  1  0  0  0  0
  4 15  2  0  0  0  0
  5 17  1  0  0  0  0
  6 19  1  0  0  0  0
  7 10  2  0  0  0  0
  7 18  1  0  0  0  0
  8 21  1  0  0  0  0
  9 21  2  0  0  0  0
 10 22  1  0  0  0  0
 11 12  2  0  0  0  0
 11 23  1  0  0  0  0
 12 24  1  0  0  0  0
 13 20  1  0  0  0  0
 13 22  2  0  0  0  0
 14 24  2  0  0  0  0
 14 25  1  0  0  0  0
 15 26  1  0  0  0  0
 16 26  1  0  0  0  0
 16 29  2  0  0  0  0
 16 33  1  0  0  0  0
 17 19  2  0  0  0  0
 17 39  1  0  0  0  0
 18 20  2  0  0  0  0
 18 40  1  0  0  0  0
 19 48  1  0  0  0  0
 20 41  1  0  0  0  0
 21 79  1  0  0  0  0
 22 80  1  0  0  0  0
 23 25  2  0  0  0  0
 23 79  1  0  0  0  0
 24 81  1  0  0  0  0
 25 82  1  0  0  0  0
 26 61  2  0  0  0  0
 27 28  2  0  0  0  0
 27 34  1  0  0  0  0
 27 62  1  0  0  0  0
 28 51  1  0  0  0  0
 28 78  1  0  0  0  0
 29 63  1  0  0  0  0
 29 66  1  0  0  0  0
 30 31  1  0  0  0  0
 30 62  2  0  0  0  0
 30 78  1  0  0  0  0
 31 32  2  0  0  0  0
 32 57  1  0  0  0  0
 33 67  1  0  0  0  0
 33 72  2  0  0  0  0
 34 68  1  0  0  0  0
 34 73  2  0  0  0  0
 35 49  1  0  0  0  0
 35 69  1  0  0  0  0
 35 74  2  0  0  0  0
 36 58  1  0  0  0  0
 36 64  1  0  0  0  0
 36 75  2  0  0  0  0
 37 59  1  0  0  0  0
 37 70  1  0  0  0  0
 37 76  2  0  0  0  0
 38 65  1  0  0  0  0
 38 68  1  0  0  0  0
 38 77  2  0  0  0  0
 39 42  1  0  0  0  0
 40 49  1  0  0  0  0
 41 64  1  0  0  0  0
 42 44  1  0  0  0  0
 43 45  1  0  0  0  0
 43 46  1  0  0  0  0
 44 48  1  0  0  0  0
 45 50  1  0  0  0  0
 46 65  1  0  0  0  0
 47 50  1  0  0  0  0
 47 65  1  0  0  0  0
 48 69  1  0  0  0  0
 49 64  1  0  0  0  0
 50 63  1  0  0  0  0
 52 59  1  0  0  0  0
 53 60  1  0  0  0  0
 54 60  1  0  0  0  0
 55 60  1  0  0  0  0
 56 71  1  0  0  0  0
 57 80  1  0  0  0  0
 58 60  1  0  0  0  0
 58 70  1  0  0  0  0
 59 71  1  0  0  0  0
 61 63  1  0  0  0  0
M  CHG  1  71   1
M  ISO  4  38 100  57 101  68 100  80 101
M  END
> <Batch ID>
0114

> <Smiles>
CNC(C)C(=O)NC(C(=O)N1Cc2cc([101O:1][101CH2:1]C=Cc3nc(C(=O)[100NH:0][100C:0](=O)N4CCCC(n5nc(-c6ccc(Oc7ccc(F)cc7F)cc6)c(C(N)=O)c5N)C4)c(C)o3)ccc2CC1C(=O)NC1CCCc2ccccc21)C(C)(C)C

> <Shape>
0.247

> <Color>
0.066

> <Negative vol penalty>
0.000

$$$$

  -OEChem-04052301373D

 83 91  0     1  0  0  0  0  0999 V2000
  -28.0940  -29.3592   21.1390 C   0  0  0  0  0  0  0  0  0  0  0  0
  -27.1718  -28.3398   20.9252 C   0  0  0  0  0  0  0  0  0  0  0  0
  -21.5086  -23.0682   24.1047 C   0  0  0  0  0  0  0  0  0  0  0  0
  -20.8164  -21.7765   22.1838 C   0  0  0  0  0  0  0  0  0  0  0  0
  -29.4078  -29.2134   20.6957 C   0  0  0  0  0  0  0  0  0  0  0  0
  -27.5626  -27.1744   20.2668 C   0  0  0  0  0  0  0  0  0  0  0  0
  -25.5534  -21.4896   21.3400 C   0  0  0  0  0  0  0  0  0  0  0  0
  -21.3054  -24.2461   23.3858 C   0  0  0  0  0  0  0  0  0  0  0  0
  -20.6132  -22.9545   21.4649 C   0  0  0  0  0  0  0  0  0  0  0  0
  -24.5915  -20.7003   20.7110 C   0  0  0  0  0  0  0  0  0  0  0  0
  -20.6239  -27.6047   22.1732 C   0  0  0  0  0  0  0  0  0  0  0  0
  -19.9541  -28.6476   22.8130 C   0  0  0  0  0  0  0  0  0  0  0  0
  -26.3215  -19.6465   19.4011 C   0  0  0  0  0  0  0  0  0  0  0  0
  -26.1225  -13.4932   21.6969 C   0  0  0  0  0  0  0  0  0  0  0  0
  -24.2049  -13.2360   19.6871 C   0  0  0  0  0  0  0  0  0  0  0  0
  -18.0215  -27.2273   23.1047 C   0  0  0  0  0  0  0  0  0  0  0  0
  -21.2641  -21.8334   23.5036 C   0  0  0  0  0  0  0  0  0  0  0  0
  -20.5359  -19.9335   25.0425 C   0  0  0  0  0  0  0  0  0  0  0  0
  -29.8174  -28.0416   20.0402 C   0  0  0  0  0  0  0  0  0  0  0  0
  -26.9076  -21.3707   20.9959 C   0  0  0  0  0  0  0  0  0  0  0  0
  -28.8828  -27.0133   19.8131 C   0  0  0  0  0  0  0  0  0  0  0  0
  -27.2989  -20.4336   20.0291 C   0  0  0  0  0  0  0  0  0  0  0  0
  -26.1784  -12.4152   20.8136 C   0  0  0  0  0  0  0  0  0  0  0  0
  -24.1491  -14.3140   20.5705 C   0  0  0  0  0  0  0  0  0  0  0  0
  -25.1078  -14.4426   21.5754 C   0  0  0  0  0  0  0  0  0  0  0  0
  -25.2196  -12.2865   19.8086 C   0  0  0  0  0  0  0  0  0  0  0  0
  -20.8577  -24.1893   22.0660 C   0  0  0  0  0  0  0  0  0  0  0  0
  -24.9751  -19.7806   19.7394 C   0  0  0  0  0  0  0  0  0  0  0  0
  -19.9925  -26.3732   21.9990 C   0  0  0  0  0  0  0  0  0  0  0  0
  -18.6530  -28.4589   23.2788 C   0  0  0  0  0  0  0  0  0  0  0  0
  -18.6914  -26.1845   22.4648 C   0  0  0  0  0  0  0  0  0  0  0  0
  -21.4743  -20.6162   24.2455 C   0  0  0  0  0  0  0  0  0  0  0  0
  -21.2220  -18.8461   25.5254 C   0  0  0  0  0  0  0  0  0  0  0  0
  -23.3765  -16.2605   19.6544 C   0  0  0  0  0  0  0  0  0  0  0  0
  -19.1664  -20.2537   25.3212 C   0  0  0  0  0  0  0  0  0  0  0  0
  -29.0868  -23.3244   19.7558 C   0  0  0  0  0  0  0  0  0  0  0  0
  -31.0874  -20.8429   20.3571 C   0  0  0  0  0  0  0  0  0  0  0  0
  -31.4768  -17.4875   20.8434 C   0  0  0  0  0  0  0  0  0  0  0  0
  -25.9524  -15.7886   23.5302 C   0  0  0  0  0  0  0  0  0  0  0  0
  -31.2363  -27.9493   19.5372 C   0  0  0  0  0  0  0  0  0  0  0  0
  -27.9359  -22.2105   21.7028 C   0  0  0  0  0  0  0  0  0  0  0  0
  -28.7421  -20.2530   19.6381 C   0  0  0  0  0  0  0  0  0  0  0  0
  -31.6647  -26.5283   19.1802 C   0  0  0  0  0  0  0  0  0  0  0  0
  -25.6455  -17.4200   26.6801 C   0  0  0  0  0  0  0  0  0  0  0  0
  -30.5897  -25.8406   18.3445 C   0  0  0  0  0  0  0  0  0  0  0  0
  -24.4518  -18.3582   26.4877 C   0  0  0  0  0  0  0  0  0  0  0  0
  -26.4945  -17.3154   25.4143 C   0  0  0  0  0  0  0  0  0  0  0  0
  -24.5598  -17.8983   24.0050 C   0  0  0  0  0  0  0  0  0  0  0  0
  -29.2749  -25.7239   19.1249 C   0  0  1  0  0  0  0  0  0  0  0  0
  -29.2277  -22.3689   20.9068 C   0  0  1  0  0  0  0  0  0  0  0  0
  -23.6385  -17.9853   25.2327 C   0  0  2  0  0  0  0  0  0  0  0  0
  -27.2759  -11.4128   20.9665 C   0  0  0  0  0  0  0  0  0  0  0  0
  -33.2359  -15.7506   21.2749 C   0  0  0  0  0  0  0  0  0  0  0  0
  -31.9460  -20.9894   17.4328 C   0  0  0  0  0  0  0  0  0  0  0  0
  -32.9397  -18.7050   17.6825 C   0  0  0  0  0  0  0  0  0  0  0  0
  -33.8134  -20.5996   19.0500 C   0  0  0  0  0  0  0  0  0  0  0  0
  -30.2523  -16.7221   23.4267 C   0  0  0  0  0  0  0  0  0  0  0  0
  -22.3441  -17.3294   19.4148 C   0  0  0  0  0  0  0  0  0  0  0  0
  -22.8733  -18.6764   19.8774 C   0  0  0  0  0  0  0  0  0  1  0  0
  -31.5429  -19.6262   19.5881 C   0  0  1  0  0  0  0  0  0  0  0  0
  -32.2310  -16.7040   21.9025 C   0  0  2  0  0  0  0  0  0  0  0  0
  -32.5330  -19.9846   18.4441 C   0  0  0  0  0  0  0  0  0  0  0  0
  -22.6659  -20.0131   24.2211 N   0  0  0  0  0  0  0  0  0  0  0  0
  -23.1185  -15.2586   20.4299 N   0  0  0  0  0  0  0  0  0  0  0  0
  -22.4808  -18.9400   25.0088 N   0  0  0  0  0  0  0  0  0  0  0  0
  -29.7095  -21.1017   20.3532 N   0  0  0  0  0  0  0  0  0  0  0  0
  -25.6577  -16.9548   24.2677 N   0  0  0  0  0  0  0  0  0  0  0  0
  -25.2607  -11.2016   18.9055 N   0  0  0  0  0  0  0  0  0  0  0  0
  -20.8654  -17.8283   26.3374 N   0  0  0  0  0  0  0  0  0  0  0  0
  -18.6191  -21.4074   24.7436 N   0  0  0  0  0  0  0  0  0  0  0  0
  -25.0688  -15.5302   22.4828 N   0  0  0  0  0  0  0  0  0  0  0  0
  -29.3498  -24.6411   20.0822 N   0  0  0  0  0  0  0  0  0  0  0  0
  -32.0817  -18.6973   20.5756 N   0  0  0  0  0  0  0  0  0  0  0  0
  -31.2824  -15.9080   22.7316 N   0  3  0  0  0  0  0  0  0  0  0  0
  -18.4541  -19.5467   26.0738 O   0  0  0  0  0  0  0  0  0  0  0  0
  -28.7647  -22.8984   18.6528 O   0  0  0  0  0  0  0  0  0  0  0  0
  -31.9227  -21.5339   20.9456 O   0  0  0  0  0  0  0  0  0  0  0  0
  -30.4555  -17.0666   20.3046 O   0  0  0  0  0  0  0  0  0  0  0  0
  -26.9014  -15.0572   23.8243 O   0  0  0  0  0  0  0  0  0  0  0  0
  -20.6591  -25.3386   21.3643 O   0  0  0  0  0  0  0  0  0  0  0  0
  -24.0382  -19.0095   19.1234 O   0  0  0  0  0  0  0  0  0  1  0  0
  -18.0104  -29.4600   23.8946 F   0  0  0  0  0  0  0  0  0  0  0  0
  -18.0800  -25.0032   22.3014 F   0  0  0  0  0  0  0  0  0  0  0  0
  1  2  1  0  0  0  0
  1  5  2  0  0  0  0
  2  6  2  0  0  0  0
  3  8  2  0  0  0  0
  3 17  1  0  0  0  0
  4  9  1  0  0  0  0
  4 17  2  0  0  0  0
  5 19  1  0  0  0  0
  6 21  1  0  0  0  0
  7 10  2  0  0  0  0
  7 20  1  0  0  0  0
  8 27  1  0  0  0  0
  9 27  2  0  0  0  0
 10 28  1  0  0  0  0
 11 12  2  0  0  0  0
 11 29  1  0  0  0  0
 12 30  1  0  0  0  0
 13 22  1  0  0  0  0
 13 28  2  0  0  0  0
 14 23  2  0  0  0  0
 14 25  1  0  0  0  0
 15 24  1  0  0  0  0
 15 26  2  0  0  0  0
 16 30  2  0  0  0  0
 16 31  1  0  0  0  0
 17 32  1  0  0  0  0
 18 32  1  0  0  0  0
 18 33  2  0  0  0  0
 18 35  1  0  0  0  0
 19 21  2  0  0  0  0
 19 40  1  0  0  0  0
 20 22  2  0  0  0  0
 20 41  1  0  0  0  0
 21 49  1  0  0  0  0
 22 42  1  0  0  0  0
 23 26  1  0  0  0  0
 23 52  1  0  0  0  0
 24 25  2  0  0  0  0
 24 64  1  0  0  0  0
 25 71  1  0  0  0  0
 26 68  1  0  0  0  0
 27 80  1  0  0  0  0
 28 81  1  0  0  0  0
 29 31  2  0  0  0  0
 29 80  1  0  0  0  0
 30 82  1  0  0  0  0
 31 83  1  0  0  0  0
 32 63  2  0  0  0  0
 33 65  1  0  0  0  0
 33 69  1  0  0  0  0
 34 58  1  0  0  0  0
 34 64  2  0  0  0  0
 35 70  1  0  0  0  0
 35 75  2  0  0  0  0
 36 50  1  0  0  0  0
 36 72  1  0  0  0  0
 36 76  2  0  0  0  0
 37 60  1  0  0  0  0
 37 66  1  0  0  0  0
 37 77  2  0  0  0  0
 38 61  1  0  0  0  0
 38 73  1  0  0  0  0
 38 78  2  0  0  0  0
 39 67  1  0  0  0  0
 39 71  1  0  0  0  0
 39 79  2  0  0  0  0
 40 43  1  0  0  0  0
 41 50  1  0  0  0  0
 42 66  1  0  0  0  0
 43 45  1  0  0  0  0
 44 46  1  0  0  0  0
 44 47  1  0  0  0  0
 45 49  1  0  0  0  0
 46 51  1  0  0  0  0
 47 67  1  0  0  0  0
 48 51  1  0  0  0  0
 48 67  1  0  0  0  0
 49 72  1  0  0  0  0
 50 66  1  0  0  0  0
 51 65  1  0  0  0  0
 53 61  1  0  0  0  0
 54 62  1  0  0  0  0
 55 62  1  0  0  0  0
 56 62  1  0  0  0  0
 57 74  1  0  0  0  0
 58 59  1  0  0  0  0
 59 81  1  0  0  0  0
 60 62  1  0  0  0  0
 60 73  1  0  0  0  0
 61 74  1  0  0  0  0
 63 65  1  0  0  0  0
M  CHG  1  74   1
M  ISO  4  39 100  59 101  71 100  81 101
M  END
> <Batch ID>
0114

> <Smiles>
CNC(C)C(=O)NC(C(=O)N1Cc2cc([101O:1][101CH2:1]CC=Nc3cc(N)c(C)cc3[100NH:0][100C:0](=O)N3CCCC(n4nc(-c5ccc(Oc6ccc(F)cc6F)cc5)c(C(N)=O)c4N)C3)ccc2CC1C(=O)NC1CCCc2ccccc21)C(C)(C)C

> <Shape>
0.200

> <Color>
0.064

> <Negative vol penalty>
0.000

$$$$

  -OEChem-04052301373D

 80 88  0     1  0  0  0  0  0999 V2000
  -22.7544  -11.4970   18.5694 C   0  0  0  0  0  0  0  0  0  0  0  0
  -22.4701  -12.8585   18.5405 C   0  0  0  0  0  0  0  0  0  0  0  0
  -25.5832  -28.8853   21.1581 C   0  0  0  0  0  0  0  0  0  0  0  0
  -24.9710  -27.5522   19.2384 C   0  0  0  0  0  0  0  0  0  0  0  0
  -23.8403  -11.0283   19.3078 C   0  0  0  0  0  0  0  0  0  0  0  0
  -23.2708  -13.7521   19.2509 C   0  0  0  0  0  0  0  0  0  0  0  0
  -24.4465  -17.8739   16.5539 C   0  0  0  0  0  0  0  0  0  0  0  0
  -26.8882  -28.3990   21.0797 C   0  0  0  0  0  0  0  0  0  0  0  0
  -26.2760  -27.0659   19.1599 C   0  0  0  0  0  0  0  0  0  0  0  0
  -23.4661  -18.8581   16.4351 C   0  0  0  0  0  0  0  0  0  0  0  0
  -28.5535  -25.5864   21.9398 C   0  0  0  0  0  0  0  0  0  0  0  0
  -29.1652  -25.1799   23.1256 C   0  0  0  0  0  0  0  0  0  0  0  0
  -17.5546  -23.9462   16.4011 C   0  0  0  0  0  0  0  0  0  0  0  0
  -16.7895  -24.6528   17.3595 C   0  0  0  0  0  0  0  0  0  0  0  0
  -24.5487  -20.1373   18.1703 C   0  0  0  0  0  0  0  0  0  0  0  0
  -30.9035  -26.8245   22.7927 C   0  0  0  0  0  0  0  0  0  0  0  0
  -24.6246  -28.4619   20.2374 C   0  0  0  0  0  0  0  0  0  0  0  0
  -22.7564  -30.1098   19.6877 C   0  0  0  0  0  0  0  0  0  0  0  0
  -24.6606  -11.9177   20.0197 C   0  0  0  0  0  0  0  0  0  0  0  0
  -25.4809  -18.0091   17.4910 C   0  0  0  0  0  0  0  0  0  0  0  0
  -24.3679  -13.2948   20.0005 C   0  0  0  0  0  0  0  0  0  0  0  0
  -25.5423  -19.1547   18.2973 C   0  0  0  0  0  0  0  0  0  0  0  0
  -27.2346  -27.4894   20.0806 C   0  0  0  0  0  0  0  0  0  0  0  0
  -23.5155  -19.9886   17.2454 C   0  0  0  0  0  0  0  0  0  0  0  0
  -29.1169  -26.6119   21.1803 C   0  0  0  0  0  0  0  0  0  0  0  0
  -30.3402  -25.7990   23.5521 C   0  0  0  0  0  0  0  0  0  0  0  0
  -30.2918  -27.2310   21.6068 C   0  0  0  0  0  0  0  0  0  0  0  0
  -23.2763  -28.9635   20.3182 C   0  0  0  0  0  0  0  0  0  0  0  0
  -18.4107  -23.1401   17.1147 C   0  0  0  0  0  0  0  0  0  0  0  0
  -17.2323  -24.2279   18.5905 C   0  0  0  0  0  0  0  0  0  0  0  0
  -21.4404  -30.1497   20.0786 C   0  0  0  0  0  0  0  0  0  0  0  0
  -19.4143  -22.2065   16.5769 C   0  0  0  0  0  0  0  0  0  0  0  0
  -20.2453  -21.4538   17.3147 C   0  0  0  0  0  0  0  0  0  0  0  0
  -23.4052  -31.0540   18.8257 C   0  0  0  0  0  0  0  0  0  0  0  0
  -26.4318  -16.3595   20.0362 C   0  0  0  0  0  0  0  0  0  0  0  0
  -28.9002  -18.4635   19.9929 C   0  0  0  0  0  0  0  0  0  0  0  0
  -30.0807  -21.5260   19.0577 C   0  0  0  0  0  0  0  0  0  0  0  0
  -17.5990  -25.9343   21.9024 C   0  0  0  0  0  0  0  0  0  0  0  0
  -25.7950  -11.3591   20.8418 C   0  0  0  0  0  0  0  0  0  0  0  0
  -26.5457  -16.9512   17.5882 C   0  0  0  0  0  0  0  0  0  0  0  0
  -26.6434  -19.3572   19.3048 C   0  0  0  0  0  0  0  0  0  0  0  0
  -26.8173  -12.4115   21.2635 C   0  0  0  0  0  0  0  0  0  0  0  0
  -18.5631  -28.8653   23.6790 C   0  0  0  0  0  0  0  0  0  0  0  0
  -26.1141  -13.6504   21.8089 C   0  0  0  0  0  0  0  0  0  0  0  0
  -19.8334  -29.3263   22.9623 C   0  0  0  0  0  0  0  0  0  0  0  0
  -18.4727  -27.3423   23.7438 C   0  0  0  0  0  0  0  0  0  0  0  0
  -19.8709  -27.1194   21.7266 C   0  0  0  0  0  0  0  0  0  0  0  0
  -25.2280  -14.2981   20.7380 C   0  0  1  0  0  0  0  0  0  0  0  0
  -27.2649  -16.9492   18.9336 C   0  0  1  0  0  0  0  0  0  0  0  0
  -19.9790  -28.6475   21.5870 C   0  0  2  0  0  0  0  0  0  0  0  0
  -32.1240  -22.9761   19.1968 C   0  0  0  0  0  0  0  0  0  0  0  0
  -28.2565  -19.0866   22.9097 C   0  0  0  0  0  0  0  0  0  0  0  0
  -29.6532  -21.1542   22.7036 C   0  0  0  0  0  0  0  0  0  0  0  0
  -30.6974  -18.9099   22.3948 C   0  0  0  0  0  0  0  0  0  0  0  0
  -30.3628  -21.6111   16.1129 C   0  0  0  0  0  0  0  0  0  0  0  0
  -16.8529  -24.5696   19.9685 C   0  0  0  0  0  0  0  0  0  0  0  0
  -21.2593  -20.5287   16.7219 C   0  0  0  0  0  0  0  0  0  1  0  0
  -29.1606  -19.8188   20.6048 C   0  0  1  0  0  0  0  0  0  0  0  0
  -31.3705  -21.9426   18.3741 C   0  0  2  0  0  0  0  0  0  0  0  0
  -29.4200  -19.7380   22.1357 C   0  0  0  0  0  0  0  0  0  0  0  0
  -22.3648  -28.3216   21.0540 N   0  0  0  0  0  0  0  0  0  0  0  0
  -21.2590  -29.0672   20.8883 N   0  0  0  0  0  0  0  0  0  0  0  0
  -27.6576  -18.2918   19.3666 N   0  0  0  0  0  0  0  0  0  0  0  0
  -18.6166  -26.7607   22.4070 N   0  0  0  0  0  0  0  0  0  0  0  0
  -20.4321  -31.0048   19.8054 N   0  0  0  0  0  0  0  0  0  0  0  0
  -24.7611  -30.8637   18.5264 N   0  0  0  0  0  0  0  0  0  0  0  0
  -26.0344  -15.0563   19.8056 N   0  0  0  0  0  0  0  0  0  0  0  0
  -30.2574  -20.4066   19.8432 N   0  0  0  0  0  0  0  0  0  0  0  0
  -17.8119  -25.4295   20.6254 N   0  0  0  0  0  0  0  0  0  0  0  0
  -31.0811  -22.5283   17.0347 N   0  3  0  0  0  0  0  0  0  0  0  0
  -22.8046  -32.0466   18.3485 O   0  0  0  0  0  0  0  0  0  0  0  0
  -26.1701  -17.0361   21.0238 O   0  0  0  0  0  0  0  0  0  0  0  0
  -29.7702  -17.5917   20.0617 O   0  0  0  0  0  0  0  0  0  0  0  0
  -29.0231  -22.1350   18.9125 O   0  0  0  0  0  0  0  0  0  0  0  0
  -16.5742  -25.6705   22.5404 O   0  0  0  0  0  0  0  0  0  0  0  0
  -18.2205  -23.3057   18.4500 O   0  0  0  0  0  0  0  0  0  0  0  0
  -28.5080  -27.0148   20.0037 O   0  0  0  0  0  0  0  0  0  0  0  0
  -22.5595  -20.9504   17.1320 O   0  0  0  0  0  0  0  0  0  1  0  0
  -30.9266  -25.4096   24.6917 F   0  0  0  0  0  0  0  0  0  0  0  0
  -30.8370  -28.2175   20.8821 F   0  0  0  0  0  0  0  0  0  0  0  0
  1  2  1  0  0  0  0
  1  5  2  0  0  0  0
  2  6  2  0  0  0  0
  3  8  2  0  0  0  0
  3 17  1  0  0  0  0
  4  9  1  0  0  0  0
  4 17  2  0  0  0  0
  5 19  1  0  0  0  0
  6 21  1  0  0  0  0
  7 10  2  0  0  0  0
  7 20  1  0  0  0  0
  8 23  1  0  0  0  0
  9 23  2  0  0  0  0
 10 24  1  0  0  0  0
 11 12  2  0  0  0  0
 11 25  1  0  0  0  0
 12 26  1  0  0  0  0
 13 14  1  0  0  0  0
 13 29  2  0  0  0  0
 14 30  2  0  0  0  0
 15 22  1  0  0  0  0
 15 24  2  0  0  0  0
 16 26  2  0  0  0  0
 16 27  1  0  0  0  0
 17 28  1  0  0  0  0
 18 28  1  0  0  0  0
 18 31  2  0  0  0  0
 18 34  1  0  0  0  0
 19 21  2  0  0  0  0
 19 39  1  0  0  0  0
 20 22  2  0  0  0  0
 20 40  1  0  0  0  0
 21 48  1  0  0  0  0
 22 41  1  0  0  0  0
 23 77  1  0  0  0  0
 24 78  1  0  0  0  0
 25 27  2  0  0  0  0
 25 77  1  0  0  0  0
 26 79  1  0  0  0  0
 27 80  1  0  0  0  0
 28 61  2  0  0  0  0
 29 32  1  0  0  0  0
 29 76  1  0  0  0  0
 30 56  1  0  0  0  0
 30 76  1  0  0  0  0
 31 62  1  0  0  0  0
 31 65  1  0  0  0  0
 32 33  2  0  0  0  0
 33 57  1  0  0  0  0
 34 66  1  0  0  0  0
 34 71  2  0  0  0  0
 35 49  1  0  0  0  0
 35 67  1  0  0  0  0
 35 72  2  0  0  0  0
 36 58  1  0  0  0  0
 36 63  1  0  0  0  0
 36 73  2  0  0  0  0
 37 59  1  0  0  0  0
 37 68  1  0  0  0  0
 37 74  2  0  0  0  0
 38 64  1  0  0  0  0
 38 69  1  0  0  0  0
 38 75  2  0  0  0  0
 39 42  1  0  0  0  0
 40 49  1  0  0  0  0
 41 63  1  0  0  0  0
 42 44  1  0  0  0  0
 43 45  1  0  0  0  0
 43 46  1  0  0  0  0
 44 48  1  0  0  0  0
 45 50  1  0  0  0  0
 46 64  1  0  0  0  0
 47 50  1  0  0  0  0
 47 64  1  0  0  0  0
 48 67  1  0  0  0  0
 49 63  1  0  0  0  0
 50 62  1  0  0  0  0
 51 59  1  0  0  0  0
 52 60  1  0  0  0  0
 53 60  1  0  0  0  0
 54 60  1  0  0  0  0
 55 70  1  0  0  0  0
 56 69  1  0  0  0  0
 57 78  1  0  0  0  0
 58 60  1  0  0  0  0
 58 68  1  0  0  0  0
 59 70  1  0  0  0  0
 61 62  1  0  0  0  0
M  CHG  1  70   1
M  ISO  4  38 100  57 101  69 100  78 101
M  END
> <Batch ID>
0114

> <Smiles>
CNC(C)C(=O)NC(C(=O)N1Cc2cc([101O:1][101CH2:1]C=Cc3ccc(C[100NH:0][100C:0](=O)N4CCCC(n5nc(-c6ccc(Oc7ccc(F)cc7F)cc6)c(C(N)=O)c5N)C4)o3)ccc2CC1C(=O)NC1CCCc2ccccc21)C(C)(C)C

> <Shape>
0.215

> <Color>
0.106

> <Negative vol penalty>
0.000

$$$$

  -OEChem-04052301373D

 88 97  0     1  0  0  0  0  0999 V2000
  -17.1393  -30.3512   24.2716 C   0  0  0  0  0  0  0  0  0  0  0  0
  -18.5015  -30.6159   24.3695 C   0  0  0  0  0  0  0  0  0  0  0  0
  -26.5774  -15.4921   21.3118 C   0  0  0  0  0  0  0  0  0  0  0  0
  -25.5773  -15.6692   19.1197 C   0  0  0  0  0  0  0  0  0  0  0  0
  -16.6978  -29.2179   23.5900 C   0  0  0  0  0  0  0  0  0  0  0  0
  -19.4232  -29.7468   23.7868 C   0  0  0  0  0  0  0  0  0  0  0  0
  -25.8342  -29.7310   20.5907 C   0  0  0  0  0  0  0  0  0  0  0  0
  -25.9811  -14.2428   21.4829 C   0  0  0  0  0  0  0  0  0  0  0  0
  -24.9810  -14.4199   19.2908 C   0  0  0  0  0  0  0  0  0  0  0  0
  -27.0762  -29.1025   20.6710 C   0  0  0  0  0  0  0  0  0  0  0  0
  -24.4293  -11.1652   22.6422 C   0  0  0  0  0  0  0  0  0  0  0  0
  -23.8123  -10.9015   23.8651 C   0  0  0  0  0  0  0  0  0  0  0  0
  -29.2481  -24.0813   18.2946 C   0  0  0  0  0  0  0  0  0  0  0  0
  -30.4756  -23.1263   16.4458 C   0  0  0  0  0  0  0  0  0  0  0  0
  -26.1946  -27.2178   19.4504 C   0  0  0  0  0  0  0  0  0  0  0  0
  -31.6575  -23.9319   18.3929 C   0  0  0  0  0  0  0  0  0  0  0  0
  -22.3126  -12.7620   23.5097 C   0  0  0  0  0  0  0  0  0  0  0  0
  -26.3755  -16.2053   20.1302 C   0  0  0  0  0  0  0  0  0  0  0  0
  -29.2633  -23.4944   17.0293 C   0  0  0  0  0  0  0  0  0  0  0  0
  -28.3672  -17.7909   19.9669 C   0  0  0  0  0  0  0  0  0  0  0  0
  -17.6140  -28.3395   22.9904 C   0  0  0  0  0  0  0  0  0  0  0  0
  -24.7583  -29.1017   19.9481 C   0  0  0  0  0  0  0  0  0  0  0  0
  -18.9936  -28.5999   23.0977 C   0  0  0  0  0  0  0  0  0  0  0  0
  -24.9408  -27.8415   19.3612 C   0  0  0  0  0  0  0  0  0  0  0  0
  -30.4452  -24.3000   18.9764 C   0  0  0  0  0  0  0  0  0  0  0  0
  -25.1829  -13.7067   20.4724 C   0  0  0  0  0  0  0  0  0  0  0  0
  -27.2557  -27.8445   20.1033 C   0  0  0  0  0  0  0  0  0  0  0  0
  -23.9880  -12.2274   21.8531 C   0  0  0  0  0  0  0  0  0  0  0  0
  -31.6727  -23.3450   17.1276 C   0  0  0  0  0  0  0  0  0  0  0  0
  -22.7539  -11.6998   24.2988 C   0  0  0  0  0  0  0  0  0  0  0  0
  -22.9296  -13.0258   22.2868 C   0  0  0  0  0  0  0  0  0  0  0  0
  -26.9907  -17.4961   19.9530 C   0  0  0  0  0  0  0  0  0  0  0  0
  -28.4302  -19.1465   19.7551 C   0  0  0  0  0  0  0  0  0  0  0  0
  -32.3146  -26.3888   21.1597 C   0  0  0  0  0  0  0  0  0  0  0  0
  -28.0152  -23.2662   16.3184 C   0  0  0  0  0  0  0  0  0  0  0  0
  -29.4886  -16.9174   20.1545 C   0  0  0  0  0  0  0  0  0  0  0  0
  -26.7110  -23.6450   16.9092 C   0  0  0  0  0  0  0  0  0  0  0  0
  -21.8855  -28.0881   20.8555 C   0  0  0  0  0  0  0  0  0  0  0  0
  -21.5191  -27.5065   17.6854 C   0  0  0  0  0  0  0  0  0  0  0  0
  -22.9824  -26.8816   14.6663 C   0  0  0  0  0  0  0  0  0  0  0  0
  -17.0913  -27.1021   22.3048 C   0  0  0  0  0  0  0  0  0  0  0  0
  -23.4324  -29.8045   19.8468 C   0  0  0  0  0  0  0  0  0  0  0  0
  -23.8233  -27.1322   18.6424 C   0  0  0  0  0  0  0  0  0  0  0  0
  -32.7598  -27.8084   20.9072 C   0  0  0  0  0  0  0  0  0  0  0  0
  -18.1165  -26.4312   21.3942 C   0  0  0  0  0  0  0  0  0  0  0  0
  -32.0687  -28.1701   19.5957 C   0  0  0  0  0  0  0  0  0  0  0  0
  -24.8104  -22.6674   19.7881 C   0  0  0  0  0  0  0  0  0  0  0  0
  -19.4622  -26.3118   22.1023 C   0  0  0  0  0  0  0  0  0  0  0  0
  -25.2942  -21.2442   20.0640 C   0  0  0  0  0  0  0  0  0  0  0  0
  -24.7884  -22.9696   18.2933 C   0  0  0  0  0  0  0  0  0  0  0  0
  -26.5889  -21.3142   17.8859 C   0  0  0  0  0  0  0  0  0  0  0  0
  -20.0231  -27.6941   22.4577 C   0  0  1  0  0  0  0  0  0  0  0  0
  -22.2657  -28.8488   19.6168 C   0  0  1  0  0  0  0  0  0  0  0  0
  -26.6510  -20.9812   19.3868 C   0  0  2  0  0  0  0  0  0  0  0  0
  -30.7963  -27.3284   19.5947 C   0  0  2  0  0  0  0  0  0  0  0  0
  -22.4229  -26.4122   12.2655 C   0  0  0  0  0  0  0  0  0  0  0  0
  -20.7481  -24.6488   18.4264 C   0  0  0  0  0  0  0  0  0  0  0  0
  -21.1301  -24.0007   16.0384 C   0  0  0  0  0  0  0  0  0  0  0  0
  -19.3623  -25.6654   16.6096 C   0  0  0  0  0  0  0  0  0  0  0  0
  -24.3977  -29.3105   13.7407 C   0  0  0  0  0  0  0  0  0  0  0  0
  -34.0414  -23.2377   17.3106 C   0  0  0  0  0  0  0  0  0  0  0  0
  -30.4290  -24.9319   20.3383 C   0  0  0  0  0  0  0  0  0  0  0  0
  -29.6204  -28.0674   20.2250 C   0  0  0  0  0  0  0  0  0  1  0  0
  -21.7948  -26.3346   16.7746 C   0  0  1  0  0  0  0  0  0  0  0  0
  -22.7536  -27.4844   13.2920 C   0  0  2  0  0  0  0  0  0  0  0  0
  -20.7796  -25.1746   16.9774 C   0  0  0  0  0  0  0  0  0  0  0  0
  -26.2339  -18.5775   19.7487 N   0  0  0  0  0  0  0  0  0  0  0  0
  -27.9550  -22.7242   15.1320 N   0  0  0  0  0  0  0  0  0  0  0  0
  -27.1380  -19.5650   19.6323 N   0  0  0  0  0  0  0  0  0  0  0  0
  -31.1869  -26.1661   20.3723 N   0  0  0  0  0  0  0  0  0  0  0  0
  -26.0797  -22.6752   17.6754 N   0  0  0  0  0  0  0  0  0  0  0  0
  -22.5439  -27.8576   18.5755 N   0  0  0  0  0  0  0  0  0  0  0  0
  -29.4644  -20.0094   19.6638 N   0  0  0  0  0  0  0  0  0  0  0  0
  -29.2453  -15.5525   20.3597 N   0  0  0  0  0  0  0  0  0  0  0  0
  -20.5941  -28.3242   21.2866 N   0  0  0  0  0  0  0  0  0  0  0  0
  -21.8266  -26.8706   15.4180 N   0  0  0  0  0  0  0  0  0  0  0  0
  -23.9718  -28.2117   12.8360 N   0  3  0  0  0  0  0  0  0  0  0  0
  -32.8515  -25.6227   21.9459 O   0  0  0  0  0  0  0  0  0  0  0  0
  -30.6706  -17.3375   20.1568 O   0  0  0  0  0  0  0  0  0  0  0  0
  -26.3272  -24.7795   16.6565 O   0  0  0  0  0  0  0  0  0  0  0  0
  -22.7029  -27.3411   21.3805 O   0  0  0  0  0  0  0  0  0  0  0  0
  -20.4371  -28.0934   17.6049 O   0  0  0  0  0  0  0  0  0  0  0  0
  -24.0762  -26.4591   15.0347 O   0  0  0  0  0  0  0  0  0  0  0  0
  -24.6011  -12.4875   20.6390 O   0  0  0  0  0  0  0  0  0  0  0  0
  -32.8556  -22.9854   16.5584 O   0  0  0  0  0  0  0  0  0  0  0  0
  -28.4667  -27.2286   20.1808 O   0  0  0  0  0  0  0  0  0  1  0  0
  -22.1605  -11.4455   25.4724 F   0  0  0  0  0  0  0  0  0  0  0  0
  -22.5005  -14.0469   21.5325 F   0  0  0  0  0  0  0  0  0  0  0  0
  1  2  1  0  0  0  0
  1  5  2  0  0  0  0
  2  6  2  0  0  0  0
  3  8  2  0  0  0  0
  3 18  1  0  0  0  0
  4  9  1  0  0  0  0
  4 18  2  0  0  0  0
  5 21  1  0  0  0  0
  6 23  1  0  0  0  0
  7 10  2  0  0  0  0
  7 22  1  0  0  0  0
  8 26  1  0  0  0  0
  9 26  2  0  0  0  0
 10 27  1  0  0  0  0
 11 12  2  0  0  0  0
 11 28  1  0  0  0  0
 12 30  1  0  0  0  0
 13 19  1  0  0  0  0
 13 25  2  0  0  0  0
 14 19  2  0  0  0  0
 14 29  1  0  0  0  0
 15 24  1  0  0  0  0
 15 27  2  0  0  0  0
 16 25  1  0  0  0  0
 16 29  2  0  0  0  0
 17 30  2  0  0  0  0
 17 31  1  0  0  0  0
 18 32  1  0  0  0  0
 19 35  1  0  0  0  0
 20 32  1  0  0  0  0
 20 33  2  0  0  0  0
 20 36  1  0  0  0  0
 21 23  2  0  0  0  0
 21 41  1  0  0  0  0
 22 24  2  0  0  0  0
 22 42  1  0  0  0  0
 23 52  1  0  0  0  0
 24 43  1  0  0  0  0
 25 62  1  0  0  0  0
 26 84  1  0  0  0  0
 27 86  1  0  0  0  0
 28 31  2  0  0  0  0
 28 84  1  0  0  0  0
 29 85  1  0  0  0  0
 30 87  1  0  0  0  0
 31 88  1  0  0  0  0
 32 67  2  0  0  0  0
 33 69  1  0  0  0  0
 33 73  1  0  0  0  0
 34 44  1  0  0  0  0
 34 70  1  0  0  0  0
 34 78  2  0  0  0  0
 35 37  1  0  0  0  0
 35 68  2  0  0  0  0
 36 74  1  0  0  0  0
 36 79  2  0  0  0  0
 37 71  1  0  0  0  0
 37 80  2  0  0  0  0
 38 53  1  0  0  0  0
 38 75  1  0  0  0  0
 38 81  2  0  0  0  0
 39 64  1  0  0  0  0
 39 72  1  0  0  0  0
 39 82  2  0  0  0  0
 40 65  1  0  0  0  0
 40 76  1  0  0  0  0
 40 83  2  0  0  0  0
 41 45  1  0  0  0  0
 42 53  1  0  0  0  0
 43 72  1  0  0  0  0
 44 46  1  0  0  0  0
 45 48  1  0  0  0  0
 46 55  1  0  0  0  0
 47 49  1  0  0  0  0
 47 50  1  0  0  0  0
 48 52  1  0  0  0  0
 49 54  1  0  0  0  0
 50 71  1  0  0  0  0
 51 54  1  0  0  0  0
 51 71  1  0  0  0  0
 52 75  1  0  0  0  0
 53 72  1  0  0  0  0
 54 69  1  0  0  0  0
 55 63  1  0  0  0  0
 55 70  1  0  0  0  0
 56 65  1  0  0  0  0
 57 66  1  0  0  0  0
 58 66  1  0  0  0  0
 59 66  1  0  0  0  0
 60 77  1  0  0  0  0
 61 85  1  0  0  0  0
 62 70  1  0  0  0  0
 63 86  1  0  0  0  0
 64 66  1  0  0  0  0
 64 76  1  0  0  0  0
 65 77  1  0  0  0  0
 67 69  1  0  0  0  0
M  CHG  1  77   1
M  ISO  4  35 100  37 100  63 101  86 101
M  END
> <Batch ID>
0114

> <Smiles>
CNC(C)C(=O)NC(C(=O)N1Cc2cc([101O:1][101CH2:1]C3CCC(=O)N3Cc3cc(OC)cc([100C:0](=N)[100C:0](=O)N4CCCC(n5nc(-c6ccc(Oc7ccc(F)cc7F)cc6)c(C(N)=O)c5N)C4)c3)ccc2CC1C(=O)NC1CCCc2ccccc21)C(C)(C)C

> <Shape>
0.263

> <Color>
0.090

> <Negative vol penalty>
0.000

$$$$

  -OEChem-04052301373D

 87 95  0     1  0  0  0  0  0999 V2000
  -29.5293  -33.0457   27.3198 C   0  0  0  0  0  0  0  0  0  0  0  0
  -29.1731  -32.0819   26.3820 C   0  0  0  0  0  0  0  0  0  0  0  0
  -23.1035  -10.1335   22.1581 C   0  0  0  0  0  0  0  0  0  0  0  0
  -23.8351   -9.5027   19.9437 C   0  0  0  0  0  0  0  0  0  0  0  0
  -28.5936  -33.9926   27.7344 C   0  0  0  0  0  0  0  0  0  0  0  0
  -27.8806  -32.0637   25.8589 C   0  0  0  0  0  0  0  0  0  0  0  0
  -27.8261  -31.4140   20.8370 C   0  0  0  0  0  0  0  0  0  0  0  0
  -22.3891   -8.9400   22.2622 C   0  0  0  0  0  0  0  0  0  0  0  0
  -23.1207   -8.3091   20.0477 C   0  0  0  0  0  0  0  0  0  0  0  0
  -28.0296  -30.1198   20.3601 C   0  0  0  0  0  0  0  0  0  0  0  0
  -23.0513   -5.6897   22.9179 C   0  0  0  0  0  0  0  0  0  0  0  0
  -23.1585   -4.9718   24.1090 C   0  0  0  0  0  0  0  0  0  0  0  0
  -26.7168  -19.9708   19.0271 C   0  0  0  0  0  0  0  0  0  0  0  0
  -25.6510  -29.8677   20.0471 C   0  0  0  0  0  0  0  0  0  0  0  0
  -29.0739  -19.5654   18.6857 C   0  0  0  0  0  0  0  0  0  0  0  0
  -20.7749   -5.1762   24.4468 C   0  0  0  0  0  0  0  0  0  0  0  0
  -23.8264  -10.4149   20.9989 C   0  0  0  0  0  0  0  0  0  0  0  0
  -26.9751  -21.3311   19.1958 C   0  0  0  0  0  0  0  0  0  0  0  0
  -25.9014  -11.8743   21.2677 C   0  0  0  0  0  0  0  0  0  0  0  0
  -27.2918  -33.9919   27.2090 C   0  0  0  0  0  0  0  0  0  0  0  0
  -26.5305  -31.9418   20.9328 C   0  0  0  0  0  0  0  0  0  0  0  0
  -26.9263  -33.0106   26.2679 C   0  0  0  0  0  0  0  0  0  0  0  0
  -25.4340  -31.1698   20.5230 C   0  0  0  0  0  0  0  0  0  0  0  0
  -27.7662  -19.0879   18.7721 C   0  0  0  0  0  0  0  0  0  0  0  0
  -22.3978   -8.0278   21.2069 C   0  0  0  0  0  0  0  0  0  0  0  0
  -26.9417  -29.3454   19.9678 C   0  0  0  0  0  0  0  0  0  0  0  0
  -21.8059   -6.1510   22.4913 C   0  0  0  0  0  0  0  0  0  0  0  0
  -28.2829  -21.8085   19.1095 C   0  0  0  0  0  0  0  0  0  0  0  0
  -22.0203   -4.7150   24.8734 C   0  0  0  0  0  0  0  0  0  0  0  0
  -29.3323  -20.9257   18.8544 C   0  0  0  0  0  0  0  0  0  0  0  0
  -20.6678   -5.8942   23.2557 C   0  0  0  0  0  0  0  0  0  0  0  0
  -24.5641  -11.6479   20.8906 C   0  0  0  0  0  0  0  0  0  0  0  0
  -26.1247  -13.1952   20.9643 C   0  0  0  0  0  0  0  0  0  0  0  0
  -25.0842  -22.1437   20.5297 C   0  0  0  0  0  0  0  0  0  0  0  0
  -25.8622  -22.2329   19.4613 C   0  0  0  0  0  0  0  0  0  0  0  0
  -26.8564  -10.9715   21.8408 C   0  0  0  0  0  0  0  0  0  0  0  0
  -24.7040  -32.9850   23.3160 C   0  0  0  0  0  0  0  0  0  0  0  0
  -22.7092  -33.8272   20.9006 C   0  0  0  0  0  0  0  0  0  0  0  0
  -21.6832  -33.3306   17.6838 C   0  0  0  0  0  0  0  0  0  0  0  0
  -25.5253  -17.2653   17.0410 C   0  0  0  0  0  0  0  0  0  0  0  0
  -26.3011  -35.0063   27.7229 C   0  0  0  0  0  0  0  0  0  0  0  0
  -26.3301  -33.3492   21.4241 C   0  0  0  0  0  0  0  0  0  0  0  0
  -24.0247  -31.6972   20.5871 C   0  0  0  0  0  0  0  0  0  0  0  0
  -25.0631  -35.1494   26.8413 C   0  0  0  0  0  0  0  0  0  0  0  0
  -22.9278  -16.8756   19.6492 C   0  0  0  0  0  0  0  0  0  0  0  0
  -24.5139  -33.7769   26.4654 C   0  0  0  0  0  0  0  0  0  0  0  0
  -23.1967  -15.4683   20.1795 C   0  0  0  0  0  0  0  0  0  0  0  0
  -23.3556  -17.0241   18.1923 C   0  0  0  0  0  0  0  0  0  0  0  0
  -25.0404  -15.2355   18.4686 C   0  0  0  0  0  0  0  0  0  0  0  0
  -25.5414  -32.9735   25.6589 C   0  0  1  0  0  0  0  0  0  0  0  0
  -24.9249  -33.5997   21.9628 C   0  0  1  0  0  0  0  0  0  0  0  0
  -24.6636  -15.0659   19.9480 C   0  0  2  0  0  0  0  0  0  0  0  0
  -20.0070  -34.1443   16.0030 C   0  0  0  0  0  0  0  0  0  0  0  0
  -20.5167  -32.2612   22.3327 C   0  0  0  0  0  0  0  0  0  0  0  0
  -19.1947  -32.3034   20.2069 C   0  0  0  0  0  0  0  0  0  0  0  0
  -19.7741  -34.4404   21.3559 C   0  0  0  0  0  0  0  0  0  0  0  0
  -27.8236  -17.4012   16.1583 C   0  0  0  0  0  0  0  0  0  0  0  0
  -23.8068  -34.2270   15.8275 C   0  0  0  0  0  0  0  0  0  0  0  0
  -27.4907  -17.6334   18.5916 C   0  0  0  0  0  0  0  0  0  0  0  0
  -27.9756  -25.8733   20.0042 C   0  0  0  0  0  0  0  0  0  0  0  0
  -29.1468  -25.0719   20.5616 C   0  0  0  0  0  0  0  0  0  0  0  0
  -28.2634  -27.3688   20.0129 C   0  0  0  0  0  0  0  0  0  1  0  0
  -28.8434  -23.5807   20.5931 C   0  0  0  0  0  0  0  0  0  0  0  0
  -21.5855  -33.1477   20.1560 C   0  0  1  0  0  0  0  0  0  0  0  0
  -21.4170  -34.3040   16.5498 C   0  0  2  0  0  0  0  0  0  0  0  0
  -20.2940  -33.0272   21.0134 C   0  0  0  0  0  0  0  0  0  0  0  0
  -23.9789  -12.7375   20.3864 N   0  0  0  0  0  0  0  0  0  0  0  0
  -24.9531  -13.6615   20.4445 N   0  0  0  0  0  0  0  0  0  0  0  0
  -23.8798  -33.0767   21.0805 N   0  0  0  0  0  0  0  0  0  0  0  0
  -24.7399  -16.5941   17.9925 N   0  0  0  0  0  0  0  0  0  0  0  0
  -27.2069  -13.9916   21.0941 N   0  0  0  0  0  0  0  0  0  0  0  0
  -26.4615   -9.6496   22.0877 N   0  0  0  0  0  0  0  0  0  0  0  0
  -25.5786  -33.4334   24.2872 N   0  0  0  0  0  0  0  0  0  0  0  0
  -21.4105  -33.8919   18.9134 N   0  0  0  0  0  0  0  0  0  0  0  0
  -26.9050  -17.3366   17.2861 N   0  0  0  0  0  0  0  0  0  0  0  0
  -22.3813  -34.0783   15.4363 N   0  3  0  0  0  0  0  0  0  0  0  0
  -28.0202  -11.3308   22.1407 O   0  0  0  0  0  0  0  0  0  0  0  0
  -23.8055  -32.1656   23.4679 O   0  0  0  0  0  0  0  0  0  0  0  0
  -22.5567  -34.9837   21.3015 O   0  0  0  0  0  0  0  0  0  0  0  0
  -22.0888  -32.1855   17.4973 O   0  0  0  0  0  0  0  0  0  0  0  0
  -25.0208  -17.7800   16.0348 O   0  0  0  0  0  0  0  0  0  0  0  0
  -21.7010   -6.8630   21.3082 O   0  0  0  0  0  0  0  0  0  0  0  0
  -27.1374  -28.0816   19.5026 O   0  0  0  0  0  0  0  0  0  1  0  0
  -28.5632  -23.1405   19.2715 O   0  0  0  0  0  0  0  0  0  0  0  0
  -22.1232   -4.0242   26.0164 F   0  0  0  0  0  0  0  0  0  0  0  0
  -30.5913  -21.3776   18.7702 F   0  0  0  0  0  0  0  0  0  0  0  0
  -19.4685   -6.3338   22.8504 F   0  0  0  0  0  0  0  0  0  0  0  0
  1  2  1  0  0  0  0
  1  5  2  0  0  0  0
  2  6  2  0  0  0  0
  3  8  2  0  0  0  0
  3 17  1  0  0  0  0
  4  9  1  0  0  0  0
  4 17  2  0  0  0  0
  5 20  1  0  0  0  0
  6 22  1  0  0  0  0
  7 10  2  0  0  0  0
  7 21  1  0  0  0  0
  8 25  1  0  0  0  0
  9 25  2  0  0  0  0
 10 26  1  0  0  0  0
 11 12  2  0  0  0  0
 11 27  1  0  0  0  0
 12 29  1  0  0  0  0
 13 18  1  0  0  0  0
 13 24  2  0  0  0  0
 14 23  1  0  0  0  0
 14 26  2  0  0  0  0
 15 24  1  0  0  0  0
 15 30  2  0  0  0  0
 16 29  2  0  0  0  0
 16 31  1  0  0  0  0
 17 32  1  0  0  0  0
 18 28  2  0  0  0  0
 18 35  1  0  0  0  0
 19 32  1  0  0  0  0
 19 33  2  0  0  0  0
 19 36  1  0  0  0  0
 20 22  2  0  0  0  0
 20 41  1  0  0  0  0
 21 23  2  0  0  0  0
 21 42  1  0  0  0  0
 22 50  1  0  0  0  0
 23 43  1  0  0  0  0
 24 59  1  0  0  0  0
 25 82  1  0  0  0  0
 26 83  1  0  0  0  0
 27 31  2  0  0  0  0
 27 82  1  0  0  0  0
 28 30  1  0  0  0  0
 28 84  1  0  0  0  0
 29 85  1  0  0  0  0
 30 86  1  0  0  0  0
 31 87  1  0  0  0  0
 32 67  2  0  0  0  0
 33 68  1  0  0  0  0
 33 71  1  0  0  0  0
 34 35  2  0  0  0  0
 36 72  1  0  0  0  0
 36 77  2  0  0  0  0
 37 51  1  0  0  0  0
 37 73  1  0  0  0  0
 37 78  2  0  0  0  0
 38 64  1  0  0  0  0
 38 69  1  0  0  0  0
 38 79  2  0  0  0  0
 39 65  1  0  0  0  0
 39 74  1  0  0  0  0
 39 80  2  0  0  0  0
 40 70  1  0  0  0  0
 40 75  1  0  0  0  0
 40 81  2  0  0  0  0
 41 44  1  0  0  0  0
 42 51  1  0  0  0  0
 43 69  1  0  0  0  0
 44 46  1  0  0  0  0
 45 47  1  0  0  0  0
 45 48  1  0  0  0  0
 46 50  1  0  0  0  0
 47 52  1  0  0  0  0
 48 70  1  0  0  0  0
 49 52  1  0  0  0  0
 49 70  1  0  0  0  0
 50 73  1  0  0  0  0
 51 69  1  0  0  0  0
 52 68  1  0  0  0  0
 53 65  1  0  0  0  0
 54 66  1  0  0  0  0
 55 66  1  0  0  0  0
 56 66  1  0  0  0  0
 57 75  1  0  0  0  0
 58 76  1  0  0  0  0
 59 75  1  0  0  0  0
 60 61  1  0  0  0  0
 60 62  1  0  0  0  0
 61 63  1  0  0  0  0
 62 83  1  0  0  0  0
 63 84  1  0  0  0  0
 64 66  1  0  0  0  0
 64 74  1  0  0  0  0
 65 76  1  0  0  0  0
 67 68  1  0  0  0  0
M  CHG  1  76   1
M  ISO  4  40 100  62 101  75 100  83 101
M  END
> <Batch ID>
0114

> <Smiles>
C=Cc1cc(C[100N:0](C)[100C:0](=O)N2CCCC(n3nc(-c4ccc(Oc5ccc(F)cc5F)cc4)c(C(N)=O)c3N)C2)cc(F)c1OCCC[101CH2:1][101O:1]c1ccc2c(c1)CN(C(=O)C(NC(=O)C(C)NC)C(C)(C)C)C(C(=O)NC1CCCc3ccccc31)C2

> <Shape>
0.232

> <Color>
0.127

> <Negative vol penalty>
0.000

$$$$

  -OEChem-04052301373D

 86 94  0     1  0  0  0  0  0999 V2000
  -31.8143  -13.5192   22.2325 C   0  0  0  0  0  0  0  0  0  0  0  0
  -31.1787  -14.7564   22.2548 C   0  0  0  0  0  0  0  0  0  0  0  0
  -28.9558  -26.1117   18.5473 C   0  0  0  0  0  0  0  0  0  0  0  0
  -27.9339  -25.4427   20.6318 C   0  0  0  0  0  0  0  0  0  0  0  0
  -31.2797  -12.4756   21.4782 C   0  0  0  0  0  0  0  0  0  0  0  0
  -30.0085  -14.9511   21.5219 C   0  0  0  0  0  0  0  0  0  0  0  0
  -26.4490  -17.4034   24.1603 C   0  0  0  0  0  0  0  0  0  0  0  0
  -29.0456  -24.7742   18.1620 C   0  0  0  0  0  0  0  0  0  0  0  0
  -28.0236  -24.1051   20.2465 C   0  0  0  0  0  0  0  0  0  0  0  0
  -26.5898  -18.7845   24.2887 C   0  0  0  0  0  0  0  0  0  0  0  0
  -30.3990  -21.7025   20.1216 C   0  0  0  0  0  0  0  0  0  0  0  0
  -30.8623  -20.7859   21.0654 C   0  0  0  0  0  0  0  0  0  0  0  0
  -22.1695  -28.6707   23.1657 C   0  0  0  0  0  0  0  0  0  0  0  0
  -22.1518  -26.2591   23.3086 C   0  0  0  0  0  0  0  0  0  0  0  0
  -24.9786  -19.1069   22.5225 C   0  0  0  0  0  0  0  0  0  0  0  0
  -28.7774  -19.5746   20.9125 C   0  0  0  0  0  0  0  0  0  0  0  0
  -28.4000  -26.4460   19.7823 C   0  0  0  0  0  0  0  0  0  0  0  0
  -21.6146  -27.4433   22.8038 C   0  0  0  0  0  0  0  0  0  0  0  0
  -29.3687  -28.7381   20.3440 C   0  0  0  0  0  0  0  0  0  0  0  0
  -30.0971  -12.6547   20.7433 C   0  0  0  0  0  0  0  0  0  0  0  0
  -25.5786  -16.8626   23.2030 C   0  0  0  0  0  0  0  0  0  0  0  0
  -29.4583  -13.9093   20.7559 C   0  0  0  0  0  0  0  0  0  0  0  0
  -24.8266  -17.7186   22.3857 C   0  0  0  0  0  0  0  0  0  0  0  0
  -23.2618  -28.7141   24.0323 C   0  0  0  0  0  0  0  0  0  0  0  0
  -28.5794  -23.7709   19.0116 C   0  0  0  0  0  0  0  0  0  0  0  0
  -25.8567  -19.6364   23.4678 C   0  0  0  0  0  0  0  0  0  0  0  0
  -29.1249  -21.5552   19.5733 C   0  0  0  0  0  0  0  0  0  0  0  0
  -23.2440  -26.3024   24.1751 C   0  0  0  0  0  0  0  0  0  0  0  0
  -30.0515  -19.7219   21.4608 C   0  0  0  0  0  0  0  0  0  0  0  0
  -28.3141  -20.4912   19.9687 C   0  0  0  0  0  0  0  0  0  0  0  0
  -23.7990  -27.5299   24.5370 C   0  0  0  0  0  0  0  0  0  0  0  0
  -28.3076  -27.8275   20.1811 C   0  0  0  0  0  0  0  0  0  0  0  0
  -28.7610  -29.9082   20.7288 C   0  0  0  0  0  0  0  0  0  0  0  0
  -20.2680  -28.2818   20.9334 C   0  0  0  0  0  0  0  0  0  0  0  0
  -20.4763  -27.3980   21.8997 C   0  0  0  0  0  0  0  0  0  0  0  0
  -30.7777  -28.5438   20.1634 C   0  0  0  0  0  0  0  0  0  0  0  0
  -25.9277  -14.9945   20.6550 C   0  0  0  0  0  0  0  0  0  0  0  0
  -24.8427  -23.0545   24.0955 C   0  0  0  0  0  0  0  0  0  0  0  0
  -22.6850  -15.0779   20.6339 C   0  0  0  0  0  0  0  0  0  0  0  0
  -19.8230  -16.7121   21.5202 C   0  0  0  0  0  0  0  0  0  0  0  0
  -23.7936  -31.0921   23.5289 C   0  0  0  0  0  0  0  0  0  0  0  0
  -29.5830  -11.5111   19.9052 C   0  0  0  0  0  0  0  0  0  0  0  0
  -25.4180  -15.3709   23.0952 C   0  0  0  0  0  0  0  0  0  0  0  0
  -23.8635  -17.1886   21.3562 C   0  0  0  0  0  0  0  0  0  0  0  0
  -28.1351  -11.6885   19.4553 C   0  0  0  0  0  0  0  0  0  0  0  0
  -24.6605  -32.3220   20.3073 C   0  0  0  0  0  0  0  0  0  0  0  0
  -27.9134  -13.0966   18.9124 C   0  0  0  0  0  0  0  0  0  0  0  0
  -25.8005  -31.3807   19.9198 C   0  0  0  0  0  0  0  0  0  0  0  0
  -23.5387  -31.5895   21.0441 C   0  0  0  0  0  0  0  0  0  0  0  0
  -25.1381  -29.8738   21.8333 C   0  0  0  0  0  0  0  0  0  0  0  0
  -28.1736  -14.1522   19.9939 C   0  0  1  0  0  0  0  0  0  0  0  0
  -24.8872  -14.9237   21.7367 C   0  0  1  0  0  0  0  0  0  0  0  0
  -26.3063  -30.5937   21.1417 C   0  0  1  0  0  0  0  0  0  0  0  0
  -17.3257  -16.5553   21.3304 C   0  0  0  0  0  0  0  0  0  0  0  0
  -22.8518  -15.9815   17.7244 C   0  0  0  0  0  0  0  0  0  0  0  0
  -20.4619  -16.7097   17.8863 C   0  0  0  0  0  0  0  0  0  0  0  0
  -21.0553  -14.3066   18.1952 C   0  0  0  0  0  0  0  0  0  0  0  0
  -24.2431  -30.1878   25.7995 C   0  0  0  0  0  0  0  0  0  0  0  0
  -19.4914  -16.5864   24.4584 C   0  0  0  0  0  0  0  0  0  0  0  0
  -24.8550  -21.7843   23.2699 C   0  0  0  0  0  0  0  0  0  1  0  0
  -23.6698  -23.9839   23.8599 C   0  0  0  0  0  0  0  0  0  0  0  0
  -21.6426  -15.9709   20.0055 C   0  0  1  0  0  0  0  0  0  0  0  0
  -18.5449  -16.2215   22.1760 C   0  0  2  0  0  0  0  0  0  0  0  0
  -21.5224  -15.7525   18.4708 C   0  0  0  0  0  0  0  0  0  0  0  0
  -27.1161  -28.3722   20.4413 N   0  0  0  0  0  0  0  0  0  0  0  0
  -27.4249  -29.6377   20.7717 N   0  0  0  0  0  0  0  0  0  0  0  0
  -23.7463  -15.7227   21.2847 N   0  0  0  0  0  0  0  0  0  0  0  0
  -24.0743  -30.8207   22.1765 N   0  0  0  0  0  0  0  0  0  0  0  0
  -29.2446  -31.1318   21.0314 N   0  0  0  0  0  0  0  0  0  0  0  0
  -31.5396  -28.1193   21.2605 N   0  0  0  0  0  0  0  0  0  0  0  0
  -27.0514  -14.2300   20.9044 N   0  0  0  0  0  0  0  0  0  0  0  0
  -20.4052  -15.7345   20.7414 N   0  0  0  0  0  0  0  0  0  0  0  0
  -23.8341  -29.9863   24.4052 N   0  0  0  0  0  0  0  0  0  0  0  0
  -18.3748  -16.8524   23.5154 N   0  3  0  0  0  0  0  0  0  0  0  0
  -31.3470  -28.7565   19.0661 O   0  0  0  0  0  0  0  0  0  0  0  0
  -25.7252  -15.6900   19.6666 O   0  0  0  0  0  0  0  0  0  0  0  0
  -25.7303  -23.3152   24.9062 O   0  0  0  0  0  0  0  0  0  0  0  0
  -22.5583  -13.8533   20.5566 O   0  0  0  0  0  0  0  0  0  0  0  0
  -20.2592  -17.8500   21.6797 O   0  0  0  0  0  0  0  0  0  0  0  0
  -23.5514  -32.2377   23.9275 O   0  0  0  0  0  0  0  0  0  0  0  0
  -28.6666  -22.4656   18.6358 O   0  0  0  0  0  0  0  0  0  0  0  0
  -25.9927  -20.9849   23.5906 O   0  0  0  0  0  0  0  0  0  1  0  0
  -23.7731  -25.1346   24.6717 O   0  0  0  0  0  0  0  0  0  0  0  0
  -30.4972  -18.8409   22.3660 F   0  0  0  0  0  0  0  0  0  0  0  0
  -27.0896  -20.3439   19.4445 F   0  0  0  0  0  0  0  0  0  0  0  0
  -24.8496  -27.5658   25.3701 F   0  0  0  0  0  0  0  0  0  0  0  0
  1  2  1  0  0  0  0
  1  5  2  0  0  0  0
  2  6  2  0  0  0  0
  3  8  2  0  0  0  0
  3 17  1  0  0  0  0
  4  9  1  0  0  0  0
  4 17  2  0  0  0  0
  5 20  1  0  0  0  0
  6 22  1  0  0  0  0
  7 10  2  0  0  0  0
  7 21  1  0  0  0  0
  8 25  1  0  0  0  0
  9 25  2  0  0  0  0
 10 26  1  0  0  0  0
 11 12  2  0  0  0  0
 11 27  1  0  0  0  0
 12 29  1  0  0  0  0
 13 18  2  0  0  0  0
 13 24  1  0  0  0  0
 14 18  1  0  0  0  0
 14 28  2  0  0  0  0
 15 23  1  0  0  0  0
 15 26  2  0  0  0  0
 16 29  2  0  0  0  0
 16 30  1  0  0  0  0
 17 32  1  0  0  0  0
 18 35  1  0  0  0  0
 19 32  1  0  0  0  0
 19 33  2  0  0  0  0
 19 36  1  0  0  0  0
 20 22  2  0  0  0  0
 20 42  1  0  0  0  0
 21 23  2  0  0  0  0
 21 43  1  0  0  0  0
 22 51  1  0  0  0  0
 23 44  1  0  0  0  0
 24 31  2  0  0  0  0
 24 73  1  0  0  0  0
 25 81  1  0  0  0  0
 26 82  1  0  0  0  0
 27 30  2  0  0  0  0
 27 81  1  0  0  0  0
 28 31  1  0  0  0  0
 28 83  1  0  0  0  0
 29 84  1  0  0  0  0
 30 85  1  0  0  0  0
 31 86  1  0  0  0  0
 32 65  2  0  0  0  0
 33 66  1  0  0  0  0
 33 69  1  0  0  0  0
 34 35  2  0  0  0  0
 36 70  1  0  0  0  0
 36 75  2  0  0  0  0
 37 52  1  0  0  0  0
 37 71  1  0  0  0  0
 37 76  2  0  0  0  0
 38 60  1  0  0  0  0
 38 61  1  0  0  0  0
 38 77  2  0  0  0  0
 39 62  1  0  0  0  0
 39 67  1  0  0  0  0
 39 78  2  0  0  0  0
 40 63  1  0  0  0  0
 40 72  1  0  0  0  0
 40 79  2  0  0  0  0
 41 68  1  0  0  0  0
 41 73  1  0  0  0  0
 41 80  2  0  0  0  0
 42 45  1  0  0  0  0
 43 52  1  0  0  0  0
 44 67  1  0  0  0  0
 45 47  1  0  0  0  0
 46 48  1  0  0  0  0
 46 49  1  0  0  0  0
 47 51  1  0  0  0  0
 48 53  1  0  0  0  0
 49 68  1  0  0  0  0
 50 53  1  0  0  0  0
 50 68  1  0  0  0  0
 51 71  1  0  0  0  0
 52 67  1  0  0  0  0
 53 66  1  0  0  0  0
 54 63  1  0  0  0  0
 55 64  1  0  0  0  0
 56 64  1  0  0  0  0
 57 64  1  0  0  0  0
 58 73  1  0  0  0  0
 59 74  1  0  0  0  0
 60 82  1  0  0  0  0
 61 83  1  0  0  0  0
 62 64  1  0  0  0  0
 62 72  1  0  0  0  0
 63 74  1  0  0  0  0
 65 66  1  0  0  0  0
M  CHG  1  74   1
M  ISO  4  41 100  60 101  73 100  82 101
M  END
> <Batch ID>
0114

> <Smiles>
C=Cc1cc(OCC(=O)[101CH2:1][101O:1]c2ccc3c(c2)CN(C(=O)C(NC(=O)C(C)NC)C(C)(C)C)C(C(=O)NC2CCCc4ccccc42)C3)c(F)c([100N:0](C)[100C:0](=O)N2CCCC(n3nc(-c4ccc(Oc5ccc(F)cc5F)cc4)c(C(N)=O)c3N)C2)c1

> <Shape>
0.230

> <Color>
0.074

> <Negative vol penalty>
0.000

$$$$

  -OEChem-04052301373D

 86 94  0     1  0  0  0  0  0999 V2000
  -21.4167  -32.8268   26.6730 C   0  0  0  0  0  0  0  0  0  0  0  0
  -21.6354  -31.5806   26.0944 C   0  0  0  0  0  0  0  0  0  0  0  0
  -23.0452   -9.9099   19.9568 C   0  0  0  0  0  0  0  0  0  0  0  0
  -23.8609   -9.8904   22.2309 C   0  0  0  0  0  0  0  0  0  0  0  0
  -29.8316  -17.3047   19.9460 C   0  0  0  0  0  0  0  0  0  0  0  0
  -21.9990  -33.9645   26.1160 C   0  0  0  0  0  0  0  0  0  0  0  0
  -22.4357  -31.4717   24.9577 C   0  0  0  0  0  0  0  0  0  0  0  0
  -26.1789  -26.8426   23.5204 C   0  0  0  0  0  0  0  0  0  0  0  0
  -22.2961   -8.7621   20.2157 C   0  0  0  0  0  0  0  0  0  0  0  0
  -23.1117   -8.7426   22.4898 C   0  0  0  0  0  0  0  0  0  0  0  0
  -29.1497  -18.4270   19.4760 C   0  0  0  0  0  0  0  0  0  0  0  0
  -26.0290  -25.7422   22.6775 C   0  0  0  0  0  0  0  0  0  0  0  0
  -19.8914   -7.9716   23.1647 C   0  0  0  0  0  0  0  0  0  0  0  0
  -19.1629   -7.9294   24.3535 C   0  0  0  0  0  0  0  0  0  0  0  0
  -27.7541  -18.4048   21.4481 C   0  0  0  0  0  0  0  0  0  0  0  0
  -27.1421  -26.9510   20.9114 C   0  0  0  0  0  0  0  0  0  0  0  0
  -20.4024   -5.9738   25.0437 C   0  0  0  0  0  0  0  0  0  0  0  0
  -23.8276  -10.4741   20.9644 C   0  0  0  0  0  0  0  0  0  0  0  0
  -29.4748  -16.7323   21.1670 C   0  0  0  0  0  0  0  0  0  0  0  0
  -28.4360  -17.2824   21.9180 C   0  0  0  0  0  0  0  0  0  0  0  0
  -24.1917  -12.9966   20.8564 C   0  0  0  0  0  0  0  0  0  0  0  0
  -22.8147  -33.8683   24.9775 C   0  0  0  0  0  0  0  0  0  0  0  0
  -26.8028  -28.0114   23.0609 C   0  0  0  0  0  0  0  0  0  0  0  0
  -23.0284  -32.6095   24.3841 C   0  0  0  0  0  0  0  0  0  0  0  0
  -27.3009  -28.0639   21.7512 C   0  0  0  0  0  0  0  0  0  0  0  0
  -22.3294   -8.1785   21.4821 C   0  0  0  0  0  0  0  0  0  0  0  0
  -28.1110  -18.9771   20.2271 C   0  0  0  0  0  0  0  0  0  0  0  0
  -26.5080  -25.7973   21.3719 C   0  0  0  0  0  0  0  0  0  0  0  0
  -20.8754   -7.0149   22.9154 C   0  0  0  0  0  0  0  0  0  0  0  0
  -19.4184   -6.9306   25.2930 C   0  0  0  0  0  0  0  0  0  0  0  0
  -21.1309   -6.0160   23.8549 C   0  0  0  0  0  0  0  0  0  0  0  0
  -24.6021  -11.6594   20.6975 C   0  0  0  0  0  0  0  0  0  0  0  0
  -25.2821  -13.7383   20.4725 C   0  0  0  0  0  0  0  0  0  0  0  0
  -28.0371  -16.7106   23.1981 C   0  0  0  0  0  0  0  0  0  0  0  0
  -28.0765  -17.3421   24.3913 C   0  0  0  0  0  0  0  0  0  0  0  0
  -30.2131  -15.5600   21.6224 C   0  0  0  0  0  0  0  0  0  0  0  0
  -22.9370  -13.5214   21.3104 C   0  0  0  0  0  0  0  0  0  0  0  0
  -30.8055  -14.6034   20.6595 C   0  0  0  0  0  0  0  0  0  0  0  0
  -25.8960  -31.0326   22.6686 C   0  0  0  0  0  0  0  0  0  0  0  0
  -26.8831  -22.3856   20.2028 C   0  0  0  0  0  0  0  0  0  0  0  0
  -29.0283  -31.4707   21.9480 C   0  0  0  0  0  0  0  0  0  0  0  0
  -31.9654  -30.1214   20.8526 C   0  0  0  0  0  0  0  0  0  0  0  0
  -23.3842  -35.1322   24.3835 C   0  0  0  0  0  0  0  0  0  0  0  0
  -26.9805  -29.1801   23.9909 C   0  0  0  0  0  0  0  0  0  0  0  0
  -27.9964  -29.2879   21.2158 C   0  0  0  0  0  0  0  0  0  0  0  0
  -24.5233  -34.8829   23.3984 C   0  0  0  0  0  0  0  0  0  0  0  0
  -29.5516  -12.3752   18.1456 C   0  0  0  0  0  0  0  0  0  0  0  0
  -24.1530  -33.7684   22.4250 C   0  0  0  0  0  0  0  0  0  0  0  0
  -28.1314  -12.0702   18.6208 C   0  0  0  0  0  0  0  0  0  0  0  0
  -30.5066  -12.5571   19.3209 C   0  0  0  0  0  0  0  0  0  0  0  0
  -28.6426  -13.2961   20.7797 C   0  0  0  0  0  0  0  0  0  0  0  0
  -23.9105  -32.4474   23.1652 C   0  0  1  0  0  0  0  0  0  0  0  0
  -27.1734  -30.5037   23.2571 C   0  0  1  0  0  0  0  0  0  0  0  0
  -27.6435  -13.1333   19.6210 C   0  0  2  0  0  0  0  0  0  0  0  0
  -27.6654  -16.7121   25.6823 C   0  0  0  0  0  0  0  0  0  0  0  0
  -34.3420  -30.7355   20.3313 C   0  0  0  0  0  0  0  0  0  0  0  0
  -28.1178  -32.7736   19.3435 C   0  0  0  0  0  0  0  0  0  0  0  0
  -30.4483  -32.4969   18.4716 C   0  0  0  0  0  0  0  0  0  0  0  0
  -30.0288  -33.9249   20.4735 C   0  0  0  0  0  0  0  0  0  0  0  0
  -33.0170  -28.2647   22.9034 C   0  0  0  0  0  0  0  0  0  0  0  0
  -26.9063  -20.9652   20.7290 C   0  0  0  0  0  0  0  0  0  0  0  0
  -26.3476  -23.4344   21.1558 C   0  0  0  0  0  0  0  0  0  1  0  0
  -29.8531  -31.4116   20.6850 C   0  0  1  0  0  0  0  0  0  0  0  0
  -33.3814  -30.2189   21.3910 C   0  0  2  0  0  0  0  0  0  0  0  0
  -29.5972  -32.6292   19.7526 C   0  0  0  0  0  0  0  0  0  0  0  0
  -25.8553  -11.5546   20.2476 N   0  0  0  0  0  0  0  0  0  0  0  0
  -30.4002  -15.2806   22.8818 N   0  0  0  0  0  0  0  0  0  0  0  0
  -26.2418  -12.8355   20.1204 N   0  0  0  0  0  0  0  0  0  0  0  0
  -29.9963  -13.5459   20.2685 N   0  0  0  0  0  0  0  0  0  0  0  0
  -28.1402  -30.4069   22.1616 N   0  0  0  0  0  0  0  0  0  0  0  0
  -25.5040  -15.0682   20.4050 N   0  0  0  0  0  0  0  0  0  0  0  0
  -21.9246  -12.6195   21.6651 N   0  0  0  0  0  0  0  0  0  0  0  0
  -25.1695  -31.8334   23.5290 N   0  0  0  0  0  0  0  0  0  0  0  0
  -31.2410  -31.2660   21.1103 N   0  0  0  0  0  0  0  0  0  0  0  0
  -33.8566  -28.8810   21.8440 N   0  3  0  0  0  0  0  0  0  0  0  0
  -22.7146  -14.7538   21.3834 O   0  0  0  0  0  0  0  0  0  0  0  0
  -31.9525  -14.8493   20.3098 O   0  0  0  0  0  0  0  0  0  0  0  0
  -25.5928  -30.7372   21.5186 O   0  0  0  0  0  0  0  0  0  0  0  0
  -27.2744  -22.6695   19.0717 O   0  0  0  0  0  0  0  0  0  0  0  0
  -29.1719  -32.4218   22.7202 O   0  0  0  0  0  0  0  0  0  0  0  0
  -31.5451  -29.1305   20.2593 O   0  0  0  0  0  0  0  0  0  0  0  0
  -21.5983   -7.0586   21.7351 O   0  0  0  0  0  0  0  0  0  0  0  0
  -27.4392  -20.0834   19.7635 O   0  0  0  0  0  0  0  0  0  0  0  0
  -26.3625  -24.7249   20.5470 O   0  0  0  0  0  0  0  0  0  1  0  0
  -18.7198   -6.8911   26.4351 F   0  0  0  0  0  0  0  0  0  0  0  0
  -22.0758   -5.0948   23.6215 F   0  0  0  0  0  0  0  0  0  0  0  0
  1  2  1  0  0  0  0
  1  6  2  0  0  0  0
  2  7  2  0  0  0  0
  3  9  2  0  0  0  0
  3 18  1  0  0  0  0
  4 10  1  0  0  0  0
  4 18  2  0  0  0  0
  5 11  2  0  0  0  0
  5 19  1  0  0  0  0
  6 22  1  0  0  0  0
  7 24  1  0  0  0  0
  8 12  2  0  0  0  0
  8 23  1  0  0  0  0
  9 26  1  0  0  0  0
 10 26  2  0  0  0  0
 11 27  1  0  0  0  0
 12 28  1  0  0  0  0
 13 14  2  0  0  0  0
 13 29  1  0  0  0  0
 14 30  1  0  0  0  0
 15 20  1  0  0  0  0
 15 27  2  0  0  0  0
 16 25  1  0  0  0  0
 16 28  2  0  0  0  0
 17 30  2  0  0  0  0
 17 31  1  0  0  0  0
 18 32  1  0  0  0  0
 19 20  2  0  0  0  0
 19 36  1  0  0  0  0
 20 34  1  0  0  0  0
 21 32  1  0  0  0  0
 21 33  2  0  0  0  0
 21 37  1  0  0  0  0
 22 24  2  0  0  0  0
 22 43  1  0  0  0  0
 23 25  2  0  0  0  0
 23 44  1  0  0  0  0
 24 52  1  0  0  0  0
 25 45  1  0  0  0  0
 26 82  1  0  0  0  0
 27 83  1  0  0  0  0
 28 84  1  0  0  0  0
 29 31  2  0  0  0  0
 29 82  1  0  0  0  0
 30 85  1  0  0  0  0
 31 86  1  0  0  0  0
 32 66  2  0  0  0  0
 33 68  1  0  0  0  0
 33 71  1  0  0  0  0
 34 35  2  0  0  0  0
 35 55  1  0  0  0  0
 36 38  1  0  0  0  0
 36 67  2  0  0  0  0
 37 72  1  0  0  0  0
 37 76  2  0  0  0  0
 38 69  1  0  0  0  0
 38 77  2  0  0  0  0
 39 53  1  0  0  0  0
 39 73  1  0  0  0  0
 39 78  2  0  0  0  0
 40 61  1  0  0  0  0
 40 62  1  0  0  0  0
 40 79  2  0  0  0  0
 41 63  1  0  0  0  0
 41 70  1  0  0  0  0
 41 80  2  0  0  0  0
 42 64  1  0  0  0  0
 42 74  1  0  0  0  0
 42 81  2  0  0  0  0
 43 46  1  0  0  0  0
 44 53  1  0  0  0  0
 45 70  1  0  0  0  0
 46 48  1  0  0  0  0
 47 49  1  0  0  0  0
 47 50  1  0  0  0  0
 48 52  1  0  0  0  0
 49 54  1  0  0  0  0
 50 69  1  0  0  0  0
 51 54  1  0  0  0  0
 51 69  1  0  0  0  0
 52 73  1  0  0  0  0
 53 70  1  0  0  0  0
 54 68  1  0  0  0  0
 56 64  1  0  0  0  0
 57 65  1  0  0  0  0
 58 65  1  0  0  0  0
 59 65  1  0  0  0  0
 60 75  1  0  0  0  0
 61 83  1  0  0  0  0
 62 84  1  0  0  0  0
 63 65  1  0  0  0  0
 63 74  1  0  0  0  0
 64 75  1  0  0  0  0
 66 68  1  0  0  0  0
M  CHG  1  75   1
M  ISO  4  36 100  38 100  62 101  84 101
M  END
> <Batch ID>
0114

> <Smiles>
CC=Cc1cc(OCC(=O)[101CH2:1][101O:1]c2ccc3c(c2)CN(C(=O)C(NC(=O)C(C)NC)C(C)(C)C)C(C(=O)NC2CCCc4ccccc42)C3)ccc1[100C:0](=N)[100C:0](=O)N1CCCC(n2nc(-c3ccc(Oc4ccc(F)cc4F)cc3)c(C(N)=O)c2N)C1

> <Shape>
0.282

> <Color>
0.183

> <Negative vol penalty>
0.000

$$$$

  -OEChem-04052301373D

 83 91  0     1  0  0  0  0  0999 V2000
  -22.6524  -23.8383   19.5311 C   0  0  0  0  0  0  0  0  0  0  0  0
  -23.6215  -22.8792   19.2590 C   0  0  0  0  0  0  0  0  0  0  0  0
  -26.5756  -27.0609   22.4976 C   0  0  0  0  0  0  0  0  0  0  0  0
  -25.1314  -26.9554   20.5636 C   0  0  0  0  0  0  0  0  0  0  0  0
  -21.6404  -23.5605   20.4475 C   0  0  0  0  0  0  0  0  0  0  0  0
  -23.5720  -21.6379   19.8943 C   0  0  0  0  0  0  0  0  0  0  0  0
  -26.7844  -18.2284   18.3909 C   0  0  0  0  0  0  0  0  0  0  0  0
  -25.5912  -27.7615   23.1945 C   0  0  0  0  0  0  0  0  0  0  0  0
  -24.1469  -27.6560   21.2606 C   0  0  0  0  0  0  0  0  0  0  0  0
  -28.1469  -18.2981   18.6778 C   0  0  0  0  0  0  0  0  0  0  0  0
  -21.1148  -29.1021   22.6509 C   0  0  0  0  0  0  0  0  0  0  0  0
  -19.8026  -28.6368   22.5645 C   0  0  0  0  0  0  0  0  0  0  0  0
  -27.8684  -16.6125   20.3809 C   0  0  0  0  0  0  0  0  0  0  0  0
  -35.8543  -23.1646   21.7743 C   0  0  0  0  0  0  0  0  0  0  0  0
  -20.4887  -26.5251   23.5169 C   0  0  0  0  0  0  0  0  0  0  0  0
  -26.3457  -26.6579   21.1821 C   0  0  0  0  0  0  0  0  0  0  0  0
  -27.5361  -24.5387   20.4077 C   0  0  0  0  0  0  0  0  0  0  0  0
  -21.5864  -22.3195   21.1032 C   0  0  0  0  0  0  0  0  0  0  0  0
  -25.9502  -17.3566   19.1055 C   0  0  0  0  0  0  0  0  0  0  0  0
  -22.5448  -21.3298   20.8045 C   0  0  0  0  0  0  0  0  0  0  0  0
  -26.4961  -16.5318   20.0994 C   0  0  0  0  0  0  0  0  0  0  0  0
  -35.4984  -21.8911   22.2790 C   0  0  0  0  0  0  0  0  0  0  0  0
  -24.3769  -28.0590   22.5760 C   0  0  0  0  0  0  0  0  0  0  0  0
  -28.6886  -17.4922   19.6749 C   0  0  0  0  0  0  0  0  0  0  0  0
  -22.1139  -28.2788   23.1701 C   0  0  0  0  0  0  0  0  0  0  0  0
  -19.4896  -27.3484   22.9976 C   0  0  0  0  0  0  0  0  0  0  0  0
  -21.8009  -26.9904   23.6032 C   0  0  0  0  0  0  0  0  0  0  0  0
  -27.3624  -25.9347   20.4614 C   0  0  0  0  0  0  0  0  0  0  0  0
  -34.9619  -23.4381   20.7639 C   0  0  0  0  0  0  0  0  0  0  0  0
  -28.6314  -24.3599   19.5984 C   0  0  0  0  0  0  0  0  0  0  0  0
  -34.4138  -21.4772   21.5413 C   0  0  0  0  0  0  0  0  0  0  0  0
  -34.8248  -24.6030   19.8718 C   0  0  0  0  0  0  0  0  0  0  0  0
  -26.7753  -23.4968   21.0332 C   0  0  0  0  0  0  0  0  0  0  0  0
  -23.4327  -17.7199   21.0118 C   0  0  0  0  0  0  0  0  0  0  0  0
  -31.8134  -18.9956   20.7147 C   0  0  0  0  0  0  0  0  0  0  0  0
  -23.3698  -14.4786   20.8989 C   0  0  0  0  0  0  0  0  0  0  0  0
  -25.0703  -11.5638   20.3899 C   0  0  0  0  0  0  0  0  0  0  0  0
  -33.8338  -25.7863   18.1661 C   0  0  0  0  0  0  0  0  0  0  0  0
  -20.4646  -22.0691   22.0800 C   0  0  0  0  0  0  0  0  0  0  0  0
  -24.4873  -17.2740   18.7657 C   0  0  0  0  0  0  0  0  0  0  0  0
  -25.6471  -15.5644   20.8816 C   0  0  0  0  0  0  0  0  0  0  0  0
  -20.7478  -20.9060   23.0251 C   0  0  0  0  0  0  0  0  0  0  0  0
  -31.1223  -27.6105   16.6415 C   0  0  0  0  0  0  0  0  0  0  0  0
  -21.2092  -19.6924   22.2320 C   0  0  0  0  0  0  0  0  0  0  0  0
  -29.9239  -27.2482   17.5186 C   0  0  0  0  0  0  0  0  0  0  0  0
  -32.4064  -27.7064   17.4597 C   0  0  0  0  0  0  0  0  0  0  0  0
  -31.5109  -26.1109   19.1334 C   0  0  0  0  0  0  0  0  0  0  0  0
  -22.5288  -19.9838   21.5062 C   0  0  1  0  0  0  0  0  0  0  0  0
  -23.6389  -16.7222   19.9073 C   0  0  1  0  0  0  0  0  0  0  0  0
  -30.2023  -25.9745   18.3364 C   0  0  1  0  0  0  0  0  0  0  0  0
  -36.1591  -21.1582   23.3740 C   0  0  0  0  0  0  0  0  0  0  0  0
  -24.7597   -9.0737   20.4043 C   0  0  0  0  0  0  0  0  0  0  0  0
  -23.3853  -14.4968   23.9500 C   0  0  0  0  0  0  0  0  0  0  0  0
  -24.0278  -12.0777   23.8917 C   0  0  0  0  0  0  0  0  0  0  0  0
  -21.8485  -12.8112   22.9246 C   0  0  0  0  0  0  0  0  0  0  0  0
  -25.7991  -11.3399   17.5302 C   0  0  0  0  0  0  0  0  0  0  0  0
  -30.6658  -18.8121   19.7429 C   0  0  0  0  0  0  0  0  0  1  0  0
  -32.5733  -20.3011   20.6005 C   0  0  0  0  0  0  0  0  0  0  0  0
  -23.9942  -13.3683   21.7090 C   0  0  1  0  0  0  0  0  0  0  0  0
  -24.7406  -10.3373   19.5583 C   0  0  2  0  0  0  0  0  0  0  0  0
  -23.3298  -13.2080   23.1056 C   0  0  0  0  0  0  0  0  0  0  0  0
  -28.2745  -26.5958   19.7436 N   0  0  0  0  0  0  0  0  0  0  0  0
  -33.9021  -24.6632   18.9683 N   0  0  0  0  0  0  0  0  0  0  0  0
  -29.0318  -25.6109   19.2313 N   0  0  0  0  0  0  0  0  0  0  0  0
  -24.2213  -15.5249   20.5167 N   0  0  0  0  0  0  0  0  0  0  0  0
  -32.6195  -26.4921   18.2484 N   0  0  0  0  0  0  0  0  0  0  0  0
  -29.2814  -23.2561   19.1723 N   0  0  0  0  0  0  0  0  0  0  0  0
  -25.6809  -23.8560   21.8318 N   0  0  0  0  0  0  0  0  0  0  0  0
  -22.8231  -18.8914   20.6051 N   0  0  0  0  0  0  0  0  0  0  0  0
  -23.9324  -12.1715   20.8770 N   0  0  0  0  0  0  0  0  0  0  0  0
  -25.7292  -10.1789   18.4544 N   0  3  0  0  0  0  0  0  0  0  0  0
  -27.0675  -22.2841   20.9016 O   0  0  0  0  0  0  0  0  0  0  0  0
  -23.7981  -17.4463   22.1490 O   0  0  0  0  0  0  0  0  0  0  0  0
  -32.1101  -18.1374   21.5445 O   0  0  0  0  0  0  0  0  0  0  0  0
  -22.1723  -14.4163   20.6095 O   0  0  0  0  0  0  0  0  0  0  0  0
  -26.2221  -11.9426   20.5905 O   0  0  0  0  0  0  0  0  0  0  0  0
  -34.7508  -26.1642   17.4330 O   0  0  0  0  0  0  0  0  0  0  0  0
  -34.0804  -22.4146   20.6156 O   0  0  0  0  0  0  0  0  0  0  0  0
  -23.4160  -28.7424   23.2559 O   0  0  0  0  0  0  0  0  0  0  0  0
  -30.0182  -17.5587   19.9574 O   0  0  0  0  0  0  0  0  0  1  0  0
  -33.6229  -20.3527   21.5435 O   0  0  0  0  0  0  0  0  0  0  0  0
  -18.2292  -26.9023   22.9161 F   0  0  0  0  0  0  0  0  0  0  0  0
  -22.7563  -26.1953   24.1041 F   0  0  0  0  0  0  0  0  0  0  0  0
  1  2  1  0  0  0  0
  1  5  2  0  0  0  0
  2  6  2  0  0  0  0
  3  8  2  0  0  0  0
  3 16  1  0  0  0  0
  4  9  1  0  0  0  0
  4 16  2  0  0  0  0
  5 18  1  0  0  0  0
  6 20  1  0  0  0  0
  7 10  2  0  0  0  0
  7 19  1  0  0  0  0
  8 23  1  0  0  0  0
  9 23  2  0  0  0  0
 10 24  1  0  0  0  0
 11 12  2  0  0  0  0
 11 25  1  0  0  0  0
 12 26  1  0  0  0  0
 13 21  1  0  0  0  0
 13 24  2  0  0  0  0
 14 22  1  0  0  0  0
 14 29  2  0  0  0  0
 15 26  2  0  0  0  0
 15 27  1  0  0  0  0
 16 28  1  0  0  0  0
 17 28  1  0  0  0  0
 17 30  2  0  0  0  0
 17 33  1  0  0  0  0
 18 20  2  0  0  0  0
 18 39  1  0  0  0  0
 19 21  2  0  0  0  0
 19 40  1  0  0  0  0
 20 48  1  0  0  0  0
 21 41  1  0  0  0  0
 22 31  2  0  0  0  0
 22 51  1  0  0  0  0
 23 79  1  0  0  0  0
 24 80  1  0  0  0  0
 25 27  2  0  0  0  0
 25 79  1  0  0  0  0
 26 82  1  0  0  0  0
 27 83  1  0  0  0  0
 28 62  2  0  0  0  0
 29 32  1  0  0  0  0
 29 78  1  0  0  0  0
 30 64  1  0  0  0  0
 30 67  1  0  0  0  0
 31 78  1  0  0  0  0
 31 81  1  0  0  0  0
 32 63  2  0  0  0  0
 33 68  1  0  0  0  0
 33 72  2  0  0  0  0
 34 49  1  0  0  0  0
 34 69  1  0  0  0  0
 34 73  2  0  0  0  0
 35 57  1  0  0  0  0
 35 58  1  0  0  0  0
 35 74  2  0  0  0  0
 36 59  1  0  0  0  0
 36 65  1  0  0  0  0
 36 75  2  0  0  0  0
 37 60  1  0  0  0  0
 37 70  1  0  0  0  0
 37 76  2  0  0  0  0
 38 63  1  0  0  0  0
 38 66  1  0  0  0  0
 38 77  2  0  0  0  0
 39 42  1  0  0  0  0
 40 49  1  0  0  0  0
 41 65  1  0  0  0  0
 42 44  1  0  0  0  0
 43 45  1  0  0  0  0
 43 46  1  0  0  0  0
 44 48  1  0  0  0  0
 45 50  1  0  0  0  0
 46 66  1  0  0  0  0
 47 50  1  0  0  0  0
 47 66  1  0  0  0  0
 48 69  1  0  0  0  0
 49 65  1  0  0  0  0
 50 64  1  0  0  0  0
 52 60  1  0  0  0  0
 53 61  1  0  0  0  0
 54 61  1  0  0  0  0
 55 61  1  0  0  0  0
 56 71  1  0  0  0  0
 57 80  1  0  0  0  0
 58 81  1  0  0  0  0
 59 61  1  0  0  0  0
 59 70  1  0  0  0  0
 60 71  1  0  0  0  0
 62 64  1  0  0  0  0
M  CHG  1  71   1
M  ISO  4  38 100  57 101  63 100  80 101
M  END
> <Batch ID>
0114

> <Smiles>
CNC(C)C(=O)NC(C(=O)N1Cc2cc([101O:1][101CH2:1]C(=O)COc3oc(C=[100N:0][100C:0](=O)N4CCCC(n5nc(-c6ccc(Oc7ccc(F)cc7F)cc6)c(C(N)=O)c5N)C4)cc3C)ccc2CC1C(=O)NC1CCCc2ccccc21)C(C)(C)C

> <Shape>
0.168

> <Color>
0.103

> <Negative vol penalty>
0.000

$$$$

  -OEChem-04052301373D

 85 93  0     1  0  0  0  0  0999 V2000
  -24.9552  -37.0953   27.5633 C   0  0  0  0  0  0  0  0  0  0  0  0
  -24.9369  -35.7364   27.8606 C   0  0  0  0  0  0  0  0  0  0  0  0
  -26.4964  -13.0781   20.2350 C   0  0  0  0  0  0  0  0  0  0  0  0
  -27.2534  -12.1569   18.1338 C   0  0  0  0  0  0  0  0  0  0  0  0
  -24.7570  -37.5234   26.2513 C   0  0  0  0  0  0  0  0  0  0  0  0
  -24.7192  -34.8047   26.8462 C   0  0  0  0  0  0  0  0  0  0  0  0
  -27.1765  -29.2134   26.3934 C   0  0  0  0  0  0  0  0  0  0  0  0
  -25.3260  -12.3249   20.1436 C   0  0  0  0  0  0  0  0  0  0  0  0
  -26.0830  -11.4036   18.0424 C   0  0  0  0  0  0  0  0  0  0  0  0
  -26.6916  -27.9468   26.7163 C   0  0  0  0  0  0  0  0  0  0  0  0
  -24.3733   -9.1265   20.6875 C   0  0  0  0  0  0  0  0  0  0  0  0
  -23.9453   -8.4525   21.8312 C   0  0  0  0  0  0  0  0  0  0  0  0
  -26.0048  -27.6321   24.4254 C   0  0  0  0  0  0  0  0  0  0  0  0
  -27.7608  -22.0463   23.1396 C   0  0  0  0  0  0  0  0  0  0  0  0
  -21.8732   -9.6942   21.7875 C   0  0  0  0  0  0  0  0  0  0  0  0
  -27.4601  -12.9942   19.2301 C   0  0  0  0  0  0  0  0  0  0  0  0
  -29.8816  -13.3901   19.9279 C   0  0  0  0  0  0  0  0  0  0  0  0
  -24.5463  -36.5960   25.2187 C   0  0  0  0  0  0  0  0  0  0  0  0
  -27.0691  -29.7041   25.0841 C   0  0  0  0  0  0  0  0  0  0  0  0
  -24.5166  -35.2209   25.5194 C   0  0  0  0  0  0  0  0  0  0  0  0
  -26.4914  -28.9043   24.0878 C   0  0  0  0  0  0  0  0  0  0  0  0
  -25.1193  -11.4876   19.0474 C   0  0  0  0  0  0  0  0  0  0  0  0
  -26.1030  -27.1571   25.7329 C   0  0  0  0  0  0  0  0  0  0  0  0
  -23.5514  -10.0845   20.0938 C   0  0  0  0  0  0  0  0  0  0  0  0
  -27.1441  -21.3645   24.2157 C   0  0  0  0  0  0  0  0  0  0  0  0
  -22.6952   -8.7363   22.3812 C   0  0  0  0  0  0  0  0  0  0  0  0
  -22.3013  -10.3683   20.6438 C   0  0  0  0  0  0  0  0  0  0  0  0
  -28.6691  -13.7725   19.3236 C   0  0  0  0  0  0  0  0  0  0  0  0
  -28.0679  -21.0855   22.2044 C   0  0  0  0  0  0  0  0  0  0  0  0
  -27.1180  -20.0357   23.8613 C   0  0  0  0  0  0  0  0  0  0  0  0
  -30.7095  -14.4716   19.7511 C   0  0  0  0  0  0  0  0  0  0  0  0
  -26.5997  -18.9500   24.6064 C   0  0  0  0  0  0  0  0  0  0  0  0
  -28.7155  -21.1803   20.8840 C   0  0  0  0  0  0  0  0  0  0  0  0
  -30.2287  -12.1665   20.5899 C   0  0  0  0  0  0  0  0  0  0  0  0
  -26.0570  -17.7791   24.1247 C   0  0  0  0  0  0  0  0  0  0  0  0
  -25.6019  -32.1765   23.7285 C   0  0  0  0  0  0  0  0  0  0  0  0
  -27.1860  -31.1674   21.0837 C   0  0  0  0  0  0  0  0  0  0  0  0
  -28.7088  -28.6065   19.4195 C   0  0  0  0  0  0  0  0  0  0  0  0
  -29.5320  -20.2999   18.9220 C   0  0  0  0  0  0  0  0  0  0  0  0
  -24.2897  -37.1088   23.8237 C   0  0  0  0  0  0  0  0  0  0  0  0
  -27.6212  -31.0618   24.7461 C   0  0  0  0  0  0  0  0  0  0  0  0
  -26.3704  -29.3766   22.6627 C   0  0  0  0  0  0  0  0  0  0  0  0
  -24.4386  -36.0393   22.7447 C   0  0  0  0  0  0  0  0  0  0  0  0
  -31.5074  -18.1488   16.8065 C   0  0  0  0  0  0  0  0  0  0  0  0
  -23.7127  -34.7620   23.1553 C   0  0  0  0  0  0  0  0  0  0  0  0
  -31.0862  -16.7469   17.2470 C   0  0  0  0  0  0  0  0  0  0  0  0
  -30.3414  -19.1304   16.8724 C   0  0  0  0  0  0  0  0  0  0  0  0
  -29.2581  -17.7916   18.6564 C   0  0  0  0  0  0  0  0  0  0  0  0
  -24.3082  -34.1785   24.4423 C   0  0  1  0  0  0  0  0  0  0  0  0
  -26.9953  -31.6662   23.4930 C   0  0  1  0  0  0  0  0  0  0  0  0
  -30.4171  -16.7805   18.6327 C   0  0  1  0  0  0  0  0  0  0  0  0
  -25.5241  -16.7108   25.0415 C   0  0  0  0  0  0  0  0  0  0  0  0
  -25.9579  -17.4486   22.6605 C   0  0  0  0  0  0  0  0  0  0  0  0
  -29.8757  -28.0775   17.2618 C   0  0  0  0  0  0  0  0  0  0  0  0
  -24.4965  -31.1209   19.6435 C   0  0  0  0  0  0  0  0  0  0  0  0
  -25.5541  -29.7166   17.8609 C   0  0  0  0  0  0  0  0  0  0  0  0
  -26.3912  -32.0277   18.2862 C   0  0  0  0  0  0  0  0  0  0  0  0
  -31.2139  -27.8801   20.8180 C   0  0  0  0  0  0  0  0  0  0  0  0
  -26.1745  -23.7218   26.8753 C   0  0  0  0  0  0  0  0  0  0  0  0
  -26.2842  -25.2213   27.1026 C   0  0  0  0  0  0  0  0  0  1  0  0
  -26.7965  -23.2997   25.5534 C   0  0  0  0  0  0  0  0  0  0  0  0
  -26.8879  -30.2015   19.9625 C   0  0  1  0  0  0  0  0  0  0  0  0
  -30.0460  -28.5231   18.7058 C   0  0  2  0  0  0  0  0  0  0  0  0
  -25.8328  -30.7583   18.9654 C   0  0  0  0  0  0  0  0  0  0  0  0
  -28.7179  -15.0011   18.8020 N   0  0  0  0  0  0  0  0  0  0  0  0
  -28.9179  -20.1362   20.1490 N   0  0  0  0  0  0  0  0  0  0  0  0
  -29.9711  -15.4001   19.0781 N   0  0  0  0  0  0  0  0  0  0  0  0
  -26.9194  -30.7138   22.3834 N   0  0  0  0  0  0  0  0  0  0  0  0
  -29.7105  -19.1099   18.1928 N   0  0  0  0  0  0  0  0  0  0  0  0
  -31.9898  -14.7096   20.1072 N   0  0  0  0  0  0  0  0  0  0  0  0
  -29.2589  -11.1590   20.6831 N   0  0  0  0  0  0  0  0  0  0  0  0
  -25.5484  -33.4888   24.1580 N   0  0  0  0  0  0  0  0  0  0  0  0
  -28.1724  -29.8750   19.3527 N   0  0  0  0  0  0  0  0  0  0  0  0
  -30.9413  -27.5514   19.3951 N   0  3  0  0  0  0  0  0  0  0  0  0
  -31.3599  -11.9788   21.0985 O   0  0  0  0  0  0  0  0  0  0  0  0
  -24.6459  -31.4351   23.5335 O   0  0  0  0  0  0  0  0  0  0  0  0
  -27.6453  -32.2807   20.8168 O   0  0  0  0  0  0  0  0  0  0  0  0
  -28.1900  -27.6418   19.9771 O   0  0  0  0  0  0  0  0  0  0  0  0
  -29.8981  -21.3901   18.4765 O   0  0  0  0  0  0  0  0  0  0  0  0
  -27.6792  -19.8572   22.6366 O   0  0  0  0  0  0  0  0  0  0  0  0
  -23.9774  -10.7522   18.9580 O   0  0  0  0  0  0  0  0  0  0  0  0
  -25.6284  -25.9206   26.0456 O   0  0  0  0  0  0  0  0  0  1  0  0
  -26.6651  -21.8947   25.3853 O   0  0  0  0  0  0  0  0  0  0  0  0
  -22.2837   -8.0878   23.4786 F   0  0  0  0  0  0  0  0  0  0  0  0
  -21.5068  -11.2867   20.0772 F   0  0  0  0  0  0  0  0  0  0  0  0
  1  2  1  0  0  0  0
  1  5  2  0  0  0  0
  2  6  2  0  0  0  0
  3  8  2  0  0  0  0
  3 16  1  0  0  0  0
  4  9  1  0  0  0  0
  4 16  2  0  0  0  0
  5 18  1  0  0  0  0
  6 20  1  0  0  0  0
  7 10  2  0  0  0  0
  7 19  1  0  0  0  0
  8 22  1  0  0  0  0
  9 22  2  0  0  0  0
 10 23  1  0  0  0  0
 11 12  2  0  0  0  0
 11 24  1  0  0  0  0
 12 26  1  0  0  0  0
 13 21  1  0  0  0  0
 13 23  2  0  0  0  0
 14 25  1  0  0  0  0
 14 29  2  0  0  0  0
 15 26  2  0  0  0  0
 15 27  1  0  0  0  0
 16 28  1  0  0  0  0
 17 28  1  0  0  0  0
 17 31  2  0  0  0  0
 17 34  1  0  0  0  0
 18 20  2  0  0  0  0
 18 40  1  0  0  0  0
 19 21  2  0  0  0  0
 19 41  1  0  0  0  0
 20 49  1  0  0  0  0
 21 42  1  0  0  0  0
 22 81  1  0  0  0  0
 23 82  1  0  0  0  0
 24 27  2  0  0  0  0
 24 81  1  0  0  0  0
 25 30  2  0  0  0  0
 25 83  1  0  0  0  0
 26 84  1  0  0  0  0
 27 85  1  0  0  0  0
 28 65  2  0  0  0  0
 29 33  1  0  0  0  0
 29 80  1  0  0  0  0
 30 32  1  0  0  0  0
 30 80  1  0  0  0  0
 31 67  1  0  0  0  0
 31 70  1  0  0  0  0
 32 35  2  0  0  0  0
 33 66  2  0  0  0  0
 34 71  1  0  0  0  0
 34 75  2  0  0  0  0
 35 52  1  0  0  0  0
 35 53  1  0  0  0  0
 36 50  1  0  0  0  0
 36 72  1  0  0  0  0
 36 76  2  0  0  0  0
 37 62  1  0  0  0  0
 37 68  1  0  0  0  0
 37 77  2  0  0  0  0
 38 63  1  0  0  0  0
 38 73  1  0  0  0  0
 38 78  2  0  0  0  0
 39 66  1  0  0  0  0
 39 69  1  0  0  0  0
 39 79  2  0  0  0  0
 40 43  1  0  0  0  0
 41 50  1  0  0  0  0
 42 68  1  0  0  0  0
 43 45  1  0  0  0  0
 44 46  1  0  0  0  0
 44 47  1  0  0  0  0
 45 49  1  0  0  0  0
 46 51  1  0  0  0  0
 47 69  1  0  0  0  0
 48 51  1  0  0  0  0
 48 69  1  0  0  0  0
 49 72  1  0  0  0  0
 50 68  1  0  0  0  0
 51 67  1  0  0  0  0
 54 63  1  0  0  0  0
 55 64  1  0  0  0  0
 56 64  1  0  0  0  0
 57 64  1  0  0  0  0
 58 74  1  0  0  0  0
 59 60  1  0  0  0  0
 59 61  1  0  0  0  0
 60 82  1  0  0  0  0
 61 83  1  0  0  0  0
 62 64  1  0  0  0  0
 62 73  1  0  0  0  0
 63 74  1  0  0  0  0
 65 67  1  0  0  0  0
M  CHG  1  74   1
M  ISO  4  39 100  60 101  66 100  82 101
M  END
> <Batch ID>
0114

> <Smiles>
CNC(C)C(=O)NC(C(=O)N1Cc2cc([101O:1][101CH2:1]CCOc3cc(C=[100N:0][100C:0](=O)N4CCCC(n5nc(-c6ccc(Oc7ccc(F)cc7F)cc6)c(C(N)=O)c5N)C4)oc3C=C(C)C)ccc2CC1C(=O)NC1CCCc2ccccc21)C(C)(C)C

> <Shape>
0.251

> <Color>
0.079

> <Negative vol penalty>
0.000

$$$$

  -OEChem-04052301373D

 87 95  0     1  0  0  0  0  0999 V2000
  -34.6488  -33.3700   18.3558 C   0  0  0  0  0  0  0  0  0  0  0  0
  -34.0782  -32.1132   18.1823 C   0  0  0  0  0  0  0  0  0  0  0  0
  -23.2484   -9.6912   19.8902 C   0  0  0  0  0  0  0  0  0  0  0  0
  -24.3918   -9.2817   21.9787 C   0  0  0  0  0  0  0  0  0  0  0  0
  -34.3935  -34.0958   19.5185 C   0  0  0  0  0  0  0  0  0  0  0  0
  -33.2526  -31.5809   19.1721 C   0  0  0  0  0  0  0  0  0  0  0  0
  -28.3355  -28.0251   18.3452 C   0  0  0  0  0  0  0  0  0  0  0  0
  -22.6620   -8.4277   19.9634 C   0  0  0  0  0  0  0  0  0  0  0  0
  -23.8055   -8.0182   22.0520 C   0  0  0  0  0  0  0  0  0  0  0  0
  -28.1530  -26.6449   18.4186 C   0  0  0  0  0  0  0  0  0  0  0  0
  -22.3278   -4.8261   22.9714 C   0  0  0  0  0  0  0  0  0  0  0  0
  -21.7933   -4.4285   24.1969 C   0  0  0  0  0  0  0  0  0  0  0  0
  -27.2712  -18.1878   22.7356 C   0  0  0  0  0  0  0  0  0  0  0  0
  -29.2013  -17.7235   20.7756 C   0  0  0  0  0  0  0  0  0  0  0  0
  -27.3793  -26.8741   20.6920 C   0  0  0  0  0  0  0  0  0  0  0  0
  -20.2774   -6.3091   24.1459 C   0  0  0  0  0  0  0  0  0  0  0  0
  -24.1134  -10.1182   20.8978 C   0  0  0  0  0  0  0  0  0  0  0  0
  -28.1237  -17.0890   22.8428 C   0  0  0  0  0  0  0  0  0  0  0  0
  -29.0888  -16.8569   21.8628 C   0  0  0  0  0  0  0  0  0  0  0  0
  -24.2091  -12.6290   21.3388 C   0  0  0  0  0  0  0  0  0  0  0  0
  -33.5567  -33.5763   20.5187 C   0  0  0  0  0  0  0  0  0  0  0  0
  -28.0511  -28.8404   19.4501 C   0  0  0  0  0  0  0  0  0  0  0  0
  -32.9869  -32.2999   20.3499 C   0  0  0  0  0  0  0  0  0  0  0  0
  -27.5566  -28.2647   20.6292 C   0  0  0  0  0  0  0  0  0  0  0  0
  -22.9405   -7.5912   21.0443 C   0  0  0  0  0  0  0  0  0  0  0  0
  -27.6776  -26.0689   19.5931 C   0  0  0  0  0  0  0  0  0  0  0  0
  -21.8372   -5.9653   22.3332 C   0  0  0  0  0  0  0  0  0  0  0  0
  -27.3836  -19.0544   21.6483 C   0  0  0  0  0  0  0  0  0  0  0  0
  -28.3487  -18.8223   20.6684 C   0  0  0  0  0  0  0  0  0  0  0  0
  -20.7681   -5.1699   24.7841 C   0  0  0  0  0  0  0  0  0  0  0  0
  -20.8120   -6.7068   22.9205 C   0  0  0  0  0  0  0  0  0  0  0  0
  -24.7198  -11.4230   20.8224 C   0  0  0  0  0  0  0  0  0  0  0  0
  -25.1523  -13.5709   21.0080 C   0  0  0  0  0  0  0  0  0  0  0  0
  -28.0834  -16.6119   25.2482 C   0  0  0  0  0  0  0  0  0  0  0  0
  -27.9780  -16.2050   23.9923 C   0  0  0  0  0  0  0  0  0  0  0  0
  -29.9978  -15.7188   21.9373 C   0  0  0  0  0  0  0  0  0  0  0  0
  -22.9909  -12.8756   22.0536 C   0  0  0  0  0  0  0  0  0  0  0  0
  -30.5307  -15.0800   20.7121 C   0  0  0  0  0  0  0  0  0  0  0  0
  -29.7540  -30.7844   21.3008 C   0  0  0  0  0  0  0  0  0  0  0  0
  -26.8516  -31.4849   22.5688 C   0  0  0  0  0  0  0  0  0  0  0  0
  -23.6299  -30.5155   23.1417 C   0  0  0  0  0  0  0  0  0  0  0  0
  -33.3480  -34.3777   21.7792 C   0  0  0  0  0  0  0  0  0  0  0  0
  -28.2279  -30.3305   19.3460 C   0  0  0  0  0  0  0  0  0  0  0  0
  -27.2171  -29.0982   21.8369 C   0  0  0  0  0  0  0  0  0  0  0  0
  -32.1615  -33.9023   22.6139 C   0  0  0  0  0  0  0  0  0  0  0  0
  -29.1399  -13.3110   17.9205 C   0  0  0  0  0  0  0  0  0  0  0  0
  -32.1838  -32.3838   22.7569 C   0  0  0  0  0  0  0  0  0  0  0  0
  -27.8431  -12.7289   18.4819 C   0  0  0  0  0  0  0  0  0  0  0  0
  -30.2370  -13.3538   18.9792 C   0  0  0  0  0  0  0  0  0  0  0  0
  -28.5481  -13.5099   20.7880 C   0  0  0  0  0  0  0  0  0  0  0  0
  -32.0661  -31.6992   21.3898 C   0  0  1  0  0  0  0  0  0  0  0  0
  -28.3941  -31.0087   20.7024 C   0  0  1  0  0  0  0  0  0  0  0  0
  -27.4082  -13.4762   19.7551 C   0  0  2  0  0  0  0  0  0  0  0  0
  -21.5068  -31.2838   24.2369 C   0  0  0  0  0  0  0  0  0  0  0  0
  -28.0273  -30.8245   25.3058 C   0  0  0  0  0  0  0  0  0  0  0  0
  -25.6920  -30.6807   26.1969 C   0  0  0  0  0  0  0  0  0  0  0  0
  -26.5397  -32.8345   25.2668 C   0  0  0  0  0  0  0  0  0  0  0  0
  -22.1514  -30.4609   20.5785 C   0  0  0  0  0  0  0  0  0  0  0  0
  -25.3156  -19.9240   20.8592 C   0  0  0  0  0  0  0  0  0  0  0  0
  -28.5568  -22.5546   19.5449 C   0  0  0  0  0  0  0  0  0  0  0  0
  -29.4897  -21.6569   18.7395 C   0  0  0  0  0  0  0  0  0  0  0  0
  -28.3612  -23.9076   18.8737 C   0  0  0  0  0  0  0  0  0  1  0  0
  -29.7198  -20.3206   19.4311 C   0  0  0  0  0  0  0  0  0  0  0  0
  -26.0134  -30.9267   23.6935 C   0  0  1  0  0  0  0  0  0  0  0  0
  -22.3102  -31.2398   22.9464 C   0  0  2  0  0  0  0  0  0  0  0  0
  -26.5763  -31.3004   25.0938 C   0  0  0  0  0  0  0  0  0  0  0  0
  -25.8962  -11.5816   20.2100 N   0  0  0  0  0  0  0  0  0  0  0  0
  -30.3968  -15.1981   23.0636 N   0  0  0  0  0  0  0  0  0  0  0  0
  -26.1324  -12.8982   20.3394 N   0  0  0  0  0  0  0  0  0  0  0  0
  -29.7794  -14.0378   20.1871 N   0  0  0  0  0  0  0  0  0  0  0  0
  -27.4130  -30.5497   21.6878 N   0  0  0  0  0  0  0  0  0  0  0  0
  -25.2307  -14.9008   21.2267 N   0  0  0  0  0  0  0  0  0  0  0  0
  -22.1356  -11.7951   22.3091 N   0  0  0  0  0  0  0  0  0  0  0  0
  -30.6949  -31.7252   20.9278 N   0  0  0  0  0  0  0  0  0  0  0  0
  -24.6503  -31.3886   23.4547 N   0  0  0  0  0  0  0  0  0  0  0  0
  -21.4920  -30.5542   21.9065 N   0  3  0  0  0  0  0  0  0  0  0  0
  -22.6625  -14.0231   22.4395 O   0  0  0  0  0  0  0  0  0  0  0  0
  -31.5832  -15.5421   20.2914 O   0  0  0  0  0  0  0  0  0  0  0  0
  -29.9357  -29.8294   22.0469 O   0  0  0  0  0  0  0  0  0  0  0  0
  -26.9968  -32.7059   22.4712 O   0  0  0  0  0  0  0  0  0  0  0  0
  -23.7435  -29.2967   23.0316 O   0  0  0  0  0  0  0  0  0  0  0  0
  -22.3684   -6.3583   21.1162 O   0  0  0  0  0  0  0  0  0  0  0  0
  -26.5448  -20.1239   21.5541 O   0  0  0  0  0  0  0  0  0  0  0  0
  -27.4992  -24.7218   19.6676 O   0  0  0  0  0  0  0  0  0  1  0  0
  -28.4690  -19.6666   19.5953 O   0  0  0  0  0  0  0  0  0  0  0  0
  -20.2538   -4.7871   25.9602 F   0  0  0  0  0  0  0  0  0  0  0  0
  -20.3357   -7.8014   22.3115 F   0  0  0  0  0  0  0  0  0  0  0  0
  1  2  1  0  0  0  0
  1  5  2  0  0  0  0
  2  6  2  0  0  0  0
  3  8  2  0  0  0  0
  3 17  1  0  0  0  0
  4  9  1  0  0  0  0
  4 17  2  0  0  0  0
  5 21  1  0  0  0  0
  6 23  1  0  0  0  0
  7 10  2  0  0  0  0
  7 22  1  0  0  0  0
  8 25  1  0  0  0  0
  9 25  2  0  0  0  0
 10 26  1  0  0  0  0
 11 12  2  0  0  0  0
 11 27  1  0  0  0  0
 12 30  1  0  0  0  0
 13 18  1  0  0  0  0
 13 28  2  0  0  0  0
 14 19  1  0  0  0  0
 14 29  2  0  0  0  0
 15 24  1  0  0  0  0
 15 26  2  0  0  0  0
 16 30  2  0  0  0  0
 16 31  1  0  0  0  0
 17 32  1  0  0  0  0
 18 19  2  0  0  0  0
 18 35  1  0  0  0  0
 19 36  1  0  0  0  0
 20 32  1  0  0  0  0
 20 33  2  0  0  0  0
 20 37  1  0  0  0  0
 21 23  2  0  0  0  0
 21 42  1  0  0  0  0
 22 24  2  0  0  0  0
 22 43  1  0  0  0  0
 23 51  1  0  0  0  0
 24 44  1  0  0  0  0
 25 82  1  0  0  0  0
 26 84  1  0  0  0  0
 27 31  2  0  0  0  0
 27 82  1  0  0  0  0
 28 29  1  0  0  0  0
 28 83  1  0  0  0  0
 29 85  1  0  0  0  0
 30 86  1  0  0  0  0
 31 87  1  0  0  0  0
 32 67  2  0  0  0  0
 33 69  1  0  0  0  0
 33 72  1  0  0  0  0
 34 35  2  0  0  0  0
 36 38  1  0  0  0  0
 36 68  2  0  0  0  0
 37 73  1  0  0  0  0
 37 77  2  0  0  0  0
 38 70  1  0  0  0  0
 38 78  2  0  0  0  0
 39 52  1  0  0  0  0
 39 74  1  0  0  0  0
 39 79  2  0  0  0  0
 40 64  1  0  0  0  0
 40 71  1  0  0  0  0
 40 80  2  0  0  0  0
 41 65  1  0  0  0  0
 41 75  1  0  0  0  0
 41 81  2  0  0  0  0
 42 45  1  0  0  0  0
 43 52  1  0  0  0  0
 44 71  1  0  0  0  0
 45 47  1  0  0  0  0
 46 48  1  0  0  0  0
 46 49  1  0  0  0  0
 47 51  1  0  0  0  0
 48 53  1  0  0  0  0
 49 70  1  0  0  0  0
 50 53  1  0  0  0  0
 50 70  1  0  0  0  0
 51 74  1  0  0  0  0
 52 71  1  0  0  0  0
 53 69  1  0  0  0  0
 54 65  1  0  0  0  0
 55 66  1  0  0  0  0
 56 66  1  0  0  0  0
 57 66  1  0  0  0  0
 58 76  1  0  0  0  0
 59 83  1  0  0  0  0
 60 61  1  0  0  0  0
 60 62  1  0  0  0  0
 61 63  1  0  0  0  0
 62 84  1  0  0  0  0
 63 85  1  0  0  0  0
 64 66  1  0  0  0  0
 64 75  1  0  0  0  0
 65 76  1  0  0  0  0
 67 69  1  0  0  0  0
M  CHG  1  76   1
M  ISO  4  36 100  38 100  62 101  84 101
M  END
> <Batch ID>
0114

> <Smiles>
C=Cc1cc(OC)c(OCCC[101CH2:1][101O:1]c2ccc3c(c2)CN(C(=O)C(NC(=O)C(C)NC)C(C)(C)C)C(C(=O)NC2CCCc4ccccc42)C3)cc1[100C:0](=N)[100C:0](=O)N1CCCC(n2nc(-c3ccc(Oc4ccc(F)cc4F)cc3)c(C(N)=O)c2N)C1

> <Shape>
0.334

> <Color>
0.163

> <Negative vol penalty>
0.000

$$$$

  -OEChem-04052301373D

 84 92  0     1  0  0  0  0  0999 V2000
  -20.6437  -29.9435   25.6495 C   0  0  0  0  0  0  0  0  0  0  0  0
  -21.7360  -29.1612   25.2887 C   0  0  0  0  0  0  0  0  0  0  0  0
  -22.9867   -9.9574   20.2140 C   0  0  0  0  0  0  0  0  0  0  0  0
  -24.3330   -9.1916   22.0683 C   0  0  0  0  0  0  0  0  0  0  0  0
  -19.4910  -29.9333   24.8653 C   0  0  0  0  0  0  0  0  0  0  0  0
  -21.6758  -28.3672   24.1440 C   0  0  0  0  0  0  0  0  0  0  0  0
  -26.2766  -27.0746   20.3141 C   0  0  0  0  0  0  0  0  0  0  0  0
  -22.2679   -8.7624   20.2423 C   0  0  0  0  0  0  0  0  0  0  0  0
  -23.6141   -7.9965   22.0966 C   0  0  0  0  0  0  0  0  0  0  0  0
  -27.1191  -25.9697   20.1993 C   0  0  0  0  0  0  0  0  0  0  0  0
  -20.6232   -6.9175   23.2416 C   0  0  0  0  0  0  0  0  0  0  0  0
  -20.2072   -6.4426   24.4854 C   0  0  0  0  0  0  0  0  0  0  0  0
  -25.6813  -25.0585   18.4900 C   0  0  0  0  0  0  0  0  0  0  0  0
  -29.3058  -16.9943   21.1242 C   0  0  0  0  0  0  0  0  0  0  0  0
  -21.4793   -4.4182   24.1380 C   0  0  0  0  0  0  0  0  0  0  0  0
  -24.0193  -10.1720   21.1269 C   0  0  0  0  0  0  0  0  0  0  0  0
  -24.4707  -12.5910   21.7994 C   0  0  0  0  0  0  0  0  0  0  0  0
  -19.4202  -29.1462   23.7051 C   0  0  0  0  0  0  0  0  0  0  0  0
  -25.1223  -27.1746   19.5241 C   0  0  0  0  0  0  0  0  0  0  0  0
  -20.5206  -28.3454   23.3442 C   0  0  0  0  0  0  0  0  0  0  0  0
  -24.8271  -26.1669   18.5949 C   0  0  0  0  0  0  0  0  0  0  0  0
  -22.5815   -7.7820   21.1836 C   0  0  0  0  0  0  0  0  0  0  0  0
  -26.8200  -24.9601   19.2892 C   0  0  0  0  0  0  0  0  0  0  0  0
  -21.4673   -6.1427   22.4460 C   0  0  0  0  0  0  0  0  0  0  0  0
  -28.6301  -18.1015   21.7140 C   0  0  0  0  0  0  0  0  0  0  0  0
  -20.6352   -5.1930   24.9336 C   0  0  0  0  0  0  0  0  0  0  0  0
  -21.8953   -4.8931   22.8942 C   0  0  0  0  0  0  0  0  0  0  0  0
  -24.7627  -11.4059   21.0978 C   0  0  0  0  0  0  0  0  0  0  0  0
  -29.8667  -16.1661   22.0713 C   0  0  0  0  0  0  0  0  0  0  0  0
  -28.7002  -18.0771   23.0896 C   0  0  0  0  0  0  0  0  0  0  0  0
  -25.4693  -13.4607   21.4348 C   0  0  0  0  0  0  0  0  0  0  0  0
  -27.0231  -19.6932   23.8583 C   0  0  0  0  0  0  0  0  0  0  0  0
  -28.1617  -18.9880   24.0254 C   0  0  0  0  0  0  0  0  0  0  0  0
  -23.3933  -12.8797   22.7003 C   0  0  0  0  0  0  0  0  0  0  0  0
  -30.6159  -14.9669   21.8805 C   0  0  0  0  0  0  0  0  0  0  0  0
  -30.9059  -14.4216   20.5345 C   0  0  0  0  0  0  0  0  0  0  0  0
  -22.0031  -27.3210   20.1185 C   0  0  0  0  0  0  0  0  0  0  0  0
  -21.8125  -27.8196   16.9189 C   0  0  0  0  0  0  0  0  0  0  0  0
  -23.2307  -27.4403   13.8380 C   0  0  0  0  0  0  0  0  0  0  0  0
  -18.1355  -29.1316   22.9150 C   0  0  0  0  0  0  0  0  0  0  0  0
  -24.2380  -28.3857   19.6411 C   0  0  0  0  0  0  0  0  0  0  0  0
  -23.6110  -26.2364   17.7091 C   0  0  0  0  0  0  0  0  0  0  0  0
  -18.2897  -28.5497   21.5122 C   0  0  0  0  0  0  0  0  0  0  0  0
  -28.9650  -13.1428   17.8043 C   0  0  0  0  0  0  0  0  0  0  0  0
  -19.0869  -27.2500   21.5581 C   0  0  0  0  0  0  0  0  0  0  0  0
  -27.6912  -12.6389   18.4822 C   0  0  0  0  0  0  0  0  0  0  0  0
  -30.1867  -12.9477   18.6963 C   0  0  0  0  0  0  0  0  0  0  0  0
  -28.7763  -13.0699   20.7321 C   0  0  0  0  0  0  0  0  0  0  0  0
  -20.5027  -27.4898   22.0961 C   0  0  1  0  0  0  0  0  0  0  0  0
  -22.8148  -28.1358   19.1516 C   0  0  1  0  0  0  0  0  0  0  0  0
  -27.5168  -13.2755   19.8725 C   0  0  2  0  0  0  0  0  0  0  0  0
  -22.8206  -27.9165   11.4085 C   0  0  0  0  0  0  0  0  0  0  0  0
  -19.8275  -25.5053   16.8028 C   0  0  0  0  0  0  0  0  0  0  0  0
  -20.1873  -25.4124   14.3269 C   0  0  0  0  0  0  0  0  0  0  0  0
  -19.2291  -27.4658   15.3701 C   0  0  0  0  0  0  0  0  0  0  0  0
  -25.6369  -29.1529   13.6482 C   0  0  0  0  0  0  0  0  0  0  0  0
  -27.7994  -21.4826   19.4128 C   0  0  0  0  0  0  0  0  0  0  0  0
  -27.2021  -20.1389   19.0095 C   0  0  0  0  0  0  0  0  0  0  0  0
  -27.0387  -22.6453   18.7893 C   0  0  0  0  0  0  0  0  0  1  0  0
  -27.9876  -18.9753   19.5975 C   0  0  0  0  0  0  0  0  0  0  0  0
  -21.6777  -26.9326   15.7048 C   0  0  1  0  0  0  0  0  0  0  0  0
  -23.4448  -28.4218   12.6999 C   0  0  2  0  0  0  0  0  0  0  0  0
  -20.2524  -26.3265   15.5691 C   0  0  0  0  0  0  0  0  0  0  0  0
  -25.8606  -11.5100   20.3443 N   0  0  0  0  0  0  0  0  0  0  0  0
  -31.1174  -14.2388   22.8620 N   0  0  0  0  0  0  0  0  0  0  0  0
  -26.2673  -12.7708   20.5703 N   0  0  0  0  0  0  0  0  0  0  0  0
  -29.9740  -13.5316   20.0192 N   0  0  0  0  0  0  0  0  0  0  0  0
  -22.7739  -27.4375   17.8652 N   0  0  0  0  0  0  0  0  0  0  0  0
  -25.7337  -14.7408   21.7724 N   0  0  0  0  0  0  0  0  0  0  0  0
  -22.4552  -11.8725   22.9645 N   0  0  0  0  0  0  0  0  0  0  0  0
  -21.3411  -28.0726   21.0704 N   0  0  0  0  0  0  0  0  0  0  0  0
  -22.0958  -27.7379   14.5624 N   0  0  0  0  0  0  0  0  0  0  0  0
  -24.9013  -28.6342   12.4663 N   0  3  0  0  0  0  0  0  0  0  0  0
  -23.2571  -14.0030   23.2418 O   0  0  0  0  0  0  0  0  0  0  0  0
  -31.9430  -14.8163   20.0178 O   0  0  0  0  0  0  0  0  0  0  0  0
  -21.9781  -26.1008   20.0080 O   0  0  0  0  0  0  0  0  0  0  0  0
  -21.0964  -28.8189   17.0203 O   0  0  0  0  0  0  0  0  0  0  0  0
  -23.9918  -26.5011   14.0598 O   0  0  0  0  0  0  0  0  0  0  0  0
  -21.8801   -6.6159   21.2117 O   0  0  0  0  0  0  0  0  0  0  0  0
  -27.6404  -23.8803   19.1755 O   0  0  0  0  0  0  0  0  0  1  0  0
  -27.9788  -19.0839   21.0143 O   0  0  0  0  0  0  0  0  0  0  0  0
  -20.2369   -4.7378   26.1287 F   0  0  0  0  0  0  0  0  0  0  0  0
  -22.7072   -4.1447   22.1348 F   0  0  0  0  0  0  0  0  0  0  0  0
  -29.5779  -16.7238   23.6644 S   0  0  0  0  0  0  0  0  0  0  0  0
  1  2  1  0  0  0  0
  1  5  2  0  0  0  0
  2  6  2  0  0  0  0
  3  8  2  0  0  0  0
  3 16  1  0  0  0  0
  4  9  1  0  0  0  0
  4 16  2  0  0  0  0
  5 18  1  0  0  0  0
  6 20  1  0  0  0  0
  7 10  2  0  0  0  0
  7 19  1  0  0  0  0
  8 22  1  0  0  0  0
  9 22  2  0  0  0  0
 10 23  1  0  0  0  0
 11 12  2  0  0  0  0
 11 24  1  0  0  0  0
 12 26  1  0  0  0  0
 13 21  1  0  0  0  0
 13 23  2  0  0  0  0
 14 25  1  0  0  0  0
 14 29  2  0  0  0  0
 15 26  2  0  0  0  0
 15 27  1  0  0  0  0
 16 28  1  0  0  0  0
 17 28  1  0  0  0  0
 17 31  2  0  0  0  0
 17 34  1  0  0  0  0
 18 20  2  0  0  0  0
 18 40  1  0  0  0  0
 19 21  2  0  0  0  0
 19 41  1  0  0  0  0
 20 49  1  0  0  0  0
 21 42  1  0  0  0  0
 22 79  1  0  0  0  0
 23 80  1  0  0  0  0
 24 27  2  0  0  0  0
 24 79  1  0  0  0  0
 25 30  2  0  0  0  0
 25 81  1  0  0  0  0
 26 82  1  0  0  0  0
 27 83  1  0  0  0  0
 28 64  2  0  0  0  0
 29 35  1  0  0  0  0
 29 84  1  0  0  0  0
 30 33  1  0  0  0  0
 30 84  1  0  0  0  0
 31 66  1  0  0  0  0
 31 69  1  0  0  0  0
 32 33  2  0  0  0  0
 34 70  1  0  0  0  0
 34 74  2  0  0  0  0
 35 36  1  0  0  0  0
 35 65  2  0  0  0  0
 36 67  1  0  0  0  0
 36 75  2  0  0  0  0
 37 50  1  0  0  0  0
 37 71  1  0  0  0  0
 37 76  2  0  0  0  0
 38 61  1  0  0  0  0
 38 68  1  0  0  0  0
 38 77  2  0  0  0  0
 39 62  1  0  0  0  0
 39 72  1  0  0  0  0
 39 78  2  0  0  0  0
 40 43  1  0  0  0  0
 41 50  1  0  0  0  0
 42 68  1  0  0  0  0
 43 45  1  0  0  0  0
 44 46  1  0  0  0  0
 44 47  1  0  0  0  0
 45 49  1  0  0  0  0
 46 51  1  0  0  0  0
 47 67  1  0  0  0  0
 48 51  1  0  0  0  0
 48 67  1  0  0  0  0
 49 71  1  0  0  0  0
 50 68  1  0  0  0  0
 51 66  1  0  0  0  0
 52 62  1  0  0  0  0
 53 63  1  0  0  0  0
 54 63  1  0  0  0  0
 55 63  1  0  0  0  0
 56 73  1  0  0  0  0
 57 58  1  0  0  0  0
 57 59  1  0  0  0  0
 58 60  1  0  0  0  0
 59 80  1  0  0  0  0
 60 81  1  0  0  0  0
 61 63  1  0  0  0  0
 61 72  1  0  0  0  0
 62 73  1  0  0  0  0
 64 66  1  0  0  0  0
M  CHG  1  73   1
M  ISO  4  35 100  36 100  59 101  80 101
M  END
> <Batch ID>
0114

> <Smiles>
C=Cc1sc([100C:0](=N)[100C:0](=O)N2CCCC(n3nc(-c4ccc(Oc5ccc(F)cc5F)cc4)c(C(N)=O)c3N)C2)cc1OCCC[101CH2:1][101O:1]c1ccc2c(c1)CN(C(=O)C(NC(=O)C(C)NC)C(C)(C)C)C(C(=O)NC1CCCc3ccccc31)C2

> <Shape>
0.292

> <Color>
0.137

> <Negative vol penalty>
0.000

$$$$

  -OEChem-04052301373D

 87 95  0     1  0  0  0  0  0999 V2000
  -32.0786  -16.8434   23.0739 C   0  0  0  0  0  0  0  0  0  0  0  0
  -30.8199  -17.3161   23.4313 C   0  0  0  0  0  0  0  0  0  0  0  0
  -27.4917  -26.6613   20.9883 C   0  0  0  0  0  0  0  0  0  0  0  0
  -28.2314  -28.1851   19.2654 C   0  0  0  0  0  0  0  0  0  0  0  0
  -20.5768  -25.3423   24.7071 C   0  0  0  0  0  0  0  0  0  0  0  0
  -32.2284  -16.0569   21.9325 C   0  0  0  0  0  0  0  0  0  0  0  0
  -29.7104  -17.0034   22.6467 C   0  0  0  0  0  0  0  0  0  0  0  0
  -23.9913  -15.9976   24.5926 C   0  0  0  0  0  0  0  0  0  0  0  0
  -28.5865  -25.8367   20.7290 C   0  0  0  0  0  0  0  0  0  0  0  0
  -29.3262  -27.3605   19.0062 C   0  0  0  0  0  0  0  0  0  0  0  0
  -20.2496  -23.9866   24.7268 C   0  0  0  0  0  0  0  0  0  0  0  0
  -22.8613  -16.8126   24.6448 C   0  0  0  0  0  0  0  0  0  0  0  0
  -29.4704  -23.5194   18.4327 C   0  0  0  0  0  0  0  0  0  0  0  0
  -29.2401  -22.1466   18.3438 C   0  0  0  0  0  0  0  0  0  0  0  0
  -22.1124  -15.8987   22.5416 C   0  0  0  0  0  0  0  0  0  0  0  0
  -30.7596  -21.7726   20.1845 C   0  0  0  0  0  0  0  0  0  0  0  0
  -27.3141  -27.8354   20.2564 C   0  0  0  0  0  0  0  0  0  0  0  0
  -20.1498  -26.1476   23.6512 C   0  0  0  0  0  0  0  0  0  0  0  0
  -19.3957  -25.5970   22.6150 C   0  0  0  0  0  0  0  0  0  0  0  0
  -26.1200  -29.7542   21.4396 C   0  0  0  0  0  0  0  0  0  0  0  0
  -31.1186  -15.7264   21.1389 C   0  0  0  0  0  0  0  0  0  0  0  0
  -24.1961  -15.1335   23.5073 C   0  0  0  0  0  0  0  0  0  0  0  0
  -29.8456  -16.2128   21.4928 C   0  0  0  0  0  0  0  0  0  0  0  0
  -23.2446  -15.0720   22.4792 C   0  0  0  0  0  0  0  0  0  0  0  0
  -29.5037  -26.1864   19.7380 C   0  0  0  0  0  0  0  0  0  0  0  0
  -21.9231  -16.7653   23.6178 C   0  0  0  0  0  0  0  0  0  0  0  0
  -30.3453  -24.0189   19.3974 C   0  0  0  0  0  0  0  0  0  0  0  0
  -19.4955  -23.4360   23.6906 C   0  0  0  0  0  0  0  0  0  0  0  0
  -29.8847  -21.2732   19.2197 C   0  0  0  0  0  0  0  0  0  0  0  0
  -30.9899  -23.1454   20.2734 C   0  0  0  0  0  0  0  0  0  0  0  0
  -19.0685  -24.2412   22.6346 C   0  0  0  0  0  0  0  0  0  0  0  0
  -26.1831  -28.6873   20.5234 C   0  0  0  0  0  0  0  0  0  0  0  0
  -24.8402  -30.2374   21.3164 C   0  0  0  0  0  0  0  0  0  0  0  0
  -21.7597  -27.9978   23.6374 C   0  0  0  0  0  0  0  0  0  0  0  0
  -20.5102  -27.5599   23.6640 C   0  0  0  0  0  0  0  0  0  0  0  0
  -18.9235  -26.4235   21.4744 C   0  0  0  0  0  0  0  0  0  0  0  0
  -27.1281  -30.2631   22.3231 C   0  0  0  0  0  0  0  0  0  0  0  0
  -26.4186  -14.8526   21.2522 C   0  0  0  0  0  0  0  0  0  0  0  0
  -20.0257  -19.8464   23.7314 C   0  0  0  0  0  0  0  0  0  0  0  0
  -24.7553  -12.1728   20.4941 C   0  0  0  0  0  0  0  0  0  0  0  0
  -21.7951  -10.4771   20.5862 C   0  0  0  0  0  0  0  0  0  0  0  0
  -19.6963  -27.8166   19.5808 C   0  0  0  0  0  0  0  0  0  0  0  0
  -31.3372  -14.9126   19.8880 C   0  0  0  0  0  0  0  0  0  0  0  0
  -25.4068  -14.2414   23.4790 C   0  0  0  0  0  0  0  0  0  0  0  0
  -23.4077  -14.1467   21.3020 C   0  0  0  0  0  0  0  0  0  0  0  0
  -30.0534  -14.3150   19.3180 C   0  0  0  0  0  0  0  0  0  0  0  0
  -21.2747  -30.6308   18.1366 C   0  0  0  0  0  0  0  0  0  0  0  0
  -28.9490  -15.3664   19.2735 C   0  0  0  0  0  0  0  0  0  0  0  0
  -22.7047  -30.5609   18.6794 C   0  0  0  0  0  0  0  0  0  0  0  0
  -20.7164  -29.2423   17.8280 C   0  0  0  0  0  0  0  0  0  0  0  0
  -22.2325  -28.2072   19.4675 C   0  0  0  0  0  0  0  0  0  0  0  0
  -28.6141  -15.8745   20.6811 C   0  0  1  0  0  0  0  0  0  0  0  0
  -25.7715  -13.7735   22.0735 C   0  0  1  0  0  0  0  0  0  0  0  0
  -22.8142  -29.5750   19.8598 C   0  0  1  0  0  0  0  0  0  0  0  0
  -20.7338   -8.3254   19.8504 C   0  0  0  0  0  0  0  0  0  0  0  0
  -24.5930  -13.2325   17.6374 C   0  0  0  0  0  0  0  0  0  0  0  0
  -22.7674  -11.5758   17.2007 C   0  0  0  0  0  0  0  0  0  0  0  0
  -25.0501  -10.7802   17.8160 C   0  0  0  0  0  0  0  0  0  0  0  0
  -21.2087   -9.6780   23.3748 C   0  0  0  0  0  0  0  0  0  0  0  0
  -20.9491  -18.8111   24.3403 C   0  0  0  0  0  0  0  0  0  1  0  0
  -20.0830  -21.2279   24.3502 C   0  0  0  0  0  0  0  0  0  0  0  0
  -23.5952  -11.8570   19.5812 C   0  0  1  0  0  0  0  0  0  0  0  0
  -21.4654   -9.0463   20.9719 C   0  0  2  0  0  0  0  0  0  0  0  0
  -23.9991  -11.8803   18.0799 C   0  0  0  0  0  0  0  0  0  0  0  0
  -25.0348  -28.5030   19.8666 N   0  0  0  0  0  0  0  0  0  0  0  0
  -24.2379  -29.4605   20.3709 N   0  0  0  0  0  0  0  0  0  0  0  0
  -24.6112  -13.2989   21.3169 N   0  0  0  0  0  0  0  0  0  0  0  0
  -20.8486  -28.3730   18.9984 N   0  0  0  0  0  0  0  0  0  0  0  0
  -24.1825  -31.2466   21.9257 N   0  0  0  0  0  0  0  0  0  0  0  0
  -28.3883  -29.6497   22.3227 N   0  0  0  0  0  0  0  0  0  0  0  0
  -19.9243  -27.0357   20.7194 N   0  0  0  0  0  0  0  0  0  0  0  0
  -27.7928  -14.9121   21.3837 N   0  0  0  0  0  0  0  0  0  0  0  0
  -23.0547  -10.5800   20.0348 N   0  0  0  0  0  0  0  0  0  0  0  0
  -20.6028   -9.0231   22.1869 N   0  3  0  0  0  0  0  0  0  0  0  0
  -17.7197  -26.4888   21.2411 O   0  0  0  0  0  0  0  0  0  0  0  0
  -26.9124  -31.2225   23.1020 O   0  0  0  0  0  0  0  0  0  0  0  0
  -25.7227  -15.5766   20.5498 O   0  0  0  0  0  0  0  0  0  0  0  0
  -19.2757  -19.5813   22.7931 O   0  0  0  0  0  0  0  0  0  0  0  0
  -25.7498  -11.4430   20.4829 O   0  0  0  0  0  0  0  0  0  0  0  0
  -21.0120  -11.4094   20.7535 O   0  0  0  0  0  0  0  0  0  0  0  0
  -18.5592  -28.0277   19.1476 O   0  0  0  0  0  0  0  0  0  0  0  0
  -30.5723  -25.3821   19.4849 O   0  0  0  0  0  0  0  0  0  0  0  0
  -20.8196  -17.5602   23.6659 O   0  0  0  0  0  0  0  0  0  1  0  0
  -19.1738  -22.0995   23.7119 O   0  0  0  0  0  0  0  0  0  0  0  0
  -29.6623  -19.9550   19.1352 F   0  0  0  0  0  0  0  0  0  0  0  0
  -31.8306  -23.6194   21.2031 F   0  0  0  0  0  0  0  0  0  0  0  0
  -18.3434  -23.7051   21.6415 F   0  0  0  0  0  0  0  0  0  0  0  0
  1  2  1  0  0  0  0
  1  6  2  0  0  0  0
  2  7  2  0  0  0  0
  3  9  2  0  0  0  0
  3 17  1  0  0  0  0
  4 10  1  0  0  0  0
  4 17  2  0  0  0  0
  5 11  2  0  0  0  0
  5 18  1  0  0  0  0
  6 21  1  0  0  0  0
  7 23  1  0  0  0  0
  8 12  2  0  0  0  0
  8 22  1  0  0  0  0
  9 25  1  0  0  0  0
 10 25  2  0  0  0  0
 11 28  1  0  0  0  0
 12 26  1  0  0  0  0
 13 14  2  0  0  0  0
 13 27  1  0  0  0  0
 14 29  1  0  0  0  0
 15 24  1  0  0  0  0
 15 26  2  0  0  0  0
 16 29  2  0  0  0  0
 16 30  1  0  0  0  0
 17 32  1  0  0  0  0
 18 19  2  0  0  0  0
 18 35  1  0  0  0  0
 19 31  1  0  0  0  0
 19 36  1  0  0  0  0
 20 32  1  0  0  0  0
 20 33  2  0  0  0  0
 20 37  1  0  0  0  0
 21 23  2  0  0  0  0
 21 43  1  0  0  0  0
 22 24  2  0  0  0  0
 22 44  1  0  0  0  0
 23 52  1  0  0  0  0
 24 45  1  0  0  0  0
 25 82  1  0  0  0  0
 26 83  1  0  0  0  0
 27 30  2  0  0  0  0
 27 82  1  0  0  0  0
 28 31  2  0  0  0  0
 28 84  1  0  0  0  0
 29 85  1  0  0  0  0
 30 86  1  0  0  0  0
 31 87  1  0  0  0  0
 32 65  2  0  0  0  0
 33 66  1  0  0  0  0
 33 69  1  0  0  0  0
 34 35  2  0  0  0  0
 36 71  1  0  0  0  0
 36 75  2  0  0  0  0
 37 70  1  0  0  0  0
 37 76  2  0  0  0  0
 38 53  1  0  0  0  0
 38 72  1  0  0  0  0
 38 77  2  0  0  0  0
 39 60  1  0  0  0  0
 39 61  1  0  0  0  0
 39 78  2  0  0  0  0
 40 62  1  0  0  0  0
 40 67  1  0  0  0  0
 40 79  2  0  0  0  0
 41 63  1  0  0  0  0
 41 73  1  0  0  0  0
 41 80  2  0  0  0  0
 42 68  1  0  0  0  0
 42 71  1  0  0  0  0
 42 81  2  0  0  0  0
 43 46  1  0  0  0  0
 44 53  1  0  0  0  0
 45 67  1  0  0  0  0
 46 48  1  0  0  0  0
 47 49  1  0  0  0  0
 47 50  1  0  0  0  0
 48 52  1  0  0  0  0
 49 54  1  0  0  0  0
 50 68  1  0  0  0  0
 51 54  1  0  0  0  0
 51 68  1  0  0  0  0
 52 72  1  0  0  0  0
 53 67  1  0  0  0  0
 54 66  1  0  0  0  0
 55 63  1  0  0  0  0
 56 64  1  0  0  0  0
 57 64  1  0  0  0  0
 58 64  1  0  0  0  0
 59 74  1  0  0  0  0
 60 83  1  0  0  0  0
 61 84  1  0  0  0  0
 62 64  1  0  0  0  0
 62 73  1  0  0  0  0
 63 74  1  0  0  0  0
 65 66  1  0  0  0  0
M  CHG  1  74   1
M  ISO  4  42 100  60 101  71 100  83 101
M  END
> <Batch ID>
0114

> <Smiles>
C=Cc1ccc(OCC(=O)[101CH2:1][101O:1]c2ccc3c(c2)CN(C(=O)C(NC(=O)C(C)NC)C(C)(C)C)C(C(=O)NC2CCCc4ccccc42)C3)c(F)c1C(=O)[100NH:0][100C:0](=O)N1CCCC(n2nc(-c3ccc(Oc4ccc(F)cc4F)cc3)c(C(N)=O)c2N)C1

> <Shape>
0.264

> <Color>
0.057

> <Negative vol penalty>
0.000

$$$$

  -OEChem-04052301373D

 86 94  0     1  0  0  0  0  0999 V2000
  -24.3259  -34.6394   12.5625 C   0  0  0  0  0  0  0  0  0  0  0  0
  -23.9653  -33.3015   12.4389 C   0  0  0  0  0  0  0  0  0  0  0  0
  -23.0789  -10.0398   19.9224 C   0  0  0  0  0  0  0  0  0  0  0  0
  -23.8154   -9.8367   22.2144 C   0  0  0  0  0  0  0  0  0  0  0  0
  -24.9035  -35.0981   13.7457 C   0  0  0  0  0  0  0  0  0  0  0  0
  -24.1831  -32.4211   13.4981 C   0  0  0  0  0  0  0  0  0  0  0  0
  -20.6717  -27.6729   15.1201 C   0  0  0  0  0  0  0  0  0  0  0  0
  -22.3143   -8.8821   20.0654 C   0  0  0  0  0  0  0  0  0  0  0  0
  -23.0506   -8.6789   22.3575 C   0  0  0  0  0  0  0  0  0  0  0  0
  -20.7687  -26.3052   14.8678 C   0  0  0  0  0  0  0  0  0  0  0  0
  -23.2942   -5.4128   21.5185 C   0  0  0  0  0  0  0  0  0  0  0  0
  -23.8859   -4.3194   22.1507 C   0  0  0  0  0  0  0  0  0  0  0  0
  -26.6074  -18.0190   17.5813 C   0  0  0  0  0  0  0  0  0  0  0  0
  -21.8562  -25.9953   16.9987 C   0  0  0  0  0  0  0  0  0  0  0  0
  -26.5745  -19.9900   15.6073 C   0  0  0  0  0  0  0  0  0  0  0  0
  -22.1701   -4.3740   23.8508 C   0  0  0  0  0  0  0  0  0  0  0  0
  -23.8296  -10.5171   20.9969 C   0  0  0  0  0  0  0  0  0  0  0  0
  -25.4792  -18.8224   17.4167 C   0  0  0  0  0  0  0  0  0  0  0  0
  -27.7193  -18.2011   16.7589 C   0  0  0  0  0  0  0  0  0  0  0  0
  -24.2128  -13.0371   21.0980 C   0  0  0  0  0  0  0  0  0  0  0  0
  -25.1196  -34.2249   14.8235 C   0  0  0  0  0  0  0  0  0  0  0  0
  -21.1769  -28.2146   16.3109 C   0  0  0  0  0  0  0  0  0  0  0  0
  -24.7653  -32.8682   14.6963 C   0  0  0  0  0  0  0  0  0  0  0  0
  -21.7621  -27.3699   17.2648 C   0  0  0  0  0  0  0  0  0  0  0  0
  -25.4627  -19.8079   16.4297 C   0  0  0  0  0  0  0  0  0  0  0  0
  -22.3001   -8.2017   21.2830 C   0  0  0  0  0  0  0  0  0  0  0  0
  -21.3636  -25.4666   15.8058 C   0  0  0  0  0  0  0  0  0  0  0  0
  -22.1405   -5.9870   22.0524 C   0  0  0  0  0  0  0  0  0  0  0  0
  -23.3238   -3.7999   23.3169 C   0  0  0  0  0  0  0  0  0  0  0  0
  -27.7028  -19.1866   15.7719 C   0  0  0  0  0  0  0  0  0  0  0  0
  -21.5784   -5.4675   23.2185 C   0  0  0  0  0  0  0  0  0  0  0  0
  -24.6201  -11.7127   20.8496 C   0  0  0  0  0  0  0  0  0  0  0  0
  -25.3205  -13.7967   20.8103 C   0  0  0  0  0  0  0  0  0  0  0  0
  -23.6976  -17.4490   18.3940 C   0  0  0  0  0  0  0  0  0  0  0  0
  -24.3364  -18.6045   18.2957 C   0  0  0  0  0  0  0  0  0  0  0  0
  -22.9159  -22.2730   15.2925 C   0  0  0  0  0  0  0  0  0  0  0  0
  -22.7068  -23.5726   15.5239 C   0  0  0  0  0  0  0  0  0  1  0  0
  -28.9187  -17.3426   16.9357 C   0  0  0  0  0  0  0  0  0  0  0  0
  -22.9465  -13.5362   21.5486 C   0  0  0  0  0  0  0  0  0  0  0  0
  -23.4360  -30.3315   17.0311 C   0  0  0  0  0  0  0  0  0  0  0  0
  -22.2908  -29.9465   20.0415 C   0  0  0  0  0  0  0  0  0  0  0  0
  -20.6296  -27.9770   22.2795 C   0  0  0  0  0  0  0  0  0  0  0  0
  -29.6547  -15.0767   17.6050 C   0  0  0  0  0  0  0  0  0  0  0  0
  -25.7904  -34.7566   16.0652 C   0  0  0  0  0  0  0  0  0  0  0  0
  -21.0405  -29.6882   16.5798 C   0  0  0  0  0  0  0  0  0  0  0  0
  -22.3017  -27.8987   18.5677 C   0  0  0  0  0  0  0  0  0  0  0  0
  -25.6436  -33.8398   17.2769 C   0  0  0  0  0  0  0  0  0  0  0  0
  -30.1115  -12.4278   19.9010 C   0  0  0  0  0  0  0  0  0  0  0  0
  -25.9470  -32.3950   16.8930 C   0  0  0  0  0  0  0  0  0  0  0  0
  -28.6912  -12.1172   20.3812 C   0  0  0  0  0  0  0  0  0  0  0  0
  -30.1427  -12.7854   18.4157 C   0  0  0  0  0  0  0  0  0  0  0  0
  -27.7998  -13.5359   18.4899 C   0  0  0  0  0  0  0  0  0  0  0  0
  -24.9629  -31.8878   15.8321 C   0  0  1  0  0  0  0  0  0  0  0  0
  -22.0507  -30.2055   17.5992 C   0  0  1  0  0  0  0  0  0  0  0  0
  -27.7056  -13.2385   19.9952 C   0  0  1  0  0  0  0  0  0  0  0  0
  -19.8818  -27.9155   24.6741 C   0  0  0  0  0  0  0  0  0  0  0  0
  -25.1487  -29.3314   20.9157 C   0  0  0  0  0  0  0  0  0  0  0  0
  -24.2201  -28.3704   23.0329 C   0  0  0  0  0  0  0  0  0  0  0  0
  -23.8629  -30.7805   22.4973 C   0  0  0  0  0  0  0  0  0  0  0  0
  -17.7784  -27.8028   21.5057 C   0  0  0  0  0  0  0  0  0  0  0  0
  -24.2741  -21.6504   15.2390 C   0  0  0  0  0  0  0  0  0  0  0  0
  -22.6006  -29.0206   21.1929 C   0  0  1  0  0  0  0  0  0  0  0  0
  -19.5019  -28.2837   23.2483 C   0  0  2  0  0  0  0  0  0  0  0  0
  -23.9497  -29.3657   21.8844 C   0  0  0  0  0  0  0  0  0  0  0  0
  -25.8875  -11.6320   20.4357 N   0  0  0  0  0  0  0  0  0  0  0  0
  -26.2861  -12.9154   20.4219 N   0  0  0  0  0  0  0  0  0  0  0  0
  -22.1505  -29.3475   18.7816 N   0  0  0  0  0  0  0  0  0  0  0  0
  -29.1895  -13.8604   18.1346 N   0  0  0  0  0  0  0  0  0  0  0  0
  -25.5528  -15.1258   20.8542 N   0  0  0  0  0  0  0  0  0  0  0  0
  -21.9168  -12.6185   21.7973 N   0  0  0  0  0  0  0  0  0  0  0  0
  -24.3529  -20.6184   16.2424 N   0  0  0  0  0  0  0  0  0  0  0  0
  -28.6725  -16.0546   17.4120 N   0  0  0  0  0  0  0  0  0  0  0  0
  -23.6925  -31.5538   16.4396 N   0  0  0  0  0  0  0  0  0  0  0  0
  -21.4439  -29.0719   22.0805 N   0  0  0  0  0  0  0  0  0  0  0  0
  -18.2773  -27.5203   22.8762 N   0  3  0  0  0  0  0  0  0  0  0  0
  -30.0215  -17.7846   16.6254 O   0  0  0  0  0  0  0  0  0  0  0  0
  -22.7294  -14.7611   21.7098 O   0  0  0  0  0  0  0  0  0  0  0  0
  -24.2150  -29.3901   17.1239 O   0  0  0  0  0  0  0  0  0  0  0  0
  -22.1704  -31.1557   20.2534 O   0  0  0  0  0  0  0  0  0  0  0  0
  -20.7759  -26.8753   21.7548 O   0  0  0  0  0  0  0  0  0  0  0  0
  -30.8468  -15.2878   17.3609 O   0  0  0  0  0  0  0  0  0  0  0  0
  -21.5538   -7.0721   21.4230 O   0  0  0  0  0  0  0  0  0  0  0  0
  -21.4601  -24.1313   15.5617 O   0  0  0  0  0  0  0  0  0  1  0  0
  -23.8913   -2.7489   23.9231 F   0  0  0  0  0  0  0  0  0  0  0  0
  -28.7662  -19.3709   14.9765 F   0  0  0  0  0  0  0  0  0  0  0  0
  -20.4695   -6.0141   23.7355 F   0  0  0  0  0  0  0  0  0  0  0  0
  1  2  1  0  0  0  0
  1  5  2  0  0  0  0
  2  6  2  0  0  0  0
  3  8  2  0  0  0  0
  3 17  1  0  0  0  0
  4  9  1  0  0  0  0
  4 17  2  0  0  0  0
  5 21  1  0  0  0  0
  6 23  1  0  0  0  0
  7 10  2  0  0  0  0
  7 22  1  0  0  0  0
  8 26  1  0  0  0  0
  9 26  2  0  0  0  0
 10 27  1  0  0  0  0
 11 12  2  0  0  0  0
 11 28  1  0  0  0  0
 12 29  1  0  0  0  0
 13 18  1  0  0  0  0
 13 19  2  0  0  0  0
 14 24  1  0  0  0  0
 14 27  2  0  0  0  0
 15 25  1  0  0  0  0
 15 30  2  0  0  0  0
 16 29  2  0  0  0  0
 16 31  1  0  0  0  0
 17 32  1  0  0  0  0
 18 25  2  0  0  0  0
 18 35  1  0  0  0  0
 19 30  1  0  0  0  0
 19 38  1  0  0  0  0
 20 32  1  0  0  0  0
 20 33  2  0  0  0  0
 20 39  1  0  0  0  0
 21 23  2  0  0  0  0
 21 44  1  0  0  0  0
 22 24  2  0  0  0  0
 22 45  1  0  0  0  0
 23 53  1  0  0  0  0
 24 46  1  0  0  0  0
 25 71  1  0  0  0  0
 26 82  1  0  0  0  0
 27 83  1  0  0  0  0
 28 31  2  0  0  0  0
 28 82  1  0  0  0  0
 29 84  1  0  0  0  0
 30 85  1  0  0  0  0
 31 86  1  0  0  0  0
 32 65  2  0  0  0  0
 33 66  1  0  0  0  0
 33 69  1  0  0  0  0
 34 35  2  0  0  0  0
 36 37  2  0  0  0  0
 36 61  1  0  0  0  0
 37 83  1  0  0  0  0
 38 72  1  0  0  0  0
 38 76  2  0  0  0  0
 39 70  1  0  0  0  0
 39 77  2  0  0  0  0
 40 54  1  0  0  0  0
 40 73  1  0  0  0  0
 40 78  2  0  0  0  0
 41 62  1  0  0  0  0
 41 67  1  0  0  0  0
 41 79  2  0  0  0  0
 42 63  1  0  0  0  0
 42 74  1  0  0  0  0
 42 80  2  0  0  0  0
 43 68  1  0  0  0  0
 43 72  1  0  0  0  0
 43 81  2  0  0  0  0
 44 47  1  0  0  0  0
 45 54  1  0  0  0  0
 46 67  1  0  0  0  0
 47 49  1  0  0  0  0
 48 50  1  0  0  0  0
 48 51  1  0  0  0  0
 49 53  1  0  0  0  0
 50 55  1  0  0  0  0
 51 68  1  0  0  0  0
 52 55  1  0  0  0  0
 52 68  1  0  0  0  0
 53 73  1  0  0  0  0
 54 67  1  0  0  0  0
 55 66  1  0  0  0  0
 56 63  1  0  0  0  0
 57 64  1  0  0  0  0
 58 64  1  0  0  0  0
 59 64  1  0  0  0  0
 60 75  1  0  0  0  0
 61 71  1  0  0  0  0
 62 64  1  0  0  0  0
 62 74  1  0  0  0  0
 63 75  1  0  0  0  0
 65 66  1  0  0  0  0
M  CHG  1  75   1
M  ISO  4  37 101  43 100  72 100  83 101
M  END
> <Batch ID>
0114

> <Smiles>
C=Cc1cc(C(=O)[100NH:0][100C:0](=O)N2CCCC(n3nc(-c4ccc(Oc5ccc(F)cc5F)cc4)c(C(N)=O)c3N)C2)c(F)cc1NCC=[101CH:1][101O:1]c1ccc2c(c1)CN(C(=O)C(NC(=O)C(C)NC)C(C)(C)C)C(C(=O)NC1CCCc3ccccc31)C2

> <Shape>
0.222

> <Color>
0.175

> <Negative vol penalty>
0.000

$$$$

  -OEChem-04052301373D

 86 94  0     1  0  0  0  0  0999 V2000
  -32.3865  -22.2919   22.9646 C   0  0  0  0  0  0  0  0  0  0  0  0
  -31.0838  -21.9533   23.3129 C   0  0  0  0  0  0  0  0  0  0  0  0
  -27.9817  -25.7368   17.5111 C   0  0  0  0  0  0  0  0  0  0  0  0
  -29.7847  -26.3203   19.0097 C   0  0  0  0  0  0  0  0  0  0  0  0
  -32.9160  -21.8541   21.7526 C   0  0  0  0  0  0  0  0  0  0  0  0
  -30.3143  -21.1670   22.4547 C   0  0  0  0  0  0  0  0  0  0  0  0
  -25.9380  -19.6620   24.1240 C   0  0  0  0  0  0  0  0  0  0  0  0
  -28.9088  -25.4291   16.5154 C   0  0  0  0  0  0  0  0  0  0  0  0
  -30.7118  -26.0126   18.0140 C   0  0  0  0  0  0  0  0  0  0  0  0
  -24.8522  -20.5233   24.2753 C   0  0  0  0  0  0  0  0  0  0  0  0
  -33.5408  -25.7249   15.7504 C   0  0  0  0  0  0  0  0  0  0  0  0
  -34.5934  -26.6171   15.5466 C   0  0  0  0  0  0  0  0  0  0  0  0
  -20.7244  -26.4591   23.5889 C   0  0  0  0  0  0  0  0  0  0  0  0
  -23.8690  -19.6274   22.2629 C   0  0  0  0  0  0  0  0  0  0  0  0
  -19.1054  -24.7027   23.2272 C   0  0  0  0  0  0  0  0  0  0  0  0
  -33.0102  -28.3663   15.0266 C   0  0  0  0  0  0  0  0  0  0  0  0
  -28.4196  -26.1824   18.7582 C   0  0  0  0  0  0  0  0  0  0  0  0
  -19.8741  -27.3716   22.9647 C   0  0  0  0  0  0  0  0  0  0  0  0
  -18.6393  -26.9497   22.4717 C   0  0  0  0  0  0  0  0  0  0  0  0
  -26.9371  -25.6286   20.7590 C   0  0  0  0  0  0  0  0  0  0  0  0
  -32.1477  -21.0725   20.8741 C   0  0  0  0  0  0  0  0  0  0  0  0
  -26.0028  -18.7831   23.0333 C   0  0  0  0  0  0  0  0  0  0  0  0
  -30.8390  -20.6953   21.2378 C   0  0  0  0  0  0  0  0  0  0  0  0
  -24.9554  -18.7542   22.1015 C   0  0  0  0  0  0  0  0  0  0  0  0
  -20.3401  -25.1246   23.7201 C   0  0  0  0  0  0  0  0  0  0  0  0
  -18.2549  -25.6153   22.6029 C   0  0  0  0  0  0  0  0  0  0  0  0
  -30.2738  -25.5670   16.7668 C   0  0  0  0  0  0  0  0  0  0  0  0
  -23.8189  -20.5082   23.3431 C   0  0  0  0  0  0  0  0  0  0  0  0
  -32.2228  -26.1534   15.5922 C   0  0  0  0  0  0  0  0  0  0  0  0
  -34.3282  -27.9378   15.1847 C   0  0  0  0  0  0  0  0  0  0  0  0
  -31.9575  -27.4741   15.2303 C   0  0  0  0  0  0  0  0  0  0  0  0
  -27.4624  -26.5010   19.7870 C   0  0  0  0  0  0  0  0  0  0  0  0
  -26.0766  -26.4090   21.4917 C   0  0  0  0  0  0  0  0  0  0  0  0
  -17.7500  -27.9073   21.8174 C   0  0  0  0  0  0  0  0  0  0  0  0
  -17.7511  -28.2094   20.5034 C   0  0  0  0  0  0  0  0  0  0  0  0
  -22.0323  -23.5946   23.5746 C   0  0  0  0  0  0  0  0  0  0  0  0
  -20.3263  -28.7818   22.8475 C   0  0  0  0  0  0  0  0  0  0  0  0
  -27.2033  -24.2371   20.9798 C   0  0  0  0  0  0  0  0  0  0  0  0
  -27.9858  -18.3956   20.5794 C   0  0  0  0  0  0  0  0  0  0  0  0
  -26.1503  -15.7820   20.0118 C   0  0  0  0  0  0  0  0  0  0  0  0
  -23.1462  -14.2108   20.4037 C   0  0  0  0  0  0  0  0  0  0  0  0
  -22.0796  -30.2274   21.8678 C   0  0  0  0  0  0  0  0  0  0  0  0
  -32.7733  -20.6192   19.5785 C   0  0  0  0  0  0  0  0  0  0  0  0
  -27.1681  -17.8415   22.8990 C   0  0  0  0  0  0  0  0  0  0  0  0
  -24.9674  -17.8152   20.9239 C   0  0  0  0  0  0  0  0  0  0  0  0
  -31.7440  -20.1716   18.5459 C   0  0  0  0  0  0  0  0  0  0  0  0
  -25.3865  -31.4267   21.5173 C   0  0  0  0  0  0  0  0  0  0  0  0
  -30.7648  -19.1937   19.1781 C   0  0  0  0  0  0  0  0  0  0  0  0
  -26.1830  -30.1798   21.1232 C   0  0  0  0  0  0  0  0  0  0  0  0
  -24.0000  -31.4408   20.8751 C   0  0  0  0  0  0  0  0  0  0  0  0
  -23.9978  -28.9861   20.6941 C   0  0  0  0  0  0  0  0  0  0  0  0
  -29.9729  -19.8666   20.3065 C   0  0  1  0  0  0  0  0  0  0  0  0
  -27.3772  -17.3496   21.4701 C   0  0  1  0  0  0  0  0  0  0  0  0
  -25.3746  -28.8904   21.3712 C   0  0  1  0  0  0  0  0  0  0  0  0
  -16.8276  -29.2041   19.8784 C   0  0  0  0  0  0  0  0  0  0  0  0
  -21.9329  -12.1001   19.7952 C   0  0  0  0  0  0  0  0  0  0  0  0
  -25.7582  -16.8287   17.1726 C   0  0  0  0  0  0  0  0  0  0  0  0
  -23.8335  -15.2461   16.9296 C   0  0  0  0  0  0  0  0  0  0  0  0
  -26.1305  -14.3608   17.3325 C   0  0  0  0  0  0  0  0  0  0  0  0
  -22.7977  -13.4550   23.2438 C   0  0  0  0  0  0  0  0  0  0  0  0
  -23.0023  -22.5972   24.1337 C   0  0  0  0  0  0  0  0  0  1  0  0
  -24.8962  -15.5084   19.2171 C   0  0  1  0  0  0  0  0  0  0  0  0
  -22.7972  -12.7975   20.8341 C   0  0  2  0  0  0  0  0  0  0  0  0
  -25.1550  -15.5052   17.6840 C   0  0  0  0  0  0  0  0  0  0  0  0
  -26.9761  -27.7407   19.8901 N   0  0  0  0  0  0  0  0  0  0  0  0
  -21.1966  -24.2053   24.3493 N   0  0  0  0  0  0  0  0  0  0  0  0
  -26.1362  -27.6529   20.9356 N   0  0  0  0  0  0  0  0  0  0  0  0
  -26.1314  -16.9184   20.8327 N   0  0  0  0  0  0  0  0  0  0  0  0
  -23.2963  -30.1901   21.1646 N   0  0  0  0  0  0  0  0  0  0  0  0
  -17.0100  -25.1572   22.1132 N   0  0  0  0  0  0  0  0  0  0  0  0
  -25.2823  -26.1457   22.5511 N   0  0  0  0  0  0  0  0  0  0  0  0
  -28.1144  -23.5888   20.1349 N   0  0  0  0  0  0  0  0  0  0  0  0
  -21.5078  -28.9778   22.1319 N   0  0  0  0  0  0  0  0  0  0  0  0
  -29.2123  -18.8605   21.0143 N   0  0  0  0  0  0  0  0  0  0  0  0
  -24.3504  -14.2579   19.7336 N   0  0  0  0  0  0  0  0  0  0  0  0
  -22.0547  -12.8180   22.1261 N   0  3  0  0  0  0  0  0  0  0  0  0
  -19.6377  -29.6732   23.3364 O   0  0  0  0  0  0  0  0  0  0  0  0
  -26.6372  -23.5839   21.8889 O   0  0  0  0  0  0  0  0  0  0  0  0
  -27.3876  -18.7533   19.5715 O   0  0  0  0  0  0  0  0  0  0  0  0
  -27.1087  -15.0116   19.9133 O   0  0  0  0  0  0  0  0  0  0  0  0
  -22.4212  -15.1758   20.6353 O   0  0  0  0  0  0  0  0  0  0  0  0
  -21.5657  -31.2796   22.2602 O   0  0  0  0  0  0  0  0  0  0  0  0
  -31.1788  -25.2667   15.7956 O   0  0  0  0  0  0  0  0  0  0  0  0
  -22.7582  -21.3483   23.4880 O   0  0  0  0  0  0  0  0  0  1  0  0
  -35.3391  -28.7948   14.9906 F   0  0  0  0  0  0  0  0  0  0  0  0
  -30.6934  -27.8919   15.0780 F   0  0  0  0  0  0  0  0  0  0  0  0
  1  2  1  0  0  0  0
  1  5  2  0  0  0  0
  2  6  2  0  0  0  0
  3  8  2  0  0  0  0
  3 17  1  0  0  0  0
  4  9  1  0  0  0  0
  4 17  2  0  0  0  0
  5 21  1  0  0  0  0
  6 23  1  0  0  0  0
  7 10  2  0  0  0  0
  7 22  1  0  0  0  0
  8 27  1  0  0  0  0
  9 27  2  0  0  0  0
 10 28  1  0  0  0  0
 11 12  2  0  0  0  0
 11 29  1  0  0  0  0
 12 30  1  0  0  0  0
 13 18  1  0  0  0  0
 13 25  2  0  0  0  0
 14 24  1  0  0  0  0
 14 28  2  0  0  0  0
 15 25  1  0  0  0  0
 15 26  2  0  0  0  0
 16 30  2  0  0  0  0
 16 31  1  0  0  0  0
 17 32  1  0  0  0  0
 18 19  2  0  0  0  0
 18 37  1  0  0  0  0
 19 26  1  0  0  0  0
 19 34  1  0  0  0  0
 20 32  1  0  0  0  0
 20 33  2  0  0  0  0
 20 38  1  0  0  0  0
 21 23  2  0  0  0  0
 21 43  1  0  0  0  0
 22 24  2  0  0  0  0
 22 44  1  0  0  0  0
 23 52  1  0  0  0  0
 24 45  1  0  0  0  0
 25 66  1  0  0  0  0
 26 70  1  0  0  0  0
 27 83  1  0  0  0  0
 28 84  1  0  0  0  0
 29 31  2  0  0  0  0
 29 83  1  0  0  0  0
 30 85  1  0  0  0  0
 31 86  1  0  0  0  0
 32 65  2  0  0  0  0
 33 67  1  0  0  0  0
 33 71  1  0  0  0  0
 34 35  2  0  0  0  0
 35 55  1  0  0  0  0
 36 61  1  0  0  0  0
 36 66  2  0  0  0  0
 37 73  1  0  0  0  0
 37 77  2  0  0  0  0
 38 72  1  0  0  0  0
 38 78  2  0  0  0  0
 39 53  1  0  0  0  0
 39 74  1  0  0  0  0
 39 79  2  0  0  0  0
 40 62  1  0  0  0  0
 40 68  1  0  0  0  0
 40 80  2  0  0  0  0
 41 63  1  0  0  0  0
 41 75  1  0  0  0  0
 41 81  2  0  0  0  0
 42 69  1  0  0  0  0
 42 73  1  0  0  0  0
 42 82  2  0  0  0  0
 43 46  1  0  0  0  0
 44 53  1  0  0  0  0
 45 68  1  0  0  0  0
 46 48  1  0  0  0  0
 47 49  1  0  0  0  0
 47 50  1  0  0  0  0
 48 52  1  0  0  0  0
 49 54  1  0  0  0  0
 50 69  1  0  0  0  0
 51 54  1  0  0  0  0
 51 69  1  0  0  0  0
 52 74  1  0  0  0  0
 53 68  1  0  0  0  0
 54 67  1  0  0  0  0
 56 63  1  0  0  0  0
 57 64  1  0  0  0  0
 58 64  1  0  0  0  0
 59 64  1  0  0  0  0
 60 76  1  0  0  0  0
 61 84  1  0  0  0  0
 62 64  1  0  0  0  0
 62 75  1  0  0  0  0
 63 76  1  0  0  0  0
 65 67  1  0  0  0  0
M  CHG  1  76   1
M  ISO  4  42 100  61 101  73 100  84 101
M  END
> <Batch ID>
0114

> <Smiles>
CC=Cc1c(N)cc(NC=[101CH:1][101O:1]c2ccc3c(c2)CN(C(=O)C(NC(=O)C(C)NC)C(C)(C)C)C(C(=O)NC2CCCc4ccccc42)C3)cc1C(=O)[100NH:0][100C:0](=O)N1CCCC(n2nc(-c3ccc(Oc4ccc(F)cc4F)cc3)c(C(N)=O)c2N)C1

> <Shape>
0.200

> <Color>
0.068

> <Negative vol penalty>
0.000

$$$$

  -OEChem-04052301373D

 84 92  0     1  0  0  0  0  0999 V2000
  -28.3064  -24.2241   17.0803 C   0  0  0  0  0  0  0  0  0  0  0  0
  -27.1405  -24.3969   17.8194 C   0  0  0  0  0  0  0  0  0  0  0  0
  -26.4269  -13.6767   21.0013 C   0  0  0  0  0  0  0  0  0  0  0  0
  -24.1959  -13.6987   20.0744 C   0  0  0  0  0  0  0  0  0  0  0  0
  -29.4890  -24.8367   17.4927 C   0  0  0  0  0  0  0  0  0  0  0  0
  -27.1568  -25.1815   18.9720 C   0  0  0  0  0  0  0  0  0  0  0  0
  -23.1972  -28.3274   19.2367 C   0  0  0  0  0  0  0  0  0  0  0  0
  -26.1171  -12.5220   21.7198 C   0  0  0  0  0  0  0  0  0  0  0  0
  -23.8860  -12.5439   20.7929 C   0  0  0  0  0  0  0  0  0  0  0  0
  -21.9766  -27.7827   19.6334 C   0  0  0  0  0  0  0  0  0  0  0  0
  -22.6211   -9.3975   22.1036 C   0  0  0  0  0  0  0  0  0  0  0  0
  -21.9429   -8.3788   21.4344 C   0  0  0  0  0  0  0  0  0  0  0  0
  -20.7534  -22.5257   20.2030 C   0  0  0  0  0  0  0  0  0  0  0  0
  -18.4508  -22.1357   19.5843 C   0  0  0  0  0  0  0  0  0  0  0  0
  -22.3294  -28.6321   21.8635 C   0  0  0  0  0  0  0  0  0  0  0  0
  -20.1841  -20.6555   18.7834 C   0  0  0  0  0  0  0  0  0  0  0  0
  -23.7657   -8.2005   19.8586 C   0  0  0  0  0  0  0  0  0  0  0  0
  -25.4663  -14.2651   20.1786 C   0  0  0  0  0  0  0  0  0  0  0  0
  -19.4081  -22.8892   20.2637 C   0  0  0  0  0  0  0  0  0  0  0  0
  -26.3254  -15.5331   18.1386 C   0  0  0  0  0  0  0  0  0  0  0  0
  -29.5176  -25.6371   18.6456 C   0  0  0  0  0  0  0  0  0  0  0  0
  -23.9994  -29.0203   20.1547 C   0  0  0  0  0  0  0  0  0  0  0  0
  -28.3412  -25.8043   19.4009 C   0  0  0  0  0  0  0  0  0  0  0  0
  -23.5584  -29.1868   21.4753 C   0  0  0  0  0  0  0  0  0  0  0  0
  -21.1414  -21.4089   19.4628 C   0  0  0  0  0  0  0  0  0  0  0  0
  -24.8466  -11.9556   21.6156 C   0  0  0  0  0  0  0  0  0  0  0  0
  -21.5439  -27.9325   20.9477 C   0  0  0  0  0  0  0  0  0  0  0  0
  -23.8716   -9.8177   21.6503 C   0  0  0  0  0  0  0  0  0  0  0  0
  -18.8388  -21.0189   18.8441 C   0  0  0  0  0  0  0  0  0  0  0  0
  -22.5152   -7.7803   20.3119 C   0  0  0  0  0  0  0  0  0  0  0  0
  -24.4439   -9.2192   20.5279 C   0  0  0  0  0  0  0  0  0  0  0  0
  -25.7856  -15.4582   19.4366 C   0  0  0  0  0  0  0  0  0  0  0  0
  -26.4403  -16.8794   17.8918 C   0  0  0  0  0  0  0  0  0  0  0  0
  -18.9973  -24.0674   21.0453 C   0  0  0  0  0  0  0  0  0  0  0  0
  -19.7193  -24.6361   22.0236 C   0  0  0  0  0  0  0  0  0  0  0  0
  -26.6902  -14.4800   17.2367 C   0  0  0  0  0  0  0  0  0  0  0  0
  -26.9156  -28.6022   21.3483 C   0  0  0  0  0  0  0  0  0  0  0  0
  -26.3499  -31.4922   22.7085 C   0  0  0  0  0  0  0  0  0  0  0  0
  -24.0688  -33.7848   23.7982 C   0  0  0  0  0  0  0  0  0  0  0  0
  -23.5840  -21.6779   20.0178 C   0  0  0  0  0  0  0  0  0  0  0  0
  -30.8304  -26.2405   19.0781 C   0  0  0  0  0  0  0  0  0  0  0  0
  -25.3009  -29.6249   19.7043 C   0  0  0  0  0  0  0  0  0  0  0  0
  -24.3730  -29.9394   22.4944 C   0  0  0  0  0  0  0  0  0  0  0  0
  -30.6774  -27.3609   20.1036 C   0  0  0  0  0  0  0  0  0  0  0  0
  -27.0878  -21.0572   20.1413 C   0  0  0  0  0  0  0  0  0  0  0  0
  -29.7114  -26.9451   21.2084 C   0  0  0  0  0  0  0  0  0  0  0  0
  -27.2010  -19.5590   19.8505 C   0  0  0  0  0  0  0  0  0  0  0  0
  -25.8544  -21.3799   20.9829 C   0  0  0  0  0  0  0  0  0  0  0  0
  -24.7003  -19.3651   20.1598 C   0  0  0  0  0  0  0  0  0  0  0  0
  -28.3131  -26.6681   20.6432 C   0  0  1  0  0  0  0  0  0  0  0  0
  -26.2758  -29.8680   20.8522 C   0  0  1  0  0  0  0  0  0  0  0  0
  -25.8920  -18.9990   19.2601 C   0  0  2  0  0  0  0  0  0  0  0  0
  -17.1410  -19.5006   16.0512 C   0  0  0  0  0  0  0  0  0  0  0  0
  -23.9082  -36.0343   24.8987 C   0  0  0  0  0  0  0  0  0  0  0  0
  -27.0525  -30.2258   25.3942 C   0  0  0  0  0  0  0  0  0  0  0  0
  -25.9783  -32.1866   26.5209 C   0  0  0  0  0  0  0  0  0  0  0  0
  -27.9677  -32.5284   25.0553 C   0  0  0  0  0  0  0  0  0  0  0  0
  -22.6626  -34.9522   21.4704 C   0  0  0  0  0  0  0  0  0  0  0  0
  -19.2552  -25.8336   22.8067 C   0  0  0  0  0  0  0  0  0  0  0  0
  -18.3241  -19.6249   16.9873 C   0  0  0  0  0  0  0  0  0  0  0  0
  -20.2398  -26.9921   22.7001 C   0  0  0  0  0  0  0  0  0  1  0  0
  -25.7383  -31.9616   24.0064 C   0  0  1  0  0  0  0  0  0  0  0  0
  -23.9621  -35.2829   23.5776 C   0  0  2  0  0  0  0  0  0  0  0  0
  -26.6695  -31.7097   25.2258 C   0  0  0  0  0  0  0  0  0  0  0  0
  -25.5725  -16.6611   19.9767 N   0  0  0  0  0  0  0  0  0  0  0  0
  -25.9806  -17.5046   19.0133 N   0  0  0  0  0  0  0  0  0  0  0  0
  -25.6412  -30.5067   22.0070 N   0  0  0  0  0  0  0  0  0  0  0  0
  -24.6521  -20.8219   20.3601 N   0  0  0  0  0  0  0  0  0  0  0  0
  -26.8889  -17.5775   16.8269 N   0  0  0  0  0  0  0  0  0  0  0  0
  -26.5065  -13.1533   17.6494 N   0  0  0  0  0  0  0  0  0  0  0  0
  -22.5080  -21.0395   19.4019 N   0  0  0  0  0  0  0  0  0  0  0  0
  -27.6189  -27.9105   20.3806 N   0  0  0  0  0  0  0  0  0  0  0  0
  -25.3812  -33.3619   23.8065 N   0  0  0  0  0  0  0  0  0  0  0  0
  -22.7309  -35.6060   22.8026 N   0  3  0  0  0  0  0  0  0  0  0  0
  -27.1804  -14.7086   16.1049 O   0  0  0  0  0  0  0  0  0  0  0  0
  -26.7823  -28.2779   22.5225 O   0  0  0  0  0  0  0  0  0  0  0  0
  -27.4137  -31.9871   22.3275 O   0  0  0  0  0  0  0  0  0  0  0  0
  -23.0863  -33.0625   23.9517 O   0  0  0  0  0  0  0  0  0  0  0  0
  -23.6324  -22.8924   20.2290 O   0  0  0  0  0  0  0  0  0  0  0  0
  -24.5440  -10.8287   22.3163 O   0  0  0  0  0  0  0  0  0  0  0  0
  -20.3533  -27.4013   21.3378 O   0  0  0  0  0  0  0  0  0  1  0  0
  -17.9046  -20.2832   18.1816 O   0  0  0  0  0  0  0  0  0  0  0  0
  -21.8645   -6.8010   19.6702 F   0  0  0  0  0  0  0  0  0  0  0  0
  -25.6454   -9.6179   20.0884 F   0  0  0  0  0  0  0  0  0  0  0  0
  1  2  1  0  0  0  0
  1  5  2  0  0  0  0
  2  6  2  0  0  0  0
  3  8  2  0  0  0  0
  3 18  1  0  0  0  0
  4  9  1  0  0  0  0
  4 18  2  0  0  0  0
  5 21  1  0  0  0  0
  6 23  1  0  0  0  0
  7 10  2  0  0  0  0
  7 22  1  0  0  0  0
  8 26  1  0  0  0  0
  9 26  2  0  0  0  0
 10 27  1  0  0  0  0
 11 12  2  0  0  0  0
 11 28  1  0  0  0  0
 12 30  1  0  0  0  0
 13 19  1  0  0  0  0
 13 25  2  0  0  0  0
 14 19  2  0  0  0  0
 14 29  1  0  0  0  0
 15 24  1  0  0  0  0
 15 27  2  0  0  0  0
 16 25  1  0  0  0  0
 16 29  2  0  0  0  0
 17 30  2  0  0  0  0
 17 31  1  0  0  0  0
 18 32  1  0  0  0  0
 19 34  1  0  0  0  0
 20 32  1  0  0  0  0
 20 33  2  0  0  0  0
 20 36  1  0  0  0  0
 21 23  2  0  0  0  0
 21 41  1  0  0  0  0
 22 24  2  0  0  0  0
 22 42  1  0  0  0  0
 23 50  1  0  0  0  0
 24 43  1  0  0  0  0
 25 71  1  0  0  0  0
 26 80  1  0  0  0  0
 27 81  1  0  0  0  0
 28 31  2  0  0  0  0
 28 80  1  0  0  0  0
 29 82  1  0  0  0  0
 30 83  1  0  0  0  0
 31 84  1  0  0  0  0
 32 65  2  0  0  0  0
 33 66  1  0  0  0  0
 33 69  1  0  0  0  0
 34 35  2  0  0  0  0
 35 59  1  0  0  0  0
 36 70  1  0  0  0  0
 36 75  2  0  0  0  0
 37 51  1  0  0  0  0
 37 72  1  0  0  0  0
 37 76  2  0  0  0  0
 38 62  1  0  0  0  0
 38 67  1  0  0  0  0
 38 77  2  0  0  0  0
 39 63  1  0  0  0  0
 39 73  1  0  0  0  0
 39 78  2  0  0  0  0
 40 68  1  0  0  0  0
 40 71  1  0  0  0  0
 40 79  2  0  0  0  0
 41 44  1  0  0  0  0
 42 51  1  0  0  0  0
 43 67  1  0  0  0  0
 44 46  1  0  0  0  0
 45 47  1  0  0  0  0
 45 48  1  0  0  0  0
 46 50  1  0  0  0  0
 47 52  1  0  0  0  0
 48 68  1  0  0  0  0
 49 52  1  0  0  0  0
 49 68  1  0  0  0  0
 50 72  1  0  0  0  0
 51 67  1  0  0  0  0
 52 66  1  0  0  0  0
 53 60  1  0  0  0  0
 54 63  1  0  0  0  0
 55 64  1  0  0  0  0
 56 64  1  0  0  0  0
 57 64  1  0  0  0  0
 58 74  1  0  0  0  0
 59 61  1  0  0  0  0
 60 82  1  0  0  0  0
 61 81  1  0  0  0  0
 62 64  1  0  0  0  0
 62 73  1  0  0  0  0
 63 74  1  0  0  0  0
 65 66  1  0  0  0  0
M  CHG  1  74   1
M  ISO  4  40 100  61 101  71 100  81 101
M  END
> <Batch ID>
0114

> <Smiles>
CCOc1cc(C=CC[101CH2:1][101O:1]c2ccc3c(c2)CN(C(=O)C(NC(=O)C(C)NC)C(C)(C)C)C(C(=O)NC2CCCc4ccccc42)C3)cc([100NH:0][100C:0](=O)N2CCCC(n3nc(-c4ccc(Oc5ccc(F)cc5F)cc4)c(C(N)=O)c3N)C2)c1

> <Shape>
0.274

> <Color>
0.084

> <Negative vol penalty>
0.000

$$$$

  -OEChem-04052301373D

 84 92  0     1  0  0  0  0  0999 V2000
  -30.6382  -34.1682   23.3942 C   0  0  0  0  0  0  0  0  0  0  0  0
  -30.8486  -33.2195   22.3986 C   0  0  0  0  0  0  0  0  0  0  0  0
  -22.8560  -10.2908   19.9791 C   0  0  0  0  0  0  0  0  0  0  0  0
  -23.9985   -9.6690   22.0151 C   0  0  0  0  0  0  0  0  0  0  0  0
  -29.7459  -33.9019   24.4318 C   0  0  0  0  0  0  0  0  0  0  0  0
  -30.1675  -32.0035   22.4407 C   0  0  0  0  0  0  0  0  0  0  0  0
  -27.3399  -27.0360   18.1227 C   0  0  0  0  0  0  0  0  0  0  0  0
  -22.0683   -9.1433   20.0707 C   0  0  0  0  0  0  0  0  0  0  0  0
  -23.2107   -8.5216   22.1068 C   0  0  0  0  0  0  0  0  0  0  0  0
  -27.3689  -25.6600   17.8998 C   0  0  0  0  0  0  0  0  0  0  0  0
  -20.0779   -7.7252   23.0926 C   0  0  0  0  0  0  0  0  0  0  0  0
  -19.5342   -7.4120   24.3383 C   0  0  0  0  0  0  0  0  0  0  0  0
  -25.7920  -25.3416   19.6973 C   0  0  0  0  0  0  0  0  0  0  0  0
  -28.8402  -18.2804   22.4013 C   0  0  0  0  0  0  0  0  0  0  0  0
  -20.7093   -5.3011   24.3205 C   0  0  0  0  0  0  0  0  0  0  0  0
  -23.8212  -10.5536   20.9513 C   0  0  0  0  0  0  0  0  0  0  0  0
  -24.3573  -13.0068   21.4006 C   0  0  0  0  0  0  0  0  0  0  0  0
  -29.0463  -32.6859   24.4814 C   0  0  0  0  0  0  0  0  0  0  0  0
  -26.5437  -27.5750   19.1435 C   0  0  0  0  0  0  0  0  0  0  0  0
  -29.2660  -31.7201   23.4807 C   0  0  0  0  0  0  0  0  0  0  0  0
  -25.7527  -26.7250   19.9295 C   0  0  0  0  0  0  0  0  0  0  0  0
  -29.5042  -17.0939   22.8273 C   0  0  0  0  0  0  0  0  0  0  0  0
  -22.2456   -8.2587   21.1345 C   0  0  0  0  0  0  0  0  0  0  0  0
  -26.5971  -24.8123   18.6890 C   0  0  0  0  0  0  0  0  0  0  0  0
  -20.9373   -6.8263   22.4607 C   0  0  0  0  0  0  0  0  0  0  0  0
  -19.8499   -6.2000   24.9523 C   0  0  0  0  0  0  0  0  0  0  0  0
  -21.2530   -5.6143   23.0747 C   0  0  0  0  0  0  0  0  0  0  0  0
  -24.6356  -11.7385   20.8569 C   0  0  0  0  0  0  0  0  0  0  0  0
  -29.9130  -16.3195   21.7639 C   0  0  0  0  0  0  0  0  0  0  0  0
  -25.4318  -13.7804   21.0350 C   0  0  0  0  0  0  0  0  0  0  0  0
  -28.7670  -18.3678   21.0283 C   0  0  0  0  0  0  0  0  0  0  0  0
  -27.0351  -22.6616   19.4973 C   0  0  0  0  0  0  0  0  0  1  0  0
  -23.2286  -13.4464   22.1677 C   0  0  0  0  0  0  0  0  0  0  0  0
  -30.6042  -15.0699   21.7689 C   0  0  0  0  0  0  0  0  0  0  0  0
  -27.1004  -21.3285   19.3963 C   0  0  0  0  0  0  0  0  0  0  0  0
  -30.9709  -14.3654   20.5189 C   0  0  0  0  0  0  0  0  0  0  0  0
  -27.5639  -20.5313   20.5786 C   0  0  0  0  0  0  0  0  0  0  0  0
  -27.1143  -29.2348   21.7936 C   0  0  0  0  0  0  0  0  0  0  0  0
  -23.8771  -29.3954   21.9243 C   0  0  0  0  0  0  0  0  0  0  0  0
  -20.8711  -28.0459   21.0357 C   0  0  0  0  0  0  0  0  0  0  0  0
  -28.1274  -32.4241   25.6484 C   0  0  0  0  0  0  0  0  0  0  0  0
  -26.5030  -29.0638   19.3537 C   0  0  0  0  0  0  0  0  0  0  0  0
  -24.8654  -27.2554   21.0249 C   0  0  0  0  0  0  0  0  0  0  0  0
  -27.1642  -31.2627   25.4167 C   0  0  0  0  0  0  0  0  0  0  0  0
  -29.1884  -12.8901   17.7798 C   0  0  0  0  0  0  0  0  0  0  0  0
  -27.9057  -30.0614   24.8387 C   0  0  0  0  0  0  0  0  0  0  0  0
  -27.8360  -12.5280   18.3927 C   0  0  0  0  0  0  0  0  0  0  0  0
  -30.3194  -12.7346   18.7913 C   0  0  0  0  0  0  0  0  0  0  0  0
  -28.7566  -13.1509   20.6709 C   0  0  0  0  0  0  0  0  0  0  0  0
  -28.5274  -30.3993   23.4782 C   0  0  1  0  0  0  0  0  0  0  0  0
  -26.0501  -29.4570   20.7564 C   0  0  1  0  0  0  0  0  0  0  0  0
  -27.5860  -13.3223   19.6871 C   0  0  2  0  0  0  0  0  0  0  0  0
  -29.7227  -16.7468   24.2525 C   0  0  0  0  0  0  0  0  0  0  0  0
  -18.4005  -28.3778   21.3239 C   0  0  0  0  0  0  0  0  0  0  0  0
  -24.0615  -28.2872   24.7611 C   0  0  0  0  0  0  0  0  0  0  0  0
  -21.6184  -27.7542   24.6371 C   0  0  0  0  0  0  0  0  0  0  0  0
  -22.3872  -30.1211   24.4644 C   0  0  0  0  0  0  0  0  0  0  0  0
  -20.4611  -28.3946   18.1255 C   0  0  0  0  0  0  0  0  0  0  0  0
  -22.7880  -28.5433   22.5299 C   0  0  1  0  0  0  0  0  0  0  0  0
  -19.6156  -28.6748   20.4590 C   0  0  2  0  0  0  0  0  0  0  0  0
  -22.7319  -28.6660   24.0788 C   0  0  0  0  0  0  0  0  0  0  0  0
  -25.7958  -11.7040   20.1960 N   0  0  0  0  0  0  0  0  0  0  0  0
  -30.9790  -14.4326   22.8627 N   0  0  0  0  0  0  0  0  0  0  0  0
  -26.2560  -12.9604   20.3220 N   0  0  0  0  0  0  0  0  0  0  0  0
  -30.0337  -13.4711   20.0209 N   0  0  0  0  0  0  0  0  0  0  0  0
  -24.8648  -28.7177   21.1956 N   0  0  0  0  0  0  0  0  0  0  0  0
  -25.7424  -15.0753   21.2570 N   0  0  0  0  0  0  0  0  0  0  0  0
  -22.2144  -12.5224   22.4537 N   0  0  0  0  0  0  0  0  0  0  0  0
  -28.2023  -19.3608   20.1921 N   0  0  0  0  0  0  0  0  0  0  0  0
  -27.5160  -30.3864   22.4431 N   0  0  0  0  0  0  0  0  0  0  0  0
  -21.5510  -28.9218   21.8553 N   0  0  0  0  0  0  0  0  0  0  0  0
  -19.3563  -28.1506   19.0883 N   0  3  0  0  0  0  0  0  0  0  0  0
  -23.1147  -14.6280   22.5731 O   0  0  0  0  0  0  0  0  0  0  0  0
  -32.0683  -14.6487   20.0563 O   0  0  0  0  0  0  0  0  0  0  0  0
  -27.3677  -20.9282   21.7222 O   0  0  0  0  0  0  0  0  0  0  0  0
  -27.5384  -28.1022   21.9910 O   0  0  0  0  0  0  0  0  0  0  0  0
  -23.8484  -30.6181   22.0856 O   0  0  0  0  0  0  0  0  0  0  0  0
  -21.2125  -26.8916   20.7871 O   0  0  0  0  0  0  0  0  0  0  0  0
  -26.7554  -20.6538   18.2429 O   0  0  0  0  0  0  0  0  0  0  0  0
  -21.4769   -7.1390   21.2243 O   0  0  0  0  0  0  0  0  0  0  0  0
  -26.6241  -23.4689   18.4740 O   0  0  0  0  0  0  0  0  0  1  0  0
  -19.3289   -5.9000   26.1492 F   0  0  0  0  0  0  0  0  0  0  0  0
  -22.0790   -4.7473   22.4732 F   0  0  0  0  0  0  0  0  0  0  0  0
  -29.4966  -17.0230   20.2592 S   0  0  0  0  0  0  0  0  0  0  0  0
  1  2  1  0  0  0  0
  1  5  2  0  0  0  0
  2  6  2  0  0  0  0
  3  8  2  0  0  0  0
  3 16  1  0  0  0  0
  4  9  1  0  0  0  0
  4 16  2  0  0  0  0
  5 18  1  0  0  0  0
  6 20  1  0  0  0  0
  7 10  2  0  0  0  0
  7 19  1  0  0  0  0
  8 23  1  0  0  0  0
  9 23  2  0  0  0  0
 10 24  1  0  0  0  0
 11 12  2  0  0  0  0
 11 25  1  0  0  0  0
 12 26  1  0  0  0  0
 13 21  1  0  0  0  0
 13 24  2  0  0  0  0
 14 22  1  0  0  0  0
 14 31  2  0  0  0  0
 15 26  2  0  0  0  0
 15 27  1  0  0  0  0
 16 28  1  0  0  0  0
 17 28  1  0  0  0  0
 17 30  2  0  0  0  0
 17 33  1  0  0  0  0
 18 20  2  0  0  0  0
 18 41  1  0  0  0  0
 19 21  2  0  0  0  0
 19 42  1  0  0  0  0
 20 50  1  0  0  0  0
 21 43  1  0  0  0  0
 22 29  2  0  0  0  0
 22 53  1  0  0  0  0
 23 80  1  0  0  0  0
 24 81  1  0  0  0  0
 25 27  2  0  0  0  0
 25 80  1  0  0  0  0
 26 82  1  0  0  0  0
 27 83  1  0  0  0  0
 28 62  2  0  0  0  0
 29 34  1  0  0  0  0
 29 84  1  0  0  0  0
 30 64  1  0  0  0  0
 30 67  1  0  0  0  0
 31 69  1  0  0  0  0
 31 84  1  0  0  0  0
 32 35  2  0  0  0  0
 32 81  1  0  0  0  0
 33 68  1  0  0  0  0
 33 73  2  0  0  0  0
 34 36  1  0  0  0  0
 34 63  2  0  0  0  0
 35 37  1  0  0  0  0
 35 79  1  0  0  0  0
 36 65  1  0  0  0  0
 36 74  2  0  0  0  0
 37 69  1  0  0  0  0
 37 75  2  0  0  0  0
 38 51  1  0  0  0  0
 38 70  1  0  0  0  0
 38 76  2  0  0  0  0
 39 59  1  0  0  0  0
 39 66  1  0  0  0  0
 39 77  2  0  0  0  0
 40 60  1  0  0  0  0
 40 71  1  0  0  0  0
 40 78  2  0  0  0  0
 41 44  1  0  0  0  0
 42 51  1  0  0  0  0
 43 66  1  0  0  0  0
 44 46  1  0  0  0  0
 45 47  1  0  0  0  0
 45 48  1  0  0  0  0
 46 50  1  0  0  0  0
 47 52  1  0  0  0  0
 48 65  1  0  0  0  0
 49 52  1  0  0  0  0
 49 65  1  0  0  0  0
 50 70  1  0  0  0  0
 51 66  1  0  0  0  0
 52 64  1  0  0  0  0
 54 60  1  0  0  0  0
 55 61  1  0  0  0  0
 56 61  1  0  0  0  0
 57 61  1  0  0  0  0
 58 72  1  0  0  0  0
 59 61  1  0  0  0  0
 59 71  1  0  0  0  0
 60 72  1  0  0  0  0
 62 64  1  0  0  0  0
M  CHG  1  72   1
M  ISO  4  32 101  34 100  36 100  81 101
M  END
> <Batch ID>
0114

> <Smiles>
CNC(C)C(=O)NC(C(=O)N1Cc2cc([101O:1][101CH2:1]C(=O)C(=O)Nc3cc(C)c([100C:0](=N)[100C:0](=O)N4CCCC(n5nc(-c6ccc(Oc7ccc(F)cc7F)cc6)c(C(N)=O)c5N)C4)s3)ccc2CC1C(=O)NC1CCCc2ccccc21)C(C)(C)C

> <Shape>
0.345

> <Color>
0.174

> <Negative vol penalty>
0.000

$$$$

  -OEChem-04052301373D

 86 94  0     1  0  0  0  0  0999 V2000
  -24.9634  -24.3184   28.9806 C   0  0  0  0  0  0  0  0  0  0  0  0
  -24.3923  -23.4190   28.0861 C   0  0  0  0  0  0  0  0  0  0  0  0
  -27.6212  -23.0808   20.4270 C   0  0  0  0  0  0  0  0  0  0  0  0
  -29.2590  -23.3062   18.6652 C   0  0  0  0  0  0  0  0  0  0  0  0
  -24.3271  -25.5289   29.2521 C   0  0  0  0  0  0  0  0  0  0  0  0
  -23.1838  -23.7290   27.4633 C   0  0  0  0  0  0  0  0  0  0  0  0
  -23.2241  -22.6750   22.5103 C   0  0  0  0  0  0  0  0  0  0  0  0
  -27.6032  -24.4663   20.5876 C   0  0  0  0  0  0  0  0  0  0  0  0
  -29.2410  -24.6917   18.8257 C   0  0  0  0  0  0  0  0  0  0  0  0
  -23.0631  -21.3400   22.1421 C   0  0  0  0  0  0  0  0  0  0  0  0
  -26.8581  -27.9685   21.2154 C   0  0  0  0  0  0  0  0  0  0  0  0
  -25.6160  -28.5909   21.3393 C   0  0  0  0  0  0  0  0  0  0  0  0
  -26.0061  -11.9977   20.6054 C   0  0  0  0  0  0  0  0  0  0  0  0
  -23.7445  -12.7582   20.2263 C   0  0  0  0  0  0  0  0  0  0  0  0
  -25.4191  -14.3023   21.0317 C   0  0  0  0  0  0  0  0  0  0  0  0
  -20.7378  -21.7606   21.6569 C   0  0  0  0  0  0  0  0  0  0  0  0
  -24.9821  -27.7596   19.1612 C   0  0  0  0  0  0  0  0  0  0  0  0
  -28.4491  -22.5008   19.4659 C   0  0  0  0  0  0  0  0  0  0  0  0
  -24.6940  -11.7365   20.2106 C   0  0  0  0  0  0  0  0  0  0  0  0
  -26.3686  -13.2806   21.0160 C   0  0  0  0  0  0  0  0  0  0  0  0
  -27.6551  -20.3018   18.4453 C   0  0  0  0  0  0  0  0  0  0  0  0
  -23.1150  -25.8581   28.6250 C   0  0  0  0  0  0  0  0  0  0  0  0
  -22.1388  -23.5618   22.4649 C   0  0  0  0  0  0  0  0  0  0  0  0
  -22.5299  -24.9444   27.7277 C   0  0  0  0  0  0  0  0  0  0  0  0
  -20.8883  -23.1070   22.0226 C   0  0  0  0  0  0  0  0  0  0  0  0
  -28.4131  -25.2717   19.7869 C   0  0  0  0  0  0  0  0  0  0  0  0
  -21.8191  -20.8819   21.7181 C   0  0  0  0  0  0  0  0  0  0  0  0
  -27.1623  -27.2417   20.0643 C   0  0  0  0  0  0  0  0  0  0  0  0
  -24.1070  -14.0411   20.6369 C   0  0  0  0  0  0  0  0  0  0  0  0
  -24.6780  -28.4864   20.3123 C   0  0  0  0  0  0  0  0  0  0  0  0
  -26.2243  -27.1372   19.0373 C   0  0  0  0  0  0  0  0  0  0  0  0
  -28.4686  -21.0696   19.3000 C   0  0  0  0  0  0  0  0  0  0  0  0
  -28.0615  -19.0069   18.6563 C   0  0  0  0  0  0  0  0  0  0  0  0
  -24.3156  -10.3990   19.7818 C   0  0  0  0  0  0  0  0  0  0  0  0
  -27.7544  -13.5564   21.4348 C   0  0  0  0  0  0  0  0  0  0  0  0
  -25.1623   -9.4343   19.3561 C   0  0  0  0  0  0  0  0  0  0  0  0
  -26.6244  -20.7215   17.5414 C   0  0  0  0  0  0  0  0  0  0  0  0
  -20.5699  -25.2987   24.6155 C   0  0  0  0  0  0  0  0  0  0  0  0
  -22.4667  -17.3224   21.0192 C   0  0  0  0  0  0  0  0  0  0  0  0
  -19.0526  -26.4623   21.9951 C   0  0  0  0  0  0  0  0  0  0  0  0
  -18.1095  -25.9975   18.7484 C   0  0  0  0  0  0  0  0  0  0  0  0
  -29.4438  -14.9192   22.1965 C   0  0  0  0  0  0  0  0  0  0  0  0
  -22.4405  -27.1579   28.9861 C   0  0  0  0  0  0  0  0  0  0  0  0
  -22.3353  -25.0051   22.8399 C   0  0  0  0  0  0  0  0  0  0  0  0
  -19.6962  -24.0235   21.9366 C   0  0  0  0  0  0  0  0  0  0  0  0
  -21.3519  -27.5736   28.0001 C   0  0  0  0  0  0  0  0  0  0  0  0
  -32.0604  -17.1588   21.1277 C   0  0  0  0  0  0  0  0  0  0  0  0
  -20.4441  -26.3910   27.6771 C   0  0  0  0  0  0  0  0  0  0  0  0
  -31.2883  -18.3288   20.5183 C   0  0  0  0  0  0  0  0  0  0  0  0
  -31.3198  -16.5590   22.3191 C   0  0  0  0  0  0  0  0  0  0  0  0
  -29.1427  -17.3088   21.3990 C   0  0  0  0  0  0  0  0  0  0  0  0
  -21.2326  -25.2555   27.0134 C   0  0  1  0  0  0  0  0  0  0  0  0
  -21.0386  -25.6991   23.2453 C   0  0  1  0  0  0  0  0  0  0  0  0
  -29.8450  -17.9196   20.1743 C   0  0  1  0  0  0  0  0  0  0  0  0
  -24.7269   -8.0745   18.9154 C   0  0  0  0  0  0  0  0  0  0  0  0
  -17.1423  -26.5579   16.5016 C   0  0  0  0  0  0  0  0  0  0  0  0
  -16.4182  -25.7335   23.3512 C   0  0  0  0  0  0  0  0  0  0  0  0
  -15.2901  -25.9659   21.1282 C   0  0  0  0  0  0  0  0  0  0  0  0
  -16.4085  -27.9376   22.1694 C   0  0  0  0  0  0  0  0  0  0  0  0
  -20.6848  -27.0907   17.7833 C   0  0  0  0  0  0  0  0  0  0  0  0
  -22.8081  -18.7370   21.4403 C   0  0  0  0  0  0  0  0  0  1  0  0
  -23.6034  -16.3228   21.0796 C   0  0  0  0  0  0  0  0  0  0  0  0
  -17.8224  -26.0734   21.2114 C   0  0  1  0  0  0  0  0  0  0  0  0
  -18.2070  -26.9005   17.5320 C   0  0  2  0  0  0  0  0  0  0  0  0
  -16.5066  -26.4096   21.9684 C   0  0  0  0  0  0  0  0  0  0  0  0
  -29.3268  -20.3246   20.0018 N   0  0  0  0  0  0  0  0  0  0  0  0
  -28.1277  -14.7331   21.8187 N   0  0  0  0  0  0  0  0  0  0  0  0
  -29.0548  -19.0751   19.5885 N   0  0  0  0  0  0  0  0  0  0  0  0
  -19.9374  -25.4243   22.3201 N   0  0  0  0  0  0  0  0  0  0  0  0
  -29.9429  -16.2137   21.9630 N   0  0  0  0  0  0  0  0  0  0  0  0
  -27.6625  -17.8279   18.1336 N   0  0  0  0  0  0  0  0  0  0  0  0
  -26.3342  -22.0895   17.4477 N   0  0  0  0  0  0  0  0  0  0  0  0
  -21.4815  -25.5599   25.6206 N   0  0  0  0  0  0  0  0  0  0  0  0
  -17.9455  -26.7217   19.9102 N   0  0  0  0  0  0  0  0  0  0  0  0
  -19.5446  -26.7615   16.8897 N   0  3  0  0  0  0  0  0  0  0  0  0
  -25.9685  -19.9060   16.8498 O   0  0  0  0  0  0  0  0  0  0  0  0
  -19.4624  -24.7919   24.7511 O   0  0  0  0  0  0  0  0  0  0  0  0
  -21.3368  -17.0054   20.6505 O   0  0  0  0  0  0  0  0  0  0  0  0
  -19.2259  -27.6446   22.3014 O   0  0  0  0  0  0  0  0  0  0  0  0
  -18.1688  -24.7721   18.6748 O   0  0  0  0  0  0  0  0  0  0  0  0
  -30.1440  -14.0402   22.7045 O   0  0  0  0  0  0  0  0  0  0  0  0
  -28.3956  -26.6237   19.9431 O   0  0  0  0  0  0  0  0  0  0  0  0
  -21.6590  -19.5792   21.3587 O   0  0  0  0  0  0  0  0  0  1  0  0
  -23.1710  -15.0479   20.6535 O   0  0  0  0  0  0  0  0  0  0  0  0
  -23.4846  -29.0829   20.4321 F   0  0  0  0  0  0  0  0  0  0  0  0
  -26.5103  -26.4393   17.9296 F   0  0  0  0  0  0  0  0  0  0  0  0
  1  2  1  0  0  0  0
  1  5  2  0  0  0  0
  2  6  2  0  0  0  0
  3  8  2  0  0  0  0
  3 18  1  0  0  0  0
  4  9  1  0  0  0  0
  4 18  2  0  0  0  0
  5 22  1  0  0  0  0
  6 24  1  0  0  0  0
  7 10  2  0  0  0  0
  7 23  1  0  0  0  0
  8 26  1  0  0  0  0
  9 26  2  0  0  0  0
 10 27  1  0  0  0  0
 11 12  2  0  0  0  0
 11 28  1  0  0  0  0
 12 30  1  0  0  0  0
 13 19  1  0  0  0  0
 13 20  2  0  0  0  0
 14 19  2  0  0  0  0
 14 29  1  0  0  0  0
 15 20  1  0  0  0  0
 15 29  2  0  0  0  0
 16 25  1  0  0  0  0
 16 27  2  0  0  0  0
 17 30  2  0  0  0  0
 17 31  1  0  0  0  0
 18 32  1  0  0  0  0
 19 34  1  0  0  0  0
 20 35  1  0  0  0  0
 21 32  1  0  0  0  0
 21 33  2  0  0  0  0
 21 37  1  0  0  0  0
 22 24  2  0  0  0  0
 22 43  1  0  0  0  0
 23 25  2  0  0  0  0
 23 44  1  0  0  0  0
 24 52  1  0  0  0  0
 25 45  1  0  0  0  0
 26 82  1  0  0  0  0
 27 83  1  0  0  0  0
 28 31  2  0  0  0  0
 28 82  1  0  0  0  0
 29 84  1  0  0  0  0
 30 85  1  0  0  0  0
 31 86  1  0  0  0  0
 32 66  2  0  0  0  0
 33 68  1  0  0  0  0
 33 71  1  0  0  0  0
 34 36  2  0  0  0  0
 35 67  2  0  0  0  0
 36 55  1  0  0  0  0
 37 72  1  0  0  0  0
 37 76  2  0  0  0  0
 38 53  1  0  0  0  0
 38 73  1  0  0  0  0
 38 77  2  0  0  0  0
 39 61  1  0  0  0  0
 39 62  1  0  0  0  0
 39 78  2  0  0  0  0
 40 63  1  0  0  0  0
 40 69  1  0  0  0  0
 40 79  2  0  0  0  0
 41 64  1  0  0  0  0
 41 74  1  0  0  0  0
 41 80  2  0  0  0  0
 42 67  1  0  0  0  0
 42 70  1  0  0  0  0
 42 81  2  0  0  0  0
 43 46  1  0  0  0  0
 44 53  1  0  0  0  0
 45 69  1  0  0  0  0
 46 48  1  0  0  0  0
 47 49  1  0  0  0  0
 47 50  1  0  0  0  0
 48 52  1  0  0  0  0
 49 54  1  0  0  0  0
 50 70  1  0  0  0  0
 51 54  1  0  0  0  0
 51 70  1  0  0  0  0
 52 73  1  0  0  0  0
 53 69  1  0  0  0  0
 54 68  1  0  0  0  0
 56 64  1  0  0  0  0
 57 65  1  0  0  0  0
 58 65  1  0  0  0  0
 59 65  1  0  0  0  0
 60 75  1  0  0  0  0
 61 83  1  0  0  0  0
 62 84  1  0  0  0  0
 63 65  1  0  0  0  0
 63 74  1  0  0  0  0
 64 75  1  0  0  0  0
 66 68  1  0  0  0  0
M  CHG  1  75   1
M  ISO  4  42 100  61 101  67 100  83 101
M  END
> <Batch ID>
0114

> <Smiles>
CC=Cc1cc(C=[100N:0][100C:0](=O)N2CCCC(n3nc(-c4ccc(Oc5ccc(F)cc5F)cc4)c(C(N)=O)c3N)C2)cc(OCC(=O)[101CH2:1][101O:1]c2ccc3c(c2)CN(C(=O)C(NC(=O)C(C)NC)C(C)(C)C)C(C(=O)NC2CCCc4ccccc42)C3)c1

> <Shape>
0.212

> <Color>
0.076

> <Negative vol penalty>
0.000

$$$$

  -OEChem-04052301373D

 85 93  0     1  0  0  0  0  0999 V2000
  -29.7525  -31.7474   26.4329 C   0  0  0  0  0  0  0  0  0  0  0  0
  -29.4220  -30.7347   25.5381 C   0  0  0  0  0  0  0  0  0  0  0  0
  -24.4196  -10.3741   23.3437 C   0  0  0  0  0  0  0  0  0  0  0  0
  -24.2380  -12.2221   24.8893 C   0  0  0  0  0  0  0  0  0  0  0  0
  -28.7449  -32.4934   27.0429 C   0  0  0  0  0  0  0  0  0  0  0  0
  -28.0834  -30.4667   25.2537 C   0  0  0  0  0  0  0  0  0  0  0  0
  -27.2397  -29.8294   20.3012 C   0  0  0  0  0  0  0  0  0  0  0  0
  -23.9393   -9.5065   24.3246 C   0  0  0  0  0  0  0  0  0  0  0  0
  -23.7577  -11.3545   25.8702 C   0  0  0  0  0  0  0  0  0  0  0  0
  -27.5959  -28.6004   19.7476 C   0  0  0  0  0  0  0  0  0  0  0  0
  -20.9496   -8.6751   25.6676 C   0  0  0  0  0  0  0  0  0  0  0  0
  -19.9733   -7.7516   25.2944 C   0  0  0  0  0  0  0  0  0  0  0  0
  -25.2926  -27.8915   19.8545 C   0  0  0  0  0  0  0  0  0  0  0  0
  -29.8536  -20.1659   20.5912 C   0  0  0  0  0  0  0  0  0  0  0  0
  -21.4403   -5.9419   25.9349 C   0  0  0  0  0  0  0  0  0  0  0  0
  -24.5690  -11.7319   23.6261 C   0  0  0  0  0  0  0  0  0  0  0  0
  -28.6264  -22.2313   20.3367 C   0  0  0  0  0  0  0  0  0  0  0  0
  -24.3087  -13.3456   21.6675 C   0  0  0  0  0  0  0  0  0  0  0  0
  -27.3937  -32.2408   26.7584 C   0  0  0  0  0  0  0  0  0  0  0  0
  -25.9067  -30.0950   20.6463 C   0  0  0  0  0  0  0  0  0  0  0  0
  -27.0568  -31.2091   25.8615 C   0  0  0  0  0  0  0  0  0  0  0  0
  -24.9216  -29.1255   20.4100 C   0  0  0  0  0  0  0  0  0  0  0  0
  -28.6755  -19.4428   20.4046 C   0  0  0  0  0  0  0  0  0  0  0  0
  -23.6083   -9.9966   25.5878 C   0  0  0  0  0  0  0  0  0  0  0  0
  -26.6228  -27.6302   19.5269 C   0  0  0  0  0  0  0  0  0  0  0  0
  -22.1714   -8.2321   26.1744 C   0  0  0  0  0  0  0  0  0  0  0  0
  -27.4483  -21.5083   20.1500 C   0  0  0  0  0  0  0  0  0  0  0  0
  -20.2186   -6.3850   25.4280 C   0  0  0  0  0  0  0  0  0  0  0  0
  -29.8291  -21.5601   20.5573 C   0  0  0  0  0  0  0  0  0  0  0  0
  -22.4167   -6.8655   26.3080 C   0  0  0  0  0  0  0  0  0  0  0  0
  -27.4728  -20.1140   20.1840 C   0  0  0  0  0  0  0  0  0  0  0  0
  -25.0656  -12.6286   22.6134 C   0  0  0  0  0  0  0  0  0  0  0  0
  -25.2408  -14.0457   20.9413 C   0  0  0  0  0  0  0  0  0  0  0  0
  -28.6208  -23.7034   20.3042 C   0  0  0  0  0  0  0  0  0  0  0  0
  -28.2589  -24.4532   19.2515 C   0  0  0  0  0  0  0  0  0  0  0  0
  -22.8898  -13.3761   21.4636 C   0  0  0  0  0  0  0  0  0  0  0  0
  -24.3802  -30.7582   23.3544 C   0  0  0  0  0  0  0  0  0  0  0  0
  -21.8553  -31.2017   21.3668 C   0  0  0  0  0  0  0  0  0  0  0  0
  -20.3742  -30.5219   18.3683 C   0  0  0  0  0  0  0  0  0  0  0  0
  -29.8138  -17.2087   20.6481 C   0  0  0  0  0  0  0  0  0  0  0  0
  -26.3381  -33.0422   27.4784 C   0  0  0  0  0  0  0  0  0  0  0  0
  -25.5345  -31.4356   21.2179 C   0  0  0  0  0  0  0  0  0  0  0  0
  -23.4733  -29.3687   20.7442 C   0  0  0  0  0  0  0  0  0  0  0  0
  -24.9561  -32.9438   26.8377 C   0  0  0  0  0  0  0  0  0  0  0  0
  -30.2888  -13.6855   20.8436 C   0  0  0  0  0  0  0  0  0  0  0  0
  -24.6197  -31.4914   26.5146 C   0  0  0  0  0  0  0  0  0  0  0  0
  -28.9100  -13.1554   21.2437 C   0  0  0  0  0  0  0  0  0  0  0  0
  -30.6018  -15.0191   21.5198 C   0  0  0  0  0  0  0  0  0  0  0  0
  -28.2020  -15.5296   21.7427 C   0  0  0  0  0  0  0  0  0  0  0  0
  -25.6170  -30.9048   25.5083 C   0  0  1  0  0  0  0  0  0  0  0  0
  -24.2295  -31.4070   22.0075 C   0  0  1  0  0  0  0  0  0  0  0  0
  -27.8150  -14.2201   21.0362 C   0  0  2  0  0  0  0  0  0  0  0  0
  -24.2172  -23.1711   20.6374 C   0  0  0  0  0  0  0  0  0  0  0  0
  -18.2957  -30.9977   17.0450 C   0  0  0  0  0  0  0  0  0  0  0  0
  -20.3002  -29.2364   23.1072 C   0  0  0  0  0  0  0  0  0  0  0  0
  -18.6296  -29.0252   21.2544 C   0  0  0  0  0  0  0  0  0  0  0  0
  -18.9901  -31.2317   22.3609 C   0  0  0  0  0  0  0  0  0  0  0  0
  -21.9132  -31.8179   16.1978 C   0  0  0  0  0  0  0  0  0  0  0  0
  -28.2830  -25.9481   19.2614 C   0  0  0  0  0  0  0  0  0  1  0  0
  -25.4814  -22.4670   21.0819 C   0  0  0  0  0  0  0  0  0  0  0  0
  -20.7653  -30.3183   20.8096 C   0  0  1  0  0  0  0  0  0  0  0  0
  -19.7250  -31.4274   17.3372 C   0  0  2  0  0  0  0  0  0  0  0  0
  -19.6988  -29.9473   21.8784 C   0  0  0  0  0  0  0  0  0  0  0  0
  -26.3776  -12.8524   22.5007 N   0  0  0  0  0  0  0  0  0  0  0  0
  -26.4523  -13.7180   21.4753 N   0  0  0  0  0  0  0  0  0  0  0  0
  -23.1604  -30.6928   21.3068 N   0  0  0  0  0  0  0  0  0  0  0  0
  -29.5231  -15.9794   21.2766 N   0  0  0  0  0  0  0  0  0  0  0  0
  -25.1342  -14.9034   19.9043 N   0  0  0  0  0  0  0  0  0  0  0  0
  -22.0779  -12.5967   22.2989 N   0  0  0  0  0  0  0  0  0  0  0  0
  -28.7037  -18.0266   20.4400 N   0  0  0  0  0  0  0  0  0  0  0  0
  -25.3153  -31.3661   24.1702 N   0  0  0  0  0  0  0  0  0  0  0  0
  -20.2281  -31.0169   19.6469 N   0  0  0  0  0  0  0  0  0  0  0  0
  -20.4953  -31.3958   16.0618 N   0  3  0  0  0  0  0  0  0  0  0  0
  -22.3590  -14.0611   20.5567 O   0  0  0  0  0  0  0  0  0  0  0  0
  -23.6975  -29.7795   23.6334 O   0  0  0  0  0  0  0  0  0  0  0  0
  -21.5605  -32.3057   21.8315 O   0  0  0  0  0  0  0  0  0  0  0  0
  -20.9498  -29.4779   18.0697 O   0  0  0  0  0  0  0  0  0  0  0  0
  -30.9587  -17.5018   20.2942 O   0  0  0  0  0  0  0  0  0  0  0  0
  -23.1394   -9.1503   26.5452 O   0  0  0  0  0  0  0  0  0  0  0  0
  -26.9679  -26.4295   18.9872 O   0  0  0  0  0  0  0  0  0  1  0  0
  -26.2597  -22.1406   19.9329 O   0  0  0  0  0  0  0  0  0  0  0  0
  -19.2803   -5.4982   25.0711 F   0  0  0  0  0  0  0  0  0  0  0  0
  -30.9710  -22.2400   20.7381 F   0  0  0  0  0  0  0  0  0  0  0  0
  -23.5880   -6.4339   26.7954 F   0  0  0  0  0  0  0  0  0  0  0  0
  -26.3376  -19.4223   20.0044 F   0  0  0  0  0  0  0  0  0  0  0  0
  1  2  1  0  0  0  0
  1  5  2  0  0  0  0
  2  6  2  0  0  0  0
  3  8  2  0  0  0  0
  3 16  1  0  0  0  0
  4  9  1  0  0  0  0
  4 16  2  0  0  0  0
  5 19  1  0  0  0  0
  6 21  1  0  0  0  0
  7 10  2  0  0  0  0
  7 20  1  0  0  0  0
  8 24  1  0  0  0  0
  9 24  2  0  0  0  0
 10 25  1  0  0  0  0
 11 12  2  0  0  0  0
 11 26  1  0  0  0  0
 12 28  1  0  0  0  0
 13 22  1  0  0  0  0
 13 25  2  0  0  0  0
 14 23  1  0  0  0  0
 14 29  2  0  0  0  0
 15 28  2  0  0  0  0
 15 30  1  0  0  0  0
 16 32  1  0  0  0  0
 17 27  2  0  0  0  0
 17 29  1  0  0  0  0
 17 34  1  0  0  0  0
 18 32  1  0  0  0  0
 18 33  2  0  0  0  0
 18 36  1  0  0  0  0
 19 21  2  0  0  0  0
 19 41  1  0  0  0  0
 20 22  2  0  0  0  0
 20 42  1  0  0  0  0
 21 50  1  0  0  0  0
 22 43  1  0  0  0  0
 23 31  2  0  0  0  0
 23 70  1  0  0  0  0
 24 79  1  0  0  0  0
 25 80  1  0  0  0  0
 26 30  2  0  0  0  0
 26 79  1  0  0  0  0
 27 31  1  0  0  0  0
 27 81  1  0  0  0  0
 28 82  1  0  0  0  0
 29 83  1  0  0  0  0
 30 84  1  0  0  0  0
 31 85  1  0  0  0  0
 32 64  2  0  0  0  0
 33 65  1  0  0  0  0
 33 68  1  0  0  0  0
 34 35  2  0  0  0  0
 35 59  1  0  0  0  0
 36 69  1  0  0  0  0
 36 74  2  0  0  0  0
 37 51  1  0  0  0  0
 37 71  1  0  0  0  0
 37 75  2  0  0  0  0
 38 61  1  0  0  0  0
 38 66  1  0  0  0  0
 38 76  2  0  0  0  0
 39 62  1  0  0  0  0
 39 72  1  0  0  0  0
 39 77  2  0  0  0  0
 40 67  1  0  0  0  0
 40 70  1  0  0  0  0
 40 78  2  0  0  0  0
 41 44  1  0  0  0  0
 42 51  1  0  0  0  0
 43 66  1  0  0  0  0
 44 46  1  0  0  0  0
 45 47  1  0  0  0  0
 45 48  1  0  0  0  0
 46 50  1  0  0  0  0
 47 52  1  0  0  0  0
 48 67  1  0  0  0  0
 49 52  1  0  0  0  0
 49 67  1  0  0  0  0
 50 71  1  0  0  0  0
 51 66  1  0  0  0  0
 52 65  1  0  0  0  0
 53 60  1  0  0  0  0
 54 62  1  0  0  0  0
 55 63  1  0  0  0  0
 56 63  1  0  0  0  0
 57 63  1  0  0  0  0
 58 73  1  0  0  0  0
 59 80  1  0  0  0  0
 60 81  1  0  0  0  0
 61 63  1  0  0  0  0
 61 72  1  0  0  0  0
 62 73  1  0  0  0  0
 64 65  1  0  0  0  0
M  CHG  1  73   1
M  ISO  4  40 100  59 101  70 100  80 101
M  END
> <Batch ID>
0114

> <Smiles>
CCOc1c(F)c([100NH:0][100C:0](=O)N2CCCC(n3nc(-c4ccc(Oc5ccc(F)cc5F)cc4)c(C(N)=O)c3N)C2)cc(F)c1C=C[101CH2:1][101O:1]c1ccc2c(c1)CN(C(=O)C(NC(=O)C(C)NC)C(C)(C)C)C(C(=O)NC1CCCc3ccccc31)C2

> <Shape>
0.290

> <Color>
0.115

> <Negative vol penalty>
0.000

$$$$

  -OEChem-04052301373D

 87 95  0     1  0  0  0  0  0999 V2000
  -19.4669  -29.4822   25.8249 C   0  0  0  0  0  0  0  0  0  0  0  0
  -20.8051  -29.2678   25.5106 C   0  0  0  0  0  0  0  0  0  0  0  0
  -27.4710  -17.8132   19.5077 C   0  0  0  0  0  0  0  0  0  0  0  0
  -28.1179  -16.6018   21.4955 C   0  0  0  0  0  0  0  0  0  0  0  0
  -18.4681  -28.8607   25.0766 C   0  0  0  0  0  0  0  0  0  0  0  0
  -21.1452  -28.4308   24.4485 C   0  0  0  0  0  0  0  0  0  0  0  0
  -25.8954  -29.0663   20.6356 C   0  0  0  0  0  0  0  0  0  0  0  0
  -26.2884  -17.0764   19.4435 C   0  0  0  0  0  0  0  0  0  0  0  0
  -26.9353  -15.8650   21.4313 C   0  0  0  0  0  0  0  0  0  0  0  0
  -27.1579  -28.4756   20.6034 C   0  0  0  0  0  0  0  0  0  0  0  0
  -24.2544  -13.4157   21.5861 C   0  0  0  0  0  0  0  0  0  0  0  0
  -24.3380  -12.0372   21.7819 C   0  0  0  0  0  0  0  0  0  0  0  0
  -26.3456  -26.8395   19.0278 C   0  0  0  0  0  0  0  0  0  0  0  0
  -31.6414  -21.6007   16.8344 C   0  0  0  0  0  0  0  0  0  0  0  0
  -34.3185  -20.9555   17.2811 C   0  0  0  0  0  0  0  0  0  0  0  0
  -25.8128  -11.8561   19.8769 C   0  0  0  0  0  0  0  0  0  0  0  0
  -28.3858  -17.5759   20.5337 C   0  0  0  0  0  0  0  0  0  0  0  0
  -29.8155  -19.5543   21.2751 C   0  0  0  0  0  0  0  0  0  0  0  0
  -18.7959  -28.0233   23.9987 C   0  0  0  0  0  0  0  0  0  0  0  0
  -24.8439  -28.5405   19.8712 C   0  0  0  0  0  0  0  0  0  0  0  0
  -20.1498  -27.7964   23.6859 C   0  0  0  0  0  0  0  0  0  0  0  0
  -25.0714  -27.4269   19.0501 C   0  0  0  0  0  0  0  0  0  0  0  0
  -32.2109  -20.5023   16.1904 C   0  0  0  0  0  0  0  0  0  0  0  0
  -32.4105  -22.3766   17.7018 C   0  0  0  0  0  0  0  0  0  0  0  0
  -33.5494  -20.1797   16.4138 C   0  0  0  0  0  0  0  0  0  0  0  0
  -26.0205  -16.1023   20.4052 C   0  0  0  0  0  0  0  0  0  0  0  0
  -27.3824  -27.3603   19.8017 C   0  0  0  0  0  0  0  0  0  0  0  0
  -24.9500  -14.0144   20.5356 C   0  0  0  0  0  0  0  0  0  0  0  0
  -25.1172  -11.2574   20.9273 C   0  0  0  0  0  0  0  0  0  0  0  0
  -33.7490  -22.0540   17.9251 C   0  0  0  0  0  0  0  0  0  0  0  0
  -25.7292  -13.2346   19.6810 C   0  0  0  0  0  0  0  0  0  0  0  0
  -29.6078  -18.3364   20.6003 C   0  0  0  0  0  0  0  0  0  0  0  0
  -31.1326  -19.8602   21.0340 C   0  0  0  0  0  0  0  0  0  0  0  0
  -29.4869  -20.6865   13.9225 C   0  0  0  0  0  0  0  0  0  0  0  0
  -30.7953  -20.4986   14.1289 C   0  0  0  0  0  0  0  0  0  0  0  0
  -28.8998  -20.3388   22.0507 C   0  0  0  0  0  0  0  0  0  0  0  0
  -22.0045  -27.2742   20.5331 C   0  0  0  0  0  0  0  0  0  0  0  0
  -30.1861  -25.0988   19.0147 C   0  0  0  0  0  0  0  0  0  0  0  0
  -21.6689  -27.3152   17.3069 C   0  0  0  0  0  0  0  0  0  0  0  0
  -23.1630  -27.3444   14.2388 C   0  0  0  0  0  0  0  0  0  0  0  0
  -34.7201  -17.9618   16.4514 C   0  0  0  0  0  0  0  0  0  0  0  0
  -17.6825  -27.3360   23.2486 C   0  0  0  0  0  0  0  0  0  0  0  0
  -23.4949  -29.2054   19.8965 C   0  0  0  0  0  0  0  0  0  0  0  0
  -23.9813  -26.8362   18.1949 C   0  0  0  0  0  0  0  0  0  0  0  0
  -18.1187  -26.7604   21.9037 C   0  0  0  0  0  0  0  0  0  0  0  0
  -35.3600  -17.8369   20.0939 C   0  0  0  0  0  0  0  0  0  0  0  0
  -19.4286  -25.9927   22.0512 C   0  0  0  0  0  0  0  0  0  0  0  0
  -33.9595  -17.9704   20.6892 C   0  0  0  0  0  0  0  0  0  0  0  0
  -35.3301  -17.1792   18.7176 C   0  0  0  0  0  0  0  0  0  0  0  0
  -33.0230  -18.0029   18.3432 C   0  0  0  0  0  0  0  0  0  0  0  0
  -20.5582  -26.9150   22.5255 C   0  0  1  0  0  0  0  0  0  0  0  0
  -22.3625  -28.2756   19.4716 C   0  0  1  0  0  0  0  0  0  0  0  0
  -33.0222  -18.6993   19.7123 C   0  0  1  0  0  0  0  0  0  0  0  0
  -22.6280  -27.3378   11.7870 C   0  0  0  0  0  0  0  0  0  0  0  0
  -20.9939  -24.3438   17.4647 C   0  0  0  0  0  0  0  0  0  0  0  0
  -21.4059  -24.1905   15.0000 C   0  0  0  0  0  0  0  0  0  0  0  0
  -19.5802  -25.6514   15.8690 C   0  0  0  0  0  0  0  0  0  0  0  0
  -34.4321  -19.1560   14.3248 C   0  0  0  0  0  0  0  0  0  0  0  0
  -24.4972  -29.9531   13.8222 C   0  0  0  0  0  0  0  0  0  0  0  0
  -31.3644  -19.6904   15.2645 C   0  0  0  0  0  0  0  0  0  0  0  0
  -30.4713  -23.8754   18.1698 C   0  0  0  0  0  0  0  0  0  0  0  0
  -28.7730  -25.6416   18.9254 C   0  0  0  0  0  0  0  0  0  1  0  0
  -21.9877  -26.3549   16.1866 C   0  0  1  0  0  0  0  0  0  0  0  0
  -22.9183  -28.1977   13.0073 C   0  0  2  0  0  0  0  0  0  0  0  0
  -21.0122  -25.1449   16.1476 C   0  0  0  0  0  0  0  0  0  0  0  0
  -30.7051  -17.8986   19.9770 N   0  0  0  0  0  0  0  0  0  0  0  0
  -31.6149  -18.8466   20.2592 N   0  0  0  0  0  0  0  0  0  0  0  0
  -22.6780  -27.5181   18.2589 N   0  0  0  0  0  0  0  0  0  0  0  0
  -34.3889  -17.8471   17.8172 N   0  0  0  0  0  0  0  0  0  0  0  0
  -31.9137  -20.8946   21.4111 N   0  0  0  0  0  0  0  0  0  0  0  0
  -27.5841  -19.8788   22.1977 N   0  0  0  0  0  0  0  0  0  0  0  0
  -31.8428  -23.4693   18.3413 N   0  0  0  0  0  0  0  0  0  0  0  0
  -21.0492  -27.7190   21.4269 N   0  0  0  0  0  0  0  0  0  0  0  0
  -22.0057  -27.1477   14.9620 N   0  0  0  0  0  0  0  0  0  0  0  0
  -34.1575  -19.0490   15.7560 N   0  0  0  0  0  0  0  0  0  0  0  0
  -24.1124  -29.0402   12.7152 N   0  3  0  0  0  0  0  0  0  0  0  0
  -29.2338  -21.4242   22.5836 O   0  0  0  0  0  0  0  0  0  0  0  0
  -22.5532  -26.1785   20.5396 O   0  0  0  0  0  0  0  0  0  0  0  0
  -31.0369  -25.6265   19.7299 O   0  0  0  0  0  0  0  0  0  0  0  0
  -20.5677  -27.8705   17.3324 O   0  0  0  0  0  0  0  0  0  0  0  0
  -24.2694  -26.8941   14.5280 O   0  0  0  0  0  0  0  0  0  0  0  0
  -35.4238  -17.1225   15.8760 O   0  0  0  0  0  0  0  0  0  0  0  0
  -24.8666  -15.3832   20.3430 O   0  0  0  0  0  0  0  0  0  0  0  0
  -28.6135  -26.7815   19.7689 O   0  0  0  0  0  0  0  0  0  1  0  0
  -25.1986   -9.9338   21.1164 F   0  0  0  0  0  0  0  0  0  0  0  0
  -34.4983  -22.7931   18.7555 F   0  0  0  0  0  0  0  0  0  0  0  0
  -26.4006  -13.8042   18.6708 F   0  0  0  0  0  0  0  0  0  0  0  0
  1  2  1  0  0  0  0
  1  5  2  0  0  0  0
  2  6  2  0  0  0  0
  3  8  2  0  0  0  0
  3 17  1  0  0  0  0
  4  9  1  0  0  0  0
  4 17  2  0  0  0  0
  5 19  1  0  0  0  0
  6 21  1  0  0  0  0
  7 10  2  0  0  0  0
  7 20  1  0  0  0  0
  8 26  1  0  0  0  0
  9 26  2  0  0  0  0
 10 27  1  0  0  0  0
 11 12  2  0  0  0  0
 11 28  1  0  0  0  0
 12 29  1  0  0  0  0
 13 22  1  0  0  0  0
 13 27  2  0  0  0  0
 14 23  1  0  0  0  0
 14 24  2  0  0  0  0
 15 25  1  0  0  0  0
 15 30  2  0  0  0  0
 16 29  2  0  0  0  0
 16 31  1  0  0  0  0
 17 32  1  0  0  0  0
 18 32  1  0  0  0  0
 18 33  2  0  0  0  0
 18 36  1  0  0  0  0
 19 21  2  0  0  0  0
 19 42  1  0  0  0  0
 20 22  2  0  0  0  0
 20 43  1  0  0  0  0
 21 51  1  0  0  0  0
 22 44  1  0  0  0  0
 23 25  2  0  0  0  0
 23 60  1  0  0  0  0
 24 30  1  0  0  0  0
 24 72  1  0  0  0  0
 25 75  1  0  0  0  0
 26 83  1  0  0  0  0
 27 84  1  0  0  0  0
 28 31  2  0  0  0  0
 28 83  1  0  0  0  0
 29 85  1  0  0  0  0
 30 86  1  0  0  0  0
 31 87  1  0  0  0  0
 32 66  2  0  0  0  0
 33 67  1  0  0  0  0
 33 70  1  0  0  0  0
 34 35  2  0  0  0  0
 35 60  1  0  0  0  0
 36 71  1  0  0  0  0
 36 77  2  0  0  0  0
 37 52  1  0  0  0  0
 37 73  1  0  0  0  0
 37 78  2  0  0  0  0
 38 61  1  0  0  0  0
 38 62  1  0  0  0  0
 38 79  2  0  0  0  0
 39 63  1  0  0  0  0
 39 68  1  0  0  0  0
 39 80  2  0  0  0  0
 40 64  1  0  0  0  0
 40 74  1  0  0  0  0
 40 81  2  0  0  0  0
 41 69  1  0  0  0  0
 41 75  1  0  0  0  0
 41 82  2  0  0  0  0
 42 45  1  0  0  0  0
 43 52  1  0  0  0  0
 44 68  1  0  0  0  0
 45 47  1  0  0  0  0
 46 48  1  0  0  0  0
 46 49  1  0  0  0  0
 47 51  1  0  0  0  0
 48 53  1  0  0  0  0
 49 69  1  0  0  0  0
 50 53  1  0  0  0  0
 50 69  1  0  0  0  0
 51 73  1  0  0  0  0
 52 68  1  0  0  0  0
 53 67  1  0  0  0  0
 54 64  1  0  0  0  0
 55 65  1  0  0  0  0
 56 65  1  0  0  0  0
 57 65  1  0  0  0  0
 58 75  1  0  0  0  0
 59 76  1  0  0  0  0
 61 72  1  0  0  0  0
 62 84  1  0  0  0  0
 63 65  1  0  0  0  0
 63 74  1  0  0  0  0
 64 76  1  0  0  0  0
 66 67  1  0  0  0  0
M  CHG  1  76   1
M  ISO  4  41 100  62 101  75 100  84 101
M  END
> <Batch ID>
0114

> <Smiles>
C=CCc1cc(NCC(=O)[101CH2:1][101O:1]c2ccc3c(c2)CN(C(=O)C(NC(=O)C(C)NC)C(C)(C)C)C(C(=O)NC2CCCc4ccccc42)C3)c(F)cc1[100N:0](C)[100C:0](=O)N1CCCC(n2nc(-c3ccc(Oc4ccc(F)cc4F)cc3)c(C(N)=O)c2N)C1

> <Shape>
0.203

> <Color>
0.114

> <Negative vol penalty>
0.000

$$$$

  -OEChem-04052301373D

 90 99  0     1  0  0  0  0  0999 V2000
  -29.3790  -39.7522   25.0280 C   0  0  0  0  0  0  0  0  0  0  0  0
  -30.0866  -38.7400   24.3874 C   0  0  0  0  0  0  0  0  0  0  0  0
  -23.5435   -9.6225   19.9955 C   0  0  0  0  0  0  0  0  0  0  0  0
  -23.8554   -9.9949   22.3622 C   0  0  0  0  0  0  0  0  0  0  0  0
  -30.1602  -20.0507   20.7748 C   0  0  0  0  0  0  0  0  0  0  0  0
  -28.4570  -39.4338   26.0242 C   0  0  0  0  0  0  0  0  0  0  0  0
  -29.8733  -37.4088   24.7435 C   0  0  0  0  0  0  0  0  0  0  0  0
  -29.7983  -30.8207   21.9315 C   0  0  0  0  0  0  0  0  0  0  0  0
  -30.1704  -18.6660   20.9424 C   0  0  0  0  0  0  0  0  0  0  0  0
  -22.9380   -8.3959   20.2683 C   0  0  0  0  0  0  0  0  0  0  0  0
  -23.2499   -8.7683   22.6350 C   0  0  0  0  0  0  0  0  0  0  0  0
  -30.3427  -29.5543   22.1402 C   0  0  0  0  0  0  0  0  0  0  0  0
  -19.9155   -7.2844   21.2989 C   0  0  0  0  0  0  0  0  0  0  0  0
  -18.7416   -6.9740   20.6124 C   0  0  0  0  0  0  0  0  0  0  0  0
  -28.2172  -20.2092   22.2019 C   0  0  0  0  0  0  0  0  0  0  0  0
  -28.6675  -29.1175   23.8201 C   0  0  0  0  0  0  0  0  0  0  0  0
  -19.8080   -5.0207   19.6719 C   0  0  0  0  0  0  0  0  0  0  0  0
  -24.0022  -10.4220   21.0425 C   0  0  0  0  0  0  0  0  0  0  0  0
  -29.1836  -20.8223   21.4046 C   0  0  0  0  0  0  0  0  0  0  0  0
  -28.2273  -18.8245   22.3694 C   0  0  0  0  0  0  0  0  0  0  0  0
  -23.9973  -12.9422   20.6474 C   0  0  0  0  0  0  0  0  0  0  0  0
  -28.2253  -38.0973   26.3860 C   0  0  0  0  0  0  0  0  0  0  0  0
  -28.6892  -31.2499   22.6745 C   0  0  0  0  0  0  0  0  0  0  0  0
  -28.9483  -37.0723   25.7465 C   0  0  0  0  0  0  0  0  0  0  0  0
  -28.1093  -30.3889   23.6171 C   0  0  0  0  0  0  0  0  0  0  0  0
  -29.2040  -18.0529   21.7397 C   0  0  0  0  0  0  0  0  0  0  0  0
  -22.7912   -7.9688   21.5880 C   0  0  0  0  0  0  0  0  0  0  0  0
  -29.7791  -28.7036   23.0867 C   0  0  0  0  0  0  0  0  0  0  0  0
  -21.0358   -6.4629   21.1718 C   0  0  0  0  0  0  0  0  0  0  0  0
  -18.6879   -5.8422   19.7990 C   0  0  0  0  0  0  0  0  0  0  0  0
  -20.9820   -5.3311   20.3583 C   0  0  0  0  0  0  0  0  0  0  0  0
  -24.6282  -11.6889   20.7613 C   0  0  0  0  0  0  0  0  0  0  0  0
  -25.0198  -13.8180   20.3757 C   0  0  0  0  0  0  0  0  0  0  0  0
  -29.8462  -24.5634   21.8313 C   0  0  0  0  0  0  0  0  0  0  0  0
  -30.8438  -25.3411   22.3146 C   0  0  0  0  0  0  0  0  0  0  0  0
  -29.8554  -23.1027   22.0077 C   0  0  0  0  0  0  0  0  0  0  0  0
  -32.0154  -24.7017   23.0141 C   0  0  0  0  0  0  0  0  0  0  0  0
  -29.1747  -22.2410   21.2333 C   0  0  0  0  0  0  0  0  0  0  0  0
  -27.2008  -18.2187   23.2094 C   0  0  0  0  0  0  0  0  0  0  0  0
  -25.8677  -18.3094   23.0149 C   0  0  0  0  0  0  0  0  0  0  0  0
  -22.6108  -13.2842   20.7759 C   0  0  0  0  0  0  0  0  0  0  0  0
  -28.1448  -33.6116   24.7312 C   0  0  0  0  0  0  0  0  0  0  0  0
  -25.0884  -32.5399   24.5527 C   0  0  0  0  0  0  0  0  0  0  0  0
  -22.9574  -29.9596   23.8836 C   0  0  0  0  0  0  0  0  0  0  0  0
  -30.1529  -15.7570   21.3216 C   0  0  0  0  0  0  0  0  0  0  0  0
  -27.2533  -37.8053   27.5016 C   0  0  0  0  0  0  0  0  0  0  0  0
  -28.0973  -32.6088   22.4186 C   0  0  0  0  0  0  0  0  0  0  0  0
  -26.9055  -30.7942   24.4265 C   0  0  0  0  0  0  0  0  0  0  0  0
  -30.6916  -22.5977   23.1526 C   0  0  0  0  0  0  0  0  0  0  0  0
  -32.0834  -23.1945   23.0832 C   0  0  0  0  0  0  0  0  0  0  0  0
  -26.8128  -36.3449   27.5590 C   0  0  0  0  0  0  0  0  0  0  0  0
  -29.8530  -12.9579   19.1418 C   0  0  0  0  0  0  0  0  0  0  0  0
  -28.0181  -35.4184   27.4333 C   0  0  0  0  0  0  0  0  0  0  0  0
  -28.4151  -12.4813   19.3594 C   0  0  0  0  0  0  0  0  0  0  0  0
  -30.4869  -13.4585   20.4384 C   0  0  0  0  0  0  0  0  0  0  0  0
  -28.2733  -14.0021   21.3729 C   0  0  0  0  0  0  0  0  0  0  0  0
  -28.7267  -35.6147   26.0876 C   0  0  1  0  0  0  0  0  0  0  0  0
  -27.2830  -33.1372   23.5955 C   0  0  1  0  0  0  0  0  0  0  0  0
  -27.5709  -13.5490   20.0825 C   0  0  2  0  0  0  0  0  0  0  0  0
  -28.6321  -25.1377   21.1366 C   0  0  0  0  0  0  0  0  0  0  0  0
  -24.8500  -17.6784   23.9087 C   0  0  0  0  0  0  0  0  0  0  0  0
  -20.5170  -29.3750   23.8627 C   0  0  0  0  0  0  0  0  0  0  0  0
  -25.1120  -32.3429   27.5975 C   0  0  0  0  0  0  0  0  0  0  0  0
  -23.0732  -30.8972   27.4503 C   0  0  0  0  0  0  0  0  0  0  0  0
  -22.9933  -33.2507   26.6273 C   0  0  0  0  0  0  0  0  0  0  0  0
  -23.0028  -29.3771   20.9823 C   0  0  0  0  0  0  0  0  0  0  0  0
  -30.9390  -26.8365   22.1785 C   0  0  0  0  0  0  0  0  0  1  0  0
  -24.2688  -31.5167   25.3013 C   0  0  1  0  0  0  0  0  0  0  0  0
  -21.6929  -29.8887   23.0465 C   0  0  2  0  0  0  0  0  0  0  0  0
  -23.8857  -31.9947   26.7304 C   0  0  0  0  0  0  0  0  0  0  0  0
  -25.9493  -11.7581   20.5768 N   0  0  0  0  0  0  0  0  0  0  0  0
  -26.1568  -13.0653   20.3442 N   0  0  0  0  0  0  0  0  0  0  0  0
  -26.3671  -32.1351   24.1442 N   0  0  0  0  0  0  0  0  0  0  0  0
  -29.6338  -14.4703   21.0654 N   0  0  0  0  0  0  0  0  0  0  0  0
  -25.0484  -15.1508   20.1630 N   0  0  0  0  0  0  0  0  0  0  0  0
  -21.6938  -12.2622   21.0568 N   0  0  0  0  0  0  0  0  0  0  0  0
  -29.2398  -16.6444   21.8903 N   0  0  0  0  0  0  0  0  0  0  0  0
  -27.9944  -34.9524   25.0295 N   0  0  0  0  0  0  0  0  0  0  0  0
  -23.1264  -31.2058   24.4489 N   0  0  0  0  0  0  0  0  0  0  0  0
  -21.8918  -28.9777   21.8840 N   0  3  0  0  0  0  0  0  0  0  0  0
  -32.9261  -25.3885   23.4769 O   0  0  0  0  0  0  0  0  0  0  0  0
  -22.1953  -14.4587   20.6292 O   0  0  0  0  0  0  0  0  0  0  0  0
  -28.8899  -32.8195   25.2960 O   0  0  0  0  0  0  0  0  0  0  0  0
  -24.6088  -33.6548   24.3322 O   0  0  0  0  0  0  0  0  0  0  0  0
  -23.7170  -29.0039   24.0250 O   0  0  0  0  0  0  0  0  0  0  0  0
  -31.3135  -16.0582   21.0312 O   0  0  0  0  0  0  0  0  0  0  0  0
  -22.2002   -6.7720   21.8545 O   0  0  0  0  0  0  0  0  0  0  0  0
  -30.3090  -27.4672   23.2928 O   0  0  0  0  0  0  0  0  0  1  0  0
  -17.5600   -5.5434   19.1411 F   0  0  0  0  0  0  0  0  0  0  0  0
  -22.0545   -4.5375   20.2333 F   0  0  0  0  0  0  0  0  0  0  0  0
  1  2  1  0  0  0  0
  1  6  2  0  0  0  0
  2  7  2  0  0  0  0
  3 10  2  0  0  0  0
  3 18  1  0  0  0  0
  4 11  1  0  0  0  0
  4 18  2  0  0  0  0
  5  9  2  0  0  0  0
  5 19  1  0  0  0  0
  6 22  1  0  0  0  0
  7 24  1  0  0  0  0
  8 12  2  0  0  0  0
  8 23  1  0  0  0  0
  9 26  1  0  0  0  0
 10 27  1  0  0  0  0
 11 27  2  0  0  0  0
 12 28  1  0  0  0  0
 13 14  2  0  0  0  0
 13 29  1  0  0  0  0
 14 30  1  0  0  0  0
 15 19  2  0  0  0  0
 15 20  1  0  0  0  0
 16 25  1  0  0  0  0
 16 28  2  0  0  0  0
 17 30  2  0  0  0  0
 17 31  1  0  0  0  0
 18 32  1  0  0  0  0
 19 38  1  0  0  0  0
 20 26  2  0  0  0  0
 20 39  1  0  0  0  0
 21 32  1  0  0  0  0
 21 33  2  0  0  0  0
 21 41  1  0  0  0  0
 22 24  2  0  0  0  0
 22 46  1  0  0  0  0
 23 25  2  0  0  0  0
 23 47  1  0  0  0  0
 24 57  1  0  0  0  0
 25 48  1  0  0  0  0
 26 77  1  0  0  0  0
 27 87  1  0  0  0  0
 28 88  1  0  0  0  0
 29 31  2  0  0  0  0
 29 87  1  0  0  0  0
 30 89  1  0  0  0  0
 31 90  1  0  0  0  0
 32 71  2  0  0  0  0
 33 72  1  0  0  0  0
 33 75  1  0  0  0  0
 34 35  2  0  0  0  0
 34 36  1  0  0  0  0
 34 60  1  0  0  0  0
 35 37  1  0  0  0  0
 35 67  1  0  0  0  0
 36 38  2  0  0  0  0
 36 49  1  0  0  0  0
 37 50  1  0  0  0  0
 37 81  2  0  0  0  0
 39 40  2  0  0  0  0
 40 61  1  0  0  0  0
 41 76  1  0  0  0  0
 41 82  2  0  0  0  0
 42 58  1  0  0  0  0
 42 78  1  0  0  0  0
 42 83  2  0  0  0  0
 43 68  1  0  0  0  0
 43 73  1  0  0  0  0
 43 84  2  0  0  0  0
 44 69  1  0  0  0  0
 44 79  1  0  0  0  0
 44 85  2  0  0  0  0
 45 74  1  0  0  0  0
 45 77  1  0  0  0  0
 45 86  2  0  0  0  0
 46 51  1  0  0  0  0
 47 58  1  0  0  0  0
 48 73  1  0  0  0  0
 49 50  1  0  0  0  0
 51 53  1  0  0  0  0
 52 54  1  0  0  0  0
 52 55  1  0  0  0  0
 53 57  1  0  0  0  0
 54 59  1  0  0  0  0
 55 74  1  0  0  0  0
 56 59  1  0  0  0  0
 56 74  1  0  0  0  0
 57 78  1  0  0  0  0
 58 73  1  0  0  0  0
 59 72  1  0  0  0  0
 62 69  1  0  0  0  0
 63 70  1  0  0  0  0
 64 70  1  0  0  0  0
 65 70  1  0  0  0  0
 66 80  1  0  0  0  0
 67 88  1  0  0  0  0
 68 70  1  0  0  0  0
 68 79  1  0  0  0  0
 69 80  1  0  0  0  0
 71 72  1  0  0  0  0
M  CHG  1  80   1
M  ISO  4  45 100  67 101  77 100  88 101
M  END
> <Batch ID>
0114

> <Smiles>
CC=Cc1cc(C=C2CCC(=O)C([101CH2:1][101O:1]c3ccc4c(c3)CN(C(=O)C(NC(=O)C(C)NC)C(C)(C)C)C(C(=O)NC3CCCc5ccccc53)C4)=C2C)ccc1[100NH:0][100C:0](=O)N1CCCC(n2nc(-c3ccc(Oc4ccc(F)cc4F)cc3)c(C(N)=O)c2N)C1

> <Shape>
0.284

> <Color>
0.162

> <Negative vol penalty>
0.000

$$$$

  -OEChem-04052301373D

 89 98  0     1  0  0  0  0  0999 V2000
  -19.5700  -10.7795   20.8701 C   0  0  0  0  0  0  0  0  0  0  0  0
  -20.0683  -12.0491   21.1446 C   0  0  0  0  0  0  0  0  0  0  0  0
  -26.0645  -30.0255   23.7923 C   0  0  0  0  0  0  0  0  0  0  0  0
  -24.3863  -31.6619   24.3779 C   0  0  0  0  0  0  0  0  0  0  0  0
  -20.4383   -9.6907   20.8029 C   0  0  0  0  0  0  0  0  0  0  0  0
  -21.4350  -12.2304   21.3532 C   0  0  0  0  0  0  0  0  0  0  0  0
  -24.7877  -17.1020   19.7620 C   0  0  0  0  0  0  0  0  0  0  0  0
  -26.9747  -31.0507   23.5356 C   0  0  0  0  0  0  0  0  0  0  0  0
  -25.2966  -32.6872   24.1212 C   0  0  0  0  0  0  0  0  0  0  0  0
  -25.2318  -18.2106   20.4816 C   0  0  0  0  0  0  0  0  0  0  0  0
  -27.2885  -35.7248   23.9671 C   0  0  0  0  0  0  0  0  0  0  0  0
  -27.3693  -36.7674   24.8901 C   0  0  0  0  0  0  0  0  0  0  0  0
  -25.8815  -22.3723   21.6635 C   0  0  0  0  0  0  0  0  0  0  0  0
  -27.3439  -17.1094   20.8632 C   0  0  0  0  0  0  0  0  0  0  0  0
  -26.1114  -22.2279   19.2628 C   0  0  0  0  0  0  0  0  0  0  0  0
  -27.9909  -35.1930   26.6141 C   0  0  0  0  0  0  0  0  0  0  0  0
  -24.7703  -30.3311   24.2134 C   0  0  0  0  0  0  0  0  0  0  0  0
  -24.5338  -22.6995   21.5148 C   0  0  0  0  0  0  0  0  0  0  0  0
  -23.9748  -22.7909   20.2401 C   0  0  0  0  0  0  0  0  0  0  0  0
  -23.6139  -28.6134   25.7034 C   0  0  0  0  0  0  0  0  0  0  0  0
  -21.8176   -9.8603   21.0013 C   0  0  0  0  0  0  0  0  0  0  0  0
  -25.6159  -15.9825   19.5967 C   0  0  0  0  0  0  0  0  0  0  0  0
  -22.3224  -11.1426   21.2900 C   0  0  0  0  0  0  0  0  0  0  0  0
  -26.9089  -15.9889   20.1390 C   0  0  0  0  0  0  0  0  0  0  0  0
  -24.7636  -22.5551   19.1140 C   0  0  0  0  0  0  0  0  0  0  0  0
  -26.6704  -22.1366   20.5375 C   0  0  0  0  0  0  0  0  0  0  0  0
  -26.5908  -32.3816   23.7000 C   0  0  0  0  0  0  0  0  0  0  0  0
  -26.5089  -18.2133   21.0347 C   0  0  0  0  0  0  0  0  0  0  0  0
  -27.5588  -34.4162   24.3676 C   0  0  0  0  0  0  0  0  0  0  0  0
  -27.7205  -36.5016   26.2136 C   0  0  0  0  0  0  0  0  0  0  0  0
  -27.9100  -34.1504   25.6911 C   0  0  0  0  0  0  0  0  0  0  0  0
  -23.8294  -29.2725   24.4782 C   0  0  0  0  0  0  0  0  0  0  0  0
  -22.6260  -27.6986   25.4321 C   0  0  0  0  0  0  0  0  0  0  0  0
  -29.0893  -22.1003   19.7784 C   0  0  0  0  0  0  0  0  0  0  0  0
  -23.9952  -23.9077   23.5801 C   0  0  0  0  0  0  0  0  0  0  0  0
  -23.7408  -22.9383   22.7148 C   0  0  0  0  0  0  0  0  0  0  0  0
  -22.5413  -23.1398   20.0667 C   0  0  0  0  0  0  0  0  0  0  0  0
  -24.2499  -28.8105   26.9732 C   0  0  0  0  0  0  0  0  0  0  0  0
  -25.4471  -12.9231   20.4424 C   0  0  0  0  0  0  0  0  0  0  0  0
  -28.1488  -12.6856   18.6628 C   0  0  0  0  0  0  0  0  0  0  0  0
  -30.8857  -14.2290   17.3309 C   0  0  0  0  0  0  0  0  0  0  0  0
  -20.8674  -24.9139   20.4838 C   0  0  0  0  0  0  0  0  0  0  0  0
  -22.7109   -8.6456   20.9657 C   0  0  0  0  0  0  0  0  0  0  0  0
  -25.1318  -14.8054   18.7951 C   0  0  0  0  0  0  0  0  0  0  0  0
  -27.8443  -14.8202   19.9727 C   0  0  0  0  0  0  0  0  0  0  0  0
  -30.3783  -21.5745   20.3644 C   0  0  0  0  0  0  0  0  0  0  0  0
  -24.1932   -8.9835   20.8284 C   0  0  0  0  0  0  0  0  0  0  0  0
  -30.0545  -21.4075   21.8370 C   0  0  0  0  0  0  0  0  0  0  0  0
  -18.8719  -26.9871   22.5374 C   0  0  0  0  0  0  0  0  0  0  0  0
  -24.5791  -10.0962   21.7978 C   0  0  0  0  0  0  0  0  0  0  0  0
  -19.8946  -27.7394   23.3933 C   0  0  0  0  0  0  0  0  0  0  0  0
  -19.3675  -26.7872   21.1059 C   0  0  0  0  0  0  0  0  0  0  0  0
  -21.7129  -26.9253   21.8393 C   0  0  0  0  0  0  0  0  0  0  0  0
  -23.8019  -11.3835   21.4977 C   0  0  1  0  0  0  0  0  0  0  0  0
  -25.8705  -13.5124   19.1266 C   0  0  1  0  0  0  0  0  0  0  0  0
  -21.2905  -27.0900   23.3081 C   0  0  1  0  0  0  0  0  0  0  0  0
  -28.5678  -21.0699   21.8446 C   0  0  2  0  0  0  0  0  0  0  0  0
  -24.1950  -22.6455   17.7349 C   0  0  0  0  0  0  0  0  0  0  0  0
  -32.9332  -13.7670   15.9555 C   0  0  0  0  0  0  0  0  0  0  0  0
  -29.4800  -11.3909   21.0839 C   0  0  0  0  0  0  0  0  0  0  0  0
  -31.6988  -11.8232   20.0076 C   0  0  0  0  0  0  0  0  0  0  0  0
  -30.0432  -10.3282   18.8912 C   0  0  0  0  0  0  0  0  0  0  0  0
  -30.0207  -16.0971   15.2046 C   0  0  0  0  0  0  0  0  0  0  0  0
  -28.3461  -19.5612   21.7157 C   0  0  0  0  0  0  0  0  0  1  0  0
  -29.6266  -12.8214   18.9395 C   0  0  1  0  0  0  0  0  0  0  0  0
  -31.4763  -14.2024   15.9326 C   0  0  2  0  0  0  0  0  0  0  0  0
  -30.1941  -11.6123   19.7355 C   0  0  0  0  0  0  0  0  0  0  0  0
  -23.0418  -28.8151   23.5012 N   0  0  0  0  0  0  0  0  0  0  0  0
  -22.3218  -27.8589   24.1122 N   0  0  0  0  0  0  0  0  0  0  0  0
  -28.0544  -21.8019   20.6900 N   0  0  0  0  0  0  0  0  0  0  0  0
  -27.3227  -13.6904   19.1860 N   0  0  0  0  0  0  0  0  0  0  0  0
  -20.6898  -26.1590   21.1120 N   0  0  0  0  0  0  0  0  0  0  0  0
  -21.9965  -26.7808   26.1961 N   0  0  0  0  0  0  0  0  0  0  0  0
  -25.2446  -29.7924   27.0770 N   0  0  0  0  0  0  0  0  0  0  0  0
  -22.1562  -24.3778   20.5818 N   0  0  0  0  0  0  0  0  0  0  0  0
  -24.3703  -12.0618   20.3526 N   0  0  0  0  0  0  0  0  0  0  0  0
  -30.2659  -13.0383   17.6462 N   0  0  0  0  0  0  0  0  0  0  0  0
  -31.3997  -15.5552   15.3122 N   0  3  0  0  0  0  0  0  0  0  0  0
  -29.0469  -22.6466   18.6855 O   0  0  0  0  0  0  0  0  0  0  0  0
  -21.8054  -22.3631   19.4640 O   0  0  0  0  0  0  0  0  0  0  0  0
  -23.9565  -28.1248   27.9818 O   0  0  0  0  0  0  0  0  0  0  0  0
  -26.0535  -13.2262   21.4632 O   0  0  0  0  0  0  0  0  0  0  0  0
  -27.7431  -11.7272   18.0005 O   0  0  0  0  0  0  0  0  0  0  0  0
  -30.9694  -15.2067   18.0708 O   0  0  0  0  0  0  0  0  0  0  0  0
  -19.9488  -24.3132   19.9177 O   0  0  0  0  0  0  0  0  0  0  0  0
  -27.4788  -33.3823   23.4499 O   0  0  0  0  0  0  0  0  0  0  0  0
  -26.9446  -19.2937   21.7380 O   0  0  0  0  0  0  0  0  0  1  0  0
  -27.7996  -37.5031   27.0995 F   0  0  0  0  0  0  0  0  0  0  0  0
  -28.1719  -32.8955   26.0814 F   0  0  0  0  0  0  0  0  0  0  0  0
  1  2  1  0  0  0  0
  1  5  2  0  0  0  0
  2  6  2  0  0  0  0
  3  8  2  0  0  0  0
  3 17  1  0  0  0  0
  4  9  1  0  0  0  0
  4 17  2  0  0  0  0
  5 21  1  0  0  0  0
  6 23  1  0  0  0  0
  7 10  2  0  0  0  0
  7 22  1  0  0  0  0
  8 27  1  0  0  0  0
  9 27  2  0  0  0  0
 10 28  1  0  0  0  0
 11 12  2  0  0  0  0
 11 29  1  0  0  0  0
 12 30  1  0  0  0  0
 13 18  1  0  0  0  0
 13 26  2  0  0  0  0
 14 24  1  0  0  0  0
 14 28  2  0  0  0  0
 15 25  2  0  0  0  0
 15 26  1  0  0  0  0
 16 30  2  0  0  0  0
 16 31  1  0  0  0  0
 17 32  1  0  0  0  0
 18 19  2  0  0  0  0
 18 36  1  0  0  0  0
 19 25  1  0  0  0  0
 19 37  1  0  0  0  0
 20 32  1  0  0  0  0
 20 33  2  0  0  0  0
 20 38  1  0  0  0  0
 21 23  2  0  0  0  0
 21 43  1  0  0  0  0
 22 24  2  0  0  0  0
 22 44  1  0  0  0  0
 23 54  1  0  0  0  0
 24 45  1  0  0  0  0
 25 58  1  0  0  0  0
 26 70  1  0  0  0  0
 27 86  1  0  0  0  0
 28 87  1  0  0  0  0
 29 31  2  0  0  0  0
 29 86  1  0  0  0  0
 30 88  1  0  0  0  0
 31 89  1  0  0  0  0
 32 68  2  0  0  0  0
 33 69  1  0  0  0  0
 33 73  1  0  0  0  0
 34 46  1  0  0  0  0
 34 70  1  0  0  0  0
 34 79  2  0  0  0  0
 35 36  2  0  0  0  0
 37 75  1  0  0  0  0
 37 80  2  0  0  0  0
 38 74  1  0  0  0  0
 38 81  2  0  0  0  0
 39 55  1  0  0  0  0
 39 76  1  0  0  0  0
 39 82  2  0  0  0  0
 40 65  1  0  0  0  0
 40 71  1  0  0  0  0
 40 83  2  0  0  0  0
 41 66  1  0  0  0  0
 41 77  1  0  0  0  0
 41 84  2  0  0  0  0
 42 72  1  0  0  0  0
 42 75  1  0  0  0  0
 42 85  2  0  0  0  0
 43 47  1  0  0  0  0
 44 55  1  0  0  0  0
 45 71  1  0  0  0  0
 46 48  1  0  0  0  0
 47 50  1  0  0  0  0
 48 57  1  0  0  0  0
 49 51  1  0  0  0  0
 49 52  1  0  0  0  0
 50 54  1  0  0  0  0
 51 56  1  0  0  0  0
 52 72  1  0  0  0  0
 53 56  1  0  0  0  0
 53 72  1  0  0  0  0
 54 76  1  0  0  0  0
 55 71  1  0  0  0  0
 56 69  1  0  0  0  0
 57 64  1  0  0  0  0
 57 70  1  0  0  0  0
 59 66  1  0  0  0  0
 60 67  1  0  0  0  0
 61 67  1  0  0  0  0
 62 67  1  0  0  0  0
 63 78  1  0  0  0  0
 64 87  1  0  0  0  0
 65 67  1  0  0  0  0
 65 77  1  0  0  0  0
 66 78  1  0  0  0  0
 68 69  1  0  0  0  0
M  CHG  1  78   1
M  ISO  4  42 100  64 101  75 100  87 101
M  END
> <Batch ID>
0114

> <Smiles>
C=Cc1cc(N2C(=O)CCC2[101CH2:1][101O:1]c2ccc3c(c2)CN(C(=O)C(NC(=O)C(C)NC)C(C)(C)C)C(C(=O)NC2CCCc4ccccc42)C3)cc(C)c1C(=O)[100NH:0][100C:0](=O)N1CCCC(n2nc(-c3ccc(Oc4ccc(F)cc4F)cc3)c(C(N)=O)c2N)C1

> <Shape>
0.267

> <Color>
0.045

> <Negative vol penalty>
0.000

$$$$

  -OEChem-04052301373D

 89 97  0     1  0  0  0  0  0999 V2000
  -22.4681  -33.7522   14.9683 C   0  0  0  0  0  0  0  0  0  0  0  0
  -23.5976  -33.0659   15.4027 C   0  0  0  0  0  0  0  0  0  0  0  0
  -24.2377   -9.3826   22.2437 C   0  0  0  0  0  0  0  0  0  0  0  0
  -24.3089   -8.7854   19.9037 C   0  0  0  0  0  0  0  0  0  0  0  0
  -21.7459  -34.5407   15.8630 C   0  0  0  0  0  0  0  0  0  0  0  0
  -24.0061  -33.1687   16.7320 C   0  0  0  0  0  0  0  0  0  0  0  0
  -25.2556  -28.6874   18.7324 C   0  0  0  0  0  0  0  0  0  0  0  0
  -23.1328   -8.5503   22.4225 C   0  0  0  0  0  0  0  0  0  0  0  0
  -23.2040   -7.9530   20.0825 C   0  0  0  0  0  0  0  0  0  0  0  0
  -26.5042  -28.1661   18.3965 C   0  0  0  0  0  0  0  0  0  0  0  0
  -20.5157   -6.3046   23.5728 C   0  0  0  0  0  0  0  0  0  0  0  0
  -20.5079   -5.4680   24.6889 C   0  0  0  0  0  0  0  0  0  0  0  0
  -30.2329  -20.7785   21.0993 C   0  0  0  0  0  0  0  0  0  0  0  0
  -27.3867  -28.9370   20.5051 C   0  0  0  0  0  0  0  0  0  0  0  0
  -30.6800  -21.4390   18.4261 C   0  0  0  0  0  0  0  0  0  0  0  0
  -22.5309   -4.4044   23.9058 C   0  0  0  0  0  0  0  0  0  0  0  0
  -24.8258   -9.5002   20.9843 C   0  0  0  0  0  0  0  0  0  0  0  0
  -30.1881  -19.7871   20.1191 C   0  0  0  0  0  0  0  0  0  0  0  0
  -27.3244  -10.0114   20.9290 C   0  0  0  0  0  0  0  0  0  0  0  0
  -22.1402  -34.6455   17.2062 C   0  0  0  0  0  0  0  0  0  0  0  0
  -25.0655  -29.3482   19.9546 C   0  0  0  0  0  0  0  0  0  0  0  0
  -23.2893  -33.9605   17.6452 C   0  0  0  0  0  0  0  0  0  0  0  0
  -26.1340  -29.4636   20.8552 C   0  0  0  0  0  0  0  0  0  0  0  0
  -30.4117  -20.1173   18.7825 C   0  0  0  0  0  0  0  0  0  0  0  0
  -22.6160   -7.8355   21.3419 C   0  0  0  0  0  0  0  0  0  0  0  0
  -27.5707  -28.2934   19.2816 C   0  0  0  0  0  0  0  0  0  0  0  0
  -21.5311   -6.1911   22.6232 C   0  0  0  0  0  0  0  0  0  0  0  0
  -30.5011  -22.1001   20.7429 C   0  0  0  0  0  0  0  0  0  0  0  0
  -30.7247  -22.4303   19.4063 C   0  0  0  0  0  0  0  0  0  0  0  0
  -21.5155   -4.5179   24.8554 C   0  0  0  0  0  0  0  0  0  0  0  0
  -22.5387   -5.2410   22.7897 C   0  0  0  0  0  0  0  0  0  0  0  0
  -25.9668  -10.3603   20.7988 C   0  0  0  0  0  0  0  0  0  0  0  0
  -28.0052  -11.1718   20.6527 C   0  0  0  0  0  0  0  0  0  0  0  0
  -29.9055  -18.4160   20.5229 C   0  0  0  0  0  0  0  0  0  0  0  0
  -28.7749  -17.9974   21.1272 C   0  0  0  0  0  0  0  0  0  0  0  0
  -30.0151  -25.8038   18.3903 C   0  0  0  0  0  0  0  0  0  0  0  0
  -28.8869  -26.4434   18.7191 C   0  0  0  0  0  0  0  0  0  1  0  0
  -27.9171   -8.7510   21.2692 C   0  0  0  0  0  0  0  0  0  0  0  0
  -28.6331  -16.5671   21.4664 C   0  0  0  0  0  0  0  0  0  0  0  0
  -24.2365  -32.2965   20.8054 C   0  0  0  0  0  0  0  0  0  0  0  0
  -24.2278  -31.0154   23.7855 C   0  0  0  0  0  0  0  0  0  0  0  0
  -25.3563  -28.5833   25.8969 C   0  0  0  0  0  0  0  0  0  0  0  0
  -21.3550  -35.5476   18.1250 C   0  0  0  0  0  0  0  0  0  0  0  0
  -23.7057  -29.8814   20.3136 C   0  0  0  0  0  0  0  0  0  0  0  0
  -25.9770  -30.1462   22.1886 C   0  0  0  0  0  0  0  0  0  0  0  0
  -21.6386  -35.3052   19.6053 C   0  0  0  0  0  0  0  0  0  0  0  0
  -26.4215  -15.5544   18.7250 C   0  0  0  0  0  0  0  0  0  0  0  0
  -23.1408  -35.2072   19.8519 C   0  0  0  0  0  0  0  0  0  0  0  0
  -26.1829  -14.0862   19.0673 C   0  0  0  0  0  0  0  0  0  0  0  0
  -26.5649  -16.4175   19.9776 C   0  0  0  0  0  0  0  0  0  0  0  0
  -27.3720  -14.4596   21.2643 C   0  0  0  0  0  0  0  0  0  0  0  0
  -23.7498  -34.0270   19.0852 C   0  0  1  0  0  0  0  0  0  0  0  0
  -23.7555  -30.9870   21.3636 C   0  0  1  0  0  0  0  0  0  0  0  0
  -27.2717  -13.5652   20.0188 C   0  0  1  0  0  0  0  0  0  0  0  0
  -29.0406  -18.1067   15.7854 C   0  0  0  0  0  0  0  0  0  0  0  0
  -28.0466  -25.0051   23.7302 C   0  0  0  0  0  0  0  0  0  0  0  0
  -25.2049  -27.8199   28.2826 C   0  0  0  0  0  0  0  0  0  0  0  0
  -26.1114  -33.2653   24.6224 C   0  0  0  0  0  0  0  0  0  0  0  0
  -26.6648  -31.9440   26.6758 C   0  0  0  0  0  0  0  0  0  0  0  0
  -24.3272  -32.7242   26.2892 C   0  0  0  0  0  0  0  0  0  0  0  0
  -24.1845  -25.9815   25.1116 C   0  0  0  0  0  0  0  0  0  0  0  0
  -30.3716  -19.0812   17.7056 C   0  0  0  0  0  0  0  0  0  0  0  0
  -30.0834  -24.3333   18.1322 C   0  0  0  0  0  0  0  0  0  0  0  0
  -29.0655  -19.1392   16.9013 C   0  0  0  0  0  0  0  0  0  0  0  0
  -29.2819  -24.7195   22.8952 C   0  0  0  0  0  0  0  0  0  0  0  0
  -29.3555  -23.2596   22.4747 C   0  0  0  0  0  0  0  0  0  0  0  0
  -25.2553  -30.8429   24.8781 C   0  0  1  0  0  0  0  0  0  0  0  0
  -24.6278  -27.6869   26.8819 C   0  0  2  0  0  0  0  0  0  0  0  0
  -25.5934  -32.1829   25.5905 C   0  0  0  0  0  0  0  0  0  0  0  0
  -25.7935  -11.6421   20.4658 N   0  0  0  0  0  0  0  0  0  0  0  0
  -27.0511  -12.1089   20.3846 N   0  0  0  0  0  0  0  0  0  0  0  0
  -27.5703  -15.8666   20.8987 N   0  0  0  0  0  0  0  0  0  0  0  0
  -24.6296  -30.6567   22.4911 N   0  0  0  0  0  0  0  0  0  0  0  0
  -29.3208  -11.4720   20.6154 N   0  0  0  0  0  0  0  0  0  0  0  0
  -27.0721   -7.6618   21.5222 N   0  0  0  0  0  0  0  0  0  0  0  0
  -23.4662  -32.7818   19.7659 N   0  0  0  0  0  0  0  0  0  0  0  0
  -24.7369  -29.8082   25.7663 N   0  0  0  0  0  0  0  0  0  0  0  0
  -24.7359  -26.2609   26.4625 N   0  3  0  0  0  0  0  0  0  0  0  0
  -29.1588   -8.5993   21.3626 O   0  0  0  0  0  0  0  0  0  0  0  0
  -29.4628  -16.0804   22.2367 O   0  0  0  0  0  0  0  0  0  0  0  0
  -25.2318  -32.8280   21.2835 O   0  0  0  0  0  0  0  0  0  0  0  0
  -23.1076  -31.4457   24.0713 O   0  0  0  0  0  0  0  0  0  0  0  0
  -26.3753  -28.2333   25.3055 O   0  0  0  0  0  0  0  0  0  0  0  0
  -21.5379   -7.0230   21.5161 O   0  0  0  0  0  0  0  0  0  0  0  0
  -28.7907  -27.7860   18.9559 O   0  0  0  0  0  0  0  0  0  1  0  0
  -30.9892  -23.7252   19.0436 O   0  0  0  0  0  0  0  0  0  0  0  0
  -30.5421  -23.0596   21.7091 O   0  0  0  0  0  0  0  0  0  0  0  0
  -21.5087   -3.7156   25.9279 F   0  0  0  0  0  0  0  0  0  0  0  0
  -23.5175   -5.1281   21.8813 F   0  0  0  0  0  0  0  0  0  0  0  0
  1  2  1  0  0  0  0
  1  5  2  0  0  0  0
  2  6  2  0  0  0  0
  3  8  2  0  0  0  0
  3 17  1  0  0  0  0
  4  9  1  0  0  0  0
  4 17  2  0  0  0  0
  5 20  1  0  0  0  0
  6 22  1  0  0  0  0
  7 10  2  0  0  0  0
  7 21  1  0  0  0  0
  8 25  1  0  0  0  0
  9 25  2  0  0  0  0
 10 26  1  0  0  0  0
 11 12  2  0  0  0  0
 11 27  1  0  0  0  0
 12 30  1  0  0  0  0
 13 18  2  0  0  0  0
 13 28  1  0  0  0  0
 14 23  1  0  0  0  0
 14 26  2  0  0  0  0
 15 24  2  0  0  0  0
 15 29  1  0  0  0  0
 16 30  2  0  0  0  0
 16 31  1  0  0  0  0
 17 32  1  0  0  0  0
 18 24  1  0  0  0  0
 18 34  1  0  0  0  0
 19 32  1  0  0  0  0
 19 33  2  0  0  0  0
 19 38  1  0  0  0  0
 20 22  2  0  0  0  0
 20 43  1  0  0  0  0
 21 23  2  0  0  0  0
 21 44  1  0  0  0  0
 22 52  1  0  0  0  0
 23 45  1  0  0  0  0
 24 62  1  0  0  0  0
 25 84  1  0  0  0  0
 26 85  1  0  0  0  0
 27 31  2  0  0  0  0
 27 84  1  0  0  0  0
 28 29  2  0  0  0  0
 28 87  1  0  0  0  0
 29 86  1  0  0  0  0
 30 88  1  0  0  0  0
 31 89  1  0  0  0  0
 32 70  2  0  0  0  0
 33 71  1  0  0  0  0
 33 74  1  0  0  0  0
 34 35  2  0  0  0  0
 35 39  1  0  0  0  0
 36 37  2  0  0  0  0
 36 63  1  0  0  0  0
 37 85  1  0  0  0  0
 38 75  1  0  0  0  0
 38 79  2  0  0  0  0
 39 72  1  0  0  0  0
 39 80  2  0  0  0  0
 40 53  1  0  0  0  0
 40 76  1  0  0  0  0
 40 81  2  0  0  0  0
 41 67  1  0  0  0  0
 41 73  1  0  0  0  0
 41 82  2  0  0  0  0
 42 68  1  0  0  0  0
 42 77  1  0  0  0  0
 42 83  2  0  0  0  0
 43 46  1  0  0  0  0
 44 53  1  0  0  0  0
 45 73  1  0  0  0  0
 46 48  1  0  0  0  0
 47 49  1  0  0  0  0
 47 50  1  0  0  0  0
 48 52  1  0  0  0  0
 49 54  1  0  0  0  0
 50 72  1  0  0  0  0
 51 54  1  0  0  0  0
 51 72  1  0  0  0  0
 52 76  1  0  0  0  0
 53 73  1  0  0  0  0
 54 71  1  0  0  0  0
 55 64  1  0  0  0  0
 56 65  1  0  0  0  0
 57 68  1  0  0  0  0
 58 69  1  0  0  0  0
 59 69  1  0  0  0  0
 60 69  1  0  0  0  0
 61 78  1  0  0  0  0
 62 64  1  0  0  0  0
 63 86  1  0  0  0  0
 65 66  1  0  0  0  0
 66 87  1  0  0  0  0
 67 69  1  0  0  0  0
 67 77  1  0  0  0  0
 68 78  1  0  0  0  0
 70 71  1  0  0  0  0
M  CHG  1  78   1
M  ISO  4  35 100  37 101  39 100  85 101
M  END
> <Batch ID>
0114

> <Smiles>
CCCOc1cc(C=[100CH:0][100C:0](=O)N2CCCC(n3nc(-c4ccc(Oc5ccc(F)cc5F)cc4)c(C(N)=O)c3N)C2)c(CCC)cc1OCC=[101CH:1][101O:1]c1ccc2c(c1)CN(C(=O)C(NC(=O)C(C)NC)C(C)(C)C)C(C(=O)NC1CCCc3ccccc31)C2

> <Shape>
0.275

> <Color>
0.110

> <Negative vol penalty>
0.000

$$$$

  -OEChem-04052301373D

 84 92  0     1  0  0  0  0  0999 V2000
  -21.0210  -38.2379   19.1937 C   0  0  0  0  0  0  0  0  0  0  0  0
  -21.7651  -37.3448   18.4295 C   0  0  0  0  0  0  0  0  0  0  0  0
  -26.0940  -13.9604   21.2260 C   0  0  0  0  0  0  0  0  0  0  0  0
  -26.1768  -14.1533   18.8191 C   0  0  0  0  0  0  0  0  0  0  0  0
  -21.2675  -38.3577   20.5607 C   0  0  0  0  0  0  0  0  0  0  0  0
  -22.7571  -36.5717   19.0317 C   0  0  0  0  0  0  0  0  0  0  0  0
  -24.3513  -30.8412   17.5737 C   0  0  0  0  0  0  0  0  0  0  0  0
  -24.9874  -13.1178   21.1204 C   0  0  0  0  0  0  0  0  0  0  0  0
  -25.0702  -13.3106   18.7135 C   0  0  0  0  0  0  0  0  0  0  0  0
  -25.3867  -30.3248   16.7959 C   0  0  0  0  0  0  0  0  0  0  0  0
  -24.3895   -9.8710   20.3899 C   0  0  0  0  0  0  0  0  0  0  0  0
  -24.3771   -8.7162   21.1721 C   0  0  0  0  0  0  0  0  0  0  0  0
  -29.0848  -23.2078   13.9045 C   0  0  0  0  0  0  0  0  0  0  0  0
  -28.6699  -21.1774   15.1463 C   0  0  0  0  0  0  0  0  0  0  0  0
  -28.9464  -23.2733   16.3156 C   0  0  0  0  0  0  0  0  0  0  0  0
  -26.7082  -29.9923   18.7865 C   0  0  0  0  0  0  0  0  0  0  0  0
  -22.3510   -9.4690   22.2516 C   0  0  0  0  0  0  0  0  0  0  0  0
  -26.6887  -14.4782   20.0753 C   0  0  0  0  0  0  0  0  0  0  0  0
  -28.8544  -21.8323   13.9286 C   0  0  0  0  0  0  0  0  0  0  0  0
  -29.1309  -23.9283   15.0980 C   0  0  0  0  0  0  0  0  0  0  0  0
  -29.1880  -14.9734   20.2001 C   0  0  0  0  0  0  0  0  0  0  0  0
  -22.2565  -37.5787   21.1818 C   0  0  0  0  0  0  0  0  0  0  0  0
  -24.4910  -30.9474   18.9650 C   0  0  0  0  0  0  0  0  0  0  0  0
  -23.0181  -36.6822   20.4081 C   0  0  0  0  0  0  0  0  0  0  0  0
  -25.6721  -30.5081   19.5800 C   0  0  0  0  0  0  0  0  0  0  0  0
  -28.7159  -21.8979   16.3398 C   0  0  0  0  0  0  0  0  0  0  0  0
  -24.4755  -12.7929   19.8642 C   0  0  0  0  0  0  0  0  0  0  0  0
  -26.5665  -29.9029   17.4020 C   0  0  0  0  0  0  0  0  0  0  0  0
  -23.3826  -10.8249   20.5386 C   0  0  0  0  0  0  0  0  0  0  0  0
  -23.3578   -8.5151   22.1029 C   0  0  0  0  0  0  0  0  0  0  0  0
  -22.3634  -10.6239   21.4694 C   0  0  0  0  0  0  0  0  0  0  0  0
  -27.8314  -15.3491   20.1837 C   0  0  0  0  0  0  0  0  0  0  0  0
  -29.8713  -16.1591   20.3177 C   0  0  0  0  0  0  0  0  0  0  0  0
  -29.5129  -21.3942   11.6071 C   0  0  0  0  0  0  0  0  0  0  0  0
  -28.8057  -21.0809   12.6839 C   0  0  0  0  0  0  0  0  0  0  0  0
  -28.7757  -26.2114   16.1593 C   0  0  0  0  0  0  0  0  0  0  0  0
  -28.9803  -27.5356   16.1915 C   0  0  0  0  0  0  0  0  0  0  0  0
  -29.3753  -25.3907   15.0726 C   0  0  0  0  0  0  0  0  0  0  0  0
  -29.7779  -13.6693   20.1163 C   0  0  0  0  0  0  0  0  0  0  0  0
  -24.4913  -33.3535   21.0422 C   0  0  0  0  0  0  0  0  0  0  0  0
  -24.6027  -30.9562   23.2247 C   0  0  0  0  0  0  0  0  0  0  0  0
  -25.4226  -27.7205   23.9348 C   0  0  0  0  0  0  0  0  0  0  0  0
  -28.5448  -21.7978   18.8512 C   0  0  0  0  0  0  0  0  0  0  0  0
  -22.5190  -37.7774   22.6536 C   0  0  0  0  0  0  0  0  0  0  0  0
  -23.3545  -31.4820   19.7926 C   0  0  0  0  0  0  0  0  0  0  0  0
  -25.8641  -30.5820   21.0720 C   0  0  0  0  0  0  0  0  0  0  0  0
  -23.3330  -36.6507   23.2847 C   0  0  0  0  0  0  0  0  0  0  0  0
  -29.4119  -20.5863   22.0850 C   0  0  0  0  0  0  0  0  0  0  0  0
  -24.5337  -36.3048   22.4097 C   0  0  0  0  0  0  0  0  0  0  0  0
  -29.2344  -19.0710   21.9641 C   0  0  0  0  0  0  0  0  0  0  0  0
  -28.3539  -21.3467   21.2874 C   0  0  0  0  0  0  0  0  0  0  0  0
  -28.0612  -19.4392   19.7561 C   0  0  0  0  0  0  0  0  0  0  0  0
  -24.0858  -35.8083   21.0296 C   0  0  1  0  0  0  0  0  0  0  0  0
  -23.8038  -32.0215   21.1470 C   0  0  1  0  0  0  0  0  0  0  0  0
  -29.1431  -18.6301   20.4900 C   0  0  2  0  0  0  0  0  0  0  0  0
  -25.4330  -26.0580   25.8146 C   0  0  0  0  0  0  0  0  0  0  0  0
  -27.0521  -32.3275   24.4205 C   0  0  0  0  0  0  0  0  0  0  0  0
  -27.5664  -30.1978   25.6321 C   0  0  0  0  0  0  0  0  0  0  0  0
  -25.4413  -31.4165   26.1027 C   0  0  0  0  0  0  0  0  0  0  0  0
  -23.5846  -25.9037   22.4926 C   0  0  0  0  0  0  0  0  0  0  0  0
  -28.4241  -28.4250   17.2562 C   0  0  0  0  0  0  0  0  0  1  0  0
  -25.7045  -30.1851   23.9104 C   0  0  1  0  0  0  0  0  0  0  0  0
  -24.6515  -26.6165   24.6356 C   0  0  2  0  0  0  0  0  0  0  0  0
  -26.4385  -31.0320   24.9881 C   0  0  0  0  0  0  0  0  0  0  0  0
  -27.6610  -16.6701   20.2832 N   0  0  0  0  0  0  0  0  0  0  0  0
  -28.9194  -17.1348   20.3633 N   0  0  0  0  0  0  0  0  0  0  0  0
  -24.7265  -31.1180   21.8375 N   0  0  0  0  0  0  0  0  0  0  0  0
  -28.3279  -20.8790   19.8998 N   0  0  0  0  0  0  0  0  0  0  0  0
  -31.1873  -16.4518   20.3857 N   0  0  0  0  0  0  0  0  0  0  0  0
  -28.9305  -12.5590   19.9989 N   0  0  0  0  0  0  0  0  0  0  0  0
  -28.5294  -21.2321   17.5766 N   0  0  0  0  0  0  0  0  0  0  0  0
  -23.6344  -34.4355   21.1084 N   0  0  0  0  0  0  0  0  0  0  0  0
  -25.0904  -28.9658   24.4247 N   0  0  0  0  0  0  0  0  0  0  0  0
  -24.3682  -25.5010   23.6888 N   0  3  0  0  0  0  0  0  0  0  0  0
  -30.0727  -25.8757   14.1885 O   0  0  0  0  0  0  0  0  0  0  0  0
  -31.0189  -13.4924   20.1612 O   0  0  0  0  0  0  0  0  0  0  0  0
  -25.7090  -33.3963   20.9124 O   0  0  0  0  0  0  0  0  0  0  0  0
  -23.6630  -31.3927   23.8941 O   0  0  0  0  0  0  0  0  0  0  0  0
  -26.2407  -27.4999   23.0446 O   0  0  0  0  0  0  0  0  0  0  0  0
  -28.7575  -22.9932   19.0694 O   0  0  0  0  0  0  0  0  0  0  0  0
  -23.3959  -11.9706   19.7608 O   0  0  0  0  0  0  0  0  0  0  0  0
  -27.5789  -29.3990   16.6451 O   0  0  0  0  0  0  0  0  0  1  0  0
  -23.3452   -7.4054   22.8528 F   0  0  0  0  0  0  0  0  0  0  0  0
  -21.3928  -11.5362   21.6159 F   0  0  0  0  0  0  0  0  0  0  0  0
  1  2  1  0  0  0  0
  1  5  2  0  0  0  0
  2  6  2  0  0  0  0
  3  8  2  0  0  0  0
  3 18  1  0  0  0  0
  4  9  1  0  0  0  0
  4 18  2  0  0  0  0
  5 22  1  0  0  0  0
  6 24  1  0  0  0  0
  7 10  2  0  0  0  0
  7 23  1  0  0  0  0
  8 27  1  0  0  0  0
  9 27  2  0  0  0  0
 10 28  1  0  0  0  0
 11 12  2  0  0  0  0
 11 29  1  0  0  0  0
 12 30  1  0  0  0  0
 13 19  2  0  0  0  0
 13 20  1  0  0  0  0
 14 19  1  0  0  0  0
 14 26  2  0  0  0  0
 15 20  2  0  0  0  0
 15 26  1  0  0  0  0
 16 25  1  0  0  0  0
 16 28  2  0  0  0  0
 17 30  2  0  0  0  0
 17 31  1  0  0  0  0
 18 32  1  0  0  0  0
 19 35  1  0  0  0  0
 20 38  1  0  0  0  0
 21 32  1  0  0  0  0
 21 33  2  0  0  0  0
 21 39  1  0  0  0  0
 22 24  2  0  0  0  0
 22 44  1  0  0  0  0
 23 25  2  0  0  0  0
 23 45  1  0  0  0  0
 24 53  1  0  0  0  0
 25 46  1  0  0  0  0
 26 71  1  0  0  0  0
 27 81  1  0  0  0  0
 28 82  1  0  0  0  0
 29 31  2  0  0  0  0
 29 81  1  0  0  0  0
 30 83  1  0  0  0  0
 31 84  1  0  0  0  0
 32 65  2  0  0  0  0
 33 66  1  0  0  0  0
 33 69  1  0  0  0  0
 34 35  2  0  0  0  0
 36 37  2  0  0  0  0
 36 38  1  0  0  0  0
 37 61  1  0  0  0  0
 38 75  2  0  0  0  0
 39 70  1  0  0  0  0
 39 76  2  0  0  0  0
 40 54  1  0  0  0  0
 40 72  1  0  0  0  0
 40 77  2  0  0  0  0
 41 62  1  0  0  0  0
 41 67  1  0  0  0  0
 41 78  2  0  0  0  0
 42 63  1  0  0  0  0
 42 73  1  0  0  0  0
 42 79  2  0  0  0  0
 43 68  1  0  0  0  0
 43 71  1  0  0  0  0
 43 80  2  0  0  0  0
 44 47  1  0  0  0  0
 45 54  1  0  0  0  0
 46 67  1  0  0  0  0
 47 49  1  0  0  0  0
 48 50  1  0  0  0  0
 48 51  1  0  0  0  0
 49 53  1  0  0  0  0
 50 55  1  0  0  0  0
 51 68  1  0  0  0  0
 52 55  1  0  0  0  0
 52 68  1  0  0  0  0
 53 72  1  0  0  0  0
 54 67  1  0  0  0  0
 55 66  1  0  0  0  0
 56 63  1  0  0  0  0
 57 64  1  0  0  0  0
 58 64  1  0  0  0  0
 59 64  1  0  0  0  0
 60 74  1  0  0  0  0
 61 82  1  0  0  0  0
 62 64  1  0  0  0  0
 62 73  1  0  0  0  0
 63 74  1  0  0  0  0
 65 66  1  0  0  0  0
M  CHG  1  74   1
M  ISO  4  43 100  61 101  71 100  82 101
M  END
> <Batch ID>
0114

> <Smiles>
C=Cc1cc([100NH:0][100C:0](=O)N2CCCC(n3nc(-c4ccc(Oc5ccc(F)cc5F)cc4)c(C(N)=O)c3N)C2)cc(C(=O)C=C[101CH2:1][101O:1]c2ccc3c(c2)CN(C(=O)C(NC(=O)C(C)NC)C(C)(C)C)C(C(=O)NC2CCCc4ccccc42)C3)c1

> <Shape>
0.234

> <Color>
0.075

> <Negative vol penalty>
0.000

$$$$

  -OEChem-04052301373D

 84 92  0     1  0  0  0  0  0999 V2000
  -28.0331  -30.2858   27.9784 C   0  0  0  0  0  0  0  0  0  0  0  0
  -27.9783  -29.4050   26.9030 C   0  0  0  0  0  0  0  0  0  0  0  0
  -24.7264   -8.7396   21.5724 C   0  0  0  0  0  0  0  0  0  0  0  0
  -22.9815  -10.2257   20.8082 C   0  0  0  0  0  0  0  0  0  0  0  0
  -26.9092  -31.0363   28.3212 C   0  0  0  0  0  0  0  0  0  0  0  0
  -26.7991  -29.2734   26.1704 C   0  0  0  0  0  0  0  0  0  0  0  0
  -27.6103  -29.2457   21.1718 C   0  0  0  0  0  0  0  0  0  0  0  0
  -23.8279   -8.1373   22.4530 C   0  0  0  0  0  0  0  0  0  0  0  0
  -22.0830   -9.6234   21.6889 C   0  0  0  0  0  0  0  0  0  0  0  0
  -28.0831  -28.0605   20.6100 C   0  0  0  0  0  0  0  0  0  0  0  0
  -21.3351   -5.8583   22.2963 C   0  0  0  0  0  0  0  0  0  0  0  0
  -21.3268   -4.4650   22.3618 C   0  0  0  0  0  0  0  0  0  0  0  0
  -25.8485  -27.5236   19.8771 C   0  0  0  0  0  0  0  0  0  0  0  0
  -26.3776  -19.0386   20.0423 C   0  0  0  0  0  0  0  0  0  0  0  0
  -24.5167  -17.9861   18.9170 C   0  0  0  0  0  0  0  0  0  0  0  0
  -21.8923   -4.5720   24.7083 C   0  0  0  0  0  0  0  0  0  0  0  0
  -24.3033   -9.7838   20.7500 C   0  0  0  0  0  0  0  0  0  0  0  0
  -25.4965  -10.0340   18.5092 C   0  0  0  0  0  0  0  0  0  0  0  0
  -25.7186  -30.9210   27.5865 C   0  0  0  0  0  0  0  0  0  0  0  0
  -26.2489  -29.5740   21.0998 C   0  0  0  0  0  0  0  0  0  0  0  0
  -25.6578  -30.0221   26.5046 C   0  0  0  0  0  0  0  0  0  0  0  0
  -25.3614  -28.7148   20.4365 C   0  0  0  0  0  0  0  0  0  0  0  0
  -25.8135  -17.9213   19.4265 C   0  0  0  0  0  0  0  0  0  0  0  0
  -24.3478  -20.2854   19.6393 C   0  0  0  0  0  0  0  0  0  0  0  0
  -22.5062   -8.5792   22.5112 C   0  0  0  0  0  0  0  0  0  0  0  0
  -27.2017  -27.1978   19.9651 C   0  0  0  0  0  0  0  0  0  0  0  0
  -21.6220   -6.6085   23.4367 C   0  0  0  0  0  0  0  0  0  0  0  0
  -25.6447  -20.2206   20.1488 C   0  0  0  0  0  0  0  0  0  0  0  0
  -21.6054   -3.8219   23.5678 C   0  0  0  0  0  0  0  0  0  0  0  0
  -23.7838  -19.1682   19.0234 C   0  0  0  0  0  0  0  0  0  0  0  0
  -21.9006   -5.9653   24.6427 C   0  0  0  0  0  0  0  0  0  0  0  0
  -25.2311  -10.4067   19.8405 C   0  0  0  0  0  0  0  0  0  0  0  0
  -26.4456  -10.9312   18.0841 C   0  0  0  0  0  0  0  0  0  0  0  0
  -24.9351   -8.9718   17.7267 C   0  0  0  0  0  0  0  0  0  0  0  0
  -23.9415  -30.0541   23.2326 C   0  0  0  0  0  0  0  0  0  0  0  0
  -22.2303  -30.9043   20.6112 C   0  0  0  0  0  0  0  0  0  0  0  0
  -21.7952  -30.6710   17.2344 C   0  0  0  0  0  0  0  0  0  0  0  0
  -27.8561  -16.4874   19.7706 C   0  0  0  0  0  0  0  0  0  0  0  0
  -24.5154  -31.7181   28.0241 C   0  0  0  0  0  0  0  0  0  0  0  0
  -25.7593  -30.8691   21.6875 C   0  0  0  0  0  0  0  0  0  0  0  0
  -23.8939  -29.0309   20.3141 C   0  0  0  0  0  0  0  0  0  0  0  0
  -23.4188  -31.7967   26.9651 C   0  0  0  0  0  0  0  0  0  0  0  0
  -30.0207  -13.6608   19.7280 C   0  0  0  0  0  0  0  0  0  0  0  0
  -23.1538  -30.4184   26.3677 C   0  0  0  0  0  0  0  0  0  0  0  0
  -29.0625  -12.4719   19.6247 C   0  0  0  0  0  0  0  0  0  0  0  0
  -29.4507  -14.7740   20.6052 C   0  0  0  0  0  0  0  0  0  0  0  0
  -27.1471  -14.0413   20.1301 C   0  0  0  0  0  0  0  0  0  0  0  0
  -24.4045  -29.8698   25.6703 C   0  0  1  0  0  0  0  0  0  0  0  0
  -24.2669  -30.8553   22.0038 C   0  0  1  0  0  0  0  0  0  0  0  0
  -27.6496  -12.9217   19.2039 C   0  0  2  0  0  0  0  0  0  0  0  0
  -20.2877  -31.4466   15.3842 C   0  0  0  0  0  0  0  0  0  0  0  0
  -20.1169  -28.8869   21.4907 C   0  0  0  0  0  0  0  0  0  0  0  0
  -19.1431  -29.0079   19.1874 C   0  0  0  0  0  0  0  0  0  0  0  0
  -19.2008  -31.0465   20.6239 C   0  0  0  0  0  0  0  0  0  0  0  0
  -24.0101  -32.0732   15.8607 C   0  0  0  0  0  0  0  0  0  0  0  0
  -28.7465  -23.9236   19.8305 C   0  0  0  0  0  0  0  0  0  0  0  0
  -27.4779  -23.3149   20.4178 C   0  0  0  0  0  0  0  0  0  0  0  0
  -28.7930  -25.4319   20.0359 C   0  0  0  0  0  0  0  0  0  1  0  0
  -27.4102  -21.8137   20.1752 C   0  0  0  0  0  0  0  0  0  0  0  0
  -21.3526  -30.1734   19.6241 C   0  0  1  0  0  0  0  0  0  0  0  0
  -21.5559  -31.7306   16.1740 C   0  0  2  0  0  0  0  0  0  0  0  0
  -19.9806  -29.7715   20.2353 C   0  0  0  0  0  0  0  0  0  0  0  0
  -25.9535  -11.4586   20.2352 N   0  0  0  0  0  0  0  0  0  0  0  0
  -26.6821  -11.7545   19.1455 N   0  0  0  0  0  0  0  0  0  0  0  0
  -23.4625  -30.3060   20.9105 N   0  0  0  0  0  0  0  0  0  0  0  0
  -28.1126  -15.1513   20.1446 N   0  0  0  0  0  0  0  0  0  0  0  0
  -23.5969  -21.4770   19.7408 N   0  0  0  0  0  0  0  0  0  0  0  0
  -27.0926  -11.0883   16.9098 N   0  0  0  0  0  0  0  0  0  0  0  0
  -23.9716   -8.1435   18.3181 N   0  0  0  0  0  0  0  0  0  0  0  0
  -26.5577  -16.7204   19.3183 N   0  0  0  0  0  0  0  0  0  0  0  0
  -24.5776  -30.4958   24.3770 N   0  0  0  0  0  0  0  0  0  0  0  0
  -21.2547  -31.0337   18.4499 N   0  0  0  0  0  0  0  0  0  0  0  0
  -22.7015  -31.7788   15.2221 N   0  3  0  0  0  0  0  0  0  0  0  0
  -25.2897   -8.7533   16.5434 O   0  0  0  0  0  0  0  0  0  0  0  0
  -23.1691  -29.1064   23.1489 O   0  0  0  0  0  0  0  0  0  0  0  0
  -21.8402  -31.9706   21.0934 O   0  0  0  0  0  0  0  0  0  0  0  0
  -22.3979  -29.6245   17.0062 O   0  0  0  0  0  0  0  0  0  0  0  0
  -28.7319  -17.3548   19.8202 O   0  0  0  0  0  0  0  0  0  0  0  0
  -21.6290   -7.9916   23.3703 O   0  0  0  0  0  0  0  0  0  0  0  0
  -27.6604  -26.0401   19.4165 O   0  0  0  0  0  0  0  0  0  1  0  0
  -26.2170  -21.3073   20.7574 O   0  0  0  0  0  0  0  0  0  0  0  0
  -21.5960   -2.4839   23.6309 F   0  0  0  0  0  0  0  0  0  0  0  0
  -22.5382  -19.2188   18.5301 F   0  0  0  0  0  0  0  0  0  0  0  0
  -22.1758   -6.6807   25.7420 F   0  0  0  0  0  0  0  0  0  0  0  0
  1  2  1  0  0  0  0
  1  5  2  0  0  0  0
  2  6  2  0  0  0  0
  3  8  2  0  0  0  0
  3 17  1  0  0  0  0
  4  9  1  0  0  0  0
  4 17  2  0  0  0  0
  5 19  1  0  0  0  0
  6 21  1  0  0  0  0
  7 10  2  0  0  0  0
  7 20  1  0  0  0  0
  8 25  1  0  0  0  0
  9 25  2  0  0  0  0
 10 26  1  0  0  0  0
 11 12  2  0  0  0  0
 11 27  1  0  0  0  0
 12 29  1  0  0  0  0
 13 22  1  0  0  0  0
 13 26  2  0  0  0  0
 14 23  2  0  0  0  0
 14 28  1  0  0  0  0
 15 23  1  0  0  0  0
 15 30  2  0  0  0  0
 16 29  2  0  0  0  0
 16 31  1  0  0  0  0
 17 32  1  0  0  0  0
 18 32  1  0  0  0  0
 18 33  2  0  0  0  0
 18 34  1  0  0  0  0
 19 21  2  0  0  0  0
 19 39  1  0  0  0  0
 20 22  2  0  0  0  0
 20 40  1  0  0  0  0
 21 48  1  0  0  0  0
 22 41  1  0  0  0  0
 23 70  1  0  0  0  0
 24 28  2  0  0  0  0
 24 30  1  0  0  0  0
 24 67  1  0  0  0  0
 25 79  1  0  0  0  0
 26 80  1  0  0  0  0
 27 31  2  0  0  0  0
 27 79  1  0  0  0  0
 28 81  1  0  0  0  0
 29 82  1  0  0  0  0
 30 83  1  0  0  0  0
 31 84  1  0  0  0  0
 32 63  2  0  0  0  0
 33 64  1  0  0  0  0
 33 68  1  0  0  0  0
 34 69  1  0  0  0  0
 34 74  2  0  0  0  0
 35 49  1  0  0  0  0
 35 71  1  0  0  0  0
 35 75  2  0  0  0  0
 36 60  1  0  0  0  0
 36 65  1  0  0  0  0
 36 76  2  0  0  0  0
 37 61  1  0  0  0  0
 37 72  1  0  0  0  0
 37 77  2  0  0  0  0
 38 66  1  0  0  0  0
 38 70  1  0  0  0  0
 38 78  2  0  0  0  0
 39 42  1  0  0  0  0
 40 49  1  0  0  0  0
 41 65  1  0  0  0  0
 42 44  1  0  0  0  0
 43 45  1  0  0  0  0
 43 46  1  0  0  0  0
 44 48  1  0  0  0  0
 45 50  1  0  0  0  0
 46 66  1  0  0  0  0
 47 50  1  0  0  0  0
 47 66  1  0  0  0  0
 48 71  1  0  0  0  0
 49 65  1  0  0  0  0
 50 64  1  0  0  0  0
 51 61  1  0  0  0  0
 52 62  1  0  0  0  0
 53 62  1  0  0  0  0
 54 62  1  0  0  0  0
 55 73  1  0  0  0  0
 56 57  1  0  0  0  0
 56 58  1  0  0  0  0
 57 59  1  0  0  0  0
 58 80  1  0  0  0  0
 59 81  1  0  0  0  0
 60 62  1  0  0  0  0
 60 72  1  0  0  0  0
 61 73  1  0  0  0  0
 63 64  1  0  0  0  0
M  CHG  1  73   1
M  ISO  4  38 100  58 101  70 100  80 101
M  END
> <Batch ID>
0114

> <Smiles>
CNC(C)C(=O)NC(C(=O)N1Cc2cc([101O:1][101CH2:1]CCCOc3cc([100NH:0][100C:0](=O)N4CCCC(n5nc(-c6ccc(Oc7ccc(F)cc7F)cc6)c(C(N)=O)c5N)C4)cc(F)c3N)ccc2CC1C(=O)NC1CCCc2ccccc21)C(C)(C)C

> <Shape>
0.257

> <Color>
0.107

> <Negative vol penalty>
0.000

$$$$

  -OEChem-04052301373D

 87 95  0     1  0  0  0  0  0999 V2000
  -28.3794  -37.8258   22.7721 C   0  0  0  0  0  0  0  0  0  0  0  0
  -28.8179  -36.5907   22.3055 C   0  0  0  0  0  0  0  0  0  0  0  0
  -25.9533  -11.1702   20.0112 C   0  0  0  0  0  0  0  0  0  0  0  0
  -26.3174  -11.7260   17.6884 C   0  0  0  0  0  0  0  0  0  0  0  0
  -27.3460  -37.8900   23.7059 C   0  0  0  0  0  0  0  0  0  0  0  0
  -28.2240  -35.4190   22.7733 C   0  0  0  0  0  0  0  0  0  0  0  0
  -27.2583  -30.2646   19.6103 C   0  0  0  0  0  0  0  0  0  0  0  0
  -24.6801  -10.6946   19.6979 C   0  0  0  0  0  0  0  0  0  0  0  0
  -25.0442  -11.2503   17.3750 C   0  0  0  0  0  0  0  0  0  0  0  0
  -27.9607  -29.0624   19.5388 C   0  0  0  0  0  0  0  0  0  0  0  0
  -23.3249   -7.9045   18.3518 C   0  0  0  0  0  0  0  0  0  0  0  0
  -22.9339   -6.6855   18.9056 C   0  0  0  0  0  0  0  0  0  0  0  0
  -30.4292  -18.3924   15.4936 C   0  0  0  0  0  0  0  0  0  0  0  0
  -30.2634  -20.6494   14.6480 C   0  0  0  0  0  0  0  0  0  0  0  0
  -26.4853  -28.1090   21.1922 C   0  0  0  0  0  0  0  0  0  0  0  0
  -30.3874  -20.2575   17.0288 C   0  0  0  0  0  0  0  0  0  0  0  0
  -21.0814   -7.7792   20.0052 C   0  0  0  0  0  0  0  0  0  0  0  0
  -26.7720  -11.6860   19.0065 C   0  0  0  0  0  0  0  0  0  0  0  0
  -30.3325  -19.2754   14.4182 C   0  0  0  0  0  0  0  0  0  0  0  0
  -29.2893  -11.4458   19.3426 C   0  0  0  0  0  0  0  0  0  0  0  0
  -26.7326  -36.7190   24.1781 C   0  0  0  0  0  0  0  0  0  0  0  0
  -26.1690  -30.4017   20.4827 C   0  0  0  0  0  0  0  0  0  0  0  0
  -27.1823  -35.4676   23.7153 C   0  0  0  0  0  0  0  0  0  0  0  0
  -25.7692  -29.3132   21.2710 C   0  0  0  0  0  0  0  0  0  0  0  0
  -30.4565  -18.8834   16.7990 C   0  0  0  0  0  0  0  0  0  0  0  0
  -30.2908  -21.1405   15.9534 C   0  0  0  0  0  0  0  0  0  0  0  0
  -24.2255  -10.7346   18.3797 C   0  0  0  0  0  0  0  0  0  0  0  0
  -27.5761  -27.9853   20.3320 C   0  0  0  0  0  0  0  0  0  0  0  0
  -22.5942   -9.0609   18.6248 C   0  0  0  0  0  0  0  0  0  0  0  0
  -21.8121   -6.6228   19.7323 C   0  0  0  0  0  0  0  0  0  0  0  0
  -21.4724   -8.9983   19.4514 C   0  0  0  0  0  0  0  0  0  0  0  0
  -28.0871  -12.1781   19.3296 C   0  0  0  0  0  0  0  0  0  0  0  0
  -30.2449  -12.3611   19.7106 C   0  0  0  0  0  0  0  0  0  0  0  0
  -30.3042  -18.7634   13.0574 C   0  0  0  0  0  0  0  0  0  0  0  0
  -29.5214  -10.0619   19.0484 C   0  0  0  0  0  0  0  0  0  0  0  0
  -25.5185  -32.2502   22.9855 C   0  0  0  0  0  0  0  0  0  0  0  0
  -22.6025  -30.8453   22.7721 C   0  0  0  0  0  0  0  0  0  0  0  0
  -29.6237  -23.0318   17.3860 C   0  0  0  0  0  0  0  0  0  0  0  0
  -20.7390  -28.1813   21.7340 C   0  0  0  0  0  0  0  0  0  0  0  0
  -30.5939  -18.3083   19.2478 C   0  0  0  0  0  0  0  0  0  0  0  0
  -25.6512  -36.8365   25.2228 C   0  0  0  0  0  0  0  0  0  0  0  0
  -25.4052  -31.6966   20.5285 C   0  0  0  0  0  0  0  0  0  0  0  0
  -24.5942  -29.4025   22.2090 C   0  0  0  0  0  0  0  0  0  0  0  0
  -24.8220  -35.5653   25.3868 C   0  0  0  0  0  0  0  0  0  0  0  0
  -30.7941  -16.3899   22.2406 C   0  0  0  0  0  0  0  0  0  0  0  0
  -25.7300  -34.3423   25.4675 C   0  0  0  0  0  0  0  0  0  0  0  0
  -30.2377  -15.0237   21.8334 C   0  0  0  0  0  0  0  0  0  0  0  0
  -30.0555  -17.5329   21.5465 C   0  0  0  0  0  0  0  0  0  0  0  0
  -29.4227  -16.0588   19.6767 C   0  0  0  0  0  0  0  0  0  0  0  0
  -26.5464  -34.1755   24.1802 C   0  0  1  0  0  0  0  0  0  0  0  0
  -24.6305  -31.8878   21.8288 C   0  0  1  0  0  0  0  0  0  0  0  0
  -30.1777  -14.8737   20.3006 C   0  0  2  0  0  0  0  0  0  0  0  0
  -29.5553  -19.5143   11.9566 C   0  0  0  0  0  0  0  0  0  0  0  0
  -18.3890  -27.3011   21.7353 C   0  0  0  0  0  0  0  0  0  0  0  0
  -22.8892  -30.0910   25.7146 C   0  0  0  0  0  0  0  0  0  0  0  0
  -21.0266  -28.4473   25.4028 C   0  0  0  0  0  0  0  0  0  0  0  0
  -20.6095  -30.8824   25.0579 C   0  0  0  0  0  0  0  0  0  0  0  0
  -30.7696  -23.4860   15.1825 C   0  0  0  0  0  0  0  0  0  0  0  0
  -20.6225  -28.1585   18.7768 C   0  0  0  0  0  0  0  0  0  0  0  0
  -29.5471  -24.5484   17.5463 C   0  0  0  0  0  0  0  0  0  0  0  0
  -28.8915  -24.9709   18.8601 C   0  0  0  0  0  0  0  0  0  0  0  0
  -28.8693  -26.4847   19.0160 C   0  0  0  0  0  0  0  0  0  1  0  0
  -21.9688  -29.6039   23.3521 C   0  0  1  0  0  0  0  0  0  0  0  0
  -19.4292  -28.1046   20.9704 C   0  0  2  0  0  0  0  0  0  0  0  0
  -21.6469  -29.7547   24.8657 C   0  0  0  0  0  0  0  0  0  0  0  0
  -28.2605  -13.4598   19.6630 N   0  0  0  0  0  0  0  0  0  0  0  0
  -30.9007  -17.6413   12.7272 N   0  0  0  0  0  0  0  0  0  0  0  0
  -29.5828  -13.5400   19.8890 N   0  0  0  0  0  0  0  0  0  0  0  0
  -23.8832  -30.6917   22.2226 N   0  0  0  0  0  0  0  0  0  0  0  0
  -30.0426  -17.3254   20.0968 N   0  0  0  0  0  0  0  0  0  0  0  0
  -31.5786  -12.2644   19.8958 N   0  0  0  0  0  0  0  0  0  0  0  0
  -28.4280   -9.2632   18.6866 N   0  0  0  0  0  0  0  0  0  0  0  0
  -30.5547  -17.9865   17.8915 N   0  0  0  0  0  0  0  0  0  0  0  0
  -25.7261  -33.6085   23.1313 N   0  0  0  0  0  0  0  0  0  0  0  0
  -20.8065  -29.3121   22.5201 N   0  0  0  0  0  0  0  0  0  0  0  0
  -30.2194  -22.5678   16.1918 N   0  0  0  0  0  0  0  0  0  0  0  0
  -19.6400  -27.4588   19.6440 N   0  3  0  0  0  0  0  0  0  0  0  0
  -30.6621   -9.5449   19.1204 O   0  0  0  0  0  0  0  0  0  0  0  0
  -25.9798  -31.3632   23.6941 O   0  0  0  0  0  0  0  0  0  0  0  0
  -21.9810  -31.9105   22.7989 O   0  0  0  0  0  0  0  0  0  0  0  0
  -29.1477  -22.3077   18.2640 O   0  0  0  0  0  0  0  0  0  0  0  0
  -21.6132  -27.3220   21.6450 O   0  0  0  0  0  0  0  0  0  0  0  0
  -31.0907  -19.3460   19.6932 O   0  0  0  0  0  0  0  0  0  0  0  0
  -22.9832  -10.2702   18.0736 O   0  0  0  0  0  0  0  0  0  0  0  0
  -28.2604  -26.8109   20.2646 O   0  0  0  0  0  0  0  0  0  1  0  0
  -21.4358   -5.4519   20.2628 F   0  0  0  0  0  0  0  0  0  0  0  0
  -20.7658  -10.1057   19.7163 F   0  0  0  0  0  0  0  0  0  0  0  0
  1  2  1  0  0  0  0
  1  5  2  0  0  0  0
  2  6  2  0  0  0  0
  3  8  2  0  0  0  0
  3 18  1  0  0  0  0
  4  9  1  0  0  0  0
  4 18  2  0  0  0  0
  5 21  1  0  0  0  0
  6 23  1  0  0  0  0
  7 10  2  0  0  0  0
  7 22  1  0  0  0  0
  8 27  1  0  0  0  0
  9 27  2  0  0  0  0
 10 28  1  0  0  0  0
 11 12  2  0  0  0  0
 11 29  1  0  0  0  0
 12 30  1  0  0  0  0
 13 19  2  0  0  0  0
 13 25  1  0  0  0  0
 14 19  1  0  0  0  0
 14 26  2  0  0  0  0
 15 24  1  0  0  0  0
 15 28  2  0  0  0  0
 16 25  2  0  0  0  0
 16 26  1  0  0  0  0
 17 30  2  0  0  0  0
 17 31  1  0  0  0  0
 18 32  1  0  0  0  0
 19 34  1  0  0  0  0
 20 32  1  0  0  0  0
 20 33  2  0  0  0  0
 20 35  1  0  0  0  0
 21 23  2  0  0  0  0
 21 41  1  0  0  0  0
 22 24  2  0  0  0  0
 22 42  1  0  0  0  0
 23 50  1  0  0  0  0
 24 43  1  0  0  0  0
 25 73  1  0  0  0  0
 26 76  1  0  0  0  0
 27 84  1  0  0  0  0
 28 85  1  0  0  0  0
 29 31  2  0  0  0  0
 29 84  1  0  0  0  0
 30 86  1  0  0  0  0
 31 87  1  0  0  0  0
 32 66  2  0  0  0  0
 33 68  1  0  0  0  0
 33 71  1  0  0  0  0
 34 53  1  0  0  0  0
 34 67  2  0  0  0  0
 35 72  1  0  0  0  0
 35 78  2  0  0  0  0
 36 51  1  0  0  0  0
 36 74  1  0  0  0  0
 36 79  2  0  0  0  0
 37 63  1  0  0  0  0
 37 69  1  0  0  0  0
 37 80  2  0  0  0  0
 38 60  1  0  0  0  0
 38 76  1  0  0  0  0
 38 81  2  0  0  0  0
 39 64  1  0  0  0  0
 39 75  1  0  0  0  0
 39 82  2  0  0  0  0
 40 70  1  0  0  0  0
 40 73  1  0  0  0  0
 40 83  2  0  0  0  0
 41 44  1  0  0  0  0
 42 51  1  0  0  0  0
 43 69  1  0  0  0  0
 44 46  1  0  0  0  0
 45 47  1  0  0  0  0
 45 48  1  0  0  0  0
 46 50  1  0  0  0  0
 47 52  1  0  0  0  0
 48 70  1  0  0  0  0
 49 52  1  0  0  0  0
 49 70  1  0  0  0  0
 50 74  1  0  0  0  0
 51 69  1  0  0  0  0
 52 68  1  0  0  0  0
 54 64  1  0  0  0  0
 55 65  1  0  0  0  0
 56 65  1  0  0  0  0
 57 65  1  0  0  0  0
 58 76  1  0  0  0  0
 59 77  1  0  0  0  0
 60 61  1  0  0  0  0
 61 62  1  0  0  0  0
 62 85  1  0  0  0  0
 63 65  1  0  0  0  0
 63 75  1  0  0  0  0
 64 77  1  0  0  0  0
 66 68  1  0  0  0  0
M  CHG  1  77   1
M  ISO  4  40 100  62 101  73 100  85 101
M  END
> <Batch ID>
0114

> <Smiles>
CNC(C)C(=O)NC(C(=O)N1Cc2cc([101O:1][101CH2:1]CCC(=O)N(C)c3cc([100NH:0][100C:0](=O)N4CCCC(n5nc(-c6ccc(Oc7ccc(F)cc7F)cc6)c(C(N)=O)c5N)C4)cc(C(C)=N)c3)ccc2CC1C(=O)NC1CCCc2ccccc21)C(C)(C)C

> <Shape>
0.296

> <Color>
0.079

> <Negative vol penalty>
0.000

$$$$

  -OEChem-04052301373D

 83 91  0     1  0  0  0  0  0999 V2000
  -17.5595  -26.6251   21.7294 C   0  0  0  0  0  0  0  0  0  0  0  0
  -18.8410  -26.0838   21.7299 C   0  0  0  0  0  0  0  0  0  0  0  0
  -25.4180  -13.4363   20.1033 C   0  0  0  0  0  0  0  0  0  0  0  0
  -26.5873  -11.7878   21.4271 C   0  0  0  0  0  0  0  0  0  0  0  0
  -17.3760  -27.9796   22.0045 C   0  0  0  0  0  0  0  0  0  0  0  0
  -19.9400  -26.8969   22.0045 C   0  0  0  0  0  0  0  0  0  0  0  0
  -23.2036  -24.7330   25.2157 C   0  0  0  0  0  0  0  0  0  0  0  0
  -24.6192  -12.4315   19.5576 C   0  0  0  0  0  0  0  0  0  0  0  0
  -25.7885  -10.7830   20.8814 C   0  0  0  0  0  0  0  0  0  0  0  0
  -24.0601  -23.7634   24.6960 C   0  0  0  0  0  0  0  0  0  0  0  0
  -23.8162   -7.8287   20.1065 C   0  0  0  0  0  0  0  0  0  0  0  0
  -23.2902   -6.8734   20.9761 C   0  0  0  0  0  0  0  0  0  0  0  0
  -28.5050  -18.5637   21.1410 C   0  0  0  0  0  0  0  0  0  0  0  0
  -25.8303  -25.3980   24.5794 C   0  0  0  0  0  0  0  0  0  0  0  0
  -22.1368   -8.6143   22.1910 C   0  0  0  0  0  0  0  0  0  0  0  0
  -29.4215  -20.3155   19.2603 C   0  0  0  0  0  0  0  0  0  0  0  0
  -26.4021  -13.1145   21.0380 C   0  0  0  0  0  0  0  0  0  0  0  0
  -29.4409  -18.1337   20.2069 C   0  0  0  0  0  0  0  0  0  0  0  0
  -26.9729  -14.9042   22.7640 C   0  0  0  0  0  0  0  0  0  0  0  0
  -18.4724  -28.8077   22.2921 C   0  0  0  0  0  0  0  0  0  0  0  0
  -23.6517  -26.0473   25.4113 C   0  0  0  0  0  0  0  0  0  0  0  0
  -19.7712  -28.2640   22.2824 C   0  0  0  0  0  0  0  0  0  0  0  0
  -24.9783  -26.3818   25.1041 C   0  0  0  0  0  0  0  0  0  0  0  0
  -29.9130  -19.0201   19.2453 C   0  0  0  0  0  0  0  0  0  0  0  0
  -24.8044  -11.1048   19.9467 C   0  0  0  0  0  0  0  0  0  0  0  0
  -25.3727  -24.0965   24.3750 C   0  0  0  0  0  0  0  0  0  0  0  0
  -23.5026   -9.1769   20.2792 C   0  0  0  0  0  0  0  0  0  0  0  0
  -22.4505   -7.2661   22.0183 C   0  0  0  0  0  0  0  0  0  0  0  0
  -22.6629   -9.5696   21.3214 C   0  0  0  0  0  0  0  0  0  0  0  0
  -27.2280  -14.1519   21.6017 C   0  0  0  0  0  0  0  0  0  0  0  0
  -28.0767  -19.8795   21.0713 C   0  0  0  0  0  0  0  0  0  0  0  0
  -28.0496  -15.7505   22.8684 C   0  0  0  0  0  0  0  0  0  0  0  0
  -29.1075  -15.7059   20.1083 C   0  0  0  0  0  0  0  0  0  0  0  0
  -29.9034  -16.7526   20.2650 C   0  0  0  0  0  0  0  0  0  0  0  0
  -27.0868  -20.3836   22.0379 C   0  0  0  0  0  0  0  0  0  0  0  0
  -26.6168  -21.6400   22.0807 C   0  0  0  0  0  0  0  0  0  0  0  0
  -25.8621  -14.8432   23.6684 C   0  0  0  0  0  0  0  0  0  0  0  0
  -22.8328  -28.8921   24.2534 C   0  0  0  0  0  0  0  0  0  0  0  0
  -24.9737  -29.9651   26.4415 C   0  0  0  0  0  0  0  0  0  0  0  0
  -27.7136  -29.3212   28.3715 C   0  0  0  0  0  0  0  0  0  0  0  0
  -31.8623  -17.6454   18.4698 C   0  0  0  0  0  0  0  0  0  0  0  0
  -18.2288  -30.2758   22.5370 C   0  0  0  0  0  0  0  0  0  0  0  0
  -22.7232  -27.0751   25.9978 C   0  0  0  0  0  0  0  0  0  0  0  0
  -25.5142  -27.7736   25.3142 C   0  0  0  0  0  0  0  0  0  0  0  0
  -19.4116  -30.9894   23.1866 C   0  0  0  0  0  0  0  0  0  0  0  0
  -32.6797  -16.1148   21.7382 C   0  0  0  0  0  0  0  0  0  0  0  0
  -20.7129  -30.6130   22.4853 C   0  0  0  0  0  0  0  0  0  0  0  0
  -31.3712  -15.4305   22.1291 C   0  0  0  0  0  0  0  0  0  0  0  0
  -32.8427  -16.2022   20.2238 C   0  0  0  0  0  0  0  0  0  0  0  0
  -30.3821  -16.1829   19.9298 C   0  0  0  0  0  0  0  0  0  0  0  0
  -20.9862  -29.1085   22.6000 C   0  0  1  0  0  0  0  0  0  0  0  0
  -23.1363  -28.5076   25.6739 C   0  0  1  0  0  0  0  0  0  0  0  0
  -30.1754  -16.1187   21.4505 C   0  0  1  0  0  0  0  0  0  0  0  0
  -29.2551  -30.4058   30.0283 C   0  0  0  0  0  0  0  0  0  0  0  0
  -26.3496  -31.4707   24.1721 C   0  0  0  0  0  0  0  0  0  0  0  0
  -28.3512  -31.7331   25.6531 C   0  0  0  0  0  0  0  0  0  0  0  0
  -26.1708  -32.7488   26.3143 C   0  0  0  0  0  0  0  0  0  0  0  0
  -31.0222  -19.4767   17.0654 C   0  0  0  0  0  0  0  0  0  0  0  0
  -26.9889  -27.3844   30.4888 C   0  0  0  0  0  0  0  0  0  0  0  0
  -25.6203  -22.1097   23.0916 C   0  0  0  0  0  0  0  0  0  1  0  0
  -26.4581  -30.2400   26.4392 C   0  0  1  0  0  0  0  0  0  0  0  0
  -27.9932  -29.5778   29.8414 C   0  0  2  0  0  0  0  0  0  0  0  0
  -26.8221  -31.5223   25.6388 C   0  0  0  0  0  0  0  0  0  0  0  0
  -28.5122  -20.7697   20.1518 N   0  0  0  0  0  0  0  0  0  0  0  0
  -28.3765  -14.4907   21.0100 N   0  0  0  0  0  0  0  0  0  0  0  0
  -28.8527  -15.4651   21.8036 N   0  0  0  0  0  0  0  0  0  0  0  0
  -24.5659  -28.7448   25.8843 N   0  0  0  0  0  0  0  0  0  0  0  0
  -31.6712  -16.8047   19.5856 N   0  0  0  0  0  0  0  0  0  0  0  0
  -28.3783  -16.7036   23.7662 N   0  0  0  0  0  0  0  0  0  0  0  0
  -24.8426  -13.9160   23.4130 N   0  0  0  0  0  0  0  0  0  0  0  0
  -21.4972  -28.7864   23.9151 N   0  0  0  0  0  0  0  0  0  0  0  0
  -26.8694  -30.2722   27.8386 N   0  0  0  0  0  0  0  0  0  0  0  0
  -30.8834  -18.6333   18.2506 N   0  0  0  0  0  0  0  0  0  0  0  0
  -28.1650  -28.2885   30.5688 N   0  3  0  0  0  0  0  0  0  0  0  0
  -25.7681  -15.6002   24.6642 O   0  0  0  0  0  0  0  0  0  0  0  0
  -23.7427  -29.2590   23.5192 O   0  0  0  0  0  0  0  0  0  0  0  0
  -24.2050  -30.7991   26.9265 O   0  0  0  0  0  0  0  0  0  0  0  0
  -28.1988  -28.3741   27.7567 O   0  0  0  0  0  0  0  0  0  0  0  0
  -32.8099  -17.4917   17.6894 O   0  0  0  0  0  0  0  0  0  0  0  0
  -24.0249  -10.1241   19.4145 O   0  0  0  0  0  0  0  0  0  0  0  0
  -26.2106  -23.1521   23.8670 O   0  0  0  0  0  0  0  0  0  1  0  0
  -21.9442   -6.3484   22.8524 F   0  0  0  0  0  0  0  0  0  0  0  0
  -22.3571  -10.8632   21.4917 F   0  0  0  0  0  0  0  0  0  0  0  0
  1  2  1  0  0  0  0
  1  5  2  0  0  0  0
  2  6  2  0  0  0  0
  3  8  2  0  0  0  0
  3 17  1  0  0  0  0
  4  9  1  0  0  0  0
  4 17  2  0  0  0  0
  5 20  1  0  0  0  0
  6 22  1  0  0  0  0
  7 10  2  0  0  0  0
  7 21  1  0  0  0  0
  8 25  1  0  0  0  0
  9 25  2  0  0  0  0
 10 26  1  0  0  0  0
 11 12  2  0  0  0  0
 11 27  1  0  0  0  0
 12 28  1  0  0  0  0
 13 18  1  0  0  0  0
 13 31  2  0  0  0  0
 14 23  1  0  0  0  0
 14 26  2  0  0  0  0
 15 28  2  0  0  0  0
 15 29  1  0  0  0  0
 16 24  1  0  0  0  0
 16 64  2  0  0  0  0
 17 30  1  0  0  0  0
 18 24  2  0  0  0  0
 18 34  1  0  0  0  0
 19 30  1  0  0  0  0
 19 32  2  0  0  0  0
 19 37  1  0  0  0  0
 20 22  2  0  0  0  0
 20 42  1  0  0  0  0
 21 23  2  0  0  0  0
 21 43  1  0  0  0  0
 22 51  1  0  0  0  0
 23 44  1  0  0  0  0
 24 73  1  0  0  0  0
 25 80  1  0  0  0  0
 26 81  1  0  0  0  0
 27 29  2  0  0  0  0
 27 80  1  0  0  0  0
 28 82  1  0  0  0  0
 29 83  1  0  0  0  0
 30 65  2  0  0  0  0
 31 35  1  0  0  0  0
 31 64  1  0  0  0  0
 32 66  1  0  0  0  0
 32 69  1  0  0  0  0
 33 34  2  0  0  0  0
 35 36  2  0  0  0  0
 36 60  1  0  0  0  0
 37 70  1  0  0  0  0
 37 75  2  0  0  0  0
 38 52  1  0  0  0  0
 38 71  1  0  0  0  0
 38 76  2  0  0  0  0
 39 61  1  0  0  0  0
 39 67  1  0  0  0  0
 39 77  2  0  0  0  0
 40 62  1  0  0  0  0
 40 72  1  0  0  0  0
 40 78  2  0  0  0  0
 41 68  1  0  0  0  0
 41 73  1  0  0  0  0
 41 79  2  0  0  0  0
 42 45  1  0  0  0  0
 43 52  1  0  0  0  0
 44 67  1  0  0  0  0
 45 47  1  0  0  0  0
 46 48  1  0  0  0  0
 46 49  1  0  0  0  0
 47 51  1  0  0  0  0
 48 53  1  0  0  0  0
 49 68  1  0  0  0  0
 50 53  1  0  0  0  0
 50 68  1  0  0  0  0
 51 71  1  0  0  0  0
 52 67  1  0  0  0  0
 53 66  1  0  0  0  0
 54 62  1  0  0  0  0
 55 63  1  0  0  0  0
 56 63  1  0  0  0  0
 57 63  1  0  0  0  0
 58 73  1  0  0  0  0
 59 74  1  0  0  0  0
 60 81  1  0  0  0  0
 61 63  1  0  0  0  0
 61 72  1  0  0  0  0
 62 74  1  0  0  0  0
 65 66  1  0  0  0  0
M  CHG  1  74   1
M  ISO  4  41 100  60 101  73 100  81 101
M  END
> <Batch ID>
0114

> <Smiles>
C=Cc1cc(C=C[101CH2:1][101O:1]c2ccc3c(c2)CN(C(=O)C(NC(=O)C(C)NC)C(C)(C)C)C(C(=O)NC2CCCc4ccccc42)C3)ncc1[100N:0](C)[100C:0](=O)N1CCCC(n2nc(-c3ccc(Oc4ccc(F)cc4F)cc3)c(C(N)=O)c2N)C1

> <Shape>
0.240

> <Color>
0.066

> <Negative vol penalty>
0.000

$$$$

  -OEChem-04052301373D

 89 98  0     1  0  0  0  0  0999 V2000
  -28.9828  -37.2026   24.0802 C   0  0  0  0  0  0  0  0  0  0  0  0
  -29.4767  -35.9093   23.9432 C   0  0  0  0  0  0  0  0  0  0  0  0
  -23.2954   -9.8438   20.0049 C   0  0  0  0  0  0  0  0  0  0  0  0
  -24.6024   -9.1275   21.9064 C   0  0  0  0  0  0  0  0  0  0  0  0
  -27.6855  -37.4062   24.5484 C   0  0  0  0  0  0  0  0  0  0  0  0
  -28.6738  -34.8187   24.2754 C   0  0  0  0  0  0  0  0  0  0  0  0
  -27.1054  -29.7480   19.4052 C   0  0  0  0  0  0  0  0  0  0  0  0
  -27.3374  -20.3745   20.1045 C   0  0  0  0  0  0  0  0  0  0  0  0
  -27.6787  -19.0912   20.5314 C   0  0  0  0  0  0  0  0  0  0  0  0
  -22.1727   -9.2106   20.5379 C   0  0  0  0  0  0  0  0  0  0  0  0
  -23.4796   -8.4943   22.4395 C   0  0  0  0  0  0  0  0  0  0  0  0
  -26.9333  -28.6288   18.5903 C   0  0  0  0  0  0  0  0  0  0  0  0
  -21.7795   -5.6124   21.9543 C   0  0  0  0  0  0  0  0  0  0  0  0
  -21.9431   -4.3248   22.4649 C   0  0  0  0  0  0  0  0  0  0  0  0
  -25.3811  -19.4866   18.9992 C   0  0  0  0  0  0  0  0  0  0  0  0
  -25.5491  -27.5959   20.2829 C   0  0  0  0  0  0  0  0  0  0  0  0
  -21.2117   -5.0927   24.6358 C   0  0  0  0  0  0  0  0  0  0  0  0
  -24.5103   -9.8023   20.6891 C   0  0  0  0  0  0  0  0  0  0  0  0
  -25.7224  -18.2032   19.4261 C   0  0  0  0  0  0  0  0  0  0  0  0
  -26.2886  -10.1909   18.9020 C   0  0  0  0  0  0  0  0  0  0  0  0
  -26.8629  -36.3172   24.8775 C   0  0  0  0  0  0  0  0  0  0  0  0
  -26.4865  -29.8020   20.6572 C   0  0  0  0  0  0  0  0  0  0  0  0
  -27.3647  -35.0079   24.7498 C   0  0  0  0  0  0  0  0  0  0  0  0
  -25.7076  -28.7197   21.0983 C   0  0  0  0  0  0  0  0  0  0  0  0
  -26.1885  -20.5722   19.3385 C   0  0  0  0  0  0  0  0  0  0  0  0
  -26.8712  -18.0055   20.1922 C   0  0  0  0  0  0  0  0  0  0  0  0
  -22.2648   -8.5358   21.7553 C   0  0  0  0  0  0  0  0  0  0  0  0
  -26.1573  -27.5554   19.0282 C   0  0  0  0  0  0  0  0  0  0  0  0
  -21.3321   -6.6403   22.7845 C   0  0  0  0  0  0  0  0  0  0  0  0
  -21.6592   -4.0649   23.8056 C   0  0  0  0  0  0  0  0  0  0  0  0
  -21.0482   -6.3804   24.1252 C   0  0  0  0  0  0  0  0  0  0  0  0
  -25.6705  -10.4557   20.1387 C   0  0  0  0  0  0  0  0  0  0  0  0
  -27.3404  -11.0726   18.8480 C   0  0  0  0  0  0  0  0  0  0  0  0
  -26.3006  -24.1196   17.9884 C   0  0  0  0  0  0  0  0  0  0  0  0
  -26.8161  -22.8839   18.6461 C   0  0  0  0  0  0  0  0  0  0  0  0
  -23.9929  -22.3042   17.2806 C   0  0  0  0  0  0  0  0  0  0  0  0
  -24.6209  -16.7347   17.7996 C   0  0  0  0  0  0  0  0  0  0  0  0
  -24.8536  -17.0931   19.0526 C   0  0  0  0  0  0  0  0  0  0  0  0
  -26.4145  -25.2548   18.6905 C   0  0  0  0  0  0  0  0  0  1  0  0
  -25.9430   -9.2336   17.8921 C   0  0  0  0  0  0  0  0  0  0  0  0
  -25.8701  -31.7669   23.7933 C   0  0  0  0  0  0  0  0  0  0  0  0
  -23.2153  -30.4230   23.0475 C   0  0  0  0  0  0  0  0  0  0  0  0
  -20.3922  -29.1116   21.6519 C   0  0  0  0  0  0  0  0  0  0  0  0
  -28.3574  -16.3750   21.4083 C   0  0  0  0  0  0  0  0  0  0  0  0
  -25.4838  -36.5885   25.4245 C   0  0  0  0  0  0  0  0  0  0  0  0
  -26.6944  -30.9611   21.5938 C   0  0  0  0  0  0  0  0  0  0  0  0
  -25.0892  -28.8069   22.4669 C   0  0  0  0  0  0  0  0  0  0  0  0
  -25.6939  -24.0304   16.6134 C   0  0  0  0  0  0  0  0  0  0  0  0
  -25.0500  -22.6864   16.2662 C   0  0  0  0  0  0  0  0  0  0  0  0
  -24.4009  -22.2100   18.7386 C   0  0  0  0  0  0  0  0  0  0  0  0
  -24.5676  -35.3677   25.3993 C   0  0  0  0  0  0  0  0  0  0  0  0
  -30.3779  -13.4561   21.6812 C   0  0  0  0  0  0  0  0  0  0  0  0
  -25.2965  -34.1420   25.9408 C   0  0  0  0  0  0  0  0  0  0  0  0
  -29.4583  -12.3321   21.1983 C   0  0  0  0  0  0  0  0  0  0  0  0
  -29.6125  -14.5139   22.4742 C   0  0  0  0  0  0  0  0  0  0  0  0
  -27.5168  -13.9462   21.3101 C   0  0  0  0  0  0  0  0  0  0  0  0
  -26.5157  -33.7985   25.0765 C   0  0  1  0  0  0  0  0  0  0  0  0
  -25.4478  -31.2878   22.4355 C   0  0  1  0  0  0  0  0  0  0  0  0
  -28.2310  -12.8900   20.4511 C   0  0  2  0  0  0  0  0  0  0  0  0
  -17.9225  -28.8926   22.0388 C   0  0  0  0  0  0  0  0  0  0  0  0
  -23.7386  -28.2729   25.1468 C   0  0  0  0  0  0  0  0  0  0  0  0
  -21.3975  -27.4586   24.7937 C   0  0  0  0  0  0  0  0  0  0  0  0
  -21.7974  -29.7686   25.6462 C   0  0  0  0  0  0  0  0  0  0  0  0
  -19.7546  -30.5794   19.1623 C   0  0  0  0  0  0  0  0  0  0  0  0
  -22.3045  -29.2350   23.2275 C   0  0  1  0  0  0  0  0  0  0  0  0
  -19.0243  -29.7151   21.3891 C   0  0  2  0  0  0  0  0  0  0  0  0
  -22.3277  -28.6854   24.6817 C   0  0  0  0  0  0  0  0  0  0  0  0
  -26.2789  -11.4294   20.8213 N   0  0  0  0  0  0  0  0  0  0  0  0
  -27.2904  -11.7840   20.0106 N   0  0  0  0  0  0  0  0  0  0  0  0
  -25.8350  -21.9021   18.8972 N   0  0  0  0  0  0  0  0  0  0  0  0
  -24.5409  -30.1546   22.6854 N   0  0  0  0  0  0  0  0  0  0  0  0
  -28.4665  -14.9994   21.7023 N   0  0  0  0  0  0  0  0  0  0  0  0
  -28.2939  -11.3010   17.9200 N   0  0  0  0  0  0  0  0  0  0  0  0
  -24.8326   -8.4061   18.1080 N   0  0  0  0  0  0  0  0  0  0  0  0
  -27.2436  -16.7141   20.6408 N   0  0  0  0  0  0  0  0  0  0  0  0
  -26.1019  -33.1274   23.8629 N   0  0  0  0  0  0  0  0  0  0  0  0
  -20.9856  -29.6588   22.7698 N   0  0  0  0  0  0  0  0  0  0  0  0
  -18.7600  -29.7808   19.9239 N   0  3  0  0  0  0  0  0  0  0  0  0
  -28.0291  -22.7953   18.8261 O   0  0  0  0  0  0  0  0  0  0  0  0
  -22.8114  -22.1897   16.9500 O   0  0  0  0  0  0  0  0  0  0  0  0
  -26.6092   -9.1042   16.8372 O   0  0  0  0  0  0  0  0  0  0  0  0
  -25.9768  -30.9626   24.7116 O   0  0  0  0  0  0  0  0  0  0  0  0
  -22.7677  -31.5590   23.2279 O   0  0  0  0  0  0  0  0  0  0  0  0
  -20.8835  -28.2392   20.9391 O   0  0  0  0  0  0  0  0  0  0  0  0
  -29.2053  -17.1883   21.7848 O   0  0  0  0  0  0  0  0  0  0  0  0
  -21.1695   -7.9180   22.2758 O   0  0  0  0  0  0  0  0  0  0  0  0
  -25.9898  -26.4678   18.2258 O   0  0  0  0  0  0  0  0  0  1  0  0
  -21.8149   -2.8279   24.2955 F   0  0  0  0  0  0  0  0  0  0  0  0
  -20.6169   -7.3635   24.9272 F   0  0  0  0  0  0  0  0  0  0  0  0
  1  2  1  0  0  0  0
  1  5  2  0  0  0  0
  2  6  2  0  0  0  0
  3 10  2  0  0  0  0
  3 18  1  0  0  0  0
  4 11  1  0  0  0  0
  4 18  2  0  0  0  0
  5 21  1  0  0  0  0
  6 23  1  0  0  0  0
  7 12  2  0  0  0  0
  7 22  1  0  0  0  0
  8  9  2  0  0  0  0
  8 25  1  0  0  0  0
  9 26  1  0  0  0  0
 10 27  1  0  0  0  0
 11 27  2  0  0  0  0
 12 28  1  0  0  0  0
 13 14  2  0  0  0  0
 13 29  1  0  0  0  0
 14 30  1  0  0  0  0
 15 19  1  0  0  0  0
 15 25  2  0  0  0  0
 16 24  1  0  0  0  0
 16 28  2  0  0  0  0
 17 30  2  0  0  0  0
 17 31  1  0  0  0  0
 18 32  1  0  0  0  0
 19 26  2  0  0  0  0
 19 38  1  0  0  0  0
 20 32  1  0  0  0  0
 20 33  2  0  0  0  0
 20 40  1  0  0  0  0
 21 23  2  0  0  0  0
 21 45  1  0  0  0  0
 22 24  2  0  0  0  0
 22 46  1  0  0  0  0
 23 57  1  0  0  0  0
 24 47  1  0  0  0  0
 25 70  1  0  0  0  0
 26 75  1  0  0  0  0
 27 86  1  0  0  0  0
 28 87  1  0  0  0  0
 29 31  2  0  0  0  0
 29 86  1  0  0  0  0
 30 88  1  0  0  0  0
 31 89  1  0  0  0  0
 32 68  2  0  0  0  0
 33 69  1  0  0  0  0
 33 73  1  0  0  0  0
 34 35  1  0  0  0  0
 34 39  2  0  0  0  0
 34 48  1  0  0  0  0
 35 70  1  0  0  0  0
 35 79  2  0  0  0  0
 36 49  1  0  0  0  0
 36 50  1  0  0  0  0
 36 80  2  0  0  0  0
 37 38  2  0  0  0  0
 39 87  1  0  0  0  0
 40 74  1  0  0  0  0
 40 81  2  0  0  0  0
 41 58  1  0  0  0  0
 41 76  1  0  0  0  0
 41 82  2  0  0  0  0
 42 65  1  0  0  0  0
 42 71  1  0  0  0  0
 42 83  2  0  0  0  0
 43 66  1  0  0  0  0
 43 77  1  0  0  0  0
 43 84  2  0  0  0  0
 44 72  1  0  0  0  0
 44 75  1  0  0  0  0
 44 85  2  0  0  0  0
 45 51  1  0  0  0  0
 46 58  1  0  0  0  0
 47 71  1  0  0  0  0
 48 49  1  0  0  0  0
 50 70  1  0  0  0  0
 51 53  1  0  0  0  0
 52 54  1  0  0  0  0
 52 55  1  0  0  0  0
 53 57  1  0  0  0  0
 54 59  1  0  0  0  0
 55 72  1  0  0  0  0
 56 59  1  0  0  0  0
 56 72  1  0  0  0  0
 57 76  1  0  0  0  0
 58 71  1  0  0  0  0
 59 69  1  0  0  0  0
 60 66  1  0  0  0  0
 61 67  1  0  0  0  0
 62 67  1  0  0  0  0
 63 67  1  0  0  0  0
 64 78  1  0  0  0  0
 65 67  1  0  0  0  0
 65 77  1  0  0  0  0
 66 78  1  0  0  0  0
 68 69  1  0  0  0  0
M  CHG  1  78   1
M  ISO  4  39 101  44 100  75 100  87 101
M  END
> <Batch ID>
0114

> <Smiles>
C=Cc1cc(N2CC(=O)CCC(=[101CH:1][101O:1]c3ccc4c(c3)CN(C(=O)C(NC(=O)C(C)NC)C(C)(C)C)C(C(=O)NC3CCCc5ccccc53)C4)C2=O)ccc1[100NH:0][100C:0](=O)N1CCCC(n2nc(-c3ccc(Oc4ccc(F)cc4F)cc3)c(C(N)=O)c2N)C1

> <Shape>
0.301

> <Color>
0.102

> <Negative vol penalty>
0.000

$$$$

  -OEChem-04052301373D

 88 96  0     1  0  0  0  0  0999 V2000
  -27.8983  -32.2455   27.5677 C   0  0  0  0  0  0  0  0  0  0  0  0
  -28.1180  -31.3187   26.5538 C   0  0  0  0  0  0  0  0  0  0  0  0
  -22.6936   -9.2442   20.7630 C   0  0  0  0  0  0  0  0  0  0  0  0
  -24.5290   -7.9332   21.6287 C   0  0  0  0  0  0  0  0  0  0  0  0
  -26.5968  -32.5392   27.9722 C   0  0  0  0  0  0  0  0  0  0  0  0
  -27.0361  -30.6841   25.9444 C   0  0  0  0  0  0  0  0  0  0  0  0
  -27.4660  -30.5251   20.9011 C   0  0  0  0  0  0  0  0  0  0  0  0
  -22.0311   -8.0734   20.3944 C   0  0  0  0  0  0  0  0  0  0  0  0
  -23.8664   -6.7623   21.2602 C   0  0  0  0  0  0  0  0  0  0  0  0
  -28.3222  -29.5643   20.3650 C   0  0  0  0  0  0  0  0  0  0  0  0
  -21.3498   -4.8464   22.4503 C   0  0  0  0  0  0  0  0  0  0  0  0
  -21.3176   -3.8031   23.3755 C   0  0  0  0  0  0  0  0  0  0  0  0
  -30.2076  -19.0484   18.1645 C   0  0  0  0  0  0  0  0  0  0  0  0
  -29.3932  -20.7173   19.7099 C   0  0  0  0  0  0  0  0  0  0  0  0
  -26.4260  -28.1550   19.8779 C   0  0  0  0  0  0  0  0  0  0  0  0
  -22.4647   -2.3725   21.8023 C   0  0  0  0  0  0  0  0  0  0  0  0
  -23.9426   -9.1741   21.3801 C   0  0  0  0  0  0  0  0  0  0  0  0
  -29.3543  -19.4180   19.2041 C   0  0  0  0  0  0  0  0  0  0  0  0
  -31.1000  -19.9782   17.6307 C   0  0  0  0  0  0  0  0  0  0  0  0
  -24.5335  -11.0628   22.9898 C   0  0  0  0  0  0  0  0  0  0  0  0
  -25.4980  -31.9151   27.3609 C   0  0  0  0  0  0  0  0  0  0  0  0
  -26.0819  -30.3031   20.9395 C   0  0  0  0  0  0  0  0  0  0  0  0
  -25.7187  -30.9687   26.3420 C   0  0  0  0  0  0  0  0  0  0  0  0
  -25.5541  -29.1157   20.4126 C   0  0  0  0  0  0  0  0  0  0  0  0
  -22.6175   -6.8324   20.6430 C   0  0  0  0  0  0  0  0  0  0  0  0
  -27.8026  -28.3777   19.8560 C   0  0  0  0  0  0  0  0  0  0  0  0
  -21.9393   -4.6527   21.2010 C   0  0  0  0  0  0  0  0  0  0  0  0
  -30.2856  -21.6471   19.1762 C   0  0  0  0  0  0  0  0  0  0  0  0
  -31.1390  -21.2775   18.1366 C   0  0  0  0  0  0  0  0  0  0  0  0
  -21.8751   -2.5662   23.0516 C   0  0  0  0  0  0  0  0  0  0  0  0
  -22.4968   -3.4158   20.8771 C   0  0  0  0  0  0  0  0  0  0  0  0
  -24.6277  -10.3832   21.7605 C   0  0  0  0  0  0  0  0  0  0  0  0
  -25.3714  -12.1422   22.8504 C   0  0  0  0  0  0  0  0  0  0  0  0
  -31.5460  -19.1528   15.3647 C   0  0  0  0  0  0  0  0  0  0  0  0
  -28.4257  -18.4486   19.7641 C   0  0  0  0  0  0  0  0  0  0  0  0
  -31.9807  -19.5670   16.5453 C   0  0  0  0  0  0  0  0  0  0  0  0
  -28.0140  -17.3161   19.1554 C   0  0  0  0  0  0  0  0  0  0  0  0
  -23.7581  -10.7467   24.1536 C   0  0  0  0  0  0  0  0  0  0  0  0
  -27.0717  -16.4247   19.8613 C   0  0  0  0  0  0  0  0  0  0  0  0
  -23.9131  -30.0558   23.2501 C   0  0  0  0  0  0  0  0  0  0  0  0
  -29.4268  -25.1568   19.5123 C   0  0  0  0  0  0  0  0  0  0  0  0
  -21.8388  -29.9556   20.7583 C   0  0  0  0  0  0  0  0  0  0  0  0
  -21.3077  -29.2766   17.4562 C   0  0  0  0  0  0  0  0  0  0  0  0
  -24.1116  -32.2298   27.8644 C   0  0  0  0  0  0  0  0  0  0  0  0
  -25.1694  -31.3610   21.4968 C   0  0  0  0  0  0  0  0  0  0  0  0
  -24.0738  -28.8377   20.4117 C   0  0  0  0  0  0  0  0  0  0  0  0
  -23.0031  -31.7913   26.9110 C   0  0  0  0  0  0  0  0  0  0  0  0
  -28.7925  -13.2361   19.3106 C   0  0  0  0  0  0  0  0  0  0  0  0
  -23.2529  -30.3688   26.4200 C   0  0  0  0  0  0  0  0  0  0  0  0
  -27.8186  -12.2599   19.9652 C   0  0  0  0  0  0  0  0  0  0  0  0
  -28.0694  -14.4100   18.6522 C   0  0  0  0  0  0  0  0  0  0  0  0
  -26.1744  -14.1592   20.2291 C   0  0  0  0  0  0  0  0  0  0  0  0
  -24.5699  -30.2779   25.6397 C   0  0  1  0  0  0  0  0  0  0  0  0
  -23.8225  -30.8085   21.9529 C   0  0  1  0  0  0  0  0  0  0  0  0
  -26.8831  -12.9947   20.9384 C   0  0  1  0  0  0  0  0  0  0  0  0
  -32.6337  -23.9515   16.1213 C   0  0  0  0  0  0  0  0  0  0  0  0
  -19.5000  -29.2534   15.7158 C   0  0  0  0  0  0  0  0  0  0  0  0
  -20.7318  -27.3722   21.9459 C   0  0  0  0  0  0  0  0  0  0  0  0
  -19.6384  -26.9094   19.7417 C   0  0  0  0  0  0  0  0  0  0  0  0
  -18.9976  -28.9351   21.0489 C   0  0  0  0  0  0  0  0  0  0  0  0
  -22.7136  -31.2885   15.8025 C   0  0  0  0  0  0  0  0  0  0  0  0
  -28.2246  -26.0754   19.4353 C   0  0  0  0  0  0  0  0  0  1  0  0
  -29.1216  -23.6759   19.6061 C   0  0  0  0  0  0  0  0  0  0  0  0
  -31.5409  -22.9890   16.5350 C   0  0  0  0  0  0  0  0  0  0  0  0
  -21.2492  -28.8615   19.9013 C   0  0  1  0  0  0  0  0  0  0  0  0
  -20.6087  -30.0672   16.3650 C   0  0  2  0  0  0  0  0  0  0  0  0
  -20.1824  -28.0236   20.6611 C   0  0  0  0  0  0  0  0  0  0  0  0
  -25.4596  -10.9809   20.9033 N   0  0  0  0  0  0  0  0  0  0  0  0
  -25.8957  -12.0474   21.5949 N   0  0  0  0  0  0  0  0  0  0  0  0
  -27.1374  -15.0601   19.5858 N   0  0  0  0  0  0  0  0  0  0  0  0
  -23.2232  -29.9001   20.9731 N   0  0  0  0  0  0  0  0  0  0  0  0
  -25.7033  -13.1538   23.6805 N   0  0  0  0  0  0  0  0  0  0  0  0
  -22.9510   -9.6011   24.1277 N   0  0  0  0  0  0  0  0  0  0  0  0
  -24.4026  -30.8056   24.3026 N   0  0  0  0  0  0  0  0  0  0  0  0
  -20.7498  -29.5123   18.6949 N   0  0  0  0  0  0  0  0  0  0  0  0
  -21.5817  -30.4632   15.3080 N   0  3  0  0  0  0  0  0  0  0  0  0
  -23.7677  -11.4679   25.1799 O   0  0  0  0  0  0  0  0  0  0  0  0
  -26.2796  -16.9443   20.6495 O   0  0  0  0  0  0  0  0  0  0  0  0
  -23.5634  -28.8821   23.2934 O   0  0  0  0  0  0  0  0  0  0  0  0
  -30.5792  -25.5868   19.4999 O   0  0  0  0  0  0  0  0  0  0  0  0
  -21.0994  -30.8314   21.2141 O   0  0  0  0  0  0  0  0  0  0  0  0
  -22.2517  -28.5223   17.2316 O   0  0  0  0  0  0  0  0  0  0  0  0
  -21.9712   -5.6897   20.2838 O   0  0  0  0  0  0  0  0  0  0  0  0
  -28.6361  -27.4379   19.3327 O   0  0  0  0  0  0  0  0  0  1  0  0
  -30.3140  -22.9239   19.6852 O   0  0  0  0  0  0  0  0  0  0  0  0
  -32.0073  -22.1976   17.6245 O   0  0  0  0  0  0  0  0  0  0  0  0
  -21.8455   -1.5649   23.9408 F   0  0  0  0  0  0  0  0  0  0  0  0
  -23.0656   -3.2242   19.6789 F   0  0  0  0  0  0  0  0  0  0  0  0
  1  2  1  0  0  0  0
  1  5  2  0  0  0  0
  2  6  2  0  0  0  0
  3  8  2  0  0  0  0
  3 17  1  0  0  0  0
  4  9  1  0  0  0  0
  4 17  2  0  0  0  0
  5 21  1  0  0  0  0
  6 23  1  0  0  0  0
  7 10  2  0  0  0  0
  7 22  1  0  0  0  0
  8 25  1  0  0  0  0
  9 25  2  0  0  0  0
 10 26  1  0  0  0  0
 11 12  2  0  0  0  0
 11 27  1  0  0  0  0
 12 30  1  0  0  0  0
 13 18  2  0  0  0  0
 13 19  1  0  0  0  0
 14 18  1  0  0  0  0
 14 28  2  0  0  0  0
 15 24  1  0  0  0  0
 15 26  2  0  0  0  0
 16 30  2  0  0  0  0
 16 31  1  0  0  0  0
 17 32  1  0  0  0  0
 18 35  1  0  0  0  0
 19 29  2  0  0  0  0
 19 36  1  0  0  0  0
 20 32  1  0  0  0  0
 20 33  2  0  0  0  0
 20 38  1  0  0  0  0
 21 23  2  0  0  0  0
 21 44  1  0  0  0  0
 22 24  2  0  0  0  0
 22 45  1  0  0  0  0
 23 53  1  0  0  0  0
 24 46  1  0  0  0  0
 25 83  1  0  0  0  0
 26 84  1  0  0  0  0
 27 31  2  0  0  0  0
 27 83  1  0  0  0  0
 28 29  1  0  0  0  0
 28 85  1  0  0  0  0
 29 86  1  0  0  0  0
 30 87  1  0  0  0  0
 31 88  1  0  0  0  0
 32 68  2  0  0  0  0
 33 69  1  0  0  0  0
 33 72  1  0  0  0  0
 34 36  2  0  0  0  0
 35 37  2  0  0  0  0
 37 39  1  0  0  0  0
 38 73  1  0  0  0  0
 38 77  2  0  0  0  0
 39 70  1  0  0  0  0
 39 78  2  0  0  0  0
 40 54  1  0  0  0  0
 40 74  1  0  0  0  0
 40 79  2  0  0  0  0
 41 62  1  0  0  0  0
 41 63  1  0  0  0  0
 41 80  2  0  0  0  0
 42 65  1  0  0  0  0
 42 71  1  0  0  0  0
 42 81  2  0  0  0  0
 43 66  1  0  0  0  0
 43 75  1  0  0  0  0
 43 82  2  0  0  0  0
 44 47  1  0  0  0  0
 45 54  1  0  0  0  0
 46 71  1  0  0  0  0
 47 49  1  0  0  0  0
 48 50  1  0  0  0  0
 48 51  1  0  0  0  0
 49 53  1  0  0  0  0
 50 55  1  0  0  0  0
 51 70  1  0  0  0  0
 52 55  1  0  0  0  0
 52 70  1  0  0  0  0
 53 74  1  0  0  0  0
 54 71  1  0  0  0  0
 55 69  1  0  0  0  0
 56 64  1  0  0  0  0
 57 66  1  0  0  0  0
 58 67  1  0  0  0  0
 59 67  1  0  0  0  0
 60 67  1  0  0  0  0
 61 76  1  0  0  0  0
 62 84  1  0  0  0  0
 63 85  1  0  0  0  0
 64 86  1  0  0  0  0
 65 67  1  0  0  0  0
 65 75  1  0  0  0  0
 66 76  1  0  0  0  0
 68 69  1  0  0  0  0
M  CHG  1  76   1
M  ISO  4  37 100  39 100  62 101  84 101
M  END
> <Batch ID>
0114

> <Smiles>
C=Cc1cc(C=[100CH:0][100C:0](=O)N2CCCC(n3nc(-c4ccc(Oc5ccc(F)cc5F)cc4)c(C(N)=O)c3N)C2)cc(OCC(=O)[101CH2:1][101O:1]c2ccc3c(c2)CN(C(=O)C(NC(=O)C(C)NC)C(C)(C)C)C(C(=O)NC2CCCc4ccccc42)C3)c1OCC

> <Shape>
0.297

> <Color>
0.081

> <Negative vol penalty>
0.000

$$$$

  -OEChem-04052301373D

 85 93  0     1  0  0  0  0  0999 V2000
  -19.6523  -26.7107   20.5767 C   0  0  0  0  0  0  0  0  0  0  0  0
  -19.6374  -27.6819   19.8705 C   0  0  0  0  0  0  0  0  0  0  0  0
  -32.4029  -13.9730   19.6892 C   0  0  0  0  0  0  0  0  0  0  0  0
  -31.6990  -15.1709   19.6186 C   0  0  0  0  0  0  0  0  0  0  0  0
  -27.0612  -26.8526   20.9681 C   0  0  0  0  0  0  0  0  0  0  0  0
  -28.0738  -28.6943   19.7765 C   0  0  0  0  0  0  0  0  0  0  0  0
  -31.7129  -12.7634   19.7579 C   0  0  0  0  0  0  0  0  0  0  0  0
  -30.3046  -15.1598   19.6157 C   0  0  0  0  0  0  0  0  0  0  0  0
  -26.5846  -19.3158   22.1445 C   0  0  0  0  0  0  0  0  0  0  0  0
  -28.1264  -26.0299   20.6018 C   0  0  0  0  0  0  0  0  0  0  0  0
  -29.1390  -27.8716   19.4102 C   0  0  0  0  0  0  0  0  0  0  0  0
  -25.8901  -20.4008   21.6113 C   0  0  0  0  0  0  0  0  0  0  0  0
  -29.1148  -24.3040   17.8689 C   0  0  0  0  0  0  0  0  0  0  0  0
  -28.8139  -23.0237   17.4043 C   0  0  0  0  0  0  0  0  0  0  0  0
  -23.9172  -19.0282   21.4037 C   0  0  0  0  0  0  0  0  0  0  0  0
  -30.0989  -22.0657   19.2121 C   0  0  0  0  0  0  0  0  0  0  0  0
  -19.6704  -25.5540   21.4172 C   0  0  0  0  0  0  0  0  0  0  0  0
  -27.0348  -28.1848   20.5554 C   0  0  0  0  0  0  0  0  0  0  0  0
  -18.6068  -25.2038   22.2332 C   0  0  0  0  0  0  0  0  0  0  0  0
  -25.8359  -29.8358   22.0865 C   0  0  0  0  0  0  0  0  0  0  0  0
  -30.3094  -12.7380   19.7655 C   0  0  0  0  0  0  0  0  0  0  0  0
  -25.9527  -18.0738   22.3014 C   0  0  0  0  0  0  0  0  0  0  0  0
  -29.5952  -13.9487   19.6832 C   0  0  0  0  0  0  0  0  0  0  0  0
  -24.6052  -17.9297   21.9415 C   0  0  0  0  0  0  0  0  0  0  0  0
  -18.7320  -24.0568   23.0091 C   0  0  0  0  0  0  0  0  0  0  0  0
  -19.9005  -23.3058   22.9463 C   0  0  0  0  0  0  0  0  0  0  0  0
  -29.1653  -26.5394   19.8229 C   0  0  0  0  0  0  0  0  0  0  0  0
  -24.5570  -20.2563   21.2381 C   0  0  0  0  0  0  0  0  0  0  0  0
  -29.9078  -24.4652   19.0051 C   0  0  0  0  0  0  0  0  0  0  0  0
  -29.3059  -21.9046   18.0759 C   0  0  0  0  0  0  0  0  0  0  0  0
  -30.3998  -23.3461   19.6767 C   0  0  0  0  0  0  0  0  0  0  0  0
  -25.9345  -29.0349   20.9329 C   0  0  0  0  0  0  0  0  0  0  0  0
  -20.9061  -23.7409   22.0983 C   0  0  0  0  0  0  0  0  0  0  0  0
  -24.6083  -30.4425   21.9794 C   0  0  0  0  0  0  0  0  0  0  0  0
  -16.3361  -25.7890   21.5144 C   0  0  0  0  0  0  0  0  0  0  0  0
  -17.3900  -26.0068   22.2849 C   0  0  0  0  0  0  0  0  0  0  0  0
  -19.6193  -28.8514   19.0201 C   0  0  0  0  0  0  0  0  0  0  0  0
  -26.7704  -30.0152   23.1589 C   0  0  0  0  0  0  0  0  0  0  0  0
  -26.4150  -15.1573   21.1249 C   0  0  0  0  0  0  0  0  0  0  0  0
  -24.0659  -14.3644   23.2165 C   0  0  0  0  0  0  0  0  0  0  0  0
  -21.3701  -15.3576   25.0585 C   0  0  0  0  0  0  0  0  0  0  0  0
  -29.6076  -11.4033   19.7934 C   0  0  0  0  0  0  0  0  0  0  0  0
  -26.7080  -16.9205   22.9029 C   0  0  0  0  0  0  0  0  0  0  0  0
  -23.8752  -16.6229   22.1085 C   0  0  0  0  0  0  0  0  0  0  0  0
  -28.1297  -11.4999   20.1633 C   0  0  0  0  0  0  0  0  0  0  0  0
  -21.4319  -31.9465   18.7457 C   0  0  0  0  0  0  0  0  0  0  0  0
  -27.4545  -12.6187   19.3764 C   0  0  0  0  0  0  0  0  0  0  0  0
  -22.7961  -31.6097   19.3467 C   0  0  0  0  0  0  0  0  0  0  0  0
  -20.8379  -30.7531   18.0045 C   0  0  0  0  0  0  0  0  0  0  0  0
  -22.0979  -29.1751   19.4441 C   0  0  0  0  0  0  0  0  0  0  0  0
  -28.0823  -13.9792   19.7026 C   0  0  1  0  0  0  0  0  0  0  0  0
  -26.1141  -15.5630   22.5400 C   0  0  1  0  0  0  0  0  0  0  0  0
  -22.7164  -30.3481   20.2245 C   0  0  1  0  0  0  0  0  0  0  0  0
  -17.6219  -23.6197   23.9138 C   0  0  0  0  0  0  0  0  0  0  0  0
  -20.0720  -22.0699   23.7640 C   0  0  0  0  0  0  0  0  0  0  0  0
  -19.6326  -14.4766   26.6404 C   0  0  0  0  0  0  0  0  0  0  0  0
  -22.5822  -13.0909   20.8741 C   0  0  0  0  0  0  0  0  0  0  0  0
  -20.5092  -13.0900   22.2780 C   0  0  0  0  0  0  0  0  0  0  0  0
  -22.5024  -11.7747   22.9991 C   0  0  0  0  0  0  0  0  0  0  0  0
  -22.2744  -17.1498   27.2331 C   0  0  0  0  0  0  0  0  0  0  0  0
  -24.2698  -22.6154   21.1492 C   0  0  0  0  0  0  0  0  0  1  0  0
  -23.0628  -23.5328   21.1179 C   0  0  0  0  0  0  0  0  0  0  0  0
  -22.5590  -14.2974   23.1566 C   0  0  1  0  0  0  0  0  0  0  0  0
  -21.0026  -15.1243   26.5128 C   0  0  2  0  0  0  0  0  0  0  0  0
  -22.0522  -13.0875   22.3219 C   0  0  0  0  0  0  0  0  0  0  0  0
  -20.8210  -24.8497   21.3294 N   0  0  0  0  0  0  0  0  0  0  0  0
  -24.8555  -29.1226   20.1506 N   0  0  0  0  0  0  0  0  0  0  0  0
  -24.0672  -29.9857   20.8137 N   0  0  0  0  0  0  0  0  0  0  0  0
  -20.8092  -29.5634   18.8552 N   0  0  0  0  0  0  0  0  0  0  0  0
  -24.6586  -15.5231   22.6952 N   0  0  0  0  0  0  0  0  0  0  0  0
  -23.9498  -31.3168   22.7695 N   0  0  0  0  0  0  0  0  0  0  0  0
  -27.9842  -29.3162   23.1115 N   0  0  0  0  0  0  0  0  0  0  0  0
  -27.6018  -14.4648   20.9784 N   0  0  0  0  0  0  0  0  0  0  0  0
  -22.0947  -14.3054   24.5397 N   0  0  0  0  0  0  0  0  0  0  0  0
  -20.9828  -16.4161   27.2556 N   0  3  0  0  0  0  0  0  0  0  0  0
  -18.5465  -29.1385   18.4980 O   0  0  0  0  0  0  0  0  0  0  0  0
  -26.5291  -30.7604   24.1387 O   0  0  0  0  0  0  0  0  0  0  0  0
  -25.6281  -15.4497   20.2322 O   0  0  0  0  0  0  0  0  0  0  0  0
  -24.6936  -13.4263   23.7142 O   0  0  0  0  0  0  0  0  0  0  0  0
  -21.0434  -16.3700   24.4430 O   0  0  0  0  0  0  0  0  0  0  0  0
  -30.2050  -25.7370   19.4655 O   0  0  0  0  0  0  0  0  0  0  0  0
  -23.8770  -21.3135   20.7168 O   0  0  0  0  0  0  0  0  0  1  0  0
  -22.0735  -23.0295   22.0074 O   0  0  0  0  0  0  0  0  0  0  0  0
  -29.0156  -20.6751   17.6305 F   0  0  0  0  0  0  0  0  0  0  0  0
  -31.1611  -23.4946   20.7694 F   0  0  0  0  0  0  0  0  0  0  0  0
  1  2  3  0  0  0  0
  1 17  1  0  0  0  0
  2 37  1  0  0  0  0
  3  4  1  0  0  0  0
  3  7  2  0  0  0  0
  4  8  2  0  0  0  0
  5 10  2  0  0  0  0
  5 18  1  0  0  0  0
  6 11  1  0  0  0  0
  6 18  2  0  0  0  0
  7 21  1  0  0  0  0
  8 23  1  0  0  0  0
  9 12  2  0  0  0  0
  9 22  1  0  0  0  0
 10 27  1  0  0  0  0
 11 27  2  0  0  0  0
 12 28  1  0  0  0  0
 13 14  2  0  0  0  0
 13 29  1  0  0  0  0
 14 30  1  0  0  0  0
 15 24  1  0  0  0  0
 15 28  2  0  0  0  0
 16 30  2  0  0  0  0
 16 31  1  0  0  0  0
 17 19  1  0  0  0  0
 17 66  2  0  0  0  0
 18 32  1  0  0  0  0
 19 25  2  0  0  0  0
 19 36  1  0  0  0  0
 20 32  1  0  0  0  0
 20 34  2  0  0  0  0
 20 38  1  0  0  0  0
 21 23  2  0  0  0  0
 21 42  1  0  0  0  0
 22 24  2  0  0  0  0
 22 43  1  0  0  0  0
 23 51  1  0  0  0  0
 24 44  1  0  0  0  0
 25 26  1  0  0  0  0
 25 54  1  0  0  0  0
 26 33  2  0  0  0  0
 26 55  1  0  0  0  0
 27 81  1  0  0  0  0
 28 82  1  0  0  0  0
 29 31  2  0  0  0  0
 29 81  1  0  0  0  0
 30 84  1  0  0  0  0
 31 85  1  0  0  0  0
 32 67  2  0  0  0  0
 33 66  1  0  0  0  0
 33 83  1  0  0  0  0
 34 68  1  0  0  0  0
 34 71  1  0  0  0  0
 35 36  2  0  0  0  0
 37 69  1  0  0  0  0
 37 76  2  0  0  0  0
 38 72  1  0  0  0  0
 38 77  2  0  0  0  0
 39 52  1  0  0  0  0
 39 73  1  0  0  0  0
 39 78  2  0  0  0  0
 40 63  1  0  0  0  0
 40 70  1  0  0  0  0
 40 79  2  0  0  0  0
 41 64  1  0  0  0  0
 41 74  1  0  0  0  0
 41 80  2  0  0  0  0
 42 45  1  0  0  0  0
 43 52  1  0  0  0  0
 44 70  1  0  0  0  0
 45 47  1  0  0  0  0
 46 48  1  0  0  0  0
 46 49  1  0  0  0  0
 47 51  1  0  0  0  0
 48 53  1  0  0  0  0
 49 69  1  0  0  0  0
 50 53  1  0  0  0  0
 50 69  1  0  0  0  0
 51 73  1  0  0  0  0
 52 70  1  0  0  0  0
 53 68  1  0  0  0  0
 56 64  1  0  0  0  0
 57 65  1  0  0  0  0
 58 65  1  0  0  0  0
 59 65  1  0  0  0  0
 60 75  1  0  0  0  0
 61 62  1  0  0  0  0
 61 82  1  0  0  0  0
 62 83  1  0  0  0  0
 63 65  1  0  0  0  0
 63 74  1  0  0  0  0
 64 75  1  0  0  0  0
 67 68  1  0  0  0  0
M  CHG  1  75   1
M  ISO  4   2 100  37 100  61 101  82 101
M  END
> <Batch ID>
0114

> <Smiles>
C=Cc1c(C#[100C:0][100C:0](=O)N2CCCC(n3nc(-c4ccc(Oc5ccc(F)cc5F)cc4)c(C(N)=O)c3N)C2)nc(OC[101CH2:1][101O:1]c2ccc3c(c2)CN(C(=O)C(NC(=O)C(C)NC)C(C)(C)C)C(C(=O)NC2CCCc4ccccc42)C3)c(C)c1C

> <Shape>
0.230

> <Color>
0.063

> <Negative vol penalty>
0.000

$$$$

  -OEChem-04052301373D

 86 94  0     1  0  0  0  0  0999 V2000
  -32.1437  -27.8307   21.6963 C   0  0  0  0  0  0  0  0  0  0  0  0
  -25.6478  -10.8043   20.8587 C   0  0  0  0  0  0  0  0  0  0  0  0
  -26.4089  -11.8426   20.3314 C   0  0  0  0  0  0  0  0  0  0  0  0
  -22.5190  -30.3847   19.9431 C   0  0  0  0  0  0  0  0  0  0  0  0
  -22.8748  -29.4409   22.1385 C   0  0  0  0  0  0  0  0  0  0  0  0
  -33.3818  -25.2390   21.3031 C   0  0  0  0  0  0  0  0  0  0  0  0
  -24.3064  -11.0156   21.1747 C   0  0  0  0  0  0  0  0  0  0  0  0
  -25.8286  -13.0926   20.1187 C   0  0  0  0  0  0  0  0  0  0  0  0
  -28.7733  -16.8961   21.7020 C   0  0  0  0  0  0  0  0  0  0  0  0
  -21.2574  -30.8292   20.3386 C   0  0  0  0  0  0  0  0  0  0  0  0
  -21.6132  -29.8854   22.5341 C   0  0  0  0  0  0  0  0  0  0  0  0
  -33.8271  -23.9176   21.3385 C   0  0  0  0  0  0  0  0  0  0  0  0
  -29.8400  -17.2597   20.8812 C   0  0  0  0  0  0  0  0  0  0  0  0
  -18.3967  -28.9182   22.1474 C   0  0  0  0  0  0  0  0  0  0  0  0
  -17.5888  -28.0287   22.8557 C   0  0  0  0  0  0  0  0  0  0  0  0
  -28.5456  -19.1077   20.0276 C   0  0  0  0  0  0  0  0  0  0  0  0
  -17.5317  -29.5648   24.7196 C   0  0  0  0  0  0  0  0  0  0  0  0
  -23.3277  -29.6905   20.8431 C   0  0  0  0  0  0  0  0  0  0  0  0
  -32.0530  -25.5189   20.9844 C   0  0  0  0  0  0  0  0  0  0  0  0
  -25.8492  -29.9283   20.5377 C   0  0  0  0  0  0  0  0  0  0  0  0
  -23.7119  -12.2715   20.9748 C   0  0  0  0  0  0  0  0  0  0  0  0
  -27.5788  -17.6304   21.6837 C   0  0  0  0  0  0  0  0  0  0  0  0
  -24.4776  -13.3205   20.4310 C   0  0  0  0  0  0  0  0  0  0  0  0
  -27.4661  -18.7529   20.8510 C   0  0  0  0  0  0  0  0  0  0  0  0
  -31.1695  -24.4774   20.7009 C   0  0  0  0  0  0  0  0  0  0  0  0
  -20.8045  -30.5796   21.6341 C   0  0  0  0  0  0  0  0  0  0  0  0
  -29.7252  -18.3639   20.0417 C   0  0  0  0  0  0  0  0  0  0  0  0
  -18.7722  -30.1310   22.7252 C   0  0  0  0  0  0  0  0  0  0  0  0
  -32.9436  -22.8761   21.0550 C   0  0  0  0  0  0  0  0  0  0  0  0
  -17.1563  -28.3520   24.1418 C   0  0  0  0  0  0  0  0  0  0  0  0
  -18.3396  -30.4543   24.0113 C   0  0  0  0  0  0  0  0  0  0  0  0
  -31.6148  -23.1560   20.7363 C   0  0  0  0  0  0  0  0  0  0  0  0
  -24.6308  -29.2306   20.4350 C   0  0  0  0  0  0  0  0  0  0  0  0
  -26.7833  -29.0665   20.0168 C   0  0  0  0  0  0  0  0  0  0  0  0
  -32.6440  -28.7804   22.4272 C   0  0  0  0  0  0  0  0  0  0  0  0
  -31.6246  -26.9125   20.9576 C   0  0  0  0  0  0  0  0  0  0  0  0
  -33.0597  -19.4106   19.1742 C   0  0  0  0  0  0  0  0  0  0  0  0
  -31.9537  -19.0424   19.8310 C   0  0  0  0  0  0  0  0  0  1  0  0
  -26.1130  -31.2382   21.0575 C   0  0  0  0  0  0  0  0  0  0  0  0
  -24.5559  -16.9782   20.9484 C   0  0  0  0  0  0  0  0  0  0  0  0
  -24.0484  -19.9897   22.0419 C   0  0  0  0  0  0  0  0  0  0  0  0
  -25.3138  -23.0973   22.6653 C   0  0  0  0  0  0  0  0  0  0  0  0
  -28.9865  -23.9744   19.5485 C   0  0  0  0  0  0  0  0  0  0  0  0
  -22.2460  -12.4388   21.2873 C   0  0  0  0  0  0  0  0  0  0  0  0
  -26.4470  -17.2411   22.5948 C   0  0  0  0  0  0  0  0  0  0  0  0
  -26.2124  -19.5865   20.8090 C   0  0  0  0  0  0  0  0  0  0  0  0
  -21.8059  -13.8974   21.3817 C   0  0  0  0  0  0  0  0  0  0  0  0
  -26.2059  -24.7366   17.4594 C   0  0  0  0  0  0  0  0  0  0  0  0
  -22.3571  -14.6985   20.2065 C   0  0  0  0  0  0  0  0  0  0  0  0
  -25.6485  -26.0311   18.0557 C   0  0  0  0  0  0  0  0  0  0  0  0
  -26.7223  -23.7900   18.5415 C   0  0  0  0  0  0  0  0  0  0  0  0
  -27.1309  -25.6770   20.0716 C   0  0  0  0  0  0  0  0  0  0  0  0
  -23.8906  -14.6975   20.2090 C   0  0  1  0  0  0  0  0  0  0  0  0
  -25.0921  -17.7549   22.1176 C   0  0  1  0  0  0  0  0  0  0  0  0
  -26.6582  -26.6898   19.0160 C   0  0  2  0  0  0  0  0  0  0  0  0
  -24.6483  -25.3593   23.5243 C   0  0  0  0  0  0  0  0  0  0  0  0
  -22.6515  -20.5814   19.3946 C   0  0  0  0  0  0  0  0  0  0  0  0
  -22.8622  -23.0225   19.9089 C   0  0  0  0  0  0  0  0  0  0  0  0
  -21.5231  -21.5450   21.4077 C   0  0  0  0  0  0  0  0  0  0  0  0
  -27.2394  -22.9407   24.9073 C   0  0  0  0  0  0  0  0  0  0  0  0
  -34.3547  -19.7530   19.8544 C   0  0  0  0  0  0  0  0  0  0  0  0
  -34.4373  -21.2352   20.1994 C   0  0  0  0  0  0  0  0  0  0  0  0
  -24.0450  -21.3660   21.4215 C   0  0  1  0  0  0  0  0  0  0  0  0
  -25.2203  -23.9970   23.8844 C   0  0  2  0  0  0  0  0  0  0  0  0
  -22.7935  -21.6120   20.5323 C   0  0  0  0  0  0  0  0  0  0  0  0
  -24.7746  -28.0191   19.8914 N   0  0  0  0  0  0  0  0  0  0  0  0
  -26.0944  -27.9487   19.6478 N   0  0  0  0  0  0  0  0  0  0  0  0
  -25.1314  -19.1618   21.7137 N   0  0  0  0  0  0  0  0  0  0  0  0
  -27.6771  -24.4815   19.4104 N   0  0  0  0  0  0  0  0  0  0  0  0
  -28.1185  -29.1635   19.8429 N   0  0  0  0  0  0  0  0  0  0  0  0
  -25.0386  -31.9890   21.5536 N   0  0  0  0  0  0  0  0  0  0  0  0
  -29.8147  -24.7337   20.3745 N   0  0  0  0  0  0  0  0  0  0  0  0
  -24.3950  -15.6283   21.1958 N   0  0  0  0  0  0  0  0  0  0  0  0
  -24.1901  -22.3109   22.5236 N   0  0  0  0  0  0  0  0  0  0  0  0
  -26.5695  -24.1976   24.4848 N   0  3  0  0  0  0  0  0  0  0  0  0
  -27.2649  -31.7347   21.0664 O   0  0  0  0  0  0  0  0  0  0  0  0
  -24.3053  -17.5609   19.8998 O   0  0  0  0  0  0  0  0  0  0  0  0
  -23.1280  -19.6639   22.7957 O   0  0  0  0  0  0  0  0  0  0  0  0
  -26.2848  -23.0952   21.9119 O   0  0  0  0  0  0  0  0  0  0  0  0
  -29.3548  -22.9577   18.9546 O   0  0  0  0  0  0  0  0  0  0  0  0
  -19.5736  -31.0134   22.0204 O   0  0  0  0  0  0  0  0  0  0  0  0
  -30.7647  -18.7205   19.2391 O   0  0  0  0  0  0  0  0  0  1  0  0
  -33.3832  -21.5786   21.0894 O   0  0  0  0  0  0  0  0  0  0  0  0
  -16.3792  -27.4984   24.8212 F   0  0  0  0  0  0  0  0  0  0  0  0
  -18.6961  -31.6185   24.5712 F   0  0  0  0  0  0  0  0  0  0  0  0
  -30.7704  -22.1490   20.4657 F   0  0  0  0  0  0  0  0  0  0  0  0
  1 35  2  0  0  0  0
  1 36  2  0  0  0  0
  2  3  1  0  0  0  0
  2  7  2  0  0  0  0
  3  8  2  0  0  0  0
  4 10  2  0  0  0  0
  4 18  1  0  0  0  0
  5 11  1  0  0  0  0
  5 18  2  0  0  0  0
  6 12  2  0  0  0  0
  6 19  1  0  0  0  0
  7 21  1  0  0  0  0
  8 23  1  0  0  0  0
  9 13  2  0  0  0  0
  9 22  1  0  0  0  0
 10 26  1  0  0  0  0
 11 26  2  0  0  0  0
 12 29  1  0  0  0  0
 13 27  1  0  0  0  0
 14 15  2  0  0  0  0
 14 28  1  0  0  0  0
 15 30  1  0  0  0  0
 16 24  1  0  0  0  0
 16 27  2  0  0  0  0
 17 30  2  0  0  0  0
 17 31  1  0  0  0  0
 18 33  1  0  0  0  0
 19 25  2  0  0  0  0
 19 36  1  0  0  0  0
 20 33  1  0  0  0  0
 20 34  2  0  0  0  0
 20 39  1  0  0  0  0
 21 23  2  0  0  0  0
 21 44  1  0  0  0  0
 22 24  2  0  0  0  0
 22 45  1  0  0  0  0
 23 53  1  0  0  0  0
 24 46  1  0  0  0  0
 25 32  1  0  0  0  0
 25 72  1  0  0  0  0
 26 81  1  0  0  0  0
 27 82  1  0  0  0  0
 28 31  2  0  0  0  0
 28 81  1  0  0  0  0
 29 32  2  0  0  0  0
 29 83  1  0  0  0  0
 30 84  1  0  0  0  0
 31 85  1  0  0  0  0
 32 86  1  0  0  0  0
 33 66  2  0  0  0  0
 34 67  1  0  0  0  0
 34 70  1  0  0  0  0
 37 38  2  0  0  0  0
 37 61  1  0  0  0  0
 38 82  1  0  0  0  0
 39 71  1  0  0  0  0
 39 76  2  0  0  0  0
 40 54  1  0  0  0  0
 40 73  1  0  0  0  0
 40 77  2  0  0  0  0
 41 63  1  0  0  0  0
 41 68  1  0  0  0  0
 41 78  2  0  0  0  0
 42 64  1  0  0  0  0
 42 74  1  0  0  0  0
 42 79  2  0  0  0  0
 43 69  1  0  0  0  0
 43 72  1  0  0  0  0
 43 80  2  0  0  0  0
 44 47  1  0  0  0  0
 45 54  1  0  0  0  0
 46 68  1  0  0  0  0
 47 49  1  0  0  0  0
 48 50  1  0  0  0  0
 48 51  1  0  0  0  0
 49 53  1  0  0  0  0
 50 55  1  0  0  0  0
 51 69  1  0  0  0  0
 52 55  1  0  0  0  0
 52 69  1  0  0  0  0
 53 73  1  0  0  0  0
 54 68  1  0  0  0  0
 55 67  1  0  0  0  0
 56 64  1  0  0  0  0
 57 65  1  0  0  0  0
 58 65  1  0  0  0  0
 59 65  1  0  0  0  0
 60 75  1  0  0  0  0
 61 62  1  0  0  0  0
 62 83  1  0  0  0  0
 63 65  1  0  0  0  0
 63 74  1  0  0  0  0
 64 75  1  0  0  0  0
 66 67  1  0  0  0  0
M  CHG  1  75   1
M  ISO  4  38 101  43 100  72 100  82 101
M  END
> <Batch ID>
0114

> <Smiles>
C=C=Cc1ccc(OCCC=[101CH:1][101O:1]c2ccc3c(c2)CN(C(=O)C(NC(=O)C(C)NC)C(C)(C)C)C(C(=O)NC2CCCc4ccccc42)C3)c(F)c1[100NH:0][100C:0](=O)N1CCCC(n2nc(-c3ccc(Oc4ccc(F)cc4F)cc3)c(C(N)=O)c2N)C1

> <Shape>
0.234

> <Color>
0.066

> <Negative vol penalty>
0.000

$$$$

  -OEChem-04052301373D

 85 94  0     1  0  0  0  0  0999 V2000
  -16.6575  -29.5413   24.1127 C   0  0  0  0  0  0  0  0  0  0  0  0
  -16.8535  -28.6043   23.1045 C   0  0  0  0  0  0  0  0  0  0  0  0
  -24.2931  -14.4721   20.4132 C   0  0  0  0  0  0  0  0  0  0  0  0
  -26.1950  -14.5548   21.9008 C   0  0  0  0  0  0  0  0  0  0  0  0
  -17.7012  -30.3846   24.4879 C   0  0  0  0  0  0  0  0  0  0  0  0
  -18.0968  -28.5020   22.4795 C   0  0  0  0  0  0  0  0  0  0  0  0
  -25.0669  -26.0517   18.6304 C   0  0  0  0  0  0  0  0  0  0  0  0
  -24.4653  -13.0954   20.2696 C   0  0  0  0  0  0  0  0  0  0  0  0
  -26.3671  -13.1780   21.7573 C   0  0  0  0  0  0  0  0  0  0  0  0
  -26.4154  -26.3899   18.7344 C   0  0  0  0  0  0  0  0  0  0  0  0
  -23.7706  -10.3001   22.0406 C   0  0  0  0  0  0  0  0  0  0  0  0
  -22.6357   -9.4931   22.1204 C   0  0  0  0  0  0  0  0  0  0  0  0
  -26.1987  -26.4907   21.1348 C   0  0  0  0  0  0  0  0  0  0  0  0
  -31.7047  -23.4807   23.1910 C   0  0  0  0  0  0  0  0  0  0  0  0
  -30.8592  -21.3519   22.4228 C   0  0  0  0  0  0  0  0  0  0  0  0
  -30.2852  -23.3780   21.2386 C   0  0  0  0  0  0  0  0  0  0  0  0
  -23.0467   -8.6933   19.8780 C   0  0  0  0  0  0  0  0  0  0  0  0
  -25.1580  -15.2018   21.2288 C   0  0  0  0  0  0  0  0  0  0  0  0
  -24.1984  -17.2874   22.3410 C   0  0  0  0  0  0  0  0  0  0  0  0
  -18.9539  -30.3004   23.8580 C   0  0  0  0  0  0  0  0  0  0  0  0
  -24.2702  -25.9409   19.7790 C   0  0  0  0  0  0  0  0  0  0  0  0
  -19.1698  -29.3279   22.8605 C   0  0  0  0  0  0  0  0  0  0  0  0
  -24.8409  -26.1484   21.0428 C   0  0  0  0  0  0  0  0  0  0  0  0
  -31.6142  -22.0957   23.3297 C   0  0  0  0  0  0  0  0  0  0  0  0
  -31.0402  -24.1219   22.1455 C   0  0  0  0  0  0  0  0  0  0  0  0
  -30.1947  -21.9930   21.3773 C   0  0  0  0  0  0  0  0  0  0  0  0
  -25.5022  -12.4483   20.9416 C   0  0  0  0  0  0  0  0  0  0  0  0
  -26.9808  -26.6123   19.9866 C   0  0  0  0  0  0  0  0  0  0  0  0
  -24.5435  -10.3038   20.8794 C   0  0  0  0  0  0  0  0  0  0  0  0
  -22.2738   -8.6897   21.0391 C   0  0  0  0  0  0  0  0  0  0  0  0
  -24.1816   -9.5004   19.7981 C   0  0  0  0  0  0  0  0  0  0  0  0
  -24.9811  -16.6241   21.3770 C   0  0  0  0  0  0  0  0  0  0  0  0
  -24.3629  -18.6213   22.0580 C   0  0  0  0  0  0  0  0  0  0  0  0
  -31.8566  -26.4193   22.8414 C   0  0  0  0  0  0  0  0  0  0  0  0
  -23.3947  -16.7462   23.3978 C   0  0  0  0  0  0  0  0  0  0  0  0
  -21.6901  -27.4413   20.8726 C   0  0  0  0  0  0  0  0  0  0  0  0
  -21.8265  -25.1690   23.1835 C   0  0  0  0  0  0  0  0  0  0  0  0
  -24.3884  -23.5776   25.1638 C   0  0  0  0  0  0  0  0  0  0  0  0
  -28.7057  -21.7177   19.3640 C   0  0  0  0  0  0  0  0  0  0  0  0
  -20.0509  -31.2323   24.3087 C   0  0  0  0  0  0  0  0  0  0  0  0
  -22.8236  -25.5491   19.6515 C   0  0  0  0  0  0  0  0  0  0  0  0
  -24.0336  -26.0221   22.3080 C   0  0  0  0  0  0  0  0  0  0  0  0
  -31.6825  -27.8177   22.2977 C   0  0  0  0  0  0  0  0  0  0  0  0
  -21.1837  -31.3516   23.2945 C   0  0  0  0  0  0  0  0  0  0  0  0
  -31.2283  -27.5871   20.8689 C   0  0  0  0  0  0  0  0  0  0  0  0
  -25.2765  -21.5915   18.4142 C   0  0  0  0  0  0  0  0  0  0  0  0
  -21.6385  -29.9670   22.8579 C   0  0  0  0  0  0  0  0  0  0  0  0
  -24.7389  -20.3672   19.1587 C   0  0  0  0  0  0  0  0  0  0  0  0
  -26.7080  -21.3752   17.9264 C   0  0  0  0  0  0  0  0  0  0  0  0
  -27.1204  -19.7212   19.7049 C   0  0  0  0  0  0  0  0  0  0  0  0
  -20.5044  -29.2192   22.1454 C   0  0  1  0  0  0  0  0  0  0  0  0
  -21.9830  -25.9676   20.8539 C   0  0  1  0  0  0  0  0  0  0  0  0
  -25.7046  -19.9157   20.2719 C   0  0  2  0  0  0  0  0  0  0  0  0
  -30.4490  -26.2788   20.9435 C   0  0  2  0  0  0  0  0  0  0  0  0
  -32.3238  -21.4107   24.4486 C   0  0  0  0  0  0  0  0  0  0  0  0
  -24.4489  -21.3091   26.2351 C   0  0  0  0  0  0  0  0  0  0  0  0
  -20.7858  -26.6269   25.6535 C   0  0  0  0  0  0  0  0  0  0  0  0
  -22.2534  -25.1586   27.0529 C   0  0  0  0  0  0  0  0  0  0  0  0
  -20.4325  -24.1512   25.6773 C   0  0  0  0  0  0  0  0  0  0  0  0
  -26.9184  -22.8729   23.7995 C   0  0  0  0  0  0  0  0  0  0  0  0
  -28.9773  -26.5339   21.2765 C   0  0  0  0  0  0  0  0  0  1  0  0
  -22.4974  -25.0534   24.5309 C   0  0  1  0  0  0  0  0  0  0  0  0
  -24.8754  -22.1453   25.0385 C   0  0  2  0  0  0  0  0  0  0  0  0
  -21.5034  -25.2635   25.7078 C   0  0  0  0  0  0  0  0  0  0  0  0
  -25.5968  -17.4671   20.5438 N   0  0  0  0  0  0  0  0  0  0  0  0
  -25.2011  -18.6738   20.9834 N   0  0  0  0  0  0  0  0  0  0  0  0
  -31.1334  -25.5438   22.0037 N   0  0  0  0  0  0  0  0  0  0  0  0
  -22.6220  -25.6431   22.1308 N   0  0  0  0  0  0  0  0  0  0  0  0
  -27.5662  -20.9532   19.0355 N   0  0  0  0  0  0  0  0  0  0  0  0
  -23.8707  -19.7428   22.6260 N   0  0  0  0  0  0  0  0  0  0  0  0
  -23.3372  -15.3539   23.5475 N   0  0  0  0  0  0  0  0  0  0  0  0
  -29.4266  -21.2376   20.4569 N   0  0  0  0  0  0  0  0  0  0  0  0
  -20.9042  -27.8452   21.9349 N   0  0  0  0  0  0  0  0  0  0  0  0
  -23.1714  -23.7596   24.5417 N   0  0  0  0  0  0  0  0  0  0  0  0
  -26.3624  -22.1099   24.9465 N   0  3  0  0  0  0  0  0  0  0  0  0
  -32.5038  -26.1906   23.8531 O   0  0  0  0  0  0  0  0  0  0  0  0
  -22.7337  -17.4751   24.1758 O   0  0  0  0  0  0  0  0  0  0  0  0
  -22.1447  -28.1589   19.9894 O   0  0  0  0  0  0  0  0  0  0  0  0
  -20.6423  -24.8436   23.0677 O   0  0  0  0  0  0  0  0  0  0  0  0
  -25.0223  -24.4472   25.7576 O   0  0  0  0  0  0  0  0  0  0  0  0
  -29.0036  -22.7394   18.7401 O   0  0  0  0  0  0  0  0  0  0  0  0
  -25.6704  -11.1049   20.8019 O   0  0  0  0  0  0  0  0  0  0  0  0
  -28.2967  -26.9432   20.0909 O   0  0  0  0  0  0  0  0  0  1  0  0
  -21.1848   -7.9136   21.1165 F   0  0  0  0  0  0  0  0  0  0  0  0
  -24.9208   -9.4988   18.6804 F   0  0  0  0  0  0  0  0  0  0  0  0
  1  2  1  0  0  0  0
  1  5  2  0  0  0  0
  2  6  2  0  0  0  0
  3  8  2  0  0  0  0
  3 18  1  0  0  0  0
  4  9  1  0  0  0  0
  4 18  2  0  0  0  0
  5 20  1  0  0  0  0
  6 22  1  0  0  0  0
  7 10  2  0  0  0  0
  7 21  1  0  0  0  0
  8 27  1  0  0  0  0
  9 27  2  0  0  0  0
 10 28  1  0  0  0  0
 11 12  2  0  0  0  0
 11 29  1  0  0  0  0
 12 30  1  0  0  0  0
 13 23  1  0  0  0  0
 13 28  2  0  0  0  0
 14 24  2  0  0  0  0
 14 25  1  0  0  0  0
 15 24  1  0  0  0  0
 15 26  2  0  0  0  0
 16 25  2  0  0  0  0
 16 26  1  0  0  0  0
 17 30  2  0  0  0  0
 17 31  1  0  0  0  0
 18 32  1  0  0  0  0
 19 32  1  0  0  0  0
 19 33  2  0  0  0  0
 19 35  1  0  0  0  0
 20 22  2  0  0  0  0
 20 40  1  0  0  0  0
 21 23  2  0  0  0  0
 21 41  1  0  0  0  0
 22 51  1  0  0  0  0
 23 42  1  0  0  0  0
 24 55  1  0  0  0  0
 25 67  1  0  0  0  0
 26 72  1  0  0  0  0
 27 82  1  0  0  0  0
 28 83  1  0  0  0  0
 29 31  2  0  0  0  0
 29 82  1  0  0  0  0
 30 84  1  0  0  0  0
 31 85  1  0  0  0  0
 32 65  2  0  0  0  0
 33 66  1  0  0  0  0
 33 70  1  0  0  0  0
 34 43  1  0  0  0  0
 34 67  1  0  0  0  0
 34 76  2  0  0  0  0
 35 71  1  0  0  0  0
 35 77  2  0  0  0  0
 36 52  1  0  0  0  0
 36 73  1  0  0  0  0
 36 78  2  0  0  0  0
 37 62  1  0  0  0  0
 37 68  1  0  0  0  0
 37 79  2  0  0  0  0
 38 63  1  0  0  0  0
 38 74  1  0  0  0  0
 38 80  2  0  0  0  0
 39 69  1  0  0  0  0
 39 72  1  0  0  0  0
 39 81  2  0  0  0  0
 40 44  1  0  0  0  0
 41 52  1  0  0  0  0
 42 68  1  0  0  0  0
 43 45  1  0  0  0  0
 44 47  1  0  0  0  0
 45 54  1  0  0  0  0
 46 48  1  0  0  0  0
 46 49  1  0  0  0  0
 47 51  1  0  0  0  0
 48 53  1  0  0  0  0
 49 69  1  0  0  0  0
 50 53  1  0  0  0  0
 50 69  1  0  0  0  0
 51 73  1  0  0  0  0
 52 68  1  0  0  0  0
 53 66  1  0  0  0  0
 54 61  1  0  0  0  0
 54 67  1  0  0  0  0
 56 63  1  0  0  0  0
 57 64  1  0  0  0  0
 58 64  1  0  0  0  0
 59 64  1  0  0  0  0
 60 75  1  0  0  0  0
 61 83  1  0  0  0  0
 62 64  1  0  0  0  0
 62 74  1  0  0  0  0
 63 75  1  0  0  0  0
 65 66  1  0  0  0  0
M  CHG  1  75   1
M  ISO  4  39 100  61 101  72 100  83 101
M  END
> <Batch ID>
0114

> <Smiles>
CNC(C)C(=O)NC(C(=O)N1Cc2cc([101O:1][101CH2:1]C3CCC(=O)N3c3cc(C)cc([100NH:0][100C:0](=O)N4CCCC(n5nc(-c6ccc(Oc7ccc(F)cc7F)cc6)c(C(N)=O)c5N)C4)c3)ccc2CC1C(=O)NC1CCCc2ccccc21)C(C)(C)C

> <Shape>
0.193

> <Color>
0.090

> <Negative vol penalty>
0.000

$$$$

  -OEChem-04052301373D

 84 92  0     1  0  0  0  0  0999 V2000
  -32.2321  -27.5433   16.4175 C   0  0  0  0  0  0  0  0  0  0  0  0
  -31.7564  -26.8010   17.4937 C   0  0  0  0  0  0  0  0  0  0  0  0
  -23.7662   -9.6440   19.9565 C   0  0  0  0  0  0  0  0  0  0  0  0
  -24.3764   -9.9072   22.2793 C   0  0  0  0  0  0  0  0  0  0  0  0
  -31.8605  -28.8796   16.2754 C   0  0  0  0  0  0  0  0  0  0  0  0
  -30.9097  -27.3948   18.4290 C   0  0  0  0  0  0  0  0  0  0  0  0
  -26.9713  -24.4473   19.6316 C   0  0  0  0  0  0  0  0  0  0  0  0
  -23.3068   -8.3543   20.2232 C   0  0  0  0  0  0  0  0  0  0  0  0
  -23.9168   -8.6175   22.5461 C   0  0  0  0  0  0  0  0  0  0  0  0
  -27.2079  -23.4003   20.5213 C   0  0  0  0  0  0  0  0  0  0  0  0
  -22.5731   -5.5273   23.9112 C   0  0  0  0  0  0  0  0  0  0  0  0
  -21.7865   -5.3405   25.0478 C   0  0  0  0  0  0  0  0  0  0  0  0
  -29.6900  -16.2564   22.5764 C   0  0  0  0  0  0  0  0  0  0  0  0
  -26.2901  -24.7258   22.3157 C   0  0  0  0  0  0  0  0  0  0  0  0
  -20.1571   -6.8967   24.1759 C   0  0  0  0  0  0  0  0  0  0  0  0
  -24.3011  -10.4204   20.9845 C   0  0  0  0  0  0  0  0  0  0  0  0
  -30.1161  -14.9718   22.9906 C   0  0  0  0  0  0  0  0  0  0  0  0
  -24.0361  -12.9484   20.7686 C   0  0  0  0  0  0  0  0  0  0  0  0
  -31.0011  -29.4874   17.2041 C   0  0  0  0  0  0  0  0  0  0  0  0
  -26.4014  -25.6475   20.0801 C   0  0  0  0  0  0  0  0  0  0  0  0
  -30.5273  -28.7409   18.2999 C   0  0  0  0  0  0  0  0  0  0  0  0
  -26.0450  -25.7855   21.4292 C   0  0  0  0  0  0  0  0  0  0  0  0
  -23.3820   -7.8410   21.5181 C   0  0  0  0  0  0  0  0  0  0  0  0
  -26.8699  -23.5405   21.8641 C   0  0  0  0  0  0  0  0  0  0  0  0
  -22.1518   -6.3989   22.9070 C   0  0  0  0  0  0  0  0  0  0  0  0
  -20.5785   -6.0252   25.1802 C   0  0  0  0  0  0  0  0  0  0  0  0
  -20.9438   -7.0836   23.0393 C   0  0  0  0  0  0  0  0  0  0  0  0
  -24.7764  -11.7525   20.7094 C   0  0  0  0  0  0  0  0  0  0  0  0
  -29.8595  -14.9009   24.3401 C   0  0  0  0  0  0  0  0  0  0  0  0
  -24.9358  -13.9267   20.4224 C   0  0  0  0  0  0  0  0  0  0  0  0
  -29.2031  -16.8788   23.7023 C   0  0  0  0  0  0  0  0  0  0  0  0
  -30.3565  -13.9326   26.5379 C   0  0  0  0  0  0  0  0  0  0  0  0
  -30.1076  -13.8184   25.2182 C   0  0  0  0  0  0  0  0  0  0  0  0
  -30.7000  -13.9388   22.1836 C   0  0  0  0  0  0  0  0  0  0  0  0
  -22.6583  -13.1564   21.1065 C   0  0  0  0  0  0  0  0  0  0  0  0
  -30.9362  -14.1159   20.7323 C   0  0  0  0  0  0  0  0  0  0  0  0
  -27.3494  -28.6797   20.1840 C   0  0  0  0  0  0  0  0  0  0  0  0
  -27.8922  -20.3021   23.2945 C   0  0  0  0  0  0  0  0  0  0  0  0
  -24.3118  -29.1875   21.2025 C   0  0  0  0  0  0  0  0  0  0  0  0
  -21.5051  -27.9332   22.6845 C   0  0  0  0  0  0  0  0  0  0  0  0
  -30.6651  -30.9479   17.0346 C   0  0  0  0  0  0  0  0  0  0  0  0
  -26.1281  -26.7575   19.1026 C   0  0  0  0  0  0  0  0  0  0  0  0
  -25.4120  -27.0461   21.9572 C   0  0  0  0  0  0  0  0  0  0  0  0
  -29.4645  -31.3970   17.8635 C   0  0  0  0  0  0  0  0  0  0  0  0
  -28.8868  -14.6513   17.8392 C   0  0  0  0  0  0  0  0  0  0  0  0
  -29.5775  -30.8758   19.2927 C   0  0  0  0  0  0  0  0  0  0  0  0
  -27.5438  -14.0420   18.2402 C   0  0  0  0  0  0  0  0  0  0  0  0
  -30.0538  -13.8780   18.4447 C   0  0  0  0  0  0  0  0  0  0  0  0
  -28.6374  -13.1349   20.3394 C   0  0  0  0  0  0  0  0  0  0  0  0
  -29.5872  -29.3427   19.3217 C   0  0  1  0  0  0  0  0  0  0  0  0
  -26.0161  -28.1257   19.7681 C   0  0  1  0  0  0  0  0  0  0  0  0
  -27.4339  -13.9056   19.7693 C   0  0  2  0  0  0  0  0  0  0  0  0
  -19.1981  -28.5981   23.4143 C   0  0  0  0  0  0  0  0  0  0  0  0
  -25.4951  -30.6425   23.6093 C   0  0  0  0  0  0  0  0  0  0  0  0
  -23.2696  -30.4398   24.7381 C   0  0  0  0  0  0  0  0  0  0  0  0
  -23.4770  -31.7369   22.6174 C   0  0  0  0  0  0  0  0  0  0  0  0
  -20.2393  -25.9611   20.8769 C   0  0  0  0  0  0  0  0  0  0  0  0
  -27.6912  -21.3347   22.2043 C   0  0  0  0  0  0  0  0  0  1  0  0
  -28.5316  -18.9991   22.8604 C   0  0  0  0  0  0  0  0  0  0  0  0
  -23.6253  -29.2140   22.5468 C   0  0  1  0  0  0  0  0  0  0  0  0
  -20.0402  -28.0086   22.2936 C   0  0  2  0  0  0  0  0  0  0  0  0
  -23.9804  -30.4851   23.3686 C   0  0  0  0  0  0  0  0  0  0  0  0
  -26.0484  -11.9506   20.3534 N   0  0  0  0  0  0  0  0  0  0  0  0
  -31.0735  -12.7649   22.6477 N   0  0  0  0  0  0  0  0  0  0  0  0
  -26.1144  -13.2824   20.1857 N   0  0  0  0  0  0  0  0  0  0  0  0
  -29.8999  -13.7357   19.8911 N   0  0  0  0  0  0  0  0  0  0  0  0
  -25.1706  -28.1052   20.9635 N   0  0  0  0  0  0  0  0  0  0  0  0
  -24.8258  -15.2667   20.3002 N   0  0  0  0  0  0  0  0  0  0  0  0
  -21.8759  -12.0417   21.4375 N   0  0  0  0  0  0  0  0  0  0  0  0
  -28.2473  -28.8254   19.1438 N   0  0  0  0  0  0  0  0  0  0  0  0
  -22.1999  -29.0535   22.2804 N   0  0  0  0  0  0  0  0  0  0  0  0
  -19.5176  -26.6490   21.9782 N   0  3  0  0  0  0  0  0  0  0  0  0
  -22.1323  -14.2951   21.0987 O   0  0  0  0  0  0  0  0  0  0  0  0
  -32.0269  -14.5811   20.4284 O   0  0  0  0  0  0  0  0  0  0  0  0
  -27.5483  -28.9560   21.3612 O   0  0  0  0  0  0  0  0  0  0  0  0
  -27.5565  -20.5087   24.4597 O   0  0  0  0  0  0  0  0  0  0  0  0
  -24.0886  -30.0899   20.3916 O   0  0  0  0  0  0  0  0  0  0  0  0
  -21.9844  -26.9777   23.2911 O   0  0  0  0  0  0  0  0  0  0  0  0
  -29.3027  -16.0592   24.7816 O   0  0  0  0  0  0  0  0  0  0  0  0
  -22.9336   -6.5827   21.7788 O   0  0  0  0  0  0  0  0  0  0  0  0
  -27.1004  -22.5203   22.7348 O   0  0  0  0  0  0  0  0  0  1  0  0
  -28.6552  -18.1143   23.9538 O   0  0  0  0  0  0  0  0  0  0  0  0
  -19.8224   -5.8445   26.2710 F   0  0  0  0  0  0  0  0  0  0  0  0
  -20.5332   -7.9213   22.0773 F   0  0  0  0  0  0  0  0  0  0  0  0
  1  2  1  0  0  0  0
  1  5  2  0  0  0  0
  2  6  2  0  0  0  0
  3  8  2  0  0  0  0
  3 16  1  0  0  0  0
  4  9  1  0  0  0  0
  4 16  2  0  0  0  0
  5 19  1  0  0  0  0
  6 21  1  0  0  0  0
  7 10  2  0  0  0  0
  7 20  1  0  0  0  0
  8 23  1  0  0  0  0
  9 23  2  0  0  0  0
 10 24  1  0  0  0  0
 11 12  2  0  0  0  0
 11 25  1  0  0  0  0
 12 26  1  0  0  0  0
 13 17  1  0  0  0  0
 13 31  2  0  0  0  0
 14 22  1  0  0  0  0
 14 24  2  0  0  0  0
 15 26  2  0  0  0  0
 15 27  1  0  0  0  0
 16 28  1  0  0  0  0
 17 29  2  0  0  0  0
 17 34  1  0  0  0  0
 18 28  1  0  0  0  0
 18 30  2  0  0  0  0
 18 35  1  0  0  0  0
 19 21  2  0  0  0  0
 19 41  1  0  0  0  0
 20 22  2  0  0  0  0
 20 42  1  0  0  0  0
 21 50  1  0  0  0  0
 22 43  1  0  0  0  0
 23 80  1  0  0  0  0
 24 81  1  0  0  0  0
 25 27  2  0  0  0  0
 25 80  1  0  0  0  0
 26 83  1  0  0  0  0
 27 84  1  0  0  0  0
 28 63  2  0  0  0  0
 29 33  1  0  0  0  0
 29 79  1  0  0  0  0
 30 65  1  0  0  0  0
 30 68  1  0  0  0  0
 31 79  1  0  0  0  0
 31 82  1  0  0  0  0
 32 33  2  0  0  0  0
 34 36  1  0  0  0  0
 34 64  2  0  0  0  0
 35 69  1  0  0  0  0
 35 73  2  0  0  0  0
 36 66  1  0  0  0  0
 36 74  2  0  0  0  0
 37 51  1  0  0  0  0
 37 70  1  0  0  0  0
 37 75  2  0  0  0  0
 38 58  1  0  0  0  0
 38 59  1  0  0  0  0
 38 76  2  0  0  0  0
 39 60  1  0  0  0  0
 39 67  1  0  0  0  0
 39 77  2  0  0  0  0
 40 61  1  0  0  0  0
 40 71  1  0  0  0  0
 40 78  2  0  0  0  0
 41 44  1  0  0  0  0
 42 51  1  0  0  0  0
 43 67  1  0  0  0  0
 44 46  1  0  0  0  0
 45 47  1  0  0  0  0
 45 48  1  0  0  0  0
 46 50  1  0  0  0  0
 47 52  1  0  0  0  0
 48 66  1  0  0  0  0
 49 52  1  0  0  0  0
 49 66  1  0  0  0  0
 50 70  1  0  0  0  0
 51 67  1  0  0  0  0
 52 65  1  0  0  0  0
 53 61  1  0  0  0  0
 54 62  1  0  0  0  0
 55 62  1  0  0  0  0
 56 62  1  0  0  0  0
 57 72  1  0  0  0  0
 58 81  1  0  0  0  0
 59 82  1  0  0  0  0
 60 62  1  0  0  0  0
 60 71  1  0  0  0  0
 61 72  1  0  0  0  0
 63 65  1  0  0  0  0
M  CHG  1  72   1
M  ISO  4  34 100  36 100  58 101  81 101
M  END
> <Batch ID>
0114

> <Smiles>
C=Cc1oc(OCC(=O)[101CH2:1][101O:1]c2ccc3c(c2)CN(C(=O)C(NC(=O)C(C)NC)C(C)(C)C)C(C(=O)NC2CCCc4ccccc42)C3)cc1[100C:0](=N)[100C:0](=O)N1CCCC(n2nc(-c3ccc(Oc4ccc(F)cc4F)cc3)c(C(N)=O)c2N)C1

> <Shape>
0.291

> <Color>
0.135

> <Negative vol penalty>
0.000

$$$$

  -OEChem-04052301373D

 87 95  0     1  0  0  0  0  0999 V2000
  -29.8448  -35.5481   20.1267 C   0  0  0  0  0  0  0  0  0  0  0  0
  -29.8690  -34.1574   20.1547 C   0  0  0  0  0  0  0  0  0  0  0  0
  -23.0466  -10.8126   19.1713 C   0  0  0  0  0  0  0  0  0  0  0  0
  -23.5691   -9.6527   21.2252 C   0  0  0  0  0  0  0  0  0  0  0  0
  -29.0127  -36.2475   20.9998 C   0  0  0  0  0  0  0  0  0  0  0  0
  -29.0618  -33.4653   21.0568 C   0  0  0  0  0  0  0  0  0  0  0  0
  -26.6947  -29.5301   18.9223 C   0  0  0  0  0  0  0  0  0  0  0  0
  -22.1906   -9.7748   18.8029 C   0  0  0  0  0  0  0  0  0  0  0  0
  -22.7130   -8.6149   20.8569 C   0  0  0  0  0  0  0  0  0  0  0  0
  -27.4436  -28.3725   18.7154 C   0  0  0  0  0  0  0  0  0  0  0  0
  -19.3867   -8.0185   20.8420 C   0  0  0  0  0  0  0  0  0  0  0  0
  -18.5146   -7.5246   21.8121 C   0  0  0  0  0  0  0  0  0  0  0  0
  -29.2351  -19.6510   17.1074 C   0  0  0  0  0  0  0  0  0  0  0  0
  -26.4795  -27.4009   20.7017 C   0  0  0  0  0  0  0  0  0  0  0  0
  -30.3469  -19.0706   19.5994 C   0  0  0  0  0  0  0  0  0  0  0  0
  -19.5147   -5.3358   21.5966 C   0  0  0  0  0  0  0  0  0  0  0  0
  -23.7360  -10.7516   20.3824 C   0  0  0  0  0  0  0  0  0  0  0  0
  -29.0962  -18.3748   17.6530 C   0  0  0  0  0  0  0  0  0  0  0  0
  -24.2911  -12.9770   21.4990 C   0  0  0  0  0  0  0  0  0  0  0  0
  -28.1878  -35.5633   21.9065 C   0  0  0  0  0  0  0  0  0  0  0  0
  -25.8393  -29.6362   20.0285 C   0  0  0  0  0  0  0  0  0  0  0  0
  -28.2189  -34.1562   21.9439 C   0  0  0  0  0  0  0  0  0  0  0  0
  -25.7188  -28.5599   20.9191 C   0  0  0  0  0  0  0  0  0  0  0  0
  -29.6520  -18.0846   18.8989 C   0  0  0  0  0  0  0  0  0  0  0  0
  -22.0238   -8.6760   19.6457 C   0  0  0  0  0  0  0  0  0  0  0  0
  -27.3382  -27.3088   19.6067 C   0  0  0  0  0  0  0  0  0  0  0  0
  -20.3227   -7.1711   20.2491 C   0  0  0  0  0  0  0  0  0  0  0  0
  -29.9300  -20.6370   17.8079 C   0  0  0  0  0  0  0  0  0  0  0  0
  -18.5786   -6.1833   22.1895 C   0  0  0  0  0  0  0  0  0  0  0  0
  -30.4859  -20.3468   19.0538 C   0  0  0  0  0  0  0  0  0  0  0  0
  -20.3867   -5.8298   20.6265 C   0  0  0  0  0  0  0  0  0  0  0  0
  -24.6209  -11.8231   20.7632 C   0  0  0  0  0  0  0  0  0  0  0  0
  -25.4713  -13.6733   21.5929 C   0  0  0  0  0  0  0  0  0  0  0  0
  -28.7382  -16.9396   15.6966 C   0  0  0  0  0  0  0  0  0  0  0  0
  -28.3636  -17.3701   16.8913 C   0  0  0  0  0  0  0  0  0  0  0  0
  -23.0307  -13.3833   22.0485 C   0  0  0  0  0  0  0  0  0  0  0  0
  -25.6770  -31.5470   22.5635 C   0  0  0  0  0  0  0  0  0  0  0  0
  -28.5276  -24.3356   17.9020 C   0  0  0  0  0  0  0  0  0  0  0  0
  -22.9030  -29.9536   23.1001 C   0  0  0  0  0  0  0  0  0  0  0  0
  -21.0404  -27.1352   22.6161 C   0  0  0  0  0  0  0  0  0  0  0  0
  -30.0351  -15.6259   18.8445 C   0  0  0  0  0  0  0  0  0  0  0  0
  -27.3401  -36.3638   22.8632 C   0  0  0  0  0  0  0  0  0  0  0  0
  -25.0181  -30.8813   20.2228 C   0  0  0  0  0  0  0  0  0  0  0  0
  -24.7996  -28.6158   22.1108 C   0  0  0  0  0  0  0  0  0  0  0  0
  -26.2380  -35.5457   23.5314 C   0  0  0  0  0  0  0  0  0  0  0  0
  -30.2077  -12.3235   20.4799 C   0  0  0  0  0  0  0  0  0  0  0  0
  -26.7929  -34.2203   24.0434 C   0  0  0  0  0  0  0  0  0  0  0  0
  -28.7364  -11.9731   20.6957 C   0  0  0  0  0  0  0  0  0  0  0  0
  -30.4052  -13.2110   19.2546 C   0  0  0  0  0  0  0  0  0  0  0  0
  -28.1072  -14.1022   19.4889 C   0  0  0  0  0  0  0  0  0  0  0  0
  -27.3395  -33.3690   22.8910 C   0  0  1  0  0  0  0  0  0  0  0  0
  -24.5660  -31.0796   21.6663 C   0  0  1  0  0  0  0  0  0  0  0  0
  -27.8707  -13.2441   20.7409 C   0  0  1  0  0  0  0  0  0  0  0  0
  -18.8283  -26.1098   23.2099 C   0  0  0  0  0  0  0  0  0  0  0  0
  -23.9396  -29.3472   25.9051 C   0  0  0  0  0  0  0  0  0  0  0  0
  -22.1790  -27.5776   26.0977 C   0  0  0  0  0  0  0  0  0  0  0  0
  -21.5185  -29.9644   25.7985 C   0  0  0  0  0  0  0  0  0  0  0  0
  -29.0774  -16.6736   20.8827 C   0  0  0  0  0  0  0  0  0  0  0  0
  -20.2206  -26.9768   19.7768 C   0  0  0  0  0  0  0  0  0  0  0  0
  -28.8767  -23.8504   16.5027 C   0  0  0  0  0  0  0  0  0  0  0  0
  -28.3822  -25.8368   18.0578 C   0  0  0  0  0  0  0  0  0  1  0  0
  -29.0223  -22.3381   16.4157 C   0  0  0  0  0  0  0  0  0  0  0  0
  -22.5172  -28.7011   23.8495 C   0  0  1  0  0  0  0  0  0  0  0  0
  -19.5947  -26.9432   22.1946 C   0  0  2  0  0  0  0  0  0  0  0  0
  -22.5575  -28.8969   25.3914 C   0  0  0  0  0  0  0  0  0  0  0  0
  -25.9096  -11.7847   20.4143 N   0  0  0  0  0  0  0  0  0  0  0  0
  -26.4000  -12.9234   20.9331 N   0  0  0  0  0  0  0  0  0  0  0  0
  -24.0223  -29.8571   22.2614 N   0  0  0  0  0  0  0  0  0  0  0  0
  -29.5377  -14.3886   19.3007 N   0  0  0  0  0  0  0  0  0  0  0  0
  -25.7950  -14.8477   22.1747 N   0  0  0  0  0  0  0  0  0  0  0  0
  -21.9197  -12.5499   21.8596 N   0  0  0  0  0  0  0  0  0  0  0  0
  -26.2547  -32.7388   22.1695 N   0  0  0  0  0  0  0  0  0  0  0  0
  -21.2132  -28.3010   23.3318 N   0  0  0  0  0  0  0  0  0  0  0  0
  -29.5253  -16.7733   19.4898 N   0  0  0  0  0  0  0  0  0  0  0  0
  -19.5270  -26.2550   20.8745 N   0  3  0  0  0  0  0  0  0  0  0  0
  -22.8901  -14.4615   22.6740 O   0  0  0  0  0  0  0  0  0  0  0  0
  -25.9863  -30.8766   23.5416 O   0  0  0  0  0  0  0  0  0  0  0  0
  -28.3692  -23.5682   18.8501 O   0  0  0  0  0  0  0  0  0  0  0  0
  -22.2315  -30.9777   23.2479 O   0  0  0  0  0  0  0  0  0  0  0  0
  -21.9269  -26.3295   22.3414 O   0  0  0  0  0  0  0  0  0  0  0  0
  -30.8888  -15.6969   17.9523 O   0  0  0  0  0  0  0  0  0  0  0  0
  -21.1883   -7.6632   19.2867 O   0  0  0  0  0  0  0  0  0  0  0  0
  -28.0686  -26.1780   19.4074 O   0  0  0  0  0  0  0  0  0  1  0  0
  -30.0669  -21.8900   17.2706 O   0  0  0  0  0  0  0  0  0  0  0  0
  -17.7422   -5.7095   23.1222 F   0  0  0  0  0  0  0  0  0  0  0  0
  -31.1551  -21.2900   19.7310 F   0  0  0  0  0  0  0  0  0  0  0  0
  -21.2846   -5.0112   20.0613 F   0  0  0  0  0  0  0  0  0  0  0  0
  1  2  1  0  0  0  0
  1  5  2  0  0  0  0
  2  6  2  0  0  0  0
  3  8  2  0  0  0  0
  3 17  1  0  0  0  0
  4  9  1  0  0  0  0
  4 17  2  0  0  0  0
  5 20  1  0  0  0  0
  6 22  1  0  0  0  0
  7 10  2  0  0  0  0
  7 21  1  0  0  0  0
  8 25  1  0  0  0  0
  9 25  2  0  0  0  0
 10 26  1  0  0  0  0
 11 12  2  0  0  0  0
 11 27  1  0  0  0  0
 12 29  1  0  0  0  0
 13 18  1  0  0  0  0
 13 28  2  0  0  0  0
 14 23  1  0  0  0  0
 14 26  2  0  0  0  0
 15 24  1  0  0  0  0
 15 30  2  0  0  0  0
 16 29  2  0  0  0  0
 16 31  1  0  0  0  0
 17 32  1  0  0  0  0
 18 24  2  0  0  0  0
 18 35  1  0  0  0  0
 19 32  1  0  0  0  0
 19 33  2  0  0  0  0
 19 36  1  0  0  0  0
 20 22  2  0  0  0  0
 20 42  1  0  0  0  0
 21 23  2  0  0  0  0
 21 43  1  0  0  0  0
 22 51  1  0  0  0  0
 23 44  1  0  0  0  0
 24 74  1  0  0  0  0
 25 82  1  0  0  0  0
 26 83  1  0  0  0  0
 27 31  2  0  0  0  0
 27 82  1  0  0  0  0
 28 30  1  0  0  0  0
 28 84  1  0  0  0  0
 29 85  1  0  0  0  0
 30 86  1  0  0  0  0
 31 87  1  0  0  0  0
 32 66  2  0  0  0  0
 33 67  1  0  0  0  0
 33 70  1  0  0  0  0
 34 35  2  0  0  0  0
 36 71  1  0  0  0  0
 36 76  2  0  0  0  0
 37 52  1  0  0  0  0
 37 72  1  0  0  0  0
 37 77  2  0  0  0  0
 38 60  1  0  0  0  0
 38 61  1  0  0  0  0
 38 78  2  0  0  0  0
 39 63  1  0  0  0  0
 39 68  1  0  0  0  0
 39 79  2  0  0  0  0
 40 64  1  0  0  0  0
 40 73  1  0  0  0  0
 40 80  2  0  0  0  0
 41 69  1  0  0  0  0
 41 74  1  0  0  0  0
 41 81  2  0  0  0  0
 42 45  1  0  0  0  0
 43 52  1  0  0  0  0
 44 68  1  0  0  0  0
 45 47  1  0  0  0  0
 46 48  1  0  0  0  0
 46 49  1  0  0  0  0
 47 51  1  0  0  0  0
 48 53  1  0  0  0  0
 49 69  1  0  0  0  0
 50 53  1  0  0  0  0
 50 69  1  0  0  0  0
 51 72  1  0  0  0  0
 52 68  1  0  0  0  0
 53 67  1  0  0  0  0
 54 64  1  0  0  0  0
 55 65  1  0  0  0  0
 56 65  1  0  0  0  0
 57 65  1  0  0  0  0
 58 74  1  0  0  0  0
 59 75  1  0  0  0  0
 60 62  1  0  0  0  0
 61 83  1  0  0  0  0
 62 84  1  0  0  0  0
 63 65  1  0  0  0  0
 63 73  1  0  0  0  0
 64 75  1  0  0  0  0
 66 67  1  0  0  0  0
M  CHG  1  75   1
M  ISO  4  41 100  61 101  74 100  83 101
M  END
> <Batch ID>
0114

> <Smiles>
C=Cc1cc(OCCC(=O)[101CH2:1][101O:1]c2ccc3c(c2)CN(C(=O)C(NC(=O)C(C)NC)C(C)(C)C)C(C(=O)NC2CCCc4ccccc42)C3)c(F)cc1[100N:0](C)[100C:0](=O)N1CCCC(n2nc(-c3ccc(Oc4ccc(F)cc4F)cc3)c(C(N)=O)c2N)C1

> <Shape>
0.297

> <Color>
0.126

> <Negative vol penalty>
0.000

$$$$

  -OEChem-04052301373D

 83 91  0     1  0  0  0  0  0999 V2000
  -24.4363  -35.5493   26.7729 C   0  0  0  0  0  0  0  0  0  0  0  0
  -23.9752  -35.0298   25.5675 C   0  0  0  0  0  0  0  0  0  0  0  0
  -26.6128  -12.7496   21.6086 C   0  0  0  0  0  0  0  0  0  0  0  0
  -26.2159  -13.7634   19.4519 C   0  0  0  0  0  0  0  0  0  0  0  0
  -25.7259  -35.2516   27.2110 C   0  0  0  0  0  0  0  0  0  0  0  0
  -24.8039  -34.2131   24.7990 C   0  0  0  0  0  0  0  0  0  0  0  0
  -24.5417  -28.6241   20.3257 C   0  0  0  0  0  0  0  0  0  0  0  0
  -25.3226  -12.2197   21.5971 C   0  0  0  0  0  0  0  0  0  0  0  0
  -24.9257  -13.2336   19.4403 C   0  0  0  0  0  0  0  0  0  0  0  0
  -24.9694  -28.2403   19.0554 C   0  0  0  0  0  0  0  0  0  0  0  0
  -22.2584  -10.2999   21.9712 C   0  0  0  0  0  0  0  0  0  0  0  0
  -22.1009   -8.9677   22.3533 C   0  0  0  0  0  0  0  0  0  0  0  0
  -27.1503  -27.7293   19.9507 C   0  0  0  0  0  0  0  0  0  0  0  0
  -29.2065  -21.0901   17.5698 C   0  0  0  0  0  0  0  0  0  0  0  0
  -29.5813  -22.6214   19.4006 C   0  0  0  0  0  0  0  0  0  0  0  0
  -23.5549   -8.2788   20.5509 C   0  0  0  0  0  0  0  0  0  0  0  0
  -27.0595  -13.5215   20.5361 C   0  0  0  0  0  0  0  0  0  0  0  0
  -29.5630  -13.4679   20.0492 C   0  0  0  0  0  0  0  0  0  0  0  0
  -26.5676  -34.4230   26.4523 C   0  0  0  0  0  0  0  0  0  0  0  0
  -25.4199  -28.5737   21.4178 C   0  0  0  0  0  0  0  0  0  0  0  0
  -26.1066  -33.9051   25.2268 C   0  0  0  0  0  0  0  0  0  0  0  0
  -26.7306  -28.1106   21.2342 C   0  0  0  0  0  0  0  0  0  0  0  0
  -28.7500  -22.1456   16.7804 C   0  0  0  0  0  0  0  0  0  0  0  0
  -28.7093  -23.4390   17.3010 C   0  0  0  0  0  0  0  0  0  0  0  0
  -29.6221  -21.3280   18.8799 C   0  0  0  0  0  0  0  0  0  0  0  0
  -24.4790  -12.4617   20.5129 C   0  0  0  0  0  0  0  0  0  0  0  0
  -26.2747  -27.7955   18.8672 C   0  0  0  0  0  0  0  0  0  0  0  0
  -23.0641  -10.6215   20.8788 C   0  0  0  0  0  0  0  0  0  0  0  0
  -22.7492   -7.9571   21.6432 C   0  0  0  0  0  0  0  0  0  0  0  0
  -29.1249  -23.6769   18.6112 C   0  0  0  0  0  0  0  0  0  0  0  0
  -23.7123   -9.6110   20.1687 C   0  0  0  0  0  0  0  0  0  0  0  0
  -28.3920  -14.0695   20.5477 C   0  0  0  0  0  0  0  0  0  0  0  0
  -30.5535  -14.3864   20.2977 C   0  0  0  0  0  0  0  0  0  0  0  0
  -26.9834  -24.7555   16.5847 C   0  0  0  0  0  0  0  0  0  0  0  0
  -29.7397  -12.1928   19.4178 C   0  0  0  0  0  0  0  0  0  0  0  0
  -26.6282  -30.7214   23.4255 C   0  0  0  0  0  0  0  0  0  0  0  0
  -27.8337  -28.0935   24.8964 C   0  0  0  0  0  0  0  0  0  0  0  0
  -29.3623  -24.8254   24.8967 C   0  0  0  0  0  0  0  0  0  0  0  0
  -30.5352  -20.3203   21.0006 C   0  0  0  0  0  0  0  0  0  0  0  0
  -27.9703  -34.1678   26.9439 C   0  0  0  0  0  0  0  0  0  0  0  0
  -24.9353  -28.9659   22.7866 C   0  0  0  0  0  0  0  0  0  0  0  0
  -27.7065  -28.0185   22.3777 C   0  0  0  0  0  0  0  0  0  0  0  0
  -28.6531  -32.9902   26.2529 C   0  0  0  0  0  0  0  0  0  0  0  0
  -31.7237  -17.9037   23.3297 C   0  0  0  0  0  0  0  0  0  0  0  0
  -28.4545  -33.0692   24.7426 C   0  0  0  0  0  0  0  0  0  0  0  0
  -31.1157  -16.5905   22.8317 C   0  0  0  0  0  0  0  0  0  0  0  0
  -30.7666  -19.0794   23.1411 C   0  0  0  0  0  0  0  0  0  0  0  0
  -29.6343  -17.9275   21.2809 C   0  0  0  0  0  0  0  0  0  0  0  0
  -26.9670  -32.9953   24.3772 C   0  0  1  0  0  0  0  0  0  0  0  0
  -26.0667  -29.3615   23.7304 C   0  0  1  0  0  0  0  0  0  0  0  0
  -30.5865  -16.7254   21.3904 C   0  0  2  0  0  0  0  0  0  0  0  0
  -28.3092  -21.8658   15.3808 C   0  0  0  0  0  0  0  0  0  0  0  0
  -29.9520  -23.3003   26.8003 C   0  0  0  0  0  0  0  0  0  0  0  0
  -30.5815  -29.4078   24.7175 C   0  0  0  0  0  0  0  0  0  0  0  0
  -31.6044  -27.1728   25.1940 C   0  0  0  0  0  0  0  0  0  0  0  0
  -30.1187  -28.2485   26.8846 C   0  0  0  0  0  0  0  0  0  0  0  0
  -27.7964  -22.5932   23.7459 C   0  0  0  0  0  0  0  0  0  0  0  0
  -26.3791  -25.8904   15.8020 C   0  0  0  0  0  0  0  0  0  0  0  0
  -25.7135  -26.8770   16.7465 C   0  0  0  0  0  0  0  0  0  1  0  0
  -29.1060  -27.2899   24.7757 C   0  0  1  0  0  0  0  0  0  0  0  0
  -28.9342  -23.6220   25.7171 C   0  0  2  0  0  0  0  0  0  0  0  0
  -30.3351  -28.0332   25.3708 C   0  0  0  0  0  0  0  0  0  0  0  0
  -28.6162  -15.2768   21.0734 N   0  0  0  0  0  0  0  0  0  0  0  0
  -28.2517  -24.5126   16.5189 N   0  0  0  0  0  0  0  0  0  0  0  0
  -29.9395  -15.4411   20.9066 N   0  0  0  0  0  0  0  0  0  0  0  0
  -27.1871  -28.4193   23.6957 N   0  0  0  0  0  0  0  0  0  0  0  0
  -30.3101  -19.1469   21.7511 N   0  0  0  0  0  0  0  0  0  0  0  0
  -31.8811  -14.3866   20.0527 N   0  0  0  0  0  0  0  0  0  0  0  0
  -28.6163  -11.3738   19.2403 N   0  0  0  0  0  0  0  0  0  0  0  0
  -30.0866  -20.2560   19.6818 N   0  0  0  0  0  0  0  0  0  0  0  0
  -26.4940  -31.6299   24.4580 N   0  0  0  0  0  0  0  0  0  0  0  0
  -28.8324  -25.9972   25.3941 N   0  0  0  0  0  0  0  0  0  0  0  0
  -28.7850  -22.4250   24.8420 N   0  3  0  0  0  0  0  0  0  0  0  0
  -30.8632  -11.7847   19.0374 O   0  0  0  0  0  0  0  0  0  0  0  0
  -27.1463  -30.9305   22.3349 O   0  0  0  0  0  0  0  0  0  0  0  0
  -27.4247  -28.4141   26.0151 O   0  0  0  0  0  0  0  0  0  0  0  0
  -30.0965  -24.7353   23.9152 O   0  0  0  0  0  0  0  0  0  0  0  0
  -31.1098  -21.2993   21.4835 O   0  0  0  0  0  0  0  0  0  0  0  0
  -23.2200  -11.9447   20.5011 O   0  0  0  0  0  0  0  0  0  0  0  0
  -26.6949  -27.4208   17.6283 O   0  0  0  0  0  0  0  0  0  1  0  0
  -22.5991   -6.6780   22.0113 F   0  0  0  0  0  0  0  0  0  0  0  0
  -29.0894  -24.9163   19.1206 F   0  0  0  0  0  0  0  0  0  0  0  0
  -24.4885   -9.9140   19.1192 F   0  0  0  0  0  0  0  0  0  0  0  0
  1  2  1  0  0  0  0
  1  5  2  0  0  0  0
  2  6  2  0  0  0  0
  3  8  2  0  0  0  0
  3 17  1  0  0  0  0
  4  9  1  0  0  0  0
  4 17  2  0  0  0  0
  5 19  1  0  0  0  0
  6 21  1  0  0  0  0
  7 10  2  0  0  0  0
  7 20  1  0  0  0  0
  8 26  1  0  0  0  0
  9 26  2  0  0  0  0
 10 27  1  0  0  0  0
 11 12  2  0  0  0  0
 11 28  1  0  0  0  0
 12 29  1  0  0  0  0
 13 22  1  0  0  0  0
 13 27  2  0  0  0  0
 14 23  2  0  0  0  0
 14 25  1  0  0  0  0
 15 25  2  0  0  0  0
 15 30  1  0  0  0  0
 16 29  2  0  0  0  0
 16 31  1  0  0  0  0
 17 32  1  0  0  0  0
 18 32  1  0  0  0  0
 18 33  2  0  0  0  0
 18 35  1  0  0  0  0
 19 21  2  0  0  0  0
 19 40  1  0  0  0  0
 20 22  2  0  0  0  0
 20 41  1  0  0  0  0
 21 49  1  0  0  0  0
 22 42  1  0  0  0  0
 23 24  1  0  0  0  0
 23 52  1  0  0  0  0
 24 30  2  0  0  0  0
 24 64  1  0  0  0  0
 25 70  1  0  0  0  0
 26 79  1  0  0  0  0
 27 80  1  0  0  0  0
 28 31  2  0  0  0  0
 28 79  1  0  0  0  0
 29 81  1  0  0  0  0
 30 82  1  0  0  0  0
 31 83  1  0  0  0  0
 32 63  2  0  0  0  0
 33 65  1  0  0  0  0
 33 68  1  0  0  0  0
 34 58  1  0  0  0  0
 34 64  2  0  0  0  0
 35 69  1  0  0  0  0
 35 74  2  0  0  0  0
 36 50  1  0  0  0  0
 36 71  1  0  0  0  0
 36 75  2  0  0  0  0
 37 60  1  0  0  0  0
 37 66  1  0  0  0  0
 37 76  2  0  0  0  0
 38 61  1  0  0  0  0
 38 72  1  0  0  0  0
 38 77  2  0  0  0  0
 39 67  1  0  0  0  0
 39 70  1  0  0  0  0
 39 78  2  0  0  0  0
 40 43  1  0  0  0  0
 41 50  1  0  0  0  0
 42 66  1  0  0  0  0
 43 45  1  0  0  0  0
 44 46  1  0  0  0  0
 44 47  1  0  0  0  0
 45 49  1  0  0  0  0
 46 51  1  0  0  0  0
 47 67  1  0  0  0  0
 48 51  1  0  0  0  0
 48 67  1  0  0  0  0
 49 71  1  0  0  0  0
 50 66  1  0  0  0  0
 51 65  1  0  0  0  0
 53 61  1  0  0  0  0
 54 62  1  0  0  0  0
 55 62  1  0  0  0  0
 56 62  1  0  0  0  0
 57 73  1  0  0  0  0
 58 59  1  0  0  0  0
 59 80  1  0  0  0  0
 60 62  1  0  0  0  0
 60 72  1  0  0  0  0
 61 73  1  0  0  0  0
 63 65  1  0  0  0  0
M  CHG  1  73   1
M  ISO  4  39 100  59 101  70 100  80 101
M  END
> <Batch ID>
0114

> <Smiles>
CNC(C)C(=O)NC(C(=O)N1Cc2cc([101O:1][101CH2:1]C=CNc3c(C)cc([100NH:0][100C:0](=O)N4CCCC(n5nc(-c6ccc(Oc7ccc(F)cc7F)cc6)c(C(N)=O)c5N)C4)cc3F)ccc2CC1C(=O)NC1CCCc2ccccc21)C(C)(C)C

> <Shape>
0.268

> <Color>
0.068

> <Negative vol penalty>
0.000

$$$$

  -OEChem-04052301373D

 90 99  0     1  0  0  0  0  0999 V2000
  -27.4678  -34.0603   25.4962 C   0  0  0  0  0  0  0  0  0  0  0  0
  -27.5438  -33.1579   24.4413 C   0  0  0  0  0  0  0  0  0  0  0  0
  -24.9443   -8.6437   21.6085 C   0  0  0  0  0  0  0  0  0  0  0  0
  -23.5732  -10.4730   20.8269 C   0  0  0  0  0  0  0  0  0  0  0  0
  -26.3526  -34.0581   26.3313 C   0  0  0  0  0  0  0  0  0  0  0  0
  -26.4993  -32.2612   24.2139 C   0  0  0  0  0  0  0  0  0  0  0  0
  -26.7467  -29.5315   20.1284 C   0  0  0  0  0  0  0  0  0  0  0  0
  -31.1197  -19.8556   19.7997 C   0  0  0  0  0  0  0  0  0  0  0  0
  -30.9405  -18.5200   19.4398 C   0  0  0  0  0  0  0  0  0  0  0  0
  -23.8082   -7.8435   21.7290 C   0  0  0  0  0  0  0  0  0  0  0  0
  -22.4370   -9.6728   20.9474 C   0  0  0  0  0  0  0  0  0  0  0  0
  -27.6529  -28.4830   19.9762 C   0  0  0  0  0  0  0  0  0  0  0  0
  -21.2569   -7.4535   23.9115 C   0  0  0  0  0  0  0  0  0  0  0  0
  -21.1199   -6.6945   25.0737 C   0  0  0  0  0  0  0  0  0  0  0  0
  -25.8760  -26.8987   20.3661 C   0  0  0  0  0  0  0  0  0  0  0  0
  -28.7268  -20.1225   20.0003 C   0  0  0  0  0  0  0  0  0  0  0  0
  -21.0872   -4.6736   23.7500 C   0  0  0  0  0  0  0  0  0  0  0  0
  -24.8268   -9.9584   21.1575 C   0  0  0  0  0  0  0  0  0  0  0  0
  -26.8936  -11.1527   22.0574 C   0  0  0  0  0  0  0  0  0  0  0  0
  -25.3000  -33.1522   26.1209 C   0  0  0  0  0  0  0  0  0  0  0  0
  -25.3982  -29.2713   20.4118 C   0  0  0  0  0  0  0  0  0  0  0  0
  -25.3545  -32.2594   25.0312 C   0  0  0  0  0  0  0  0  0  0  0  0
  -24.9542  -27.9456   20.5189 C   0  0  0  0  0  0  0  0  0  0  0  0
  -28.5477  -18.7869   19.6404 C   0  0  0  0  0  0  0  0  0  0  0  0
  -30.0128  -20.6569   20.0800 C   0  0  0  0  0  0  0  0  0  0  0  0
  -29.6545  -17.9856   19.3601 C   0  0  0  0  0  0  0  0  0  0  0  0
  -22.5545   -8.3581   21.3984 C   0  0  0  0  0  0  0  0  0  0  0  0
  -27.2182  -27.1664   20.0979 C   0  0  0  0  0  0  0  0  0  0  0  0
  -21.3089   -6.8226   22.6685 C   0  0  0  0  0  0  0  0  0  0  0  0
  -21.0351   -5.3046   24.9930 C   0  0  0  0  0  0  0  0  0  0  0  0
  -21.2241   -5.4327   22.5878 C   0  0  0  0  0  0  0  0  0  0  0  0
  -26.0000  -10.7857   21.0334 C   0  0  0  0  0  0  0  0  0  0  0  0
  -27.8306  -11.9373   21.4305 C   0  0  0  0  0  0  0  0  0  0  0  0
  -29.1169  -22.8771   20.7423 C   0  0  0  0  0  0  0  0  0  0  0  0
  -28.6868  -23.8122   19.8544 C   0  0  0  0  0  0  0  0  0  0  0  0
  -31.6729  -23.1339   18.8722 C   0  0  0  0  0  0  0  0  0  0  0  0
  -29.0380  -21.7813   22.8787 C   0  0  0  0  0  0  0  0  0  0  0  0
  -28.5525  -22.7289   22.0723 C   0  0  0  0  0  0  0  0  0  0  0  0
  -26.8781  -10.8146   23.4506 C   0  0  0  0  0  0  0  0  0  0  0  0
  -23.4400  -29.9551   22.8205 C   0  0  0  0  0  0  0  0  0  0  0  0
  -21.2090  -28.6385   20.8680 C   0  0  0  0  0  0  0  0  0  0  0  0
  -20.5079  -26.5320   18.2762 C   0  0  0  0  0  0  0  0  0  0  0  0
  -28.7559  -16.2319   17.8395 C   0  0  0  0  0  0  0  0  0  0  0  0
  -24.1131  -33.1985   27.0506 C   0  0  0  0  0  0  0  0  0  0  0  0
  -24.4280  -30.4128   20.5467 C   0  0  0  0  0  0  0  0  0  0  0  0
  -23.5130  -27.6124   20.8023 C   0  0  0  0  0  0  0  0  0  0  0  0
  -29.2958  -23.8972   18.4585 C   0  0  0  0  0  0  0  0  0  0  0  0
  -30.7750  -24.2779   18.4391 C   0  0  0  0  0  0  0  0  0  0  0  0
  -31.5203  -22.6395   20.2919 C   0  0  0  0  0  0  0  0  0  0  0  0
  -23.2706  -31.9280   27.0028 C   0  0  0  0  0  0  0  0  0  0  0  0
  -28.6931  -12.7842   16.5282 C   0  0  0  0  0  0  0  0  0  0  0  0
  -22.9580  -31.5655   25.5587 C   0  0  0  0  0  0  0  0  0  0  0  0
  -27.9994  -12.0073   17.6460 C   0  0  0  0  0  0  0  0  0  0  0  0
  -28.2257  -14.2355   16.4720 C   0  0  0  0  0  0  0  0  0  0  0  0
  -27.6730  -14.1853   18.8850 C   0  0  0  0  0  0  0  0  0  0  0  0
  -24.2443  -31.2543   24.7831 C   0  0  1  0  0  0  0  0  0  0  0  0
  -23.1800  -30.0453   21.3433 C   0  0  1  0  0  0  0  0  0  0  0  0
  -28.1546  -12.7307   18.9949 C   0  0  1  0  0  0  0  0  0  0  0  0
  -27.1588  -18.2406   19.5644 C   0  0  0  0  0  0  0  0  0  0  0  0
  -18.5889  -25.6338   16.9315 C   0  0  0  0  0  0  0  0  0  0  0  0
  -20.4551  -26.7951   23.1796 C   0  0  0  0  0  0  0  0  0  0  0  0
  -19.2548  -25.3384   21.5348 C   0  0  0  0  0  0  0  0  0  0  0  0
  -18.5127  -27.6939   21.8859 C   0  0  0  0  0  0  0  0  0  0  0  0
  -30.2993  -15.5897   19.6767 C   0  0  0  0  0  0  0  0  0  0  0  0
  -21.5813  -27.6742   15.7658 C   0  0  0  0  0  0  0  0  0  0  0  0
  -27.5869  -24.8170   20.0881 C   0  0  0  0  0  0  0  0  0  1  0  0
  -20.6703  -27.2458   20.6465 C   0  0  1  0  0  0  0  0  0  0  0  0
  -19.6555  -26.7131   17.0332 C   0  0  2  0  0  0  0  0  0  0  0  0
  -19.7509  -26.7743   21.8083 C   0  0  0  0  0  0  0  0  0  0  0  0
  -26.3388  -11.2953   19.8462 N   0  0  0  0  0  0  0  0  0  0  0  0
  -27.4556  -11.9907   20.1203 N   0  0  0  0  0  0  0  0  0  0  0  0
  -30.1961  -22.0214   20.4484 N   0  0  0  0  0  0  0  0  0  0  0  0
  -22.6041  -28.7633   20.9321 N   0  0  0  0  0  0  0  0  0  0  0  0
  -28.3411  -14.8864   17.7776 N   0  0  0  0  0  0  0  0  0  0  0  0
  -28.9303  -12.5799   21.8778 N   0  0  0  0  0  0  0  0  0  0  0  0
  -26.1907  -11.6571   24.3350 N   0  0  0  0  0  0  0  0  0  0  0  0
  -23.9280  -31.1214   23.3781 N   0  0  0  0  0  0  0  0  0  0  0  0
  -20.0215  -27.2621   19.3399 N   0  0  0  0  0  0  0  0  0  0  0  0
  -29.4904  -16.6003   18.9874 N   0  0  0  0  0  0  0  0  0  0  0  0
  -20.5041  -26.6521   15.8097 N   0  3  0  0  0  0  0  0  0  0  0  0
  -32.5086  -22.6485   18.1104 O   0  0  0  0  0  0  0  0  0  0  0  0
  -27.4705   -9.8045   23.9004 O   0  0  0  0  0  0  0  0  0  0  0  0
  -23.2131  -28.9055   23.4109 O   0  0  0  0  0  0  0  0  0  0  0  0
  -20.4214  -29.5820   20.9730 O   0  0  0  0  0  0  0  0  0  0  0  0
  -21.5034  -25.8116   18.3020 O   0  0  0  0  0  0  0  0  0  0  0  0
  -28.5146  -17.0316   16.9275 O   0  0  0  0  0  0  0  0  0  0  0  0
  -21.4457   -7.5775   21.5157 O   0  0  0  0  0  0  0  0  0  0  0  0
  -28.1008  -26.1411   19.9505 O   0  0  0  0  0  0  0  0  0  1  0  0
  -20.9052   -4.5757   26.1093 F   0  0  0  0  0  0  0  0  0  0  0  0
  -21.2747   -4.8208   21.3966 F   0  0  0  0  0  0  0  0  0  0  0  0
  1  2  1  0  0  0  0
  1  5  2  0  0  0  0
  2  6  2  0  0  0  0
  3 10  2  0  0  0  0
  3 18  1  0  0  0  0
  4 11  1  0  0  0  0
  4 18  2  0  0  0  0
  5 20  1  0  0  0  0
  6 22  1  0  0  0  0
  7 12  2  0  0  0  0
  7 21  1  0  0  0  0
  8  9  2  0  0  0  0
  8 25  1  0  0  0  0
  9 26  1  0  0  0  0
 10 27  1  0  0  0  0
 11 27  2  0  0  0  0
 12 28  1  0  0  0  0
 13 14  2  0  0  0  0
 13 29  1  0  0  0  0
 14 30  1  0  0  0  0
 15 23  1  0  0  0  0
 15 28  2  0  0  0  0
 16 24  1  0  0  0  0
 16 25  2  0  0  0  0
 17 30  2  0  0  0  0
 17 31  1  0  0  0  0
 18 32  1  0  0  0  0
 19 32  1  0  0  0  0
 19 33  2  0  0  0  0
 19 39  1  0  0  0  0
 20 22  2  0  0  0  0
 20 44  1  0  0  0  0
 21 23  2  0  0  0  0
 21 45  1  0  0  0  0
 22 56  1  0  0  0  0
 23 46  1  0  0  0  0
 24 26  2  0  0  0  0
 24 59  1  0  0  0  0
 25 72  1  0  0  0  0
 26 79  1  0  0  0  0
 27 87  1  0  0  0  0
 28 88  1  0  0  0  0
 29 31  2  0  0  0  0
 29 87  1  0  0  0  0
 30 89  1  0  0  0  0
 31 90  1  0  0  0  0
 32 70  2  0  0  0  0
 33 71  1  0  0  0  0
 33 75  1  0  0  0  0
 34 35  2  0  0  0  0
 34 38  1  0  0  0  0
 34 72  1  0  0  0  0
 35 47  1  0  0  0  0
 35 66  1  0  0  0  0
 36 48  1  0  0  0  0
 36 49  1  0  0  0  0
 36 81  2  0  0  0  0
 37 38  2  0  0  0  0
 39 76  1  0  0  0  0
 39 82  2  0  0  0  0
 40 57  1  0  0  0  0
 40 77  1  0  0  0  0
 40 83  2  0  0  0  0
 41 67  1  0  0  0  0
 41 73  1  0  0  0  0
 41 84  2  0  0  0  0
 42 68  1  0  0  0  0
 42 78  1  0  0  0  0
 42 85  2  0  0  0  0
 43 74  1  0  0  0  0
 43 79  1  0  0  0  0
 43 86  2  0  0  0  0
 44 50  1  0  0  0  0
 45 57  1  0  0  0  0
 46 73  1  0  0  0  0
 47 48  1  0  0  0  0
 49 72  1  0  0  0  0
 50 52  1  0  0  0  0
 51 53  1  0  0  0  0
 51 54  1  0  0  0  0
 52 56  1  0  0  0  0
 53 58  1  0  0  0  0
 54 74  1  0  0  0  0
 55 58  1  0  0  0  0
 55 74  1  0  0  0  0
 56 77  1  0  0  0  0
 57 73  1  0  0  0  0
 58 71  1  0  0  0  0
 60 68  1  0  0  0  0
 61 69  1  0  0  0  0
 62 69  1  0  0  0  0
 63 69  1  0  0  0  0
 64 79  1  0  0  0  0
 65 80  1  0  0  0  0
 66 88  1  0  0  0  0
 67 69  1  0  0  0  0
 67 78  1  0  0  0  0
 68 80  1  0  0  0  0
 70 71  1  0  0  0  0
M  CHG  1  80   1
M  ISO  4  43 100  66 101  79 100  88 101
M  END
> <Batch ID>
0114

> <Smiles>
C=CC1=C([101CH2:1][101O:1]c2ccc3c(c2)CN(C(=O)C(NC(=O)C(C)NC)C(C)(C)C)C(C(=O)NC2CCCc4ccccc42)C3)CCC(=O)CN1c1ccc([100N:0](C)[100C:0](=O)N2CCCC(n3nc(-c4ccc(Oc5ccc(F)cc5F)cc4)c(C(N)=O)c3N)C2)c(C)c1

> <Shape>
0.361

> <Color>
0.095

> <Negative vol penalty>
0.000

$$$$

  -OEChem-04052301373D

 85 94  0     1  0  0  0  0  0999 V2000
  -20.4928  -28.3318   16.9476 C   0  0  0  0  0  0  0  0  0  0  0  0
  -21.2999  -27.4745   17.6886 C   0  0  0  0  0  0  0  0  0  0  0  0
  -23.5499   -9.5366   20.9363 C   0  0  0  0  0  0  0  0  0  0  0  0
  -24.0943  -10.3578   23.1423 C   0  0  0  0  0  0  0  0  0  0  0  0
  -20.7552  -29.7011   16.9396 C   0  0  0  0  0  0  0  0  0  0  0  0
  -22.3705  -27.9858   18.4211 C   0  0  0  0  0  0  0  0  0  0  0  0
  -24.4526  -25.9487   23.8082 C   0  0  0  0  0  0  0  0  0  0  0  0
  -22.9466   -8.4140   21.5031 C   0  0  0  0  0  0  0  0  0  0  0  0
  -23.4910   -9.2351   23.7091 C   0  0  0  0  0  0  0  0  0  0  0  0
  -25.5149  -25.1119   24.1475 C   0  0  0  0  0  0  0  0  0  0  0  0
  -20.0127   -7.6522   23.0015 C   0  0  0  0  0  0  0  0  0  0  0  0
  -18.7722   -7.2597   22.4990 C   0  0  0  0  0  0  0  0  0  0  0  0
  -28.9649  -18.6884   21.8795 C   0  0  0  0  0  0  0  0  0  0  0  0
  -26.9015  -27.0447   24.5484 C   0  0  0  0  0  0  0  0  0  0  0  0
  -31.3055  -18.0467   21.6825 C   0  0  0  0  0  0  0  0  0  0  0  0
  -19.7010   -5.1172   21.8793 C   0  0  0  0  0  0  0  0  0  0  0  0
  -24.1238  -10.5085   21.7559 C   0  0  0  0  0  0  0  0  0  0  0  0
  -29.3990  -19.8575   22.4750 C   0  0  0  0  0  0  0  0  0  0  0  0
  -24.1363  -12.8985   20.8641 C   0  0  0  0  0  0  0  0  0  0  0  0
  -21.8238  -30.2307   17.6801 C   0  0  0  0  0  0  0  0  0  0  0  0
  -24.6103  -27.3420   23.8259 C   0  0  0  0  0  0  0  0  0  0  0  0
  -22.6483  -29.3634   18.4219 C   0  0  0  0  0  0  0  0  0  0  0  0
  -25.8389  -27.8970   24.2114 C   0  0  0  0  0  0  0  0  0  0  0  0
  -30.7451  -20.1401   22.6814 C   0  0  0  0  0  0  0  0  0  0  0  0
  -31.7165  -19.2386   22.2878 C   0  0  0  0  0  0  0  0  0  0  0  0
  -29.9406  -17.7741   21.4801 C   0  0  0  0  0  0  0  0  0  0  0  0
  -22.9171   -8.2632   22.8895 C   0  0  0  0  0  0  0  0  0  0  0  0
  -26.7404  -25.6598   24.5149 C   0  0  0  0  0  0  0  0  0  0  0  0
  -21.0975   -6.7772   22.9429 C   0  0  0  0  0  0  0  0  0  0  0  0
  -18.6163   -5.9922   21.9379 C   0  0  0  0  0  0  0  0  0  0  0  0
  -20.9416   -5.5097   22.3818 C   0  0  0  0  0  0  0  0  0  0  0  0
  -24.7477  -11.6682   21.1710 C   0  0  0  0  0  0  0  0  0  0  0  0
  -25.1471  -13.6609   20.3318 C   0  0  0  0  0  0  0  0  0  0  0  0
  -28.6056  -20.9788   22.9864 C   0  0  0  0  0  0  0  0  0  0  0  0
  -22.7762  -13.3151   21.0443 C   0  0  0  0  0  0  0  0  0  0  0  0
  -24.4327  -29.6475   21.6449 C   0  0  0  0  0  0  0  0  0  0  0  0
  -29.2775  -23.1755   24.0987 C   0  0  0  0  0  0  0  0  0  0  0  0
  -24.8076  -31.5800   24.2231 C   0  0  0  0  0  0  0  0  0  0  0  0
  -25.9346  -31.9564   27.4223 C   0  0  0  0  0  0  0  0  0  0  0  0
  -30.3882  -15.5394   20.4068 C   0  0  0  0  0  0  0  0  0  0  0  0
  -22.0970  -31.7119   17.6026 C   0  0  0  0  0  0  0  0  0  0  0  0
  -23.4468  -28.2313   23.4830 C   0  0  0  0  0  0  0  0  0  0  0  0
  -26.0538  -29.3868   24.2661 C   0  0  0  0  0  0  0  0  0  0  0  0
  -30.9023  -21.4627   23.3397 C   0  0  0  0  0  0  0  0  0  0  0  0
  -23.0235  -32.2189   18.7049 C   0  0  0  0  0  0  0  0  0  0  0  0
  -29.8204  -12.3781   18.8701 C   0  0  0  0  0  0  0  0  0  0  0  0
  -24.2326  -31.3004   18.8503 C   0  0  0  0  0  0  0  0  0  0  0  0
  -28.3998  -12.0128   19.3065 C   0  0  0  0  0  0  0  0  0  0  0  0
  -30.5861  -13.0997   19.9777 C   0  0  0  0  0  0  0  0  0  0  0  0
  -28.4841  -13.9070   20.9774 C   0  0  0  0  0  0  0  0  0  0  0  0
  -23.8041  -29.8831   19.2491 C   0  0  1  0  0  0  0  0  0  0  0  0
  -23.8724  -29.6274   23.0390 C   0  0  1  0  0  0  0  0  0  0  0  0
  -27.6520  -13.2360   19.8724 C   0  0  2  0  0  0  0  0  0  0  0  0
  -33.1641  -19.5161   22.4964 C   0  0  0  0  0  0  0  0  0  0  0  0
  -26.1356  -33.6617   29.2523 C   0  0  0  0  0  0  0  0  0  0  0  0
  -27.1451  -32.8783   22.7532 C   0  0  0  0  0  0  0  0  0  0  0  0
  -27.8768  -33.8668   24.9340 C   0  0  0  0  0  0  0  0  0  0  0  0
  -25.6591  -34.4799   23.9703 C   0  0  0  0  0  0  0  0  0  0  0  0
  -24.2416  -30.3619   29.2527 C   0  0  0  0  0  0  0  0  0  0  0  0
  -27.8275  -23.5658   24.2159 C   0  0  0  0  0  0  0  0  0  1  0  0
  -25.9892  -32.1734   24.9516 C   0  0  1  0  0  0  0  0  0  0  0  0
  -25.2823  -32.5528   28.6565 C   0  0  2  0  0  0  0  0  0  0  0  0
  -26.6644  -33.3215   24.1495 C   0  0  0  0  0  0  0  0  0  0  0  0
  -26.0463  -11.6458   20.8594 N   0  0  0  0  0  0  0  0  0  0  0  0
  -26.2591  -12.8715   20.3511 N   0  0  0  0  0  0  0  0  0  0  0  0
  -29.5229  -21.9304   23.5001 N   0  0  0  0  0  0  0  0  0  0  0  0
  -24.8877  -30.2144   23.9157 N   0  0  0  0  0  0  0  0  0  0  0  0
  -29.8190  -14.2495   20.4619 N   0  0  0  0  0  0  0  0  0  0  0  0
  -25.1843  -14.9228   19.8536 N   0  0  0  0  0  0  0  0  0  0  0  0
  -21.8681  -12.4070   21.6056 N   0  0  0  0  0  0  0  0  0  0  0  0
  -29.5532  -16.5581   20.8644 N   0  0  0  0  0  0  0  0  0  0  0  0
  -23.4819  -29.8303   20.6590 N   0  0  0  0  0  0  0  0  0  0  0  0
  -25.4998  -32.5711   26.2672 N   0  0  0  0  0  0  0  0  0  0  0  0
  -25.0831  -31.5033   29.6956 N   0  3  0  0  0  0  0  0  0  0  0  0
  -27.3889  -21.0029   22.9375 O   0  0  0  0  0  0  0  0  0  0  0  0
  -22.3743  -14.4530   20.7020 O   0  0  0  0  0  0  0  0  0  0  0  0
  -25.6385  -29.5089   21.4764 O   0  0  0  0  0  0  0  0  0  0  0  0
  -30.1630  -23.9260   24.5121 O   0  0  0  0  0  0  0  0  0  0  0  0
  -23.8458  -32.3000   23.9436 O   0  0  0  0  0  0  0  0  0  0  0  0
  -26.7512  -31.0395   27.4778 O   0  0  0  0  0  0  0  0  0  0  0  0
  -31.5220  -15.7297   19.9594 O   0  0  0  0  0  0  0  0  0  0  0  0
  -22.3283   -7.1680   23.4429 O   0  0  0  0  0  0  0  0  0  0  0  0
  -27.7791  -24.8453   24.8460 O   0  0  0  0  0  0  0  0  0  1  0  0
  -17.4245   -5.6149   21.4568 F   0  0  0  0  0  0  0  0  0  0  0  0
  -21.9797   -4.6642   22.3238 F   0  0  0  0  0  0  0  0  0  0  0  0
  1  2  1  0  0  0  0
  1  5  2  0  0  0  0
  2  6  2  0  0  0  0
  3  8  2  0  0  0  0
  3 17  1  0  0  0  0
  4  9  1  0  0  0  0
  4 17  2  0  0  0  0
  5 20  1  0  0  0  0
  6 22  1  0  0  0  0
  7 10  2  0  0  0  0
  7 21  1  0  0  0  0
  8 27  1  0  0  0  0
  9 27  2  0  0  0  0
 10 28  1  0  0  0  0
 11 12  2  0  0  0  0
 11 29  1  0  0  0  0
 12 30  1  0  0  0  0
 13 18  1  0  0  0  0
 13 26  2  0  0  0  0
 14 23  1  0  0  0  0
 14 28  2  0  0  0  0
 15 25  2  0  0  0  0
 15 26  1  0  0  0  0
 16 30  2  0  0  0  0
 16 31  1  0  0  0  0
 17 32  1  0  0  0  0
 18 24  2  0  0  0  0
 18 34  1  0  0  0  0
 19 32  1  0  0  0  0
 19 33  2  0  0  0  0
 19 35  1  0  0  0  0
 20 22  2  0  0  0  0
 20 41  1  0  0  0  0
 21 23  2  0  0  0  0
 21 42  1  0  0  0  0
 22 51  1  0  0  0  0
 23 43  1  0  0  0  0
 24 25  1  0  0  0  0
 24 44  1  0  0  0  0
 25 54  1  0  0  0  0
 26 71  1  0  0  0  0
 27 82  1  0  0  0  0
 28 83  1  0  0  0  0
 29 31  2  0  0  0  0
 29 82  1  0  0  0  0
 30 84  1  0  0  0  0
 31 85  1  0  0  0  0
 32 64  2  0  0  0  0
 33 65  1  0  0  0  0
 33 69  1  0  0  0  0
 34 66  1  0  0  0  0
 34 75  2  0  0  0  0
 35 70  1  0  0  0  0
 35 76  2  0  0  0  0
 36 52  1  0  0  0  0
 36 72  1  0  0  0  0
 36 77  2  0  0  0  0
 37 60  1  0  0  0  0
 37 66  1  0  0  0  0
 37 78  2  0  0  0  0
 38 61  1  0  0  0  0
 38 67  1  0  0  0  0
 38 79  2  0  0  0  0
 39 62  1  0  0  0  0
 39 73  1  0  0  0  0
 39 80  2  0  0  0  0
 40 68  1  0  0  0  0
 40 71  1  0  0  0  0
 40 81  2  0  0  0  0
 41 45  1  0  0  0  0
 42 52  1  0  0  0  0
 43 67  1  0  0  0  0
 44 66  1  0  0  0  0
 45 47  1  0  0  0  0
 46 48  1  0  0  0  0
 46 49  1  0  0  0  0
 47 51  1  0  0  0  0
 48 53  1  0  0  0  0
 49 68  1  0  0  0  0
 50 53  1  0  0  0  0
 50 68  1  0  0  0  0
 51 72  1  0  0  0  0
 52 67  1  0  0  0  0
 53 65  1  0  0  0  0
 55 62  1  0  0  0  0
 56 63  1  0  0  0  0
 57 63  1  0  0  0  0
 58 63  1  0  0  0  0
 59 74  1  0  0  0  0
 60 83  1  0  0  0  0
 61 63  1  0  0  0  0
 61 73  1  0  0  0  0
 62 74  1  0  0  0  0
 64 65  1  0  0  0  0
M  CHG  1  74   1
M  ISO  4  40 100  60 101  71 100  83 101
M  END
> <Batch ID>
0114

> <Smiles>
CNC(C)C(=O)NC(C(=O)N1Cc2cc([101O:1][101CH2:1]C(=O)N3Cc4c(C)cc([100NH:0][100C:0](=O)N5CCCC(n6nc(-c7ccc(Oc8ccc(F)cc8F)cc7)c(C(N)=O)c6N)C5)cc4C3=O)ccc2CC1C(=O)NC1CCCc2ccccc21)C(C)(C)C

> <Shape>
0.263

> <Color>
0.142

> <Negative vol penalty>
0.000

$$$$

  -OEChem-04052301373D

 85 93  0     1  0  0  0  0  0999 V2000
  -25.8799  -31.4754   20.7778 C   0  0  0  0  0  0  0  0  0  0  0  0
  -25.7950  -30.1087   20.5321 C   0  0  0  0  0  0  0  0  0  0  0  0
  -23.1284   -9.7714   19.9856 C   0  0  0  0  0  0  0  0  0  0  0  0
  -23.8976   -9.8599   22.2741 C   0  0  0  0  0  0  0  0  0  0  0  0
  -24.9948  -32.0783   21.6706 C   0  0  0  0  0  0  0  0  0  0  0  0
  -24.8256  -29.3439   21.1800 C   0  0  0  0  0  0  0  0  0  0  0  0
  -22.4712  -26.1342   18.0495 C   0  0  0  0  0  0  0  0  0  0  0  0
  -22.4258   -8.5997   20.2670 C   0  0  0  0  0  0  0  0  0  0  0  0
  -23.1950   -8.6883   22.5556 C   0  0  0  0  0  0  0  0  0  0  0  0
  -23.1513  -24.9670   17.7047 C   0  0  0  0  0  0  0  0  0  0  0  0
  -19.9990   -7.7947   23.1940 C   0  0  0  0  0  0  0  0  0  0  0  0
  -19.2491   -7.7571   24.3694 C   0  0  0  0  0  0  0  0  0  0  0  0
  -27.4230  -18.5101   21.2902 C   0  0  0  0  0  0  0  0  0  0  0  0
  -29.5792  -17.4598   19.8652 C   0  0  0  0  0  0  0  0  0  0  0  0
  -21.8623  -23.7417   19.3344 C   0  0  0  0  0  0  0  0  0  0  0  0
  -20.5598   -5.8819   25.1457 C   0  0  0  0  0  0  0  0  0  0  0  0
  -23.8643  -10.4015   20.9891 C   0  0  0  0  0  0  0  0  0  0  0  0
  -28.1451  -17.4357   21.8095 C   0  0  0  0  0  0  0  0  0  0  0  0
  -29.2231  -16.9105   21.0970 C   0  0  0  0  0  0  0  0  0  0  0  0
  -24.1183  -12.9333   20.8067 C   0  0  0  0  0  0  0  0  0  0  0  0
  -24.0079  -31.3221   22.3224 C   0  0  0  0  0  0  0  0  0  0  0  0
  -21.4875  -26.1161   19.0487 C   0  0  0  0  0  0  0  0  0  0  0  0
  -23.9274  -29.9370   22.0834 C   0  0  0  0  0  0  0  0  0  0  0  0
  -21.1694  -24.9095   19.6883 C   0  0  0  0  0  0  0  0  0  0  0  0
  -22.4591   -8.0582   21.5520 C   0  0  0  0  0  0  0  0  0  0  0  0
  -22.8489  -23.7711   18.3492 C   0  0  0  0  0  0  0  0  0  0  0  0
  -21.0294   -6.8759   22.9943 C   0  0  0  0  0  0  0  0  0  0  0  0
  -27.7789  -19.0594   20.0584 C   0  0  0  0  0  0  0  0  0  0  0  0
  -19.5294   -6.8007   25.3453 C   0  0  0  0  0  0  0  0  0  0  0  0
  -28.8570  -18.5343   19.3459 C   0  0  0  0  0  0  0  0  0  0  0  0
  -21.3097   -5.9195   23.9702 C   0  0  0  0  0  0  0  0  0  0  0  0
  -24.5907  -11.6115   20.6988 C   0  0  0  0  0  0  0  0  0  0  0  0
  -25.1823  -13.7108   20.4198 C   0  0  0  0  0  0  0  0  0  0  0  0
  -27.6915  -17.5948   24.2145 C   0  0  0  0  0  0  0  0  0  0  0  0
  -27.7445  -16.8846   23.0980 C   0  0  0  0  0  0  0  0  0  0  0  0
  -24.9263  -20.8663   18.8115 C   0  0  0  0  0  0  0  0  0  0  0  0
  -24.2267  -21.9928   18.9896 C   0  0  0  0  0  0  0  0  0  1  0  0
  -30.0032  -15.7876   21.6036 C   0  0  0  0  0  0  0  0  0  0  0  0
  -22.8326  -13.4151   21.2197 C   0  0  0  0  0  0  0  0  0  0  0  0
  -30.6570  -14.8289   20.6834 C   0  0  0  0  0  0  0  0  0  0  0  0
  -21.1362  -27.5246   21.8764 C   0  0  0  0  0  0  0  0  0  0  0  0
  -18.2031  -26.1437   21.7635 C   0  0  0  0  0  0  0  0  0  0  0  0
  -16.2134  -23.6660   20.5190 C   0  0  0  0  0  0  0  0  0  0  0  0
  -23.1040  -32.0097   23.3149 C   0  0  0  0  0  0  0  0  0  0  0  0
  -20.7442  -27.3783   19.3903 C   0  0  0  0  0  0  0  0  0  0  0  0
  -20.1074  -24.8326   20.7536 C   0  0  0  0  0  0  0  0  0  0  0  0
  -21.8646  -31.1951   23.6762 C   0  0  0  0  0  0  0  0  0  0  0  0
  -29.5546  -12.4689   18.2194 C   0  0  0  0  0  0  0  0  0  0  0  0
  -22.2452  -29.7486   23.9756 C   0  0  0  0  0  0  0  0  0  0  0  0
  -28.1399  -12.1153   18.6771 C   0  0  0  0  0  0  0  0  0  0  0  0
  -30.4764  -12.7303   19.4061 C   0  0  0  0  0  0  0  0  0  0  0  0
  -28.5522  -13.4301   20.8048 C   0  0  0  0  0  0  0  0  0  0  0  0
  -22.8735  -29.0780   22.7480 C   0  0  1  0  0  0  0  0  0  0  0  0
  -20.1215  -27.3468   20.7826 C   0  0  1  0  0  0  0  0  0  0  0  0
  -27.5851  -13.1862   19.6331 C   0  0  2  0  0  0  0  0  0  0  0  0
  -13.8711  -22.7735   20.6390 C   0  0  0  0  0  0  0  0  0  0  0  0
  -18.8109  -24.9224   24.4927 C   0  0  0  0  0  0  0  0  0  0  0  0
  -16.9117  -23.3327   24.1266 C   0  0  0  0  0  0  0  0  0  0  0  0
  -16.4787  -25.7870   24.2327 C   0  0  0  0  0  0  0  0  0  0  0  0
  -15.7667  -24.1248   17.6296 C   0  0  0  0  0  0  0  0  0  0  0  0
  -25.6933  -20.1914   19.9024 C   0  0  0  0  0  0  0  0  0  0  0  0
  -17.6281  -24.8179   22.2001 C   0  0  1  0  0  0  0  0  0  0  0  0
  -14.8259  -23.7016   19.9043 C   0  0  2  0  0  0  0  0  0  0  0  0
  -17.4788  -24.7165   23.7444 C   0  0  0  0  0  0  0  0  0  0  0  0
  -25.8563  -11.5491   20.2764 N   0  0  0  0  0  0  0  0  0  0  0  0
  -30.1771  -15.5562   22.8747 N   0  0  0  0  0  0  0  0  0  0  0  0
  -26.1881  -12.8414   20.1153 N   0  0  0  0  0  0  0  0  0  0  0  0
  -29.9036  -13.7243   20.3115 N   0  0  0  0  0  0  0  0  0  0  0  0
  -19.4131  -26.0949   21.0568 N   0  0  0  0  0  0  0  0  0  0  0  0
  -25.3463  -15.0466   20.3138 N   0  0  0  0  0  0  0  0  0  0  0  0
  -21.8542  -12.4800   21.5840 N   0  0  0  0  0  0  0  0  0  0  0  0
  -21.8492  -28.7055   21.7958 N   0  0  0  0  0  0  0  0  0  0  0  0
  -16.3776  -24.6540   21.4668 N   0  0  0  0  0  0  0  0  0  0  0  0
  -14.8816  -23.2831   18.4751 N   0  3  0  0  0  0  0  0  0  0  0  0
  -22.5543  -14.6378   21.2487 O   0  0  0  0  0  0  0  0  0  0  0  0
  -31.7988  -15.1150   20.3478 O   0  0  0  0  0  0  0  0  0  0  0  0
  -21.2618  -26.6555   22.7312 O   0  0  0  0  0  0  0  0  0  0  0  0
  -17.5973  -27.1839   22.0331 O   0  0  0  0  0  0  0  0  0  0  0  0
  -17.0651  -22.8417   20.1939 O   0  0  0  0  0  0  0  0  0  0  0  0
  -21.7735   -6.9150   21.8271 O   0  0  0  0  0  0  0  0  0  0  0  0
  -23.5117  -22.6305   18.0150 O   0  0  0  0  0  0  0  0  0  1  0  0
  -27.0682  -20.1147   19.5492 O   0  0  0  0  0  0  0  0  0  0  0  0
  -18.8102   -6.7657   26.4747 F   0  0  0  0  0  0  0  0  0  0  0  0
  -29.2036  -19.0574   18.1618 F   0  0  0  0  0  0  0  0  0  0  0  0
  -22.2991   -5.0349   23.7845 F   0  0  0  0  0  0  0  0  0  0  0  0
  1  2  1  0  0  0  0
  1  5  2  0  0  0  0
  2  6  2  0  0  0  0
  3  8  2  0  0  0  0
  3 17  1  0  0  0  0
  4  9  1  0  0  0  0
  4 17  2  0  0  0  0
  5 21  1  0  0  0  0
  6 23  1  0  0  0  0
  7 10  2  0  0  0  0
  7 22  1  0  0  0  0
  8 25  1  0  0  0  0
  9 25  2  0  0  0  0
 10 26  1  0  0  0  0
 11 12  2  0  0  0  0
 11 27  1  0  0  0  0
 12 29  1  0  0  0  0
 13 18  1  0  0  0  0
 13 28  2  0  0  0  0
 14 19  1  0  0  0  0
 14 30  2  0  0  0  0
 15 24  1  0  0  0  0
 15 26  2  0  0  0  0
 16 29  2  0  0  0  0
 16 31  1  0  0  0  0
 17 32  1  0  0  0  0
 18 19  2  0  0  0  0
 18 35  1  0  0  0  0
 19 38  1  0  0  0  0
 20 32  1  0  0  0  0
 20 33  2  0  0  0  0
 20 39  1  0  0  0  0
 21 23  2  0  0  0  0
 21 44  1  0  0  0  0
 22 24  2  0  0  0  0
 22 45  1  0  0  0  0
 23 53  1  0  0  0  0
 24 46  1  0  0  0  0
 25 80  1  0  0  0  0
 26 81  1  0  0  0  0
 27 31  2  0  0  0  0
 27 80  1  0  0  0  0
 28 30  1  0  0  0  0
 28 82  1  0  0  0  0
 29 83  1  0  0  0  0
 30 84  1  0  0  0  0
 31 85  1  0  0  0  0
 32 65  2  0  0  0  0
 33 67  1  0  0  0  0
 33 70  1  0  0  0  0
 34 35  2  0  0  0  0
 36 37  2  0  0  0  0
 36 61  1  0  0  0  0
 37 81  1  0  0  0  0
 38 40  1  0  0  0  0
 38 66  2  0  0  0  0
 39 71  1  0  0  0  0
 39 75  2  0  0  0  0
 40 68  1  0  0  0  0
 40 76  2  0  0  0  0
 41 54  1  0  0  0  0
 41 72  1  0  0  0  0
 41 77  2  0  0  0  0
 42 62  1  0  0  0  0
 42 69  1  0  0  0  0
 42 78  2  0  0  0  0
 43 63  1  0  0  0  0
 43 73  1  0  0  0  0
 43 79  2  0  0  0  0
 44 47  1  0  0  0  0
 45 54  1  0  0  0  0
 46 69  1  0  0  0  0
 47 49  1  0  0  0  0
 48 50  1  0  0  0  0
 48 51  1  0  0  0  0
 49 53  1  0  0  0  0
 50 55  1  0  0  0  0
 51 68  1  0  0  0  0
 52 55  1  0  0  0  0
 52 68  1  0  0  0  0
 53 72  1  0  0  0  0
 54 69  1  0  0  0  0
 55 67  1  0  0  0  0
 56 63  1  0  0  0  0
 57 64  1  0  0  0  0
 58 64  1  0  0  0  0
 59 64  1  0  0  0  0
 60 74  1  0  0  0  0
 61 82  1  0  0  0  0
 62 64  1  0  0  0  0
 62 73  1  0  0  0  0
 63 74  1  0  0  0  0
 65 67  1  0  0  0  0
M  CHG  1  74   1
M  ISO  4  37 101  38 100  40 100  81 101
M  END
> <Batch ID>
0114

> <Smiles>
C=Cc1cc(OCC=[101CH:1][101O:1]c2ccc3c(c2)CN(C(=O)C(NC(=O)C(C)NC)C(C)(C)C)C(C(=O)NC2CCCc4ccccc42)C3)c(F)cc1[100C:0](=N)[100C:0](=O)N1CCCC(n2nc(-c3ccc(Oc4ccc(F)cc4F)cc3)c(C(N)=O)c2N)C1

> <Shape>
0.317

> <Color>
0.206

> <Negative vol penalty>
0.000

$$$$

  -OEChem-04052301373D

 86 94  0     1  0  0  0  0  0999 V2000
  -17.0239  -28.9944   23.6287 C   0  0  0  0  0  0  0  0  0  0  0  0
  -18.1612  -28.6573   22.9018 C   0  0  0  0  0  0  0  0  0  0  0  0
  -24.4344   -9.2382   21.8854 C   0  0  0  0  0  0  0  0  0  0  0  0
  -23.3360   -9.4403   19.7431 C   0  0  0  0  0  0  0  0  0  0  0  0
  -16.9881  -30.1858   24.3520 C   0  0  0  0  0  0  0  0  0  0  0  0
  -19.2630  -29.5120   22.8970 C   0  0  0  0  0  0  0  0  0  0  0  0
  -23.6399  -27.0429   23.5223 C   0  0  0  0  0  0  0  0  0  0  0  0
  -23.4543   -8.3380   22.3031 C   0  0  0  0  0  0  0  0  0  0  0  0
  -22.3558   -8.5400   20.1608 C   0  0  0  0  0  0  0  0  0  0  0  0
  -24.1600  -26.3779   22.4128 C   0  0  0  0  0  0  0  0  0  0  0  0
  -22.7272   -5.0654   21.8620 C   0  0  0  0  0  0  0  0  0  0  0  0
  -23.1468   -3.9099   22.5210 C   0  0  0  0  0  0  0  0  0  0  0  0
  -31.5911  -21.8933   21.7336 C   0  0  0  0  0  0  0  0  0  0  0  0
  -29.4151  -20.8252   20.3527 C   0  0  0  0  0  0  0  0  0  0  0  0
  -25.6768  -28.2143   22.0307 C   0  0  0  0  0  0  0  0  0  0  0  0
  -21.8617   -4.5512   24.4637 C   0  0  0  0  0  0  0  0  0  0  0  0
  -24.3752   -9.7894   20.6054 C   0  0  0  0  0  0  0  0  0  0  0  0
  -31.3676  -20.5165   21.7418 C   0  0  0  0  0  0  0  0  0  0  0  0
  -30.2796  -19.9824   21.0513 C   0  0  0  0  0  0  0  0  0  0  0  0
  -26.5986  -10.4171   19.5236 C   0  0  0  0  0  0  0  0  0  0  0  0
  -18.0935  -31.0509   24.3639 C   0  0  0  0  0  0  0  0  0  0  0  0
  -24.1276  -28.3055   23.8886 C   0  0  0  0  0  0  0  0  0  0  0  0
  -19.2414  -30.7167   23.6201 C   0  0  0  0  0  0  0  0  0  0  0  0
  -25.1630  -28.8921   23.1469 C   0  0  0  0  0  0  0  0  0  0  0  0
  -22.4150   -7.9888   21.4408 C   0  0  0  0  0  0  0  0  0  0  0  0
  -25.1766  -26.9649   21.6651 C   0  0  0  0  0  0  0  0  0  0  0  0
  -21.8749   -5.9639   22.5038 C   0  0  0  0  0  0  0  0  0  0  0  0
  -30.7266  -22.7361   21.0351 C   0  0  0  0  0  0  0  0  0  0  0  0
  -29.6386  -22.2021   20.3446 C   0  0  0  0  0  0  0  0  0  0  0  0
  -22.7141   -3.6528   23.8219 C   0  0  0  0  0  0  0  0  0  0  0  0
  -21.4421   -5.7068   23.8047 C   0  0  0  0  0  0  0  0  0  0  0  0
  -25.3871  -10.7199   20.1736 C   0  0  0  0  0  0  0  0  0  0  0  0
  -27.1987  -11.6374   19.3301 C   0  0  0  0  0  0  0  0  0  0  0  0
  -32.4865  -19.7679   23.7919 C   0  0  0  0  0  0  0  0  0  0  0  0
  -32.2973  -19.6735   22.4852 C   0  0  0  0  0  0  0  0  0  0  0  0
  -30.0078  -18.5495   21.0315 C   0  0  0  0  0  0  0  0  0  0  0  0
  -28.8728  -17.9658   21.4641 C   0  0  0  0  0  0  0  0  0  0  0  0
  -26.8018  -24.3423   19.8082 C   0  0  0  0  0  0  0  0  0  0  0  0
  -26.2610  -25.0938   20.7741 C   0  0  0  0  0  0  0  0  0  1  0  0
  -27.1337   -9.1465   19.1299 C   0  0  0  0  0  0  0  0  0  0  0  0
  -28.7440  -16.4978   21.3682 C   0  0  0  0  0  0  0  0  0  0  0  0
  -22.8670  -31.2134   24.1308 C   0  0  0  0  0  0  0  0  0  0  0  0
  -25.7759  -31.9473   25.3646 C   0  0  0  0  0  0  0  0  0  0  0  0
  -29.0972  -31.1979   25.5970 C   0  0  0  0  0  0  0  0  0  0  0  0
  -17.9904  -32.3503   25.1224 C   0  0  0  0  0  0  0  0  0  0  0  0
  -23.5744  -28.9979   25.1039 C   0  0  0  0  0  0  0  0  0  0  0  0
  -25.7354  -30.2370   23.5103 C   0  0  0  0  0  0  0  0  0  0  0  0
  -19.3394  -33.0212   25.3678 C   0  0  0  0  0  0  0  0  0  0  0  0
  -25.4090  -16.3223   19.8586 C   0  0  0  0  0  0  0  0  0  0  0  0
  -20.1705  -33.0325   24.0887 C   0  0  0  0  0  0  0  0  0  0  0  0
  -25.1924  -14.8125   19.7998 C   0  0  0  0  0  0  0  0  0  0  0  0
  -26.2181  -16.7363   21.0868 C   0  0  0  0  0  0  0  0  0  0  0  0
  -27.3037  -14.5098   21.1529 C   0  0  0  0  0  0  0  0  0  0  0  0
  -20.4658  -31.6059   23.6101 C   0  0  1  0  0  0  0  0  0  0  0  0
  -23.7916  -30.5078   25.0821 C   0  0  1  0  0  0  0  0  0  0  0  0
  -26.5321  -14.0661   19.9002 C   0  0  1  0  0  0  0  0  0  0  0  0
  -31.2291  -32.0018   26.6487 C   0  0  0  0  0  0  0  0  0  0  0  0
  -25.9498  -34.1840   23.2965 C   0  0  0  0  0  0  0  0  0  0  0  0
  -28.4088  -34.3158   23.7482 C   0  0  0  0  0  0  0  0  0  0  0  0
  -26.7794  -34.8017   25.5734 C   0  0  0  0  0  0  0  0  0  0  0  0
  -29.4309  -28.6821   27.1197 C   0  0  0  0  0  0  0  0  0  0  0  0
  -30.3441  -24.8412   22.0733 C   0  0  0  0  0  0  0  0  0  0  0  0
  -27.4184  -23.0032   20.0538 C   0  0  0  0  0  0  0  0  0  0  0  0
  -27.0918  -32.4172   24.7933 C   0  0  1  0  0  0  0  0  0  0  0  0
  -30.0233  -31.0867   26.7947 C   0  0  2  0  0  0  0  0  0  0  0  0
  -27.0455  -33.9052   24.3446 C   0  0  0  0  0  0  0  0  0  0  0  0
  -25.2257  -12.0297   20.3794 N   0  0  0  0  0  0  0  0  0  0  0  0
  -26.3436  -12.5608   19.8557 N   0  0  0  0  0  0  0  0  0  0  0  0
  -27.4671  -15.9673   21.1929 N   0  0  0  0  0  0  0  0  0  0  0  0
  -25.1570  -30.8770   24.7033 N   0  0  0  0  0  0  0  0  0  0  0  0
  -28.3691  -11.9998   18.7634 N   0  0  0  0  0  0  0  0  0  0  0  0
  -26.3868   -7.9929   19.4049 N   0  0  0  0  0  0  0  0  0  0  0  0
  -21.5259  -31.0171   24.4000 N   0  0  0  0  0  0  0  0  0  0  0  0
  -28.1023  -32.1295   25.8055 N   0  0  0  0  0  0  0  0  0  0  0  0
  -30.5113  -29.6865   26.9439 N   0  3  0  0  0  0  0  0  0  0  0  0
  -28.2488   -9.0361   18.5662 O   0  0  0  0  0  0  0  0  0  0  0  0
  -29.7759  -15.8296   21.4542 O   0  0  0  0  0  0  0  0  0  0  0  0
  -23.3356  -31.8874   23.2209 O   0  0  0  0  0  0  0  0  0  0  0  0
  -25.3175  -32.5045   26.3651 O   0  0  0  0  0  0  0  0  0  0  0  0
  -29.2440  -30.5281   24.5770 O   0  0  0  0  0  0  0  0  0  0  0  0
  -21.4585   -7.1102   21.8479 O   0  0  0  0  0  0  0  0  0  0  0  0
  -25.6856  -26.3183   20.5812 O   0  0  0  0  0  0  0  0  0  1  0  0
  -30.9554  -24.0790   21.0343 O   0  0  0  0  0  0  0  0  0  0  0  0
  -28.7826  -23.0198   19.6542 O   0  0  0  0  0  0  0  0  0  0  0  0
  -23.1159   -2.5424   24.4540 F   0  0  0  0  0  0  0  0  0  0  0  0
  -20.6222   -6.5656   24.4260 F   0  0  0  0  0  0  0  0  0  0  0  0
  1  2  1  0  0  0  0
  1  5  2  0  0  0  0
  2  6  2  0  0  0  0
  3  8  2  0  0  0  0
  3 17  1  0  0  0  0
  4  9  1  0  0  0  0
  4 17  2  0  0  0  0
  5 21  1  0  0  0  0
  6 23  1  0  0  0  0
  7 10  2  0  0  0  0
  7 22  1  0  0  0  0
  8 25  1  0  0  0  0
  9 25  2  0  0  0  0
 10 26  1  0  0  0  0
 11 12  2  0  0  0  0
 11 27  1  0  0  0  0
 12 30  1  0  0  0  0
 13 18  1  0  0  0  0
 13 28  2  0  0  0  0
 14 19  1  0  0  0  0
 14 29  2  0  0  0  0
 15 24  1  0  0  0  0
 15 26  2  0  0  0  0
 16 30  2  0  0  0  0
 16 31  1  0  0  0  0
 17 32  1  0  0  0  0
 18 19  2  0  0  0  0
 18 35  1  0  0  0  0
 19 36  1  0  0  0  0
 20 32  1  0  0  0  0
 20 33  2  0  0  0  0
 20 40  1  0  0  0  0
 21 23  2  0  0  0  0
 21 45  1  0  0  0  0
 22 24  2  0  0  0  0
 22 46  1  0  0  0  0
 23 54  1  0  0  0  0
 24 47  1  0  0  0  0
 25 81  1  0  0  0  0
 26 82  1  0  0  0  0
 27 31  2  0  0  0  0
 27 81  1  0  0  0  0
 28 29  1  0  0  0  0
 28 83  1  0  0  0  0
 29 84  1  0  0  0  0
 30 85  1  0  0  0  0
 31 86  1  0  0  0  0
 32 67  2  0  0  0  0
 33 68  1  0  0  0  0
 33 71  1  0  0  0  0
 34 35  2  0  0  0  0
 36 37  2  0  0  0  0
 37 41  1  0  0  0  0
 38 39  2  0  0  0  0
 38 63  1  0  0  0  0
 39 82  1  0  0  0  0
 40 72  1  0  0  0  0
 40 76  2  0  0  0  0
 41 69  1  0  0  0  0
 41 77  2  0  0  0  0
 42 55  1  0  0  0  0
 42 73  1  0  0  0  0
 42 78  2  0  0  0  0
 43 64  1  0  0  0  0
 43 70  1  0  0  0  0
 43 79  2  0  0  0  0
 44 65  1  0  0  0  0
 44 74  1  0  0  0  0
 44 80  2  0  0  0  0
 45 48  1  0  0  0  0
 46 55  1  0  0  0  0
 47 70  1  0  0  0  0
 48 50  1  0  0  0  0
 49 51  1  0  0  0  0
 49 52  1  0  0  0  0
 50 54  1  0  0  0  0
 51 56  1  0  0  0  0
 52 69  1  0  0  0  0
 53 56  1  0  0  0  0
 53 69  1  0  0  0  0
 54 73  1  0  0  0  0
 55 70  1  0  0  0  0
 56 68  1  0  0  0  0
 57 65  1  0  0  0  0
 58 66  1  0  0  0  0
 59 66  1  0  0  0  0
 60 66  1  0  0  0  0
 61 75  1  0  0  0  0
 62 83  1  0  0  0  0
 63 84  1  0  0  0  0
 64 66  1  0  0  0  0
 64 74  1  0  0  0  0
 65 75  1  0  0  0  0
 67 68  1  0  0  0  0
M  CHG  1  75   1
M  ISO  4  37 100  39 101  41 100  82 101
M  END
> <Batch ID>
0114

> <Smiles>
C=Cc1cc(OC)c(OCC=[101CH:1][101O:1]c2ccc3c(c2)CN(C(=O)C(NC(=O)C(C)NC)C(C)(C)C)C(C(=O)NC2CCCc4ccccc42)C3)cc1C=[100CH:0][100C:0](=O)N1CCCC(n2nc(-c3ccc(Oc4ccc(F)cc4F)cc3)c(C(N)=O)c2N)C1

> <Shape>
0.293

> <Color>
0.088

> <Negative vol penalty>
0.000

$$$$

  -OEChem-04052301373D

 85 93  0     1  0  0  0  0  0999 V2000
  -26.3321  -34.9787   24.0150 C   0  0  0  0  0  0  0  0  0  0  0  0
  -26.8341  -33.7235   23.6866 C   0  0  0  0  0  0  0  0  0  0  0  0
  -24.6618  -13.6595   21.6874 C   0  0  0  0  0  0  0  0  0  0  0  0
  -26.1343  -13.6352   19.7721 C   0  0  0  0  0  0  0  0  0  0  0  0
  -25.0052  -35.1131   24.4216 C   0  0  0  0  0  0  0  0  0  0  0  0
  -26.0096  -32.6016   23.7656 C   0  0  0  0  0  0  0  0  0  0  0  0
  -26.4618  -29.5707   19.7340 C   0  0  0  0  0  0  0  0  0  0  0  0
  -24.6954  -12.2657   21.7309 C   0  0  0  0  0  0  0  0  0  0  0  0
  -26.1679  -12.2414   19.8157 C   0  0  0  0  0  0  0  0  0  0  0  0
  -27.5787  -28.7376   19.6858 C   0  0  0  0  0  0  0  0  0  0  0  0
  -23.2516   -9.6873   20.0904 C   0  0  0  0  0  0  0  0  0  0  0  0
  -22.0423   -9.0159   20.2703 C   0  0  0  0  0  0  0  0  0  0  0  0
  -28.1032  -21.7641   17.4921 C   0  0  0  0  0  0  0  0  0  0  0  0
  -26.2289  -26.8934   20.4581 C   0  0  0  0  0  0  0  0  0  0  0  0
  -26.3610  -23.3922   17.8809 C   0  0  0  0  0  0  0  0  0  0  0  0
  -22.8937   -8.0276   22.3039 C   0  0  0  0  0  0  0  0  0  0  0  0
  -25.3812  -14.3442   20.7079 C   0  0  0  0  0  0  0  0  0  0  0  0
  -27.1937  -20.9527   16.8140 C   0  0  0  0  0  0  0  0  0  0  0  0
  -25.8678  -21.3610   16.6692 C   0  0  0  0  0  0  0  0  0  0  0  0
  -26.2150  -16.6766   21.3182 C   0  0  0  0  0  0  0  0  0  0  0  0
  -24.1614  -33.9937   24.4963 C   0  0  0  0  0  0  0  0  0  0  0  0
  -25.2204  -29.0732   20.1557 C   0  0  0  0  0  0  0  0  0  0  0  0
  -24.6706  -32.7210   24.1748 C   0  0  0  0  0  0  0  0  0  0  0  0
  -25.0972  -27.7216   20.5083 C   0  0  0  0  0  0  0  0  0  0  0  0
  -27.6869  -22.9839   18.0256 C   0  0  0  0  0  0  0  0  0  0  0  0
  -25.4485  -11.5567   20.7951 C   0  0  0  0  0  0  0  0  0  0  0  0
  -27.4630  -27.3994   20.0507 C   0  0  0  0  0  0  0  0  0  0  0  0
  -24.2820   -9.5288   21.0171 C   0  0  0  0  0  0  0  0  0  0  0  0
  -21.8633   -8.1861   21.3771 C   0  0  0  0  0  0  0  0  0  0  0  0
  -25.4514  -22.5808   17.2027 C   0  0  0  0  0  0  0  0  0  0  0  0
  -24.1030   -8.6990   22.1239 C   0  0  0  0  0  0  0  0  0  0  0  0
  -25.3464  -15.7839   20.6620 C   0  0  0  0  0  0  0  0  0  0  0  0
  -25.7650  -17.9225   20.9554 C   0  0  0  0  0  0  0  0  0  0  0  0
  -28.6509  -19.5846   15.3927 C   0  0  0  0  0  0  0  0  0  0  0  0
  -27.6634  -19.6848   16.2692 C   0  0  0  0  0  0  0  0  0  0  0  0
  -29.2417  -24.6589   17.9819 C   0  0  0  0  0  0  0  0  0  0  0  0
  -24.8895  -20.5399   15.9651 C   0  0  0  0  0  0  0  0  0  0  0  0
  -27.3290  -16.4039   22.1787 C   0  0  0  0  0  0  0  0  0  0  0  0
  -23.4543  -20.5735   16.3289 C   0  0  0  0  0  0  0  0  0  0  0  0
  -23.2458  -29.7174   22.5619 C   0  0  0  0  0  0  0  0  0  0  0  0
  -21.3082  -27.6221   21.0199 C   0  0  0  0  0  0  0  0  0  0  0  0
  -21.0169  -24.9943   18.8619 C   0  0  0  0  0  0  0  0  0  0  0  0
  -22.7476  -34.1818   24.9865 C   0  0  0  0  0  0  0  0  0  0  0  0
  -24.0193  -29.9784   20.1766 C   0  0  0  0  0  0  0  0  0  0  0  0
  -23.7824  -27.1336   20.9487 C   0  0  0  0  0  0  0  0  0  0  0  0
  -21.8351  -32.9961   24.6837 C   0  0  0  0  0  0  0  0  0  0  0  0
  -21.5151  -19.7395   19.2273 C   0  0  0  0  0  0  0  0  0  0  0  0
  -22.5240  -31.6852   25.0496 C   0  0  0  0  0  0  0  0  0  0  0  0
  -22.3716  -18.6902   19.9351 C   0  0  0  0  0  0  0  0  0  0  0  0
  -21.6440  -19.6350   17.7111 C   0  0  0  0  0  0  0  0  0  0  0  0
  -23.9163  -18.6659   17.9255 C   0  0  0  0  0  0  0  0  0  0  0  0
  -23.8006  -31.4837   24.2242 C   0  0  1  0  0  0  0  0  0  0  0  0
  -22.9188  -29.4894   21.1132 C   0  0  1  0  0  0  0  0  0  0  0  0
  -23.8336  -18.7582   19.4592 C   0  0  2  0  0  0  0  0  0  0  0  0
  -19.3085  -23.4752   17.8271 C   0  0  0  0  0  0  0  0  0  0  0  0
  -21.0823  -26.0895   23.6486 C   0  0  0  0  0  0  0  0  0  0  0  0
  -20.1904  -24.1403   22.3549 C   0  0  0  0  0  0  0  0  0  0  0  0
  -18.9398  -26.2987   22.3755 C   0  0  0  0  0  0  0  0  0  0  0  0
  -21.7075  -25.8898   16.1269 C   0  0  0  0  0  0  0  0  0  0  0  0
  -30.2386  -25.5991   18.6048 C   0  0  0  0  0  0  0  0  0  0  0  0
  -29.5473  -26.8842   19.0279 C   0  0  0  0  0  0  0  0  0  1  0  0
  -21.0964  -26.1281   21.0670 C   0  0  1  0  0  0  0  0  0  0  0  0
  -20.1013  -24.7638   17.6732 C   0  0  2  0  0  0  0  0  0  0  0  0
  -20.3526  -25.6754   22.3551 C   0  0  0  0  0  0  0  0  0  0  0  0
  -24.4150  -16.4096   19.9374 N   0  0  0  0  0  0  0  0  0  0  0  0
  -25.2043  -19.7383   14.9866 N   0  0  0  0  0  0  0  0  0  0  0  0
  -28.6028  -23.8014   18.7088 N   0  0  0  0  0  0  0  0  0  0  0  0
  -24.6957  -17.7088   20.1362 N   0  0  0  0  0  0  0  0  0  0  0  0
  -23.0451  -19.6664   17.2962 N   0  0  0  0  0  0  0  0  0  0  0  0
  -22.6386  -28.0605   20.9585 N   0  0  0  0  0  0  0  0  0  0  0  0
  -26.1836  -19.1692   21.2605 N   0  0  0  0  0  0  0  0  0  0  0  0
  -27.6546  -15.0674   22.4469 N   0  0  0  0  0  0  0  0  0  0  0  0
  -23.4724  -31.0415   22.8858 N   0  0  0  0  0  0  0  0  0  0  0  0
  -20.4144  -25.7732   19.8272 N   0  0  0  0  0  0  0  0  0  0  0  0
  -20.8965  -24.6791   16.4157 N   0  3  0  0  0  0  0  0  0  0  0  0
  -28.0052  -17.3185   22.7075 O   0  0  0  0  0  0  0  0  0  0  0  0
  -22.7787  -21.4025   15.7334 O   0  0  0  0  0  0  0  0  0  0  0  0
  -23.2878  -28.7630   23.3293 O   0  0  0  0  0  0  0  0  0  0  0  0
  -20.3290  -28.3723   21.0297 O   0  0  0  0  0  0  0  0  0  0  0  0
  -22.1516  -24.5269   18.9292 O   0  0  0  0  0  0  0  0  0  0  0  0
  -25.4817  -10.1966   20.8375 O   0  0  0  0  0  0  0  0  0  0  0  0
  -28.5517  -26.5842   20.0052 O   0  0  0  0  0  0  0  0  0  1  0  0
  -20.7014   -7.5426   21.5506 F   0  0  0  0  0  0  0  0  0  0  0  0
  -24.1801  -22.9855   17.0700 F   0  0  0  0  0  0  0  0  0  0  0  0
  -25.0888   -8.5437   23.0183 F   0  0  0  0  0  0  0  0  0  0  0  0
  1  2  1  0  0  0  0
  1  5  2  0  0  0  0
  2  6  2  0  0  0  0
  3  8  2  0  0  0  0
  3 17  1  0  0  0  0
  4  9  1  0  0  0  0
  4 17  2  0  0  0  0
  5 21  1  0  0  0  0
  6 23  1  0  0  0  0
  7 10  2  0  0  0  0
  7 22  1  0  0  0  0
  8 26  1  0  0  0  0
  9 26  2  0  0  0  0
 10 27  1  0  0  0  0
 11 12  2  0  0  0  0
 11 28  1  0  0  0  0
 12 29  1  0  0  0  0
 13 18  1  0  0  0  0
 13 25  2  0  0  0  0
 14 24  1  0  0  0  0
 14 27  2  0  0  0  0
 15 25  1  0  0  0  0
 15 30  2  0  0  0  0
 16 29  2  0  0  0  0
 16 31  1  0  0  0  0
 17 32  1  0  0  0  0
 18 19  2  0  0  0  0
 18 35  1  0  0  0  0
 19 30  1  0  0  0  0
 19 37  1  0  0  0  0
 20 32  1  0  0  0  0
 20 33  2  0  0  0  0
 20 38  1  0  0  0  0
 21 23  2  0  0  0  0
 21 43  1  0  0  0  0
 22 24  2  0  0  0  0
 22 44  1  0  0  0  0
 23 52  1  0  0  0  0
 24 45  1  0  0  0  0
 25 67  1  0  0  0  0
 26 81  1  0  0  0  0
 27 82  1  0  0  0  0
 28 31  2  0  0  0  0
 28 81  1  0  0  0  0
 29 83  1  0  0  0  0
 30 84  1  0  0  0  0
 31 85  1  0  0  0  0
 32 65  2  0  0  0  0
 33 68  1  0  0  0  0
 33 71  1  0  0  0  0
 34 35  2  0  0  0  0
 36 60  1  0  0  0  0
 36 67  2  0  0  0  0
 37 39  1  0  0  0  0
 37 66  2  0  0  0  0
 38 72  1  0  0  0  0
 38 76  2  0  0  0  0
 39 69  1  0  0  0  0
 39 77  2  0  0  0  0
 40 53  1  0  0  0  0
 40 73  1  0  0  0  0
 40 78  2  0  0  0  0
 41 62  1  0  0  0  0
 41 70  1  0  0  0  0
 41 79  2  0  0  0  0
 42 63  1  0  0  0  0
 42 74  1  0  0  0  0
 42 80  2  0  0  0  0
 43 46  1  0  0  0  0
 44 53  1  0  0  0  0
 45 70  1  0  0  0  0
 46 48  1  0  0  0  0
 47 49  1  0  0  0  0
 47 50  1  0  0  0  0
 48 52  1  0  0  0  0
 49 54  1  0  0  0  0
 50 69  1  0  0  0  0
 51 54  1  0  0  0  0
 51 69  1  0  0  0  0
 52 73  1  0  0  0  0
 53 70  1  0  0  0  0
 54 68  1  0  0  0  0
 55 63  1  0  0  0  0
 56 64  1  0  0  0  0
 57 64  1  0  0  0  0
 58 64  1  0  0  0  0
 59 75  1  0  0  0  0
 60 61  1  0  0  0  0
 61 82  1  0  0  0  0
 62 64  1  0  0  0  0
 62 74  1  0  0  0  0
 63 75  1  0  0  0  0
 65 68  1  0  0  0  0
M  CHG  1  75   1
M  ISO  4  37 100  39 100  61 101  82 101
M  END
> <Batch ID>
0114

> <Smiles>
C=Cc1cc(NC=C[101CH2:1][101O:1]c2ccc3c(c2)CN(C(=O)C(NC(=O)C(C)NC)C(C)(C)C)C(C(=O)NC2CCCc4ccccc42)C3)cc(F)c1[100C:0](=N)[100C:0](=O)N1CCCC(n2nc(-c3ccc(Oc4ccc(F)cc4F)cc3)c(C(N)=O)c2N)C1

> <Shape>
0.242

> <Color>
0.101

> <Negative vol penalty>
0.000

$$$$

  -OEChem-04052301373D

 87 95  0     1  0  0  0  0  0999 V2000
  -28.5408  -31.5215   27.1578 C   0  0  0  0  0  0  0  0  0  0  0  0
  -28.3614  -30.4537   26.2842 C   0  0  0  0  0  0  0  0  0  0  0  0
  -23.9852   -9.8372   22.3653 C   0  0  0  0  0  0  0  0  0  0  0  0
  -25.1038   -7.7531   21.8730 C   0  0  0  0  0  0  0  0  0  0  0  0
  -27.4623  -32.3426   27.4841 C   0  0  0  0  0  0  0  0  0  0  0  0
  -27.1029  -30.2058   25.7373 C   0  0  0  0  0  0  0  0  0  0  0  0
  -27.3021  -29.2165   20.7747 C   0  0  0  0  0  0  0  0  0  0  0  0
  -22.7490   -9.2049   22.2330 C   0  0  0  0  0  0  0  0  0  0  0  0
  -23.8676   -7.1208   21.7407 C   0  0  0  0  0  0  0  0  0  0  0  0
  -27.7105  -27.9384   20.3962 C   0  0  0  0  0  0  0  0  0  0  0  0
  -21.4787   -5.8736   23.7799 C   0  0  0  0  0  0  0  0  0  0  0  0
  -21.3192   -4.6308   24.3928 C   0  0  0  0  0  0  0  0  0  0  0  0
  -25.4068  -27.3105   20.0529 C   0  0  0  0  0  0  0  0  0  0  0  0
  -29.3173  -18.8161   20.8686 C   0  0  0  0  0  0  0  0  0  0  0  0
  -20.8516   -3.6309   22.2437 C   0  0  0  0  0  0  0  0  0  0  0  0
  -25.1627   -9.1113   22.1853 C   0  0  0  0  0  0  0  0  0  0  0  0
  -27.2057   -9.8975   23.4951 C   0  0  0  0  0  0  0  0  0  0  0  0
  -26.1921  -32.1103   26.9333 C   0  0  0  0  0  0  0  0  0  0  0  0
  -25.9400  -29.5485   20.8058 C   0  0  0  0  0  0  0  0  0  0  0  0
  -26.0061  -31.0237   26.0575 C   0  0  0  0  0  0  0  0  0  0  0  0
  -24.9838  -28.5943   20.4298 C   0  0  0  0  0  0  0  0  0  0  0  0
  -22.6901   -7.8467   21.9207 C   0  0  0  0  0  0  0  0  0  0  0  0
  -26.7627  -26.9842   20.0380 C   0  0  0  0  0  0  0  0  0  0  0  0
  -21.3245   -5.9950   22.3988 C   0  0  0  0  0  0  0  0  0  0  0  0
  -29.2359  -19.6946   19.7498 C   0  0  0  0  0  0  0  0  0  0  0  0
  -21.0057   -3.5095   23.6247 C   0  0  0  0  0  0  0  0  0  0  0  0
  -21.0110   -4.8737   21.6308 C   0  0  0  0  0  0  0  0  0  0  0  0
  -26.4400   -9.7640   22.3213 C   0  0  0  0  0  0  0  0  0  0  0  0
  -29.0716  -19.0104   18.5655 C   0  0  0  0  0  0  0  0  0  0  0  0
  -29.2117  -17.4937   20.4968 C   0  0  0  0  0  0  0  0  0  0  0  0
  -28.3236  -10.5902   23.0988 C   0  0  0  0  0  0  0  0  0  0  0  0
  -32.5473  -15.2326   22.4854 C   0  0  0  0  0  0  0  0  0  0  0  0
  -28.9503  -19.5183   17.2527 C   0  0  0  0  0  0  0  0  0  0  0  0
  -28.3942  -20.7190   16.8708 C   0  0  0  0  0  0  0  0  0  0  0  0
  -31.5223  -16.0034   22.1151 C   0  0  0  0  0  0  0  0  0  0  0  0
  -26.9310   -9.4366   24.8247 C   0  0  0  0  0  0  0  0  0  0  0  0
  -23.9053  -30.4639   23.0698 C   0  0  0  0  0  0  0  0  0  0  0  0
  -21.8837  -30.8306   20.5596 C   0  0  0  0  0  0  0  0  0  0  0  0
  -21.0437  -29.9684   17.3662 C   0  0  0  0  0  0  0  0  0  0  0  0
  -30.8159  -14.6007   20.2903 C   0  0  0  0  0  0  0  0  0  0  0  0
  -25.0460  -32.9965   27.3526 C   0  0  0  0  0  0  0  0  0  0  0  0
  -25.5173  -30.9397   21.1907 C   0  0  0  0  0  0  0  0  0  0  0  0
  -23.5104  -28.9066   20.4268 C   0  0  0  0  0  0  0  0  0  0  0  0
  -23.8286  -32.8915   26.4376 C   0  0  0  0  0  0  0  0  0  0  0  0
  -30.0365  -11.7417   18.4918 C   0  0  0  0  0  0  0  0  0  0  0  0
  -23.5016  -31.4297   26.1498 C   0  0  0  0  0  0  0  0  0  0  0  0
  -29.0889  -10.9749   19.4128 C   0  0  0  0  0  0  0  0  0  0  0  0
  -29.7392  -13.2359   18.5279 C   0  0  0  0  0  0  0  0  0  0  0  0
  -28.8649  -13.0727   20.8370 C   0  0  0  0  0  0  0  0  0  0  0  0
  -24.6617  -30.7374   25.4244 C   0  0  1  0  0  0  0  0  0  0  0  0
  -24.0745  -31.0117   21.6809 C   0  0  1  0  0  0  0  0  0  0  0  0
  -29.1214  -11.5515   20.8388 C   0  0  1  0  0  0  0  0  0  0  0  0
  -28.2789  -21.2123   15.4651 C   0  0  0  0  0  0  0  0  0  0  0  0
  -19.3182  -30.4047   15.5971 C   0  0  0  0  0  0  0  0  0  0  0  0
  -19.9050  -29.0531   22.0546 C   0  0  0  0  0  0  0  0  0  0  0  0
  -18.6583  -28.7516   19.9045 C   0  0  0  0  0  0  0  0  0  0  0  0
  -18.8773  -31.0244   20.9091 C   0  0  0  0  0  0  0  0  0  0  0  0
  -23.0671  -31.0464   15.4946 C   0  0  0  0  0  0  0  0  0  0  0  0
  -29.2488  -16.2904   21.3557 C   0  0  0  0  0  0  0  0  0  0  0  0
  -28.2998  -23.7179   20.3444 C   0  0  0  0  0  0  0  0  0  0  0  0
  -29.5593  -23.1416   20.9818 C   0  0  0  0  0  0  0  0  0  0  0  0
  -28.3616  -25.2368   20.2518 C   0  0  0  0  0  0  0  0  0  1  0  0
  -29.4801  -21.6273   21.1138 C   0  0  0  0  0  0  0  0  0  0  0  0
  -20.8973  -29.9408   19.8426 C   0  0  1  0  0  0  0  0  0  0  0  0
  -20.6711  -30.8116   16.1601 C   0  0  2  0  0  0  0  0  0  0  0  0
  -19.6120  -29.6857   20.6795 C   0  0  0  0  0  0  0  0  0  0  0  0
  -27.0221  -10.3268   21.2591 N   0  0  0  0  0  0  0  0  0  0  0  0
  -28.1655  -10.8208   21.7639 N   0  0  0  0  0  0  0  0  0  0  0  0
  -23.1468  -30.2789   20.8169 N   0  0  0  0  0  0  0  0  0  0  0  0
  -29.7701  -13.7509   19.8970 N   0  0  0  0  0  0  0  0  0  0  0  0
  -29.4165  -11.0185   23.7656 N   0  0  0  0  0  0  0  0  0  0  0  0
  -25.7366   -8.7413   25.0574 N   0  0  0  0  0  0  0  0  0  0  0  0
  -24.6729  -31.1036   24.0243 N   0  0  0  0  0  0  0  0  0  0  0  0
  -20.6524  -30.5642   18.5465 N   0  0  0  0  0  0  0  0  0  0  0  0
  -30.5236  -15.5687   21.2689 N   0  0  0  0  0  0  0  0  0  0  0  0
  -21.6925  -30.6587   15.0857 N   0  3  0  0  0  0  0  0  0  0  0  0
  -27.7138   -9.6496   25.7815 O   0  0  0  0  0  0  0  0  0  0  0  0
  -23.1344  -29.5308   23.2615 O   0  0  0  0  0  0  0  0  0  0  0  0
  -21.5485  -31.9755   20.8733 O   0  0  0  0  0  0  0  0  0  0  0  0
  -21.6207  -28.8874   17.2707 O   0  0  0  0  0  0  0  0  0  0  0  0
  -31.9403  -14.5088   19.7794 O   0  0  0  0  0  0  0  0  0  0  0  0
  -21.4840   -7.2294   21.7917 O   0  0  0  0  0  0  0  0  0  0  0  0
  -27.1585  -25.7357   19.6687 O   0  0  0  0  0  0  0  0  0  1  0  0
  -29.3099  -21.0615   19.8216 O   0  0  0  0  0  0  0  0  0  0  0  0
  -20.8541   -2.3158   24.2133 F   0  0  0  0  0  0  0  0  0  0  0  0
  -20.8629   -4.9839   20.3035 F   0  0  0  0  0  0  0  0  0  0  0  0
  -29.0158  -17.3157   18.8050 S   0  0  0  0  0  0  0  0  0  0  0  0
  1  2  1  0  0  0  0
  1  5  2  0  0  0  0
  2  6  2  0  0  0  0
  3  8  2  0  0  0  0
  3 16  1  0  0  0  0
  4  9  1  0  0  0  0
  4 16  2  0  0  0  0
  5 18  1  0  0  0  0
  6 20  1  0  0  0  0
  7 10  2  0  0  0  0
  7 19  1  0  0  0  0
  8 22  1  0  0  0  0
  9 22  2  0  0  0  0
 10 23  1  0  0  0  0
 11 12  2  0  0  0  0
 11 24  1  0  0  0  0
 12 26  1  0  0  0  0
 13 21  1  0  0  0  0
 13 23  2  0  0  0  0
 14 25  1  0  0  0  0
 14 30  2  0  0  0  0
 15 26  2  0  0  0  0
 15 27  1  0  0  0  0
 16 28  1  0  0  0  0
 17 28  1  0  0  0  0
 17 31  2  0  0  0  0
 17 36  1  0  0  0  0
 18 20  2  0  0  0  0
 18 41  1  0  0  0  0
 19 21  2  0  0  0  0
 19 42  1  0  0  0  0
 20 50  1  0  0  0  0
 21 43  1  0  0  0  0
 22 82  1  0  0  0  0
 23 83  1  0  0  0  0
 24 27  2  0  0  0  0
 24 82  1  0  0  0  0
 25 29  2  0  0  0  0
 25 84  1  0  0  0  0
 26 85  1  0  0  0  0
 27 86  1  0  0  0  0
 28 67  2  0  0  0  0
 29 33  1  0  0  0  0
 29 87  1  0  0  0  0
 30 59  1  0  0  0  0
 30 87  1  0  0  0  0
 31 68  1  0  0  0  0
 31 71  1  0  0  0  0
 32 35  2  0  0  0  0
 33 34  2  0  0  0  0
 34 53  1  0  0  0  0
 35 75  1  0  0  0  0
 36 72  1  0  0  0  0
 36 77  2  0  0  0  0
 37 51  1  0  0  0  0
 37 73  1  0  0  0  0
 37 78  2  0  0  0  0
 38 64  1  0  0  0  0
 38 69  1  0  0  0  0
 38 79  2  0  0  0  0
 39 65  1  0  0  0  0
 39 74  1  0  0  0  0
 39 80  2  0  0  0  0
 40 70  1  0  0  0  0
 40 75  1  0  0  0  0
 40 81  2  0  0  0  0
 41 44  1  0  0  0  0
 42 51  1  0  0  0  0
 43 69  1  0  0  0  0
 44 46  1  0  0  0  0
 45 47  1  0  0  0  0
 45 48  1  0  0  0  0
 46 50  1  0  0  0  0
 47 52  1  0  0  0  0
 48 70  1  0  0  0  0
 49 52  1  0  0  0  0
 49 70  1  0  0  0  0
 50 73  1  0  0  0  0
 51 69  1  0  0  0  0
 52 68  1  0  0  0  0
 54 65  1  0  0  0  0
 55 66  1  0  0  0  0
 56 66  1  0  0  0  0
 57 66  1  0  0  0  0
 58 76  1  0  0  0  0
 59 75  1  0  0  0  0
 60 61  1  0  0  0  0
 60 62  1  0  0  0  0
 61 63  1  0  0  0  0
 62 83  1  0  0  0  0
 63 84  1  0  0  0  0
 64 66  1  0  0  0  0
 64 74  1  0  0  0  0
 65 76  1  0  0  0  0
 67 68  1  0  0  0  0
M  CHG  1  76   1
M  ISO  4  40 100  62 101  75 100  83 101
M  END
> <Batch ID>
0114

> <Smiles>
C=C[100N:0](Cc1cc(OCCC[101CH2:1][101O:1]c2ccc3c(c2)CN(C(=O)C(NC(=O)C(C)NC)C(C)(C)C)C(C(=O)NC2CCCc4ccccc42)C3)c(C=CC)s1)[100C:0](=O)N1CCCC(n2nc(-c3ccc(Oc4ccc(F)cc4F)cc3)c(C(N)=O)c2N)C1

> <Shape>
0.321

> <Color>
0.124

> <Negative vol penalty>
0.000

$$$$

  -OEChem-04052301373D

 86 94  0     1  0  0  0  0  0999 V2000
  -32.5347  -13.9920   19.6933 C   0  0  0  0  0  0  0  0  0  0  0  0
  -31.9097  -15.2142   19.4676 C   0  0  0  0  0  0  0  0  0  0  0  0
  -28.8480  -27.5755   21.4450 C   0  0  0  0  0  0  0  0  0  0  0  0
  -27.1995  -26.4384   20.0936 C   0  0  0  0  0  0  0  0  0  0  0  0
  -18.7269  -28.1938   21.6510 C   0  0  0  0  0  0  0  0  0  0  0  0
  -31.7684  -12.8417   19.8764 C   0  0  0  0  0  0  0  0  0  0  0  0
  -30.5179  -15.2867   19.4238 C   0  0  0  0  0  0  0  0  0  0  0  0
  -27.0101  -19.9196   21.3570 C   0  0  0  0  0  0  0  0  0  0  0  0
  -29.8490  -26.7707   20.9011 C   0  0  0  0  0  0  0  0  0  0  0  0
  -28.2005  -25.6336   19.5496 C   0  0  0  0  0  0  0  0  0  0  0  0
  -19.5769  -27.1867   21.1940 C   0  0  0  0  0  0  0  0  0  0  0  0
  -26.3980  -20.9766   20.6848 C   0  0  0  0  0  0  0  0  0  0  0  0
  -30.6030  -25.9037   17.1884 C   0  0  0  0  0  0  0  0  0  0  0  0
  -30.5929  -25.7035   15.8080 C   0  0  0  0  0  0  0  0  0  0  0  0
  -19.4363  -27.7628   23.9200 C   0  0  0  0  0  0  0  0  0  0  0  0
  -24.3478  -19.7103   20.5731 C   0  0  0  0  0  0  0  0  0  0  0  0
  -30.3614  -23.3237   16.1550 C   0  0  0  0  0  0  0  0  0  0  0  0
  -27.5232  -27.4093   21.0413 C   0  0  0  0  0  0  0  0  0  0  0  0
  -18.6567  -28.4819   23.0140 C   0  0  0  0  0  0  0  0  0  0  0  0
  -20.2862  -26.7556   23.4629 C   0  0  0  0  0  0  0  0  0  0  0  0
  -26.0342  -29.4794   21.1142 C   0  0  0  0  0  0  0  0  0  0  0  0
  -30.3662  -12.9018   19.8445 C   0  0  0  0  0  0  0  0  0  0  0  0
  -26.2976  -18.7438   21.6332 C   0  0  0  0  0  0  0  0  0  0  0  0
  -29.7320  -14.1359   19.6054 C   0  0  0  0  0  0  0  0  0  0  0  0
  -24.9524  -18.6409   21.2512 C   0  0  0  0  0  0  0  0  0  0  0  0
  -29.5253  -25.7998   19.9534 C   0  0  0  0  0  0  0  0  0  0  0  0
  -25.0675  -20.8709   20.2902 C   0  0  0  0  0  0  0  0  0  0  0  0
  -20.3565  -26.4676   22.0999 C   0  0  0  0  0  0  0  0  0  0  0  0
  -30.4925  -24.8140   18.0521 C   0  0  0  0  0  0  0  0  0  0  0  0
  -30.4721  -24.4135   15.2913 C   0  0  0  0  0  0  0  0  0  0  0  0
  -30.3716  -23.5240   17.5353 C   0  0  0  0  0  0  0  0  0  0  0  0
  -26.4886  -28.2399   21.6032 C   0  0  0  0  0  0  0  0  0  0  0  0
  -25.0505  -29.8564   21.9955 C   0  0  0  0  0  0  0  0  0  0  0  0
  -17.7702  -29.5320   23.4902 C   0  0  0  0  0  0  0  0  0  0  0  0
  -17.3134  -29.6702   24.7557 C   0  0  0  0  0  0  0  0  0  0  0  0
  -23.7864  -24.1688   19.8094 C   0  0  0  0  0  0  0  0  0  0  0  0
  -23.3411  -24.9285   20.8208 C   0  0  0  0  0  0  0  0  0  0  0  0
  -21.0911  -26.0160   24.4250 C   0  0  0  0  0  0  0  0  0  0  0  0
  -26.4629  -30.2233   19.9660 C   0  0  0  0  0  0  0  0  0  0  0  0
  -21.5559  -26.6434   25.6834 C   0  0  0  0  0  0  0  0  0  0  0  0
  -26.6020  -15.6898   20.8058 C   0  0  0  0  0  0  0  0  0  0  0  0
  -24.1596  -15.2828   22.9014 C   0  0  0  0  0  0  0  0  0  0  0  0
  -21.4899  -16.6395   24.5381 C   0  0  0  0  0  0  0  0  0  0  0  0
  -29.5811  -11.6236   20.0008 C   0  0  0  0  0  0  0  0  0  0  0  0
  -26.9645  -17.6231   22.3828 C   0  0  0  0  0  0  0  0  0  0  0  0
  -24.1376  -17.4079   21.5417 C   0  0  0  0  0  0  0  0  0  0  0  0
  -28.1041  -11.8503   20.3127 C   0  0  0  0  0  0  0  0  0  0  0  0
  -23.7065  -29.3775   26.5532 C   0  0  0  0  0  0  0  0  0  0  0  0
  -27.5193  -12.9108   19.3854 C   0  0  0  0  0  0  0  0  0  0  0  0
  -24.6471  -29.4824   25.3532 C   0  0  0  0  0  0  0  0  0  0  0  0
  -23.3156  -27.9296   26.8313 C   0  0  0  0  0  0  0  0  0  0  0  0
  -23.6537  -27.3330   24.4484 C   0  0  0  0  0  0  0  0  0  0  0  0
  -28.2241  -14.2593   19.5756 C   0  0  1  0  0  0  0  0  0  0  0  0
  -26.2945  -16.2713   22.1567 C   0  0  1  0  0  0  0  0  0  0  0  0
  -24.0485  -28.7833   24.1196 C   0  0  2  0  0  0  0  0  0  0  0  0
  -16.3946  -30.7622   25.1986 C   0  0  0  0  0  0  0  0  0  0  0  0
  -19.6642  -16.0504   26.1558 C   0  0  0  0  0  0  0  0  0  0  0  0
  -22.6531  -13.8425   20.6729 C   0  0  0  0  0  0  0  0  0  0  0  0
  -20.5523  -14.1260   22.0050 C   0  0  0  0  0  0  0  0  0  0  0  0
  -22.4412  -12.7839   22.9288 C   0  0  0  0  0  0  0  0  0  0  0  0
  -22.4550  -18.6100   26.5242 C   0  0  0  0  0  0  0  0  0  0  0  0
  -24.9320  -23.2176   19.9286 C   0  0  0  0  0  0  0  0  0  1  0  0
  -22.1881  -25.8712   20.7052 C   0  0  0  0  0  0  0  0  0  0  0  0
  -22.6533  -15.3001   22.8040 C   0  0  1  0  0  0  0  0  0  0  0  0
  -21.0749  -16.5958   25.9977 C   0  0  2  0  0  0  0  0  0  0  0  0
  -22.0906  -14.0357   22.0953 C   0  0  0  0  0  0  0  0  0  0  0  0
  -25.8464  -27.8553   22.7094 N   0  0  0  0  0  0  0  0  0  0  0  0
  -21.4505  -24.7739   24.2513 N   0  0  0  0  0  0  0  0  0  0  0  0
  -24.9785  -28.8589   22.9228 N   0  0  0  0  0  0  0  0  0  0  0  0
  -22.7852  -27.2855   25.6314 N   0  0  0  0  0  0  0  0  0  0  0  0
  -24.8362  -16.3370   22.2715 N   0  0  0  0  0  0  0  0  0  0  0  0
  -24.2487  -30.9406   22.0599 N   0  0  0  0  0  0  0  0  0  0  0  0
  -27.4851  -29.6910   19.1684 N   0  0  0  0  0  0  0  0  0  0  0  0
  -27.7457  -14.9150   20.7738 N   0  0  0  0  0  0  0  0  0  0  0  0
  -22.1585  -15.4935   24.1628 N   0  0  0  0  0  0  0  0  0  0  0  0
  -21.1195  -17.9626   26.5900 N   0  3  0  0  0  0  0  0  0  0  0  0
  -25.9660  -31.3353   19.6658 O   0  0  0  0  0  0  0  0  0  0  0  0
  -20.8017  -26.5272   26.6405 O   0  0  0  0  0  0  0  0  0  0  0  0
  -25.8559  -15.9254   19.8626 O   0  0  0  0  0  0  0  0  0  0  0  0
  -24.7152  -14.3715   23.5199 O   0  0  0  0  0  0  0  0  0  0  0  0
  -21.2422  -17.5931   23.8034 O   0  0  0  0  0  0  0  0  0  0  0  0
  -30.5019  -25.0145   19.4222 O   0  0  0  0  0  0  0  0  0  0  0  0
  -24.4678  -21.9009   19.6333 O   0  0  0  0  0  0  0  0  0  1  0  0
  -21.1840  -25.4803   21.6311 O   0  0  0  0  0  0  0  0  0  0  0  0
  -30.4608  -24.2215   13.9657 F   0  0  0  0  0  0  0  0  0  0  0  0
  -30.2639  -22.4733   18.3601 F   0  0  0  0  0  0  0  0  0  0  0  0
  1  2  1  0  0  0  0
  1  6  2  0  0  0  0
  2  7  2  0  0  0  0
  3  9  2  0  0  0  0
  3 18  1  0  0  0  0
  4 10  1  0  0  0  0
  4 18  2  0  0  0  0
  5 11  2  0  0  0  0
  5 19  1  0  0  0  0
  6 22  1  0  0  0  0
  7 24  1  0  0  0  0
  8 12  2  0  0  0  0
  8 23  1  0  0  0  0
  9 26  1  0  0  0  0
 10 26  2  0  0  0  0
 11 28  1  0  0  0  0
 12 27  1  0  0  0  0
 13 14  2  0  0  0  0
 13 29  1  0  0  0  0
 14 30  1  0  0  0  0
 15 19  2  0  0  0  0
 15 20  1  0  0  0  0
 16 25  1  0  0  0  0
 16 27  2  0  0  0  0
 17 30  2  0  0  0  0
 17 31  1  0  0  0  0
 18 32  1  0  0  0  0
 19 34  1  0  0  0  0
 20 28  2  0  0  0  0
 20 38  1  0  0  0  0
 21 32  1  0  0  0  0
 21 33  2  0  0  0  0
 21 39  1  0  0  0  0
 22 24  2  0  0  0  0
 22 44  1  0  0  0  0
 23 25  2  0  0  0  0
 23 45  1  0  0  0  0
 24 53  1  0  0  0  0
 25 46  1  0  0  0  0
 26 82  1  0  0  0  0
 27 83  1  0  0  0  0
 28 84  1  0  0  0  0
 29 31  2  0  0  0  0
 29 82  1  0  0  0  0
 30 85  1  0  0  0  0
 31 86  1  0  0  0  0
 32 67  2  0  0  0  0
 33 69  1  0  0  0  0
 33 72  1  0  0  0  0
 34 35  2  0  0  0  0
 35 56  1  0  0  0  0
 36 37  2  0  0  0  0
 36 62  1  0  0  0  0
 37 63  1  0  0  0  0
 38 40  1  0  0  0  0
 38 68  2  0  0  0  0
 39 73  1  0  0  0  0
 39 77  2  0  0  0  0
 40 70  1  0  0  0  0
 40 78  2  0  0  0  0
 41 54  1  0  0  0  0
 41 74  1  0  0  0  0
 41 79  2  0  0  0  0
 42 64  1  0  0  0  0
 42 71  1  0  0  0  0
 42 80  2  0  0  0  0
 43 65  1  0  0  0  0
 43 75  1  0  0  0  0
 43 81  2  0  0  0  0
 44 47  1  0  0  0  0
 45 54  1  0  0  0  0
 46 71  1  0  0  0  0
 47 49  1  0  0  0  0
 48 50  1  0  0  0  0
 48 51  1  0  0  0  0
 49 53  1  0  0  0  0
 50 55  1  0  0  0  0
 51 70  1  0  0  0  0
 52 55  1  0  0  0  0
 52 70  1  0  0  0  0
 53 74  1  0  0  0  0
 54 71  1  0  0  0  0
 55 69  1  0  0  0  0
 57 65  1  0  0  0  0
 58 66  1  0  0  0  0
 59 66  1  0  0  0  0
 60 66  1  0  0  0  0
 61 76  1  0  0  0  0
 62 83  1  0  0  0  0
 63 84  1  0  0  0  0
 64 66  1  0  0  0  0
 64 75  1  0  0  0  0
 65 76  1  0  0  0  0
 67 69  1  0  0  0  0
M  CHG  1  76   1
M  ISO  4  38 100  40 100  62 101  83 101
M  END
> <Batch ID>
0114

> <Smiles>
CC=Cc1ccc(OCC=C[101CH2:1][101O:1]c2ccc3c(c2)CN(C(=O)C(NC(=O)C(C)NC)C(C)(C)C)C(C(=O)NC2CCCc4ccccc42)C3)c([100C:0](=N)[100C:0](=O)N2CCCC(n3nc(-c4ccc(Oc5ccc(F)cc5F)cc4)c(C(N)=O)c3N)C2)c1

> <Shape>
0.226

> <Color>
0.058

> <Negative vol penalty>
0.000

$$$$

  -OEChem-04052301373D

 88 97  0     1  0  0  0  0  0999 V2000
  -25.0997  -38.5763   23.2198 C   0  0  0  0  0  0  0  0  0  0  0  0
  -24.5360  -37.7445   22.2589 C   0  0  0  0  0  0  0  0  0  0  0  0
  -23.1010   -9.3850   20.7933 C   0  0  0  0  0  0  0  0  0  0  0  0
  -23.7392  -10.6159   22.7718 C   0  0  0  0  0  0  0  0  0  0  0  0
  -26.1986  -38.1392   23.9564 C   0  0  0  0  0  0  0  0  0  0  0  0
  -25.0634  -36.4710   22.0427 C   0  0  0  0  0  0  0  0  0  0  0  0
  -25.7994  -29.2787   18.7332 C   0  0  0  0  0  0  0  0  0  0  0  0
  -22.3485   -8.5121   21.5790 C   0  0  0  0  0  0  0  0  0  0  0  0
  -22.9867   -9.7430   23.5576 C   0  0  0  0  0  0  0  0  0  0  0  0
  -26.6902  -28.2206   18.5576 C   0  0  0  0  0  0  0  0  0  0  0  0
  -22.9148   -5.8575   23.5931 C   0  0  0  0  0  0  0  0  0  0  0  0
  -23.0340   -4.4912   23.3386 C   0  0  0  0  0  0  0  0  0  0  0  0
  -26.9645  -28.0627   20.9491 C   0  0  0  0  0  0  0  0  0  0  0  0
  -30.1894  -18.5596   20.2021 C   0  0  0  0  0  0  0  0  0  0  0  0
  -20.6708   -4.3760   22.8497 C   0  0  0  0  0  0  0  0  0  0  0  0
  -23.7964  -10.4369   21.3897 C   0  0  0  0  0  0  0  0  0  0  0  0
  -24.1085  -12.1590   19.5337 C   0  0  0  0  0  0  0  0  0  0  0  0
  -26.7469  -36.8643   23.7398 C   0  0  0  0  0  0  0  0  0  0  0  0
  -25.4924  -29.7446   20.0197 C   0  0  0  0  0  0  0  0  0  0  0  0
  -26.1573  -36.0024   22.7927 C   0  0  0  0  0  0  0  0  0  0  0  0
  -26.0676  -29.1251   21.1384 C   0  0  0  0  0  0  0  0  0  0  0  0
  -30.2548  -19.9477   20.2495 C   0  0  0  0  0  0  0  0  0  0  0  0
  -29.0479  -17.9395   19.7065 C   0  0  0  0  0  0  0  0  0  0  0  0
  -22.2913   -8.6911   22.9611 C   0  0  0  0  0  0  0  0  0  0  0  0
  -27.2751  -27.6144   19.6655 C   0  0  0  0  0  0  0  0  0  0  0  0
  -21.6736   -6.4830   23.4759 C   0  0  0  0  0  0  0  0  0  0  0  0
  -21.9121   -3.7505   22.9669 C   0  0  0  0  0  0  0  0  0  0  0  0
  -20.5516   -5.7423   23.1042 C   0  0  0  0  0  0  0  0  0  0  0  0
  -24.5743  -11.3386   20.5786 C   0  0  0  0  0  0  0  0  0  0  0  0
  -28.0075  -18.7460   19.2741 C   0  0  0  0  0  0  0  0  0  0  0  0
  -29.1605  -20.6643   19.7927 C   0  0  0  0  0  0  0  0  0  0  0  0
  -25.2291  -12.8162   19.0876 C   0  0  0  0  0  0  0  0  0  0  0  0
  -28.6141  -24.2955   19.9620 C   0  0  0  0  0  0  0  0  0  0  0  0
  -28.3942  -22.9613   20.5171 C   0  0  0  0  0  0  0  0  0  0  0  0
  -26.5762  -21.1920   23.1738 C   0  0  0  0  0  0  0  0  0  0  0  0
  -27.8329  -25.3780   20.0633 C   0  0  0  0  0  0  0  0  0  1  0  0
  -27.5942  -22.7320   21.5716 C   0  0  0  0  0  0  0  0  0  0  0  0
  -27.3731  -21.4198   22.1237 C   0  0  0  0  0  0  0  0  0  0  0  0
  -22.7816  -12.3132   19.0129 C   0  0  0  0  0  0  0  0  0  0  0  0
  -25.8634  -32.5035   21.5541 C   0  0  0  0  0  0  0  0  0  0  0  0
  -24.1494  -31.0026   23.8631 C   0  0  0  0  0  0  0  0  0  0  0  0
  -24.0429  -27.7155   25.3467 C   0  0  0  0  0  0  0  0  0  0  0  0
  -29.9457  -15.6119   20.0569 C   0  0  0  0  0  0  0  0  0  0  0  0
  -27.9317  -36.4390   24.5708 C   0  0  0  0  0  0  0  0  0  0  0  0
  -24.5090  -30.8694   20.1935 C   0  0  0  0  0  0  0  0  0  0  0  0
  -25.7555  -29.5745   22.5417 C   0  0  0  0  0  0  0  0  0  0  0  0
  -29.8722  -24.2433   19.1368 C   0  0  0  0  0  0  0  0  0  0  0  0
  -28.6895  -35.2613   23.9667 C   0  0  0  0  0  0  0  0  0  0  0  0
  -30.1250  -12.0566   20.1244 C   0  0  0  0  0  0  0  0  0  0  0  0
  -27.7165  -34.1518   23.5969 C   0  0  0  0  0  0  0  0  0  0  0  0
  -28.6585  -11.6203   20.1627 C   0  0  0  0  0  0  0  0  0  0  0  0
  -30.1170  -22.7502   18.8926 C   0  0  0  0  0  0  0  0  0  0  0  0
  -30.3603  -13.3266   20.9402 C   0  0  0  0  0  0  0  0  0  0  0  0
  -28.0144  -14.0168   20.6410 C   0  0  0  0  0  0  0  0  0  0  0  0
  -26.7330  -34.6248   22.5189 C   0  0  1  0  0  0  0  0  0  0  0  0
  -24.6643  -31.5986   21.5245 C   0  0  1  0  0  0  0  0  0  0  0  0
  -27.7159  -12.7783   19.7804 C   0  0  2  0  0  0  0  0  0  0  0  0
  -31.4806  -20.6093   20.7812 C   0  0  0  0  0  0  0  0  0  0  0  0
  -26.7543  -18.1387   18.7318 C   0  0  0  0  0  0  0  0  0  0  0  0
  -22.1571  -26.4865   26.4561 C   0  0  0  0  0  0  0  0  0  0  0  0
  -25.2976  -32.1586   26.4428 C   0  0  0  0  0  0  0  0  0  0  0  0
  -24.7678  -29.9867   27.5699 C   0  0  0  0  0  0  0  0  0  0  0  0
  -22.9288  -31.3752   26.6144 C   0  0  0  0  0  0  0  0  0  0  0  0
  -24.3332  -25.3958   23.5318 C   0  0  0  0  0  0  0  0  0  0  0  0
  -24.4871  -30.1386   25.0541 C   0  0  1  0  0  0  0  0  0  0  0  0
  -22.9514  -26.6749   25.1730 C   0  0  2  0  0  0  0  0  0  0  0  0
  -24.3869  -30.9154   26.3972 C   0  0  0  0  0  0  0  0  0  0  0  0
  -25.8884  -11.4615   20.7840 N   0  0  0  0  0  0  0  0  0  0  0  0
  -28.0345  -20.0973   19.3046 N   0  0  0  0  0  0  0  0  0  0  0  0
  -26.2579  -12.3667   19.8620 N   0  0  0  0  0  0  0  0  0  0  0  0
  -29.2221  -22.0724   19.8376 N   0  0  0  0  0  0  0  0  0  0  0  0
  -24.7929  -30.6822   22.6593 N   0  0  0  0  0  0  0  0  0  0  0  0
  -29.4348  -14.3810   20.5202 N   0  0  0  0  0  0  0  0  0  0  0  0
  -25.4248  -13.7288   18.1123 N   0  0  0  0  0  0  0  0  0  0  0  0
  -21.9523  -13.2924   19.5766 N   0  0  0  0  0  0  0  0  0  0  0  0
  -28.9721  -16.5255   19.6544 N   0  0  0  0  0  0  0  0  0  0  0  0
  -25.7034  -33.6237   22.3473 N   0  0  0  0  0  0  0  0  0  0  0  0
  -23.6153  -28.9717   24.9723 N   0  0  0  0  0  0  0  0  0  0  0  0
  -23.5435  -25.3621   24.7897 N   0  3  0  0  0  0  0  0  0  0  0  0
  -22.3388  -11.5927   18.0865 O   0  0  0  0  0  0  0  0  0  0  0  0
  -26.8605  -32.2067   20.9065 O   0  0  0  0  0  0  0  0  0  0  0  0
  -23.3389  -31.9232   23.9942 O   0  0  0  0  0  0  0  0  0  0  0  0
  -25.1618  -27.4419   25.7755 O   0  0  0  0  0  0  0  0  0  0  0  0
  -31.1586  -15.8288   19.9944 O   0  0  0  0  0  0  0  0  0  0  0  0
  -21.5570   -7.8396   23.7281 O   0  0  0  0  0  0  0  0  0  0  0  0
  -28.1454  -26.5819   19.4969 O   0  0  0  0  0  0  0  0  0  1  0  0
  -22.0270   -2.4388   22.7210 F   0  0  0  0  0  0  0  0  0  0  0  0
  -19.3567   -6.3379   22.9889 F   0  0  0  0  0  0  0  0  0  0  0  0
  1  2  1  0  0  0  0
  1  5  2  0  0  0  0
  2  6  2  0  0  0  0
  3  8  2  0  0  0  0
  3 16  1  0  0  0  0
  4  9  1  0  0  0  0
  4 16  2  0  0  0  0
  5 18  1  0  0  0  0
  6 20  1  0  0  0  0
  7 10  2  0  0  0  0
  7 19  1  0  0  0  0
  8 24  1  0  0  0  0
  9 24  2  0  0  0  0
 10 25  1  0  0  0  0
 11 12  2  0  0  0  0
 11 26  1  0  0  0  0
 12 27  1  0  0  0  0
 13 21  1  0  0  0  0
 13 25  2  0  0  0  0
 14 22  1  0  0  0  0
 14 23  2  0  0  0  0
 15 27  2  0  0  0  0
 15 28  1  0  0  0  0
 16 29  1  0  0  0  0
 17 29  1  0  0  0  0
 17 32  2  0  0  0  0
 17 39  1  0  0  0  0
 18 20  2  0  0  0  0
 18 44  1  0  0  0  0
 19 21  2  0  0  0  0
 19 45  1  0  0  0  0
 20 55  1  0  0  0  0
 21 46  1  0  0  0  0
 22 31  2  0  0  0  0
 22 58  1  0  0  0  0
 23 30  1  0  0  0  0
 23 76  1  0  0  0  0
 24 85  1  0  0  0  0
 25 86  1  0  0  0  0
 26 28  2  0  0  0  0
 26 85  1  0  0  0  0
 27 87  1  0  0  0  0
 28 88  1  0  0  0  0
 29 68  2  0  0  0  0
 30 59  1  0  0  0  0
 30 69  2  0  0  0  0
 31 69  1  0  0  0  0
 31 71  1  0  0  0  0
 32 70  1  0  0  0  0
 32 74  1  0  0  0  0
 33 34  1  0  0  0  0
 33 36  2  0  0  0  0
 33 47  1  0  0  0  0
 34 37  2  0  0  0  0
 34 71  1  0  0  0  0
 35 38  2  0  0  0  0
 36 86  1  0  0  0  0
 37 38  1  0  0  0  0
 39 75  1  0  0  0  0
 39 80  2  0  0  0  0
 40 56  1  0  0  0  0
 40 77  1  0  0  0  0
 40 81  2  0  0  0  0
 41 65  1  0  0  0  0
 41 72  1  0  0  0  0
 41 82  2  0  0  0  0
 42 66  1  0  0  0  0
 42 78  1  0  0  0  0
 42 83  2  0  0  0  0
 43 73  1  0  0  0  0
 43 76  1  0  0  0  0
 43 84  2  0  0  0  0
 44 48  1  0  0  0  0
 45 56  1  0  0  0  0
 46 72  1  0  0  0  0
 47 52  1  0  0  0  0
 48 50  1  0  0  0  0
 49 51  1  0  0  0  0
 49 53  1  0  0  0  0
 50 55  1  0  0  0  0
 51 57  1  0  0  0  0
 52 71  1  0  0  0  0
 53 73  1  0  0  0  0
 54 57  1  0  0  0  0
 54 73  1  0  0  0  0
 55 77  1  0  0  0  0
 56 72  1  0  0  0  0
 57 70  1  0  0  0  0
 60 66  1  0  0  0  0
 61 67  1  0  0  0  0
 62 67  1  0  0  0  0
 63 67  1  0  0  0  0
 64 79  1  0  0  0  0
 65 67  1  0  0  0  0
 65 78  1  0  0  0  0
 66 79  1  0  0  0  0
 68 70  1  0  0  0  0
M  CHG  1  79   1
M  ISO  4  36 101  43 100  76 100  86 101
M  END
> <Batch ID>
0114

> <Smiles>
C=CC=C1C(=[101CH:1][101O:1]c2ccc3c(c2)CN(C(=O)C(NC(=O)C(C)NC)C(C)(C)C)C(C(=O)NC2CCCc4ccccc42)C3)CCN1c1nc(C)c([100NH:0][100C:0](=O)N2CCCC(n3nc(-c4ccc(Oc5ccc(F)cc5F)cc4)c(C(N)=O)c3N)C2)cc1C

> <Shape>
0.340

> <Color>
0.125

> <Negative vol penalty>
0.000

$$$$

  -OEChem-04052301373D

 94103  0     1  0  0  0  0  0999 V2000
  -31.4367  -31.3146   24.8804 C   0  0  0  0  0  0  0  0  0  0  0  0
  -30.7321  -30.2926   24.2524 C   0  0  0  0  0  0  0  0  0  0  0  0
  -21.7626   -9.6775   22.8979 C   0  0  0  0  0  0  0  0  0  0  0  0
  -23.6720   -9.6018   21.4196 C   0  0  0  0  0  0  0  0  0  0  0  0
  -30.7494  -32.3081   25.5765 C   0  0  0  0  0  0  0  0  0  0  0  0
  -29.3397  -30.2628   24.3211 C   0  0  0  0  0  0  0  0  0  0  0  0
  -27.1951  -29.2507   19.8466 C   0  0  0  0  0  0  0  0  0  0  0  0
  -21.4666   -8.3512   22.5835 C   0  0  0  0  0  0  0  0  0  0  0  0
  -23.3761   -8.2754   21.1053 C   0  0  0  0  0  0  0  0  0  0  0  0
  -27.1956  -27.9213   19.4265 C   0  0  0  0  0  0  0  0  0  0  0  0
  -22.5809   -5.2781   23.4480 C   0  0  0  0  0  0  0  0  0  0  0  0
  -22.2571   -4.4196   24.4986 C   0  0  0  0  0  0  0  0  0  0  0  0
  -29.9277  -17.4633   21.4197 C   0  0  0  0  0  0  0  0  0  0  0  0
  -24.9077  -27.6959   20.1570 C   0  0  0  0  0  0  0  0  0  0  0  0
  -28.6387  -18.5496   19.1969 C   0  0  0  0  0  0  0  0  0  0  0  0
  -20.0952   -4.0125   23.4998 C   0  0  0  0  0  0  0  0  0  0  0  0
  -22.8653  -10.3028   22.3158 C   0  0  0  0  0  0  0  0  0  0  0  0
  -29.9751  -18.8380   21.1889 C   0  0  0  0  0  0  0  0  0  0  0  0
  -23.4668  -12.2005   23.9110 C   0  0  0  0  0  0  0  0  0  0  0  0
  -29.3474  -32.2959   25.6456 C   0  0  0  0  0  0  0  0  0  0  0  0
  -26.0525  -29.8104   20.4360 C   0  0  0  0  0  0  0  0  0  0  0  0
  -28.6331  -31.2563   25.0199 C   0  0  0  0  0  0  0  0  0  0  0  0
  -24.8944  -29.0333   20.5815 C   0  0  0  0  0  0  0  0  0  0  0  0
  -28.5913  -17.1747   19.4278 C   0  0  0  0  0  0  0  0  0  0  0  0
  -29.2359  -16.6316   20.5392 C   0  0  0  0  0  0  0  0  0  0  0  0
  -22.2733   -7.6501   21.6873 C   0  0  0  0  0  0  0  0  0  0  0  0
  -26.0527  -27.1428   19.5843 C   0  0  0  0  0  0  0  0  0  0  0  0
  -21.6618   -5.5038   22.4233 C   0  0  0  0  0  0  0  0  0  0  0  0
  -29.3306  -19.3812   20.0775 C   0  0  0  0  0  0  0  0  0  0  0  0
  -21.0143   -3.7868   24.5246 C   0  0  0  0  0  0  0  0  0  0  0  0
  -20.4190   -4.8710   22.4492 C   0  0  0  0  0  0  0  0  0  0  0  0
  -23.1712  -11.6731   22.6397 C   0  0  0  0  0  0  0  0  0  0  0  0
  -23.6818  -13.5384   23.6862 C   0  0  0  0  0  0  0  0  0  0  0  0
  -29.7800  -12.9624   20.1719 C   0  0  0  0  0  0  0  0  0  0  0  0
  -30.7041  -19.6856   22.1230 C   0  0  0  0  0  0  0  0  0  0  0  0
  -23.5406  -11.5402   25.1815 C   0  0  0  0  0  0  0  0  0  0  0  0
  -30.2007  -20.2753   23.2311 C   0  0  0  0  0  0  0  0  0  0  0  0
  -25.3794  -31.0615   23.2796 C   0  0  0  0  0  0  0  0  0  0  0  0
  -22.5467  -31.7663   21.8649 C   0  0  0  0  0  0  0  0  0  0  0  0
  -20.2332  -30.1200   19.6390 C   0  0  0  0  0  0  0  0  0  0  0  0
  -25.4138  -16.6359   18.8637 C   0  0  0  0  0  0  0  0  0  0  0  0
  -28.6508  -33.3651   26.4495 C   0  0  0  0  0  0  0  0  0  0  0  0
  -26.0595  -31.2537   20.8595 C   0  0  0  0  0  0  0  0  0  0  0  0
  -23.6353  -29.5927   21.1898 C   0  0  0  0  0  0  0  0  0  0  0  0
  -29.0870  -12.4205   21.3963 C   0  0  0  0  0  0  0  0  0  0  0  0
  -30.2444  -14.4006   20.2202 C   0  0  0  0  0  0  0  0  0  0  0  0
  -27.1559  -33.4689   26.1588 C   0  0  0  0  0  0  0  0  0  0  0  0
  -27.9955  -13.3839   21.8258 C   0  0  0  0  0  0  0  0  0  0  0  0
  -22.4213  -17.0899   20.7386 C   0  0  0  0  0  0  0  0  0  0  0  0
  -26.5161  -32.0842   26.1508 C   0  0  0  0  0  0  0  0  0  0  0  0
  -22.3008  -15.8007   21.5531 C   0  0  0  0  0  0  0  0  0  0  0  0
  -28.5449  -14.7940   22.0190 C   0  0  0  0  0  0  0  0  0  0  0  0
  -22.9917  -16.8268   19.3466 C   0  0  0  0  0  0  0  0  0  0  0  0
  -24.1501  -14.8032   20.1447 C   0  0  0  0  0  0  0  0  0  0  0  0
  -27.1210  -31.2034   25.0509 C   0  0  1  0  0  0  0  0  0  0  0  0
  -25.0061  -31.5714   21.9164 C   0  0  1  0  0  0  0  0  0  0  0  0
  -23.6318  -15.0254   21.5759 C   0  0  2  0  0  0  0  0  0  0  0  0
  -31.0710  -21.1444   24.0988 C   0  0  0  0  0  0  0  0  0  0  0  0
  -28.7848  -20.1296   23.7177 C   0  0  0  0  0  0  0  0  0  0  0  0
  -18.5956  -31.0716   17.9928 C   0  0  0  0  0  0  0  0  0  0  0  0
  -20.5478  -31.5323   24.1582 C   0  0  0  0  0  0  0  0  0  0  0  0
  -18.8185  -30.8350   22.4874 C   0  0  0  0  0  0  0  0  0  0  0  0
  -19.8609  -33.0958   22.3312 C   0  0  0  0  0  0  0  0  0  0  0  0
  -21.3793  -28.5440   17.4115 C   0  0  0  0  0  0  0  0  0  0  0  0
  -27.8419  -16.3077   18.4691 C   0  0  0  0  0  0  0  0  0  0  0  0
  -27.0481  -23.6622   19.4439 C   0  0  0  0  0  0  0  0  0  0  0  0
  -28.3546  -22.8797   19.5182 C   0  0  0  0  0  0  0  0  0  0  0  0
  -27.2953  -25.1481   19.2197 C   0  0  0  0  0  0  0  0  0  1  0  0
  -28.1100  -21.4012   19.7850 C   0  0  0  0  0  0  0  0  0  0  0  0
  -21.2226  -31.0576   21.7118 C   0  0  1  0  0  0  0  0  0  0  0  0
  -19.9752  -30.4605   18.1823 C   0  0  2  0  0  0  0  0  0  0  0  0
  -20.1368  -31.6157   22.6746 C   0  0  0  0  0  0  0  0  0  0  0  0
  -23.1952  -12.6002   21.6785 N   0  0  0  0  0  0  0  0  0  0  0  0
  -23.5083  -13.7237   22.3462 N   0  0  0  0  0  0  0  0  0  0  0  0
  -29.1981  -15.2533   20.7867 N   0  0  1  0  0  0  0  0  0  0  0  0
  -23.6939  -31.0072   21.5940 N   0  0  0  0  0  0  0  0  0  0  0  0
  -24.2544  -16.0898   19.4386 N   0  0  0  0  0  0  0  0  0  0  0  0
  -24.0003  -14.5625   24.5061 N   0  0  0  0  0  0  0  0  0  0  0  0
  -24.7722  -11.0090   25.5879 N   0  0  0  0  0  0  0  0  0  0  0  0
  -26.5750  -31.5614   23.7593 N   0  0  0  0  0  0  0  0  0  0  0  0
  -20.8719  -31.1487   20.2986 N   0  0  0  0  0  0  0  0  0  0  0  0
  -26.5689  -15.8759   19.0016 N   0  0  0  0  0  0  0  0  0  0  0  0
  -20.0660  -29.2346   17.3398 N   0  3  0  0  0  0  0  0  0  0  0  0
  -30.0567  -12.2327   19.2197 O   0  0  0  0  0  0  0  0  0  0  0  0
  -22.5400  -11.4103   25.9268 O   0  0  0  0  0  0  0  0  0  0  0  0
  -24.6369  -30.2740   23.8542 O   0  0  0  0  0  0  0  0  0  0  0  0
  -22.5623  -32.9519   22.2052 O   0  0  0  0  0  0  0  0  0  0  0  0
  -19.8981  -29.0501   20.1424 O   0  0  0  0  0  0  0  0  0  0  0  0
  -25.4204  -17.7228   18.2759 O   0  0  0  0  0  0  0  0  0  0  0  0
  -21.9850   -6.3558   21.3805 O   0  0  0  0  0  0  0  0  0  0  0  0
  -26.0507  -25.8448   19.1757 O   0  0  0  0  0  0  0  0  0  1  0  0
  -29.3610  -20.7286   19.8277 O   0  0  0  0  0  0  0  0  0  0  0  0
  -20.7042   -2.9613   25.5327 F   0  0  0  0  0  0  0  0  0  0  0  0
  -19.5323   -5.0831   21.4670 F   0  0  0  0  0  0  0  0  0  0  0  0
  1  2  1  0  0  0  0
  1  5  2  0  0  0  0
  2  6  2  0  0  0  0
  3  8  2  0  0  0  0
  3 17  1  0  0  0  0
  4  9  1  0  0  0  0
  4 17  2  0  0  0  0
  5 20  1  0  0  0  0
  6 22  1  0  0  0  0
  7 10  2  0  0  0  0
  7 21  1  0  0  0  0
  8 26  1  0  0  0  0
  9 26  2  0  0  0  0
 10 27  1  0  0  0  0
 11 12  2  0  0  0  0
 11 28  1  0  0  0  0
 12 30  1  0  0  0  0
 13 18  1  0  0  0  0
 13 25  2  0  0  0  0
 14 23  1  0  0  0  0
 14 27  2  0  0  0  0
 15 24  2  0  0  0  0
 15 29  1  0  0  0  0
 16 30  2  0  0  0  0
 16 31  1  0  0  0  0
 17 32  1  0  0  0  0
 18 29  2  0  0  0  0
 18 35  1  0  0  0  0
 19 32  1  0  0  0  0
 19 33  2  0  0  0  0
 19 36  1  0  0  0  0
 20 22  2  0  0  0  0
 20 42  1  0  0  0  0
 21 23  2  0  0  0  0
 21 43  1  0  0  0  0
 22 55  1  0  0  0  0
 23 44  1  0  0  0  0
 24 25  1  0  0  0  0
 24 65  1  0  0  0  0
 25 75  1  0  0  0  0
 26 90  1  0  0  0  0
 27 91  1  0  0  0  0
 28 31  2  0  0  0  0
 28 90  1  0  0  0  0
 29 92  1  0  0  0  0
 30 93  1  0  0  0  0
 31 94  1  0  0  0  0
 32 73  2  0  0  0  0
 33 74  1  0  0  0  0
 33 78  1  0  0  0  0
 34 45  1  0  0  0  0
 34 46  1  0  0  0  0
 34 84  2  0  0  0  0
 35 37  2  0  0  0  0
 36 79  1  0  0  0  0
 36 85  2  0  0  0  0
 37 58  1  0  0  0  0
 37 59  1  0  0  0  0
 38 56  1  0  0  0  0
 38 80  1  0  0  0  0
 38 86  2  0  0  0  0
 39 70  1  0  0  0  0
 39 76  1  0  0  0  0
 39 87  2  0  0  0  0
 40 71  1  0  0  0  0
 40 81  1  0  0  0  0
 40 88  2  0  0  0  0
 41 77  1  0  0  0  0
 41 82  1  0  0  0  0
 41 89  2  0  0  0  0
 42 47  1  0  0  0  0
 43 56  1  0  0  0  0
 44 76  1  0  0  0  0
 45 48  1  0  0  0  0
 46 75  1  0  0  0  0
 47 50  1  0  0  0  0
 48 52  1  0  0  0  0
 49 51  1  0  0  0  0
 49 53  1  0  0  0  0
 50 55  1  0  0  0  0
 51 57  1  0  0  0  0
 52 75  1  0  0  0  0
 53 77  1  0  0  0  0
 54 57  1  0  0  0  0
 54 77  1  0  0  0  0
 55 80  1  0  0  0  0
 56 76  1  0  0  0  0
 57 74  1  0  0  0  0
 60 71  1  0  0  0  0
 61 72  1  0  0  0  0
 62 72  1  0  0  0  0
 63 72  1  0  0  0  0
 64 83  1  0  0  0  0
 65 82  1  0  0  0  0
 66 67  1  0  0  0  0
 66 68  1  0  0  0  0
 67 69  1  0  0  0  0
 68 91  1  0  0  0  0
 69 92  1  0  0  0  0
 70 72  1  0  0  0  0
 70 81  1  0  0  0  0
 71 83  1  0  0  0  0
 73 74  1  0  0  0  0
M  CHG  1  83   1
M  ISO  4  41 100  68 101  82 100  91 101
M  END
> <Batch ID>
0114

> <Smiles>
CNC(C)C(=O)NC(C(=O)N1Cc2cc([101O:1][101CH2:1]CCCOc3cc(C[100NH:0][100C:0](=O)N4CCCC(n5nc(-c6ccc(Oc7ccc(F)cc7F)cc6)c(C(N)=O)c5N)C4)c(N4CCCC(=O)C4)cc3C=C(C)C)ccc2CC1C(=O)NC1CCCc2ccccc21)C(C)(C)C

> <Shape>
0.300

> <Color>
0.084

> <Negative vol penalty>
0.000

$$$$

  -OEChem-04052301373D

 88 96  0     1  0  0  0  0  0999 V2000
  -16.7989  -29.0344   24.1205 C   0  0  0  0  0  0  0  0  0  0  0  0
  -17.3731  -28.1075   23.2565 C   0  0  0  0  0  0  0  0  0  0  0  0
  -31.1426  -21.3875   20.3314 C   0  0  0  0  0  0  0  0  0  0  0  0
  -29.6600  -21.0660   18.4511 C   0  0  0  0  0  0  0  0  0  0  0  0
  -25.0860  -15.0536   17.8717 C   0  0  0  0  0  0  0  0  0  0  0  0
  -17.3619  -30.3028   24.2546 C   0  0  0  0  0  0  0  0  0  0  0  0
  -18.5103  -28.4489   22.5252 C   0  0  0  0  0  0  0  0  0  0  0  0
  -22.0205  -24.7991   22.5752 C   0  0  0  0  0  0  0  0  0  0  0  0
  -24.7823  -16.4139   17.9250 C   0  0  0  0  0  0  0  0  0  0  0  0
  -31.5990  -22.5790   19.7679 C   0  0  0  0  0  0  0  0  0  0  0  0
  -30.1163  -22.2575   17.8876 C   0  0  0  0  0  0  0  0  0  0  0  0
  -21.8156  -23.7071   21.7330 C   0  0  0  0  0  0  0  0  0  0  0  0
  -32.8164  -23.3188   16.1515 C   0  0  0  0  0  0  0  0  0  0  0  0
  -33.1217  -23.3168   14.7905 C   0  0  0  0  0  0  0  0  0  0  0  0
  -23.3564  -24.6559   20.1378 C   0  0  0  0  0  0  0  0  0  0  0  0
  -23.7389  -16.0966   20.0808 C   0  0  0  0  0  0  0  0  0  0  0  0
  -31.4584  -25.0284   14.4150 C   0  0  0  0  0  0  0  0  0  0  0  0
  -30.1731  -20.6309   19.6730 C   0  0  0  0  0  0  0  0  0  0  0  0
  -24.7161  -14.2147   18.9230 C   0  0  0  0  0  0  0  0  0  0  0  0
  -28.6172  -19.2369   21.1371 C   0  0  0  0  0  0  0  0  0  0  0  0
  -18.5122  -30.6566   23.5318 C   0  0  0  0  0  0  0  0  0  0  0  0
  -22.8880  -25.8348   22.1995 C   0  0  0  0  0  0  0  0  0  0  0  0
  -19.0885  -29.7237   22.6487 C   0  0  0  0  0  0  0  0  0  0  0  0
  -23.5725  -25.7587   20.9781 C   0  0  0  0  0  0  0  0  0  0  0  0
  -24.0426  -14.7363   20.0276 C   0  0  0  0  0  0  0  0  0  0  0  0
  -24.1088  -16.9355   19.0295 C   0  0  0  0  0  0  0  0  0  0  0  0
  -31.0858  -23.0140   18.5460 C   0  0  0  0  0  0  0  0  0  0  0  0
  -22.4814  -23.6367   20.5128 C   0  0  0  0  0  0  0  0  0  0  0  0
  -31.8321  -24.1755   16.6443 C   0  0  0  0  0  0  0  0  0  0  0  0
  -32.4427  -24.1716   13.9222 C   0  0  0  0  0  0  0  0  0  0  0  0
  -31.1531  -25.0303   15.7760 C   0  0  0  0  0  0  0  0  0  0  0  0
  -29.7017  -19.3997   20.2544 C   0  0  0  0  0  0  0  0  0  0  0  0
  -28.5829  -17.8880   21.3937 C   0  0  0  0  0  0  0  0  0  0  0  0
  -26.5261  -12.5327   18.7311 C   0  0  0  0  0  0  0  0  0  0  0  0
  -27.3812  -12.9314   19.6784 C   0  0  0  0  0  0  0  0  0  0  0  0
  -24.3773   -9.6837   17.7475 C   0  0  0  0  0  0  0  0  0  0  0  0
  -22.4394  -20.2152   19.4342 C   0  0  0  0  0  0  0  0  0  0  0  0
  -24.6786  -10.5220   18.7468 C   0  0  0  0  0  0  0  0  0  0  0  0
  -22.5951  -21.3275   20.1586 C   0  0  0  0  0  0  0  0  0  1  0  0
  -25.0464  -12.7983   18.8417 C   0  0  0  0  0  0  0  0  0  0  0  0
  -27.7210  -20.2172   21.6768 C   0  0  0  0  0  0  0  0  0  0  0  0
  -28.8198  -12.6326   19.4925 C   0  0  0  0  0  0  0  0  0  0  0  0
  -22.5568  -28.9461   21.6393 C   0  0  0  0  0  0  0  0  0  0  0  0
  -25.7894  -28.8484   21.3881 C   0  0  0  0  0  0  0  0  0  0  0  0
  -28.5921  -27.0054   20.7594 C   0  0  0  0  0  0  0  0  0  0  0  0
  -19.0572  -32.0557   23.6743 C   0  0  0  0  0  0  0  0  0  0  0  0
  -23.1186  -26.9930   23.1311 C   0  0  0  0  0  0  0  0  0  0  0  0
  -24.5300  -26.8346   20.5373 C   0  0  0  0  0  0  0  0  0  0  0  0
  -20.4808  -32.2115   23.1456 C   0  0  0  0  0  0  0  0  0  0  0  0
  -31.9112  -14.2389   20.3407 C   0  0  0  0  0  0  0  0  0  0  0  0
  -20.6167  -31.5537   21.7761 C   0  0  0  0  0  0  0  0  0  0  0  0
  -31.5292  -15.7162   20.4275 C   0  0  0  0  0  0  0  0  0  0  0  0
  -31.1076  -13.5169   19.2639 C   0  0  0  0  0  0  0  0  0  0  0  0
  -29.2390  -15.1276   19.5143 C   0  0  0  0  0  0  0  0  0  0  0  0
  -20.3367  -30.0482   21.8570 C   0  0  1  0  0  0  0  0  0  0  0  0
  -23.6308  -28.2406   22.4180 C   0  0  1  0  0  0  0  0  0  0  0  0
  -30.0103  -15.8840   20.6100 C   0  0  2  0  0  0  0  0  0  0  0  0
  -23.6359  -13.8601   21.1673 C   0  0  0  0  0  0  0  0  0  0  0  0
  -24.8975   -8.2881   17.6482 C   0  0  0  0  0  0  0  0  0  0  0  0
  -31.0875  -27.2101   20.5906 C   0  0  0  0  0  0  0  0  0  0  0  0
  -25.4929  -30.1848   18.6612 C   0  0  0  0  0  0  0  0  0  0  0  0
  -27.8477  -29.5054   18.1499 C   0  0  0  0  0  0  0  0  0  0  0  0
  -27.3828  -31.0544   20.0492 C   0  0  0  0  0  0  0  0  0  0  0  0
  -29.0156  -25.0800   22.9667 C   0  0  0  0  0  0  0  0  0  0  0  0
  -22.7857  -18.8487   19.9321 C   0  0  0  0  0  0  0  0  0  0  0  0
  -26.7676  -28.6115   20.2630 C   0  0  1  0  0  0  0  0  0  0  0  0
  -29.9116  -26.8936   21.5016 C   0  0  2  0  0  0  0  0  0  0  0  0
  -26.8533  -29.8195   19.2880 C   0  0  0  0  0  0  0  0  0  0  0  0
  -30.3123  -18.2464   19.9694 N   0  0  0  0  0  0  0  0  0  0  0  0
  -24.1970  -11.7933   18.8271 N   0  0  0  0  0  0  0  0  0  0  0  0
  -29.6092  -17.3460   20.6772 N   0  0  0  0  0  0  0  0  0  0  0  0
  -29.6726  -13.7264   19.4456 N   0  0  0  0  0  0  0  0  0  0  0  0
  -24.7171  -27.9497   21.4801 N   0  0  0  0  0  0  0  0  0  0  0  0
  -27.7754  -17.1245   22.1601 N   0  0  0  0  0  0  0  0  0  0  0  0
  -27.8976  -21.5581   21.3092 N   0  0  0  0  0  0  0  0  0  0  0  0
  -23.8053  -18.2878   19.0812 N   0  0  0  0  0  0  0  0  0  0  0  0
  -21.4799  -29.3502   22.4051 N   0  0  0  0  0  0  0  0  0  0  0  0
  -28.0362  -28.2602   20.8922 N   0  0  0  0  0  0  0  0  0  0  0  0
  -30.0896  -25.5142   22.0367 N   0  3  0  0  0  0  0  0  0  0  0  0
  -26.8013  -19.9154   22.4746 O   0  0  0  0  0  0  0  0  0  0  0  0
  -29.1041  -11.4456   19.3991 O   0  0  0  0  0  0  0  0  0  0  0  0
  -22.6956  -29.1129   20.4332 O   0  0  0  0  0  0  0  0  0  0  0  0
  -25.9739  -29.7916   22.1614 O   0  0  0  0  0  0  0  0  0  0  0  0
  -28.1052  -26.0740   20.1223 O   0  0  0  0  0  0  0  0  0  0  0  0
  -31.5307  -24.1768   17.9959 O   0  0  0  0  0  0  0  0  0  0  0  0
  -22.2827  -22.5723   19.6887 O   0  0  0  0  0  0  0  0  0  1  0  0
  -32.7371  -24.1707   12.6155 F   0  0  0  0  0  0  0  0  0  0  0  0
  -30.2073  -25.8564   16.2437 F   0  0  0  0  0  0  0  0  0  0  0  0
  1  2  1  0  0  0  0
  1  6  2  0  0  0  0
  2  7  2  0  0  0  0
  3 10  2  0  0  0  0
  3 18  1  0  0  0  0
  4 11  1  0  0  0  0
  4 18  2  0  0  0  0
  5  9  2  0  0  0  0
  5 19  1  0  0  0  0
  6 21  1  0  0  0  0
  7 23  1  0  0  0  0
  8 12  2  0  0  0  0
  8 22  1  0  0  0  0
  9 26  1  0  0  0  0
 10 27  1  0  0  0  0
 11 27  2  0  0  0  0
 12 28  1  0  0  0  0
 13 14  2  0  0  0  0
 13 29  1  0  0  0  0
 14 30  1  0  0  0  0
 15 24  1  0  0  0  0
 15 28  2  0  0  0  0
 16 25  1  0  0  0  0
 16 26  2  0  0  0  0
 17 30  2  0  0  0  0
 17 31  1  0  0  0  0
 18 32  1  0  0  0  0
 19 25  2  0  0  0  0
 19 40  1  0  0  0  0
 20 32  1  0  0  0  0
 20 33  2  0  0  0  0
 20 41  1  0  0  0  0
 21 23  2  0  0  0  0
 21 46  1  0  0  0  0
 22 24  2  0  0  0  0
 22 47  1  0  0  0  0
 23 55  1  0  0  0  0
 24 48  1  0  0  0  0
 25 58  1  0  0  0  0
 26 76  1  0  0  0  0
 27 85  1  0  0  0  0
 28 86  1  0  0  0  0
 29 31  2  0  0  0  0
 29 85  1  0  0  0  0
 30 87  1  0  0  0  0
 31 88  1  0  0  0  0
 32 69  2  0  0  0  0
 33 71  1  0  0  0  0
 33 74  1  0  0  0  0
 34 35  2  0  0  0  0
 34 40  1  0  0  0  0
 35 42  1  0  0  0  0
 36 38  2  0  0  0  0
 36 59  1  0  0  0  0
 37 39  2  0  0  0  0
 37 65  1  0  0  0  0
 38 70  1  0  0  0  0
 39 86  1  0  0  0  0
 40 70  2  0  0  0  0
 41 75  1  0  0  0  0
 41 80  2  0  0  0  0
 42 72  1  0  0  0  0
 42 81  2  0  0  0  0
 43 56  1  0  0  0  0
 43 77  1  0  0  0  0
 43 82  2  0  0  0  0
 44 66  1  0  0  0  0
 44 73  1  0  0  0  0
 44 83  2  0  0  0  0
 45 67  1  0  0  0  0
 45 78  1  0  0  0  0
 45 84  2  0  0  0  0
 46 49  1  0  0  0  0
 47 56  1  0  0  0  0
 48 73  1  0  0  0  0
 49 51  1  0  0  0  0
 50 52  1  0  0  0  0
 50 53  1  0  0  0  0
 51 55  1  0  0  0  0
 52 57  1  0  0  0  0
 53 72  1  0  0  0  0
 54 57  1  0  0  0  0
 54 72  1  0  0  0  0
 55 77  1  0  0  0  0
 56 73  1  0  0  0  0
 57 71  1  0  0  0  0
 60 67  1  0  0  0  0
 61 68  1  0  0  0  0
 62 68  1  0  0  0  0
 63 68  1  0  0  0  0
 64 79  1  0  0  0  0
 65 76  1  0  0  0  0
 66 68  1  0  0  0  0
 66 78  1  0  0  0  0
 67 79  1  0  0  0  0
 69 71  1  0  0  0  0
M  CHG  1  79   1
M  ISO  4  35 100  39 101  42 100  86 101
M  END
> <Batch ID>
0114

> <Smiles>
CC=CN=C(C=[100CH:0][100C:0](=O)N1CCCC(n2nc(-c3ccc(Oc4ccc(F)cc4F)cc3)c(C(N)=O)c2N)C1)c1ccc(NCC=[101CH:1][101O:1]c2ccc3c(c2)CN(C(=O)C(NC(=O)C(C)NC)C(C)(C)C)C(C(=O)NC2CCCc4ccccc42)C3)cc1C

> <Shape>
0.244

> <Color>
0.063

> <Negative vol penalty>
0.000

$$$$

  -OEChem-04052301373D

 85 93  0     1  0  0  0  0  0999 V2000
  -25.8565  -27.2708   28.8633 C   0  0  0  0  0  0  0  0  0  0  0  0
  -25.8575  -25.8835   28.7590 C   0  0  0  0  0  0  0  0  0  0  0  0
  -29.3533  -23.1816   20.9049 C   0  0  0  0  0  0  0  0  0  0  0  0
  -29.5402  -22.6020   18.5669 C   0  0  0  0  0  0  0  0  0  0  0  0
  -24.8012  -28.0082   28.3279 C   0  0  0  0  0  0  0  0  0  0  0  0
  -24.8026  -25.2327   28.1202 C   0  0  0  0  0  0  0  0  0  0  0  0
  -23.4131  -19.4669   24.1026 C   0  0  0  0  0  0  0  0  0  0  0  0
  -29.9649  -24.4090   20.6495 C   0  0  0  0  0  0  0  0  0  0  0  0
  -30.1518  -23.8294   18.3115 C   0  0  0  0  0  0  0  0  0  0  0  0
  -22.5611  -18.3642   24.0594 C   0  0  0  0  0  0  0  0  0  0  0  0
  -31.1504  -27.8440   20.5502 C   0  0  0  0  0  0  0  0  0  0  0  0
  -30.5862  -28.9821   21.1264 C   0  0  0  0  0  0  0  0  0  0  0  0
  -26.0403  -11.5886   20.6789 C   0  0  0  0  0  0  0  0  0  0  0  0
  -20.8309  -19.7463   23.1025 C   0  0  0  0  0  0  0  0  0  0  0  0
  -28.5198  -28.5531   19.9504 C   0  0  0  0  0  0  0  0  0  0  0  0
  -29.1410  -22.2781   19.8636 C   0  0  0  0  0  0  0  0  0  0  0  0
  -24.9004  -11.5152   21.5306 C   0  0  0  0  0  0  0  0  0  0  0  0
  -27.1324  -20.7215   20.0880 C   0  0  0  0  0  0  0  0  0  0  0  0
  -23.7377  -27.3667   27.6737 C   0  0  0  0  0  0  0  0  0  0  0  0
  -22.9761  -20.7221   23.6555 C   0  0  0  0  0  0  0  0  0  0  0  0
  -23.7315  -25.9621   27.5767 C   0  0  0  0  0  0  0  0  0  0  0  0
  -21.6802  -20.8627   23.1388 C   0  0  0  0  0  0  0  0  0  0  0  0
  -30.3641  -24.7329   19.3528 C   0  0  0  0  0  0  0  0  0  0  0  0
  -21.2688  -18.5044   23.5620 C   0  0  0  0  0  0  0  0  0  0  0  0
  -30.3994  -27.0605   19.6739 C   0  0  0  0  0  0  0  0  0  0  0  0
  -29.2709  -29.3366   20.8266 C   0  0  0  0  0  0  0  0  0  0  0  0
  -29.0840  -27.4150   19.3741 C   0  0  0  0  0  0  0  0  0  0  0  0
  -28.5098  -21.0099   20.1268 C   0  0  0  0  0  0  0  0  0  0  0  0
  -25.9599  -12.6434   19.7966 C   0  0  0  0  0  0  0  0  0  0  0  0
  -27.0514  -19.3890   20.4110 C   0  0  0  0  0  0  0  0  0  0  0  0
  -23.9923  -12.5170   21.2670 C   0  0  0  0  0  0  0  0  0  0  0  0
  -25.5912   -9.5606   22.8412 C   0  0  0  0  0  0  0  0  0  0  0  0
  -24.7109  -10.5331   22.5342 C   0  0  0  0  0  0  0  0  0  0  0  0
  -26.0253  -21.5813   19.7868 C   0  0  0  0  0  0  0  0  0  0  0  0
  -22.5756  -23.5704   25.0083 C   0  0  0  0  0  0  0  0  0  0  0  0
  -21.9395  -24.4934   21.9643 C   0  0  0  0  0  0  0  0  0  0  0  0
  -21.8845  -13.8725   21.5168 C   0  0  0  0  0  0  0  0  0  0  0  0
  -20.9147  -23.6238   18.8274 C   0  0  0  0  0  0  0  0  0  0  0  0
  -28.8610  -14.1357   19.8879 C   0  0  0  0  0  0  0  0  0  0  0  0
  -22.5959  -28.2029   27.1524 C   0  0  0  0  0  0  0  0  0  0  0  0
  -23.9164  -21.8957   23.6841 C   0  0  0  0  0  0  0  0  0  0  0  0
  -21.1695  -22.1842   22.6276 C   0  0  0  0  0  0  0  0  0  0  0  0
  -21.7013  -27.4624   26.1617 C   0  0  0  0  0  0  0  0  0  0  0  0
  -30.5540  -16.2219   22.2241 C   0  0  0  0  0  0  0  0  0  0  0  0
  -21.3553  -26.0737   26.6896 C   0  0  0  0  0  0  0  0  0  0  0  0
  -30.0644  -17.6295   21.8794 C   0  0  0  0  0  0  0  0  0  0  0  0
  -30.7201  -15.3603   20.9743 C   0  0  0  0  0  0  0  0  0  0  0  0
  -29.0381  -16.6950   19.7647 C   0  0  0  0  0  0  0  0  0  0  0  0
  -22.6174  -25.2215   26.8692 C   0  0  1  0  0  0  0  0  0  0  0  0
  -23.1946  -23.2398   23.6797 C   0  0  1  0  0  0  0  0  0  0  0  0
  -28.8019  -17.5839   20.9978 C   0  0  2  0  0  0  0  0  0  0  0  0
  -20.4590  -24.6022   16.5619 C   0  0  0  0  0  0  0  0  0  0  0  0
  -19.3188  -25.6637   22.9996 C   0  0  0  0  0  0  0  0  0  0  0  0
  -18.5069  -25.7581   20.6331 C   0  0  0  0  0  0  0  0  0  0  0  0
  -20.5043  -27.0860   21.3185 C   0  0  0  0  0  0  0  0  0  0  0  0
  -22.9829  -21.9332   17.5532 C   0  0  0  0  0  0  0  0  0  0  0  0
  -26.9328  -13.0535   18.7609 C   0  0  0  0  0  0  0  0  0  0  0  0
  -20.6424  -13.8467   22.3968 C   0  0  0  0  0  0  0  0  0  0  0  0
  -20.0562  -15.2354   22.6263 C   0  0  0  0  0  0  0  0  0  0  0  0
  -21.0365  -16.1471   23.3497 C   0  0  0  0  0  0  0  0  0  1  0  0
  -20.6983  -24.5739   21.1088 C   0  0  1  0  0  0  0  0  0  0  0  0
  -21.4906  -23.9339   17.4575 C   0  0  2  0  0  0  0  0  0  0  0  0
  -19.7658  -25.7458   21.5264 C   0  0  0  0  0  0  0  0  0  0  0  0
  -29.2504  -19.9461   20.4492 N   0  0  0  0  0  0  0  0  0  0  0  0
  -28.3351  -18.9764   20.6160 N   0  0  0  0  0  0  0  0  0  0  0  0
  -22.1244  -23.3034   22.6823 N   0  0  0  0  0  0  0  0  0  0  0  0
  -29.4873  -15.3579   20.1831 N   0  0  0  0  0  0  0  0  0  0  0  0
  -26.0080  -18.5418   20.5369 N   0  0  0  0  0  0  0  0  0  0  0  0
  -26.2863  -22.9227   19.4759 N   0  0  0  0  0  0  0  0  0  0  0  0
  -22.7422  -12.8287   21.8525 N   0  0  0  0  0  0  0  0  0  0  0  0
  -23.0746  -24.7197   25.5911 N   0  0  0  0  0  0  0  0  0  0  0  0
  -21.1592  -24.6405   19.7262 N   0  0  0  0  0  0  0  0  0  0  0  0
  -27.6939  -14.2234   19.1388 N   0  0  0  0  0  0  0  0  0  0  0  0
  -21.9490  -22.6813   16.7927 N   0  3  0  0  0  0  0  0  0  0  0  0
  -24.8384  -21.1760   19.8092 O   0  0  0  0  0  0  0  0  0  0  0  0
  -21.7083  -22.8380   25.4698 O   0  0  0  0  0  0  0  0  0  0  0  0
  -22.7201  -25.4483   21.9889 O   0  0  0  0  0  0  0  0  0  0  0  0
  -22.0495  -14.7225   20.6481 O   0  0  0  0  0  0  0  0  0  0  0  0
  -20.3055  -22.5853   19.0744 O   0  0  0  0  0  0  0  0  0  0  0  0
  -29.3058  -13.0475   20.2685 O   0  0  0  0  0  0  0  0  0  0  0  0
  -30.9607  -25.9305   19.1033 O   0  0  0  0  0  0  0  0  0  0  0  0
  -20.4348  -17.4299   23.5192 O   0  0  0  0  0  0  0  0  0  1  0  0
  -28.7287  -30.4286   21.3812 F   0  0  0  0  0  0  0  0  0  0  0  0
  -28.3572  -26.6656   18.5340 F   0  0  0  0  0  0  0  0  0  0  0  0
  -24.5148  -13.5399   19.9970 S   0  0  0  0  0  0  0  0  0  0  0  0
  1  2  1  0  0  0  0
  1  5  2  0  0  0  0
  2  6  2  0  0  0  0
  3  8  2  0  0  0  0
  3 16  1  0  0  0  0
  4  9  1  0  0  0  0
  4 16  2  0  0  0  0
  5 19  1  0  0  0  0
  6 21  1  0  0  0  0
  7 10  2  0  0  0  0
  7 20  1  0  0  0  0
  8 23  1  0  0  0  0
  9 23  2  0  0  0  0
 10 24  1  0  0  0  0
 11 12  2  0  0  0  0
 11 25  1  0  0  0  0
 12 26  1  0  0  0  0
 13 17  1  0  0  0  0
 13 29  2  0  0  0  0
 14 22  1  0  0  0  0
 14 24  2  0  0  0  0
 15 26  2  0  0  0  0
 15 27  1  0  0  0  0
 16 28  1  0  0  0  0
 17 31  2  0  0  0  0
 17 33  1  0  0  0  0
 18 28  1  0  0  0  0
 18 30  2  0  0  0  0
 18 34  1  0  0  0  0
 19 21  2  0  0  0  0
 19 40  1  0  0  0  0
 20 22  2  0  0  0  0
 20 41  1  0  0  0  0
 21 49  1  0  0  0  0
 22 42  1  0  0  0  0
 23 81  1  0  0  0  0
 24 82  1  0  0  0  0
 25 27  2  0  0  0  0
 25 81  1  0  0  0  0
 26 83  1  0  0  0  0
 27 84  1  0  0  0  0
 28 64  2  0  0  0  0
 29 57  1  0  0  0  0
 29 85  1  0  0  0  0
 30 65  1  0  0  0  0
 30 68  1  0  0  0  0
 31 70  1  0  0  0  0
 31 85  1  0  0  0  0
 32 33  2  0  0  0  0
 34 69  1  0  0  0  0
 34 75  2  0  0  0  0
 35 50  1  0  0  0  0
 35 71  1  0  0  0  0
 35 76  2  0  0  0  0
 36 61  1  0  0  0  0
 36 66  1  0  0  0  0
 36 77  2  0  0  0  0
 37 58  1  0  0  0  0
 37 70  1  0  0  0  0
 37 78  2  0  0  0  0
 38 62  1  0  0  0  0
 38 72  1  0  0  0  0
 38 79  2  0  0  0  0
 39 67  1  0  0  0  0
 39 73  1  0  0  0  0
 39 80  2  0  0  0  0
 40 43  1  0  0  0  0
 41 50  1  0  0  0  0
 42 66  1  0  0  0  0
 43 45  1  0  0  0  0
 44 46  1  0  0  0  0
 44 47  1  0  0  0  0
 45 49  1  0  0  0  0
 46 51  1  0  0  0  0
 47 67  1  0  0  0  0
 48 51  1  0  0  0  0
 48 67  1  0  0  0  0
 49 71  1  0  0  0  0
 50 66  1  0  0  0  0
 51 65  1  0  0  0  0
 52 62  1  0  0  0  0
 53 63  1  0  0  0  0
 54 63  1  0  0  0  0
 55 63  1  0  0  0  0
 56 74  1  0  0  0  0
 57 73  1  0  0  0  0
 58 59  1  0  0  0  0
 59 60  1  0  0  0  0
 60 82  1  0  0  0  0
 61 63  1  0  0  0  0
 61 72  1  0  0  0  0
 62 74  1  0  0  0  0
 64 65  1  0  0  0  0
M  CHG  1  74   1
M  ISO  4  39 100  60 101  73 100  82 101
M  END
> <Batch ID>
0114

> <Smiles>
C=Cc1cc(C[100NH:0][100C:0](=O)N2CCCC(n3nc(-c4ccc(Oc5ccc(F)cc5F)cc4)c(C(N)=O)c3N)C2)sc1NC(=O)CC[101CH2:1][101O:1]c1ccc2c(c1)CN(C(=O)C(NC(=O)C(C)NC)C(C)(C)C)C(C(=O)NC1CCCc3ccccc31)C2

> <Shape>
0.212

> <Color>
0.067

> <Negative vol penalty>
0.000

$$$$

  -OEChem-04052301373D

 84 92  0     1  0  0  0  0  0999 V2000
  -27.6187  -33.2490   24.1078 C   0  0  0  0  0  0  0  0  0  0  0  0
  -28.1289  -31.9882   24.3999 C   0  0  0  0  0  0  0  0  0  0  0  0
  -23.1038   -9.8606   21.4182 C   0  0  0  0  0  0  0  0  0  0  0  0
  -23.8598  -10.7102   23.5498 C   0  0  0  0  0  0  0  0  0  0  0  0
  -26.2398  -33.4420   24.0345 C   0  0  0  0  0  0  0  0  0  0  0  0
  -27.2604  -30.9197   24.6199 C   0  0  0  0  0  0  0  0  0  0  0  0
  -28.7175  -26.7056   22.2192 C   0  0  0  0  0  0  0  0  0  0  0  0
  -22.3824   -8.8618   22.0721 C   0  0  0  0  0  0  0  0  0  0  0  0
  -23.1383   -9.7115   24.2037 C   0  0  0  0  0  0  0  0  0  0  0  0
  -29.7544  -25.9717   22.7936 C   0  0  0  0  0  0  0  0  0  0  0  0
  -23.0193   -5.8842   23.5392 C   0  0  0  0  0  0  0  0  0  0  0  0
  -23.1079   -4.5865   23.0357 C   0  0  0  0  0  0  0  0  0  0  0  0
  -30.3471  -19.3853   22.1403 C   0  0  0  0  0  0  0  0  0  0  0  0
  -28.1433  -24.4391   23.7290 C   0  0  0  0  0  0  0  0  0  0  0  0
  -31.9541  -17.2432   21.3582 C   0  0  0  0  0  0  0  0  0  0  0  0
  -20.7211   -4.5689   22.6612 C   0  0  0  0  0  0  0  0  0  0  0  0
  -23.8426  -10.7847   22.1570 C   0  0  0  0  0  0  0  0  0  0  0  0
  -31.7335  -19.4707   22.2674 C   0  0  0  0  0  0  0  0  0  0  0  0
  -24.1349  -13.1018   21.1308 C   0  0  0  0  0  0  0  0  0  0  0  0
  -25.3542  -32.3732   24.2442 C   0  0  0  0  0  0  0  0  0  0  0  0
  -27.3828  -26.3173   22.4047 C   0  0  0  0  0  0  0  0  0  0  0  0
  -25.8683  -31.0988   24.5507 C   0  0  0  0  0  0  0  0  0  0  0  0
  -27.0915  -25.1683   23.1537 C   0  0  0  0  0  0  0  0  0  0  0  0
  -30.5677  -17.1578   21.2311 C   0  0  0  0  0  0  0  0  0  0  0  0
  -22.3996   -8.7873   23.4649 C   0  0  0  0  0  0  0  0  0  0  0  0
  -29.4672  -24.8399   23.5511 C   0  0  0  0  0  0  0  0  0  0  0  0
  -21.7816   -6.5243   23.6039 C   0  0  0  0  0  0  0  0  0  0  0  0
  -29.7642  -18.2288   21.6222 C   0  0  0  0  0  0  0  0  0  0  0  0
  -21.9588   -3.9288   22.5967 C   0  0  0  0  0  0  0  0  0  0  0  0
  -32.5370  -18.3997   21.8763 C   0  0  0  0  0  0  0  0  0  0  0  0
  -20.6326   -5.8666   23.1648 C   0  0  0  0  0  0  0  0  0  0  0  0
  -24.5885  -11.8163   21.4821 C   0  0  0  0  0  0  0  0  0  0  0  0
  -25.2127  -13.6899   20.5151 C   0  0  0  0  0  0  0  0  0  0  0  0
  -32.3446  -20.6934   22.8156 C   0  0  0  0  0  0  0  0  0  0  0  0
  -22.8539  -13.7101   21.3421 C   0  0  0  0  0  0  0  0  0  0  0  0
  -24.8253  -27.6469   23.7444 C   0  0  0  0  0  0  0  0  0  0  0  0
  -23.3193  -25.0410   22.5347 C   0  0  0  0  0  0  0  0  0  0  0  0
  -23.5378  -21.8147   21.4440 C   0  0  0  0  0  0  0  0  0  0  0  0
  -30.6570  -14.8311   20.2695 C   0  0  0  0  0  0  0  0  0  0  0  0
  -23.8705  -32.6407   24.2012 C   0  0  0  0  0  0  0  0  0  0  0  0
  -26.2773  -27.1044   21.7561 C   0  0  0  0  0  0  0  0  0  0  0  0
  -25.6766  -24.6976   23.3659 C   0  0  0  0  0  0  0  0  0  0  0  0
  -23.0266  -31.3746   24.0779 C   0  0  0  0  0  0  0  0  0  0  0  0
  -29.5941  -11.7039   18.9398 C   0  0  0  0  0  0  0  0  0  0  0  0
  -23.5087  -30.3137   25.0623 C   0  0  0  0  0  0  0  0  0  0  0  0
  -28.1597  -11.5601   19.4537 C   0  0  0  0  0  0  0  0  0  0  0  0
  -30.5026  -12.3688   19.9724 C   0  0  0  0  0  0  0  0  0  0  0  0
  -28.5795  -13.5072   21.0092 C   0  0  0  0  0  0  0  0  0  0  0  0
  -24.9590  -29.9094   24.7712 C   0  0  1  0  0  0  0  0  0  0  0  0
  -24.9265  -26.9111   22.4383 C   0  0  1  0  0  0  0  0  0  0  0  0
  -27.6122  -12.9017   19.9791 C   0  0  2  0  0  0  0  0  0  0  0  0
  -22.1317  -19.9373   20.5520 C   0  0  0  0  0  0  0  0  0  0  0  0
  -22.2525  -24.5089   25.3433 C   0  0  0  0  0  0  0  0  0  0  0  0
  -21.6794  -22.1847   24.6099 C   0  0  0  0  0  0  0  0  0  0  0  0
  -20.5919  -24.1417   23.5097 C   0  0  0  0  0  0  0  0  0  0  0  0
  -25.0463  -21.7396   18.8988 C   0  0  0  0  0  0  0  0  0  0  0  0
  -27.8403  -18.6215   20.2805 C   0  0  0  0  0  0  0  0  0  0  0  0
  -32.4476  -22.8088   23.7013 C   0  0  0  0  0  0  0  0  0  0  0  0
  -31.7302  -24.1185   23.4302 C   0  0  0  0  0  0  0  0  0  1  0  0
  -23.0256  -23.6475   23.0355 C   0  0  1  0  0  0  0  0  0  0  0  0
  -23.0007  -21.1341   20.1979 C   0  0  2  0  0  0  0  0  0  0  0  0
  -21.9140  -23.6304   24.1224 C   0  0  0  0  0  0  0  0  0  0  0  0
  -25.8557  -11.5997   21.1196 N   0  0  0  0  0  0  0  0  0  0  0  0
  -31.6360  -21.7014   23.1892 N   0  0  0  0  0  0  0  0  0  0  0  0
  -26.2075  -12.7570   20.5340 N   0  0  0  0  0  0  0  0  0  0  0  0
  -24.6301  -25.5044   22.7167 N   0  0  0  0  0  0  0  0  0  0  0  0
  -29.9220  -13.6362   20.4211 N   0  0  0  0  0  0  0  0  0  0  0  0
  -25.3970  -14.9087   19.9647 N   0  0  0  0  0  0  0  0  0  0  0  0
  -21.8595  -12.9653   21.9908 N   0  0  0  0  0  0  0  0  0  0  0  0
  -29.9903  -15.9769   20.7020 N   0  0  0  0  0  0  0  0  0  0  0  0
  -25.0155  -29.0115   23.6377 N   0  0  0  0  0  0  0  0  0  0  0  0
  -22.7200  -22.8457   21.8556 N   0  0  0  0  0  0  0  0  0  0  0  0
  -24.1244  -20.6617   19.3405 N   0  3  0  0  0  0  0  0  0  0  0  0
  -22.5934  -14.8735   20.9522 O   0  0  0  0  0  0  0  0  0  0  0  0
  -24.5906  -27.0231   24.7727 O   0  0  0  0  0  0  0  0  0  0  0  0
  -22.4208  -25.6917   21.9953 O   0  0  0  0  0  0  0  0  0  0  0  0
  -24.5769  -21.4642   21.9990 O   0  0  0  0  0  0  0  0  0  0  0  0
  -31.7833  -14.8407   19.7662 O   0  0  0  0  0  0  0  0  0  0  0  0
  -21.6955   -7.8130   24.1033 O   0  0  0  0  0  0  0  0  0  0  0  0
  -28.4074  -18.1658   21.5068 O   0  0  0  0  0  0  0  0  0  0  0  0
  -30.4774  -24.1221   24.1134 O   0  0  0  0  0  0  0  0  0  1  0  0
  -22.0443   -2.6831   22.1117 F   0  0  0  0  0  0  0  0  0  0  0  0
  -33.8707  -18.4716   21.9925 F   0  0  0  0  0  0  0  0  0  0  0  0
  -19.4409   -6.4768   23.2233 F   0  0  0  0  0  0  0  0  0  0  0  0
  1  2  1  0  0  0  0
  1  5  2  0  0  0  0
  2  6  2  0  0  0  0
  3  8  2  0  0  0  0
  3 17  1  0  0  0  0
  4  9  1  0  0  0  0
  4 17  2  0  0  0  0
  5 20  1  0  0  0  0
  6 22  1  0  0  0  0
  7 10  2  0  0  0  0
  7 21  1  0  0  0  0
  8 25  1  0  0  0  0
  9 25  2  0  0  0  0
 10 26  1  0  0  0  0
 11 12  2  0  0  0  0
 11 27  1  0  0  0  0
 12 29  1  0  0  0  0
 13 18  1  0  0  0  0
 13 28  2  0  0  0  0
 14 23  1  0  0  0  0
 14 26  2  0  0  0  0
 15 24  2  0  0  0  0
 15 30  1  0  0  0  0
 16 29  2  0  0  0  0
 16 31  1  0  0  0  0
 17 32  1  0  0  0  0
 18 30  2  0  0  0  0
 18 34  1  0  0  0  0
 19 32  1  0  0  0  0
 19 33  2  0  0  0  0
 19 35  1  0  0  0  0
 20 22  2  0  0  0  0
 20 40  1  0  0  0  0
 21 23  2  0  0  0  0
 21 41  1  0  0  0  0
 22 49  1  0  0  0  0
 23 42  1  0  0  0  0
 24 28  1  0  0  0  0
 24 70  1  0  0  0  0
 25 79  1  0  0  0  0
 26 81  1  0  0  0  0
 27 31  2  0  0  0  0
 27 79  1  0  0  0  0
 28 80  1  0  0  0  0
 29 82  1  0  0  0  0
 30 83  1  0  0  0  0
 31 84  1  0  0  0  0
 32 63  2  0  0  0  0
 33 65  1  0  0  0  0
 33 68  1  0  0  0  0
 34 64  2  0  0  0  0
 35 69  1  0  0  0  0
 35 74  2  0  0  0  0
 36 50  1  0  0  0  0
 36 71  1  0  0  0  0
 36 75  2  0  0  0  0
 37 60  1  0  0  0  0
 37 66  1  0  0  0  0
 37 76  2  0  0  0  0
 38 61  1  0  0  0  0
 38 72  1  0  0  0  0
 38 77  2  0  0  0  0
 39 67  1  0  0  0  0
 39 70  1  0  0  0  0
 39 78  2  0  0  0  0
 40 43  1  0  0  0  0
 41 50  1  0  0  0  0
 42 66  1  0  0  0  0
 43 45  1  0  0  0  0
 44 46  1  0  0  0  0
 44 47  1  0  0  0  0
 45 49  1  0  0  0  0
 46 51  1  0  0  0  0
 47 67  1  0  0  0  0
 48 51  1  0  0  0  0
 48 67  1  0  0  0  0
 49 71  1  0  0  0  0
 50 66  1  0  0  0  0
 51 65  1  0  0  0  0
 52 61  1  0  0  0  0
 53 62  1  0  0  0  0
 54 62  1  0  0  0  0
 55 62  1  0  0  0  0
 56 73  1  0  0  0  0
 57 80  1  0  0  0  0
 58 59  1  0  0  0  0
 58 64  1  0  0  0  0
 59 81  1  0  0  0  0
 60 62  1  0  0  0  0
 60 72  1  0  0  0  0
 61 73  1  0  0  0  0
 63 65  1  0  0  0  0
M  CHG  1  73   1
M  ISO  4  39 100  59 101  70 100  81 101
M  END
> <Batch ID>
0114

> <Smiles>
CNC(C)C(=O)NC(C(=O)N1Cc2cc([101O:1][101CH2:1]CN=Cc3cc(OC)c([100NH:0][100C:0](=O)N4CCCC(n5nc(-c6ccc(Oc7ccc(F)cc7F)cc6)c(C(N)=O)c5N)C4)cc3F)ccc2CC1C(=O)NC1CCCc2ccccc21)C(C)(C)C

> <Shape>
0.234

> <Color>
0.153

> <Negative vol penalty>
0.000

$$$$

  -OEChem-04052301373D

 85 93  0     1  0  0  0  0  0999 V2000
  -21.6582  -32.3895   13.4054 C   0  0  0  0  0  0  0  0  0  0  0  0
  -22.3718  -31.3506   13.9944 C   0  0  0  0  0  0  0  0  0  0  0  0
  -24.3252   -8.8354   21.3870 C   0  0  0  0  0  0  0  0  0  0  0  0
  -24.7726  -10.0887   23.4034 C   0  0  0  0  0  0  0  0  0  0  0  0
  -21.9376  -33.7105   13.7530 C   0  0  0  0  0  0  0  0  0  0  0  0
  -23.3661  -31.6322   14.9305 C   0  0  0  0  0  0  0  0  0  0  0  0
  -24.8444  -28.2946   19.8479 C   0  0  0  0  0  0  0  0  0  0  0  0
  -24.0473   -7.7030   22.1525 C   0  0  0  0  0  0  0  0  0  0  0  0
  -24.4946   -8.9563   24.1689 C   0  0  0  0  0  0  0  0  0  0  0  0
  -25.8543  -27.3616   20.0793 C   0  0  0  0  0  0  0  0  0  0  0  0
  -22.8692   -4.5800   23.5927 C   0  0  0  0  0  0  0  0  0  0  0  0
  -21.7389   -3.8336   23.2598 C   0  0  0  0  0  0  0  0  0  0  0  0
  -27.2159  -29.0898   21.0685 C   0  0  0  0  0  0  0  0  0  0  0  0
  -27.5248  -20.3871   20.9939 C   0  0  0  0  0  0  0  0  0  0  0  0
  -29.7846  -18.9209   20.2682 C   0  0  0  0  0  0  0  0  0  0  0  0
  -20.3446   -5.7649   23.6641 C   0  0  0  0  0  0  0  0  0  0  0  0
  -24.6879  -10.0283   22.0124 C   0  0  0  0  0  0  0  0  0  0  0  0
  -24.0657  -12.1894   20.8082 C   0  0  0  0  0  0  0  0  0  0  0  0
  -22.9292  -34.0079   14.7010 C   0  0  0  0  0  0  0  0  0  0  0  0
  -25.0174  -29.6367   20.2159 C   0  0  0  0  0  0  0  0  0  0  0  0
  -23.6600  -32.9585   15.2902 C   0  0  0  0  0  0  0  0  0  0  0  0
  -26.2057  -30.0373   20.8430 C   0  0  0  0  0  0  0  0  0  0  0  0
  -27.3947  -19.0567   20.5956 C   0  0  0  0  0  0  0  0  0  0  0  0
  -28.7848  -20.9845   21.0293 C   0  0  0  0  0  0  0  0  0  0  0  0
  -28.5245  -18.3236   20.2328 C   0  0  0  0  0  0  0  0  0  0  0  0
  -24.1319   -7.7634   23.5434 C   0  0  0  0  0  0  0  0  0  0  0  0
  -27.0414  -27.7597   20.6870 C   0  0  0  0  0  0  0  0  0  0  0  0
  -22.7373   -5.9188   23.9613 C   0  0  0  0  0  0  0  0  0  0  0  0
  -20.4766   -4.4260   23.2955 C   0  0  0  0  0  0  0  0  0  0  0  0
  -29.9147  -20.2514   20.6665 C   0  0  0  0  0  0  0  0  0  0  0  0
  -21.4750   -6.5112   23.9970 C   0  0  0  0  0  0  0  0  0  0  0  0
  -24.9757  -11.1982   21.2222 C   0  0  0  0  0  0  0  0  0  0  0  0
  -24.8283  -13.0766   20.0886 C   0  0  0  0  0  0  0  0  0  0  0  0
  -28.8337  -23.1969   20.4862 C   0  0  0  0  0  0  0  0  0  0  0  0
  -22.6571  -12.2984   21.0524 C   0  0  0  0  0  0  0  0  0  0  0  0
  -28.9655  -24.6427   20.8395 C   0  0  0  0  0  0  0  0  0  0  0  0
  -25.0995  -32.4000   18.6471 C   0  0  0  0  0  0  0  0  0  0  0  0
  -25.2264  -33.6479   21.6385 C   0  0  0  0  0  0  0  0  0  0  0  0
  -26.0159  -33.2094   24.9296 C   0  0  0  0  0  0  0  0  0  0  0  0
  -29.4459  -16.1187   19.4354 C   0  0  0  0  0  0  0  0  0  0  0  0
  -23.2281  -35.4536   15.0097 C   0  0  0  0  0  0  0  0  0  0  0  0
  -23.9078  -30.6253   19.9837 C   0  0  0  0  0  0  0  0  0  0  0  0
  -26.4329  -31.4620   21.2755 C   0  0  0  0  0  0  0  0  0  0  0  0
  -24.0401  -35.6484   16.2876 C   0  0  0  0  0  0  0  0  0  0  0  0
  -29.5857  -12.7156   18.3978 C   0  0  0  0  0  0  0  0  0  0  0  0
  -25.2154  -34.6768   16.3265 C   0  0  0  0  0  0  0  0  0  0  0  0
  -28.3239  -12.0990   19.0061 C   0  0  0  0  0  0  0  0  0  0  0  0
  -30.2111  -13.7571   19.3240 C   0  0  0  0  0  0  0  0  0  0  0  0
  -28.0338  -14.1929   20.3910 C   0  0  0  0  0  0  0  0  0  0  0  0
  -24.7291  -33.2225   16.3282 C   0  0  1  0  0  0  0  0  0  0  0  0
  -24.3957  -32.0699   19.9329 C   0  0  1  0  0  0  0  0  0  0  0  0
  -27.3318  -13.1848   19.4666 C   0  0  2  0  0  0  0  0  0  0  0  0
  -25.4769  -18.3361   19.1501 C   0  0  0  0  0  0  0  0  0  0  0  0
  -26.0455  -34.4214   27.1267 C   0  0  0  0  0  0  0  0  0  0  0  0
  -27.7219  -35.1696   20.7627 C   0  0  0  0  0  0  0  0  0  0  0  0
  -28.2332  -35.5824   23.1786 C   0  0  0  0  0  0  0  0  0  0  0  0
  -26.1371  -36.4904   22.1763 C   0  0  0  0  0  0  0  0  0  0  0  0
  -24.1196  -31.2901   26.1459 C   0  0  0  0  0  0  0  0  0  0  0  0
  -26.0328  -18.4420   20.5666 C   0  0  0  0  0  0  0  0  0  0  0  0
  -27.7816  -25.5072   20.5028 C   0  0  0  0  0  0  0  0  0  1  0  0
  -26.3325  -34.0059   22.6015 C   0  0  1  0  0  0  0  0  0  0  0  0
  -25.2453  -33.5192   26.2003 C   0  0  2  0  0  0  0  0  0  0  0  0
  -27.1030  -35.2855   22.1700 C   0  0  0  0  0  0  0  0  0  0  0  0
  -26.2211  -11.4331   20.8004 N   0  0  0  0  0  0  0  0  0  0  0  0
  -28.9141  -22.3249   21.4302 N   0  0  0  0  0  0  0  0  0  0  0  0
  -26.0991  -12.5820   20.1139 N   0  0  0  0  0  0  0  0  0  0  0  0
  -25.3208  -32.3927   21.0211 N   0  0  0  0  0  0  0  0  0  0  0  0
  -29.2137  -14.7554   19.7156 N   0  0  0  0  0  0  0  0  0  0  0  0
  -24.5290  -14.2237   19.4428 N   0  0  0  0  0  0  0  0  0  0  0  0
  -22.0313  -11.2999   21.8111 N   0  0  0  0  0  0  0  0  0  0  0  0
  -28.4133  -16.9713   19.8246 N   0  0  0  0  0  0  0  0  0  0  0  0
  -24.2600  -32.8479   17.6451 N   0  0  0  0  0  0  0  0  0  0  0  0
  -25.7129  -34.0973   23.9191 N   0  0  0  0  0  0  0  0  0  0  0  0
  -24.9246  -32.2608   26.9314 N   0  3  0  0  0  0  0  0  0  0  0  0
  -21.9706  -13.2445   20.5972 O   0  0  0  0  0  0  0  0  0  0  0  0
  -29.9962  -25.0142   21.3781 O   0  0  0  0  0  0  0  0  0  0  0  0
  -26.3145  -32.2600   18.5702 O   0  0  0  0  0  0  0  0  0  0  0  0
  -24.3086  -34.4495   21.4467 O   0  0  0  0  0  0  0  0  0  0  0  0
  -26.8103  -32.2755   24.8432 O   0  0  0  0  0  0  0  0  0  0  0  0
  -30.4722  -16.4985   18.8659 O   0  0  0  0  0  0  0  0  0  0  0  0
  -23.8606   -6.6587   24.2907 O   0  0  0  0  0  0  0  0  0  0  0  0
  -28.0290  -26.8513   20.9134 O   0  0  0  0  0  0  0  0  0  1  0  0
  -19.3914   -3.7096   22.9743 F   0  0  0  0  0  0  0  0  0  0  0  0
  -31.1294  -20.8173   20.6985 F   0  0  0  0  0  0  0  0  0  0  0  0
  -21.3421   -7.7974   24.3491 F   0  0  0  0  0  0  0  0  0  0  0  0
  1  2  1  0  0  0  0
  1  5  2  0  0  0  0
  2  6  2  0  0  0  0
  3  8  2  0  0  0  0
  3 17  1  0  0  0  0
  4  9  1  0  0  0  0
  4 17  2  0  0  0  0
  5 19  1  0  0  0  0
  6 21  1  0  0  0  0
  7 10  2  0  0  0  0
  7 20  1  0  0  0  0
  8 26  1  0  0  0  0
  9 26  2  0  0  0  0
 10 27  1  0  0  0  0
 11 12  2  0  0  0  0
 11 28  1  0  0  0  0
 12 29  1  0  0  0  0
 13 22  1  0  0  0  0
 13 27  2  0  0  0  0
 14 23  1  0  0  0  0
 14 24  2  0  0  0  0
 15 25  1  0  0  0  0
 15 30  2  0  0  0  0
 16 29  2  0  0  0  0
 16 31  1  0  0  0  0
 17 32  1  0  0  0  0
 18 32  1  0  0  0  0
 18 33  2  0  0  0  0
 18 35  1  0  0  0  0
 19 21  2  0  0  0  0
 19 41  1  0  0  0  0
 20 22  2  0  0  0  0
 20 42  1  0  0  0  0
 21 50  1  0  0  0  0
 22 43  1  0  0  0  0
 23 25  2  0  0  0  0
 23 59  1  0  0  0  0
 24 30  1  0  0  0  0
 24 65  1  0  0  0  0
 25 71  1  0  0  0  0
 26 81  1  0  0  0  0
 27 82  1  0  0  0  0
 28 31  2  0  0  0  0
 28 81  1  0  0  0  0
 29 83  1  0  0  0  0
 30 84  1  0  0  0  0
 31 85  1  0  0  0  0
 32 64  2  0  0  0  0
 33 66  1  0  0  0  0
 33 69  1  0  0  0  0
 34 36  1  0  0  0  0
 34 65  2  0  0  0  0
 35 70  1  0  0  0  0
 35 75  2  0  0  0  0
 36 60  1  0  0  0  0
 36 76  2  0  0  0  0
 37 51  1  0  0  0  0
 37 72  1  0  0  0  0
 37 77  2  0  0  0  0
 38 61  1  0  0  0  0
 38 67  1  0  0  0  0
 38 78  2  0  0  0  0
 39 62  1  0  0  0  0
 39 73  1  0  0  0  0
 39 79  2  0  0  0  0
 40 68  1  0  0  0  0
 40 71  1  0  0  0  0
 40 80  2  0  0  0  0
 41 44  1  0  0  0  0
 42 51  1  0  0  0  0
 43 67  1  0  0  0  0
 44 46  1  0  0  0  0
 45 47  1  0  0  0  0
 45 48  1  0  0  0  0
 46 50  1  0  0  0  0
 47 52  1  0  0  0  0
 48 68  1  0  0  0  0
 49 52  1  0  0  0  0
 49 68  1  0  0  0  0
 50 72  1  0  0  0  0
 51 67  1  0  0  0  0
 52 66  1  0  0  0  0
 53 59  1  0  0  0  0
 54 62  1  0  0  0  0
 55 63  1  0  0  0  0
 56 63  1  0  0  0  0
 57 63  1  0  0  0  0
 58 74  1  0  0  0  0
 60 82  1  0  0  0  0
 61 63  1  0  0  0  0
 61 73  1  0  0  0  0
 62 74  1  0  0  0  0
 64 66  1  0  0  0  0
M  CHG  1  74   1
M  ISO  4  40 100  60 101  71 100  82 101
M  END
> <Batch ID>
0114

> <Smiles>
C=Cc1cc(NCC(=O)[101CH2:1][101O:1]c2ccc3c(c2)CN(C(=O)C(NC(=O)C(C)NC)C(C)(C)C)C(C(=O)NC2CCCc4ccccc42)C3)c(F)cc1[100NH:0][100C:0](=O)N1CCCC(n2nc(-c3ccc(Oc4ccc(F)cc4F)cc3)c(C(N)=O)c2N)C1

> <Shape>
0.303

> <Color>
0.115

> <Negative vol penalty>
0.000

$$$$

  -OEChem-04052301373D

 84 92  0     1  0  0  0  0  0999 V2000
  -26.3986  -36.1675   23.4858 C   0  0  0  0  0  0  0  0  0  0  0  0
  -27.1673  -35.4615   22.5660 C   0  0  0  0  0  0  0  0  0  0  0  0
  -21.8966  -11.1035   21.8363 C   0  0  0  0  0  0  0  0  0  0  0  0
  -21.5549  -11.3140   19.4538 C   0  0  0  0  0  0  0  0  0  0  0  0
  -25.8905  -35.5197   24.6110 C   0  0  0  0  0  0  0  0  0  0  0  0
  -27.4293  -34.1074   22.7715 C   0  0  0  0  0  0  0  0  0  0  0  0
  -28.4509  -28.0075   19.1571 C   0  0  0  0  0  0  0  0  0  0  0  0
  -21.1765   -9.9089   21.8340 C   0  0  0  0  0  0  0  0  0  0  0  0
  -20.8348  -10.1194   19.4516 C   0  0  0  0  0  0  0  0  0  0  0  0
  -29.3584  -26.9538   19.0572 C   0  0  0  0  0  0  0  0  0  0  0  0
  -21.7209   -6.6737   21.0158 C   0  0  0  0  0  0  0  0  0  0  0  0
  -22.2485   -5.5974   21.7291 C   0  0  0  0  0  0  0  0  0  0  0  0
  -28.3624  -25.9203   20.9961 C   0  0  0  0  0  0  0  0  0  0  0  0
  -25.4377  -21.4082   19.0148 C   0  0  0  0  0  0  0  0  0  0  0  0
  -20.2657   -5.5396   23.1084 C   0  0  0  0  0  0  0  0  0  0  0  0
  -22.0858  -11.8060   20.6461 C   0  0  0  0  0  0  0  0  0  0  0  0
  -24.2158  -13.1979   20.4627 C   0  0  0  0  0  0  0  0  0  0  0  0
  -26.1383  -34.1547   24.8254 C   0  0  0  0  0  0  0  0  0  0  0  0
  -27.4978  -28.0310   20.1854 C   0  0  0  0  0  0  0  0  0  0  0  0
  -26.9252  -33.4411   23.9013 C   0  0  0  0  0  0  0  0  0  0  0  0
  -27.4423  -26.9742   21.1053 C   0  0  0  0  0  0  0  0  0  0  0  0
  -26.3323  -19.7091   17.5487 C   0  0  0  0  0  0  0  0  0  0  0  0
  -25.3013  -20.1848   18.3588 C   0  0  0  0  0  0  0  0  0  0  0  0
  -27.4997  -20.4569   17.3945 C   0  0  0  0  0  0  0  0  0  0  0  0
  -20.6456   -9.4169   20.6417 C   0  0  0  0  0  0  0  0  0  0  0  0
  -29.3161  -25.9114   19.9785 C   0  0  0  0  0  0  0  0  0  0  0  0
  -20.4657   -7.1830   21.3488 C   0  0  0  0  0  0  0  0  0  0  0  0
  -27.6361  -21.6803   18.0504 C   0  0  0  0  0  0  0  0  0  0  0  0
  -21.5209   -5.0303   22.7754 C   0  0  0  0  0  0  0  0  0  0  0  0
  -26.6050  -22.1560   18.8605 C   0  0  0  0  0  0  0  0  0  0  0  0
  -19.7381   -6.6160   22.3951 C   0  0  0  0  0  0  0  0  0  0  0  0
  -22.8292  -13.0404   20.6479 C   0  0  0  0  0  0  0  0  0  0  0  0
  -24.4223  -14.5529   20.5519 C   0  0  0  0  0  0  0  0  0  0  0  0
  -25.2267  -12.2080   20.2307 C   0  0  0  0  0  0  0  0  0  0  0  0
  -26.8739  -29.9752   22.6215 C   0  0  0  0  0  0  0  0  0  0  0  0
  -24.2940  -28.0446   22.9949 C   0  0  0  0  0  0  0  0  0  0  0  0
  -22.8603  -24.9917   22.4738 C   0  0  0  0  0  0  0  0  0  0  0  0
  -22.9998  -19.7895   19.3039 C   0  0  0  0  0  0  0  0  0  0  0  0
  -25.6075  -33.5090   26.0808 C   0  0  0  0  0  0  0  0  0  0  0  0
  -26.5087  -29.1615   20.2635 C   0  0  0  0  0  0  0  0  0  0  0  0
  -26.4253  -26.9419   22.2157 C   0  0  0  0  0  0  0  0  0  0  0  0
  -25.6176  -31.9833   26.0320 C   0  0  0  0  0  0  0  0  0  0  0  0
  -21.3254  -18.2652   22.0517 C   0  0  0  0  0  0  0  0  0  0  0  0
  -26.9566  -31.4748   25.5071 C   0  0  0  0  0  0  0  0  0  0  0  0
  -21.6814  -16.7830   21.9162 C   0  0  0  0  0  0  0  0  0  0  0  0
  -21.1258  -18.9274   20.6895 C   0  0  0  0  0  0  0  0  0  0  0  0
  -22.5919  -17.2683   19.6091 C   0  0  0  0  0  0  0  0  0  0  0  0
  -27.2105  -31.9653   24.0765 C   0  0  1  0  0  0  0  0  0  0  0  0
  -25.9133  -29.3394   21.6567 C   0  0  1  0  0  0  0  0  0  0  0  0
  -22.8664  -16.5738   20.9530 C   0  0  2  0  0  0  0  0  0  0  0  0
  -26.1849  -18.3955   16.8449 C   0  0  0  0  0  0  0  0  0  0  0  0
  -20.7572  -23.7000   22.9270 C   0  0  0  0  0  0  0  0  0  0  0  0
  -25.1575  -27.6612   25.8962 C   0  0  0  0  0  0  0  0  0  0  0  0
  -23.6310  -25.6804   26.0158 C   0  0  0  0  0  0  0  0  0  0  0  0
  -22.6947  -27.9492   25.5701 C   0  0  0  0  0  0  0  0  0  0  0  0
  -22.3131  -24.6451   19.5860 C   0  0  0  0  0  0  0  0  0  0  0  0
  -31.0165  -23.0675   18.5184 C   0  0  0  0  0  0  0  0  0  0  0  0
  -30.6703  -24.5470   18.5784 C   0  0  0  0  0  0  0  0  0  1  0  0
  -29.8190  -22.1892   18.8452 C   0  0  0  0  0  0  0  0  0  0  0  0
  -24.0113  -26.7740   23.7596 C   0  0  1  0  0  0  0  0  0  0  0  0
  -21.4930  -24.5981   21.9448 C   0  0  2  0  0  0  0  0  0  0  0  0
  -23.8942  -27.0175   25.2908 C   0  0  0  0  0  0  0  0  0  0  0  0
  -22.1993  -14.2024   20.8404 N   0  0  0  0  0  0  0  0  0  0  0  0
  -23.1947  -15.1030   20.7767 N   0  0  0  0  0  0  0  0  0  0  0  0
  -25.4839  -28.0732   22.2538 N   0  0  0  0  0  0  0  0  0  0  0  0
  -22.2895  -18.6908   19.8324 N   0  0  0  0  0  0  0  0  0  0  0  0
  -28.5484  -19.9799   16.5742 N   0  0  0  0  0  0  0  0  0  0  0  0
  -25.5324  -15.3154   20.4594 N   0  0  0  0  0  0  0  0  0  0  0  0
  -24.8417  -10.8619   20.1678 N   0  0  0  0  0  0  0  0  0  0  0  0
  -24.1069  -19.4421   18.5304 N   0  0  0  0  0  0  0  0  0  0  0  0
  -26.4418  -31.1849   23.1308 N   0  0  0  0  0  0  0  0  0  0  0  0
  -22.8191  -26.1902   23.1545 N   0  0  0  0  0  0  0  0  0  0  0  0
  -21.6278  -23.8695   20.6518 N   0  3  0  0  0  0  0  0  0  0  0  0
  -26.4379  -12.5069   20.0999 O   0  0  0  0  0  0  0  0  0  0  0  0
  -27.9283  -29.4093   22.8856 O   0  0  0  0  0  0  0  0  0  0  0  0
  -23.4854  -28.9746   23.0473 O   0  0  0  0  0  0  0  0  0  0  0  0
  -23.8639  -24.3030   22.3037 O   0  0  0  0  0  0  0  0  0  0  0  0
  -22.6676  -20.9531   19.5439 O   0  0  0  0  0  0  0  0  0  0  0  0
  -19.9430   -8.2511   20.6391 O   0  0  0  0  0  0  0  0  0  0  0  0
  -30.2011  -24.8820   19.8837 O   0  0  0  0  0  0  0  0  0  1  0  0
  -28.7748  -22.4305   17.9118 O   0  0  0  0  0  0  0  0  0  0  0  0
  -22.0269   -3.9958   23.4593 F   0  0  0  0  0  0  0  0  0  0  0  0
  -26.7294  -23.3308   19.4935 F   0  0  0  0  0  0  0  0  0  0  0  0
  -18.5313   -7.1002   22.7189 F   0  0  0  0  0  0  0  0  0  0  0  0
  1  2  1  0  0  0  0
  1  5  2  0  0  0  0
  2  6  2  0  0  0  0
  3  8  2  0  0  0  0
  3 16  1  0  0  0  0
  4  9  1  0  0  0  0
  4 16  2  0  0  0  0
  5 18  1  0  0  0  0
  6 20  1  0  0  0  0
  7 10  2  0  0  0  0
  7 19  1  0  0  0  0
  8 25  1  0  0  0  0
  9 25  2  0  0  0  0
 10 26  1  0  0  0  0
 11 12  2  0  0  0  0
 11 27  1  0  0  0  0
 12 29  1  0  0  0  0
 13 21  1  0  0  0  0
 13 26  2  0  0  0  0
 14 23  1  0  0  0  0
 14 30  2  0  0  0  0
 15 29  2  0  0  0  0
 15 31  1  0  0  0  0
 16 32  1  0  0  0  0
 17 32  1  0  0  0  0
 17 33  2  0  0  0  0
 17 34  1  0  0  0  0
 18 20  2  0  0  0  0
 18 39  1  0  0  0  0
 19 21  2  0  0  0  0
 19 40  1  0  0  0  0
 20 48  1  0  0  0  0
 21 41  1  0  0  0  0
 22 23  2  0  0  0  0
 22 24  1  0  0  0  0
 22 51  1  0  0  0  0
 23 70  1  0  0  0  0
 24 28  2  0  0  0  0
 24 67  1  0  0  0  0
 25 79  1  0  0  0  0
 26 80  1  0  0  0  0
 27 31  2  0  0  0  0
 27 79  1  0  0  0  0
 28 30  1  0  0  0  0
 28 81  1  0  0  0  0
 29 82  1  0  0  0  0
 30 83  1  0  0  0  0
 31 84  1  0  0  0  0
 32 63  2  0  0  0  0
 33 64  1  0  0  0  0
 33 68  1  0  0  0  0
 34 69  1  0  0  0  0
 34 74  2  0  0  0  0
 35 49  1  0  0  0  0
 35 71  1  0  0  0  0
 35 75  2  0  0  0  0
 36 60  1  0  0  0  0
 36 65  1  0  0  0  0
 36 76  2  0  0  0  0
 37 61  1  0  0  0  0
 37 72  1  0  0  0  0
 37 77  2  0  0  0  0
 38 66  1  0  0  0  0
 38 70  1  0  0  0  0
 38 78  2  0  0  0  0
 39 42  1  0  0  0  0
 40 49  1  0  0  0  0
 41 65  1  0  0  0  0
 42 44  1  0  0  0  0
 43 45  1  0  0  0  0
 43 46  1  0  0  0  0
 44 48  1  0  0  0  0
 45 50  1  0  0  0  0
 46 66  1  0  0  0  0
 47 50  1  0  0  0  0
 47 66  1  0  0  0  0
 48 71  1  0  0  0  0
 49 65  1  0  0  0  0
 50 64  1  0  0  0  0
 52 61  1  0  0  0  0
 53 62  1  0  0  0  0
 54 62  1  0  0  0  0
 55 62  1  0  0  0  0
 56 73  1  0  0  0  0
 57 58  1  0  0  0  0
 57 59  1  0  0  0  0
 58 80  1  0  0  0  0
 59 81  1  0  0  0  0
 60 62  1  0  0  0  0
 60 72  1  0  0  0  0
 61 73  1  0  0  0  0
 63 64  1  0  0  0  0
M  CHG  1  73   1
M  ISO  4  38 100  58 101  70 100  80 101
M  END
> <Batch ID>
0114

> <Smiles>
CNC(C)C(=O)NC(C(=O)N1Cc2cc([101O:1][101CH2:1]CCOc3c(F)cc([100NH:0][100C:0](=O)N4CCCC(n5nc(-c6ccc(Oc7ccc(F)cc7F)cc6)c(C(N)=O)c5N)C4)c(C)c3N)ccc2CC1C(=O)NC1CCCc2ccccc21)C(C)(C)C

> <Shape>
0.229

> <Color>
0.096

> <Negative vol penalty>
0.000

$$$$

  -OEChem-04052301373D

 88 96  0     1  0  0  0  0  0999 V2000
  -41.7040  -28.2498   28.6890 C   0  0  0  0  0  0  0  0  0  0  0  0
  -41.4756  -26.9132   28.3782 C   0  0  0  0  0  0  0  0  0  0  0  0
  -22.9995   -9.8936   19.9815 C   0  0  0  0  0  0  0  0  0  0  0  0
  -23.7238   -9.9464   22.2858 C   0  0  0  0  0  0  0  0  0  0  0  0
  -40.6460  -29.0590   29.1013 C   0  0  0  0  0  0  0  0  0  0  0  0
  -40.1894  -26.3846   28.4806 C   0  0  0  0  0  0  0  0  0  0  0  0
  -37.6762  -22.0955   24.9038 C   0  0  0  0  0  0  0  0  0  0  0  0
  -22.2326   -8.7596   20.2485 C   0  0  0  0  0  0  0  0  0  0  0  0
  -22.9569   -8.8123   22.5528 C   0  0  0  0  0  0  0  0  0  0  0  0
  -37.5091  -20.7206   25.0638 C   0  0  0  0  0  0  0  0  0  0  0  0
  -21.4741   -5.7207   23.7583 C   0  0  0  0  0  0  0  0  0  0  0  0
  -22.0596   -4.7054   24.5146 C   0  0  0  0  0  0  0  0  0  0  0  0
  -35.2699  -21.0937   25.8797 C   0  0  0  0  0  0  0  0  0  0  0  0
  -31.8736  -18.3239   24.1726 C   0  0  0  0  0  0  0  0  0  0  0  0
  -23.7865   -4.4564   22.8434 C   0  0  0  0  0  0  0  0  0  0  0  0
  -23.7452  -10.4870   21.0001 C   0  0  0  0  0  0  0  0  0  0  0  0
  -30.0947  -17.7974   22.6249 C   0  0  0  0  0  0  0  0  0  0  0  0
  -24.1312  -13.0024   20.8221 C   0  0  0  0  0  0  0  0  0  0  0  0
  -39.3444  -28.5425   29.1995 C   0  0  0  0  0  0  0  0  0  0  0  0
  -36.6434  -22.9820   25.2414 C   0  0  0  0  0  0  0  0  0  0  0  0
  -39.1133  -27.1872   28.8959 C   0  0  0  0  0  0  0  0  0  0  0  0
  -35.4254  -22.4792   25.7206 C   0  0  0  0  0  0  0  0  0  0  0  0
  -32.4528  -17.0783   23.9307 C   0  0  0  0  0  0  0  0  0  0  0  0
  -30.6739  -16.5517   22.3830 C   0  0  0  0  0  0  0  0  0  0  0  0
  -22.2112   -8.2189   21.5342 C   0  0  0  0  0  0  0  0  0  0  0  0
  -36.3069  -20.2197   25.5545 C   0  0  0  0  0  0  0  0  0  0  0  0
  -22.0448   -6.1038   22.5445 C   0  0  0  0  0  0  0  0  0  0  0  0
  -30.6945  -18.6835   23.5197 C   0  0  0  0  0  0  0  0  0  0  0  0
  -31.8530  -16.1922   23.0359 C   0  0  0  0  0  0  0  0  0  0  0  0
  -23.2158   -4.0733   24.0572 C   0  0  0  0  0  0  0  0  0  0  0  0
  -23.2010   -5.4717   22.0871 C   0  0  0  0  0  0  0  0  0  0  0  0
  -24.5381  -11.6582   20.7248 C   0  0  0  0  0  0  0  0  0  0  0  0
  -25.2413  -13.7244   20.4575 C   0  0  0  0  0  0  0  0  0  0  0  0
  -27.6551  -17.9784   22.4495 C   0  0  0  0  0  0  0  0  0  0  0  0
  -28.8605  -18.1882   21.9479 C   0  0  0  0  0  0  0  0  0  0  0  0
  -34.7377  -17.0503   23.9905 C   0  0  0  0  0  0  0  0  0  0  0  0
  -22.8633  -13.5494   21.2077 C   0  0  0  0  0  0  0  0  0  0  0  0
  -36.3127  -25.3453   27.3412 C   0  0  0  0  0  0  0  0  0  0  0  0
  -33.4715  -25.7652   25.8334 C   0  0  0  0  0  0  0  0  0  0  0  0
  -30.9650  -24.4191   23.9486 C   0  0  0  0  0  0  0  0  0  0  0  0
  -30.7209  -14.6842   20.6928 C   0  0  0  0  0  0  0  0  0  0  0  0
  -38.2413  -29.4437   29.6951 C   0  0  0  0  0  0  0  0  0  0  0  0
  -36.8298  -24.4606   25.0377 C   0  0  0  0  0  0  0  0  0  0  0  0
  -34.2784  -23.3874   26.0785 C   0  0  0  0  0  0  0  0  0  0  0  0
  -36.8413  -28.9022   29.4175 C   0  0  0  0  0  0  0  0  0  0  0  0
  -29.6030  -12.2296   18.3686 C   0  0  0  0  0  0  0  0  0  0  0  0
  -36.7534  -27.4283   29.8006 C   0  0  0  0  0  0  0  0  0  0  0  0
  -28.1521  -11.9727   18.7824 C   0  0  0  0  0  0  0  0  0  0  0  0
  -30.5031  -12.4739   19.5785 C   0  0  0  0  0  0  0  0  0  0  0  0
  -28.5874  -13.2644   20.9106 C   0  0  0  0  0  0  0  0  0  0  0  0
  -37.7276  -26.5835   28.9708 C   0  0  1  0  0  0  0  0  0  0  0  0
  -35.8950  -25.3048   25.8984 C   0  0  1  0  0  0  0  0  0  0  0  0
  -27.6301  -13.0772   19.7222 C   0  0  2  0  0  0  0  0  0  0  0  0
  -28.6198  -21.1510   25.1327 C   0  0  0  0  0  0  0  0  0  0  0  0
  -28.7571  -24.9969   22.9053 C   0  0  0  0  0  0  0  0  0  0  0  0
  -32.1355  -25.5931   28.5711 C   0  0  0  0  0  0  0  0  0  0  0  0
  -29.9517  -25.2207   27.4047 C   0  0  0  0  0  0  0  0  0  0  0  0
  -31.1988  -27.3538   27.0621 C   0  0  0  0  0  0  0  0  0  0  0  0
  -31.9766  -23.8648   21.2231 C   0  0  0  0  0  0  0  0  0  0  0  0
  -32.0164  -13.8989   23.6440 C   0  0  0  0  0  0  0  0  0  0  0  0
  -36.0734  -16.7421   24.6124 C   0  0  0  0  0  0  0  0  0  0  0  0
  -29.7809  -20.1798   25.1267 C   0  0  0  0  0  0  0  0  0  0  0  0
  -36.8587  -18.0260   24.8203 C   0  0  0  0  0  0  0  0  0  1  0  0
  -32.0739  -25.2247   26.0164 C   0  0  1  0  0  0  0  0  0  0  0  0
  -30.2622  -24.9217   22.7005 C   0  0  2  0  0  0  0  0  0  0  0  0
  -31.3621  -25.8308   27.2588 C   0  0  0  0  0  0  0  0  0  0  0  0
  -25.8075  -11.5310   20.3292 N   0  0  0  0  0  0  0  0  0  0  0  0
  -33.6406  -16.7309   24.5958 N   0  0  0  0  0  0  0  0  0  0  0  0
  -26.2078  -12.8046   20.1747 N   0  0  0  0  0  0  0  0  0  0  0  0
  -34.5116  -24.8257   25.8677 N   0  0  0  0  0  0  0  0  0  0  0  0
  -29.9480  -13.5357   20.4207 N   0  0  0  0  0  0  0  0  0  0  0  0
  -25.4752  -15.0499   20.3544 N   0  0  0  0  0  0  0  0  0  0  0  0
  -21.8311  -12.6659   21.5515 N   0  0  0  0  0  0  0  0  0  0  0  0
  -30.0766  -15.6403   21.4773 N   0  0  0  0  0  0  0  0  0  0  0  0
  -37.1991  -26.3619   27.6419 N   0  0  0  0  0  0  0  0  0  0  0  0
  -31.3776  -25.4581   24.7558 N   0  0  0  0  0  0  0  0  0  0  0  0
  -30.5352  -24.0134   21.5510 N   0  3  0  0  0  0  0  0  0  0  0  0
  -22.6469  -14.7848   21.2303 O   0  0  0  0  0  0  0  0  0  0  0  0
  -35.8630  -24.5166   28.1239 O   0  0  0  0  0  0  0  0  0  0  0  0
  -33.6338  -26.9756   25.6590 O   0  0  0  0  0  0  0  0  0  0  0  0
  -31.1282  -23.2242   24.1858 O   0  0  0  0  0  0  0  0  0  0  0  0
  -31.8598  -14.8225   20.2391 O   0  0  0  0  0  0  0  0  0  0  0  0
  -21.4628   -7.1125   21.7952 O   0  0  0  0  0  0  0  0  0  0  0  0
  -32.4249  -14.9746   22.8035 O   0  0  0  0  0  0  0  0  0  0  0  0
  -36.1415  -18.8782   25.7123 O   0  0  0  0  0  0  0  0  0  1  0  0
  -30.1520  -19.9081   23.7774 O   0  0  0  0  0  0  0  0  0  0  0  0
  -23.7788   -3.0994   24.7844 F   0  0  0  0  0  0  0  0  0  0  0  0
  -23.7545   -5.8362   20.9224 F   0  0  0  0  0  0  0  0  0  0  0  0
  1  2  1  0  0  0  0
  1  5  2  0  0  0  0
  2  6  2  0  0  0  0
  3  8  2  0  0  0  0
  3 16  1  0  0  0  0
  4  9  1  0  0  0  0
  4 16  2  0  0  0  0
  5 19  1  0  0  0  0
  6 21  1  0  0  0  0
  7 10  2  0  0  0  0
  7 20  1  0  0  0  0
  8 25  1  0  0  0  0
  9 25  2  0  0  0  0
 10 26  1  0  0  0  0
 11 12  2  0  0  0  0
 11 27  1  0  0  0  0
 12 30  1  0  0  0  0
 13 22  1  0  0  0  0
 13 26  2  0  0  0  0
 14 23  1  0  0  0  0
 14 28  2  0  0  0  0
 15 30  2  0  0  0  0
 15 31  1  0  0  0  0
 16 32  1  0  0  0  0
 17 24  2  0  0  0  0
 17 28  1  0  0  0  0
 17 35  1  0  0  0  0
 18 32  1  0  0  0  0
 18 33  2  0  0  0  0
 18 37  1  0  0  0  0
 19 21  2  0  0  0  0
 19 42  1  0  0  0  0
 20 22  2  0  0  0  0
 20 43  1  0  0  0  0
 21 51  1  0  0  0  0
 22 44  1  0  0  0  0
 23 29  2  0  0  0  0
 23 68  1  0  0  0  0
 24 29  1  0  0  0  0
 24 74  1  0  0  0  0
 25 83  1  0  0  0  0
 26 85  1  0  0  0  0
 27 31  2  0  0  0  0
 27 83  1  0  0  0  0
 28 86  1  0  0  0  0
 29 84  1  0  0  0  0
 30 87  1  0  0  0  0
 31 88  1  0  0  0  0
 32 67  2  0  0  0  0
 33 69  1  0  0  0  0
 33 72  1  0  0  0  0
 34 35  2  0  0  0  0
 36 61  1  0  0  0  0
 36 68  2  0  0  0  0
 37 73  1  0  0  0  0
 37 78  2  0  0  0  0
 38 52  1  0  0  0  0
 38 75  1  0  0  0  0
 38 79  2  0  0  0  0
 39 64  1  0  0  0  0
 39 70  1  0  0  0  0
 39 80  2  0  0  0  0
 40 65  1  0  0  0  0
 40 76  1  0  0  0  0
 40 81  2  0  0  0  0
 41 71  1  0  0  0  0
 41 74  1  0  0  0  0
 41 82  2  0  0  0  0
 42 45  1  0  0  0  0
 43 52  1  0  0  0  0
 44 70  1  0  0  0  0
 45 47  1  0  0  0  0
 46 48  1  0  0  0  0
 46 49  1  0  0  0  0
 47 51  1  0  0  0  0
 48 53  1  0  0  0  0
 49 71  1  0  0  0  0
 50 53  1  0  0  0  0
 50 71  1  0  0  0  0
 51 75  1  0  0  0  0
 52 70  1  0  0  0  0
 53 69  1  0  0  0  0
 54 62  1  0  0  0  0
 55 65  1  0  0  0  0
 56 66  1  0  0  0  0
 57 66  1  0  0  0  0
 58 66  1  0  0  0  0
 59 77  1  0  0  0  0
 60 84  1  0  0  0  0
 61 63  1  0  0  0  0
 62 86  1  0  0  0  0
 63 85  1  0  0  0  0
 64 66  1  0  0  0  0
 64 76  1  0  0  0  0
 65 77  1  0  0  0  0
 67 69  1  0  0  0  0
M  CHG  1  77   1
M  ISO  4  41 100  63 101  74 100  85 101
M  END
> <Batch ID>
0114

> <Smiles>
C=Cc1c(OCC)cc(NC=C[101CH2:1][101O:1]c2ccc3c(c2)CN(C(=O)C(NC(=O)C(C)NC)C(C)(C)C)C(C(=O)NC2CCCc4ccccc42)C3)c(OC)c1[100NH:0][100C:0](=O)N1CCCC(n2nc(-c3ccc(Oc4ccc(F)cc4F)cc3)c(C(N)=O)c2N)C1

> <Shape>
0.178

> <Color>
0.190

> <Negative vol penalty>
0.000

$$$$

  -OEChem-04052301373D

 87 95  0     1  0  0  0  0  0999 V2000
  -18.5752  -28.7063   19.0574 C   0  0  0  0  0  0  0  0  0  0  0  0
  -19.5005  -27.7881   18.5714 C   0  0  0  0  0  0  0  0  0  0  0  0
  -23.0985   -9.8740   19.9727 C   0  0  0  0  0  0  0  0  0  0  0  0
  -23.6190  -10.0270   22.3270 C   0  0  0  0  0  0  0  0  0  0  0  0
  -18.9713  -30.0145   19.3323 C   0  0  0  0  0  0  0  0  0  0  0  0
  -20.8224  -28.1780   18.3590 C   0  0  0  0  0  0  0  0  0  0  0  0
  -24.1527  -24.7817   20.0964 C   0  0  0  0  0  0  0  0  0  0  0  0
  -22.3244   -8.7398   20.2175 C   0  0  0  0  0  0  0  0  0  0  0  0
  -22.8448   -8.8928   22.5718 C   0  0  0  0  0  0  0  0  0  0  0  0
  -24.3698  -23.6464   19.3168 C   0  0  0  0  0  0  0  0  0  0  0  0
  -23.1668   -5.5418   22.2595 C   0  0  0  0  0  0  0  0  0  0  0  0
  -23.6977   -4.5640   23.1007 C   0  0  0  0  0  0  0  0  0  0  0  0
  -25.2617  -13.3908   16.2561 C   0  0  0  0  0  0  0  0  0  0  0  0
  -26.3917  -24.6360   18.4496 C   0  0  0  0  0  0  0  0  0  0  0  0
  -27.4557  -14.8558   17.1633 C   0  0  0  0  0  0  0  0  0  0  0  0
  -21.8315   -4.8477   24.6086 C   0  0  0  0  0  0  0  0  0  0  0  0
  -23.7458  -10.5176   21.0274 C   0  0  0  0  0  0  0  0  0  0  0  0
  -26.5548  -12.9912   15.9189 C   0  0  0  0  0  0  0  0  0  0  0  0
  -24.1169  -13.0296   20.7831 C   0  0  0  0  0  0  0  0  0  0  0  0
  -20.3009  -30.4180   19.1323 C   0  0  0  0  0  0  0  0  0  0  0  0
  -25.0492  -25.8590   20.0502 C   0  0  0  0  0  0  0  0  0  0  0  0
  -21.2364  -29.4932   18.6302 C   0  0  0  0  0  0  0  0  0  0  0  0
  -26.1850  -25.7827   19.2315 C   0  0  0  0  0  0  0  0  0  0  0  0
  -25.0656  -14.5231   17.0469 C   0  0  0  0  0  0  0  0  0  0  0  0
  -27.6518  -13.7236   16.3725 C   0  0  0  0  0  0  0  0  0  0  0  0
  -22.1975   -8.2493   21.5171 C   0  0  0  0  0  0  0  0  0  0  0  0
  -25.4879  -23.5746   18.4911 C   0  0  0  0  0  0  0  0  0  0  0  0
  -21.9682   -6.1727   22.5929 C   0  0  0  0  0  0  0  0  0  0  0  0
  -26.1625  -15.2555   17.5005 C   0  0  0  0  0  0  0  0  0  0  0  0
  -23.0301   -4.2169   24.2752 C   0  0  0  0  0  0  0  0  0  0  0  0
  -21.3005   -5.8256   23.7674 C   0  0  0  0  0  0  0  0  0  0  0  0
  -24.5461  -11.6889   20.7751 C   0  0  0  0  0  0  0  0  0  0  0  0
  -25.2460  -13.7534   20.4873 C   0  0  0  0  0  0  0  0  0  0  0  0
  -26.2473  -11.6985   13.8574 C   0  0  0  0  0  0  0  0  0  0  0  0
  -26.7203  -11.8033   15.0895 C   0  0  0  0  0  0  0  0  0  0  0  0
  -22.8139  -13.5722   21.0354 C   0  0  0  0  0  0  0  0  0  0  0  0
  -24.8403  -28.9163   19.2059 C   0  0  0  0  0  0  0  0  0  0  0  0
  -27.8816  -29.0303   20.3283 C   0  0  0  0  0  0  0  0  0  0  0  0
  -30.7715  -27.3605   21.0406 C   0  0  0  0  0  0  0  0  0  0  0  0
  -29.9701  -13.0072   17.0075 C   0  0  0  0  0  0  0  0  0  0  0  0
  -20.6712  -31.8555   19.3990 C   0  0  0  0  0  0  0  0  0  0  0  0
  -24.8149  -27.0654   20.9174 C   0  0  0  0  0  0  0  0  0  0  0  0
  -27.1885  -26.9037   19.1611 C   0  0  0  0  0  0  0  0  0  0  0  0
  -22.1765  -32.0878   19.5013 C   0  0  0  0  0  0  0  0  0  0  0  0
  -30.1067  -12.9324   20.7046 C   0  0  0  0  0  0  0  0  0  0  0  0
  -22.9036  -31.3883   18.3572 C   0  0  0  0  0  0  0  0  0  0  0  0
  -28.6577  -12.6432   21.0919 C   0  0  0  0  0  0  0  0  0  0  0  0
  -30.4566  -12.3447   19.3409 C   0  0  0  0  0  0  0  0  0  0  0  0
  -28.0858  -12.4976   18.6356 C   0  0  0  0  0  0  0  0  0  0  0  0
  -22.6850  -29.8714   18.4102 C   0  0  1  0  0  0  0  0  0  0  0  0
  -25.5206  -28.3166   20.4039 C   0  0  1  0  0  0  0  0  0  0  0  0
  -27.6968  -13.1140   19.9877 C   0  0  1  0  0  0  0  0  0  0  0  0
  -23.6746  -14.9364   17.3991 C   0  0  0  0  0  0  0  0  0  0  0  0
  -29.8227  -14.9881   14.4087 C   0  0  0  0  0  0  0  0  0  0  0  0
  -33.0959  -27.7288   21.9119 C   0  0  0  0  0  0  0  0  0  0  0  0
  -28.6934  -30.2368   17.6458 C   0  0  0  0  0  0  0  0  0  0  0  0
  -31.0744  -29.7009   18.2043 C   0  0  0  0  0  0  0  0  0  0  0  0
  -29.7861  -31.2867   19.6354 C   0  0  0  0  0  0  0  0  0  0  0  0
  -30.3196  -25.5554   23.3420 C   0  0  0  0  0  0  0  0  0  0  0  0
  -26.1134  -20.0889   17.7657 C   0  0  0  0  0  0  0  0  0  0  0  0
  -25.6188  -18.7372   18.2686 C   0  0  0  0  0  0  0  0  0  0  0  0
  -29.4538  -13.5411   14.6666 C   0  0  0  0  0  0  0  0  0  0  0  0
  -25.2158  -21.2258   18.2358 C   0  0  0  0  0  0  0  0  0  1  0  0
  -26.4907  -17.5962   17.7639 C   0  0  0  0  0  0  0  0  0  0  0  0
  -29.2509  -28.8176   19.7293 C   0  0  1  0  0  0  0  0  0  0  0  0
  -31.6625  -27.3681   22.2696 C   0  0  2  0  0  0  0  0  0  0  0  0
  -29.6815  -29.9900   18.8033 C   0  0  0  0  0  0  0  0  0  0  0  0
  -25.8465  -11.5655   20.4961 N   0  0  0  0  0  0  0  0  0  0  0  0
  -26.2440  -12.8379   20.3260 N   0  0  0  0  0  0  0  0  0  0  0  0
  -26.9120  -28.0647   20.0232 N   0  0  0  0  0  0  0  0  0  0  0  0
  -29.4989  -12.7530   18.3119 N   0  0  0  0  0  0  0  0  0  0  0  0
  -25.4727  -15.0773   20.3519 N   0  0  0  0  0  0  0  0  0  0  0  0
  -21.7660  -12.6873   21.3238 N   0  0  0  0  0  0  0  0  0  0  0  0
  -23.5244  -29.2751   19.4272 N   0  0  0  0  0  0  0  0  0  0  0  0
  -30.1540  -28.5786   20.8499 N   0  0  0  0  0  0  0  0  0  0  0  0
  -29.0009  -13.3356   16.0406 N   0  0  0  0  0  0  0  0  0  0  0  0
  -31.6632  -26.0258   22.9171 N   0  3  0  0  0  0  0  0  0  0  0  0
  -22.5822  -14.8042   20.9898 O   0  0  0  0  0  0  0  0  0  0  0  0
  -25.4637  -29.0454   18.1588 O   0  0  0  0  0  0  0  0  0  0  0  0
  -27.6818  -30.0132   21.0464 O   0  0  0  0  0  0  0  0  0  0  0  0
  -30.6396  -26.3740   20.3195 O   0  0  0  0  0  0  0  0  0  0  0  0
  -31.1658  -12.8951   16.7102 O   0  0  0  0  0  0  0  0  0  0  0  0
  -21.4420   -7.1427   21.7564 O   0  0  0  0  0  0  0  0  0  0  0  0
  -25.7019  -22.4679   17.7286 O   0  0  0  0  0  0  0  0  0  1  0  0
  -25.9874  -16.3708   18.2779 O   0  0  0  0  0  0  0  0  0  0  0  0
  -23.5393   -3.2768   25.0821 F   0  0  0  0  0  0  0  0  0  0  0  0
  -20.1481   -6.4274   24.0924 F   0  0  0  0  0  0  0  0  0  0  0  0
  1  2  1  0  0  0  0
  1  5  2  0  0  0  0
  2  6  2  0  0  0  0
  3  8  2  0  0  0  0
  3 17  1  0  0  0  0
  4  9  1  0  0  0  0
  4 17  2  0  0  0  0
  5 20  1  0  0  0  0
  6 22  1  0  0  0  0
  7 10  2  0  0  0  0
  7 21  1  0  0  0  0
  8 26  1  0  0  0  0
  9 26  2  0  0  0  0
 10 27  1  0  0  0  0
 11 12  2  0  0  0  0
 11 28  1  0  0  0  0
 12 30  1  0  0  0  0
 13 18  1  0  0  0  0
 13 24  2  0  0  0  0
 14 23  1  0  0  0  0
 14 27  2  0  0  0  0
 15 25  1  0  0  0  0
 15 29  2  0  0  0  0
 16 30  2  0  0  0  0
 16 31  1  0  0  0  0
 17 32  1  0  0  0  0
 18 25  2  0  0  0  0
 18 35  1  0  0  0  0
 19 32  1  0  0  0  0
 19 33  2  0  0  0  0
 19 36  1  0  0  0  0
 20 22  2  0  0  0  0
 20 41  1  0  0  0  0
 21 23  2  0  0  0  0
 21 42  1  0  0  0  0
 22 50  1  0  0  0  0
 23 43  1  0  0  0  0
 24 29  1  0  0  0  0
 24 53  1  0  0  0  0
 25 76  1  0  0  0  0
 26 83  1  0  0  0  0
 27 84  1  0  0  0  0
 28 31  2  0  0  0  0
 28 83  1  0  0  0  0
 29 85  1  0  0  0  0
 30 86  1  0  0  0  0
 31 87  1  0  0  0  0
 32 68  2  0  0  0  0
 33 69  1  0  0  0  0
 33 72  1  0  0  0  0
 34 35  2  0  0  0  0
 36 73  1  0  0  0  0
 36 78  2  0  0  0  0
 37 51  1  0  0  0  0
 37 74  1  0  0  0  0
 37 79  2  0  0  0  0
 38 65  1  0  0  0  0
 38 70  1  0  0  0  0
 38 80  2  0  0  0  0
 39 66  1  0  0  0  0
 39 75  1  0  0  0  0
 39 81  2  0  0  0  0
 40 71  1  0  0  0  0
 40 76  1  0  0  0  0
 40 82  2  0  0  0  0
 41 44  1  0  0  0  0
 42 51  1  0  0  0  0
 43 70  1  0  0  0  0
 44 46  1  0  0  0  0
 45 47  1  0  0  0  0
 45 48  1  0  0  0  0
 46 50  1  0  0  0  0
 47 52  1  0  0  0  0
 48 71  1  0  0  0  0
 49 52  1  0  0  0  0
 49 71  1  0  0  0  0
 50 74  1  0  0  0  0
 51 70  1  0  0  0  0
 52 69  1  0  0  0  0
 54 62  1  0  0  0  0
 55 66  1  0  0  0  0
 56 67  1  0  0  0  0
 57 67  1  0  0  0  0
 58 67  1  0  0  0  0
 59 77  1  0  0  0  0
 60 61  1  0  0  0  0
 60 63  1  0  0  0  0
 61 64  1  0  0  0  0
 62 76  1  0  0  0  0
 63 84  1  0  0  0  0
 64 85  1  0  0  0  0
 65 67  1  0  0  0  0
 65 75  1  0  0  0  0
 66 77  1  0  0  0  0
 68 69  1  0  0  0  0
M  CHG  1  77   1
M  ISO  4  40 100  63 101  76 100  84 101
M  END
> <Batch ID>
0114

> <Smiles>
C=Cc1cc(C)c(OCCC[101CH2:1][101O:1]c2ccc3c(c2)CN(C(=O)C(NC(=O)C(C)NC)C(C)(C)C)C(C(=O)NC2CCCc4ccccc42)C3)cc1[100N:0](CC)[100C:0](=O)N1CCCC(n2nc(-c3ccc(Oc4ccc(F)cc4F)cc3)c(C(N)=O)c2N)C1

> <Shape>
0.229

> <Color>
0.192

> <Negative vol penalty>
0.000

$$$$

  -OEChem-04052301373D

 87 95  0     1  0  0  0  0  0999 V2000
  -25.4017  -28.9433   20.3350 C   0  0  0  0  0  0  0  0  0  0  0  0
  -25.1361  -27.7357   19.6974 C   0  0  0  0  0  0  0  0  0  0  0  0
  -21.7327  -22.4441   22.4472 C   0  0  0  0  0  0  0  0  0  0  0  0
  -21.3640  -23.4803   24.5984 C   0  0  0  0  0  0  0  0  0  0  0  0
  -25.5617  -13.8650   19.8898 C   0  0  0  0  0  0  0  0  0  0  0  0
  -26.7177  -29.3052   20.6198 C   0  0  0  0  0  0  0  0  0  0  0  0
  -26.1865  -26.8897   19.3433 C   0  0  0  0  0  0  0  0  0  0  0  0
  -25.2564  -22.0483   20.5011 C   0  0  0  0  0  0  0  0  0  0  0  0
  -20.6569  -23.1576   21.9191 C   0  0  0  0  0  0  0  0  0  0  0  0
  -20.2881  -24.1938   24.0702 C   0  0  0  0  0  0  0  0  0  0  0  0
  -24.4092  -21.3412   19.6489 C   0  0  0  0  0  0  0  0  0  0  0  0
  -17.6693  -26.5596   23.1966 C   0  0  0  0  0  0  0  0  0  0  0  0
  -17.5739  -27.9158   23.5083 C   0  0  0  0  0  0  0  0  0  0  0  0
  -24.8337  -14.8594   19.2459 C   0  0  0  0  0  0  0  0  0  0  0  0
  -26.3272  -20.3337   18.5879 C   0  0  0  0  0  0  0  0  0  0  0  0
  -19.7238  -28.3041   22.4765 C   0  0  0  0  0  0  0  0  0  0  0  0
  -22.0863  -22.6054   23.7869 C   0  0  0  0  0  0  0  0  0  0  0  0
  -25.5132  -13.7624   21.2755 C   0  0  0  0  0  0  0  0  0  0  0  0
  -24.5463  -22.2685   24.3719 C   0  0  0  0  0  0  0  0  0  0  0  0
  -27.7841  -28.4588   20.2777 C   0  0  0  0  0  0  0  0  0  0  0  0
  -26.6480  -21.9114   20.3956 C   0  0  0  0  0  0  0  0  0  0  0  0
  -27.5181  -27.2412   19.6227 C   0  0  0  0  0  0  0  0  0  0  0  0
  -27.1897  -21.0381   19.4417 C   0  0  0  0  0  0  0  0  0  0  0  0
  -19.9345  -24.0324   22.7305 C   0  0  0  0  0  0  0  0  0  0  0  0
  -24.9446  -20.4860   18.6902 C   0  0  0  0  0  0  0  0  0  0  0  0
  -18.7919  -26.0756   22.5249 C   0  0  0  0  0  0  0  0  0  0  0  0
  -18.6011  -28.7881   23.1483 C   0  0  0  0  0  0  0  0  0  0  0  0
  -19.8191  -26.9479   22.1648 C   0  0  0  0  0  0  0  0  0  0  0  0
  -23.1972  -21.8682   24.3332 C   0  0  0  0  0  0  0  0  0  0  0  0
  -24.7280  -14.6715   21.9661 C   0  0  0  0  0  0  0  0  0  0  0  0
  -24.0787  -15.7192   20.0273 C   0  0  0  0  0  0  0  0  0  0  0  0
  -25.1962  -21.2261   24.9864 C   0  0  0  0  0  0  0  0  0  0  0  0
  -26.2760  -12.7204   21.9451 C   0  0  0  0  0  0  0  0  0  0  0  0
  -24.6161  -14.6391   23.4352 C   0  0  0  0  0  0  0  0  0  0  0  0
  -27.6164  -12.5529   21.8762 C   0  0  0  0  0  0  0  0  0  0  0  0
  -25.1574  -23.4747   23.8952 C   0  0  0  0  0  0  0  0  0  0  0  0
  -29.0514  -23.8810   19.7261 C   0  0  0  0  0  0  0  0  0  0  0  0
  -30.8639  -21.2964   20.4723 C   0  0  0  0  0  0  0  0  0  0  0  0
  -23.2775  -16.9693   17.9927 C   0  0  0  0  0  0  0  0  0  0  0  0
  -31.0963  -17.9027   20.7478 C   0  0  0  0  0  0  0  0  0  0  0  0
  -23.8291  -15.3993   25.4586 C   0  0  0  0  0  0  0  0  0  0  0  0
  -29.1931  -28.9145   20.5636 C   0  0  0  0  0  0  0  0  0  0  0  0
  -27.5474  -22.6607   21.3401 C   0  0  0  0  0  0  0  0  0  0  0  0
  -28.6762  -20.8404   19.3012 C   0  0  0  0  0  0  0  0  0  0  0  0
  -30.2232  -27.7902   20.4918 C   0  0  0  0  0  0  0  0  0  0  0  0
  -24.5054  -17.7083   28.1448 C   0  0  0  0  0  0  0  0  0  0  0  0
  -30.0104  -26.9506   19.2362 C   0  0  0  0  0  0  0  0  0  0  0  0
  -24.3355  -19.0740   27.4796 C   0  0  0  0  0  0  0  0  0  0  0  0
  -23.5289  -16.6832   27.5764 C   0  0  0  0  0  0  0  0  0  0  0  0
  -23.4329  -17.9051   25.4208 C   0  0  0  0  0  0  0  0  0  0  0  0
  -28.6288  -26.2853   19.2450 C   0  0  1  0  0  0  0  0  0  0  0  0
  -28.9644  -22.8365   20.8028 C   0  0  1  0  0  0  0  0  0  0  0  0
  -24.4235  -18.9575   25.9474 C   0  0  1  0  0  0  0  0  0  0  0  0
  -28.7983  -11.8760   23.9680 C   0  0  0  0  0  0  0  0  0  0  0  0
  -32.7158  -16.0811   21.3445 C   0  0  0  0  0  0  0  0  0  0  0  0
  -32.2387  -21.6366   17.7697 C   0  0  0  0  0  0  0  0  0  0  0  0
  -33.1281  -19.3084   18.0074 C   0  0  0  0  0  0  0  0  0  0  0  0
  -33.7759  -21.0636   19.6573 C   0  0  0  0  0  0  0  0  0  0  0  0
  -29.4116  -16.9837   23.0008 C   0  0  0  0  0  0  0  0  0  0  0  0
  -28.3613  -11.4520   22.5743 C   0  0  0  0  0  0  0  0  0  0  0  0
  -22.3650  -18.1554   17.7022 C   0  0  0  0  0  0  0  0  0  0  0  0
  -22.8321  -19.4443   18.3614 C   0  0  0  0  0  0  0  0  0  1  0  0
  -31.4278  -20.1274   19.7013 C   0  0  1  0  0  0  0  0  0  0  0  0
  -31.6322  -17.0165   21.8577 C   0  0  2  0  0  0  0  0  0  0  0  0
  -32.6146  -20.5390   18.7850 C   0  0  0  0  0  0  0  0  0  0  0  0
  -23.0004  -20.6654   24.8795 N   0  0  0  0  0  0  0  0  0  0  0  0
  -24.0069  -15.6508   21.3755 N   0  0  0  0  0  0  0  0  0  0  0  0
  -23.8860  -15.4885   24.0808 N   0  0  0  0  0  0  0  0  0  0  0  0
  -24.2344  -20.3008   25.2671 N   0  0  0  0  0  0  0  0  0  0  0  0
  -29.5143  -21.6000   20.2436 N   0  0  0  0  0  0  0  0  0  0  0  0
  -23.6180  -16.6248   26.1167 N   0  0  0  0  0  0  0  0  0  0  0  0
  -26.4909  -21.0199   25.3085 N   0  0  0  0  0  0  0  0  0  0  0  0
  -24.3437  -24.4416   23.2891 N   0  0  0  0  0  0  0  0  0  0  0  0
  -23.3411  -16.7275   19.3624 N   0  0  0  0  0  0  0  0  0  0  0  0
  -28.6274  -25.1348   20.1230 N   0  0  0  0  0  0  0  0  0  0  0  0
  -31.7621  -19.1088   20.6908 N   0  0  0  0  0  0  0  0  0  0  0  0
  -30.5348  -16.1914   22.4372 N   0  3  0  0  0  0  0  0  0  0  0  0
  -26.3911  -23.6817   23.9886 O   0  0  0  0  0  0  0  0  0  0  0  0
  -29.4734  -23.5725   18.6178 O   0  0  0  0  0  0  0  0  0  0  0  0
  -31.5920  -21.9128   21.2543 O   0  0  0  0  0  0  0  0  0  0  0  0
  -23.8503  -16.3524   17.1007 O   0  0  0  0  0  0  0  0  0  0  0  0
  -30.1813  -17.5579   20.0032 O   0  0  0  0  0  0  0  0  0  0  0  0
  -23.9451  -14.3430   26.0844 O   0  0  0  0  0  0  0  0  0  0  0  0
  -18.8847  -24.7290   22.2154 O   0  0  0  0  0  0  0  0  0  0  0  0
  -24.1200  -19.7952   17.8568 O   0  0  0  0  0  0  0  0  0  1  0  0
  -18.5087  -30.0907   23.4463 F   0  0  0  0  0  0  0  0  0  0  0  0
  -20.8995  -26.4890   21.5184 F   0  0  0  0  0  0  0  0  0  0  0  0
  1  2  1  0  0  0  0
  1  6  2  0  0  0  0
  2  7  2  0  0  0  0
  3  9  2  0  0  0  0
  3 17  1  0  0  0  0
  4 10  1  0  0  0  0
  4 17  2  0  0  0  0
  5 14  2  0  0  0  0
  5 18  1  0  0  0  0
  6 20  1  0  0  0  0
  7 22  1  0  0  0  0
  8 11  2  0  0  0  0
  8 21  1  0  0  0  0
  9 24  1  0  0  0  0
 10 24  2  0  0  0  0
 11 25  1  0  0  0  0
 12 13  2  0  0  0  0
 12 26  1  0  0  0  0
 13 27  1  0  0  0  0
 14 31  1  0  0  0  0
 15 23  1  0  0  0  0
 15 25  2  0  0  0  0
 16 27  2  0  0  0  0
 16 28  1  0  0  0  0
 17 29  1  0  0  0  0
 18 30  2  0  0  0  0
 18 33  1  0  0  0  0
 19 29  1  0  0  0  0
 19 32  2  0  0  0  0
 19 36  1  0  0  0  0
 20 22  2  0  0  0  0
 20 42  1  0  0  0  0
 21 23  2  0  0  0  0
 21 43  1  0  0  0  0
 22 51  1  0  0  0  0
 23 44  1  0  0  0  0
 24 84  1  0  0  0  0
 25 85  1  0  0  0  0
 26 28  2  0  0  0  0
 26 84  1  0  0  0  0
 27 86  1  0  0  0  0
 28 87  1  0  0  0  0
 29 66  2  0  0  0  0
 30 34  1  0  0  0  0
 30 67  1  0  0  0  0
 31 67  2  0  0  0  0
 31 74  1  0  0  0  0
 32 69  1  0  0  0  0
 32 72  1  0  0  0  0
 33 35  2  0  0  0  0
 34 68  2  0  0  0  0
 35 60  1  0  0  0  0
 36 73  1  0  0  0  0
 36 78  2  0  0  0  0
 37 52  1  0  0  0  0
 37 75  1  0  0  0  0
 37 79  2  0  0  0  0
 38 63  1  0  0  0  0
 38 70  1  0  0  0  0
 38 80  2  0  0  0  0
 39 61  1  0  0  0  0
 39 74  1  0  0  0  0
 39 81  2  0  0  0  0
 40 64  1  0  0  0  0
 40 76  1  0  0  0  0
 40 82  2  0  0  0  0
 41 68  1  0  0  0  0
 41 71  1  0  0  0  0
 41 83  2  0  0  0  0
 42 45  1  0  0  0  0
 43 52  1  0  0  0  0
 44 70  1  0  0  0  0
 45 47  1  0  0  0  0
 46 48  1  0  0  0  0
 46 49  1  0  0  0  0
 47 51  1  0  0  0  0
 48 53  1  0  0  0  0
 49 71  1  0  0  0  0
 50 53  1  0  0  0  0
 50 71  1  0  0  0  0
 51 75  1  0  0  0  0
 52 70  1  0  0  0  0
 53 69  1  0  0  0  0
 54 60  1  0  0  0  0
 55 64  1  0  0  0  0
 56 65  1  0  0  0  0
 57 65  1  0  0  0  0
 58 65  1  0  0  0  0
 59 77  1  0  0  0  0
 61 62  1  0  0  0  0
 62 85  1  0  0  0  0
 63 65  1  0  0  0  0
 63 76  1  0  0  0  0
 64 77  1  0  0  0  0
 66 69  1  0  0  0  0
M  CHG  1  77   1
M  ISO  4  41 100  62 101  68 100  85 101
M  END
> <Batch ID>
0114

> <Smiles>
C=CC=Cc1ccc(NC(=O)C[101CH2:1][101O:1]c2ccc3c(c2)CN(C(=O)C(NC(=O)C(C)NC)C(C)(C)C)C(C(=O)NC2CCCc4ccccc42)C3)nc1C[100NH:0][100C:0](=O)N1CCCC(n2nc(-c3ccc(Oc4ccc(F)cc4F)cc3)c(C(N)=O)c2N)C1

> <Shape>
0.196

> <Color>
0.053

> <Negative vol penalty>
0.000

$$$$

  -OEChem-04052301373D

 89 97  0     1  0  0  0  0  0999 V2000
  -24.0745  -34.2849   19.2748 C   0  0  0  0  0  0  0  0  0  0  0  0
  -24.1749  -32.9146   19.0567 C   0  0  0  0  0  0  0  0  0  0  0  0
  -23.1528   -9.7436   20.7113 C   0  0  0  0  0  0  0  0  0  0  0  0
  -23.8168  -10.3563   22.9520 C   0  0  0  0  0  0  0  0  0  0  0  0
  -23.9281  -34.7742   20.5722 C   0  0  0  0  0  0  0  0  0  0  0  0
  -24.1302  -32.0328   20.1360 C   0  0  0  0  0  0  0  0  0  0  0  0
  -21.6662  -26.4266   20.2098 C   0  0  0  0  0  0  0  0  0  0  0  0
  -22.4219   -8.6706   21.2213 C   0  0  0  0  0  0  0  0  0  0  0  0
  -23.0858   -9.2833   23.4620 C   0  0  0  0  0  0  0  0  0  0  0  0
  -22.2238  -25.1552   20.0818 C   0  0  0  0  0  0  0  0  0  0  0  0
  -19.4321   -8.1832   22.7236 C   0  0  0  0  0  0  0  0  0  0  0  0
  -18.1476   -7.9766   22.2207 C   0  0  0  0  0  0  0  0  0  0  0  0
  -28.5908  -19.3036   23.5259 C   0  0  0  0  0  0  0  0  0  0  0  0
  -22.3025  -24.9544   22.4844 C   0  0  0  0  0  0  0  0  0  0  0  0
  -29.1649  -19.2225   20.7971 C   0  0  0  0  0  0  0  0  0  0  0  0
  -18.7994   -5.7783   21.4591 C   0  0  0  0  0  0  0  0  0  0  0  0
  -23.8504  -10.5864   21.5767 C   0  0  0  0  0  0  0  0  0  0  0  0
  -29.4543  -18.3302   23.0235 C   0  0  0  0  0  0  0  0  0  0  0  0
  -24.1476  -13.0068   20.8277 C   0  0  0  0  0  0  0  0  0  0  0  0
  -23.8718  -33.8974   21.6670 C   0  0  0  0  0  0  0  0  0  0  0  0
  -21.4323  -26.9768   21.4783 C   0  0  0  0  0  0  0  0  0  0  0  0
  -23.9842  -32.5109   21.4493 C   0  0  0  0  0  0  0  0  0  0  0  0
  -21.7395  -26.2319   22.6258 C   0  0  0  0  0  0  0  0  0  0  0  0
  -29.7414  -18.2896   21.6591 C   0  0  0  0  0  0  0  0  0  0  0  0
  -22.3883   -8.4405   22.5966 C   0  0  0  0  0  0  0  0  0  0  0  0
  -22.5447  -24.4200   21.2192 C   0  0  0  0  0  0  0  0  0  0  0  0
  -20.4003   -7.1874   22.5941 C   0  0  0  0  0  0  0  0  0  0  0  0
  -28.0143  -20.2365   22.6638 C   0  0  0  0  0  0  0  0  0  0  0  0
  -28.3014  -20.1960   21.2995 C   0  0  0  0  0  0  0  0  0  0  0  0
  -17.8312   -6.7742   21.5885 C   0  0  0  0  0  0  0  0  0  0  0  0
  -20.0839   -5.9850   21.9619 C   0  0  0  0  0  0  0  0  0  0  0  0
  -24.6061  -11.6945   21.0505 C   0  0  0  0  0  0  0  0  0  0  0  0
  -25.2390  -13.6709   20.3236 C   0  0  0  0  0  0  0  0  0  0  0  0
  -29.3283  -16.5173   24.6706 C   0  0  0  0  0  0  0  0  0  0  0  0
  -30.0405  -17.3697   23.9491 C   0  0  0  0  0  0  0  0  0  0  0  0
  -22.8510  -13.5746   21.0562 C   0  0  0  0  0  0  0  0  0  0  0  0
  -22.4914  -29.5314   23.0453 C   0  0  0  0  0  0  0  0  0  0  0  0
  -20.2878  -28.6144   25.2421 C   0  0  0  0  0  0  0  0  0  0  0  0
  -18.4022  -26.1048   26.5811 C   0  0  0  0  0  0  0  0  0  0  0  0
  -30.6894  -14.8652   20.4377 C   0  0  0  0  0  0  0  0  0  0  0  0
  -23.7601  -34.4759   23.0554 C   0  0  0  0  0  0  0  0  0  0  0  0
  -20.8054  -28.3387   21.5994 C   0  0  0  0  0  0  0  0  0  0  0  0
  -21.4892  -26.7691   24.0105 C   0  0  0  0  0  0  0  0  0  0  0  0
  -23.3451  -33.4531   24.1099 C   0  0  0  0  0  0  0  0  0  0  0  0
  -29.6983  -11.9194   18.7008 C   0  0  0  0  0  0  0  0  0  0  0  0
  -24.1581  -32.1713   23.9593 C   0  0  0  0  0  0  0  0  0  0  0  0
  -28.2501  -11.7034   19.1437 C   0  0  0  0  0  0  0  0  0  0  0  0
  -30.5604  -12.4654   19.8368 C   0  0  0  0  0  0  0  0  0  0  0  0
  -28.5890  -13.4690   20.9231 C   0  0  0  0  0  0  0  0  0  0  0  0
  -23.9150  -31.5211   22.5920 C   0  0  1  0  0  0  0  0  0  0  0  0
  -21.0866  -29.0087   22.9408 C   0  0  1  0  0  0  0  0  0  0  0  0
  -27.6680  -12.9719   19.7957 C   0  0  2  0  0  0  0  0  0  0  0  0
  -23.9253  -21.5012   25.0240 C   0  0  0  0  0  0  0  0  0  0  0  0
  -16.7242  -25.6528   28.3914 C   0  0  0  0  0  0  0  0  0  0  0  0
  -22.5190  -28.6773   27.3224 C   0  0  0  0  0  0  0  0  0  0  0  0
  -21.0470  -27.3361   28.8399 C   0  0  0  0  0  0  0  0  0  0  0  0
  -20.3355  -29.6116   28.1059 C   0  0  0  0  0  0  0  0  0  0  0  0
  -16.3422  -25.2749   24.6248 C   0  0  0  0  0  0  0  0  0  0  0  0
  -30.6620  -17.2607   21.0858 C   0  0  0  0  0  0  0  0  0  0  0  0
  -25.1886  -21.9197   24.2935 C   0  0  0  0  0  0  0  0  0  0  0  0
  -24.9506  -21.8851   20.2644 C   0  0  0  0  0  0  0  0  0  0  0  0
  -25.8474  -21.6052   19.0635 C   0  0  0  0  0  0  0  0  0  0  0  0
  -25.9978  -20.7186   23.8289 C   0  0  0  0  0  0  0  0  0  0  0  0
  -23.8932  -22.9332   19.9437 C   0  0  0  0  0  0  0  0  0  1  0  0
  -26.9312  -20.5895   19.3959 C   0  0  0  0  0  0  0  0  0  0  0  0
  -20.2935  -27.7045   26.4466 C   0  0  1  0  0  0  0  0  0  0  0  0
  -16.9272  -26.0308   26.9325 C   0  0  2  0  0  0  0  0  0  0  0  0
  -21.0554  -28.3228   27.6528 C   0  0  0  0  0  0  0  0  0  0  0  0
  -25.8888  -11.5327   20.7152 N   0  0  0  0  0  0  0  0  0  0  0  0
  -26.2456  -12.7518   20.2766 N   0  0  0  0  0  0  0  0  0  0  0  0
  -20.8805  -28.1080   24.0767 N   0  0  0  0  0  0  0  0  0  0  0  0
  -29.9537  -13.6689   20.4108 N   0  0  0  0  0  0  0  0  0  0  0  0
  -25.4263  -14.9456   19.9204 N   0  0  0  0  0  0  0  0  0  0  0  0
  -21.8439  -12.7518   21.5788 N   0  0  0  0  0  0  0  0  0  0  0  0
  -22.6467  -30.8240   22.5822 N   0  0  0  0  0  0  0  0  0  0  0  0
  -18.8973  -27.3839   26.7227 N   0  0  0  0  0  0  0  0  0  0  0  0
  -30.0379  -15.9597   20.9930 N   0  0  0  0  0  0  0  0  0  0  0  0
  -16.2430  -25.0145   26.0840 N   0  3  0  0  0  0  0  0  0  0  0  0
  -22.5887  -14.7718   20.7890 O   0  0  0  0  0  0  0  0  0  0  0  0
  -23.3692  -28.8155   23.5130 O   0  0  0  0  0  0  0  0  0  0  0  0
  -19.7700  -29.7306   25.3298 O   0  0  0  0  0  0  0  0  0  0  0  0
  -19.0511  -25.1252   26.2209 O   0  0  0  0  0  0  0  0  0  0  0  0
  -31.8395  -14.9528   19.9944 O   0  0  0  0  0  0  0  0  0  0  0  0
  -21.6749   -7.3938   23.0946 O   0  0  0  0  0  0  0  0  0  0  0  0
  -23.0897  -23.1791   21.0970 O   0  0  0  0  0  0  0  0  0  1  0  0
  -27.1725  -21.1825   23.1662 O   0  0  0  0  0  0  0  0  0  0  0  0
  -27.7412  -21.1072   20.4423 O   0  0  0  0  0  0  0  0  0  0  0  0
  -16.5972   -6.5753   21.1070 F   0  0  0  0  0  0  0  0  0  0  0  0
  -21.0095   -5.0242   21.8357 F   0  0  0  0  0  0  0  0  0  0  0  0
  1  2  1  0  0  0  0
  1  5  2  0  0  0  0
  2  6  2  0  0  0  0
  3  8  2  0  0  0  0
  3 17  1  0  0  0  0
  4  9  1  0  0  0  0
  4 17  2  0  0  0  0
  5 20  1  0  0  0  0
  6 22  1  0  0  0  0
  7 10  2  0  0  0  0
  7 21  1  0  0  0  0
  8 25  1  0  0  0  0
  9 25  2  0  0  0  0
 10 26  1  0  0  0  0
 11 12  2  0  0  0  0
 11 27  1  0  0  0  0
 12 30  1  0  0  0  0
 13 18  1  0  0  0  0
 13 28  2  0  0  0  0
 14 23  1  0  0  0  0
 14 26  2  0  0  0  0
 15 24  1  0  0  0  0
 15 29  2  0  0  0  0
 16 30  2  0  0  0  0
 16 31  1  0  0  0  0
 17 32  1  0  0  0  0
 18 24  2  0  0  0  0
 18 35  1  0  0  0  0
 19 32  1  0  0  0  0
 19 33  2  0  0  0  0
 19 36  1  0  0  0  0
 20 22  2  0  0  0  0
 20 41  1  0  0  0  0
 21 23  2  0  0  0  0
 21 42  1  0  0  0  0
 22 50  1  0  0  0  0
 23 43  1  0  0  0  0
 24 59  1  0  0  0  0
 25 84  1  0  0  0  0
 26 85  1  0  0  0  0
 27 31  2  0  0  0  0
 27 84  1  0  0  0  0
 28 29  1  0  0  0  0
 28 86  1  0  0  0  0
 29 87  1  0  0  0  0
 30 88  1  0  0  0  0
 31 89  1  0  0  0  0
 32 69  2  0  0  0  0
 33 70  1  0  0  0  0
 33 73  1  0  0  0  0
 34 35  2  0  0  0  0
 36 74  1  0  0  0  0
 36 79  2  0  0  0  0
 37 51  1  0  0  0  0
 37 75  1  0  0  0  0
 37 80  2  0  0  0  0
 38 66  1  0  0  0  0
 38 71  1  0  0  0  0
 38 81  2  0  0  0  0
 39 67  1  0  0  0  0
 39 76  1  0  0  0  0
 39 82  2  0  0  0  0
 40 72  1  0  0  0  0
 40 77  1  0  0  0  0
 40 83  2  0  0  0  0
 41 44  1  0  0  0  0
 42 51  1  0  0  0  0
 43 71  1  0  0  0  0
 44 46  1  0  0  0  0
 45 47  1  0  0  0  0
 45 48  1  0  0  0  0
 46 50  1  0  0  0  0
 47 52  1  0  0  0  0
 48 72  1  0  0  0  0
 49 52  1  0  0  0  0
 49 72  1  0  0  0  0
 50 75  1  0  0  0  0
 51 71  1  0  0  0  0
 52 70  1  0  0  0  0
 53 60  1  0  0  0  0
 54 67  1  0  0  0  0
 55 68  1  0  0  0  0
 56 68  1  0  0  0  0
 57 68  1  0  0  0  0
 58 78  1  0  0  0  0
 59 77  1  0  0  0  0
 60 63  1  0  0  0  0
 61 62  1  0  0  0  0
 61 64  1  0  0  0  0
 62 65  1  0  0  0  0
 63 86  1  0  0  0  0
 64 85  1  0  0  0  0
 65 87  1  0  0  0  0
 66 68  1  0  0  0  0
 66 76  1  0  0  0  0
 67 78  1  0  0  0  0
 69 70  1  0  0  0  0
M  CHG  1  78   1
M  ISO  4  40 100  64 101  77 100  85 101
M  END
> <Batch ID>
0114

> <Smiles>
C=Cc1cc(OCCC)c(OCCC[101CH2:1][101O:1]c2ccc3c(c2)CN(C(=O)C(NC(=O)C(C)NC)C(C)(C)C)C(C(=O)NC2CCCc4ccccc42)C3)cc1C[100NH:0][100C:0](=O)N1CCCC(n2nc(-c3ccc(Oc4ccc(F)cc4F)cc3)c(C(N)=O)c2N)C1

> <Shape>
0.243

> <Color>
0.172

> <Negative vol penalty>
0.000

$$$$

  -OEChem-04052301373D

 87 95  0     1  0  0  0  0  0999 V2000
  -37.4701  -23.0124   21.3512 C   0  0  0  0  0  0  0  0  0  0  0  0
  -36.5753  -22.2575   20.5997 C   0  0  0  0  0  0  0  0  0  0  0  0
  -23.0761   -9.8444   19.9640 C   0  0  0  0  0  0  0  0  0  0  0  0
  -23.8772   -9.8654   22.2432 C   0  0  0  0  0  0  0  0  0  0  0  0
  -36.9928  -23.9309   22.2853 C   0  0  0  0  0  0  0  0  0  0  0  0
  -35.2025  -22.4198   20.7827 C   0  0  0  0  0  0  0  0  0  0  0  0
  -30.8450  -22.0236   16.4977 C   0  0  0  0  0  0  0  0  0  0  0  0
  -29.5689  -19.7381   20.5544 C   0  0  0  0  0  0  0  0  0  0  0  0
  -22.3491   -8.6841   20.2301 C   0  0  0  0  0  0  0  0  0  0  0  0
  -23.1502   -8.7051   22.5094 C   0  0  0  0  0  0  0  0  0  0  0  0
  -29.9771  -20.9946   16.1348 C   0  0  0  0  0  0  0  0  0  0  0  0
  -28.9703  -18.7279   19.8016 C   0  0  0  0  0  0  0  0  0  0  0  0
  -19.9421   -7.8749   23.1722 C   0  0  0  0  0  0  0  0  0  0  0  0
  -19.2069   -7.8300   24.3567 C   0  0  0  0  0  0  0  0  0  0  0  0
  -28.2617  -21.9570   17.5313 C   0  0  0  0  0  0  0  0  0  0  0  0
  -20.4819   -5.9077   25.0753 C   0  0  0  0  0  0  0  0  0  0  0  0
  -23.8402  -10.4350   20.9705 C   0  0  0  0  0  0  0  0  0  0  0  0
  -30.5361  -18.0756   22.0165 C   0  0  0  0  0  0  0  0  0  0  0  0
  -29.9374  -17.0653   21.2637 C   0  0  0  0  0  0  0  0  0  0  0  0
  -24.1530  -12.9633   20.8381 C   0  0  0  0  0  0  0  0  0  0  0  0
  -35.6134  -24.1115   22.4729 C   0  0  0  0  0  0  0  0  0  0  0  0
  -30.4306  -23.0227   17.3901 C   0  0  0  0  0  0  0  0  0  0  0  0
  -34.7063  -23.3406   21.7211 C   0  0  0  0  0  0  0  0  0  0  0  0
  -29.1254  -22.9990   17.9019 C   0  0  0  0  0  0  0  0  0  0  0  0
  -30.3519  -19.4120   21.6618 C   0  0  0  0  0  0  0  0  0  0  0  0
  -22.3861   -8.1145   21.5029 C   0  0  0  0  0  0  0  0  0  0  0  0
  -28.6862  -20.9596   16.6538 C   0  0  0  0  0  0  0  0  0  0  0  0
  -29.1546  -17.3915   20.1563 C   0  0  0  0  0  0  0  0  0  0  0  0
  -20.9471   -6.9361   22.9392 C   0  0  0  0  0  0  0  0  0  0  0  0
  -19.4768   -6.8465   25.3083 C   0  0  0  0  0  0  0  0  0  0  0  0
  -21.2170   -5.9525   23.8907 C   0  0  0  0  0  0  0  0  0  0  0  0
  -24.5918  -11.6332   20.6959 C   0  0  0  0  0  0  0  0  0  0  0  0
  -25.2305  -13.7233   20.4533 C   0  0  0  0  0  0  0  0  0  0  0  0
  -32.6651  -17.5500   23.1148 C   0  0  0  0  0  0  0  0  0  0  0  0
  -31.3576  -17.7351   23.1766 C   0  0  0  0  0  0  0  0  0  0  0  0
  -27.6931  -16.5939   17.2024 C   0  0  0  0  0  0  0  0  0  0  0  0
  -30.1154  -15.6581   21.6149 C   0  0  0  0  0  0  0  0  0  0  0  0
  -22.8850  -13.4668   21.2787 C   0  0  0  0  0  0  0  0  0  0  0  0
  -27.4522  -17.5947   16.3335 C   0  0  0  0  0  0  0  0  0  0  0  0
  -30.7336  -14.7040   20.6659 C   0  0  0  0  0  0  0  0  0  0  0  0
  -31.3722  -23.9914   20.2674 C   0  0  0  0  0  0  0  0  0  0  0  0
  -29.1945  -26.3414   19.7600 C   0  0  0  0  0  0  0  0  0  0  0  0
  -26.3750  -27.3781   18.1406 C   0  0  0  0  0  0  0  0  0  0  0  0
  -35.1453  -25.0823   23.5280 C   0  0  0  0  0  0  0  0  0  0  0  0
  -31.3701  -24.1407   17.7507 C   0  0  0  0  0  0  0  0  0  0  0  0
  -28.6251  -24.0590   18.8477 C   0  0  0  0  0  0  0  0  0  0  0  0
  -33.6731  -25.4632   23.3950 C   0  0  0  0  0  0  0  0  0  0  0  0
  -29.5421  -12.4244   18.1678 C   0  0  0  0  0  0  0  0  0  0  0  0
  -32.8179  -24.2198   23.1726 C   0  0  0  0  0  0  0  0  0  0  0  0
  -28.1254  -12.0951   18.6372 C   0  0  0  0  0  0  0  0  0  0  0  0
  -30.4855  -12.6381   19.3471 C   0  0  0  0  0  0  0  0  0  0  0  0
  -28.5973  -13.3537   20.7863 C   0  0  0  0  0  0  0  0  0  0  0  0
  -33.2097  -23.5059   21.8732 C   0  0  1  0  0  0  0  0  0  0  0  0
  -31.0111  -24.8213   19.0681 C   0  0  1  0  0  0  0  0  0  0  0  0
  -27.6093  -13.1583   19.6231 C   0  0  2  0  0  0  0  0  0  0  0  0
  -26.1346  -17.6574   15.6025 C   0  0  0  0  0  0  0  0  0  0  0  0
  -24.8138  -29.3344   17.9598 C   0  0  0  0  0  0  0  0  0  0  0  0
  -27.9392  -25.5839   22.4359 C   0  0  0  0  0  0  0  0  0  0  0  0
  -25.8993  -26.8706   21.7641 C   0  0  0  0  0  0  0  0  0  0  0  0
  -28.0865  -28.0441   22.0120 C   0  0  0  0  0  0  0  0  0  0  0  0
  -26.9716  -27.7367   15.2641 C   0  0  0  0  0  0  0  0  0  0  0  0
  -28.9179  -16.3581   18.0275 C   0  0  0  0  0  0  0  0  0  0  0  0
  -28.4208  -18.6927   15.9855 C   0  0  0  0  0  0  0  0  0  1  0  0
  -27.7199  -26.5102   20.0360 C   0  0  1  0  0  0  0  0  0  0  0  0
  -26.0555  -28.6616   17.3957 C   0  0  2  0  0  0  0  0  0  0  0  0
  -27.4210  -26.7310   21.5457 C   0  0  0  0  0  0  0  0  0  0  0  0
  -25.8499  -11.5496   20.2551 N   0  0  0  0  0  0  0  0  0  0  0  0
  -29.7516  -15.1615   22.7621 N   0  0  0  0  0  0  0  0  0  0  0  0
  -26.2108  -12.8368   20.1168 N   0  0  0  0  0  0  0  0  0  0  0  0
  -29.9488  -13.6260   20.2810 N   0  0  0  0  0  0  0  0  0  0  0  0
  -29.5832  -25.1279   19.1751 N   0  0  0  0  0  0  0  0  0  0  0  0
  -30.9449  -20.4590   22.4045 N   0  0  0  0  0  0  0  0  0  0  0  0
  -25.4254  -15.0567   20.3733 N   0  0  0  0  0  0  0  0  0  0  0  0
  -21.8890  -12.5479   21.6365 N   0  0  0  0  0  0  0  0  0  0  0  0
  -32.6578  -24.1995   20.7292 N   0  0  0  0  0  0  0  0  0  0  0  0
  -27.2644  -27.5939   19.1719 N   0  0  0  0  0  0  0  0  0  0  0  0
  -25.8213  -28.3779   15.9516 N   0  3  0  0  0  0  0  0  0  0  0  0
  -22.6368  -14.6950   21.3374 O   0  0  0  0  0  0  0  0  0  0  0  0
  -31.8775  -14.9698   20.3209 O   0  0  0  0  0  0  0  0  0  0  0  0
  -30.5451  -23.2204   20.7399 O   0  0  0  0  0  0  0  0  0  0  0  0
  -29.9718  -27.2555   20.0461 O   0  0  0  0  0  0  0  0  0  0  0  0
  -25.8817  -26.2932   17.8401 O   0  0  0  0  0  0  0  0  0  0  0  0
  -21.6767   -6.9824   21.7630 O   0  0  0  0  0  0  0  0  0  0  0  0
  -28.5565  -16.4168   19.4012 O   0  0  0  0  0  0  0  0  0  0  0  0
  -27.8373  -19.9560   16.3018 O   0  0  0  0  0  0  0  0  0  1  0  0
  -18.7718   -6.8045   26.4464 F   0  0  0  0  0  0  0  0  0  0  0  0
  -22.1821   -5.0487   23.6730 F   0  0  0  0  0  0  0  0  0  0  0  0
  1  2  1  0  0  0  0
  1  5  2  0  0  0  0
  2  6  2  0  0  0  0
  3  9  2  0  0  0  0
  3 17  1  0  0  0  0
  4 10  1  0  0  0  0
  4 17  2  0  0  0  0
  5 21  1  0  0  0  0
  6 23  1  0  0  0  0
  7 11  2  0  0  0  0
  7 22  1  0  0  0  0
  8 12  1  0  0  0  0
  8 25  2  0  0  0  0
  9 26  1  0  0  0  0
 10 26  2  0  0  0  0
 11 27  1  0  0  0  0
 12 28  2  0  0  0  0
 13 14  2  0  0  0  0
 13 29  1  0  0  0  0
 14 30  1  0  0  0  0
 15 24  1  0  0  0  0
 15 27  2  0  0  0  0
 16 30  2  0  0  0  0
 16 31  1  0  0  0  0
 17 32  1  0  0  0  0
 18 19  2  0  0  0  0
 18 25  1  0  0  0  0
 18 35  1  0  0  0  0
 19 28  1  0  0  0  0
 19 37  1  0  0  0  0
 20 32  1  0  0  0  0
 20 33  2  0  0  0  0
 20 38  1  0  0  0  0
 21 23  2  0  0  0  0
 21 44  1  0  0  0  0
 22 24  2  0  0  0  0
 22 45  1  0  0  0  0
 23 53  1  0  0  0  0
 24 46  1  0  0  0  0
 25 72  1  0  0  0  0
 26 83  1  0  0  0  0
 27 85  1  0  0  0  0
 28 84  1  0  0  0  0
 29 31  2  0  0  0  0
 29 83  1  0  0  0  0
 30 86  1  0  0  0  0
 31 87  1  0  0  0  0
 32 67  2  0  0  0  0
 33 69  1  0  0  0  0
 33 73  1  0  0  0  0
 34 35  2  0  0  0  0
 36 39  2  0  0  0  0
 36 62  1  0  0  0  0
 37 40  1  0  0  0  0
 37 68  2  0  0  0  0
 38 74  1  0  0  0  0
 38 78  2  0  0  0  0
 39 56  1  0  0  0  0
 39 63  1  0  0  0  0
 40 70  1  0  0  0  0
 40 79  2  0  0  0  0
 41 54  1  0  0  0  0
 41 75  1  0  0  0  0
 41 80  2  0  0  0  0
 42 64  1  0  0  0  0
 42 71  1  0  0  0  0
 42 81  2  0  0  0  0
 43 65  1  0  0  0  0
 43 76  1  0  0  0  0
 43 82  2  0  0  0  0
 44 47  1  0  0  0  0
 45 54  1  0  0  0  0
 46 71  1  0  0  0  0
 47 49  1  0  0  0  0
 48 50  1  0  0  0  0
 48 51  1  0  0  0  0
 49 53  1  0  0  0  0
 50 55  1  0  0  0  0
 51 70  1  0  0  0  0
 52 55  1  0  0  0  0
 52 70  1  0  0  0  0
 53 75  1  0  0  0  0
 54 71  1  0  0  0  0
 55 69  1  0  0  0  0
 57 65  1  0  0  0  0
 58 66  1  0  0  0  0
 59 66  1  0  0  0  0
 60 66  1  0  0  0  0
 61 77  1  0  0  0  0
 62 84  1  0  0  0  0
 63 85  1  0  0  0  0
 64 66  1  0  0  0  0
 64 76  1  0  0  0  0
 65 77  1  0  0  0  0
 67 69  1  0  0  0  0
M  CHG  1  77   1
M  ISO  4  37 100  40 100  63 101  85 101
M  END
> <Batch ID>
0114

> <Smiles>
C=Cc1c(N)ccc(OCC=C(C)[101CH2:1][101O:1]c2ccc3c(c2)CN(C(=O)C(NC(=O)C(C)NC)C(C)(C)C)C(C(=O)NC2CCCc4ccccc42)C3)c1[100C:0](=N)[100C:0](=O)N1CCCC(n2nc(-c3ccc(Oc4ccc(F)cc4F)cc3)c(C(N)=O)c2N)C1

> <Shape>
0.289

> <Color>
0.176

> <Negative vol penalty>
0.000

$$$$

  -OEChem-04052301373D

 88 96  0     1  0  0  0  0  0999 V2000
  -25.4928  -20.0053   18.9760 C   0  0  0  0  0  0  0  0  0  0  0  0
  -26.3144  -18.9032   18.7681 C   0  0  0  0  0  0  0  0  0  0  0  0
  -22.7486  -27.6585   20.5897 C   0  0  0  0  0  0  0  0  0  0  0  0
  -23.6785  -28.6955   22.5637 C   0  0  0  0  0  0  0  0  0  0  0  0
  -24.4948  -19.9525   19.9467 C   0  0  0  0  0  0  0  0  0  0  0  0
  -26.1306  -17.7439   19.5225 C   0  0  0  0  0  0  0  0  0  0  0  0
  -28.7971  -13.8079   18.2573 C   0  0  0  0  0  0  0  0  0  0  0  0
  -21.4994  -28.1993   20.8939 C   0  0  0  0  0  0  0  0  0  0  0  0
  -22.4293  -29.2364   22.8680 C   0  0  0  0  0  0  0  0  0  0  0  0
  -30.1684  -13.7191   18.4928 C   0  0  0  0  0  0  0  0  0  0  0  0
  -20.5289  -31.8390   21.8504 C   0  0  0  0  0  0  0  0  0  0  0  0
  -20.4812  -33.1780   22.2383 C   0  0  0  0  0  0  0  0  0  0  0  0
  -33.1261  -17.6533   21.1212 C   0  0  0  0  0  0  0  0  0  0  0  0
  -30.3606  -17.8771   20.8297 C   0  0  0  0  0  0  0  0  0  0  0  0
  -29.7467  -12.2510   20.3599 C   0  0  0  0  0  0  0  0  0  0  0  0
  -19.5202  -32.5297   24.3581 C   0  0  0  0  0  0  0  0  0  0  0  0
  -23.8382  -27.9065   21.4246 C   0  0  0  0  0  0  0  0  0  0  0  0
  -32.5689  -18.8394   20.6434 C   0  0  0  0  0  0  0  0  0  0  0  0
  -31.1862  -18.9513   20.4977 C   0  0  0  0  0  0  0  0  0  0  0  0
  -26.1408  -27.9330   20.3271 C   0  0  0  0  0  0  0  0  0  0  0  0
  -24.3074  -18.7960   20.7215 C   0  0  0  0  0  0  0  0  0  0  0  0
  -27.8882  -13.1264   19.0795 C   0  0  0  0  0  0  0  0  0  0  0  0
  -25.1132  -17.6626   20.4904 C   0  0  0  0  0  0  0  0  0  0  0  0
  -28.3646  -12.3306   20.1311 C   0  0  0  0  0  0  0  0  0  0  0  0
  -21.3397  -28.9883   22.0331 C   0  0  0  0  0  0  0  0  0  0  0  0
  -30.6433  -12.9429   19.5460 C   0  0  0  0  0  0  0  0  0  0  0  0
  -20.0722  -30.8454   22.7164 C   0  0  0  0  0  0  0  0  0  0  0  0
  -30.9178  -16.6910   21.3074 C   0  0  0  0  0  0  0  0  0  0  0  0
  -32.3005  -16.5790   21.4532 C   0  0  0  0  0  0  0  0  0  0  0  0
  -19.9769  -33.5234   23.4921 C   0  0  0  0  0  0  0  0  0  0  0  0
  -19.5679  -31.1907   23.9702 C   0  0  0  0  0  0  0  0  0  0  0  0
  -25.1287  -27.3476   21.1111 C   0  0  0  0  0  0  0  0  0  0  0  0
  -27.1577  -27.0097   20.3341 C   0  0  0  0  0  0  0  0  0  0  0  0
  -34.3912  -19.8707   19.3663 C   0  0  0  0  0  0  0  0  0  0  0  0
  -29.0103  -14.3534   24.6234 C   0  0  0  0  0  0  0  0  0  0  0  0
  -33.4616  -19.9413   20.3069 C   0  0  0  0  0  0  0  0  0  0  0  0
  -30.5584  -20.1861   19.9948 C   0  0  0  0  0  0  0  0  0  0  0  0
  -28.8240  -14.5800   23.3184 C   0  0  0  0  0  0  0  0  0  0  0  0
  -26.1601  -29.1981   19.6528 C   0  0  0  0  0  0  0  0  0  0  0  0
  -25.5274  -14.0006   21.0201 C   0  0  0  0  0  0  0  0  0  0  0  0
  -25.0342  -10.8010   21.2254 C   0  0  0  0  0  0  0  0  0  0  0  0
  -26.3127   -7.6489   20.9490 C   0  0  0  0  0  0  0  0  0  0  0  0
  -28.8431  -21.7114   19.8443 C   0  0  0  0  0  0  0  0  0  0  0  0
  -23.2069  -18.7906   21.7531 C   0  0  0  0  0  0  0  0  0  0  0  0
  -26.4135  -13.2110   18.7958 C   0  0  0  0  0  0  0  0  0  0  0  0
  -27.4314  -11.5631   21.0303 C   0  0  0  0  0  0  0  0  0  0  0  0
  -23.3765  -17.6921   22.7975 C   0  0  0  0  0  0  0  0  0  0  0  0
  -27.8202  -22.8433   23.1119 C   0  0  0  0  0  0  0  0  0  0  0  0
  -23.6388  -16.3594   22.1122 C   0  0  0  0  0  0  0  0  0  0  0  0
  -27.0811  -24.1473   22.8119 C   0  0  0  0  0  0  0  0  0  0  0  0
  -27.6062  -21.8117   22.0085 C   0  0  0  0  0  0  0  0  0  0  0  0
  -27.2331  -23.6084   20.3408 C   0  0  0  0  0  0  0  0  0  0  0  0
  -24.9516  -16.4017   21.3201 C   0  0  1  0  0  0  0  0  0  0  0  0
  -25.5515  -12.8866   20.0120 C   0  0  1  0  0  0  0  0  0  0  0  0
  -27.4516  -24.6846   21.4180 C   0  0  1  0  0  0  0  0  0  0  0  0
  -25.6786   -5.2356   21.2157 C   0  0  0  0  0  0  0  0  0  0  0  0
  -25.1874  -11.0984   24.2582 C   0  0  0  0  0  0  0  0  0  0  0  0
  -25.5032   -8.6197   24.4154 C   0  0  0  0  0  0  0  0  0  0  0  0
  -23.3984   -9.5484   23.4510 C   0  0  0  0  0  0  0  0  0  0  0  0
  -26.8781   -7.0657   18.1031 C   0  0  0  0  0  0  0  0  0  0  0  0
  -29.1282  -15.8772   22.6457 C   0  0  0  0  0  0  0  0  0  0  0  0
  -33.7674  -13.2626   21.3486 C   0  0  0  0  0  0  0  0  0  0  0  0
  -32.3937  -12.6486   21.1288 C   0  0  0  0  0  0  0  0  0  1  0  0
  -33.7759  -14.7556   21.0603 C   0  0  0  0  0  0  0  0  0  0  0  0
  -25.5426   -9.6961   22.1196 C   0  0  1  0  0  0  0  0  0  0  0  0
  -25.7881   -6.4067   20.2517 C   0  0  2  0  0  0  0  0  0  0  0  0
  -24.9257   -9.7565   23.5455 C   0  0  0  0  0  0  0  0  0  0  0  0
  -25.4713  -26.1455   21.5818 N   0  0  0  0  0  0  0  0  0  0  0  0
  -29.3693  -20.5411   20.3572 N   0  0  0  0  0  0  0  0  0  0  0  0
  -26.7102  -25.9680   21.0921 N   0  0  0  0  0  0  0  0  0  0  0  0
  -25.9980  -11.6829   20.7164 N   0  0  0  0  0  0  0  0  0  0  0  0
  -27.9366  -22.3689   20.6961 N   0  0  0  0  0  0  0  0  0  0  0  0
  -28.3821  -26.9955   19.7657 N   0  0  0  0  0  0  0  0  0  0  0  0
  -25.0319  -30.0240   19.7494 N   0  0  0  0  0  0  0  0  0  0  0  0
  -25.0596  -15.2011   20.5208 N   0  0  0  0  0  0  0  0  0  0  0  0
  -25.2873   -8.4470   21.4105 N   0  0  0  0  0  0  0  0  0  0  0  0
  -26.6973   -6.0151   19.1378 N   0  3  0  0  0  0  0  0  0  0  0  0
  -27.1422  -29.5777   18.9708 O   0  0  0  0  0  0  0  0  0  0  0  0
  -25.9038  -13.7863   22.1664 O   0  0  0  0  0  0  0  0  0  0  0  0
  -23.8272  -10.8745   20.9815 O   0  0  0  0  0  0  0  0  0  0  0  0
  -27.5121   -7.8856   21.0752 O   0  0  0  0  0  0  0  0  0  0  0  0
  -29.1324  -22.1672   18.7355 O   0  0  0  0  0  0  0  0  0  0  0  0
  -20.1210  -29.5164   22.3302 O   0  0  0  0  0  0  0  0  0  0  0  0
  -30.1013  -15.6488   21.6282 O   0  0  0  0  0  0  0  0  0  0  0  0
  -31.9812  -12.8551   19.7784 O   0  0  0  0  0  0  0  0  0  1  0  0
  -32.8596  -15.4183   21.9211 O   0  0  0  0  0  0  0  0  0  0  0  0
  -19.9325  -34.8091   23.8650 F   0  0  0  0  0  0  0  0  0  0  0  0
  -19.1289  -30.2405   24.8069 F   0  0  0  0  0  0  0  0  0  0  0  0
  1  2  1  0  0  0  0
  1  5  2  0  0  0  0
  2  6  2  0  0  0  0
  3  8  2  0  0  0  0
  3 17  1  0  0  0  0
  4  9  1  0  0  0  0
  4 17  2  0  0  0  0
  5 21  1  0  0  0  0
  6 23  1  0  0  0  0
  7 10  2  0  0  0  0
  7 22  1  0  0  0  0
  8 25  1  0  0  0  0
  9 25  2  0  0  0  0
 10 26  1  0  0  0  0
 11 12  2  0  0  0  0
 11 27  1  0  0  0  0
 12 30  1  0  0  0  0
 13 18  2  0  0  0  0
 13 29  1  0  0  0  0
 14 19  2  0  0  0  0
 14 28  1  0  0  0  0
 15 24  1  0  0  0  0
 15 26  2  0  0  0  0
 16 30  2  0  0  0  0
 16 31  1  0  0  0  0
 17 32  1  0  0  0  0
 18 19  1  0  0  0  0
 18 36  1  0  0  0  0
 19 37  1  0  0  0  0
 20 32  1  0  0  0  0
 20 33  2  0  0  0  0
 20 39  1  0  0  0  0
 21 23  2  0  0  0  0
 21 44  1  0  0  0  0
 22 24  2  0  0  0  0
 22 45  1  0  0  0  0
 23 53  1  0  0  0  0
 24 46  1  0  0  0  0
 25 83  1  0  0  0  0
 26 85  1  0  0  0  0
 27 31  2  0  0  0  0
 27 83  1  0  0  0  0
 28 29  2  0  0  0  0
 28 84  1  0  0  0  0
 29 86  1  0  0  0  0
 30 87  1  0  0  0  0
 31 88  1  0  0  0  0
 32 68  2  0  0  0  0
 33 70  1  0  0  0  0
 33 73  1  0  0  0  0
 34 36  2  0  0  0  0
 35 38  2  0  0  0  0
 37 69  2  0  0  0  0
 38 61  1  0  0  0  0
 39 74  1  0  0  0  0
 39 78  2  0  0  0  0
 40 54  1  0  0  0  0
 40 75  1  0  0  0  0
 40 79  2  0  0  0  0
 41 65  1  0  0  0  0
 41 71  1  0  0  0  0
 41 80  2  0  0  0  0
 42 66  1  0  0  0  0
 42 76  1  0  0  0  0
 42 81  2  0  0  0  0
 43 69  1  0  0  0  0
 43 72  1  0  0  0  0
 43 82  2  0  0  0  0
 44 47  1  0  0  0  0
 45 54  1  0  0  0  0
 46 71  1  0  0  0  0
 47 49  1  0  0  0  0
 48 50  1  0  0  0  0
 48 51  1  0  0  0  0
 49 53  1  0  0  0  0
 50 55  1  0  0  0  0
 51 72  1  0  0  0  0
 52 55  1  0  0  0  0
 52 72  1  0  0  0  0
 53 75  1  0  0  0  0
 54 71  1  0  0  0  0
 55 70  1  0  0  0  0
 56 66  1  0  0  0  0
 57 67  1  0  0  0  0
 58 67  1  0  0  0  0
 59 67  1  0  0  0  0
 60 77  1  0  0  0  0
 61 84  1  0  0  0  0
 62 63  1  0  0  0  0
 62 64  1  0  0  0  0
 63 85  1  0  0  0  0
 64 86  1  0  0  0  0
 65 67  1  0  0  0  0
 65 76  1  0  0  0  0
 66 77  1  0  0  0  0
 68 70  1  0  0  0  0
M  CHG  1  77   1
M  ISO  4  43 100  63 101  69 100  85 101
M  END
> <Batch ID>
0114

> <Smiles>
C=CCOc1cc(C=[100N:0][100C:0](=O)N2CCCC(n3nc(-c4ccc(Oc5ccc(F)cc5F)cc4)c(C(N)=O)c3N)C2)c(C=C)cc1OCC[101CH2:1][101O:1]c1ccc2c(c1)CN(C(=O)C(NC(=O)C(C)NC)C(C)(C)C)C(C(=O)NC1CCCc3ccccc31)C2

> <Shape>
0.226

> <Color>
0.074

> <Negative vol penalty>
0.000

$$$$

  -OEChem-04052301373D

 87 95  0     1  0  0  0  0  0999 V2000
  -23.9921   -6.4752   23.6773 C   0  0  0  0  0  0  0  0  0  0  0  0
  -25.2054   -6.9216   23.1636 C   0  0  0  0  0  0  0  0  0  0  0  0
  -25.3719  -28.0591   21.0057 C   0  0  0  0  0  0  0  0  0  0  0  0
  -26.9940  -29.6187   20.1261 C   0  0  0  0  0  0  0  0  0  0  0  0
  -22.7953   -7.0000   23.1914 C   0  0  0  0  0  0  0  0  0  0  0  0
  -25.2226   -7.8925   22.1628 C   0  0  0  0  0  0  0  0  0  0  0  0
  -29.3846  -12.3198   21.3997 C   0  0  0  0  0  0  0  0  0  0  0  0
  -24.7414  -29.0996   21.6879 C   0  0  0  0  0  0  0  0  0  0  0  0
  -26.3635  -30.6592   20.8083 C   0  0  0  0  0  0  0  0  0  0  0  0
  -30.4971  -12.4278   20.5664 C   0  0  0  0  0  0  0  0  0  0  0  0
  -26.2537  -31.8618   23.9663 C   0  0  0  0  0  0  0  0  0  0  0  0
  -27.0600  -32.7649   24.6589 C   0  0  0  0  0  0  0  0  0  0  0  0
  -32.2565  -20.2677   18.0145 C   0  0  0  0  0  0  0  0  0  0  0  0
  -29.1707  -13.6491   18.9638 C   0  0  0  0  0  0  0  0  0  0  0  0
  -33.6166  -18.4326   17.2273 C   0  0  0  0  0  0  0  0  0  0  0  0
  -26.2040  -34.5706   23.3010 C   0  0  0  0  0  0  0  0  0  0  0  0
  -26.4982  -28.3186   20.2248 C   0  0  0  0  0  0  0  0  0  0  0  0
  -31.9966  -19.5693   19.1936 C   0  0  0  0  0  0  0  0  0  0  0  0
  -26.8760  -26.7936   18.2150 C   0  0  0  0  0  0  0  0  0  0  0  0
  -22.7981   -7.9847   22.1909 C   0  0  0  0  0  0  0  0  0  0  0  0
  -28.1519  -12.8671   21.0158 C   0  0  0  0  0  0  0  0  0  0  0  0
  -24.0247   -8.4300   21.6621 C   0  0  0  0  0  0  0  0  0  0  0  0
  -28.0447  -13.5489   19.7952 C   0  0  0  0  0  0  0  0  0  0  0  0
  -33.3567  -17.7342   18.4064 C   0  0  0  0  0  0  0  0  0  0  0  0
  -25.2372  -30.3997   21.5892 C   0  0  0  0  0  0  0  0  0  0  0  0
  -30.3896  -13.0900   19.3470 C   0  0  0  0  0  0  0  0  0  0  0  0
  -25.4226  -32.3130   22.9409 C   0  0  0  0  0  0  0  0  0  0  0  0
  -32.5467  -18.3025   19.3896 C   0  0  0  0  0  0  0  0  0  0  0  0
  -27.0351  -34.1193   24.3264 C   0  0  0  0  0  0  0  0  0  0  0  0
  -33.0664  -19.6994   17.0313 C   0  0  0  0  0  0  0  0  0  0  0  0
  -25.3978  -33.6674   22.6083 C   0  0  0  0  0  0  0  0  0  0  0  0
  -27.1503  -27.2441   19.5202 C   0  0  0  0  0  0  0  0  0  0  0  0
  -27.7605  -25.7620   18.0149 C   0  0  0  0  0  0  0  0  0  0  0  0
  -30.0546  -16.1756   22.7187 C   0  0  0  0  0  0  0  0  0  0  0  0
  -31.0837  -16.0700   21.8707 C   0  0  0  0  0  0  0  0  0  0  0  0
  -33.2042  -15.4658   18.1692 C   0  0  0  0  0  0  0  0  0  0  0  0
  -31.1485  -20.1829   20.2063 C   0  0  0  0  0  0  0  0  0  0  0  0
  -25.9083  -27.2654   17.2681 C   0  0  0  0  0  0  0  0  0  0  0  0
  -30.0733  -21.1258   19.8380 C   0  0  0  0  0  0  0  0  0  0  0  0
  -25.2589  -11.6876   20.4303 C   0  0  0  0  0  0  0  0  0  0  0  0
  -24.4585  -14.8212   20.1807 C   0  0  0  0  0  0  0  0  0  0  0  0
  -25.4569  -18.0265   19.5676 C   0  0  0  0  0  0  0  0  0  0  0  0
  -21.4776   -8.4880   21.6639 C   0  0  0  0  0  0  0  0  0  0  0  0
  -26.9681  -12.7653   21.9380 C   0  0  0  0  0  0  0  0  0  0  0  0
  -26.7490  -14.1716   19.3459 C   0  0  0  0  0  0  0  0  0  0  0  0
  -21.5942   -9.7846   20.8668 C   0  0  0  0  0  0  0  0  0  0  0  0
  -31.7558  -24.2647   20.7031 C   0  0  0  0  0  0  0  0  0  0  0  0
  -22.7469   -9.6977   19.8716 C   0  0  0  0  0  0  0  0  0  0  0  0
  -30.6551  -25.2796   20.4056 C   0  0  0  0  0  0  0  0  0  0  0  0
  -31.1911  -22.9478   21.2335 C   0  0  0  0  0  0  0  0  0  0  0  0
  -29.0534  -23.3592   20.0497 C   0  0  0  0  0  0  0  0  0  0  0  0
  -24.0853   -9.4997   20.5934 C   0  0  1  0  0  0  0  0  0  0  0  0
  -25.6329  -12.9132   21.2149 C   0  0  1  0  0  0  0  0  0  0  0  0
  -29.5957  -24.6751   19.4705 C   0  0  1  0  0  0  0  0  0  0  0  0
  -24.5697  -20.3678   19.3978 C   0  0  0  0  0  0  0  0  0  0  0  0
  -23.2778  -14.1726   17.4430 C   0  0  0  0  0  0  0  0  0  0  0  0
  -23.2816  -16.6247   16.9377 C   0  0  0  0  0  0  0  0  0  0  0  0
  -21.9076  -15.7439   18.8242 C   0  0  0  0  0  0  0  0  0  0  0  0
  -27.1723  -18.9618   21.7906 C   0  0  0  0  0  0  0  0  0  0  0  0
  -31.1524  -16.7664   20.5523 C   0  0  0  0  0  0  0  0  0  0  0  0
  -33.7073  -14.0529   18.2976 C   0  0  0  0  0  0  0  0  0  0  0  0
  -32.7556  -13.2382   19.1571 C   0  0  0  0  0  0  0  0  0  1  0  0
  -24.4236  -15.8296   19.0578 C   0  0  1  0  0  0  0  0  0  0  0  0
  -25.1927  -19.3235   20.3110 C   0  0  2  0  0  0  0  0  0  0  0  0
  -23.2467  -15.5794   18.0730 C   0  0  0  0  0  0  0  0  0  0  0  0
  -28.1321  -26.5552   20.1079 N   0  0  0  0  0  0  0  0  0  0  0  0
  -31.2748  -19.9465   21.4830 N   0  0  0  0  0  0  0  0  0  0  0  0
  -33.9177  -16.4591   18.5890 N   0  0  0  0  0  0  0  0  0  0  0  0
  -28.4825  -25.6611   19.1677 N   0  0  0  0  0  0  0  0  0  0  0  0
  -30.1389  -22.4196   20.3522 N   0  0  0  0  0  0  0  0  0  0  0  0
  -25.6184  -14.0399   20.2797 N   0  0  0  0  0  0  0  0  0  0  0  0
  -27.9833  -24.9405   16.9672 N   0  0  0  0  0  0  0  0  0  0  0  0
  -25.0793  -28.3339   17.6360 N   0  0  0  0  0  0  0  0  0  0  0  0
  -24.5466  -10.7512   21.1550 N   0  0  0  0  0  0  0  0  0  0  0  0
  -24.4044  -17.1442   19.6901 N   0  0  0  0  0  0  0  0  0  0  0  0
  -26.4645  -19.8757   20.8574 N   0  3  0  0  0  0  0  0  0  0  0  0
  -25.7713  -26.7438   16.1356 O   0  0  0  0  0  0  0  0  0  0  0  0
  -29.1788  -20.7083   19.1003 O   0  0  0  0  0  0  0  0  0  0  0  0
  -25.5906  -11.5988   19.2539 O   0  0  0  0  0  0  0  0  0  0  0  0
  -23.4951  -14.7351   20.9463 O   0  0  0  0  0  0  0  0  0  0  0  0
  -26.4917  -17.8186   18.9380 O   0  0  0  0  0  0  0  0  0  0  0  0
  -24.6221  -31.4153   22.2546 O   0  0  0  0  0  0  0  0  0  0  0  0
  -32.2951  -17.6179   20.5429 O   0  0  0  0  0  0  0  0  0  0  0  0
  -31.4737  -13.1963   18.5314 O   0  0  0  0  0  0  0  0  0  1  0  0
  -27.8083  -34.9867   24.9927 F   0  0  0  0  0  0  0  0  0  0  0  0
  -33.3154  -20.3697   15.8987 F   0  0  0  0  0  0  0  0  0  0  0  0
  -24.6005  -34.1071   21.6249 F   0  0  0  0  0  0  0  0  0  0  0  0
  1  2  1  0  0  0  0
  1  5  2  0  0  0  0
  2  6  2  0  0  0  0
  3  8  2  0  0  0  0
  3 17  1  0  0  0  0
  4  9  1  0  0  0  0
  4 17  2  0  0  0  0
  5 20  1  0  0  0  0
  6 22  1  0  0  0  0
  7 10  2  0  0  0  0
  7 21  1  0  0  0  0
  8 25  1  0  0  0  0
  9 25  2  0  0  0  0
 10 26  1  0  0  0  0
 11 12  2  0  0  0  0
 11 27  1  0  0  0  0
 12 29  1  0  0  0  0
 13 18  1  0  0  0  0
 13 30  2  0  0  0  0
 14 23  1  0  0  0  0
 14 26  2  0  0  0  0
 15 24  2  0  0  0  0
 15 30  1  0  0  0  0
 16 29  2  0  0  0  0
 16 31  1  0  0  0  0
 17 32  1  0  0  0  0
 18 28  2  0  0  0  0
 18 37  1  0  0  0  0
 19 32  1  0  0  0  0
 19 33  2  0  0  0  0
 19 38  1  0  0  0  0
 20 22  2  0  0  0  0
 20 43  1  0  0  0  0
 21 23  2  0  0  0  0
 21 44  1  0  0  0  0
 22 52  1  0  0  0  0
 23 45  1  0  0  0  0
 24 28  1  0  0  0  0
 24 68  1  0  0  0  0
 25 82  1  0  0  0  0
 26 84  1  0  0  0  0
 27 31  2  0  0  0  0
 27 82  1  0  0  0  0
 28 83  1  0  0  0  0
 29 85  1  0  0  0  0
 30 86  1  0  0  0  0
 31 87  1  0  0  0  0
 32 66  2  0  0  0  0
 33 69  1  0  0  0  0
 33 72  1  0  0  0  0
 34 35  2  0  0  0  0
 35 60  1  0  0  0  0
 36 61  1  0  0  0  0
 36 68  2  0  0  0  0
 37 39  1  0  0  0  0
 37 67  2  0  0  0  0
 38 73  1  0  0  0  0
 38 77  2  0  0  0  0
 39 70  1  0  0  0  0
 39 78  2  0  0  0  0
 40 53  1  0  0  0  0
 40 74  1  0  0  0  0
 40 79  2  0  0  0  0
 41 63  1  0  0  0  0
 41 71  1  0  0  0  0
 41 80  2  0  0  0  0
 42 64  1  0  0  0  0
 42 75  1  0  0  0  0
 42 81  2  0  0  0  0
 43 46  1  0  0  0  0
 44 53  1  0  0  0  0
 45 71  1  0  0  0  0
 46 48  1  0  0  0  0
 47 49  1  0  0  0  0
 47 50  1  0  0  0  0
 48 52  1  0  0  0  0
 49 54  1  0  0  0  0
 50 70  1  0  0  0  0
 51 54  1  0  0  0  0
 51 70  1  0  0  0  0
 52 74  1  0  0  0  0
 53 71  1  0  0  0  0
 54 69  1  0  0  0  0
 55 64  1  0  0  0  0
 56 65  1  0  0  0  0
 57 65  1  0  0  0  0
 58 65  1  0  0  0  0
 59 76  1  0  0  0  0
 60 83  1  0  0  0  0
 61 62  1  0  0  0  0
 62 84  1  0  0  0  0
 63 65  1  0  0  0  0
 63 75  1  0  0  0  0
 64 76  1  0  0  0  0
 66 69  1  0  0  0  0
M  CHG  1  76   1
M  ISO  4  37 100  39 100  62 101  84 101
M  END
> <Batch ID>
0114

> <Smiles>
C=CCOc1c(NC=C[101CH2:1][101O:1]c2ccc3c(c2)CN(C(=O)C(NC(=O)C(C)NC)C(C)(C)C)C(C(=O)NC2CCCc4ccccc42)C3)cc(F)cc1[100C:0](=N)[100C:0](=O)N1CCCC(n2nc(-c3ccc(Oc4ccc(F)cc4F)cc3)c(C(N)=O)c2N)C1

> <Shape>
0.281

> <Color>
0.067

> <Negative vol penalty>
0.000

$$$$

  -OEChem-04052301373D

 89 98  0     1  0  0  0  0  0999 V2000
  -27.7245  -36.0721   21.8624 C   0  0  0  0  0  0  0  0  0  0  0  0
  -28.0229  -34.7134   21.8451 C   0  0  0  0  0  0  0  0  0  0  0  0
  -24.9573  -13.2909   23.2119 C   0  0  0  0  0  0  0  0  0  0  0  0
  -25.8907  -11.7457   21.6063 C   0  0  0  0  0  0  0  0  0  0  0  0
  -31.3509  -21.2847   19.6458 C   0  0  0  0  0  0  0  0  0  0  0  0
  -29.7628  -21.3975   21.4630 C   0  0  0  0  0  0  0  0  0  0  0  0
  -26.5159  -36.5124   22.4001 C   0  0  0  0  0  0  0  0  0  0  0  0
  -27.1132  -33.7942   22.3666 C   0  0  0  0  0  0  0  0  0  0  0  0
  -26.4998  -29.7558   19.3733 C   0  0  0  0  0  0  0  0  0  0  0  0
  -30.5520  -20.3367   19.0064 C   0  0  0  0  0  0  0  0  0  0  0  0
  -28.9638  -20.4495   20.8237 C   0  0  0  0  0  0  0  0  0  0  0  0
  -25.2436  -12.3943   24.2413 C   0  0  0  0  0  0  0  0  0  0  0  0
  -26.1770  -10.8490   22.6357 C   0  0  0  0  0  0  0  0  0  0  0  0
  -27.4949  -28.7800   19.4086 C   0  0  0  0  0  0  0  0  0  0  0  0
  -24.5001   -8.5886   24.5090 C   0  0  0  0  0  0  0  0  0  0  0  0
  -24.1836   -7.2455   24.3052 C   0  0  0  0  0  0  0  0  0  0  0  0
  -26.1221  -27.4415   20.8725 C   0  0  0  0  0  0  0  0  0  0  0  0
  -26.5084   -6.6541   24.5929 C   0  0  0  0  0  0  0  0  0  0  0  0
  -25.2808  -12.9666   21.8944 C   0  0  0  0  0  0  0  0  0  0  0  0
  -30.9563  -21.8151   20.8741 C   0  0  0  0  0  0  0  0  0  0  0  0
  -23.7195  -14.3872   20.4619 C   0  0  0  0  0  0  0  0  0  0  0  0
  -25.5867  -35.5973   22.9196 C   0  0  0  0  0  0  0  0  0  0  0  0
  -25.3108  -29.5864   20.0972 C   0  0  0  0  0  0  0  0  0  0  0  0
  -25.8915  -34.2228   22.9130 C   0  0  0  0  0  0  0  0  0  0  0  0
  -25.1123  -28.4155   20.8426 C   0  0  0  0  0  0  0  0  0  0  0  0
  -29.3585  -19.9192   19.5953 C   0  0  0  0  0  0  0  0  0  0  0  0
  -25.8535  -11.1733   23.9532 C   0  0  0  0  0  0  0  0  0  0  0  0
  -27.3074  -27.6240   20.1606 C   0  0  0  0  0  0  0  0  0  0  0  0
  -25.8208   -8.9645   24.7546 C   0  0  0  0  0  0  0  0  0  0  0  0
  -25.1877   -6.2783   24.3472 C   0  0  0  0  0  0  0  0  0  0  0  0
  -26.8249   -7.9972   24.7966 C   0  0  0  0  0  0  0  0  0  0  0  0
  -24.9848  -13.8922   20.8305 C   0  0  0  0  0  0  0  0  0  0  0  0
  -23.9737  -15.2255   19.4040 C   0  0  0  0  0  0  0  0  0  0  0  0
  -30.5341  -26.1679   20.7576 C   0  0  0  0  0  0  0  0  0  0  0  0
  -29.7856  -24.2208   16.7824 C   0  0  0  0  0  0  0  0  0  0  0  0
  -29.5081  -27.0224   20.6760 C   0  0  0  0  0  0  0  0  0  1  0  0
  -29.6050  -24.3960   18.0944 C   0  0  0  0  0  0  0  0  0  0  0  0
  -31.7971  -22.8125   21.5471 C   0  0  0  0  0  0  0  0  0  0  0  0
  -22.4298  -14.1138   21.0255 C   0  0  0  0  0  0  0  0  0  0  0  0
  -30.7686  -24.5044   19.0147 C   0  0  0  0  0  0  0  0  0  0  0  0
  -23.8877  -31.1500   22.4708 C   0  0  0  0  0  0  0  0  0  0  0  0
  -21.4913  -29.0382   21.9052 C   0  0  0  0  0  0  0  0  0  0  0  0
  -21.2025  -25.5171   21.1732 C   0  0  0  0  0  0  0  0  0  0  0  0
  -28.7939  -18.3311   17.7230 C   0  0  0  0  0  0  0  0  0  0  0  0
  -24.3139  -36.1246   23.5334 C   0  0  0  0  0  0  0  0  0  0  0  0
  -24.2359  -30.6363   20.0272 C   0  0  0  0  0  0  0  0  0  0  0  0
  -23.8455  -28.1763   21.6213 C   0  0  0  0  0  0  0  0  0  0  0  0
  -31.8994  -26.5121   21.2757 C   0  0  0  0  0  0  0  0  0  0  0  0
  -23.2417  -35.0552   23.7254 C   0  0  0  0  0  0  0  0  0  0  0  0
  -27.0632  -15.8816   15.8042 C   0  0  0  0  0  0  0  0  0  0  0  0
  -23.8438  -33.8023   24.3537 C   0  0  0  0  0  0  0  0  0  0  0  0
  -26.2140  -15.1425   16.8410 C   0  0  0  0  0  0  0  0  0  0  0  0
  -32.3618  -25.1961   21.8786 C   0  0  0  0  0  0  0  0  0  0  0  0
  -28.4258  -16.2810   16.3678 C   0  0  0  0  0  0  0  0  0  0  0  0
  -27.5308  -16.2972   18.6630 C   0  0  0  0  0  0  0  0  0  0  0  0
  -24.9197  -33.1929   23.4467 C   0  0  1  0  0  0  0  0  0  0  0  0
  -30.4614  -24.6997   20.4677 C   0  0  1  0  0  0  0  0  0  0  0  0
  -23.2796  -30.5923   21.2150 C   0  0  1  0  0  0  0  0  0  0  0  0
  -26.1240  -15.9317   18.1618 C   0  0  2  0  0  0  0  0  0  0  0  0
  -19.4251  -24.2480   19.9373 C   0  0  0  0  0  0  0  0  0  0  0  0
  -20.2944  -28.5875   24.6754 C   0  0  0  0  0  0  0  0  0  0  0  0
  -19.6822  -26.2685   23.9572 C   0  0  0  0  0  0  0  0  0  0  0  0
  -18.7003  -28.2369   22.7806 C   0  0  0  0  0  0  0  0  0  0  0  0
  -23.1742  -24.3533   19.2979 C   0  0  0  0  0  0  0  0  0  0  0  0
  -21.1355  -27.6630   22.4162 C   0  0  1  0  0  0  0  0  0  0  0  0
  -20.7989  -24.8943   19.8490 C   0  0  2  0  0  0  0  0  0  0  0  0
  -19.9801  -27.6979   23.4561 C   0  0  0  0  0  0  0  0  0  0  0  0
  -25.9696  -14.3756   20.0686 N   0  0  0  0  0  0  0  0  0  0  0  0
  -25.3231  -15.1830   19.2106 N   0  0  0  0  0  0  0  0  0  0  0  0
  -31.5594  -24.1505   21.2563 N   0  0  0  0  0  0  0  0  0  0  0  0
  -22.8268  -29.2350   21.5262 N   0  0  0  0  0  0  0  0  0  0  0  0
  -28.2616  -17.0287   17.6163 N   0  0  0  0  0  0  0  0  0  0  0  0
  -23.1722  -15.9874   18.6297 N   0  0  0  0  0  0  0  0  0  0  0  0
  -22.3481  -13.2285   22.1090 N   0  0  0  0  0  0  0  0  0  0  0  0
  -28.5476  -18.9563   18.9449 N   0  0  0  0  0  0  0  0  0  0  0  0
  -24.3080  -32.4616   22.3580 N   0  0  0  0  0  0  0  0  0  0  0  0
  -20.8546  -26.8498   21.2380 N   0  0  0  0  0  0  0  0  0  0  0  0
  -21.7838  -23.8512   19.4455 N   0  3  0  0  0  0  0  0  0  0  0  0
  -32.6593  -22.3919   22.3155 O   0  0  0  0  0  0  0  0  0  0  0  0
  -21.3790  -14.6263   20.5709 O   0  0  0  0  0  0  0  0  0  0  0  0
  -31.9278  -24.4149   18.6166 O   0  0  0  0  0  0  0  0  0  0  0  0
  -23.9683  -30.4432   23.4686 O   0  0  0  0  0  0  0  0  0  0  0  0
  -20.6150  -29.9038   21.8377 O   0  0  0  0  0  0  0  0  0  0  0  0
  -21.7665  -24.8837   22.0628 O   0  0  0  0  0  0  0  0  0  0  0  0
  -29.3985  -18.8636   16.7888 O   0  0  0  0  0  0  0  0  0  0  0  0
  -26.1332  -10.2982   24.9574 O   0  0  0  0  0  0  0  0  0  0  0  0
  -28.2774  -26.6702   20.1974 O   0  0  0  0  0  0  0  0  0  1  0  0
  -24.8835   -4.9883   24.1531 F   0  0  0  0  0  0  0  0  0  0  0  0
  -28.0953   -8.3521   25.0333 F   0  0  0  0  0  0  0  0  0  0  0  0
  1  2  1  0  0  0  0
  1  7  2  0  0  0  0
  2  8  2  0  0  0  0
  3 12  2  0  0  0  0
  3 19  1  0  0  0  0
  4 13  1  0  0  0  0
  4 19  2  0  0  0  0
  5 10  2  0  0  0  0
  5 20  1  0  0  0  0
  6 11  1  0  0  0  0
  6 20  2  0  0  0  0
  7 22  1  0  0  0  0
  8 24  1  0  0  0  0
  9 14  2  0  0  0  0
  9 23  1  0  0  0  0
 10 26  1  0  0  0  0
 11 26  2  0  0  0  0
 12 27  1  0  0  0  0
 13 27  2  0  0  0  0
 14 28  1  0  0  0  0
 15 16  2  0  0  0  0
 15 29  1  0  0  0  0
 16 30  1  0  0  0  0
 17 25  1  0  0  0  0
 17 28  2  0  0  0  0
 18 30  2  0  0  0  0
 18 31  1  0  0  0  0
 19 32  1  0  0  0  0
 20 38  1  0  0  0  0
 21 32  1  0  0  0  0
 21 33  2  0  0  0  0
 21 39  1  0  0  0  0
 22 24  2  0  0  0  0
 22 45  1  0  0  0  0
 23 25  2  0  0  0  0
 23 46  1  0  0  0  0
 24 56  1  0  0  0  0
 25 47  1  0  0  0  0
 26 75  1  0  0  0  0
 27 86  1  0  0  0  0
 28 87  1  0  0  0  0
 29 31  2  0  0  0  0
 29 86  1  0  0  0  0
 30 88  1  0  0  0  0
 31 89  1  0  0  0  0
 32 68  2  0  0  0  0
 33 69  1  0  0  0  0
 33 73  1  0  0  0  0
 34 36  2  0  0  0  0
 34 48  1  0  0  0  0
 34 57  1  0  0  0  0
 35 37  2  0  0  0  0
 36 87  1  0  0  0  0
 37 40  1  0  0  0  0
 38 70  1  0  0  0  0
 38 79  2  0  0  0  0
 39 74  1  0  0  0  0
 39 80  2  0  0  0  0
 40 57  1  0  0  0  0
 40 81  2  0  0  0  0
 41 58  1  0  0  0  0
 41 76  1  0  0  0  0
 41 82  2  0  0  0  0
 42 65  1  0  0  0  0
 42 71  1  0  0  0  0
 42 83  2  0  0  0  0
 43 66  1  0  0  0  0
 43 77  1  0  0  0  0
 43 84  2  0  0  0  0
 44 72  1  0  0  0  0
 44 75  1  0  0  0  0
 44 85  2  0  0  0  0
 45 49  1  0  0  0  0
 46 58  1  0  0  0  0
 47 71  1  0  0  0  0
 48 53  1  0  0  0  0
 49 51  1  0  0  0  0
 50 52  1  0  0  0  0
 50 54  1  0  0  0  0
 51 56  1  0  0  0  0
 52 59  1  0  0  0  0
 53 70  1  0  0  0  0
 54 72  1  0  0  0  0
 55 59  1  0  0  0  0
 55 72  1  0  0  0  0
 56 76  1  0  0  0  0
 57 70  1  0  0  0  0
 58 71  1  0  0  0  0
 59 69  1  0  0  0  0
 60 66  1  0  0  0  0
 61 67  1  0  0  0  0
 62 67  1  0  0  0  0
 63 67  1  0  0  0  0
 64 78  1  0  0  0  0
 65 67  1  0  0  0  0
 65 77  1  0  0  0  0
 66 78  1  0  0  0  0
 68 69  1  0  0  0  0
M  CHG  1  78   1
M  ISO  4  36 101  44 100  75 100  87 101
M  END
> <Batch ID>
0114

> <Smiles>
C=CC(=O)C1C(=[101CH:1][101O:1]c2ccc3c(c2)CN(C(=O)C(NC(=O)C(C)NC)C(C)(C)C)C(C(=O)NC2CCCc4ccccc42)C3)CCN1C(=O)c1ccc([100NH:0][100C:0](=O)N2CCCC(n3nc(-c4ccc(Oc5ccc(F)cc5F)cc4)c(C(N)=O)c3N)C2)cc1

> <Shape>
0.270

> <Color>
0.070

> <Negative vol penalty>
0.000

$$$$

  -OEChem-04052301373D

 84 92  0     1  0  0  0  0  0999 V2000
  -28.7654  -18.4635   20.9136 C   0  0  0  0  0  0  0  0  0  0  0  0
  -27.6650  -19.2437   20.5730 C   0  0  0  0  0  0  0  0  0  0  0  0
  -24.6904  -16.4784   19.3958 C   0  0  0  0  0  0  0  0  0  0  0  0
  -25.8644  -16.0287   21.4590 C   0  0  0  0  0  0  0  0  0  0  0  0
  -29.7949  -19.0089   21.6794 C   0  0  0  0  0  0  0  0  0  0  0  0
  -27.5931  -20.5695   20.9990 C   0  0  0  0  0  0  0  0  0  0  0  0
  -25.1189  -26.9688   18.9393 C   0  0  0  0  0  0  0  0  0  0  0  0
  -18.9005  -29.0764   23.1197 C   0  0  0  0  0  0  0  0  0  0  0  0
  -25.7567  -15.9440   18.6726 C   0  0  0  0  0  0  0  0  0  0  0  0
  -26.9307  -15.4942   20.7358 C   0  0  0  0  0  0  0  0  0  0  0  0
  -24.3248  -28.0168   19.4030 C   0  0  0  0  0  0  0  0  0  0  0  0
  -18.0632  -27.9830   23.3408 C   0  0  0  0  0  0  0  0  0  0  0  0
  -27.6670  -12.5951   19.1630 C   0  0  0  0  0  0  0  0  0  0  0  0
  -28.2150  -11.3936   19.6119 C   0  0  0  0  0  0  0  0  0  0  0  0
  -20.5302  -27.6202   22.0898 C   0  0  0  0  0  0  0  0  0  0  0  0
  -26.1998  -28.8756   20.6546 C   0  0  0  0  0  0  0  0  0  0  0  0
  -30.3551  -12.4771   19.8997 C   0  0  0  0  0  0  0  0  0  0  0  0
  -24.7443  -16.5208   20.7890 C   0  0  0  0  0  0  0  0  0  0  0  0
  -19.6928  -26.5267   22.3109 C   0  0  0  0  0  0  0  0  0  0  0  0
  -22.5180  -16.3842   22.0270 C   0  0  0  0  0  0  0  0  0  0  0  0
  -29.7401  -20.3449   22.1069 C   0  0  0  0  0  0  0  0  0  0  0  0
  -26.4586  -26.8601   19.3390 C   0  0  0  0  0  0  0  0  0  0  0  0
  -28.6222  -21.1329   21.7724 C   0  0  0  0  0  0  0  0  0  0  0  0
  -27.0094  -27.8268   20.1924 C   0  0  0  0  0  0  0  0  0  0  0  0
  -20.1340  -28.8950   22.4941 C   0  0  0  0  0  0  0  0  0  0  0  0
  -26.8768  -15.4519   19.3426 C   0  0  0  0  0  0  0  0  0  0  0  0
  -24.8644  -28.9687   20.2631 C   0  0  0  0  0  0  0  0  0  0  0  0
  -18.4593  -26.7082   22.9364 C   0  0  0  0  0  0  0  0  0  0  0  0
  -28.4631  -13.7377   19.0823 C   0  0  0  0  0  0  0  0  0  0  0  0
  -29.5590  -11.3346   19.9803 C   0  0  0  0  0  0  0  0  0  0  0  0
  -29.8071  -13.6787   19.4507 C   0  0  0  0  0  0  0  0  0  0  0  0
  -23.6434  -17.0732   21.5366 C   0  0  0  0  0  0  0  0  0  0  0  0
  -21.7742  -17.3489   22.6615 C   0  0  0  0  0  0  0  0  0  0  0  0
  -20.1292  -25.2053   21.8797 C   0  0  0  0  0  0  0  0  0  0  0  0
  -21.2291  -24.5630   22.3229 C   0  0  0  0  0  0  0  0  0  0  0  0
  -22.1403  -29.9372   22.8313 C   0  0  0  0  0  0  0  0  0  0  0  0
  -22.1756  -14.9961   21.9188 C   0  0  0  0  0  0  0  0  0  0  0  0
  -21.5330  -23.2178   21.7948 C   0  0  0  0  0  0  0  0  0  0  0  0
  -28.1515  -24.7037   20.9476 C   0  0  0  0  0  0  0  0  0  0  0  0
  -30.6384  -26.6204   20.1326 C   0  0  0  0  0  0  0  0  0  0  0  0
  -31.7274  -29.7249   19.2255 C   0  0  0  0  0  0  0  0  0  0  0  0
  -30.8548  -20.8764   22.9728 C   0  0  0  0  0  0  0  0  0  0  0  0
  -27.3092  -25.7387   18.8086 C   0  0  0  0  0  0  0  0  0  0  0  0
  -28.4477  -27.7666   20.6353 C   0  0  0  0  0  0  0  0  0  0  0  0
  -30.8786  -22.3997   23.0681 C   0  0  0  0  0  0  0  0  0  0  0  0
  -22.1966  -21.5042   24.9658 C   0  0  0  0  0  0  0  0  0  0  0  0
  -29.4776  -22.9397   23.3375 C   0  0  0  0  0  0  0  0  0  0  0  0
  -22.5877  -20.1139   24.4721 C   0  0  0  0  0  0  0  0  0  0  0  0
  -22.6520  -22.6013   24.0048 C   0  0  0  0  0  0  0  0  0  0  0  0
  -22.5754  -21.0070   22.1094 C   0  0  0  0  0  0  0  0  0  0  0  0
  -28.5195  -22.5824   22.1948 C   0  0  1  0  0  0  0  0  0  0  0  0
  -28.5183  -25.4380   19.6891 C   0  0  1  0  0  0  0  0  0  0  0  0
  -22.0858  -19.8846   23.0377 C   0  0  1  0  0  0  0  0  0  0  0  0
  -33.8192  -30.9926   18.6644 C   0  0  0  0  0  0  0  0  0  0  0  0
  -31.3690  -26.7205   23.0934 C   0  0  0  0  0  0  0  0  0  0  0  0
  -32.8208  -28.6988   22.5967 C   0  0  0  0  0  0  0  0  0  0  0  0
  -33.3194  -26.4926   21.5447 C   0  0  0  0  0  0  0  0  0  0  0  0
  -30.7580  -30.3466   16.4992 C   0  0  0  0  0  0  0  0  0  0  0  0
  -17.7704  -24.9694   24.4053 C   0  0  0  0  0  0  0  0  0  0  0  0
  -23.1353  -31.0524   22.6515 C   0  0  0  0  0  0  0  0  0  0  0  0
  -24.4034  -30.5188   22.0068 C   0  0  0  0  0  0  0  0  0  1  0  0
  -31.3151  -27.8169   20.7565 C   0  0  1  0  0  0  0  0  0  0  0  0
  -32.6558  -30.1819   18.1147 C   0  0  2  0  0  0  0  0  0  0  0  0
  -32.1784  -27.4325   21.9912 C   0  0  0  0  0  0  0  0  0  0  0  0
  -23.6207  -18.3752   21.8339 N   0  0  0  0  0  0  0  0  0  0  0  0
  -20.9768  -29.9967   22.2705 N   0  0  0  0  0  0  0  0  0  0  0  0
  -22.4720  -18.5120   22.5178 N   0  0  0  0  0  0  0  0  0  0  0  0
  -22.2095  -22.3295   22.6290 N   0  0  0  0  0  0  0  0  0  0  0  0
  -29.2371  -26.6476   20.0945 N   0  0  0  0  0  0  0  0  0  0  0  0
  -20.5979  -17.3074   23.3225 N   0  0  0  0  0  0  0  0  0  0  0  0
  -23.0516  -14.1433   21.2335 N   0  0  0  0  0  0  0  0  0  0  0  0
  -28.7357  -23.4567   21.0620 N   0  0  0  0  0  0  0  0  0  0  0  0
  -32.0611  -28.4685   19.6854 N   0  0  0  0  0  0  0  0  0  0  0  0
  -31.9153  -31.0268   17.1356 N   0  3  0  0  0  0  0  0  0  0  0  0
  -21.1158  -14.5291   22.4008 O   0  0  0  0  0  0  0  0  0  0  0  0
  -21.1730  -22.9641   20.6439 O   0  0  0  0  0  0  0  0  0  0  0  0
  -27.3957  -25.2302   21.7559 O   0  0  0  0  0  0  0  0  0  0  0  0
  -31.3279  -25.6989   19.6887 O   0  0  0  0  0  0  0  0  0  0  0  0
  -30.8014  -30.4150   19.6458 O   0  0  0  0  0  0  0  0  0  0  0  0
  -27.9174  -14.9301   18.6372 O   0  0  0  0  0  0  0  0  0  0  0  0
  -17.6216  -25.6568   23.1652 O   0  0  0  0  0  0  0  0  0  0  0  0
  -24.0914  -29.9923   20.7178 O   0  0  0  0  0  0  0  0  0  1  0  0
  -30.0847  -10.1810   20.4128 F   0  0  0  0  0  0  0  0  0  0  0  0
  -30.5766  -14.7733   19.3765 F   0  0  0  0  0  0  0  0  0  0  0  0
  1  2  1  0  0  0  0
  1  5  2  0  0  0  0
  2  6  2  0  0  0  0
  3  9  2  0  0  0  0
  3 18  1  0  0  0  0
  4 10  1  0  0  0  0
  4 18  2  0  0  0  0
  5 21  1  0  0  0  0
  6 23  1  0  0  0  0
  7 11  2  0  0  0  0
  7 22  1  0  0  0  0
  8 12  2  0  0  0  0
  8 25  1  0  0  0  0
  9 26  1  0  0  0  0
 10 26  2  0  0  0  0
 11 27  1  0  0  0  0
 12 28  1  0  0  0  0
 13 14  2  0  0  0  0
 13 29  1  0  0  0  0
 14 30  1  0  0  0  0
 15 19  1  0  0  0  0
 15 25  2  0  0  0  0
 16 24  1  0  0  0  0
 16 27  2  0  0  0  0
 17 30  2  0  0  0  0
 17 31  1  0  0  0  0
 18 32  1  0  0  0  0
 19 28  2  0  0  0  0
 19 34  1  0  0  0  0
 20 32  1  0  0  0  0
 20 33  2  0  0  0  0
 20 37  1  0  0  0  0
 21 23  2  0  0  0  0
 21 42  1  0  0  0  0
 22 24  2  0  0  0  0
 22 43  1  0  0  0  0
 23 51  1  0  0  0  0
 24 44  1  0  0  0  0
 25 66  1  0  0  0  0
 26 80  1  0  0  0  0
 27 82  1  0  0  0  0
 28 81  1  0  0  0  0
 29 31  2  0  0  0  0
 29 80  1  0  0  0  0
 30 83  1  0  0  0  0
 31 84  1  0  0  0  0
 32 65  2  0  0  0  0
 33 67  1  0  0  0  0
 33 70  1  0  0  0  0
 34 35  2  0  0  0  0
 35 38  1  0  0  0  0
 36 60  1  0  0  0  0
 36 66  2  0  0  0  0
 37 71  1  0  0  0  0
 37 75  2  0  0  0  0
 38 68  1  0  0  0  0
 38 76  2  0  0  0  0
 39 52  1  0  0  0  0
 39 72  1  0  0  0  0
 39 77  2  0  0  0  0
 40 62  1  0  0  0  0
 40 69  1  0  0  0  0
 40 78  2  0  0  0  0
 41 63  1  0  0  0  0
 41 73  1  0  0  0  0
 41 79  2  0  0  0  0
 42 45  1  0  0  0  0
 43 52  1  0  0  0  0
 44 69  1  0  0  0  0
 45 47  1  0  0  0  0
 46 48  1  0  0  0  0
 46 49  1  0  0  0  0
 47 51  1  0  0  0  0
 48 53  1  0  0  0  0
 49 68  1  0  0  0  0
 50 53  1  0  0  0  0
 50 68  1  0  0  0  0
 51 72  1  0  0  0  0
 52 69  1  0  0  0  0
 53 67  1  0  0  0  0
 54 63  1  0  0  0  0
 55 64  1  0  0  0  0
 56 64  1  0  0  0  0
 57 64  1  0  0  0  0
 58 74  1  0  0  0  0
 59 81  1  0  0  0  0
 60 61  1  0  0  0  0
 61 82  1  0  0  0  0
 62 64  1  0  0  0  0
 62 73  1  0  0  0  0
 63 74  1  0  0  0  0
 65 67  1  0  0  0  0
M  CHG  1  74   1
M  ISO  4  35 100  38 100  61 101  82 101
M  END
> <Batch ID>
0114

> <Smiles>
CNC(C)C(=O)NC(C(=O)N1Cc2cc([101O:1][101CH2:1]C=CNc3ccc(OC)c(C=[100CH:0][100C:0](=O)N4CCCC(n5nc(-c6ccc(Oc7ccc(F)cc7F)cc6)c(C(N)=O)c5N)C4)c3)ccc2CC1C(=O)NC1CCCc2ccccc21)C(C)(C)C

> <Shape>
0.246

> <Color>
0.063

> <Negative vol penalty>
0.000

$$$$

  -OEChem-04052301373D

 85 93  0     1  0  0  0  0  0999 V2000
  -31.9972  -13.1155   21.9682 C   0  0  0  0  0  0  0  0  0  0  0  0
  -31.0956  -13.9385   22.6335 C   0  0  0  0  0  0  0  0  0  0  0  0
  -26.8732  -23.8098   21.6074 C   0  0  0  0  0  0  0  0  0  0  0  0
  -28.7872  -24.8785   20.5917 C   0  0  0  0  0  0  0  0  0  0  0  0
  -31.6228  -12.4975   20.7770 C   0  0  0  0  0  0  0  0  0  0  0  0
  -29.8155  -14.1344   22.1141 C   0  0  0  0  0  0  0  0  0  0  0  0
  -25.2793  -17.7339   24.0101 C   0  0  0  0  0  0  0  0  0  0  0  0
  -27.2015  -22.6143   20.9682 C   0  0  0  0  0  0  0  0  0  0  0  0
  -29.1155  -23.6830   19.9525 C   0  0  0  0  0  0  0  0  0  0  0  0
  -24.8245  -19.0296   23.7692 C   0  0  0  0  0  0  0  0  0  0  0  0
  -29.4052  -20.0854   21.3941 C   0  0  0  0  0  0  0  0  0  0  0  0
  -17.7320  -26.9837   23.5351 C   0  0  0  0  0  0  0  0  0  0  0  0
  -29.3596  -18.9132   22.1486 C   0  0  0  0  0  0  0  0  0  0  0  0
  -18.3246  -28.0779   22.9149 C   0  0  0  0  0  0  0  0  0  0  0  0
  -23.2326  -18.1678   22.1747 C   0  0  0  0  0  0  0  0  0  0  0  0
  -27.6970  -18.0105   20.6460 C   0  0  0  0  0  0  0  0  0  0  0  0
  -27.6660  -24.9419   21.4191 C   0  0  0  0  0  0  0  0  0  0  0  0
  -27.7586  -26.6101   23.3468 C   0  0  0  0  0  0  0  0  0  0  0  0
  -30.3416  -12.6964   20.2369 C   0  0  0  0  0  0  0  0  0  0  0  0
  -24.7207  -16.6447   23.3259 C   0  0  0  0  0  0  0  0  0  0  0  0
  -29.4107  -13.5005   20.9255 C   0  0  0  0  0  0  0  0  0  0  0  0
  -23.6803  -16.8590   22.4106 C   0  0  0  0  0  0  0  0  0  0  0  0
  -28.3226  -22.5509   20.1407 C   0  0  0  0  0  0  0  0  0  0  0  0
  -23.8029  -19.2470   22.8493 C   0  0  0  0  0  0  0  0  0  0  0  0
  -28.5965  -20.2203   20.2655 C   0  0  0  0  0  0  0  0  0  0  0  0
  -18.5040  -25.8744   23.8619 C   0  0  0  0  0  0  0  0  0  0  0  0
  -28.5056  -17.8757   21.7746 C   0  0  0  0  0  0  0  0  0  0  0  0
  -27.7425  -19.1828   19.8914 C   0  0  0  0  0  0  0  0  0  0  0  0
  -27.3271  -26.1773   22.0787 C   0  0  0  0  0  0  0  0  0  0  0  0
  -19.6821  -28.0138   22.6449 C   0  0  0  0  0  0  0  0  0  0  0  0
  -19.8535  -25.9088   23.5494 C   0  0  0  0  0  0  0  0  0  0  0  0
  -27.1627  -27.8365   23.5122 C   0  0  0  0  0  0  0  0  0  0  0  0
  -20.3629  -29.1443   21.9891 C   0  0  0  0  0  0  0  0  0  0  0  0
  -23.3167  -22.8559   22.9826 C   0  0  0  0  0  0  0  0  0  0  0  0
  -22.6948  -23.6446   23.8711 C   0  0  0  0  0  0  0  0  0  0  0  0
  -28.6211  -25.9617   24.2909 C   0  0  0  0  0  0  0  0  0  0  0  0
  -25.8320  -14.4540   21.3086 C   0  0  0  0  0  0  0  0  0  0  0  0
  -22.8564  -13.2050   21.6376 C   0  0  0  0  0  0  0  0  0  0  0  0
  -19.5698  -13.7125   22.4040 C   0  0  0  0  0  0  0  0  0  0  0  0
  -22.2004  -30.2136   21.1106 C   0  0  0  0  0  0  0  0  0  0  0  0
  -29.9864  -11.9968   18.9485 C   0  0  0  0  0  0  0  0  0  0  0  0
  -25.2042  -15.2504   23.6168 C   0  0  0  0  0  0  0  0  0  0  0  0
  -23.0333  -15.7216   21.6649 C   0  0  0  0  0  0  0  0  0  0  0  0
  -28.7775  -12.6124   18.2515 C   0  0  0  0  0  0  0  0  0  0  0  0
  -25.5346  -31.5855   21.0379 C   0  0  0  0  0  0  0  0  0  0  0  0
  -27.6354  -12.7798   19.2427 C   0  0  0  0  0  0  0  0  0  0  0  0
  -26.4127  -30.3819   21.3799 C   0  0  0  0  0  0  0  0  0  0  0  0
  -24.3194  -31.1755   20.2117 C   0  0  0  0  0  0  0  0  0  0  0  0
  -24.3680  -28.8976   21.1903 C   0  0  0  0  0  0  0  0  0  0  0  0
  -28.0232  -13.7526   20.3635 C   0  0  1  0  0  0  0  0  0  0  0  0
  -24.9152  -14.2695   22.4847 C   0  0  1  0  0  0  0  0  0  0  0  0
  -25.5881  -29.2687   22.0505 C   0  0  1  0  0  0  0  0  0  0  0  0
  -17.3718  -12.5100   22.5463 C   0  0  0  0  0  0  0  0  0  0  0  0
  -22.6351  -13.2545   18.5948 C   0  0  0  0  0  0  0  0  0  0  0  0
  -20.1604  -12.9639   18.8397 C   0  0  0  0  0  0  0  0  0  0  0  0
  -21.7106  -11.1969   19.6747 C   0  0  0  0  0  0  0  0  0  0  0  0
  -19.3137  -14.2816   25.2970 C   0  0  0  0  0  0  0  0  0  0  0  0
  -16.5397  -24.8664   24.7456 C   0  0  0  0  0  0  0  0  0  0  0  0
  -23.9818  -21.5671   23.3403 C   0  0  0  0  0  0  0  0  0  1  0  0
  -22.0195  -24.9277   23.5118 C   0  0  0  0  0  0  0  0  0  0  0  0
  -21.5365  -13.3860   20.9276 C   0  0  1  0  0  0  0  0  0  0  0  0
  -18.6156  -12.9480   23.3038 C   0  0  2  0  0  0  0  0  0  0  0  0
  -21.5240  -12.7222   19.5216 C   0  0  0  0  0  0  0  0  0  0  0  0
  -26.5192  -27.0571   21.4809 N   0  0  0  0  0  0  0  0  0  0  0  0
  -20.4646  -26.9536   22.9473 N   0  0  0  0  0  0  0  0  0  0  0  0
  -21.6284  -29.1167   21.7262 N   0  0  0  0  0  0  0  0  0  0  0  0
  -26.4383  -28.0550   22.3775 N   0  0  0  0  0  0  0  0  0  0  0  0
  -23.5452  -14.3775   21.9792 N   0  0  0  0  0  0  0  0  0  0  0  0
  -23.5804  -30.0938   20.8642 N   0  0  0  0  0  0  0  0  0  0  0  0
  -27.1928  -28.7384   24.5162 N   0  0  0  0  0  0  0  0  0  0  0  0
  -29.1472  -24.7050   23.9617 N   0  0  0  0  0  0  0  0  0  0  0  0
  -27.0025  -13.7238   21.3877 N   0  0  0  0  0  0  0  0  0  0  0  0
  -20.5120  -12.8816   21.8356 N   0  0  0  0  0  0  0  0  0  0  0  0
  -18.1916  -13.7992   24.4512 N   0  3  0  0  0  0  0  0  0  0  0  0
  -28.9034  -26.4739   25.4006 O   0  0  0  0  0  0  0  0  0  0  0  0
  -25.5012  -15.2022   20.3963 O   0  0  0  0  0  0  0  0  0  0  0  0
  -23.2579  -12.0655   21.8865 O   0  0  0  0  0  0  0  0  0  0  0  0
  -19.4852  -14.9248   22.2205 O   0  0  0  0  0  0  0  0  0  0  0  0
  -21.5733  -31.2254   20.7878 O   0  0  0  0  0  0  0  0  0  0  0  0
  -28.6434  -21.3844   19.5170 O   0  0  0  0  0  0  0  0  0  0  0  0
  -17.9393  -24.7991   24.4676 O   0  0  0  0  0  0  0  0  0  0  0  0
  -23.3576  -20.5108   22.6118 O   0  0  0  0  0  0  0  0  0  1  0  0
  -20.6447  -24.8325   23.8571 O   0  0  0  0  0  0  0  0  0  0  0  0
  -28.4632  -16.7494   22.4983 F   0  0  0  0  0  0  0  0  0  0  0  0
  -26.9642  -19.3061   18.8076 F   0  0  0  0  0  0  0  0  0  0  0  0
  1  2  1  0  0  0  0
  1  5  2  0  0  0  0
  2  6  2  0  0  0  0
  3  8  2  0  0  0  0
  3 17  1  0  0  0  0
  4  9  1  0  0  0  0
  4 17  2  0  0  0  0
  5 19  1  0  0  0  0
  6 21  1  0  0  0  0
  7 10  2  0  0  0  0
  7 20  1  0  0  0  0
  8 23  1  0  0  0  0
  9 23  2  0  0  0  0
 10 24  1  0  0  0  0
 11 13  2  0  0  0  0
 11 25  1  0  0  0  0
 12 14  2  0  0  0  0
 12 26  1  0  0  0  0
 13 27  1  0  0  0  0
 14 30  1  0  0  0  0
 15 22  1  0  0  0  0
 15 24  2  0  0  0  0
 16 27  2  0  0  0  0
 16 28  1  0  0  0  0
 17 29  1  0  0  0  0
 18 29  1  0  0  0  0
 18 32  2  0  0  0  0
 18 36  1  0  0  0  0
 19 21  2  0  0  0  0
 19 41  1  0  0  0  0
 20 22  2  0  0  0  0
 20 42  1  0  0  0  0
 21 50  1  0  0  0  0
 22 43  1  0  0  0  0
 23 80  1  0  0  0  0
 24 82  1  0  0  0  0
 25 28  2  0  0  0  0
 25 80  1  0  0  0  0
 26 31  2  0  0  0  0
 26 81  1  0  0  0  0
 27 84  1  0  0  0  0
 28 85  1  0  0  0  0
 29 64  2  0  0  0  0
 30 33  1  0  0  0  0
 30 65  2  0  0  0  0
 31 65  1  0  0  0  0
 31 83  1  0  0  0  0
 32 67  1  0  0  0  0
 32 70  1  0  0  0  0
 33 66  2  0  0  0  0
 34 35  2  0  0  0  0
 34 59  1  0  0  0  0
 35 60  1  0  0  0  0
 36 71  1  0  0  0  0
 36 75  2  0  0  0  0
 37 51  1  0  0  0  0
 37 72  1  0  0  0  0
 37 76  2  0  0  0  0
 38 61  1  0  0  0  0
 38 68  1  0  0  0  0
 38 77  2  0  0  0  0
 39 62  1  0  0  0  0
 39 73  1  0  0  0  0
 39 78  2  0  0  0  0
 40 66  1  0  0  0  0
 40 69  1  0  0  0  0
 40 79  2  0  0  0  0
 41 44  1  0  0  0  0
 42 51  1  0  0  0  0
 43 68  1  0  0  0  0
 44 46  1  0  0  0  0
 45 47  1  0  0  0  0
 45 48  1  0  0  0  0
 46 50  1  0  0  0  0
 47 52  1  0  0  0  0
 48 69  1  0  0  0  0
 49 52  1  0  0  0  0
 49 69  1  0  0  0  0
 50 72  1  0  0  0  0
 51 68  1  0  0  0  0
 52 67  1  0  0  0  0
 53 62  1  0  0  0  0
 54 63  1  0  0  0  0
 55 63  1  0  0  0  0
 56 63  1  0  0  0  0
 57 74  1  0  0  0  0
 58 81  1  0  0  0  0
 59 82  1  0  0  0  0
 60 83  1  0  0  0  0
 61 63  1  0  0  0  0
 61 73  1  0  0  0  0
 62 74  1  0  0  0  0
 64 67  1  0  0  0  0
M  CHG  1  74   1
M  ISO  4  40 100  59 101  66 100  82 101
M  END
> <Batch ID>
0114

> <Smiles>
CNC(C)C(=O)NC(C(=O)N1Cc2cc([101O:1][101CH2:1]C=CCOc3nc(C=[100N:0][100C:0](=O)N4CCCC(n5nc(-c6ccc(Oc7ccc(F)cc7F)cc6)c(C(N)=O)c5N)C4)ccc3OC)ccc2CC1C(=O)NC1CCCc2ccccc21)C(C)(C)C

> <Shape>
0.237

> <Color>
0.078

> <Negative vol penalty>
0.000

$$$$

  -OEChem-04052301373D

 89 97  0     1  0  0  0  0  0999 V2000
  -24.5665  -22.5546   34.1667 C   0  0  0  0  0  0  0  0  0  0  0  0
  -24.2491  -21.7310   33.0914 C   0  0  0  0  0  0  0  0  0  0  0  0
  -23.2862   -9.7985   19.9105 C   0  0  0  0  0  0  0  0  0  0  0  0
  -23.7255   -9.9401   22.2820 C   0  0  0  0  0  0  0  0  0  0  0  0
  -23.6663  -23.5351   34.5817 C   0  0  0  0  0  0  0  0  0  0  0  0
  -23.0308  -21.8866   32.4312 C   0  0  0  0  0  0  0  0  0  0  0  0
  -23.5232  -21.7728   27.3924 C   0  0  0  0  0  0  0  0  0  0  0  0
  -22.5552   -8.6284   20.1158 C   0  0  0  0  0  0  0  0  0  0  0  0
  -22.9944   -8.7700   22.4873 C   0  0  0  0  0  0  0  0  0  0  0  0
  -23.6785  -20.5222   26.7959 C   0  0  0  0  0  0  0  0  0  0  0  0
  -20.9408   -6.0174   23.6806 C   0  0  0  0  0  0  0  0  0  0  0  0
  -20.0338   -5.9960   24.7401 C   0  0  0  0  0  0  0  0  0  0  0  0
  -26.7147  -11.6907   25.6757 C   0  0  0  0  0  0  0  0  0  0  0  0
  -21.3417  -20.5244   26.1971 C   0  0  0  0  0  0  0  0  0  0  0  0
  -27.5789  -14.1102   24.5885 C   0  0  0  0  0  0  0  0  0  0  0  0
  -18.8349   -7.8458   23.7511 C   0  0  0  0  0  0  0  0  0  0  0  0
  -23.8714  -10.4543   20.9937 C   0  0  0  0  0  0  0  0  0  0  0  0
  -28.0790  -11.9432   25.5326 C   0  0  0  0  0  0  0  0  0  0  0  0
  -24.1395  -12.9833   20.7938 C   0  0  0  0  0  0  0  0  0  0  0  0
  -22.4405  -23.7093   33.9201 C   0  0  0  0  0  0  0  0  0  0  0  0
  -22.2715  -22.4047   27.4053 C   0  0  0  0  0  0  0  0  0  0  0  0
  -22.1128  -22.8695   32.8386 C   0  0  0  0  0  0  0  0  0  0  0  0
  -21.1737  -21.7841   26.7922 C   0  0  0  0  0  0  0  0  0  0  0  0
  -28.5111  -13.1529   24.9890 C   0  0  0  0  0  0  0  0  0  0  0  0
  -22.4093   -8.1142   21.4042 C   0  0  0  0  0  0  0  0  0  0  0  0
  -22.5870  -19.8965   26.2007 C   0  0  0  0  0  0  0  0  0  0  0  0
  -20.7949   -6.9531   22.6564 C   0  0  0  0  0  0  0  0  0  0  0  0
  -25.7824  -12.6479   25.2752 C   0  0  0  0  0  0  0  0  0  0  0  0
  -26.2145  -13.8576   24.7316 C   0  0  0  0  0  0  0  0  0  0  0  0
  -18.9808   -6.9102   24.7753 C   0  0  0  0  0  0  0  0  0  0  0  0
  -19.7420   -7.8672   22.6917 C   0  0  0  0  0  0  0  0  0  0  0  0
  -24.6271  -11.6627   20.7822 C   0  0  0  0  0  0  0  0  0  0  0  0
  -25.2447  -13.7596   20.5436 C   0  0  0  0  0  0  0  0  0  0  0  0
  -29.0889   -9.7104   25.4321 C   0  0  0  0  0  0  0  0  0  0  0  0
  -29.0280  -10.9237   25.9601 C   0  0  0  0  0  0  0  0  0  0  0  0
  -30.7120  -12.6166   22.8086 C   0  0  0  0  0  0  0  0  0  0  0  0
  -22.8068  -13.4652   21.0114 C   0  0  0  0  0  0  0  0  0  0  0  0
  -31.1083  -12.7383   21.3868 C   0  0  0  0  0  0  0  0  0  0  0  0
  -20.2629  -23.3571   29.6774 C   0  0  0  0  0  0  0  0  0  0  0  0
  -18.6433  -24.6271   27.1701 C   0  0  0  0  0  0  0  0  0  0  0  0
  -17.9715  -24.5658   23.8247 C   0  0  0  0  0  0  0  0  0  0  0  0
  -21.4794  -24.7514   34.4349 C   0  0  0  0  0  0  0  0  0  0  0  0
  -22.1265  -23.7656   28.0294 C   0  0  0  0  0  0  0  0  0  0  0  0
  -19.8132  -22.4294   26.7613 C   0  0  0  0  0  0  0  0  0  0  0  0
  -20.3705  -25.0992   33.4450 C   0  0  0  0  0  0  0  0  0  0  0  0
  -29.4766  -13.6668   18.3320 C   0  0  0  0  0  0  0  0  0  0  0  0
  -19.7626  -23.8298   32.8567 C   0  0  0  0  0  0  0  0  0  0  0  0
  -28.0081  -13.3414   18.6031 C   0  0  0  0  0  0  0  0  0  0  0  0
  -30.4054  -12.6763   19.0266 C   0  0  0  0  0  0  0  0  0  0  0  0
  -28.7042  -12.2388   20.7768 C   0  0  0  0  0  0  0  0  0  0  0  0
  -20.8117  -23.0239   32.0813 C   0  0  1  0  0  0  0  0  0  0  0  0
  -20.6916  -24.0868   28.4358 C   0  0  1  0  0  0  0  0  0  0  0  0
  -27.7361  -13.2343   20.1141 C   0  0  2  0  0  0  0  0  0  0  0  0
  -22.5469  -12.6158   26.8515 C   0  0  0  0  0  0  0  0  0  0  0  0
  -30.3942  -14.6982   25.6119 C   0  0  0  0  0  0  0  0  0  0  0  0
  -16.5774  -25.7015   22.0743 C   0  0  0  0  0  0  0  0  0  0  0  0
  -16.1784  -23.1288   28.1647 C   0  0  0  0  0  0  0  0  0  0  0  0
  -15.1265  -23.5143   25.9257 C   0  0  0  0  0  0  0  0  0  0  0  0
  -15.7330  -25.4571   27.3680 C   0  0  0  0  0  0  0  0  0  0  0  0
  -20.3655  -25.4518   22.3271 C   0  0  0  0  0  0  0  0  0  0  0  0
  -24.0119  -16.7294   24.9820 C   0  0  0  0  0  0  0  0  0  0  0  0
  -23.9807  -12.1424   26.7429 C   0  0  0  0  0  0  0  0  0  0  0  0
  -24.0380  -18.0934   25.6536 C   0  0  0  0  0  0  0  0  0  1  0  0
  -25.3833  -16.0725   24.9749 C   0  0  0  0  0  0  0  0  0  0  0  0
  -29.9650  -13.4576   24.8207 C   0  0  2  0  0  0  0  0  0  0  0  0
  -17.5658  -24.1355   26.2340 C   0  0  1  0  0  0  0  0  0  0  0  0
  -17.9205  -25.6727   22.7871 C   0  0  2  0  0  0  0  0  0  0  0  0
  -16.1760  -24.0456   26.9252 C   0  0  0  0  0  0  0  0  0  0  0  0
  -25.9397  -11.5998   20.5433 N   0  0  0  0  0  0  0  0  0  0  0  0
  -30.3400  -13.6756   23.4086 N   0  0  0  0  0  0  0  0  0  0  0  0
  -26.2864  -12.8906   20.4025 N   0  0  0  0  0  0  0  0  0  0  0  0
  -30.0967  -12.5720   20.4514 N   0  0  0  0  0  0  0  0  0  0  0  0
  -19.7208  -23.7574   27.3903 N   0  0  0  0  0  0  0  0  0  0  0  0
  -25.4173  -15.0938   20.4326 N   0  0  0  0  0  0  0  0  0  0  0  0
  -21.7902  -12.5317   21.2547 N   0  0  0  0  0  0  0  0  0  0  0  0
  -21.0485  -23.6191   30.7836 N   0  0  0  0  0  0  0  0  0  0  0  0
  -17.5998  -25.0183   25.0730 N   0  0  0  0  0  0  0  0  0  0  0  0
  -18.9895  -25.4767   21.7675 N   0  3  0  0  0  0  0  0  0  0  0  0
  -22.5229  -14.6865   20.9744 O   0  0  0  0  0  0  0  0  0  0  0  0
  -32.2930  -12.9736   21.1879 O   0  0  0  0  0  0  0  0  0  0  0  0
  -19.2904  -22.6126   29.6353 O   0  0  0  0  0  0  0  0  0  0  0  0
  -18.5366  -25.7446   27.6814 O   0  0  0  0  0  0  0  0  0  0  0  0
  -18.3041  -23.4140   23.5541 O   0  0  0  0  0  0  0  0  0  0  0  0
  -21.6958   -6.9726   21.6049 O   0  0  0  0  0  0  0  0  0  0  0  0
  -22.7356  -18.6756   25.6183 O   0  0  0  0  0  0  0  0  0  1  0  0
  -24.4527  -12.3899   25.4199 O   0  0  0  0  0  0  0  0  0  0  0  0
  -25.3083  -14.8061   24.3344 O   0  0  0  0  0  0  0  0  0  0  0  0
  -18.1090   -6.8885   25.7920 F   0  0  0  0  0  0  0  0  0  0  0  0
  -19.5960   -8.7677   21.7100 F   0  0  0  0  0  0  0  0  0  0  0  0
  1  2  1  0  0  0  0
  1  5  2  0  0  0  0
  2  6  2  0  0  0  0
  3  8  2  0  0  0  0
  3 17  1  0  0  0  0
  4  9  1  0  0  0  0
  4 17  2  0  0  0  0
  5 20  1  0  0  0  0
  6 22  1  0  0  0  0
  7 10  2  0  0  0  0
  7 21  1  0  0  0  0
  8 25  1  0  0  0  0
  9 25  2  0  0  0  0
 10 26  1  0  0  0  0
 11 12  2  0  0  0  0
 11 27  1  0  0  0  0
 12 30  1  0  0  0  0
 13 18  1  0  0  0  0
 13 28  2  0  0  0  0
 14 23  1  0  0  0  0
 14 26  2  0  0  0  0
 15 24  1  0  0  0  0
 15 29  2  0  0  0  0
 16 30  2  0  0  0  0
 16 31  1  0  0  0  0
 17 32  1  0  0  0  0
 18 24  2  0  0  0  0
 18 35  1  0  0  0  0
 19 32  1  0  0  0  0
 19 33  2  0  0  0  0
 19 37  1  0  0  0  0
 20 22  2  0  0  0  0
 20 42  1  0  0  0  0
 21 23  2  0  0  0  0
 21 43  1  0  0  0  0
 22 51  1  0  0  0  0
 23 44  1  0  0  0  0
 24 65  1  0  0  0  0
 25 84  1  0  0  0  0
 26 85  1  0  0  0  0
 27 31  2  0  0  0  0
 27 84  1  0  0  0  0
 28 29  1  0  0  0  0
 28 86  1  0  0  0  0
 29 87  1  0  0  0  0
 30 88  1  0  0  0  0
 31 89  1  0  0  0  0
 32 69  2  0  0  0  0
 33 71  1  0  0  0  0
 33 74  1  0  0  0  0
 34 35  2  0  0  0  0
 36 38  1  0  0  0  0
 36 70  2  0  0  0  0
 37 75  1  0  0  0  0
 37 79  2  0  0  0  0
 38 72  1  0  0  0  0
 38 80  2  0  0  0  0
 39 52  1  0  0  0  0
 39 76  1  0  0  0  0
 39 81  2  0  0  0  0
 40 66  1  0  0  0  0
 40 73  1  0  0  0  0
 40 82  2  0  0  0  0
 41 67  1  0  0  0  0
 41 77  1  0  0  0  0
 41 83  2  0  0  0  0
 42 45  1  0  0  0  0
 43 52  1  0  0  0  0
 44 73  1  0  0  0  0
 45 47  1  0  0  0  0
 46 48  1  0  0  0  0
 46 49  1  0  0  0  0
 47 51  1  0  0  0  0
 48 53  1  0  0  0  0
 49 72  1  0  0  0  0
 50 53  1  0  0  0  0
 50 72  1  0  0  0  0
 51 76  1  0  0  0  0
 52 73  1  0  0  0  0
 53 71  1  0  0  0  0
 54 62  1  0  0  0  0
 55 65  1  0  0  0  0
 56 67  1  0  0  0  0
 57 68  1  0  0  0  0
 58 68  1  0  0  0  0
 59 68  1  0  0  0  0
 60 78  1  0  0  0  0
 61 63  1  0  0  0  0
 61 64  1  0  0  0  0
 62 86  1  0  0  0  0
 63 85  1  0  0  0  0
 64 87  1  0  0  0  0
 65 70  1  0  0  0  0
 66 68  1  0  0  0  0
 66 77  1  0  0  0  0
 67 78  1  0  0  0  0
 69 71  1  0  0  0  0
M  CHG  1  78   1
M  ISO  4  36 100  38 100  63 101  85 101
M  END
> <Batch ID>
0114

> <Smiles>
C=Cc1cc(OCC)c(OCC[101CH2:1][101O:1]c2ccc3c(c2)CN(C(=O)C(NC(=O)C(C)NC)C(C)(C)C)C(C(=O)NC2CCCc4ccccc42)C3)cc1C(C)=N[100CH2:0][100C:0](=O)N1CCCC(n2nc(-c3ccc(Oc4ccc(F)cc4F)cc3)c(C(N)=O)c2N)C1

> <Shape>
0.141

> <Color>
0.170

> <Negative vol penalty>
0.000

$$$$

  -OEChem-04052301373D

 86 95  0     1  0  0  0  0  0999 V2000
  -16.9169  -29.8441   24.0026 C   0  0  0  0  0  0  0  0  0  0  0  0
  -17.0418  -28.5066   24.3644 C   0  0  0  0  0  0  0  0  0  0  0  0
  -23.5569   -9.9269   20.7073 C   0  0  0  0  0  0  0  0  0  0  0  0
  -25.2344   -9.9870   22.4450 C   0  0  0  0  0  0  0  0  0  0  0  0
  -17.7471  -30.3794   23.0187 C   0  0  0  0  0  0  0  0  0  0  0  0
  -17.9965  -27.7033   23.7417 C   0  0  0  0  0  0  0  0  0  0  0  0
  -22.3567  -22.1740   25.0575 C   0  0  0  0  0  0  0  0  0  0  0  0
  -30.7628  -20.2460   22.9087 C   0  0  0  0  0  0  0  0  0  0  0  0
  -30.4819  -19.1235   22.1298 C   0  0  0  0  0  0  0  0  0  0  0  0
  -23.1934   -8.6396   21.1026 C   0  0  0  0  0  0  0  0  0  0  0  0
  -24.8709   -8.6996   22.8403 C   0  0  0  0  0  0  0  0  0  0  0  0
  -22.6909  -20.9206   24.5466 C   0  0  0  0  0  0  0  0  0  0  0  0
  -21.3513   -7.2133   23.5532 C   0  0  0  0  0  0  0  0  0  0  0  0
  -19.9902   -6.9295   23.6648 C   0  0  0  0  0  0  0  0  0  0  0  0
  -28.4130  -20.4792   23.4198 C   0  0  0  0  0  0  0  0  0  0  0  0
  -24.1237  -21.9738   22.9166 C   0  0  0  0  0  0  0  0  0  0  0  0
  -20.2155   -5.1940   21.9991 C   0  0  0  0  0  0  0  0  0  0  0  0
  -24.5775  -10.6006   21.3784 C   0  0  0  0  0  0  0  0  0  0  0  0
  -28.1321  -19.3567   22.6409 C   0  0  0  0  0  0  0  0  0  0  0  0
  -24.1345  -13.0746   20.9418 C   0  0  0  0  0  0  0  0  0  0  0  0
  -18.7189  -29.5848   22.3905 C   0  0  0  0  0  0  0  0  0  0  0  0
  -22.8959  -23.3393   24.4938 C   0  0  0  0  0  0  0  0  0  0  0  0
  -18.8396  -28.2282   22.7475 C   0  0  0  0  0  0  0  0  0  0  0  0
  -23.7967  -23.2406   23.4238 C   0  0  0  0  0  0  0  0  0  0  0  0
  -29.7283  -20.9239   23.5537 C   0  0  0  0  0  0  0  0  0  0  0  0
  -29.1666  -18.6788   21.9959 C   0  0  0  0  0  0  0  0  0  0  0  0
  -23.8504   -8.0260   22.1691 C   0  0  0  0  0  0  0  0  0  0  0  0
  -23.5723  -20.8205   23.4742 C   0  0  0  0  0  0  0  0  0  0  0  0
  -22.1445   -6.4875   22.6644 C   0  0  0  0  0  0  0  0  0  0  0  0
  -19.4223   -5.9199   22.8878 C   0  0  0  0  0  0  0  0  0  0  0  0
  -21.5766   -5.4779   21.8875 C   0  0  0  0  0  0  0  0  0  0  0  0
  -24.9538  -11.9302   20.9702 C   0  0  0  0  0  0  0  0  0  0  0  0
  -24.9568  -14.0743   20.4826 C   0  0  0  0  0  0  0  0  0  0  0  0
  -26.7361  -18.9143   22.5206 C   0  0  0  0  0  0  0  0  0  0  0  0
  -22.7536  -13.2210   21.2988 C   0  0  0  0  0  0  0  0  0  0  0  0
  -21.6878  -25.8920   23.0350 C   0  0  0  0  0  0  0  0  0  0  0  0
  -24.7573  -26.9334   23.1615 C   0  0  0  0  0  0  0  0  0  0  0  0
  -28.0732  -26.1573   23.3830 C   0  0  0  0  0  0  0  0  0  0  0  0
  -29.8319  -16.7642   20.4998 C   0  0  0  0  0  0  0  0  0  0  0  0
  -19.5616  -30.1958   21.2990 C   0  0  0  0  0  0  0  0  0  0  0  0
  -22.5461  -24.6823   25.0737 C   0  0  0  0  0  0  0  0  0  0  0  0
  -24.4189  -24.4601   22.7960 C   0  0  0  0  0  0  0  0  0  0  0  0
  -20.8001  -29.3732   20.9531 C   0  0  0  0  0  0  0  0  0  0  0  0
  -29.5908  -13.8578   18.4574 C   0  0  0  0  0  0  0  0  0  0  0  0
  -26.0321  -16.6465   25.3839 C   0  0  0  0  0  0  0  0  0  0  0  0
  -20.4370  -27.8994   20.8018 C   0  0  0  0  0  0  0  0  0  0  0  0
  -28.2955  -13.1914   18.9267 C   0  0  0  0  0  0  0  0  0  0  0  0
  -24.9698  -16.2569   24.3612 C   0  0  0  0  0  0  0  0  0  0  0  0
  -27.0471  -17.4184   24.5560 C   0  0  0  0  0  0  0  0  0  0  0  0
  -30.3504  -14.5001   19.6167 C   0  0  0  0  0  0  0  0  0  0  0  0
  -28.2673  -14.7635   20.9053 C   0  0  0  0  0  0  0  0  0  0  0  0
  -19.8799  -27.3311   22.1125 C   0  0  1  0  0  0  0  0  0  0  0  0
  -22.7551  -25.8303   24.0909 C   0  0  1  0  0  0  0  0  0  0  0  0
  -27.4349  -14.1587   19.7629 C   0  0  2  0  0  0  0  0  0  0  0  0
  -24.9153  -17.4629   23.4212 C   0  0  1  0  0  0  0  0  0  0  0  0
  -30.0293  -22.1240   24.3862 C   0  0  0  0  0  0  0  0  0  0  0  0
  -30.5436  -26.5373   23.6070 C   0  0  0  0  0  0  0  0  0  0  0  0
  -24.5913  -27.4001   20.1508 C   0  0  0  0  0  0  0  0  0  0  0  0
  -27.0909  -27.5350   20.1042 C   0  0  0  0  0  0  0  0  0  0  0  0
  -25.7781  -29.1978   21.4212 C   0  0  0  0  0  0  0  0  0  0  0  0
  -27.9276  -26.1255   26.3388 C   0  0  0  0  0  0  0  0  0  0  0  0
  -23.8925  -18.4998   23.8839 C   0  0  0  0  0  0  0  0  0  1  0  0
  -25.9628  -26.8199   22.2599 C   0  0  1  0  0  0  0  0  0  0  0  0
  -29.1813  -26.7124   24.2598 C   0  0  2  0  0  0  0  0  0  0  0  0
  -25.8427  -27.7151   20.9944 C   0  0  0  0  0  0  0  0  0  0  0  0
  -26.2009  -12.1786   20.5613 N   0  0  0  0  0  0  0  0  0  0  0  0
  -26.1713  -13.4906   20.2717 N   0  0  0  0  0  0  0  0  0  0  0  0
  -26.2765  -18.0001   23.4584 N   0  0  0  0  0  0  0  0  0  0  0  0
  -24.0407  -25.7510   23.3944 N   0  0  0  0  0  0  0  0  0  0  0  0
  -29.4734  -15.4067   20.3608 N   0  0  0  0  0  0  0  0  0  0  0  0
  -24.7523  -15.3869   20.2426 N   0  0  0  0  0  0  0  0  0  0  0  0
  -22.0573  -12.0921   21.7518 N   0  0  0  0  0  0  0  0  0  0  0  0
  -28.9051  -17.5367   21.1991 N   0  0  0  0  0  0  0  0  0  0  0  0
  -20.9544  -27.0630   23.0442 N   0  0  0  0  0  0  0  0  0  0  0  0
  -27.1242  -27.1144   23.0922 N   0  0  0  0  0  0  0  0  0  0  0  0
  -29.1981  -26.0152   25.5768 N   0  3  0  0  0  0  0  0  0  0  0  0
  -26.0730  -19.3931   21.6034 O   0  0  0  0  0  0  0  0  0  0  0  0
  -22.1505  -14.3167   21.2028 O   0  0  0  0  0  0  0  0  0  0  0  0
  -21.5416  -24.9477   22.2678 O   0  0  0  0  0  0  0  0  0  0  0  0
  -24.4665  -28.0294   23.6472 O   0  0  0  0  0  0  0  0  0  0  0  0
  -28.0536  -24.9923   22.9920 O   0  0  0  0  0  0  0  0  0  0  0  0
  -30.8706  -17.2146   20.0096 O   0  0  0  0  0  0  0  0  0  0  0  0
  -23.4958   -6.7699   22.5553 O   0  0  0  0  0  0  0  0  0  0  0  0
  -23.8997  -19.5983   22.9731 O   0  0  0  0  0  0  0  0  0  1  0  0
  -18.1155   -5.6464   22.9962 F   0  0  0  0  0  0  0  0  0  0  0  0
  -22.3338   -4.7764   21.0328 F   0  0  0  0  0  0  0  0  0  0  0  0
  1  2  1  0  0  0  0
  1  5  2  0  0  0  0
  2  6  2  0  0  0  0
  3 10  2  0  0  0  0
  3 18  1  0  0  0  0
  4 11  1  0  0  0  0
  4 18  2  0  0  0  0
  5 21  1  0  0  0  0
  6 23  1  0  0  0  0
  7 12  2  0  0  0  0
  7 22  1  0  0  0  0
  8  9  2  0  0  0  0
  8 25  1  0  0  0  0
  9 26  1  0  0  0  0
 10 27  1  0  0  0  0
 11 27  2  0  0  0  0
 12 28  1  0  0  0  0
 13 14  2  0  0  0  0
 13 29  1  0  0  0  0
 14 30  1  0  0  0  0
 15 19  1  0  0  0  0
 15 25  2  0  0  0  0
 16 24  1  0  0  0  0
 16 28  2  0  0  0  0
 17 30  2  0  0  0  0
 17 31  1  0  0  0  0
 18 32  1  0  0  0  0
 19 26  2  0  0  0  0
 19 34  1  0  0  0  0
 20 32  1  0  0  0  0
 20 33  2  0  0  0  0
 20 35  1  0  0  0  0
 21 23  2  0  0  0  0
 21 40  1  0  0  0  0
 22 24  2  0  0  0  0
 22 41  1  0  0  0  0
 23 52  1  0  0  0  0
 24 42  1  0  0  0  0
 25 56  1  0  0  0  0
 26 73  1  0  0  0  0
 27 83  1  0  0  0  0
 28 84  1  0  0  0  0
 29 31  2  0  0  0  0
 29 83  1  0  0  0  0
 30 85  1  0  0  0  0
 31 86  1  0  0  0  0
 32 66  2  0  0  0  0
 33 67  1  0  0  0  0
 33 71  1  0  0  0  0
 34 68  1  0  0  0  0
 34 77  2  0  0  0  0
 35 72  1  0  0  0  0
 35 78  2  0  0  0  0
 36 53  1  0  0  0  0
 36 74  1  0  0  0  0
 36 79  2  0  0  0  0
 37 63  1  0  0  0  0
 37 69  1  0  0  0  0
 37 80  2  0  0  0  0
 38 64  1  0  0  0  0
 38 75  1  0  0  0  0
 38 81  2  0  0  0  0
 39 70  1  0  0  0  0
 39 73  1  0  0  0  0
 39 82  2  0  0  0  0
 40 43  1  0  0  0  0
 41 53  1  0  0  0  0
 42 69  1  0  0  0  0
 43 46  1  0  0  0  0
 44 47  1  0  0  0  0
 44 50  1  0  0  0  0
 45 48  1  0  0  0  0
 45 49  1  0  0  0  0
 46 52  1  0  0  0  0
 47 54  1  0  0  0  0
 48 55  1  0  0  0  0
 49 68  1  0  0  0  0
 50 70  1  0  0  0  0
 51 54  1  0  0  0  0
 51 70  1  0  0  0  0
 52 74  1  0  0  0  0
 53 69  1  0  0  0  0
 54 67  1  0  0  0  0
 55 62  1  0  0  0  0
 55 68  1  0  0  0  0
 57 64  1  0  0  0  0
 58 65  1  0  0  0  0
 59 65  1  0  0  0  0
 60 65  1  0  0  0  0
 61 76  1  0  0  0  0
 62 84  1  0  0  0  0
 63 65  1  0  0  0  0
 63 75  1  0  0  0  0
 64 76  1  0  0  0  0
 66 67  1  0  0  0  0
M  CHG  1  76   1
M  ISO  4  39 100  62 101  73 100  84 101
M  END
> <Batch ID>
0114

> <Smiles>
CNC(C)C(=O)NC(C(=O)N1Cc2cc([101O:1][101CH2:1]C3CCCN3C(=O)c3cc(C)ccc3[100NH:0][100C:0](=O)N3CCCC(n4nc(-c5ccc(Oc6ccc(F)cc6F)cc5)c(C(N)=O)c4N)C3)ccc2CC1C(=O)NC1CCCc2ccccc21)C(C)(C)C

> <Shape>
0.232

> <Color>
0.126

> <Negative vol penalty>
0.000

$$$$

  -OEChem-04052301373D

 88 97  0     1  0  0  0  0  0999 V2000
  -29.8757  -28.1398   13.4727 C   0  0  0  0  0  0  0  0  0  0  0  0
  -30.0930  -28.0730   14.8452 C   0  0  0  0  0  0  0  0  0  0  0  0
  -24.9749  -12.8497   19.6609 C   0  0  0  0  0  0  0  0  0  0  0  0
  -25.0330  -13.7164   21.9153 C   0  0  0  0  0  0  0  0  0  0  0  0
  -28.8552  -28.9447   12.9680 C   0  0  0  0  0  0  0  0  0  0  0  0
  -29.2906  -28.8121   15.7138 C   0  0  0  0  0  0  0  0  0  0  0  0
  -27.7749  -26.1179   19.7249 C   0  0  0  0  0  0  0  0  0  0  0  0
  -29.9626  -23.4182   23.4152 C   0  0  0  0  0  0  0  0  0  0  0  0
  -29.7115  -22.5377   22.3629 C   0  0  0  0  0  0  0  0  0  0  0  0
  -24.9315  -11.5487   20.1621 C   0  0  0  0  0  0  0  0  0  0  0  0
  -24.9895  -12.4155   22.4166 C   0  0  0  0  0  0  0  0  0  0  0  0
  -28.6994  -25.9289   20.7512 C   0  0  0  0  0  0  0  0  0  0  0  0
  -22.6243   -9.4707   21.5006 C   0  0  0  0  0  0  0  0  0  0  0  0
  -21.7091   -8.5863   20.9300 C   0  0  0  0  0  0  0  0  0  0  0  0
  -27.6536  -27.7004   22.0111 C   0  0  0  0  0  0  0  0  0  0  0  0
  -23.5227   -7.1277   20.2816 C   0  0  0  0  0  0  0  0  0  0  0  0
  -25.0257  -13.9335   20.5374 C   0  0  0  0  0  0  0  0  0  0  0  0
  -27.6986  -23.1208   24.2044 C   0  0  0  0  0  0  0  0  0  0  0  0
  -23.9767  -16.1132   19.7274 C   0  0  0  0  0  0  0  0  0  0  0  0
  -28.0337  -29.6865   13.8315 C   0  0  0  0  0  0  0  0  0  0  0  0
  -26.7879  -27.1085   19.8294 C   0  0  0  0  0  0  0  0  0  0  0  0
  -28.2591  -29.6287   15.2201 C   0  0  0  0  0  0  0  0  0  0  0  0
  -26.7162  -27.8982   20.9858 C   0  0  0  0  0  0  0  0  0  0  0  0
  -27.4474  -22.2404   23.1520 C   0  0  0  0  0  0  0  0  0  0  0  0
  -28.9562  -23.7097   24.3360 C   0  0  0  0  0  0  0  0  0  0  0  0
  -28.4539  -21.9489   22.2313 C   0  0  0  0  0  0  0  0  0  0  0  0
  -24.9388  -11.3316   21.5400 C   0  0  0  0  0  0  0  0  0  0  0  0
  -28.6406  -26.7222   21.8933 C   0  0  0  0  0  0  0  0  0  0  0  0
  -23.9888   -9.1837   21.4618 C   0  0  0  0  0  0  0  0  0  0  0  0
  -22.1582   -7.4148   20.3204 C   0  0  0  0  0  0  0  0  0  0  0  0
  -24.4380   -8.0122   20.8523 C   0  0  0  0  0  0  0  0  0  0  0  0
  -25.0711  -15.2776   20.0202 C   0  0  0  0  0  0  0  0  0  0  0  0
  -24.5456  -17.2754   19.2668 C   0  0  0  0  0  0  0  0  0  0  0  0
  -29.1652  -24.2728   26.7655 C   0  0  0  0  0  0  0  0  0  0  0  0
  -25.7640  -24.3985   25.0045 C   0  0  0  0  0  0  0  0  0  0  0  0
  -26.6420  -23.4235   25.1676 C   0  0  0  0  0  0  0  0  0  0  0  0
  -22.5714  -15.8614   19.8599 C   0  0  0  0  0  0  0  0  0  0  0  0
  -26.0569  -29.7290   18.1855 C   0  0  0  0  0  0  0  0  0  0  0  0
  -23.4925  -29.7884   20.1711 C   0  0  0  0  0  0  0  0  0  0  0  0
  -22.1185  -28.8704   23.1571 C   0  0  0  0  0  0  0  0  0  0  0  0
  -29.1264  -20.6774   20.1631 C   0  0  0  0  0  0  0  0  0  0  0  0
  -26.9738  -30.5792   13.2363 C   0  0  0  0  0  0  0  0  0  0  0  0
  -25.7815  -27.2817   18.7251 C   0  0  0  0  0  0  0  0  0  0  0  0
  -25.6633  -28.9618   21.1558 C   0  0  0  0  0  0  0  0  0  0  0  0
  -29.8154  -25.3829   27.5502 C   0  0  0  0  0  0  0  0  0  0  0  0
  -25.9272  -31.0398   14.2476 C   0  0  0  0  0  0  0  0  0  0  0  0
  -29.7908  -26.5600   26.5987 C   0  0  0  0  0  0  0  0  0  0  0  0
  -28.9507  -18.4835   17.3643 C   0  0  0  0  0  0  0  0  0  0  0  0
  -26.5993  -31.5251   15.5280 C   0  0  0  0  0  0  0  0  0  0  0  0
  -27.8255  -17.5141   17.7336 C   0  0  0  0  0  0  0  0  0  0  0  0
  -29.7841  -18.8758   18.5830 C   0  0  0  0  0  0  0  0  0  0  0  0
  -27.8890  -18.4237   20.0907 C   0  0  0  0  0  0  0  0  0  0  0  0
  -27.3939  -30.3963   16.1960 C   0  0  1  0  0  0  0  0  0  0  0  0
  -25.1377  -28.6648   18.7149 C   0  0  1  0  0  0  0  0  0  0  0  0
  -26.9819  -18.0505   18.9067 C   0  0  2  0  0  0  0  0  0  0  0  0
  -29.8450  -25.9306   25.2062 C   0  0  2  0  0  0  0  0  0  0  0  0
  -25.2753  -22.2568   21.8998 C   0  0  0  0  0  0  0  0  0  0  0  0
  -20.0192  -29.0990   24.5128 C   0  0  0  0  0  0  0  0  0  0  0  0
  -24.2642  -32.6544   20.8783 C   0  0  0  0  0  0  0  0  0  0  0  0
  -22.7616  -32.4926   22.8744 C   0  0  0  0  0  0  0  0  0  0  0  0
  -21.8100  -32.2786   20.5784 C   0  0  0  0  0  0  0  0  0  0  0  0
  -21.6723  -25.9447   23.1734 C   0  0  0  0  0  0  0  0  0  0  0  0
  -26.1003  -21.6011   23.0002 C   0  0  0  0  0  0  0  0  0  0  0  0
  -29.1084  -26.8413   24.2220 C   0  0  0  0  0  0  0  0  0  1  0  0
  -23.2018  -30.3916   21.5240 C   0  0  1  0  0  0  0  0  0  0  0  0
  -20.7750  -28.2527   23.5002 C   0  0  2  0  0  0  0  0  0  0  0  0
  -23.0306  -31.9357   21.4600 C   0  0  0  0  0  0  0  0  0  0  0  0
  -26.2464  -15.8594   19.7668 N   0  0  0  0  0  0  0  0  0  0  0  0
  -25.8937  -17.0730   19.3098 N   0  0  0  0  0  0  0  0  0  0  0  0
  -29.2475  -24.6137   25.4006 N   0  0  0  0  0  0  0  0  0  0  0  0
  -24.7059  -29.0970   20.0456 N   0  0  0  0  0  0  0  0  0  0  0  0
  -28.9186  -19.3788   19.6519 N   0  0  0  0  0  0  0  0  0  0  0  0
  -24.0192  -18.4404   18.8332 N   0  0  0  0  0  0  0  0  0  0  0  0
  -22.1593  -14.6144   20.3491 N   0  0  0  0  0  0  0  0  0  0  0  0
  -28.2218  -21.0587   21.1535 N   0  0  0  0  0  0  0  0  0  0  0  0
  -26.5027  -29.4978   16.8981 N   0  0  0  0  0  0  0  0  0  0  0  0
  -22.0384  -29.6825   22.0457 N   0  0  0  0  0  0  0  0  0  0  0  0
  -20.9626  -26.8899   24.0734 N   0  3  0  0  0  0  0  0  0  0  0  0
  -28.7572  -23.2464   27.2913 O   0  0  0  0  0  0  0  0  0  0  0  0
  -21.7064  -16.7110   19.5380 O   0  0  0  0  0  0  0  0  0  0  0  0
  -26.3396  -30.6894   18.8921 O   0  0  0  0  0  0  0  0  0  0  0  0
  -22.6701  -29.9194   19.2611 O   0  0  0  0  0  0  0  0  0  0  0  0
  -23.1365  -28.6570   23.8119 O   0  0  0  0  0  0  0  0  0  0  0  0
  -30.0226  -21.4082   19.7334 O   0  0  0  0  0  0  0  0  0  0  0  0
  -24.8962  -10.0623   22.0295 O   0  0  0  0  0  0  0  0  0  0  0  0
  -29.5422  -26.5403   22.8963 O   0  0  0  0  0  0  0  0  0  1  0  0
  -21.2791   -6.5649   19.7738 F   0  0  0  0  0  0  0  0  0  0  0  0
  -25.7475   -7.7304   20.8128 F   0  0  0  0  0  0  0  0  0  0  0  0
  1  2  1  0  0  0  0
  1  5  2  0  0  0  0
  2  6  2  0  0  0  0
  3 10  2  0  0  0  0
  3 17  1  0  0  0  0
  4 11  1  0  0  0  0
  4 17  2  0  0  0  0
  5 20  1  0  0  0  0
  6 22  1  0  0  0  0
  7 12  2  0  0  0  0
  7 21  1  0  0  0  0
  8  9  1  0  0  0  0
  8 25  2  0  0  0  0
  9 26  2  0  0  0  0
 10 27  1  0  0  0  0
 11 27  2  0  0  0  0
 12 28  1  0  0  0  0
 13 14  2  0  0  0  0
 13 29  1  0  0  0  0
 14 30  1  0  0  0  0
 15 23  1  0  0  0  0
 15 28  2  0  0  0  0
 16 30  2  0  0  0  0
 16 31  1  0  0  0  0
 17 32  1  0  0  0  0
 18 24  2  0  0  0  0
 18 25  1  0  0  0  0
 18 36  1  0  0  0  0
 19 32  1  0  0  0  0
 19 33  2  0  0  0  0
 19 37  1  0  0  0  0
 20 22  2  0  0  0  0
 20 42  1  0  0  0  0
 21 23  2  0  0  0  0
 21 43  1  0  0  0  0
 22 53  1  0  0  0  0
 23 44  1  0  0  0  0
 24 26  1  0  0  0  0
 24 63  1  0  0  0  0
 25 70  1  0  0  0  0
 26 75  1  0  0  0  0
 27 85  1  0  0  0  0
 28 86  1  0  0  0  0
 29 31  2  0  0  0  0
 29 85  1  0  0  0  0
 30 87  1  0  0  0  0
 31 88  1  0  0  0  0
 32 68  2  0  0  0  0
 33 69  1  0  0  0  0
 33 73  1  0  0  0  0
 34 45  1  0  0  0  0
 34 70  1  0  0  0  0
 34 79  2  0  0  0  0
 35 36  2  0  0  0  0
 37 74  1  0  0  0  0
 37 80  2  0  0  0  0
 38 54  1  0  0  0  0
 38 76  1  0  0  0  0
 38 81  2  0  0  0  0
 39 65  1  0  0  0  0
 39 71  1  0  0  0  0
 39 82  2  0  0  0  0
 40 66  1  0  0  0  0
 40 77  1  0  0  0  0
 40 83  2  0  0  0  0
 41 72  1  0  0  0  0
 41 75  1  0  0  0  0
 41 84  2  0  0  0  0
 42 46  1  0  0  0  0
 43 54  1  0  0  0  0
 44 71  1  0  0  0  0
 45 47  1  0  0  0  0
 46 49  1  0  0  0  0
 47 56  1  0  0  0  0
 48 50  1  0  0  0  0
 48 51  1  0  0  0  0
 49 53  1  0  0  0  0
 50 55  1  0  0  0  0
 51 72  1  0  0  0  0
 52 55  1  0  0  0  0
 52 72  1  0  0  0  0
 53 76  1  0  0  0  0
 54 71  1  0  0  0  0
 55 69  1  0  0  0  0
 56 64  1  0  0  0  0
 56 70  1  0  0  0  0
 57 63  1  0  0  0  0
 58 66  1  0  0  0  0
 59 67  1  0  0  0  0
 60 67  1  0  0  0  0
 61 67  1  0  0  0  0
 62 78  1  0  0  0  0
 64 86  1  0  0  0  0
 65 67  1  0  0  0  0
 65 77  1  0  0  0  0
 66 78  1  0  0  0  0
 68 69  1  0  0  0  0
M  CHG  1  78   1
M  ISO  4  41 100  64 101  75 100  86 101
M  END
> <Batch ID>
0114

> <Smiles>
C=Cc1c(N2C(=O)CCC2[101CH2:1][101O:1]c2ccc3c(c2)CN(C(=O)C(NC(=O)C(C)NC)C(C)(C)C)C(C(=O)NC2CCCc4ccccc42)C3)ccc([100NH:0][100C:0](=O)N2CCCC(n3nc(-c4ccc(Oc5ccc(F)cc5F)cc4)c(C(N)=O)c3N)C2)c1CC

> <Shape>
0.213

> <Color>
0.070

> <Negative vol penalty>
0.000

$$$$

  -OEChem-04052301373D

 85 93  0     1  0  0  0  0  0999 V2000
  -27.2092  -38.2665   21.7213 C   0  0  0  0  0  0  0  0  0  0  0  0
  -27.7960  -37.0786   21.2972 C   0  0  0  0  0  0  0  0  0  0  0  0
  -24.4105   -8.4278   21.4003 C   0  0  0  0  0  0  0  0  0  0  0  0
  -23.9999  -10.2032   22.9867 C   0  0  0  0  0  0  0  0  0  0  0  0
  -28.8718  -20.1360   19.1345 C   0  0  0  0  0  0  0  0  0  0  0  0
  -26.2440  -38.2457   22.7272 C   0  0  0  0  0  0  0  0  0  0  0  0
  -27.4188  -35.8691   21.8798 C   0  0  0  0  0  0  0  0  0  0  0  0
  -27.0278  -30.4167   19.1187 C   0  0  0  0  0  0  0  0  0  0  0  0
  -29.0120  -18.7482   19.1317 C   0  0  0  0  0  0  0  0  0  0  0  0
  -23.9774   -7.4901   22.3376 C   0  0  0  0  0  0  0  0  0  0  0  0
  -23.5667   -9.2655   23.9240 C   0  0  0  0  0  0  0  0  0  0  0  0
  -27.8969  -29.3278   19.0653 C   0  0  0  0  0  0  0  0  0  0  0  0
  -21.0307   -6.3458   23.5379 C   0  0  0  0  0  0  0  0  0  0  0  0
  -20.1594   -5.3479   23.1015 C   0  0  0  0  0  0  0  0  0  0  0  0
  -26.5210  -19.8996   18.6294 C   0  0  0  0  0  0  0  0  0  0  0  0
  -26.6982  -28.2897   20.8832 C   0  0  0  0  0  0  0  0  0  0  0  0
  -21.7642   -3.6627   23.7509 C   0  0  0  0  0  0  0  0  0  0  0  0
  -24.4219   -9.7844   21.7248 C   0  0  0  0  0  0  0  0  0  0  0  0
  -27.6263  -20.7117   18.8834 C   0  0  0  0  0  0  0  0  0  0  0  0
  -24.0847  -11.4261   19.8016 C   0  0  0  0  0  0  0  0  0  0  0  0
  -25.8478  -37.0344   23.3156 C   0  0  0  0  0  0  0  0  0  0  0  0
  -25.9923  -30.4553   20.0635 C   0  0  0  0  0  0  0  0  0  0  0  0
  -26.4484  -35.8322   22.8955 C   0  0  0  0  0  0  0  0  0  0  0  0
  -25.8158  -29.3791   20.9448 C   0  0  0  0  0  0  0  0  0  0  0  0
  -27.9067  -17.9361   18.8778 C   0  0  0  0  0  0  0  0  0  0  0  0
  -23.5554   -7.9089   23.5995 C   0  0  0  0  0  0  0  0  0  0  0  0
  -27.7340  -28.2655   19.9496 C   0  0  0  0  0  0  0  0  0  0  0  0
  -22.2688   -6.0023   24.0807 C   0  0  0  0  0  0  0  0  0  0  0  0
  -26.6612  -18.5118   18.6266 C   0  0  0  0  0  0  0  0  0  0  0  0
  -20.5261   -4.0063   23.2080 C   0  0  0  0  0  0  0  0  0  0  0  0
  -22.6356   -4.6607   24.1873 C   0  0  0  0  0  0  0  0  0  0  0  0
  -24.8698  -10.7535   20.7572 C   0  0  0  0  0  0  0  0  0  0  0  0
  -24.9737  -12.2311   19.1321 C   0  0  0  0  0  0  0  0  0  0  0  0
  -27.4787  -22.1779   18.8864 C   0  0  0  0  0  0  0  0  0  0  0  0
  -28.4896  -23.0451   18.7356 C   0  0  0  0  0  0  0  0  0  0  0  0
  -22.6778  -11.3317   19.5423 C   0  0  0  0  0  0  0  0  0  0  0  0
  -28.2356  -24.5165   18.7635 C   0  0  0  0  0  0  0  0  0  0  0  0
  -25.2427  -32.3627   22.4932 C   0  0  0  0  0  0  0  0  0  0  0  0
  -22.5641  -30.5359   22.5931 C   0  0  0  0  0  0  0  0  0  0  0  0
  -21.0571  -27.5614   21.8662 C   0  0  0  0  0  0  0  0  0  0  0  0
  -29.2389  -15.8102   19.1061 C   0  0  0  0  0  0  0  0  0  0  0  0
  -24.8347  -37.0670   24.4325 C   0  0  0  0  0  0  0  0  0  0  0  0
  -25.0469  -31.6249   20.0905 C   0  0  0  0  0  0  0  0  0  0  0  0
  -24.7075  -29.3627   21.9645 C   0  0  0  0  0  0  0  0  0  0  0  0
  -24.2197  -35.7035   24.7371 C   0  0  0  0  0  0  0  0  0  0  0  0
  -30.0334  -12.3415   19.2255 C   0  0  0  0  0  0  0  0  0  0  0  0
  -25.3051  -34.6349   24.8203 C   0  0  0  0  0  0  0  0  0  0  0  0
  -28.6963  -11.6745   19.5561 C   0  0  0  0  0  0  0  0  0  0  0  0
  -30.1951  -13.6772   19.9492 C   0  0  0  0  0  0  0  0  0  0  0  0
  -27.7516  -13.9569   20.0902 C   0  0  0  0  0  0  0  0  0  0  0  0
  -26.0477  -34.4976   23.4857 C   0  0  1  0  0  0  0  0  0  0  0  0
  -24.3428  -31.7932   21.4333 C   0  0  1  0  0  0  0  0  0  0  0  0
  -27.5151  -12.6394   19.3339 C   0  0  2  0  0  0  0  0  0  0  0  0
  -18.8723  -26.3501   22.1040 C   0  0  0  0  0  0  0  0  0  0  0  0
  -23.1611  -30.0432   25.5445 C   0  0  0  0  0  0  0  0  0  0  0  0
  -21.5508  -28.1273   25.4787 C   0  0  0  0  0  0  0  0  0  0  0  0
  -20.7488  -30.4446   25.0210 C   0  0  0  0  0  0  0  0  0  0  0  0
  -20.7441  -27.3110   18.9340 C   0  0  0  0  0  0  0  0  0  0  0  0
  -24.7861  -17.3376   19.4991 C   0  0  0  0  0  0  0  0  0  0  0  0
  -29.4655  -25.3926   18.5811 C   0  0  0  0  0  0  0  0  0  0  0  0
  -29.1458  -26.8797   18.6297 C   0  0  0  0  0  0  0  0  0  1  0  0
  -22.1659  -29.2598   23.2947 C   0  0  1  0  0  0  0  0  0  0  0  0
  -19.7249  -27.2402   21.2132 C   0  0  2  0  0  0  0  0  0  0  0  0
  -21.9288  -29.4696   24.8169 C   0  0  0  0  0  0  0  0  0  0  0  0
  -26.1583  -11.1009   20.7028 N   0  0  0  0  0  0  0  0  0  0  0  0
  -26.1898  -12.0005   19.7048 N   0  0  0  0  0  0  0  0  0  0  0  0
  -23.8129  -30.5320   21.9557 N   0  0  0  0  0  0  0  0  0  0  0  0
  -29.0412  -14.5407   19.6892 N   0  0  0  0  0  0  0  0  0  0  0  0
  -24.8259  -13.1065   18.1151 N   0  0  0  0  0  0  0  0  0  0  0  0
  -21.9118  -10.4556   20.3234 N   0  0  0  0  0  0  0  0  0  0  0  0
  -28.0658  -16.5281   18.8761 N   0  0  0  0  0  0  0  0  0  0  0  0
  -25.2527  -33.7437   22.5402 N   0  0  0  0  0  0  0  0  0  0  0  0
  -21.0068  -28.7430   22.5751 N   0  0  0  0  0  0  0  0  0  0  0  0
  -19.9397  -26.5391   19.9158 N   0  3  0  0  0  0  0  0  0  0  0  0
  -22.1193  -11.9921   18.6338 O   0  0  0  0  0  0  0  0  0  0  0  0
  -27.1072  -24.9743   18.9219 O   0  0  0  0  0  0  0  0  0  0  0  0
  -25.8797  -31.6053   23.2159 O   0  0  0  0  0  0  0  0  0  0  0  0
  -21.7924  -31.4981   22.6040 O   0  0  0  0  0  0  0  0  0  0  0  0
  -22.0427  -26.8347   21.7614 O   0  0  0  0  0  0  0  0  0  0  0  0
  -30.3638  -16.2184   18.8060 O   0  0  0  0  0  0  0  0  0  0  0  0
  -23.1324   -6.9942   24.5143 O   0  0  0  0  0  0  0  0  0  0  0  0
  -25.5690  -17.7357   18.3758 O   0  0  0  0  0  0  0  0  0  0  0  0
  -28.5812  -27.2017   19.9001 O   0  0  0  0  0  0  0  0  0  1  0  0
  -19.6887   -3.0480   22.7903 F   0  0  0  0  0  0  0  0  0  0  0  0
  -23.8232   -4.3244   24.7090 F   0  0  0  0  0  0  0  0  0  0  0  0
  1  2  1  0  0  0  0
  1  6  2  0  0  0  0
  2  7  2  0  0  0  0
  3 10  2  0  0  0  0
  3 18  1  0  0  0  0
  4 11  1  0  0  0  0
  4 18  2  0  0  0  0
  5  9  2  0  0  0  0
  5 19  1  0  0  0  0
  6 21  1  0  0  0  0
  7 23  1  0  0  0  0
  8 12  2  0  0  0  0
  8 22  1  0  0  0  0
  9 25  1  0  0  0  0
 10 26  1  0  0  0  0
 11 26  2  0  0  0  0
 12 27  1  0  0  0  0
 13 14  2  0  0  0  0
 13 28  1  0  0  0  0
 14 30  1  0  0  0  0
 15 19  2  0  0  0  0
 15 29  1  0  0  0  0
 16 24  1  0  0  0  0
 16 27  2  0  0  0  0
 17 30  2  0  0  0  0
 17 31  1  0  0  0  0
 18 32  1  0  0  0  0
 19 34  1  0  0  0  0
 20 32  1  0  0  0  0
 20 33  2  0  0  0  0
 20 36  1  0  0  0  0
 21 23  2  0  0  0  0
 21 42  1  0  0  0  0
 22 24  2  0  0  0  0
 22 43  1  0  0  0  0
 23 51  1  0  0  0  0
 24 44  1  0  0  0  0
 25 29  2  0  0  0  0
 25 71  1  0  0  0  0
 26 81  1  0  0  0  0
 27 83  1  0  0  0  0
 28 31  2  0  0  0  0
 28 81  1  0  0  0  0
 29 82  1  0  0  0  0
 30 84  1  0  0  0  0
 31 85  1  0  0  0  0
 32 65  2  0  0  0  0
 33 66  1  0  0  0  0
 33 69  1  0  0  0  0
 34 35  2  0  0  0  0
 35 37  1  0  0  0  0
 36 70  1  0  0  0  0
 36 75  2  0  0  0  0
 37 60  1  0  0  0  0
 37 76  2  0  0  0  0
 38 52  1  0  0  0  0
 38 72  1  0  0  0  0
 38 77  2  0  0  0  0
 39 62  1  0  0  0  0
 39 67  1  0  0  0  0
 39 78  2  0  0  0  0
 40 63  1  0  0  0  0
 40 73  1  0  0  0  0
 40 79  2  0  0  0  0
 41 68  1  0  0  0  0
 41 71  1  0  0  0  0
 41 80  2  0  0  0  0
 42 45  1  0  0  0  0
 43 52  1  0  0  0  0
 44 67  1  0  0  0  0
 45 47  1  0  0  0  0
 46 48  1  0  0  0  0
 46 49  1  0  0  0  0
 47 51  1  0  0  0  0
 48 53  1  0  0  0  0
 49 68  1  0  0  0  0
 50 53  1  0  0  0  0
 50 68  1  0  0  0  0
 51 72  1  0  0  0  0
 52 67  1  0  0  0  0
 53 66  1  0  0  0  0
 54 63  1  0  0  0  0
 55 64  1  0  0  0  0
 56 64  1  0  0  0  0
 57 64  1  0  0  0  0
 58 74  1  0  0  0  0
 59 82  1  0  0  0  0
 60 61  1  0  0  0  0
 61 83  1  0  0  0  0
 62 64  1  0  0  0  0
 62 73  1  0  0  0  0
 63 74  1  0  0  0  0
 65 66  1  0  0  0  0
M  CHG  1  74   1
M  ISO  4  41 100  61 101  71 100  83 101
M  END
> <Batch ID>
0114

> <Smiles>
CNC(C)C(=O)NC(C(=O)N1Cc2cc([101O:1][101CH2:1]CC(=O)C=Cc3ccc([100NH:0][100C:0](=O)N4CCCC(n5nc(-c6ccc(Oc7ccc(F)cc7F)cc6)c(C(N)=O)c5N)C4)c(OC)c3)ccc2CC1C(=O)NC1CCCc2ccccc21)C(C)(C)C

> <Shape>
0.340

> <Color>
0.099

> <Negative vol penalty>
0.000

$$$$

  -OEChem-04052301373D

 93102  0     1  0  0  0  0  0999 V2000
  -31.6141  -25.4197   15.7805 C   0  0  0  0  0  0  0  0  0  0  0  0
  -30.3501  -25.0856   16.2560 C   0  0  0  0  0  0  0  0  0  0  0  0
  -24.4336   -9.2321   21.8075 C   0  0  0  0  0  0  0  0  0  0  0  0
  -22.8456  -10.0235   20.1677 C   0  0  0  0  0  0  0  0  0  0  0  0
  -32.4750  -26.1824   16.5687 C   0  0  0  0  0  0  0  0  0  0  0  0
  -29.9466  -25.5131   17.5205 C   0  0  0  0  0  0  0  0  0  0  0  0
  -25.2288  -27.3535   17.5352 C   0  0  0  0  0  0  0  0  0  0  0  0
  -23.6904   -8.0620   21.9626 C   0  0  0  0  0  0  0  0  0  0  0  0
  -22.1023   -8.8533   20.3228 C   0  0  0  0  0  0  0  0  0  0  0  0
  -24.1849  -26.4295   17.5224 C   0  0  0  0  0  0  0  0  0  0  0  0
  -22.0162   -5.0238   23.0535 C   0  0  0  0  0  0  0  0  0  0  0  0
  -21.7793   -4.5715   24.3515 C   0  0  0  0  0  0  0  0  0  0  0  0
  -23.9091  -26.7172   19.9016 C   0  0  0  0  0  0  0  0  0  0  0  0
  -21.3756  -19.1107   15.0866 C   0  0  0  0  0  0  0  0  0  0  0  0
  -21.9741  -19.1739   17.4264 C   0  0  0  0  0  0  0  0  0  0  0  0
  -22.0573  -17.0857   16.2142 C   0  0  0  0  0  0  0  0  0  0  0  0
  -20.6380   -6.6385   24.8635 C   0  0  0  0  0  0  0  0  0  0  0  0
  -24.0112  -10.2129   20.9101 C   0  0  0  0  0  0  0  0  0  0  0  0
  -26.1178  -11.5298   20.3307 C   0  0  0  0  0  0  0  0  0  0  0  0
  -32.0782  -26.6276   17.8395 C   0  0  0  0  0  0  0  0  0  0  0  0
  -25.6286  -27.9592   18.7351 C   0  0  0  0  0  0  0  0  0  0  0  0
  -30.8035  -26.2813   18.3269 C   0  0  0  0  0  0  0  0  0  0  0  0
  -24.9567  -27.6505   19.9265 C   0  0  0  0  0  0  0  0  0  0  0  0
  -21.5473  -19.8278   16.2706 C   0  0  0  0  0  0  0  0  0  0  0  0
  -21.6305  -17.7396   15.0584 C   0  0  0  0  0  0  0  0  0  0  0  0
  -22.2291  -17.8028   17.3982 C   0  0  0  0  0  0  0  0  0  0  0  0
  -22.5248   -7.8726   21.2203 C   0  0  0  0  0  0  0  0  0  0  0  0
  -23.5268  -26.1091   18.7062 C   0  0  0  0  0  0  0  0  0  0  0  0
  -21.5641   -6.2835   22.6604 C   0  0  0  0  0  0  0  0  0  0  0  0
  -21.0902   -5.3788   25.2565 C   0  0  0  0  0  0  0  0  0  0  0  0
  -20.8750   -7.0908   23.5654 C   0  0  0  0  0  0  0  0  0  0  0  0
  -24.7782  -11.4221   20.7498 C   0  0  0  0  0  0  0  0  0  0  0  0
  -26.3739  -12.8791   20.3427 C   0  0  0  0  0  0  0  0  0  0  0  0
  -24.9409  -22.6939   18.5085 C   0  0  0  0  0  0  0  0  0  0  0  0
  -23.8096  -23.2018   19.0486 C   0  0  0  0  0  0  0  0  0  0  0  0
  -22.7822  -23.9104   18.2583 C   0  0  0  0  0  0  0  0  0  1  0  0
  -22.1082  -23.4270   17.1870 C   0  0  0  0  0  0  0  0  0  0  0  0
  -25.4658  -22.6334   17.1093 C   0  0  0  0  0  0  0  0  0  0  0  0
  -23.3148  -16.5688   12.1345 C   0  0  0  0  0  0  0  0  0  0  0  0
  -22.7354  -16.3210   13.3152 C   0  0  0  0  0  0  0  0  0  0  0  0
  -27.0475  -10.5020   19.9634 C   0  0  0  0  0  0  0  0  0  0  0  0
  -28.3092  -28.0001   20.4428 C   0  0  0  0  0  0  0  0  0  0  0  0
  -26.6872  -30.1805   22.2140 C   0  0  0  0  0  0  0  0  0  0  0  0
  -23.3298  -30.5769   23.4742 C   0  0  0  0  0  0  0  0  0  0  0  0
  -22.8830  -17.7014   19.8289 C   0  0  0  0  0  0  0  0  0  0  0  0
  -33.0612  -27.4096   18.6743 C   0  0  0  0  0  0  0  0  0  0  0  0
  -26.7389  -28.9739   18.7277 C   0  0  0  0  0  0  0  0  0  0  0  0
  -25.3341  -28.2880   21.2378 C   0  0  0  0  0  0  0  0  0  0  0  0
  -24.6655  -23.1408   15.9325 C   0  0  0  0  0  0  0  0  0  0  0  0
  -32.4166  -28.1396   19.8498 C   0  0  0  0  0  0  0  0  0  0  0  0
  -25.0521  -16.9222   22.5428 C   0  0  0  0  0  0  0  0  0  0  0  0
  -31.4618  -27.2125   20.5952 C   0  0  0  0  0  0  0  0  0  0  0  0
  -25.3548  -15.4346   22.3494 C   0  0  0  0  0  0  0  0  0  0  0  0
  -23.6117  -17.2619   22.1636 C   0  0  0  0  0  0  0  0  0  0  0  0
  -23.5061  -15.3377   20.6289 C   0  0  0  0  0  0  0  0  0  0  0  0
  -23.4841  -22.2463   15.5639 C   0  0  0  0  0  0  0  0  0  0  0  0
  -30.3202  -26.7473   19.6832 C   0  0  1  0  0  0  0  0  0  0  0  0
  -27.4014  -29.1446   20.0912 C   0  0  1  0  0  0  0  0  0  0  0  0
  -24.9641  -14.9591   20.9363 C   0  0  2  0  0  0  0  0  0  0  0  0
  -21.0821  -24.2455   16.4405 C   0  0  0  0  0  0  0  0  0  0  0  0
  -20.3372  -15.9024   13.8822 C   0  0  0  0  0  0  0  0  0  0  0  0
  -22.0385  -32.6492   24.0531 C   0  0  0  0  0  0  0  0  0  0  0  0
  -27.7184  -29.6835   25.0424 C   0  0  0  0  0  0  0  0  0  0  0  0
  -25.4906  -30.4263   25.9103 C   0  0  0  0  0  0  0  0  0  0  0  0
  -26.9166  -32.0142   24.6189 C   0  0  0  0  0  0  0  0  0  0  0  0
  -21.1049  -29.8347   21.6692 C   0  0  0  0  0  0  0  0  0  0  0  0
  -21.2729  -21.3025   16.3008 C   0  0  0  0  0  0  0  0  0  0  0  0
  -21.4470  -16.9730   13.7923 C   0  0  1  0  0  0  0  0  0  0  0  0
  -25.7665  -30.1157   23.4086 C   0  0  1  0  0  0  0  0  0  0  0  0
  -22.2942  -31.5811   23.0012 C   0  0  2  0  0  0  0  0  0  0  0  0
  -26.4749  -30.5384   24.7265 C   0  0  0  0  0  0  0  0  0  0  0  0
  -24.2221  -12.6085   21.0093 N   0  0  0  0  0  0  0  0  0  0  0  0
  -25.2173  -13.4744   20.7526 N   0  0  0  0  0  0  0  0  0  0  0  0
  -26.4302  -29.2693   21.1799 N   0  0  0  0  0  0  0  0  0  0  0  0
  -23.3148  -16.7851   20.8111 N   0  0  0  0  0  0  0  0  0  0  0  0
  -27.4734  -13.6026   20.0426 N   0  0  0  0  0  0  0  0  0  0  0  0
  -27.1078  -10.1043   18.6208 N   0  0  0  0  0  0  0  0  0  0  0  0
  -22.6627  -17.1385   18.5723 N   0  0  0  0  0  0  0  0  0  0  0  0
  -29.3318  -27.7941   19.5365 N   0  0  0  0  0  0  0  0  0  0  0  0
  -24.6012  -30.9256   23.0702 N   0  0  0  0  0  0  0  0  0  0  0  0
  -22.4767  -22.1182   16.6849 N   0  3  2  0  0  0  0  0  0  0  0  0
  -21.0049  -30.8950   22.7049 N   0  3  0  0  0  0  0  0  0  0  0  0
  -23.4490  -23.1649   20.2609 O   0  5  0  0  0  0  0  0  0  0  0  0
  -26.5844  -22.1435   16.9303 O   0  0  0  0  0  0  0  0  0  0  0  0
  -27.7909   -9.9410   20.8038 O   0  0  0  0  0  0  0  0  0  0  0  0
  -28.0985  -27.3528   21.4618 O   0  0  0  0  0  0  0  0  0  0  0  0
  -27.5965  -31.0139   22.1959 O   0  0  0  0  0  0  0  0  0  0  0  0
  -23.0403  -29.5844   24.1388 O   0  0  0  0  0  0  0  0  0  0  0  0
  -22.7469  -18.9023   20.0769 O   0  0  0  0  0  0  0  0  0  0  0  0
  -21.7994   -6.7308   21.3712 O   0  0  0  0  0  0  0  0  0  0  0  0
  -22.5079  -25.2070   18.6966 O   0  0  0  0  0  0  0  0  0  1  0  0
  -20.8614   -4.9436   26.5025 F   0  0  0  0  0  0  0  0  0  0  0  0
  -20.4371   -8.3014   23.1933 F   0  0  0  0  0  0  0  0  0  0  0  0
  1  2  1  0  0  0  0
  1  5  2  0  0  0  0
  2  6  2  0  0  0  0
  3  8  2  0  0  0  0
  3 18  1  0  0  0  0
  4  9  1  0  0  0  0
  4 18  2  0  0  0  0
  5 20  1  0  0  0  0
  6 22  1  0  0  0  0
  7 10  2  0  0  0  0
  7 21  1  0  0  0  0
  8 27  1  0  0  0  0
  9 27  2  0  0  0  0
 10 28  1  0  0  0  0
 11 12  2  0  0  0  0
 11 29  1  0  0  0  0
 12 30  1  0  0  0  0
 13 23  1  0  0  0  0
 13 28  2  0  0  0  0
 14 24  2  0  0  0  0
 14 25  1  0  0  0  0
 15 24  1  0  0  0  0
 15 26  2  0  0  0  0
 16 25  2  0  0  0  0
 16 26  1  0  0  0  0
 17 30  2  0  0  0  0
 17 31  1  0  0  0  0
 18 32  1  0  0  0  0
 19 32  1  0  0  0  0
 19 33  2  0  0  0  0
 19 41  1  0  0  0  0
 20 22  2  0  0  0  0
 20 46  1  0  0  0  0
 21 23  2  0  0  0  0
 21 47  1  0  0  0  0
 22 57  1  0  0  0  0
 23 48  1  0  0  0  0
 24 67  1  0  0  0  0
 25 68  1  0  0  0  0
 26 78  1  0  0  0  0
 27 90  1  0  0  0  0
 28 91  1  0  0  0  0
 29 31  2  0  0  0  0
 29 90  1  0  0  0  0
 30 92  1  0  0  0  0
 31 93  1  0  0  0  0
 32 72  2  0  0  0  0
 33 73  1  0  0  0  0
 33 76  1  0  0  0  0
 34 35  2  0  0  0  0
 34 38  1  0  0  0  0
 35 36  1  0  0  0  0
 35 83  1  0  0  0  0
 36 37  2  0  0  0  0
 36 91  1  0  0  0  0
 37 60  1  0  0  0  0
 37 81  1  0  0  0  0
 38 49  1  0  0  0  0
 38 84  2  0  0  0  0
 39 40  2  0  0  0  0
 40 68  1  0  0  0  0
 41 77  1  0  0  0  0
 41 85  2  0  0  0  0
 42 58  1  0  0  0  0
 42 79  1  0  0  0  0
 42 86  2  0  0  0  0
 43 69  1  0  0  0  0
 43 74  1  0  0  0  0
 43 87  2  0  0  0  0
 44 70  1  0  0  0  0
 44 80  1  0  0  0  0
 44 88  2  0  0  0  0
 45 75  1  0  0  0  0
 45 78  1  0  0  0  0
 45 89  2  0  0  0  0
 46 50  1  0  0  0  0
 47 58  1  0  0  0  0
 48 74  1  0  0  0  0
 49 56  1  0  0  0  0
 50 52  1  0  0  0  0
 51 53  1  0  0  0  0
 51 54  1  0  0  0  0
 52 57  1  0  0  0  0
 53 59  1  0  0  0  0
 54 75  1  0  0  0  0
 55 59  1  0  0  0  0
 55 75  1  0  0  0  0
 56 81  1  0  0  0  0
 57 79  1  0  0  0  0
 58 74  1  0  0  0  0
 59 73  1  0  0  0  0
 61 68  1  0  0  0  0
 62 70  1  0  0  0  0
 63 71  1  0  0  0  0
 64 71  1  0  0  0  0
 65 71  1  0  0  0  0
 66 82  1  0  0  0  0
 67 81  1  0  0  0  0
 69 71  1  0  0  0  0
 69 80  1  0  0  0  0
 70 82  1  0  0  0  0
 72 73  1  0  0  0  0
M  CHG  3  81   1  82   1  83  -1
M  ISO  4  36 101  45 100  78 100  91 101
M  END
> <Batch ID>
0114

> <Smiles>
C=CC(C)c1cc(CN2CCC(=O)CC(=O)[101C:1]([101O:1]c3ccc4c(c3)CN(C(=O)C(NC(=O)C(C)NC)C(C)(C)C)C(C(=O)NC3CCCc5ccccc53)C4)=C2C)cc([100NH:0][100C:0](=O)N2CCCC(n3nc(-c4ccc(Oc5ccc(F)cc5F)cc4)c(C(N)=O)c3N)C2)c1

> <Shape>
0.254

> <Color>
0.096

> <Negative vol penalty>
0.000

$$$$

  -OEChem-04052301373D

 87 96  0     1  0  0  0  0  0999 V2000
  -14.1143  -29.2793   22.4216 C   0  0  0  0  0  0  0  0  0  0  0  0
  -14.6089  -28.7745   21.2243 C   0  0  0  0  0  0  0  0  0  0  0  0
  -22.5582  -10.3757   20.3581 C   0  0  0  0  0  0  0  0  0  0  0  0
  -24.2831   -9.5703   21.8457 C   0  0  0  0  0  0  0  0  0  0  0  0
  -14.9820  -29.5134   23.4863 C   0  0  0  0  0  0  0  0  0  0  0  0
  -15.9693  -28.4923   21.0953 C   0  0  0  0  0  0  0  0  0  0  0  0
  -23.4734  -25.4152   19.1924 C   0  0  0  0  0  0  0  0  0  0  0  0
  -21.8074   -9.2267   20.6065 C   0  0  0  0  0  0  0  0  0  0  0  0
  -23.5323   -8.4213   22.0942 C   0  0  0  0  0  0  0  0  0  0  0  0
  -24.6569  -25.2087   19.8999 C   0  0  0  0  0  0  0  0  0  0  0  0
  -19.7824   -8.0537   23.0470 C   0  0  0  0  0  0  0  0  0  0  0  0
  -18.4193   -8.2115   23.2972 C   0  0  0  0  0  0  0  0  0  0  0  0
  -23.3794  -24.4839   21.8135 C   0  0  0  0  0  0  0  0  0  0  0  0
  -17.9079   -6.8314   21.3812 C   0  0  0  0  0  0  0  0  0  0  0  0
  -29.2903  -17.5398   23.4001 C   0  0  0  0  0  0  0  0  0  0  0  0
  -23.7961  -10.5475   20.9777 C   0  0  0  0  0  0  0  0  0  0  0  0
  -29.6768  -17.8403   22.1125 C   0  0  0  0  0  0  0  0  0  0  0  0
  -24.1949  -13.0671   20.9697 C   0  0  0  0  0  0  0  0  0  0  0  0
  -16.3555  -29.2454   23.3652 C   0  0  0  0  0  0  0  0  0  0  0  0
  -22.2316  -25.1675   19.7948 C   0  0  0  0  0  0  0  0  0  0  0  0
  -16.8573  -28.6992   22.1664 C   0  0  0  0  0  0  0  0  0  0  0  0
  -22.1817  -24.6855   21.1106 C   0  0  0  0  0  0  0  0  0  0  0  0
  -29.5264  -19.2263   21.8182 C   0  0  0  0  0  0  0  0  0  0  0  0
  -22.2944   -8.2495   21.4746 C   0  0  0  0  0  0  0  0  0  0  0  0
  -24.6100  -24.7458   21.2116 C   0  0  0  0  0  0  0  0  0  0  0  0
  -20.2083   -7.2847   21.9640 C   0  0  0  0  0  0  0  0  0  0  0  0
  -17.4820   -7.6004   22.4643 C   0  0  0  0  0  0  0  0  0  0  0  0
  -19.2710   -6.6735   21.1311 C   0  0  0  0  0  0  0  0  0  0  0  0
  -24.5724  -11.7339   20.7210 C   0  0  0  0  0  0  0  0  0  0  0  0
  -25.2720  -13.8119   20.5553 C   0  0  0  0  0  0  0  0  0  0  0  0
  -29.0304  -19.9324   22.8921 C   0  0  0  0  0  0  0  0  0  0  0  0
  -27.8450  -23.3550   22.0012 C   0  0  0  0  0  0  0  0  0  0  0  0
  -27.8478  -22.0050   22.1210 C   0  0  0  0  0  0  0  0  0  0  0  0
  -28.8896  -24.1335   22.7479 C   0  0  0  0  0  0  0  0  0  0  0  0
  -30.1618  -16.8482   21.2235 C   0  0  0  0  0  0  0  0  0  0  0  0
  -30.2935  -15.5078   21.4836 C   0  0  0  0  0  0  0  0  0  0  0  0
  -22.9794  -13.5859   21.5257 C   0  0  0  0  0  0  0  0  0  0  0  0
  -30.8099  -14.5917   20.4407 C   0  0  0  0  0  0  0  0  0  0  0  0
  -19.6948  -26.9417   20.5164 C   0  0  0  0  0  0  0  0  0  0  0  0
  -18.4125  -24.0779   21.3394 C   0  0  0  0  0  0  0  0  0  0  0  0
  -19.5076  -21.0968   23.0513 C   0  0  0  0  0  0  0  0  0  0  0  0
  -17.2483  -29.5101   24.5518 C   0  0  0  0  0  0  0  0  0  0  0  0
  -20.9650  -25.3697   19.0092 C   0  0  0  0  0  0  0  0  0  0  0  0
  -20.8747  -24.3850   21.7962 C   0  0  0  0  0  0  0  0  0  0  0  0
  -29.9700  -23.3735   23.4788 C   0  0  0  0  0  0  0  0  0  0  0  0
  -18.7240  -29.6008   24.1770 C   0  0  0  0  0  0  0  0  0  0  0  0
  -29.3676  -12.5071   17.9048 C   0  0  0  0  0  0  0  0  0  0  0  0
  -19.1155  -28.4098   23.3151 C   0  0  0  0  0  0  0  0  0  0  0  0
  -27.9743  -12.1984   18.4519 C   0  0  0  0  0  0  0  0  0  0  0  0
  -29.4607  -22.0474   24.0157 C   0  0  0  0  0  0  0  0  0  0  0  0
  -30.3956  -12.6180   19.0261 C   0  0  0  0  0  0  0  0  0  0  0  0
  -28.6371  -13.3096   20.6316 C   0  0  0  0  0  0  0  0  0  0  0  0
  -18.3380  -28.4135   21.9928 C   0  0  1  0  0  0  0  0  0  0  0  0
  -19.7393  -25.5747   19.8941 C   0  0  1  0  0  0  0  0  0  0  0  0
  -27.5663  -13.2175   19.5306 C   0  0  2  0  0  0  0  0  0  0  0  0
  -26.7733  -21.1831   21.4357 C   0  0  0  0  0  0  0  0  0  0  0  0
  -18.7290  -18.7198   22.8486 C   0  0  0  0  0  0  0  0  0  0  0  0
  -16.5847  -24.7819   23.6789 C   0  0  0  0  0  0  0  0  0  0  0  0
  -17.0071  -22.4951   24.6065 C   0  0  0  0  0  0  0  0  0  0  0  0
  -15.8940  -22.7537   22.3891 C   0  0  0  0  0  0  0  0  0  0  0  0
  -22.2441  -20.1274   22.4758 C   0  0  0  0  0  0  0  0  0  0  0  0
  -26.9184  -24.1773   21.1508 C   0  0  0  0  0  0  0  0  0  1  0  0
  -18.3636  -23.2517   22.6019 C   0  0  1  0  0  0  0  0  0  0  0  0
  -19.7772  -19.7386   22.4291 C   0  0  2  0  0  0  0  0  0  0  0  0
  -16.9840  -23.3382   23.3137 C   0  0  0  0  0  0  0  0  0  0  0  0
  -25.7938  -11.6344   20.1897 N   0  0  0  0  0  0  0  0  0  0  0  0
  -26.1931  -12.9145   20.1010 N   0  0  0  0  0  0  0  0  0  0  0  0
  -28.7573  -21.3234   22.9509 N   0  0  0  0  0  0  0  0  0  0  0  0
  -29.9608  -13.5658   20.0501 N   0  0  0  0  0  0  0  0  0  0  0  0
  -19.6636  -24.6047   20.9884 N   0  0  0  0  0  0  0  0  0  0  0  0
  -29.8320  -19.7895   20.6221 N   0  0  0  0  0  0  0  0  0  0  0  0
  -25.5115  -15.1403   20.5388 N   0  0  0  0  0  0  0  0  0  0  0  0
  -21.9757  -12.6814   21.8983 N   0  0  0  0  0  0  0  0  0  0  0  0
  -18.5791  -27.1671   21.2999 N   0  0  0  0  0  0  0  0  0  0  0  0
  -18.7551  -21.8992   22.2200 N   0  0  0  0  0  0  0  0  0  0  0  0
  -21.1161  -19.2343   22.8461 N   0  3  0  0  0  0  0  0  0  0  0  0
  -28.8990  -25.3640   22.7200 O   0  0  0  0  0  0  0  0  0  0  0  0
  -22.7824  -14.8160   21.6720 O   0  0  0  0  0  0  0  0  0  0  0  0
  -31.9372  -14.8389   20.0329 O   0  0  0  0  0  0  0  0  0  0  0  0
  -20.6060  -27.7327   20.3028 O   0  0  0  0  0  0  0  0  0  0  0  0
  -17.3803  -24.2437   20.6847 O   0  0  0  0  0  0  0  0  0  0  0  0
  -19.9200  -21.4128   24.1652 O   0  0  0  0  0  0  0  0  0  0  0  0
  -21.5620   -7.1283   21.7174 O   0  0  0  0  0  0  0  0  0  0  0  0
  -25.7636  -24.5440   21.9046 O   0  0  0  0  0  0  0  0  0  1  0  0
  -16.1731   -7.7508   22.7055 F   0  0  0  0  0  0  0  0  0  0  0  0
  -19.6742   -5.9326   20.0898 F   0  0  0  0  0  0  0  0  0  0  0  0
  -28.7486  -18.9253   24.2482 S   0  0  0  0  0  0  0  0  0  0  0  0
  1  2  1  0  0  0  0
  1  5  2  0  0  0  0
  2  6  2  0  0  0  0
  3  8  2  0  0  0  0
  3 16  1  0  0  0  0
  4  9  1  0  0  0  0
  4 16  2  0  0  0  0
  5 19  1  0  0  0  0
  6 21  1  0  0  0  0
  7 10  2  0  0  0  0
  7 20  1  0  0  0  0
  8 24  1  0  0  0  0
  9 24  2  0  0  0  0
 10 25  1  0  0  0  0
 11 12  2  0  0  0  0
 11 26  1  0  0  0  0
 12 27  1  0  0  0  0
 13 22  1  0  0  0  0
 13 25  2  0  0  0  0
 14 27  2  0  0  0  0
 14 28  1  0  0  0  0
 15 17  2  0  0  0  0
 15 87  1  0  0  0  0
 16 29  1  0  0  0  0
 17 23  1  0  0  0  0
 17 35  1  0  0  0  0
 18 29  1  0  0  0  0
 18 30  2  0  0  0  0
 18 37  1  0  0  0  0
 19 21  2  0  0  0  0
 19 42  1  0  0  0  0
 20 22  2  0  0  0  0
 20 43  1  0  0  0  0
 21 53  1  0  0  0  0
 22 44  1  0  0  0  0
 23 31  2  0  0  0  0
 23 71  1  0  0  0  0
 24 83  1  0  0  0  0
 25 84  1  0  0  0  0
 26 28  2  0  0  0  0
 26 83  1  0  0  0  0
 27 85  1  0  0  0  0
 28 86  1  0  0  0  0
 29 66  2  0  0  0  0
 30 67  1  0  0  0  0
 30 72  1  0  0  0  0
 31 68  1  0  0  0  0
 31 87  1  0  0  0  0
 32 33  2  0  0  0  0
 32 34  1  0  0  0  0
 32 62  1  0  0  0  0
 33 56  1  0  0  0  0
 33 68  1  0  0  0  0
 34 45  1  0  0  0  0
 34 77  2  0  0  0  0
 35 36  2  0  0  0  0
 36 38  1  0  0  0  0
 37 73  1  0  0  0  0
 37 78  2  0  0  0  0
 38 69  1  0  0  0  0
 38 79  2  0  0  0  0
 39 54  1  0  0  0  0
 39 74  1  0  0  0  0
 39 80  2  0  0  0  0
 40 63  1  0  0  0  0
 40 70  1  0  0  0  0
 40 81  2  0  0  0  0
 41 64  1  0  0  0  0
 41 75  1  0  0  0  0
 41 82  2  0  0  0  0
 42 46  1  0  0  0  0
 43 54  1  0  0  0  0
 44 70  1  0  0  0  0
 45 50  1  0  0  0  0
 46 48  1  0  0  0  0
 47 49  1  0  0  0  0
 47 51  1  0  0  0  0
 48 53  1  0  0  0  0
 49 55  1  0  0  0  0
 50 68  1  0  0  0  0
 51 69  1  0  0  0  0
 52 55  1  0  0  0  0
 52 69  1  0  0  0  0
 53 74  1  0  0  0  0
 54 70  1  0  0  0  0
 55 67  1  0  0  0  0
 57 64  1  0  0  0  0
 58 65  1  0  0  0  0
 59 65  1  0  0  0  0
 60 65  1  0  0  0  0
 61 76  1  0  0  0  0
 62 84  1  0  0  0  0
 63 65  1  0  0  0  0
 63 75  1  0  0  0  0
 64 76  1  0  0  0  0
 66 67  1  0  0  0  0
M  CHG  1  76   1
M  ISO  4  36 100  38 100  62 101  84 101
M  END
> <Batch ID>
0114

> <Smiles>
CNC(C)C(=O)NC(C(=O)N1Cc2cc([101O:1][101CH2:1]C3=C(C)N(c4scc(C=[100CH:0][100C:0](=O)N5CCCC(n6nc(-c7ccc(Oc8ccc(F)cc8F)cc7)c(C(N)=O)c6N)C5)c4N)CCC3=O)ccc2CC1C(=O)NC1CCCc2ccccc21)C(C)(C)C

> <Shape>
0.232

> <Color>
0.208

> <Negative vol penalty>
0.000

$$$$

  -OEChem-04052301373D

 93102  0     1  0  0  0  0  0999 V2000
  -26.6116  -38.1633   22.9513 C   0  0  0  0  0  0  0  0  0  0  0  0
  -27.2366  -37.2527   22.1053 C   0  0  0  0  0  0  0  0  0  0  0  0
  -20.7779   -7.2248   21.4506 C   0  0  0  0  0  0  0  0  0  0  0  0
  -20.8440   -8.0070   19.1657 C   0  0  0  0  0  0  0  0  0  0  0  0
  -25.9093  -37.7085   24.0665 C   0  0  0  0  0  0  0  0  0  0  0  0
  -27.1605  -35.8867   22.3748 C   0  0  0  0  0  0  0  0  0  0  0  0
  -26.8901  -29.5471   19.0502 C   0  0  0  0  0  0  0  0  0  0  0  0
  -19.7565   -6.3356   21.1167 C   0  0  0  0  0  0  0  0  0  0  0  0
  -19.8225   -7.1178   18.8317 C   0  0  0  0  0  0  0  0  0  0  0  0
  -27.5266  -28.3067   19.0431 C   0  0  0  0  0  0  0  0  0  0  0  0
  -17.3796   -3.6050   20.7859 C   0  0  0  0  0  0  0  0  0  0  0  0
  -17.4742   -2.2988   21.2660 C   0  0  0  0  0  0  0  0  0  0  0  0
  -26.2190  -27.6315   20.9545 C   0  0  0  0  0  0  0  0  0  0  0  0
  -19.5639   -2.0167   20.0868 C   0  0  0  0  0  0  0  0  0  0  0  0
  -29.1934  -16.9176   19.2830 C   0  0  0  0  0  0  0  0  0  0  0  0
  -21.3217   -8.0606   20.4751 C   0  0  0  0  0  0  0  0  0  0  0  0
  -23.7626   -8.7377   20.7766 C   0  0  0  0  0  0  0  0  0  0  0  0
  -25.8164  -36.3356   24.3444 C   0  0  0  0  0  0  0  0  0  0  0  0
  -25.9195  -29.8435   20.0179 C   0  0  0  0  0  0  0  0  0  0  0  0
  -26.4573  -35.4132   23.4956 C   0  0  0  0  0  0  0  0  0  0  0  0
  -25.5699  -28.8755   20.9702 C   0  0  0  0  0  0  0  0  0  0  0  0
  -26.8886  -15.6413   19.9935 C   0  0  0  0  0  0  0  0  0  0  0  0
  -19.2788   -6.2821   19.8073 C   0  0  0  0  0  0  0  0  0  0  0  0
  -27.1931  -27.3497   19.9971 C   0  0  0  0  0  0  0  0  0  0  0  0
  -18.3772   -4.1171   19.9562 C   0  0  0  0  0  0  0  0  0  0  0  0
  -28.2633  -17.6143   20.0375 C   0  0  0  0  0  0  0  0  0  0  0  0
  -18.5663   -1.5047   20.9165 C   0  0  0  0  0  0  0  0  0  0  0  0
  -19.4693   -3.3229   19.6067 C   0  0  0  0  0  0  0  0  0  0  0  0
  -27.0916  -16.9569   20.3953 C   0  0  0  0  0  0  0  0  0  0  0  0
  -22.3765   -8.9797   20.8195 C   0  0  0  0  0  0  0  0  0  0  0  0
  -27.8802  -15.0329   19.2409 C   0  0  0  0  0  0  0  0  0  0  0  0
  -24.3301   -9.9163   21.1955 C   0  0  0  0  0  0  0  0  0  0  0  0
  -28.9597  -23.4048   18.5743 C   0  0  0  0  0  0  0  0  0  0  0  0
  -29.4063  -24.5452   19.1519 C   0  0  0  0  0  0  0  0  0  0  0  0
  -26.7207  -24.0657   17.9862 C   0  0  0  0  0  0  0  0  0  0  0  0
  -27.7447  -13.6573   18.7794 C   0  0  0  0  0  0  0  0  0  0  0  0
  -27.8084  -23.3394   17.6959 C   0  0  0  0  0  0  0  0  0  0  0  0
  -28.7611  -12.7986   18.5468 C   0  0  0  0  0  0  0  0  0  0  0  0
  -24.4737   -7.5535   20.3922 C   0  0  0  0  0  0  0  0  0  0  0  0
  -25.6520  -31.9969   22.3406 C   0  0  0  0  0  0  0  0  0  0  0  0
  -22.6736  -30.7445   22.6275 C   0  0  0  0  0  0  0  0  0  0  0  0
  -20.5866  -28.0902   22.1314 C   0  0  0  0  0  0  0  0  0  0  0  0
  -24.6369  -15.4752   21.1109 C   0  0  0  0  0  0  0  0  0  0  0  0
  -25.0859  -35.8945   25.5880 C   0  0  0  0  0  0  0  0  0  0  0  0
  -25.2231  -31.1765   19.9956 C   0  0  0  0  0  0  0  0  0  0  0  0
  -24.5199  -29.1368   22.0180 C   0  0  0  0  0  0  0  0  0  0  0  0
  -30.6311  -24.5681   20.0472 C   0  0  0  0  0  0  0  0  0  0  0  0
  -24.7375  -34.4083   25.5949 C   0  0  0  0  0  0  0  0  0  0  0  0
  -31.1693  -23.1988   20.4499 C   0  0  0  0  0  0  0  0  0  0  0  0
  -22.2348  -14.0168   23.2972 C   0  0  0  0  0  0  0  0  0  0  0  0
  -25.9428  -33.5755   25.1701 C   0  0  0  0  0  0  0  0  0  0  0  0
  -31.1065  -22.2289   19.2810 C   0  0  0  0  0  0  0  0  0  0  0  0
  -22.1715  -12.5564   22.8440 C   0  0  0  0  0  0  0  0  0  0  0  0
  -22.4220  -14.9692   22.1175 C   0  0  0  0  0  0  0  0  0  0  0  0
  -23.4933  -13.1943   20.7866 C   0  0  0  0  0  0  0  0  0  0  0  0
  -26.3766  -33.9220   23.7406 C   0  0  1  0  0  0  0  0  0  0  0  0
  -29.6668  -22.0654   18.7651 C   0  0  1  0  0  0  0  0  0  0  0  0
  -24.6178  -31.5570   21.3433 C   0  0  1  0  0  0  0  0  0  0  0  0
  -23.3704  -12.1925   21.9463 C   0  0  2  0  0  0  0  0  0  0  0  0
  -28.5750  -11.3967   18.0642 C   0  0  0  0  0  0  0  0  0  0  0  0
  -18.2177  -27.3504   22.5036 C   0  0  0  0  0  0  0  0  0  0  0  0
  -23.2760  -30.3127   25.5873 C   0  0  0  0  0  0  0  0  0  0  0  0
  -21.3204  -28.7525   25.6862 C   0  0  0  0  0  0  0  0  0  0  0  0
  -20.9706  -31.1527   25.1037 C   0  0  0  0  0  0  0  0  0  0  0  0
  -20.1178  -27.7398   19.2303 C   0  0  0  0  0  0  0  0  0  0  0  0
  -28.7958  -25.9153   18.9822 C   0  0  0  0  0  0  0  0  0  1  0  0
  -28.8573  -21.1474   19.6938 C   0  0  0  0  0  0  0  0  0  0  0  0
  -29.2897  -19.7033   19.5493 C   0  0  0  0  0  0  0  0  0  0  0  0
  -22.0606  -29.6146   23.4190 C   0  0  1  0  0  0  0  0  0  0  0  0
  -19.1931  -28.0021   21.5357 C   0  0  2  0  0  0  0  0  0  0  0  0
  -21.9281  -29.9536   24.9306 C   0  0  0  0  0  0  0  0  0  0  0  0
  -29.0315  -15.6392   18.8740 N   0  0  0  0  0  0  0  0  0  0  0  0
  -22.0813  -10.2149   21.2333 N   0  0  0  0  0  0  0  0  0  0  0  0
  -23.2898  -10.7596   21.4542 N   0  0  0  0  0  0  0  0  0  0  0  0
  -23.8719  -30.4574   21.9586 N   0  0  0  0  0  0  0  0  0  0  0  0
  -23.5783  -14.5649   21.3147 N   0  0  0  0  0  0  0  0  0  0  0  0
  -25.6124  -10.3031   21.3643 N   0  0  0  0  0  0  0  0  0  0  0  0
  -23.7358   -6.4327   19.9880 N   0  0  0  0  0  0  0  0  0  0  0  0
  -25.6964  -14.9684   20.3591 N   0  0  0  0  0  0  0  0  0  0  0  0
  -25.4933  -33.2977   22.7791 N   0  0  0  0  0  0  0  0  0  0  0  0
  -20.7959  -29.2969   22.7648 N   0  0  0  0  0  0  0  0  0  0  0  0
  -19.2163  -27.1995   20.2802 N   0  3  0  0  0  0  0  0  0  0  0  0
  -25.7259   -7.4858   20.4225 O   0  0  0  0  0  0  0  0  0  0  0  0
  -26.5283  -31.2137   22.6877 O   0  0  0  0  0  0  0  0  0  0  0  0
  -22.1062  -31.8394   22.5977 O   0  0  0  0  0  0  0  0  0  0  0  0
  -21.4061  -27.1782   22.0468 O   0  0  0  0  0  0  0  0  0  0  0  0
  -24.6180  -16.6109   21.5925 O   0  0  0  0  0  0  0  0  0  0  0  0
  -18.2822   -5.4143   19.4810 O   0  0  0  0  0  0  0  0  0  0  0  0
  -27.8133  -26.1384   19.9928 O   0  0  0  0  0  0  0  0  0  1  0  0
  -28.4912  -18.9114   20.4177 O   0  0  0  0  0  0  0  0  0  0  0  0
  -18.6578   -0.2509   21.3788 F   0  0  0  0  0  0  0  0  0  0  0  0
  -20.4314   -3.8097   18.8109 F   0  0  0  0  0  0  0  0  0  0  0  0
  -26.1645  -17.5948   21.1250 F   0  0  0  0  0  0  0  0  0  0  0  0
  1  2  1  0  0  0  0
  1  5  2  0  0  0  0
  2  6  2  0  0  0  0
  3  8  2  0  0  0  0
  3 16  1  0  0  0  0
  4  9  1  0  0  0  0
  4 16  2  0  0  0  0
  5 18  1  0  0  0  0
  6 20  1  0  0  0  0
  7 10  2  0  0  0  0
  7 19  1  0  0  0  0
  8 23  1  0  0  0  0
  9 23  2  0  0  0  0
 10 24  1  0  0  0  0
 11 12  2  0  0  0  0
 11 25  1  0  0  0  0
 12 27  1  0  0  0  0
 13 21  1  0  0  0  0
 13 24  2  0  0  0  0
 14 27  2  0  0  0  0
 14 28  1  0  0  0  0
 15 26  1  0  0  0  0
 15 72  2  0  0  0  0
 16 30  1  0  0  0  0
 17 30  1  0  0  0  0
 17 32  2  0  0  0  0
 17 39  1  0  0  0  0
 18 20  2  0  0  0  0
 18 44  1  0  0  0  0
 19 21  2  0  0  0  0
 19 45  1  0  0  0  0
 20 56  1  0  0  0  0
 21 46  1  0  0  0  0
 22 29  1  0  0  0  0
 22 31  2  0  0  0  0
 22 79  1  0  0  0  0
 23 88  1  0  0  0  0
 24 89  1  0  0  0  0
 25 28  2  0  0  0  0
 25 88  1  0  0  0  0
 26 29  2  0  0  0  0
 26 90  1  0  0  0  0
 27 91  1  0  0  0  0
 28 92  1  0  0  0  0
 29 93  1  0  0  0  0
 30 73  2  0  0  0  0
 31 36  1  0  0  0  0
 31 72  1  0  0  0  0
 32 74  1  0  0  0  0
 32 77  1  0  0  0  0
 33 34  2  0  0  0  0
 33 37  1  0  0  0  0
 33 57  1  0  0  0  0
 34 47  1  0  0  0  0
 34 66  1  0  0  0  0
 35 37  2  0  0  0  0
 36 38  2  0  0  0  0
 38 60  1  0  0  0  0
 39 78  1  0  0  0  0
 39 83  2  0  0  0  0
 40 58  1  0  0  0  0
 40 80  1  0  0  0  0
 40 84  2  0  0  0  0
 41 69  1  0  0  0  0
 41 75  1  0  0  0  0
 41 85  2  0  0  0  0
 42 70  1  0  0  0  0
 42 81  1  0  0  0  0
 42 86  2  0  0  0  0
 43 76  1  0  0  0  0
 43 79  1  0  0  0  0
 43 87  2  0  0  0  0
 44 48  1  0  0  0  0
 45 58  1  0  0  0  0
 46 75  1  0  0  0  0
 47 49  1  0  0  0  0
 48 51  1  0  0  0  0
 49 52  1  0  0  0  0
 50 53  1  0  0  0  0
 50 54  1  0  0  0  0
 51 56  1  0  0  0  0
 52 57  1  0  0  0  0
 53 59  1  0  0  0  0
 54 76  1  0  0  0  0
 55 59  1  0  0  0  0
 55 76  1  0  0  0  0
 56 80  1  0  0  0  0
 57 67  1  0  0  0  0
 58 75  1  0  0  0  0
 59 74  1  0  0  0  0
 61 70  1  0  0  0  0
 62 71  1  0  0  0  0
 63 71  1  0  0  0  0
 64 71  1  0  0  0  0
 65 82  1  0  0  0  0
 66 89  1  0  0  0  0
 67 68  1  0  0  0  0
 68 90  1  0  0  0  0
 69 71  1  0  0  0  0
 69 81  1  0  0  0  0
 70 82  1  0  0  0  0
 73 74  1  0  0  0  0
M  CHG  1  82   1
M  ISO  4  43 100  66 101  79 100  89 101
M  END
> <Batch ID>
0114

> <Smiles>
C=CC1=C([101CH2:1][101O:1]c2ccc3c(c2)CN(C(=O)C(NC(=O)C(C)NC)C(C)(C)C)C(C(=O)NC2CCCc4ccccc42)C3)CCCC1CCOc1cnc(C=CC)c([100NH:0][100C:0](=O)N2CCCC(n3nc(-c4ccc(Oc5ccc(F)cc5F)cc4)c(C(N)=O)c3N)C2)c1F

> <Shape>
0.333

> <Color>
0.085

> <Negative vol penalty>
0.000

$$$$

  -OEChem-04052301373D

 86 94  0     1  0  0  0  0  0999 V2000
  -37.1550  -22.3617   16.7127 C   0  0  0  0  0  0  0  0  0  0  0  0
  -36.0128  -21.7090   17.1652 C   0  0  0  0  0  0  0  0  0  0  0  0
  -23.3090   -9.7598   20.0330 C   0  0  0  0  0  0  0  0  0  0  0  0
  -24.0221   -9.9601   22.3326 C   0  0  0  0  0  0  0  0  0  0  0  0
  -37.3152  -23.7268   16.9467 C   0  0  0  0  0  0  0  0  0  0  0  0
  -35.0306  -22.4208   17.8530 C   0  0  0  0  0  0  0  0  0  0  0  0
  -28.9809  -21.4926   17.6383 C   0  0  0  0  0  0  0  0  0  0  0  0
  -22.6811   -8.5509   20.3330 C   0  0  0  0  0  0  0  0  0  0  0  0
  -23.3942   -8.7512   22.6327 C   0  0  0  0  0  0  0  0  0  0  0  0
  -28.1056  -20.8131   18.4844 C   0  0  0  0  0  0  0  0  0  0  0  0
  -20.2529   -7.6599   23.2337 C   0  0  0  0  0  0  0  0  0  0  0  0
  -19.4825   -7.6022   24.3950 C   0  0  0  0  0  0  0  0  0  0  0  0
  -31.8330  -17.9683   21.7212 C   0  0  0  0  0  0  0  0  0  0  0  0
  -27.5644  -22.8912   19.5834 C   0  0  0  0  0  0  0  0  0  0  0  0
  -29.7452  -17.8704   22.9331 C   0  0  0  0  0  0  0  0  0  0  0  0
  -20.8998   -5.8411   25.2477 C   0  0  0  0  0  0  0  0  0  0  0  0
  -23.9795  -10.4644   21.0328 C   0  0  0  0  0  0  0  0  0  0  0  0
  -31.5796  -19.2999   21.3922 C   0  0  0  0  0  0  0  0  0  0  0  0
  -24.0663  -13.0019   20.7858 C   0  0  0  0  0  0  0  0  0  0  0  0
  -36.3300  -24.4577   17.6292 C   0  0  0  0  0  0  0  0  0  0  0  0
  -29.1631  -22.8771   17.7658 C   0  0  0  0  0  0  0  0  0  0  0  0
  -35.1784  -23.7967   18.0975 C   0  0  0  0  0  0  0  0  0  0  0  0
  -28.4407  -23.5863   18.7360 C   0  0  0  0  0  0  0  0  0  0  0  0
  -30.9158  -17.2535   22.4916 C   0  0  0  0  0  0  0  0  0  0  0  0
  -22.7237   -8.0466   21.6328 C   0  0  0  0  0  0  0  0  0  0  0  0
  -27.3994  -21.5119   19.4591 C   0  0  0  0  0  0  0  0  0  0  0  0
  -21.3467   -6.8081   23.0792 C   0  0  0  0  0  0  0  0  0  0  0  0
  -29.4918  -19.2021   22.6041 C   0  0  0  0  0  0  0  0  0  0  0  0
  -30.4091  -19.9168   21.8336 C   0  0  0  0  0  0  0  0  0  0  0  0
  -19.8060   -6.6929   25.4021 C   0  0  0  0  0  0  0  0  0  0  0  0
  -21.6702   -5.8988   24.0863 C   0  0  0  0  0  0  0  0  0  0  0  0
  -24.6288  -11.7129   20.7234 C   0  0  0  0  0  0  0  0  0  0  0  0
  -25.0835  -13.8395   20.3982 C   0  0  0  0  0  0  0  0  0  0  0  0
  -33.8194  -20.1916   20.9410 C   0  0  0  0  0  0  0  0  0  0  0  0
  -32.5542  -20.0237   20.5866 C   0  0  0  0  0  0  0  0  0  0  0  0
  -22.7427  -13.4060   21.1606 C   0  0  0  0  0  0  0  0  0  0  0  0
  -31.6292  -24.7614   18.4523 C   0  0  0  0  0  0  0  0  0  0  0  0
  -29.5173  -27.1236   17.7579 C   0  0  0  0  0  0  0  0  0  0  0  0
  -26.2627  -28.1218   17.5183 C   0  0  0  0  0  0  0  0  0  0  0  0
  -30.8281  -14.3993   20.8463 C   0  0  0  0  0  0  0  0  0  0  0  0
  -36.5694  -25.9220   17.8998 C   0  0  0  0  0  0  0  0  0  0  0  0
  -30.0908  -23.5995   16.8277 C   0  0  0  0  0  0  0  0  0  0  0  0
  -28.5852  -25.0764   18.9005 C   0  0  0  0  0  0  0  0  0  0  0  0
  -35.3089  -26.6800   18.3083 C   0  0  0  0  0  0  0  0  0  0  0  0
  -29.2787  -13.2762   17.8438 C   0  0  0  0  0  0  0  0  0  0  0  0
  -34.5362  -25.8996   19.3669 C   0  0  0  0  0  0  0  0  0  0  0  0
  -27.8694  -12.8784   18.2861 C   0  0  0  0  0  0  0  0  0  0  0  0
  -30.3202  -12.9412   18.9092 C   0  0  0  0  0  0  0  0  0  0  0  0
  -28.6242  -13.0895   20.6912 C   0  0  0  0  0  0  0  0  0  0  0  0
  -34.0792  -24.5395   18.8256 C   0  0  1  0  0  0  0  0  0  0  0  0
  -30.5859  -24.9308   17.3844 C   0  0  1  0  0  0  0  0  0  0  0  0
  -27.5321  -13.4588   19.6727 C   0  0  2  0  0  0  0  0  0  0  0  0
  -24.8512  -30.1211   16.9631 C   0  0  0  0  0  0  0  0  0  0  0  0
  -30.1757  -28.3405   20.4773 C   0  0  0  0  0  0  0  0  0  0  0  0
  -28.1077  -29.7372   20.2751 C   0  0  0  0  0  0  0  0  0  0  0  0
  -29.9542  -29.9988   18.6184 C   0  0  0  0  0  0  0  0  0  0  0  0
  -24.9731  -26.7264   15.2492 C   0  0  0  0  0  0  0  0  0  0  0  0
  -30.6209  -22.2098   22.4277 C   0  0  0  0  0  0  0  0  0  0  0  0
  -31.1863  -15.8296   22.8426 C   0  0  0  0  0  0  0  0  0  0  0  0
  -26.0245  -20.2686   22.5696 C   0  0  0  0  0  0  0  0  0  0  0  0
  -26.3653  -21.3868   21.5971 C   0  0  0  0  0  0  0  0  0  1  0  0
  -27.1137  -19.2089   22.6223 C   0  0  0  0  0  0  0  0  0  0  0  0
  -28.5108  -27.9242   18.5484 C   0  0  1  0  0  0  0  0  0  0  0  0
  -25.5142  -28.8627   16.4249 C   0  0  2  0  0  0  0  0  0  0  0  0
  -29.1856  -28.9718   19.4782 C   0  0  0  0  0  0  0  0  0  0  0  0
  -25.9043  -11.7255   20.3273 N   0  0  0  0  0  0  0  0  0  0  0  0
  -26.1517  -13.0327   20.1371 N   0  0  0  0  0  0  0  0  0  0  0  0
  -29.5091  -25.7367   17.9635 N   0  0  0  0  0  0  0  0  0  0  0  0
  -29.9419  -13.5221   20.1996 N   0  0  0  0  0  0  0  0  0  0  0  0
  -25.1594  -15.1801   20.2586 N   0  0  0  0  0  0  0  0  0  0  0  0
  -21.8219  -12.4166   21.5315 N   0  0  0  0  0  0  0  0  0  0  0  0
  -32.9227  -24.6987   17.9702 N   0  0  0  0  0  0  0  0  0  0  0  0
  -27.5885  -28.4966   17.5737 N   0  0  0  0  0  0  0  0  0  0  0  0
  -30.3892  -14.9099   22.0618 N   0  0  0  0  0  0  0  0  0  0  0  0
  -24.4587  -27.9901   15.8370 N   0  3  0  0  0  0  0  0  0  0  0  0
  -22.3821  -14.6074   21.1506 O   0  0  0  0  0  0  0  0  0  0  0  0
  -31.2863  -24.6941   19.6269 O   0  0  0  0  0  0  0  0  0  0  0  0
  -30.2779  -27.7064   16.9810 O   0  0  0  0  0  0  0  0  0  0  0  0
  -25.7242  -27.2962   18.2523 O   0  0  0  0  0  0  0  0  0  0  0  0
  -31.9266  -14.7090   20.3727 O   0  0  0  0  0  0  0  0  0  0  0  0
  -22.1110   -6.8672   21.9260 O   0  0  0  0  0  0  0  0  0  0  0  0
  -30.1481  -21.2190   21.5191 O   0  0  0  0  0  0  0  0  0  0  0  0
  -26.5449  -20.8511   20.2867 O   0  0  0  0  0  0  0  0  0  1  0  0
  -28.3375  -19.7955   23.0444 O   0  0  0  0  0  0  0  0  0  0  0  0
  -19.0671   -6.6386   26.5180 F   0  0  0  0  0  0  0  0  0  0  0  0
  -22.7205   -5.0788   23.9441 F   0  0  0  0  0  0  0  0  0  0  0  0
  1  2  1  0  0  0  0
  1  5  2  0  0  0  0
  2  6  2  0  0  0  0
  3  8  2  0  0  0  0
  3 17  1  0  0  0  0
  4  9  1  0  0  0  0
  4 17  2  0  0  0  0
  5 20  1  0  0  0  0
  6 22  1  0  0  0  0
  7 10  2  0  0  0  0
  7 21  1  0  0  0  0
  8 25  1  0  0  0  0
  9 25  2  0  0  0  0
 10 26  1  0  0  0  0
 11 12  2  0  0  0  0
 11 27  1  0  0  0  0
 12 30  1  0  0  0  0
 13 18  1  0  0  0  0
 13 24  2  0  0  0  0
 14 23  1  0  0  0  0
 14 26  2  0  0  0  0
 15 24  1  0  0  0  0
 15 28  2  0  0  0  0
 16 30  2  0  0  0  0
 16 31  1  0  0  0  0
 17 32  1  0  0  0  0
 18 29  2  0  0  0  0
 18 35  1  0  0  0  0
 19 32  1  0  0  0  0
 19 33  2  0  0  0  0
 19 36  1  0  0  0  0
 20 22  2  0  0  0  0
 20 41  1  0  0  0  0
 21 23  2  0  0  0  0
 21 42  1  0  0  0  0
 22 50  1  0  0  0  0
 23 43  1  0  0  0  0
 24 59  1  0  0  0  0
 25 81  1  0  0  0  0
 26 83  1  0  0  0  0
 27 31  2  0  0  0  0
 27 81  1  0  0  0  0
 28 29  1  0  0  0  0
 28 84  1  0  0  0  0
 29 82  1  0  0  0  0
 30 85  1  0  0  0  0
 31 86  1  0  0  0  0
 32 66  2  0  0  0  0
 33 67  1  0  0  0  0
 33 70  1  0  0  0  0
 34 35  2  0  0  0  0
 36 71  1  0  0  0  0
 36 76  2  0  0  0  0
 37 51  1  0  0  0  0
 37 72  1  0  0  0  0
 37 77  2  0  0  0  0
 38 63  1  0  0  0  0
 38 68  1  0  0  0  0
 38 78  2  0  0  0  0
 39 64  1  0  0  0  0
 39 73  1  0  0  0  0
 39 79  2  0  0  0  0
 40 69  1  0  0  0  0
 40 74  1  0  0  0  0
 40 80  2  0  0  0  0
 41 44  1  0  0  0  0
 42 51  1  0  0  0  0
 43 68  1  0  0  0  0
 44 46  1  0  0  0  0
 45 47  1  0  0  0  0
 45 48  1  0  0  0  0
 46 50  1  0  0  0  0
 47 52  1  0  0  0  0
 48 69  1  0  0  0  0
 49 52  1  0  0  0  0
 49 69  1  0  0  0  0
 50 72  1  0  0  0  0
 51 68  1  0  0  0  0
 52 67  1  0  0  0  0
 53 64  1  0  0  0  0
 54 65  1  0  0  0  0
 55 65  1  0  0  0  0
 56 65  1  0  0  0  0
 57 75  1  0  0  0  0
 58 82  1  0  0  0  0
 59 74  1  0  0  0  0
 60 61  1  0  0  0  0
 60 62  1  0  0  0  0
 61 83  1  0  0  0  0
 62 84  1  0  0  0  0
 63 65  1  0  0  0  0
 63 73  1  0  0  0  0
 64 75  1  0  0  0  0
 66 67  1  0  0  0  0
M  CHG  1  75   1
M  ISO  4  40 100  61 101  74 100  83 101
M  END
> <Batch ID>
0114

> <Smiles>
C=Cc1cc(C[100NH:0][100C:0](=O)N2CCCC(n3nc(-c4ccc(Oc5ccc(F)cc5F)cc4)c(C(N)=O)c3N)C2)cc(OCC[101CH2:1][101O:1]c2ccc3c(c2)CN(C(=O)C(NC(=O)C(C)NC)C(C)(C)C)C(C(=O)NC2CCCc4ccccc42)C3)c1OC

> <Shape>
0.256

> <Color>
0.186

> <Negative vol penalty>
0.000

$$$$

  -OEChem-04052301373D

 85 93  0     1  0  0  0  0  0999 V2000
  -26.4844   -8.4272   27.6979 C   0  0  0  0  0  0  0  0  0  0  0  0
  -26.9014   -9.6413   28.2317 C   0  0  0  0  0  0  0  0  0  0  0  0
  -23.1878   -9.8191   19.9317 C   0  0  0  0  0  0  0  0  0  0  0  0
  -23.5632  -10.0001   22.3115 C   0  0  0  0  0  0  0  0  0  0  0  0
  -25.1457   -8.2422   27.3591 C   0  0  0  0  0  0  0  0  0  0  0  0
  -25.9777  -10.6666   28.4381 C   0  0  0  0  0  0  0  0  0  0  0  0
  -27.5735  -14.6675   30.8150 C   0  0  0  0  0  0  0  0  0  0  0  0
  -22.4196   -8.6736   20.1400 C   0  0  0  0  0  0  0  0  0  0  0  0
  -22.7950   -8.8546   22.5198 C   0  0  0  0  0  0  0  0  0  0  0  0
  -28.4404  -15.5929   30.2354 C   0  0  0  0  0  0  0  0  0  0  0  0
  -23.1918   -5.5073   22.2579 C   0  0  0  0  0  0  0  0  0  0  0  0
  -23.6877   -4.5457   23.1382 C   0  0  0  0  0  0  0  0  0  0  0  0
  -30.1711  -14.9285   23.0825 C   0  0  0  0  0  0  0  0  0  0  0  0
  -29.7655  -13.5743   25.0417 C   0  0  0  0  0  0  0  0  0  0  0  0
  -26.5910  -17.1044   29.8970 C   0  0  0  0  0  0  0  0  0  0  0  0
  -21.7297   -4.8091   24.5289 C   0  0  0  0  0  0  0  0  0  0  0  0
  -23.7596  -10.4823   21.0174 C   0  0  0  0  0  0  0  0  0  0  0  0
  -30.1738  -13.6840   23.7125 C   0  0  0  0  0  0  0  0  0  0  0  0
  -29.7601  -16.0633   23.7818 C   0  0  0  0  0  0  0  0  0  0  0  0
  -24.1022  -12.9984   20.7729 C   0  0  0  0  0  0  0  0  0  0  0  0
  -24.2081   -9.2705   27.5501 C   0  0  0  0  0  0  0  0  0  0  0  0
  -26.2047  -14.9496   30.9303 C   0  0  0  0  0  0  0  0  0  0  0  0
  -24.6177  -10.4909   28.1248 C   0  0  0  0  0  0  0  0  0  0  0  0
  -25.7093  -16.1820   30.4808 C   0  0  0  0  0  0  0  0  0  0  0  0
  -22.2232   -8.1914   21.4340 C   0  0  0  0  0  0  0  0  0  0  0  0
  -27.9487  -16.8103   29.7737 C   0  0  0  0  0  0  0  0  0  0  0  0
  -21.9649   -6.1199   22.5131 C   0  0  0  0  0  0  0  0  0  0  0  0
  -29.3518  -15.9536   25.1111 C   0  0  0  0  0  0  0  0  0  0  0  0
  -22.9566   -4.1966   24.2737 C   0  0  0  0  0  0  0  0  0  0  0  0
  -29.3545  -14.7091   25.7411 C   0  0  0  0  0  0  0  0  0  0  0  0
  -21.2338   -5.7708   23.6485 C   0  0  0  0  0  0  0  0  0  0  0  0
  -24.5537  -11.6653   20.8028 C   0  0  0  0  0  0  0  0  0  0  0  0
  -25.2347  -13.7393   20.5387 C   0  0  0  0  0  0  0  0  0  0  0  0
  -29.0320  -17.6201   22.0321 C   0  0  0  0  0  0  0  0  0  0  0  0
  -29.7658  -17.3516   23.1018 C   0  0  0  0  0  0  0  0  0  0  0  0
  -30.6023  -12.5002   22.9843 C   0  0  0  0  0  0  0  0  0  0  0  0
  -22.7775  -13.5202   20.9417 C   0  0  0  0  0  0  0  0  0  0  0  0
  -31.0421  -12.5806   21.5724 C   0  0  0  0  0  0  0  0  0  0  0  0
  -23.5411  -13.6422   29.7901 C   0  0  0  0  0  0  0  0  0  0  0  0
  -22.1090  -15.8209   31.7200 C   0  0  0  0  0  0  0  0  0  0  0  0
  -22.3077  -18.7984   33.3759 C   0  0  0  0  0  0  0  0  0  0  0  0
  -22.7704   -9.0136   27.1732 C   0  0  0  0  0  0  0  0  0  0  0  0
  -25.2872  -13.9518   31.5822 C   0  0  0  0  0  0  0  0  0  0  0  0
  -24.2515  -16.5416   30.5996 C   0  0  0  0  0  0  0  0  0  0  0  0
  -21.9595  -10.2955   27.0132 C   0  0  0  0  0  0  0  0  0  0  0  0
  -29.5236  -13.4862   18.4530 C   0  0  0  0  0  0  0  0  0  0  0  0
  -22.1693  -11.1972   28.2205 C   0  0  0  0  0  0  0  0  0  0  0  0
  -28.0397  -13.2059   18.6881 C   0  0  0  0  0  0  0  0  0  0  0  0
  -30.4050  -12.4865   19.1946 C   0  0  0  0  0  0  0  0  0  0  0  0
  -28.6435  -12.1323   20.9036 C   0  0  0  0  0  0  0  0  0  0  0  0
  -23.6366  -11.6310   28.3297 C   0  0  1  0  0  0  0  0  0  0  0  0
  -23.8263  -14.1326   31.1815 C   0  0  1  0  0  0  0  0  0  0  0  0
  -27.7221  -13.1387   20.1926 C   0  0  2  0  0  0  0  0  0  0  0  0
  -20.9643  -20.3325   34.8384 C   0  0  0  0  0  0  0  0  0  0  0  0
  -20.5236  -16.7507   29.2844 C   0  0  0  0  0  0  0  0  0  0  0  0
  -19.9403  -18.8331   30.5460 C   0  0  0  0  0  0  0  0  0  0  0  0
  -19.1981  -16.6101   31.4004 C   0  0  0  0  0  0  0  0  0  0  0  0
  -24.2395  -18.5543   35.6047 C   0  0  0  0  0  0  0  0  0  0  0  0
  -29.3305  -18.9739   27.2201 C   0  0  0  0  0  0  0  0  0  0  0  0
  -28.2461  -18.5768   28.2093 C   0  0  0  0  0  0  0  0  0  1  0  0
  -29.9456  -17.7642   26.5341 C   0  0  0  0  0  0  0  0  0  0  0  0
  -21.6397  -17.2467   31.5592 C   0  0  1  0  0  0  0  0  0  0  0  0
  -21.9591  -19.1828   34.8025 C   0  0  2  0  0  0  0  0  0  0  0  0
  -20.3526  -17.3529   30.6934 C   0  0  0  0  0  0  0  0  0  0  0  0
  -25.8704  -11.5623   20.6034 N   0  0  0  0  0  0  0  0  0  0  0  0
  -30.6318  -11.3061   23.5116 N   0  0  0  0  0  0  0  0  0  0  0  0
  -26.2559  -12.8401   20.4458 N   0  0  0  0  0  0  0  0  0  0  0  0
  -30.0532  -12.4212   20.6117 N   0  0  0  0  0  0  0  0  0  0  0  0
  -23.3933  -15.5303   31.2386 N   0  0  0  0  0  0  0  0  0  0  0  0
  -25.4467  -15.0658   20.4050 N   0  0  0  0  0  0  0  0  0  0  0  0
  -21.7293  -12.6196   21.1749 N   0  0  0  0  0  0  0  0  0  0  0  0
  -23.8363  -12.3068   29.5928 N   0  0  0  0  0  0  0  0  0  0  0  0
  -21.4986  -17.7846   32.9079 N   0  0  0  0  0  0  0  0  0  0  0  0
  -23.1849  -19.5986   35.5411 N   0  3  0  0  0  0  0  0  0  0  0  0
  -22.5281  -14.7476   20.8711 O   0  0  0  0  0  0  0  0  0  0  0  0
  -32.2379  -12.7799   21.4030 O   0  0  0  0  0  0  0  0  0  0  0  0
  -23.0856  -14.4176   28.9577 O   0  0  0  0  0  0  0  0  0  0  0  0
  -21.3662  -14.9970   32.2596 O   0  0  0  0  0  0  0  0  0  0  0  0
  -23.2053  -19.3454   32.7390 O   0  0  0  0  0  0  0  0  0  0  0  0
  -21.4735   -7.0738   21.6377 O   0  0  0  0  0  0  0  0  0  0  0  0
  -28.7926  -17.7151   29.2069 O   0  0  0  0  0  0  0  0  0  1  0  0
  -28.9434  -17.0533   25.8199 O   0  0  0  0  0  0  0  0  0  0  0  0
  -23.4322   -3.2720   25.1182 F   0  0  0  0  0  0  0  0  0  0  0  0
  -28.9635  -14.5966   27.0180 F   0  0  0  0  0  0  0  0  0  0  0  0
  -20.0539   -6.3550   23.8984 F   0  0  0  0  0  0  0  0  0  0  0  0
  1  2  1  0  0  0  0
  1  5  2  0  0  0  0
  2  6  2  0  0  0  0
  3  8  2  0  0  0  0
  3 17  1  0  0  0  0
  4  9  1  0  0  0  0
  4 17  2  0  0  0  0
  5 21  1  0  0  0  0
  6 23  1  0  0  0  0
  7 10  2  0  0  0  0
  7 22  1  0  0  0  0
  8 25  1  0  0  0  0
  9 25  2  0  0  0  0
 10 26  1  0  0  0  0
 11 12  2  0  0  0  0
 11 27  1  0  0  0  0
 12 29  1  0  0  0  0
 13 18  2  0  0  0  0
 13 19  1  0  0  0  0
 14 18  1  0  0  0  0
 14 30  2  0  0  0  0
 15 24  1  0  0  0  0
 15 26  2  0  0  0  0
 16 29  2  0  0  0  0
 16 31  1  0  0  0  0
 17 32  1  0  0  0  0
 18 36  1  0  0  0  0
 19 28  2  0  0  0  0
 19 35  1  0  0  0  0
 20 32  1  0  0  0  0
 20 33  2  0  0  0  0
 20 37  1  0  0  0  0
 21 23  2  0  0  0  0
 21 42  1  0  0  0  0
 22 24  2  0  0  0  0
 22 43  1  0  0  0  0
 23 51  1  0  0  0  0
 24 44  1  0  0  0  0
 25 80  1  0  0  0  0
 26 81  1  0  0  0  0
 27 31  2  0  0  0  0
 27 80  1  0  0  0  0
 28 30  1  0  0  0  0
 28 82  1  0  0  0  0
 29 83  1  0  0  0  0
 30 84  1  0  0  0  0
 31 85  1  0  0  0  0
 32 65  2  0  0  0  0
 33 67  1  0  0  0  0
 33 70  1  0  0  0  0
 34 35  2  0  0  0  0
 36 38  1  0  0  0  0
 36 66  2  0  0  0  0
 37 71  1  0  0  0  0
 37 75  2  0  0  0  0
 38 68  1  0  0  0  0
 38 76  2  0  0  0  0
 39 52  1  0  0  0  0
 39 72  1  0  0  0  0
 39 77  2  0  0  0  0
 40 62  1  0  0  0  0
 40 69  1  0  0  0  0
 40 78  2  0  0  0  0
 41 63  1  0  0  0  0
 41 73  1  0  0  0  0
 41 79  2  0  0  0  0
 42 45  1  0  0  0  0
 43 52  1  0  0  0  0
 44 69  1  0  0  0  0
 45 47  1  0  0  0  0
 46 48  1  0  0  0  0
 46 49  1  0  0  0  0
 47 51  1  0  0  0  0
 48 53  1  0  0  0  0
 49 68  1  0  0  0  0
 50 53  1  0  0  0  0
 50 68  1  0  0  0  0
 51 72  1  0  0  0  0
 52 69  1  0  0  0  0
 53 67  1  0  0  0  0
 54 63  1  0  0  0  0
 55 64  1  0  0  0  0
 56 64  1  0  0  0  0
 57 64  1  0  0  0  0
 58 74  1  0  0  0  0
 59 60  1  0  0  0  0
 59 61  1  0  0  0  0
 60 81  1  0  0  0  0
 61 82  1  0  0  0  0
 62 64  1  0  0  0  0
 62 73  1  0  0  0  0
 63 74  1  0  0  0  0
 65 67  1  0  0  0  0
M  CHG  1  74   1
M  ISO  4  36 100  38 100  60 101  81 101
M  END
> <Batch ID>
0114

> <Smiles>
C=Cc1cc([100C:0](=N)[100C:0](=O)N2CCCC(n3nc(-c4ccc(Oc5ccc(F)cc5F)cc4)c(C(N)=O)c3N)C2)cc(F)c1OCC[101CH2:1][101O:1]c1ccc2c(c1)CN(C(=O)C(NC(=O)C(C)NC)C(C)(C)C)C(C(=O)NC1CCCc3ccccc31)C2

> <Shape>
0.152

> <Color>
0.178

> <Negative vol penalty>
0.000

$$$$

  -OEChem-04052301373D

 87 95  0     1  0  0  0  0  0999 V2000
  -16.1721  -26.3441   24.5869 C   0  0  0  0  0  0  0  0  0  0  0  0
  -17.3295  -25.8545   23.9903 C   0  0  0  0  0  0  0  0  0  0  0  0
  -25.7978  -12.5263   20.9969 C   0  0  0  0  0  0  0  0  0  0  0  0
  -25.9643  -14.2701   19.3330 C   0  0  0  0  0  0  0  0  0  0  0  0
  -15.9076  -27.7130   24.5732 C   0  0  0  0  0  0  0  0  0  0  0  0
  -18.2227  -26.7335   23.3785 C   0  0  0  0  0  0  0  0  0  0  0  0
  -23.0445  -25.7441   24.5683 C   0  0  0  0  0  0  0  0  0  0  0  0
  -29.8107  -18.5609   20.3739 C   0  0  0  0  0  0  0  0  0  0  0  0
  -31.0228  -18.0793   19.8794 C   0  0  0  0  0  0  0  0  0  0  0  0
  -24.4886  -12.9180   21.2764 C   0  0  0  0  0  0  0  0  0  0  0  0
  -24.6550  -14.6617   19.6125 C   0  0  0  0  0  0  0  0  0  0  0  0
  -23.6563  -24.6770   23.9119 C   0  0  0  0  0  0  0  0  0  0  0  0
  -21.4235  -12.5223   19.9047 C   0  0  0  0  0  0  0  0  0  0  0  0
  -20.4594  -11.5217   20.0254 C   0  0  0  0  0  0  0  0  0  0  0  0
  -24.7321  -26.2266   22.4084 C   0  0  0  0  0  0  0  0  0  0  0  0
  -30.4138  -17.8051   22.5880 C   0  0  0  0  0  0  0  0  0  0  0  0
  -20.0131  -12.2253   22.2932 C   0  0  0  0  0  0  0  0  0  0  0  0
  -26.5357  -13.2024   20.0252 C   0  0  0  0  0  0  0  0  0  0  0  0
  -28.3075  -11.8503   18.7842 C   0  0  0  0  0  0  0  0  0  0  0  0
  -16.8026  -28.6102   23.9695 C   0  0  0  0  0  0  0  0  0  0  0  0
  -23.2638  -27.0619   24.1422 C   0  0  0  0  0  0  0  0  0  0  0  0
  -17.9692  -28.1155   23.3555 C   0  0  0  0  0  0  0  0  0  0  0  0
  -24.1240  -27.3088   23.0627 C   0  0  0  0  0  0  0  0  0  0  0  0
  -29.5062  -18.4239   21.7283 C   0  0  0  0  0  0  0  0  0  0  0  0
  -31.9303  -17.4606   20.7392 C   0  0  0  0  0  0  0  0  0  0  0  0
  -23.9172  -13.9856   20.5842 C   0  0  0  0  0  0  0  0  0  0  0  0
  -24.4979  -24.9180   22.8299 C   0  0  0  0  0  0  0  0  0  0  0  0
  -21.6826  -13.3745   20.9783 C   0  0  0  0  0  0  0  0  0  0  0  0
  -19.7541  -11.3732   21.2197 C   0  0  0  0  0  0  0  0  0  0  0  0
  -31.6258  -17.3235   22.0935 C   0  0  0  0  0  0  0  0  0  0  0  0
  -20.9773  -13.2260   22.1725 C   0  0  0  0  0  0  0  0  0  0  0  0
  -27.8884  -12.7987   19.7364 C   0  0  0  0  0  0  0  0  0  0  0  0
  -29.6761  -11.8303   18.8989 C   0  0  0  0  0  0  0  0  0  0  0  0
  -34.9834  -17.0989   18.6498 C   0  0  0  0  0  0  0  0  0  0  0  0
  -33.8215  -17.5473   19.1388 C   0  0  0  0  0  0  0  0  0  0  0  0
  -28.2940  -20.1332   22.6416 C   0  0  0  0  0  0  0  0  0  0  0  0
  -27.5294  -11.0583   17.8770 C   0  0  0  0  0  0  0  0  0  0  0  0
  -21.4206  -29.3862   23.0002 C   0  0  0  0  0  0  0  0  0  0  0  0
  -26.6177  -22.0100   22.4287 C   0  0  0  0  0  0  0  0  0  0  0  0
  -24.1462  -31.1298   23.2302 C   0  0  0  0  0  0  0  0  0  0  0  0
  -27.5569  -31.1736   23.3397 C   0  0  0  0  0  0  0  0  0  0  0  0
  -33.7063  -15.7464   20.7416 C   0  0  0  0  0  0  0  0  0  0  0  0
  -16.4505  -30.0764   23.9383 C   0  0  0  0  0  0  0  0  0  0  0  0
  -22.6175  -28.2037   24.8777 C   0  0  0  0  0  0  0  0  0  0  0  0
  -24.4083  -28.7065   22.5788 C   0  0  0  0  0  0  0  0  0  0  0  0
  -17.6329  -30.9796   23.5972 C   0  0  0  0  0  0  0  0  0  0  0  0
  -33.1900  -12.5516   22.0514 C   0  0  0  0  0  0  0  0  0  0  0  0
  -18.3981  -30.4277   22.3986 C   0  0  0  0  0  0  0  0  0  0  0  0
  -31.8112  -12.1551   21.5244 C   0  0  0  0  0  0  0  0  0  0  0  0
  -33.2187  -14.0207   22.4573 C   0  0  0  0  0  0  0  0  0  0  0  0
  -31.4432  -14.5722   20.8243 C   0  0  0  0  0  0  0  0  0  0  0  0
  -18.9746  -29.0398   22.7037 C   0  0  1  0  0  0  0  0  0  0  0  0
  -22.5065  -29.4707   24.0353 C   0  0  1  0  0  0  0  0  0  0  0  0
  -31.3619  -13.0945   20.3914 C   0  0  2  0  0  0  0  0  0  0  0  0
  -35.6820  -17.7156   17.4834 C   0  0  0  0  0  0  0  0  0  0  0  0
  -29.5029  -32.7507   23.4921 C   0  0  0  0  0  0  0  0  0  0  0  0
  -23.7678  -31.8765   20.2961 C   0  0  0  0  0  0  0  0  0  0  0  0
  -26.1560  -32.6266   20.2511 C   0  0  0  0  0  0  0  0  0  0  0  0
  -24.5239  -33.7565   21.7618 C   0  0  0  0  0  0  0  0  0  0  0  0
  -28.4719  -29.9822   25.8897 C   0  0  0  0  0  0  0  0  0  0  0  0
  -27.0439  -20.7673   23.1807 C   0  0  0  0  0  0  0  0  0  0  0  0
  -25.3879  -22.7166   22.9625 C   0  0  0  0  0  0  0  0  0  1  0  0
  -25.3112  -31.4184   22.3145 C   0  0  1  0  0  0  0  0  0  0  0  0
  -28.5259  -31.8820   24.2690 C   0  0  2  0  0  0  0  0  0  0  0  0
  -24.9330  -32.3929   21.1635 C   0  0  0  0  0  0  0  0  0  0  0  0
  -28.9081  -13.3417   20.4068 N   0  0  0  0  0  0  0  0  0  0  0  0
  -28.2852  -18.9089   22.2262 N   0  0  0  0  0  0  0  0  0  0  0  0
  -29.9815  -12.7325   19.8751 N   0  0  0  0  0  0  0  0  0  0  0  0
  -23.7478  -29.7890   23.3268 N   0  0  0  0  0  0  0  0  0  0  0  0
  -32.7809  -14.8795   21.3563 N   0  0  0  0  0  0  0  0  0  0  0  0
  -30.6359  -11.1292   18.2591 N   0  0  0  0  0  0  0  0  0  0  0  0
  -26.1354  -11.2031   17.8904 N   0  0  0  0  0  0  0  0  0  0  0  0
  -20.1623  -29.1548   23.5225 N   0  0  0  0  0  0  0  0  0  0  0  0
  -26.3939  -31.8942   23.1688 N   0  0  0  0  0  0  0  0  0  0  0  0
  -33.1883  -16.9616   20.2230 N   0  0  0  0  0  0  0  0  0  0  0  0
  -29.3063  -30.8881   25.0591 N   0  3  0  0  0  0  0  0  0  0  0  0
  -28.0535  -10.2344   17.0897 O   0  0  0  0  0  0  0  0  0  0  0  0
  -21.7031  -29.5224   21.8156 O   0  0  0  0  0  0  0  0  0  0  0  0
  -27.2264  -22.4196   21.4412 O   0  0  0  0  0  0  0  0  0  0  0  0
  -23.6141  -32.0588   23.8429 O   0  0  0  0  0  0  0  0  0  0  0  0
  -27.8083  -30.0911   22.8147 O   0  0  0  0  0  0  0  0  0  0  0  0
  -34.9115  -15.4718   20.6762 O   0  0  0  0  0  0  0  0  0  0  0  0
  -22.6396  -14.3679   20.8566 O   0  0  0  0  0  0  0  0  0  0  0  0
  -25.0958  -23.8782   22.1870 O   0  0  0  0  0  0  0  0  0  1  0  0
  -18.8271  -10.4132   21.3349 F   0  0  0  0  0  0  0  0  0  0  0  0
  -32.4900  -16.7297   22.9291 F   0  0  0  0  0  0  0  0  0  0  0  0
  -21.2209  -14.0424   23.2069 F   0  0  0  0  0  0  0  0  0  0  0  0
  1  2  1  0  0  0  0
  1  5  2  0  0  0  0
  2  6  2  0  0  0  0
  3 10  2  0  0  0  0
  3 18  1  0  0  0  0
  4 11  1  0  0  0  0
  4 18  2  0  0  0  0
  5 20  1  0  0  0  0
  6 22  1  0  0  0  0
  7 12  2  0  0  0  0
  7 21  1  0  0  0  0
  8  9  2  0  0  0  0
  8 24  1  0  0  0  0
  9 25  1  0  0  0  0
 10 26  1  0  0  0  0
 11 26  2  0  0  0  0
 12 27  1  0  0  0  0
 13 14  2  0  0  0  0
 13 28  1  0  0  0  0
 14 29  1  0  0  0  0
 15 23  1  0  0  0  0
 15 27  2  0  0  0  0
 16 24  2  0  0  0  0
 16 30  1  0  0  0  0
 17 29  2  0  0  0  0
 17 31  1  0  0  0  0
 18 32  1  0  0  0  0
 19 32  1  0  0  0  0
 19 33  2  0  0  0  0
 19 37  1  0  0  0  0
 20 22  2  0  0  0  0
 20 43  1  0  0  0  0
 21 23  2  0  0  0  0
 21 44  1  0  0  0  0
 22 52  1  0  0  0  0
 23 45  1  0  0  0  0
 24 67  1  0  0  0  0
 25 30  2  0  0  0  0
 25 75  1  0  0  0  0
 26 83  1  0  0  0  0
 27 84  1  0  0  0  0
 28 31  2  0  0  0  0
 28 83  1  0  0  0  0
 29 85  1  0  0  0  0
 30 86  1  0  0  0  0
 31 87  1  0  0  0  0
 32 66  2  0  0  0  0
 33 68  1  0  0  0  0
 33 71  1  0  0  0  0
 34 35  2  0  0  0  0
 34 55  1  0  0  0  0
 35 75  1  0  0  0  0
 36 61  1  0  0  0  0
 36 67  2  0  0  0  0
 37 72  1  0  0  0  0
 37 77  2  0  0  0  0
 38 53  1  0  0  0  0
 38 73  1  0  0  0  0
 38 78  2  0  0  0  0
 39 61  1  0  0  0  0
 39 62  1  0  0  0  0
 39 79  2  0  0  0  0
 40 63  1  0  0  0  0
 40 69  1  0  0  0  0
 40 80  2  0  0  0  0
 41 64  1  0  0  0  0
 41 74  1  0  0  0  0
 41 81  2  0  0  0  0
 42 70  1  0  0  0  0
 42 75  1  0  0  0  0
 42 82  2  0  0  0  0
 43 46  1  0  0  0  0
 44 53  1  0  0  0  0
 45 69  1  0  0  0  0
 46 48  1  0  0  0  0
 47 49  1  0  0  0  0
 47 50  1  0  0  0  0
 48 52  1  0  0  0  0
 49 54  1  0  0  0  0
 50 70  1  0  0  0  0
 51 54  1  0  0  0  0
 51 70  1  0  0  0  0
 52 73  1  0  0  0  0
 53 69  1  0  0  0  0
 54 68  1  0  0  0  0
 56 64  1  0  0  0  0
 57 65  1  0  0  0  0
 58 65  1  0  0  0  0
 59 65  1  0  0  0  0
 60 76  1  0  0  0  0
 62 84  1  0  0  0  0
 63 65  1  0  0  0  0
 63 74  1  0  0  0  0
 64 76  1  0  0  0  0
 66 68  1  0  0  0  0
M  CHG  1  76   1
M  ISO  4  42 100  62 101  75 100  84 101
M  END
> <Batch ID>
0114

> <Smiles>
CC=C[100N:0](c1ccc(NC=CC(=O)[101CH2:1][101O:1]c2ccc3c(c2)CN(C(=O)C(NC(=O)C(C)NC)C(C)(C)C)C(C(=O)NC2CCCc4ccccc42)C3)cc1F)[100C:0](=O)N1CCCC(n2nc(-c3ccc(Oc4ccc(F)cc4F)cc3)c(C(N)=O)c2N)C1

> <Shape>
0.254

> <Color>
0.080

> <Negative vol penalty>
0.000

$$$$

  -OEChem-04052301373D

 86 94  0     1  0  0  0  0  0999 V2000
  -15.9623  -28.9814   19.5030 C   0  0  0  0  0  0  0  0  0  0  0  0
  -17.1868  -28.3981   19.1935 C   0  0  0  0  0  0  0  0  0  0  0  0
  -24.4429   -9.8253   21.9669 C   0  0  0  0  0  0  0  0  0  0  0  0
  -24.6458  -11.2226   23.9274 C   0  0  0  0  0  0  0  0  0  0  0  0
  -15.9151  -30.2936   19.9718 C   0  0  0  0  0  0  0  0  0  0  0  0
  -18.3649  -29.1271   19.3518 C   0  0  0  0  0  0  0  0  0  0  0  0
  -22.0254  -26.4406   21.5942 C   0  0  0  0  0  0  0  0  0  0  0  0
  -24.0613   -8.7518   22.7716 C   0  0  0  0  0  0  0  0  0  0  0  0
  -24.2641  -10.1491   24.7321 C   0  0  0  0  0  0  0  0  0  0  0  0
  -22.7112  -25.5172   20.8063 C   0  0  0  0  0  0  0  0  0  0  0  0
  -21.2690   -7.7002   24.3622 C   0  0  0  0  0  0  0  0  0  0  0  0
  -20.1802   -6.9337   23.9468 C   0  0  0  0  0  0  0  0  0  0  0  0
  -27.5897  -19.9582   20.3391 C   0  0  0  0  0  0  0  0  0  0  0  0
  -24.5258  -27.0869   20.5567 C   0  0  0  0  0  0  0  0  0  0  0  0
  -29.8825  -19.8529   19.5848 C   0  0  0  0  0  0  0  0  0  0  0  0
  -21.5921   -4.9751   23.8599 C   0  0  0  0  0  0  0  0  0  0  0  0
  -24.7352  -11.0608   22.5449 C   0  0  0  0  0  0  0  0  0  0  0  0
  -27.5697  -21.3299   20.0870 C   0  0  0  0  0  0  0  0  0  0  0  0
  -24.2880  -13.1281   21.1188 C   0  0  0  0  0  0  0  0  0  0  0  0
  -17.0940  -31.0358   20.1451 C   0  0  0  0  0  0  0  0  0  0  0  0
  -22.5808  -27.7004   21.8606 C   0  0  0  0  0  0  0  0  0  0  0  0
  -18.3334  -30.4509   19.8222 C   0  0  0  0  0  0  0  0  0  0  0  0
  -23.8462  -28.0236   21.3503 C   0  0  0  0  0  0  0  0  0  0  0  0
  -28.7461  -19.2197   20.0881 C   0  0  0  0  0  0  0  0  0  0  0  0
  -23.9719   -8.9137   24.1541 C   0  0  0  0  0  0  0  0  0  0  0  0
  -23.9603  -25.8413   20.2850 C   0  0  0  0  0  0  0  0  0  0  0  0
  -22.5194   -7.1042   24.5263 C   0  0  0  0  0  0  0  0  0  0  0  0
  -29.8625  -21.2246   19.3326 C   0  0  0  0  0  0  0  0  0  0  0  0
  -28.7061  -21.9631   19.5837 C   0  0  0  0  0  0  0  0  0  0  0  0
  -20.3417   -5.5712   23.6957 C   0  0  0  0  0  0  0  0  0  0  0  0
  -22.6810   -5.7417   24.2752 C   0  0  0  0  0  0  0  0  0  0  0  0
  -25.1301  -12.1700   21.7143 C   0  0  0  0  0  0  0  0  0  0  0  0
  -25.1425  -13.9605   20.4381 C   0  0  0  0  0  0  0  0  0  0  0  0
  -26.3362  -22.0861   20.3608 C   0  0  0  0  0  0  0  0  0  0  0  0
  -25.6454  -22.7948   19.4543 C   0  0  0  0  0  0  0  0  0  0  0  0
  -22.8609  -13.2544   21.1759 C   0  0  0  0  0  0  0  0  0  0  0  0
  -21.7375  -30.7010   21.2372 C   0  0  0  0  0  0  0  0  0  0  0  0
  -24.3052  -31.3970   23.0932 C   0  0  0  0  0  0  0  0  0  0  0  0
  -27.3089  -30.4043   24.3735 C   0  0  0  0  0  0  0  0  0  0  0  0
  -29.8326  -16.9477   20.1504 C   0  0  0  0  0  0  0  0  0  0  0  0
  -16.9892  -32.4668   20.6099 C   0  0  0  0  0  0  0  0  0  0  0  0
  -21.8402  -28.6752   22.7344 C   0  0  0  0  0  0  0  0  0  0  0  0
  -24.4952  -29.3549   21.6238 C   0  0  0  0  0  0  0  0  0  0  0  0
  -18.3124  -33.0447   21.1053 C   0  0  0  0  0  0  0  0  0  0  0  0
  -30.0705  -13.4780   19.3878 C   0  0  0  0  0  0  0  0  0  0  0  0
  -19.4373  -32.7166   20.1287 C   0  0  0  0  0  0  0  0  0  0  0  0
  -28.7372  -12.9072   19.8761 C   0  0  0  0  0  0  0  0  0  0  0  0
  -30.5845  -14.5844   20.3072 C   0  0  0  0  0  0  0  0  0  0  0  0
  -28.2949  -15.0966   21.0584 C   0  0  0  0  0  0  0  0  0  0  0  0
  -19.6351  -31.2010   20.0041 C   0  0  1  0  0  0  0  0  0  0  0  0
  -22.2730  -30.1217   22.5160 C   0  0  1  0  0  0  0  0  0  0  0  0
  -27.7050  -14.0236   20.1287 C   0  0  2  0  0  0  0  0  0  0  0  0
  -33.0109  -22.9788   19.3725 C   0  0  0  0  0  0  0  0  0  0  0  0
  -29.0394  -25.5993   19.9187 C   0  0  0  0  0  0  0  0  0  0  0  0
  -29.1916  -31.2037   25.8274 C   0  0  0  0  0  0  0  0  0  0  0  0
  -25.3295  -33.1371   20.8057 C   0  0  0  0  0  0  0  0  0  0  0  0
  -27.5814  -33.1284   21.9000 C   0  0  0  0  0  0  0  0  0  0  0  0
  -25.6255  -34.1274   23.0830 C   0  0  0  0  0  0  0  0  0  0  0  0
  -26.8693  -28.2332   26.3362 C   0  0  0  0  0  0  0  0  0  0  0  0
  -24.4033  -23.5592   19.7833 C   0  0  0  0  0  0  0  0  0  1  0  0
  -32.1617  -21.7531   19.6334 C   0  0  0  0  0  0  0  0  0  0  0  0
  -29.0970  -24.1638   20.3959 C   0  0  0  0  0  0  0  0  0  0  0  0
  -25.7778  -31.6152   22.8425 C   0  0  1  0  0  0  0  0  0  0  0  0
  -27.8689  -30.4545   25.7836 C   0  0  2  0  0  0  0  0  0  0  0  0
  -26.0658  -32.9776   22.1509 C   0  0  0  0  0  0  0  0  0  0  0  0
  -26.4205  -12.3737   21.4362 N   0  0  0  0  0  0  0  0  0  0  0  0
  -26.3956  -13.4693   20.6583 N   0  0  0  0  0  0  0  0  0  0  0  0
  -23.7286  -30.2766   22.4783 N   0  0  0  0  0  0  0  0  0  0  0  0
  -29.5550  -15.6085   20.4973 N   0  0  0  0  0  0  0  0  0  0  0  0
  -24.9366  -15.0574   19.6785 N   0  0  0  0  0  0  0  0  0  0  0  0
  -22.1362  -12.3138   21.9204 N   0  0  0  0  0  0  0  0  0  0  0  0
  -28.7672  -17.8262   20.3443 N   0  0  0  0  0  0  0  0  0  0  0  0
  -20.3586  -30.6899   21.1486 N   0  0  0  0  0  0  0  0  0  0  0  0
  -26.4405  -31.4476   24.1314 N   0  0  0  0  0  0  0  0  0  0  0  0
  -28.0928  -29.0751   26.3014 N   0  3  0  0  0  0  0  0  0  0  0  0
  -22.2453  -14.1646   20.5708 O   0  0  0  0  0  0  0  0  0  0  0  0
  -22.5176  -31.1279   20.3940 O   0  0  0  0  0  0  0  0  0  0  0  0
  -23.6909  -32.1874   23.8139 O   0  0  0  0  0  0  0  0  0  0  0  0
  -27.6144  -29.5293   23.5662 O   0  0  0  0  0  0  0  0  0  0  0  0
  -30.9255  -17.2851   19.6881 O   0  0  0  0  0  0  0  0  0  0  0  0
  -23.5992   -7.8664   24.9395 O   0  0  0  0  0  0  0  0  0  0  0  0
  -24.6315  -24.9421   19.5151 O   0  0  0  0  0  0  0  0  0  1  0  0
  -30.9792  -21.8296   18.8397 O   0  0  0  0  0  0  0  0  0  0  0  0
  -28.7004  -23.3043   19.3307 O   0  0  0  0  0  0  0  0  0  0  0  0
  -19.2957   -4.8349   23.2983 F   0  0  0  0  0  0  0  0  0  0  0  0
  -23.8795   -5.1633   24.4323 F   0  0  0  0  0  0  0  0  0  0  0  0
  1  2  1  0  0  0  0
  1  5  2  0  0  0  0
  2  6  2  0  0  0  0
  3  8  2  0  0  0  0
  3 17  1  0  0  0  0
  4  9  1  0  0  0  0
  4 17  2  0  0  0  0
  5 20  1  0  0  0  0
  6 22  1  0  0  0  0
  7 10  2  0  0  0  0
  7 21  1  0  0  0  0
  8 25  1  0  0  0  0
  9 25  2  0  0  0  0
 10 26  1  0  0  0  0
 11 12  2  0  0  0  0
 11 27  1  0  0  0  0
 12 30  1  0  0  0  0
 13 18  2  0  0  0  0
 13 24  1  0  0  0  0
 14 23  1  0  0  0  0
 14 26  2  0  0  0  0
 15 24  2  0  0  0  0
 15 28  1  0  0  0  0
 16 30  2  0  0  0  0
 16 31  1  0  0  0  0
 17 32  1  0  0  0  0
 18 29  1  0  0  0  0
 18 34  1  0  0  0  0
 19 32  1  0  0  0  0
 19 33  2  0  0  0  0
 19 36  1  0  0  0  0
 20 22  2  0  0  0  0
 20 41  1  0  0  0  0
 21 23  2  0  0  0  0
 21 42  1  0  0  0  0
 22 50  1  0  0  0  0
 23 43  1  0  0  0  0
 24 72  1  0  0  0  0
 25 81  1  0  0  0  0
 26 82  1  0  0  0  0
 27 31  2  0  0  0  0
 27 81  1  0  0  0  0
 28 29  2  0  0  0  0
 28 83  1  0  0  0  0
 29 84  1  0  0  0  0
 30 85  1  0  0  0  0
 31 86  1  0  0  0  0
 32 66  2  0  0  0  0
 33 67  1  0  0  0  0
 33 70  1  0  0  0  0
 34 35  2  0  0  0  0
 35 60  1  0  0  0  0
 36 71  1  0  0  0  0
 36 76  2  0  0  0  0
 37 51  1  0  0  0  0
 37 73  1  0  0  0  0
 37 77  2  0  0  0  0
 38 63  1  0  0  0  0
 38 68  1  0  0  0  0
 38 78  2  0  0  0  0
 39 64  1  0  0  0  0
 39 74  1  0  0  0  0
 39 79  2  0  0  0  0
 40 69  1  0  0  0  0
 40 72  1  0  0  0  0
 40 80  2  0  0  0  0
 41 44  1  0  0  0  0
 42 51  1  0  0  0  0
 43 68  1  0  0  0  0
 44 46  1  0  0  0  0
 45 47  1  0  0  0  0
 45 48  1  0  0  0  0
 46 50  1  0  0  0  0
 47 52  1  0  0  0  0
 48 69  1  0  0  0  0
 49 52  1  0  0  0  0
 49 69  1  0  0  0  0
 50 73  1  0  0  0  0
 51 68  1  0  0  0  0
 52 67  1  0  0  0  0
 53 61  1  0  0  0  0
 54 62  1  0  0  0  0
 55 64  1  0  0  0  0
 56 65  1  0  0  0  0
 57 65  1  0  0  0  0
 58 65  1  0  0  0  0
 59 75  1  0  0  0  0
 60 82  1  0  0  0  0
 61 83  1  0  0  0  0
 62 84  1  0  0  0  0
 63 65  1  0  0  0  0
 63 74  1  0  0  0  0
 64 75  1  0  0  0  0
 66 67  1  0  0  0  0
M  CHG  1  75   1
M  ISO  4  40 100  60 101  72 100  82 101
M  END
> <Batch ID>
0114

> <Smiles>
CCOc1cc([100NH:0][100C:0](=O)N2CCCC(n3nc(-c4ccc(Oc5ccc(F)cc5F)cc4)c(C(N)=O)c3N)C2)cc(C=C[101CH2:1][101O:1]c2ccc3c(c2)CN(C(=O)C(NC(=O)C(C)NC)C(C)(C)C)C(C(=O)NC2CCCc4ccccc42)C3)c1OCC

> <Shape>
0.290

> <Color>
0.119

> <Negative vol penalty>
0.000

$$$$

  -OEChem-04052301373D

 86 95  0     1  0  0  0  0  0999 V2000
  -16.6363  -29.1924   23.0772 C   0  0  0  0  0  0  0  0  0  0  0  0
  -17.6135  -29.3118   22.0943 C   0  0  0  0  0  0  0  0  0  0  0  0
  -26.4811  -13.3240   21.3392 C   0  0  0  0  0  0  0  0  0  0  0  0
  -25.3932  -14.6929   19.6720 C   0  0  0  0  0  0  0  0  0  0  0  0
  -16.9840  -28.7561   24.3550 C   0  0  0  0  0  0  0  0  0  0  0  0
  -18.9393  -28.9959   22.3889 C   0  0  0  0  0  0  0  0  0  0  0  0
  -24.8374  -26.2831   19.3607 C   0  0  0  0  0  0  0  0  0  0  0  0
  -28.0331  -22.3648   18.1257 C   0  0  0  0  0  0  0  0  0  0  0  0
  -25.2773  -12.6623   21.5814 C   0  0  0  0  0  0  0  0  0  0  0  0
  -24.1894  -14.0312   19.9142 C   0  0  0  0  0  0  0  0  0  0  0  0
  -26.1879  -26.5778   19.1792 C   0  0  0  0  0  0  0  0  0  0  0  0
  -23.4392  -10.2238   20.1294 C   0  0  0  0  0  0  0  0  0  0  0  0
  -28.1656  -23.2908   17.0909 C   0  0  0  0  0  0  0  0  0  0  0  0
  -23.4727   -8.8330   20.2289 C   0  0  0  0  0  0  0  0  0  0  0  0
  -26.6587  -25.7583   21.3987 C   0  0  0  0  0  0  0  0  0  0  0  0
  -30.0091  -23.2654   19.1846 C   0  0  0  0  0  0  0  0  0  0  0  0
  -22.6077   -8.9732   22.4803 C   0  0  0  0  0  0  0  0  0  0  0  0
  -26.5390  -14.3394   20.3845 C   0  0  0  0  0  0  0  0  0  0  0  0
  -28.7729  -14.6715   19.1983 C   0  0  0  0  0  0  0  0  0  0  0  0
  -18.3131  -28.4254   24.6626 C   0  0  0  0  0  0  0  0  0  0  0  0
  -24.3850  -25.7330   20.5686 C   0  0  0  0  0  0  0  0  0  0  0  0
  -19.3054  -28.5560   23.6723 C   0  0  0  0  0  0  0  0  0  0  0  0
  -25.3023  -25.4552   21.5920 C   0  0  0  0  0  0  0  0  0  0  0  0
  -30.1416  -24.1913   18.1498 C   0  0  0  0  0  0  0  0  0  0  0  0
  -28.9548  -22.3522   19.1726 C   0  0  0  0  0  0  0  0  0  0  0  0
  -24.1315  -13.0158   20.8689 C   0  0  0  0  0  0  0  0  0  0  0  0
  -27.0984  -26.3181   20.1994 C   0  0  0  0  0  0  0  0  0  0  0  0
  -22.9901  -10.9895   21.2054 C   0  0  0  0  0  0  0  0  0  0  0  0
  -23.0569   -8.2076   21.4043 C   0  0  0  0  0  0  0  0  0  0  0  0
  -29.2199  -24.2040   17.1030 C   0  0  0  0  0  0  0  0  0  0  0  0
  -22.5743  -10.3641   22.3809 C   0  0  0  0  0  0  0  0  0  0  0  0
  -27.7820  -15.0237   20.1343 C   0  0  0  0  0  0  0  0  0  0  0  0
  -29.7447  -15.6301   19.3500 C   0  0  0  0  0  0  0  0  0  0  0  0
  -31.4935  -26.2286   20.4445 C   0  0  0  0  0  0  0  0  0  0  0  0
  -28.8113  -13.5759   18.2743 C   0  0  0  0  0  0  0  0  0  0  0  0
  -22.3706  -26.6665   22.8434 C   0  0  0  0  0  0  0  0  0  0  0  0
  -22.9220  -23.6906   24.0104 C   0  0  0  0  0  0  0  0  0  0  0  0
  -24.9928  -20.9833   24.1812 C   0  0  0  0  0  0  0  0  0  0  0  0
  -29.6461  -21.2646   21.3372 C   0  0  0  0  0  0  0  0  0  0  0  0
  -18.6488  -28.0034   26.0711 C   0  0  0  0  0  0  0  0  0  0  0  0
  -22.9289  -25.3960   20.7386 C   0  0  0  0  0  0  0  0  0  0  0  0
  -24.8706  -24.8463   22.9002 C   0  0  0  0  0  0  0  0  0  0  0  0
  -31.0224  -27.5139   21.0796 C   0  0  0  0  0  0  0  0  0  0  0  0
  -20.0133  -27.3305   26.1966 C   0  0  0  0  0  0  0  0  0  0  0  0
  -30.7063  -28.4069   19.8834 C   0  0  0  0  0  0  0  0  0  0  0  0
  -31.6094  -18.5871   22.6232 C   0  0  0  0  0  0  0  0  0  0  0  0
  -21.0732  -28.1284   25.4437 C   0  0  0  0  0  0  0  0  0  0  0  0
  -30.9446  -17.3378   22.0408 C   0  0  0  0  0  0  0  0  0  0  0  0
  -30.5830  -19.6589   22.9861 C   0  0  0  0  0  0  0  0  0  0  0  0
  -28.9949  -18.7763   21.3223 C   0  0  0  0  0  0  0  0  0  0  0  0
  -20.7503  -28.1991   23.9463 C   0  0  1  0  0  0  0  0  0  0  0  0
  -22.5013  -25.3146   22.2008 C   0  0  1  0  0  0  0  0  0  0  0  0
  -29.9937  -17.6940   20.8813 C   0  0  2  0  0  0  0  0  0  0  0  0
  -30.3011  -27.4326   18.7815 C   0  0  2  0  0  0  0  0  0  0  0  0
  -25.1910  -18.7187   25.2442 C   0  0  0  0  0  0  0  0  0  0  0  0
  -23.6569  -25.0035   26.6649 C   0  0  0  0  0  0  0  0  0  0  0  0
  -24.7305  -22.8491   27.3535 C   0  0  0  0  0  0  0  0  0  0  0  0
  -22.2835  -22.9240   26.8745 C   0  0  0  0  0  0  0  0  0  0  0  0
  -25.0520  -19.6261   21.5519 C   0  0  0  0  0  0  0  0  0  0  0  0
  -31.2765  -25.1742   18.1655 C   0  0  0  0  0  0  0  0  0  0  0  0
  -28.7984  -27.1716   18.7720 C   0  0  0  0  0  0  0  0  0  1  0  0
  -23.9268  -23.0837   24.9597 C   0  0  1  0  0  0  0  0  0  0  0  0
  -24.7234  -19.4975   24.0246 C   0  0  2  0  0  0  0  0  0  0  0  0
  -23.6576  -23.4784   26.4393 C   0  0  0  0  0  0  0  0  0  0  0  0
  -28.0957  -16.1203   20.8293 N   0  0  0  0  0  0  0  0  0  0  0  0
  -29.2947  -16.4655   20.3298 N   0  0  0  0  0  0  0  0  0  0  0  0
  -31.0571  -26.2405   19.1214 N   0  0  0  0  0  0  0  0  0  0  0  0
  -23.4355  -24.5406   23.0207 N   0  0  0  0  0  0  0  0  0  0  0  0
  -29.7203  -19.9477   21.8384 N   0  0  0  0  0  0  0  0  0  0  0  0
  -30.9319  -15.8315   18.7397 N   0  0  0  0  0  0  0  0  0  0  0  0
  -27.7298  -12.6847   18.2493 N   0  0  0  0  0  0  0  0  0  0  0  0
  -28.8193  -21.4120   20.2239 N   0  0  0  0  0  0  0  0  0  0  0  0
  -21.0968  -26.9540   23.2952 N   0  0  0  0  0  0  0  0  0  0  0  0
  -23.9063  -21.6462   24.7116 N   0  0  0  0  0  0  0  0  0  0  0  0
  -25.4332  -18.9659   22.8269 N   0  3  0  0  0  0  0  0  0  0  0  0
  -32.1095  -25.3504   21.0300 O   0  0  0  0  0  0  0  0  0  0  0  0
  -29.7835  -13.3832   17.5054 O   0  0  0  0  0  0  0  0  0  0  0  0
  -23.3532  -27.3943   22.9247 O   0  0  0  0  0  0  0  0  0  0  0  0
  -21.7265  -23.4148   24.1378 O   0  0  0  0  0  0  0  0  0  0  0  0
  -26.0616  -21.5031   23.8682 O   0  0  0  0  0  0  0  0  0  0  0  0
  -30.2913  -22.1878   21.8405 O   0  0  0  0  0  0  0  0  0  0  0  0
  -22.9567  -12.3702   21.1048 O   0  0  0  0  0  0  0  0  0  0  0  0
  -28.4171  -26.6054   20.0251 O   0  0  0  0  0  0  0  0  0  1  0  0
  -23.0876   -6.8719   21.4992 F   0  0  0  0  0  0  0  0  0  0  0  0
  -29.3395  -25.0890   16.1036 F   0  0  0  0  0  0  0  0  0  0  0  0
  -22.1406  -11.0943   23.4175 F   0  0  0  0  0  0  0  0  0  0  0  0
  1  2  1  0  0  0  0
  1  5  2  0  0  0  0
  2  6  2  0  0  0  0
  3  9  2  0  0  0  0
  3 18  1  0  0  0  0
  4 10  1  0  0  0  0
  4 18  2  0  0  0  0
  5 20  1  0  0  0  0
  6 22  1  0  0  0  0
  7 11  2  0  0  0  0
  7 21  1  0  0  0  0
  8 13  2  0  0  0  0
  8 25  1  0  0  0  0
  9 26  1  0  0  0  0
 10 26  2  0  0  0  0
 11 27  1  0  0  0  0
 12 14  2  0  0  0  0
 12 28  1  0  0  0  0
 13 30  1  0  0  0  0
 14 29  1  0  0  0  0
 15 23  1  0  0  0  0
 15 27  2  0  0  0  0
 16 24  1  0  0  0  0
 16 25  2  0  0  0  0
 17 29  2  0  0  0  0
 17 31  1  0  0  0  0
 18 32  1  0  0  0  0
 19 32  1  0  0  0  0
 19 33  2  0  0  0  0
 19 35  1  0  0  0  0
 20 22  2  0  0  0  0
 20 40  1  0  0  0  0
 21 23  2  0  0  0  0
 21 41  1  0  0  0  0
 22 51  1  0  0  0  0
 23 42  1  0  0  0  0
 24 30  2  0  0  0  0
 24 60  1  0  0  0  0
 25 72  1  0  0  0  0
 26 82  1  0  0  0  0
 27 83  1  0  0  0  0
 28 31  2  0  0  0  0
 28 82  1  0  0  0  0
 29 84  1  0  0  0  0
 30 85  1  0  0  0  0
 31 86  1  0  0  0  0
 32 65  2  0  0  0  0
 33 66  1  0  0  0  0
 33 70  1  0  0  0  0
 34 43  1  0  0  0  0
 34 67  1  0  0  0  0
 34 76  2  0  0  0  0
 35 71  1  0  0  0  0
 35 77  2  0  0  0  0
 36 52  1  0  0  0  0
 36 73  1  0  0  0  0
 36 78  2  0  0  0  0
 37 62  1  0  0  0  0
 37 68  1  0  0  0  0
 37 79  2  0  0  0  0
 38 63  1  0  0  0  0
 38 74  1  0  0  0  0
 38 80  2  0  0  0  0
 39 69  1  0  0  0  0
 39 72  1  0  0  0  0
 39 81  2  0  0  0  0
 40 44  1  0  0  0  0
 41 52  1  0  0  0  0
 42 68  1  0  0  0  0
 43 45  1  0  0  0  0
 44 47  1  0  0  0  0
 45 54  1  0  0  0  0
 46 48  1  0  0  0  0
 46 49  1  0  0  0  0
 47 51  1  0  0  0  0
 48 53  1  0  0  0  0
 49 69  1  0  0  0  0
 50 53  1  0  0  0  0
 50 69  1  0  0  0  0
 51 73  1  0  0  0  0
 52 68  1  0  0  0  0
 53 66  1  0  0  0  0
 54 61  1  0  0  0  0
 54 67  1  0  0  0  0
 55 63  1  0  0  0  0
 56 64  1  0  0  0  0
 57 64  1  0  0  0  0
 58 64  1  0  0  0  0
 59 75  1  0  0  0  0
 60 67  1  0  0  0  0
 61 83  1  0  0  0  0
 62 64  1  0  0  0  0
 62 74  1  0  0  0  0
 63 75  1  0  0  0  0
 65 66  1  0  0  0  0
M  CHG  1  75   1
M  ISO  4  39 100  61 101  72 100  83 101
M  END
> <Batch ID>
0114

> <Smiles>
CNC(C)C(=O)NC(C(=O)N1Cc2cc([101O:1][101CH2:1]C3CCC(=O)N3Cc3cc([100NH:0][100C:0](=O)N4CCCC(n5nc(-c6ccc(Oc7ccc(F)cc7F)cc6)c(C(N)=O)c5N)C4)ccc3F)ccc2CC1C(=O)NC1CCCc2ccccc21)C(C)(C)C

> <Shape>
0.261

> <Color>
0.058

> <Negative vol penalty>
0.000

$$$$

  -OEChem-04052301373D

 81 89  0     1  0  0  0  0  0999 V2000
  -29.4531   -4.6904   18.5578 C   0  0  0  0  0  0  0  0  0  0  0  0
  -29.8189   -6.0240   18.4064 C   0  0  0  0  0  0  0  0  0  0  0  0
  -28.1965  -33.7225   23.2209 C   0  0  0  0  0  0  0  0  0  0  0  0
  -26.8871  -34.5640   21.3732 C   0  0  0  0  0  0  0  0  0  0  0  0
  -28.1094   -4.3250   18.4875 C   0  0  0  0  0  0  0  0  0  0  0  0
  -28.8413   -6.9930   18.1835 C   0  0  0  0  0  0  0  0  0  0  0  0
  -28.8650  -12.7774   20.1949 C   0  0  0  0  0  0  0  0  0  0  0  0
  -28.9170  -34.9163   23.2541 C   0  0  0  0  0  0  0  0  0  0  0  0
  -27.6075  -35.7579   21.4064 C   0  0  0  0  0  0  0  0  0  0  0  0
  -29.2170  -13.9810   19.5855 C   0  0  0  0  0  0  0  0  0  0  0  0
  -30.8594  -37.8816   24.0599 C   0  0  0  0  0  0  0  0  0  0  0  0
  -31.0901  -38.4655   25.3055 C   0  0  0  0  0  0  0  0  0  0  0  0
  -26.9011  -14.3733   19.0363 C   0  0  0  0  0  0  0  0  0  0  0  0
  -28.7074  -38.6454   25.6626 C   0  0  0  0  0  0  0  0  0  0  0  0
  -29.1170  -21.1027   18.4184 C   0  0  0  0  0  0  0  0  0  0  0  0
  -27.1816  -33.5462   22.2804 C   0  0  0  0  0  0  0  0  0  0  0  0
  -29.2574  -20.4350   19.6127 C   0  0  0  0  0  0  0  0  0  0  0  0
  -25.2543  -32.0137   22.9472 C   0  0  0  0  0  0  0  0  0  0  0  0
  -27.1139   -5.2914   18.2732 C   0  0  0  0  0  0  0  0  0  0  0  0
  -27.5275  -12.3568   20.2200 C   0  0  0  0  0  0  0  0  0  0  0  0
  -27.4831   -6.6401   18.1089 C   0  0  0  0  0  0  0  0  0  0  0  0
  -26.5344  -13.1652   19.6488 C   0  0  0  0  0  0  0  0  0  0  0  0
  -29.1636  -21.4184   20.6262 C   0  0  0  0  0  0  0  0  0  0  0  0
  -28.6225  -35.9341   22.3468 C   0  0  0  0  0  0  0  0  0  0  0  0
  -28.2354  -14.7777   19.0035 C   0  0  0  0  0  0  0  0  0  0  0  0
  -29.5526  -37.6798   23.6156 C   0  0  0  0  0  0  0  0  0  0  0  0
  -30.0141  -38.8473   26.1068 C   0  0  0  0  0  0  0  0  0  0  0  0
  -28.4767  -38.0616   24.4169 C   0  0  0  0  0  0  0  0  0  0  0  0
  -26.4374  -32.3129   22.2453 C   0  0  0  0  0  0  0  0  0  0  0  0
  -28.9729  -22.6171   19.9790 C   0  0  0  0  0  0  0  0  0  0  0  0
  -24.9506  -30.7269   22.5753 C   0  0  0  0  0  0  0  0  0  0  0  0
  -29.4620  -18.9835   19.7520 C   0  0  0  0  0  0  0  0  0  0  0  0
  -28.8206  -23.8997   20.5571 C   0  0  0  0  0  0  0  0  0  0  0  0
  -28.6097  -25.0822   19.8914 C   0  0  0  0  0  0  0  0  0  0  0  0
  -29.5180  -18.1085   18.7358 C   0  0  0  0  0  0  0  0  0  0  0  0
  -24.4975  -32.8263   23.8542 C   0  0  0  0  0  0  0  0  0  0  0  0
  -28.4600  -26.3452   20.6419 C   0  0  0  0  0  0  0  0  0  0  0  0
  -25.9394   -9.8595   19.0604 C   0  0  0  0  0  0  0  0  0  0  0  0
  -23.4758  -11.1424   20.7358 C   0  0  0  0  0  0  0  0  0  0  0  0
  -22.0653  -13.9078   22.1535 C   0  0  0  0  0  0  0  0  0  0  0  0
  -25.6789   -4.8420   18.1577 C   0  0  0  0  0  0  0  0  0  0  0  0
  -27.1608  -11.0688   20.9048 C   0  0  0  0  0  0  0  0  0  0  0  0
  -25.0815  -12.7685   19.6669 C   0  0  0  0  0  0  0  0  0  0  0  0
  -24.6713   -5.9809   18.2922 C   0  0  0  0  0  0  0  0  0  0  0  0
  -25.4630  -27.6389   18.9757 C   0  0  0  0  0  0  0  0  0  0  0  0
  -25.0932   -7.1709   17.4363 C   0  0  0  0  0  0  0  0  0  0  0  0
  -25.3005  -28.9884   19.6700 C   0  0  0  0  0  0  0  0  0  0  0  0
  -26.9325  -27.2545   18.8100 C   0  0  0  0  0  0  0  0  0  0  0  0
  -27.5395  -28.6268   20.7819 C   0  0  0  0  0  0  0  0  0  0  0  0
  -26.4496   -7.7237   17.8904 C   0  0  1  0  0  0  0  0  0  0  0  0
  -25.8348  -10.4908   20.4199 C   0  0  1  0  0  0  0  0  0  0  0  0
  -26.0680  -29.0116   21.0013 C   0  0  1  0  0  0  0  0  0  0  0  0
  -29.2531  -21.1979   22.0851 C   0  0  0  0  0  0  0  0  0  0  0  0
  -20.0306  -14.6517   23.4200 C   0  0  0  0  0  0  0  0  0  0  0  0
  -21.8445  -11.0605   18.1585 C   0  0  0  0  0  0  0  0  0  0  0  0
  -20.2211  -12.6451   19.2178 C   0  0  0  0  0  0  0  0  0  0  0  0
  -20.5858  -10.3863   20.2117 C   0  0  0  0  0  0  0  0  0  0  0  0
  -23.6816  -14.7467   24.4865 C   0  0  0  0  0  0  0  0  0  0  0  0
  -29.7141  -16.6388   18.9280 C   0  0  0  0  0  0  0  0  0  1  0  0
  -22.3876  -12.1454   20.4376 C   0  0  1  0  0  0  0  0  0  0  0  0
  -21.4579  -14.1377   23.5257 C   0  0  2  0  0  0  0  0  0  0  0  0
  -21.2873  -11.5661   19.5042 C   0  0  0  0  0  0  0  0  0  0  0  0
  -26.8567  -31.2979   21.4852 N   0  0  0  0  0  0  0  0  0  0  0  0
  -25.9321  -30.3482   21.7073 N   0  0  0  0  0  0  0  0  0  0  0  0
  -27.6587  -27.3408   20.0859 N   0  0  0  0  0  0  0  0  0  0  0  0
  -24.7740  -11.4973   20.3428 N   0  0  0  0  0  0  0  0  0  0  0  0
  -23.9424  -29.8936   22.9094 N   0  0  0  0  0  0  0  0  0  0  0  0
  -24.9506  -34.1245   24.1253 N   0  0  0  0  0  0  0  0  0  0  0  0
  -26.2945   -8.5243   19.0860 N   0  0  0  0  0  0  0  0  0  0  0  0
  -21.8926  -12.6070   21.7300 N   0  0  0  0  0  0  0  0  0  0  0  0
  -22.2616  -15.1352   24.2873 N   0  3  0  0  0  0  0  0  0  0  0  0
  -23.4595  -32.4076   24.4205 O   0  0  0  0  0  0  0  0  0  0  0  0
  -29.0585  -26.4435   21.7147 O   0  0  0  0  0  0  0  0  0  0  0  0
  -25.7131  -10.5334   18.0622 O   0  0  0  0  0  0  0  0  0  0  0  0
  -23.1857  -10.0862   21.3032 O   0  0  0  0  0  0  0  0  0  0  0  0
  -22.6326  -14.7945   21.5191 O   0  0  0  0  0  0  0  0  0  0  0  0
  -28.9434  -22.4333   18.6329 O   0  0  0  0  0  0  0  0  0  0  0  0
  -29.3252  -37.0993   22.3791 O   0  0  0  0  0  0  0  0  0  0  0  0
  -28.5763  -15.9526   18.4075 O   0  0  0  0  0  0  0  0  0  1  0  0
  -30.2359  -39.4065   27.3036 F   0  0  0  0  0  0  0  0  0  0  0  0
  -27.2191  -37.8691   23.9959 F   0  0  0  0  0  0  0  0  0  0  0  0
  1  2  1  0  0  0  0
  1  5  2  0  0  0  0
  2  6  2  0  0  0  0
  3  8  2  0  0  0  0
  3 16  1  0  0  0  0
  4  9  1  0  0  0  0
  4 16  2  0  0  0  0
  5 19  1  0  0  0  0
  6 21  1  0  0  0  0
  7 10  2  0  0  0  0
  7 20  1  0  0  0  0
  8 24  1  0  0  0  0
  9 24  2  0  0  0  0
 10 25  1  0  0  0  0
 11 12  2  0  0  0  0
 11 26  1  0  0  0  0
 12 27  1  0  0  0  0
 13 22  1  0  0  0  0
 13 25  2  0  0  0  0
 14 27  2  0  0  0  0
 14 28  1  0  0  0  0
 15 17  2  0  0  0  0
 15 77  1  0  0  0  0
 16 29  1  0  0  0  0
 17 23  1  0  0  0  0
 17 32  1  0  0  0  0
 18 29  1  0  0  0  0
 18 31  2  0  0  0  0
 18 36  1  0  0  0  0
 19 21  2  0  0  0  0
 19 41  1  0  0  0  0
 20 22  2  0  0  0  0
 20 42  1  0  0  0  0
 21 50  1  0  0  0  0
 22 43  1  0  0  0  0
 23 30  2  0  0  0  0
 23 53  1  0  0  0  0
 24 78  1  0  0  0  0
 25 79  1  0  0  0  0
 26 28  2  0  0  0  0
 26 78  1  0  0  0  0
 27 80  1  0  0  0  0
 28 81  1  0  0  0  0
 29 63  2  0  0  0  0
 30 33  1  0  0  0  0
 30 77  1  0  0  0  0
 31 64  1  0  0  0  0
 31 67  1  0  0  0  0
 32 35  2  0  0  0  0
 33 34  2  0  0  0  0
 34 37  1  0  0  0  0
 35 59  1  0  0  0  0
 36 68  1  0  0  0  0
 36 72  2  0  0  0  0
 37 65  1  0  0  0  0
 37 73  2  0  0  0  0
 38 51  1  0  0  0  0
 38 69  1  0  0  0  0
 38 74  2  0  0  0  0
 39 60  1  0  0  0  0
 39 66  1  0  0  0  0
 39 75  2  0  0  0  0
 40 61  1  0  0  0  0
 40 70  1  0  0  0  0
 40 76  2  0  0  0  0
 41 44  1  0  0  0  0
 42 51  1  0  0  0  0
 43 66  1  0  0  0  0
 44 46  1  0  0  0  0
 45 47  1  0  0  0  0
 45 48  1  0  0  0  0
 46 50  1  0  0  0  0
 47 52  1  0  0  0  0
 48 65  1  0  0  0  0
 49 52  1  0  0  0  0
 49 65  1  0  0  0  0
 50 69  1  0  0  0  0
 51 66  1  0  0  0  0
 52 64  1  0  0  0  0
 54 61  1  0  0  0  0
 55 62  1  0  0  0  0
 56 62  1  0  0  0  0
 57 62  1  0  0  0  0
 58 71  1  0  0  0  0
 59 79  1  0  0  0  0
 60 62  1  0  0  0  0
 60 70  1  0  0  0  0
 61 71  1  0  0  0  0
 63 64  1  0  0  0  0
M  CHG  1  71   1
M  ISO  4  34 100  37 100  59 101  79 101
M  END
> <Batch ID>
0114

> <Smiles>
CNC(C)C(=O)NC(C(=O)N1Cc2cc([101O:1][101CH2:1]C=Cc3coc(C=[100CH:0][100C:0](=O)N4CCCC(n5nc(-c6ccc(Oc7ccc(F)cc7F)cc6)c(C(N)=O)c5N)C4)c3C)ccc2CC1C(=O)NC1CCCc2ccccc21)C(C)(C)C

> <Shape>
0.246

> <Color>
0.093

> <Negative vol penalty>
0.000

$$$$

  -OEChem-04052301373D

 88 96  0     1  0  0  0  0  0999 V2000
  -20.5028  -33.4849   24.8718 C   0  0  0  0  0  0  0  0  0  0  0  0
  -21.7732  -33.0678   24.4878 C   0  0  0  0  0  0  0  0  0  0  0  0
  -23.9269  -13.0847   20.7387 C   0  0  0  0  0  0  0  0  0  0  0  0
  -26.3390  -13.2211   20.7398 C   0  0  0  0  0  0  0  0  0  0  0  0
  -19.4583  -32.5638   24.9379 C   0  0  0  0  0  0  0  0  0  0  0  0
  -22.0001  -31.7290   24.1707 C   0  0  0  0  0  0  0  0  0  0  0  0
  -25.8418  -29.5503   19.9281 C   0  0  0  0  0  0  0  0  0  0  0  0
  -24.0055  -11.6930   20.7898 C   0  0  0  0  0  0  0  0  0  0  0  0
  -26.4177  -11.8293   20.7910 C   0  0  0  0  0  0  0  0  0  0  0  0
  -27.1346  -29.0345   20.0095 C   0  0  0  0  0  0  0  0  0  0  0  0
  -24.5876   -9.3150   23.1220 C   0  0  0  0  0  0  0  0  0  0  0  0
  -23.7516   -8.6510   24.0196 C   0  0  0  0  0  0  0  0  0  0  0  0
  -26.2316  -26.7986   20.0786 C   0  0  0  0  0  0  0  0  0  0  0  0
  -29.5360  -23.4701   16.5946 C   0  0  0  0  0  0  0  0  0  0  0  0
  -22.7337   -7.4527   22.1852 C   0  0  0  0  0  0  0  0  0  0  0  0
  -25.0937  -13.8487   20.7136 C   0  0  0  0  0  0  0  0  0  0  0  0
  -30.0152  -21.0106   17.8208 C   0  0  0  0  0  0  0  0  0  0  0  0
  -24.9625  -16.1760   21.7500 C   0  0  0  0  0  0  0  0  0  0  0  0
  -19.6702  -31.2149   24.6122 C   0  0  0  0  0  0  0  0  0  0  0  0
  -24.7320  -28.6932   19.9323 C   0  0  0  0  0  0  0  0  0  0  0  0
  -20.9577  -30.7887   24.2338 C   0  0  0  0  0  0  0  0  0  0  0  0
  -24.9260  -27.3059   19.9945 C   0  0  0  0  0  0  0  0  0  0  0  0
  -29.4534  -21.0561   16.5448 C   0  0  0  0  0  0  0  0  0  0  0  0
  -30.0977  -23.4247   17.8705 C   0  0  0  0  0  0  0  0  0  0  0  0
  -25.2509  -11.0653   20.8160 C   0  0  0  0  0  0  0  0  0  0  0  0
  -27.3295  -27.6587   20.0877 C   0  0  0  0  0  0  0  0  0  0  0  0
  -24.4967   -9.0479   21.7560 C   0  0  0  0  0  0  0  0  0  0  0  0
  -30.3373  -22.1949   18.4836 C   0  0  0  0  0  0  0  0  0  0  0  0
  -22.8246   -7.7199   23.5513 C   0  0  0  0  0  0  0  0  0  0  0  0
  -29.2138  -22.2858   15.9317 C   0  0  0  0  0  0  0  0  0  0  0  0
  -23.5698   -8.1168   21.2876 C   0  0  0  0  0  0  0  0  0  0  0  0
  -25.0131  -15.2863   20.6602 C   0  0  0  0  0  0  0  0  0  0  0  0
  -24.8932  -17.4210   21.1740 C   0  0  0  0  0  0  0  0  0  0  0  0
  -29.6995  -19.3498   19.5977 C   0  0  0  0  0  0  0  0  0  0  0  0
  -30.2700  -19.7254   18.4646 C   0  0  0  0  0  0  0  0  0  0  0  0
  -24.9769  -15.9016   23.1572 C   0  0  0  0  0  0  0  0  0  0  0  0
  -22.2316  -28.2704   21.8488 C   0  0  0  0  0  0  0  0  0  0  0  0
  -21.2911  -26.2130   19.5240 C   0  0  0  0  0  0  0  0  0  0  0  0
  -30.2450  -25.9327   18.0497 C   0  0  0  0  0  0  0  0  0  0  0  0
  -22.1664  -24.1813   16.9254 C   0  0  0  0  0  0  0  0  0  0  0  0
  -26.6281  -19.5552   15.8555 C   0  0  0  0  0  0  0  0  0  0  0  0
  -18.5211  -30.2470   24.7441 C   0  0  0  0  0  0  0  0  0  0  0  0
  -23.3451  -29.2640   19.8169 C   0  0  0  0  0  0  0  0  0  0  0  0
  -23.7688  -26.3420   19.9821 C   0  0  0  0  0  0  0  0  0  0  0  0
  -18.7585  -28.9187   24.0304 C   0  0  0  0  0  0  0  0  0  0  0  0
  -23.3442  -19.6404   17.2287 C   0  0  0  0  0  0  0  0  0  0  0  0
  -20.1515  -28.3839   24.3473 C   0  0  0  0  0  0  0  0  0  0  0  0
  -23.3950  -18.6145   18.3622 C   0  0  0  0  0  0  0  0  0  0  0  0
  -24.1828  -19.2000   16.0308 C   0  0  0  0  0  0  0  0  0  0  0  0
  -25.6332  -17.8327   17.4802 C   0  0  0  0  0  0  0  0  0  0  0  0
  -21.2376  -29.3497   23.8583 C   0  0  1  0  0  0  0  0  0  0  0  0
  -22.2664  -28.3248   20.3477 C   0  0  1  0  0  0  0  0  0  0  0  0
  -24.8476  -18.2590   18.7321 C   0  0  2  0  0  0  0  0  0  0  0  0
  -21.1829  -22.5996   15.2437 C   0  0  0  0  0  0  0  0  0  0  0  0
  -21.0012  -24.0888   21.6950 C   0  0  0  0  0  0  0  0  0  0  0  0
  -20.9558  -22.3521   19.8922 C   0  0  0  0  0  0  0  0  0  0  0  0
  -19.1723  -24.0935   19.9894 C   0  0  0  0  0  0  0  0  0  0  0  0
  -23.0919  -25.8375   14.6539 C   0  0  0  0  0  0  0  0  0  0  0  0
  -32.3100  -22.1159   19.8095 C   0  0  0  0  0  0  0  0  0  0  0  0
  -29.0966  -19.8067   15.8043 C   0  0  0  0  0  0  0  0  0  0  0  0
  -30.7266  -26.9493   19.0785 C   0  0  0  0  0  0  0  0  0  0  0  0
  -29.6309  -27.8989   19.5385 C   0  0  0  0  0  0  0  0  0  1  0  0
  -21.5003  -24.7437   19.2480 C   0  0  1  0  0  0  0  0  0  0  0  0
  -21.5982  -24.0352   15.5253 C   0  0  2  0  0  0  0  0  0  0  0  0
  -20.6793  -23.8375   20.2084 C   0  0  0  0  0  0  0  0  0  0  0  0
  -24.9787  -15.9129   19.4811 N   0  0  0  0  0  0  0  0  0  0  0  0
  -24.9057  -17.2095   19.8267 N   0  0  0  0  0  0  0  0  0  0  0  0
  -22.4318  -26.9491   19.8742 N   0  0  0  0  0  0  0  0  0  0  0  0
  -25.5495  -18.8791   16.4493 N   0  0  0  0  0  0  0  0  0  0  0  0
  -24.8233  -18.6649   21.6937 N   0  0  0  0  0  0  0  0  0  0  0  0
  -25.0514  -14.5665   23.5769 N   0  0  0  0  0  0  0  0  0  0  0  0
  -30.4202  -24.6364   18.5266 N   0  0  0  0  0  0  0  0  0  0  0  0
  -21.4177  -29.2253   22.4277 N   0  0  0  0  0  0  0  0  0  0  0  0
  -21.1964  -24.5465   17.8348 N   0  0  0  0  0  0  0  0  0  0  0  0
  -27.8894  -19.1954   16.3142 N   0  0  0  0  0  0  0  0  0  0  0  0
  -22.6118  -24.4390   14.5102 N   0  3  0  0  0  0  0  0  0  0  0  0
  -24.9086  -16.8125   24.0170 O   0  0  0  0  0  0  0  0  0  0  0  0
  -22.8930  -27.4237   22.4382 O   0  0  0  0  0  0  0  0  0  0  0  0
  -20.1584  -26.6916   19.4253 O   0  0  0  0  0  0  0  0  0  0  0  0
  -29.7774  -26.2706   16.9673 O   0  0  0  0  0  0  0  0  0  0  0  0
  -23.3515  -23.9870   17.1869 O   0  0  0  0  0  0  0  0  0  0  0  0
  -26.4778  -20.4195   14.9852 O   0  0  0  0  0  0  0  0  0  0  0  0
  -25.3280   -9.7073   20.8662 O   0  0  0  0  0  0  0  0  0  0  0  0
  -30.8883  -22.1609   19.7332 O   0  0  0  0  0  0  0  0  0  0  0  0
  -28.5902  -27.1526   20.1680 O   0  0  0  0  0  0  0  0  0  1  0  0
  -22.0229   -7.0812   24.4135 F   0  0  0  0  0  0  0  0  0  0  0  0
  -28.6752  -22.3411   14.7054 F   0  0  0  0  0  0  0  0  0  0  0  0
  -23.4787   -7.8551   19.9764 F   0  0  0  0  0  0  0  0  0  0  0  0
  1  2  1  0  0  0  0
  1  5  2  0  0  0  0
  2  6  2  0  0  0  0
  3  8  2  0  0  0  0
  3 16  1  0  0  0  0
  4  9  1  0  0  0  0
  4 16  2  0  0  0  0
  5 19  1  0  0  0  0
  6 21  1  0  0  0  0
  7 10  2  0  0  0  0
  7 20  1  0  0  0  0
  8 25  1  0  0  0  0
  9 25  2  0  0  0  0
 10 26  1  0  0  0  0
 11 12  2  0  0  0  0
 11 27  1  0  0  0  0
 12 29  1  0  0  0  0
 13 22  1  0  0  0  0
 13 26  2  0  0  0  0
 14 24  2  0  0  0  0
 14 30  1  0  0  0  0
 15 29  2  0  0  0  0
 15 31  1  0  0  0  0
 16 32  1  0  0  0  0
 17 23  1  0  0  0  0
 17 28  2  0  0  0  0
 17 35  1  0  0  0  0
 18 32  1  0  0  0  0
 18 33  2  0  0  0  0
 18 36  1  0  0  0  0
 19 21  2  0  0  0  0
 19 42  1  0  0  0  0
 20 22  2  0  0  0  0
 20 43  1  0  0  0  0
 21 51  1  0  0  0  0
 22 44  1  0  0  0  0
 23 30  2  0  0  0  0
 23 60  1  0  0  0  0
 24 28  1  0  0  0  0
 24 72  1  0  0  0  0
 25 83  1  0  0  0  0
 26 85  1  0  0  0  0
 27 31  2  0  0  0  0
 27 83  1  0  0  0  0
 28 84  1  0  0  0  0
 29 86  1  0  0  0  0
 30 87  1  0  0  0  0
 31 88  1  0  0  0  0
 32 66  2  0  0  0  0
 33 67  1  0  0  0  0
 33 70  1  0  0  0  0
 34 35  2  0  0  0  0
 36 71  1  0  0  0  0
 36 77  2  0  0  0  0
 37 52  1  0  0  0  0
 37 73  1  0  0  0  0
 37 78  2  0  0  0  0
 38 63  1  0  0  0  0
 38 68  1  0  0  0  0
 38 79  2  0  0  0  0
 39 61  1  0  0  0  0
 39 72  1  0  0  0  0
 39 80  2  0  0  0  0
 40 64  1  0  0  0  0
 40 74  1  0  0  0  0
 40 81  2  0  0  0  0
 41 69  1  0  0  0  0
 41 75  1  0  0  0  0
 41 82  2  0  0  0  0
 42 45  1  0  0  0  0
 43 52  1  0  0  0  0
 44 68  1  0  0  0  0
 45 47  1  0  0  0  0
 46 48  1  0  0  0  0
 46 49  1  0  0  0  0
 47 51  1  0  0  0  0
 48 53  1  0  0  0  0
 49 69  1  0  0  0  0
 50 53  1  0  0  0  0
 50 69  1  0  0  0  0
 51 73  1  0  0  0  0
 52 68  1  0  0  0  0
 53 67  1  0  0  0  0
 54 64  1  0  0  0  0
 55 65  1  0  0  0  0
 56 65  1  0  0  0  0
 57 65  1  0  0  0  0
 58 76  1  0  0  0  0
 59 84  1  0  0  0  0
 60 75  1  0  0  0  0
 61 62  1  0  0  0  0
 62 85  1  0  0  0  0
 63 65  1  0  0  0  0
 63 74  1  0  0  0  0
 64 76  1  0  0  0  0
 66 67  1  0  0  0  0
M  CHG  1  76   1
M  ISO  4  41 100  62 101  75 100  85 101
M  END
> <Batch ID>
0114

> <Smiles>
C=Cc1c(C[100NH:0][100C:0](=O)N2CCCC(n3nc(-c4ccc(Oc5ccc(F)cc5F)cc4)c(C(N)=O)c3N)C2)c(F)cc(NC(=O)C[101CH2:1][101O:1]c2ccc3c(c2)CN(C(=O)C(NC(=O)C(C)NC)C(C)(C)C)C(C(=O)NC2CCCc4ccccc42)C3)c1OC

> <Shape>
0.219

> <Color>
0.075

> <Negative vol penalty>
0.000

$$$$

  -OEChem-04052301373D

 96106  0     1  0  0  0  0  0999 V2000
  -28.1636  -37.1461   21.8468 C   0  0  0  0  0  0  0  0  0  0  0  0
  -28.3798  -35.8077   22.1589 C   0  0  0  0  0  0  0  0  0  0  0  0
  -24.0858  -14.2526   24.3629 C   0  0  0  0  0  0  0  0  0  0  0  0
  -24.8495  -11.9606   24.3785 C   0  0  0  0  0  0  0  0  0  0  0  0
  -26.8890  -37.6950   21.9812 C   0  0  0  0  0  0  0  0  0  0  0  0
  -27.3216  -35.0177   22.6067 C   0  0  0  0  0  0  0  0  0  0  0  0
  -27.2060  -30.4759   20.3698 C   0  0  0  0  0  0  0  0  0  0  0  0
  -23.6677  -14.1223   25.6872 C   0  0  0  0  0  0  0  0  0  0  0  0
  -24.4315  -11.8303   25.7028 C   0  0  0  0  0  0  0  0  0  0  0  0
  -28.1073  -29.5166   20.8295 C   0  0  0  0  0  0  0  0  0  0  0  0
  -21.0451  -12.7891   27.3510 C   0  0  0  0  0  0  0  0  0  0  0  0
  -19.7881  -13.2926   27.6855 C   0  0  0  0  0  0  0  0  0  0  0  0
  -26.3528  -28.5050   22.1401 C   0  0  0  0  0  0  0  0  0  0  0  0
  -20.8121  -14.7866   29.2845 C   0  0  0  0  0  0  0  0  0  0  0  0
  -24.6767  -13.1717   23.7085 C   0  0  0  0  0  0  0  0  0  0  0  0
  -24.3107  -13.6230   21.2245 C   0  0  0  0  0  0  0  0  0  0  0  0
  -25.8126  -36.9088   22.4217 C   0  0  0  0  0  0  0  0  0  0  0  0
  -25.8717  -30.4634   20.8010 C   0  0  0  0  0  0  0  0  0  0  0  0
  -26.0317  -35.5569   22.7484 C   0  0  0  0  0  0  0  0  0  0  0  0
  -25.4360  -29.4637   21.6824 C   0  0  0  0  0  0  0  0  0  0  0  0
  -23.8406  -12.9112   26.3572 C   0  0  0  0  0  0  0  0  0  0  0  0
  -27.6815  -28.5327   21.7170 C   0  0  0  0  0  0  0  0  0  0  0  0
  -22.1856  -13.2842   27.9833 C   0  0  0  0  0  0  0  0  0  0  0  0
  -19.6715  -14.2914   28.6522 C   0  0  0  0  0  0  0  0  0  0  0  0
  -22.0691  -14.2830   28.9500 C   0  0  0  0  0  0  0  0  0  0  0  0
  -25.1083  -13.3055   22.3403 C   0  0  0  0  0  0  0  0  0  0  0  0
  -25.1867  -13.6283   20.1667 C   0  0  0  0  0  0  0  0  0  0  0  0
  -30.1868  -19.0633   23.3051 C   0  0  0  0  0  0  0  0  0  0  0  0
  -32.5711  -19.9090   23.6184 C   0  0  0  0  0  0  0  0  0  0  0  0
  -32.4841  -20.1281   21.1063 C   0  0  0  0  0  0  0  0  0  0  0  0
  -30.6132  -17.8075   22.6472 C   0  0  0  0  0  0  0  0  0  0  0  0
  -31.4083  -17.8006   21.5245 C   0  0  0  0  0  0  0  0  0  0  0  0
  -31.1204  -19.9920   23.6042 C   0  0  0  0  0  0  0  0  0  0  0  0
  -32.3664  -20.6694   22.5137 C   0  0  0  0  0  0  0  0  0  0  0  0
  -32.0029  -18.9198   20.7341 C   0  0  0  0  0  0  0  0  0  0  0  0
  -28.8272  -15.5848   25.1714 C   0  0  0  0  0  0  0  0  0  0  0  0
  -29.3867  -16.6724   24.3801 C   0  0  0  0  0  0  0  0  0  0  0  0
  -28.9674  -14.2690   24.9706 C   0  0  0  0  0  0  0  0  0  0  0  0
  -30.1563  -16.5803   23.2937 C   0  0  0  0  0  0  0  0  0  0  0  0
  -31.7032  -16.4938   20.9227 C   0  0  0  0  0  0  0  0  0  0  0  0
  -29.6142  -25.5189   21.9800 C   0  0  0  0  0  0  0  0  0  0  0  0
  -22.9039  -13.8894   21.1509 C   0  0  0  0  0  0  0  0  0  0  0  0
  -29.9094  -24.3203   21.4525 C   0  0  0  0  0  0  0  0  0  0  0  0
  -28.6260  -26.4437   21.3726 C   0  0  0  0  0  0  0  0  0  1  0  0
  -24.0182  -32.4763   22.4184 C   0  0  0  0  0  0  0  0  0  0  0  0
  -21.7078  -30.3175   21.6945 C   0  0  0  0  0  0  0  0  0  0  0  0
  -20.9000  -27.1080   20.8617 C   0  0  0  0  0  0  0  0  0  0  0  0
  -31.1353  -14.5017   19.9301 C   0  0  0  0  0  0  0  0  0  0  0  0
  -24.4628  -37.5585   22.5964 C   0  0  0  0  0  0  0  0  0  0  0  0
  -24.9056  -31.4892   20.2751 C   0  0  0  0  0  0  0  0  0  0  0  0
  -24.0092  -29.3942   22.1598 C   0  0  0  0  0  0  0  0  0  0  0  0
  -27.9861  -16.1804   26.2669 C   0  0  0  0  0  0  0  0  0  0  0  0
  -28.9079  -17.9750   24.9600 C   0  0  0  0  0  0  0  0  0  0  0  0
  -23.3166  -36.5579   22.7195 C   0  0  0  0  0  0  0  0  0  0  0  0
  -27.6606  -17.5684   25.7326 C   0  0  0  0  0  0  0  0  0  0  0  0
  -29.2764  -11.6711   18.6676 C   0  0  0  0  0  0  0  0  0  0  0  0
  -23.6804  -35.4472   23.6997 C   0  0  0  0  0  0  0  0  0  0  0  0
  -27.9381  -11.7807   19.3973 C   0  0  0  0  0  0  0  0  0  0  0  0
  -30.4323  -12.1397   19.5458 C   0  0  0  0  0  0  0  0  0  0  0  0
  -28.9175  -13.6408   20.8130 C   0  0  0  0  0  0  0  0  0  0  0  0
  -24.9040  -34.6613   23.2136 C   0  0  1  0  0  0  0  0  0  0  0  0
  -23.6941  -31.6886   21.1806 C   0  0  1  0  0  0  0  0  0  0  0  0
  -27.7240  -13.2022   19.9467 C   0  0  2  0  0  0  0  0  0  0  0  0
  -18.9267  -25.6371   20.3720 C   0  0  0  0  0  0  0  0  0  0  0  0
  -21.0593  -30.1998   24.6737 C   0  0  0  0  0  0  0  0  0  0  0  0
  -19.7923  -28.0838   24.2432 C   0  0  0  0  0  0  0  0  0  0  0  0
  -19.0605  -30.2138   23.1707 C   0  0  0  0  0  0  0  0  0  0  0  0
  -21.8607  -26.5341   18.1219 C   0  0  0  0  0  0  0  0  0  0  0  0
  -30.9089  -23.3857   22.0900 C   0  0  0  0  0  0  0  0  0  0  0  0
  -30.3121  -22.0277   22.4591 C   0  0  0  0  0  0  0  0  0  0  0  0
  -21.1634  -29.0730   22.3530 C   0  0  1  0  0  0  0  0  0  0  0  0
  -19.9940  -26.5453   19.7814 C   0  0  2  0  0  0  0  0  0  0  0  0
  -20.2963  -29.3948   23.6028 C   0  0  0  0  0  0  0  0  0  0  0  0
  -26.3922  -13.1222   22.0210 N   0  0  0  0  0  0  0  0  0  0  0  0
  -30.7721  -15.7162   20.4819 N   0  0  0  0  0  0  0  0  0  0  0  0
  -26.4081  -13.3251   20.6926 N   0  0  0  0  0  0  0  0  0  0  0  0
  -31.3026  -21.1936   23.1070 N   0  0  0  0  0  0  0  0  0  0  0  0
  -23.1040  -30.4233   21.6220 N   0  0  0  0  0  0  0  0  0  0  0  0
  -30.1805  -13.4789   20.0804 N   0  0  0  0  0  0  0  0  0  0  0  0
  -25.0237  -13.8626   18.8472 N   0  0  0  0  0  0  0  0  0  0  0  0
  -22.1522  -13.8424   22.3329 N   0  0  0  0  0  0  0  0  0  0  0  0
  -24.5271  -33.7361   22.1664 N   0  0  0  0  0  0  0  0  0  0  0  0
  -20.4584  -28.3347   21.3107 N   0  0  0  0  0  0  0  0  0  0  0  0
  -20.7889  -25.7579   18.7970 N   0  3  0  0  0  0  0  0  0  0  0  0
  -22.3274  -14.1449   20.0665 O   0  0  0  0  0  0  0  0  0  0  0  0
  -27.9833  -26.2359   20.3557 O   0  0  0  0  0  0  0  0  0  0  0  0
  -23.8197  -31.9787   23.5205 O   0  0  0  0  0  0  0  0  0  0  0  0
  -20.9232  -31.1612   21.2540 O   0  0  0  0  0  0  0  0  0  0  0  0
  -21.8974  -26.5168   21.2693 O   0  0  0  0  0  0  0  0  0  0  0  0
  -32.2046  -14.3032   19.3483 O   0  0  0  0  0  0  0  0  0  0  0  0
  -29.2942  -23.8525   20.3076 O   0  0  0  0  0  0  0  0  0  0  0  0
  -23.4329  -12.7838   27.6495 O   0  0  0  0  0  0  0  0  0  0  0  0
  -28.5592  -27.5956   22.1677 O   0  0  0  0  0  0  0  0  0  1  0  0
  -18.4645  -14.7760   28.9723 F   0  0  0  0  0  0  0  0  0  0  0  0
  -23.1613  -14.7634   29.5599 F   0  0  0  0  0  0  0  0  0  0  0  0
  -32.1410  -18.6404   19.4109 F   0  0  0  0  0  0  0  0  0  0  0  0
  1  2  1  0  0  0  0
  1  5  2  0  0  0  0
  2  6  2  0  0  0  0
  3  8  2  0  0  0  0
  3 15  1  0  0  0  0
  4  9  1  0  0  0  0
  4 15  2  0  0  0  0
  5 17  1  0  0  0  0
  6 19  1  0  0  0  0
  7 10  2  0  0  0  0
  7 18  1  0  0  0  0
  8 21  1  0  0  0  0
  9 21  2  0  0  0  0
 10 22  1  0  0  0  0
 11 12  2  0  0  0  0
 11 23  1  0  0  0  0
 12 24  1  0  0  0  0
 13 20  1  0  0  0  0
 13 22  2  0  0  0  0
 14 24  2  0  0  0  0
 14 25  1  0  0  0  0
 15 26  1  0  0  0  0
 16 26  1  0  0  0  0
 16 27  2  0  0  0  0
 16 42  1  0  0  0  0
 17 19  2  0  0  0  0
 17 49  1  0  0  0  0
 18 20  2  0  0  0  0
 18 50  1  0  0  0  0
 19 61  1  0  0  0  0
 20 51  1  0  0  0  0
 21 92  1  0  0  0  0
 22 93  1  0  0  0  0
 23 25  2  0  0  0  0
 23 92  1  0  0  0  0
 24 94  1  0  0  0  0
 25 95  1  0  0  0  0
 26 74  2  0  0  0  0
 27 76  1  0  0  0  0
 27 80  1  0  0  0  0
 28 31  1  0  0  0  0
 28 33  2  0  0  0  0
 29 33  1  0  0  0  0
 29 34  2  0  0  0  0
 30 34  1  0  0  0  0
 30 35  2  0  0  0  0
 31 32  2  0  0  0  0
 31 39  1  0  0  0  0
 32 35  1  0  0  0  0
 32 40  1  0  0  0  0
 33 77  1  0  0  0  0
 34 77  1  0  0  0  0
 35 96  1  0  0  0  0
 36 37  1  0  0  0  0
 36 38  2  0  0  0  0
 36 52  1  0  0  0  0
 37 39  2  0  0  0  0
 37 53  1  0  0  0  0
 40 75  2  0  0  0  0
 41 43  2  0  0  0  0
 41 44  1  0  0  0  0
 42 81  1  0  0  0  0
 42 85  2  0  0  0  0
 43 69  1  0  0  0  0
 43 91  1  0  0  0  0
 44 86  2  0  0  0  0
 44 93  1  0  0  0  0
 45 62  1  0  0  0  0
 45 82  1  0  0  0  0
 45 87  2  0  0  0  0
 46 71  1  0  0  0  0
 46 78  1  0  0  0  0
 46 88  2  0  0  0  0
 47 72  1  0  0  0  0
 47 83  1  0  0  0  0
 47 89  2  0  0  0  0
 48 75  1  0  0  0  0
 48 79  1  0  0  0  0
 48 90  2  0  0  0  0
 49 54  1  0  0  0  0
 50 62  1  0  0  0  0
 51 78  1  0  0  0  0
 52 55  1  0  0  0  0
 53 55  1  0  0  0  0
 54 57  1  0  0  0  0
 56 58  1  0  0  0  0
 56 59  1  0  0  0  0
 57 61  1  0  0  0  0
 58 63  1  0  0  0  0
 59 79  1  0  0  0  0
 60 63  1  0  0  0  0
 60 79  1  0  0  0  0
 61 82  1  0  0  0  0
 62 78  1  0  0  0  0
 63 76  1  0  0  0  0
 64 72  1  0  0  0  0
 65 73  1  0  0  0  0
 66 73  1  0  0  0  0
 67 73  1  0  0  0  0
 68 84  1  0  0  0  0
 69 70  1  0  0  0  0
 70 77  1  0  0  0  0
 71 73  1  0  0  0  0
 71 83  1  0  0  0  0
 72 84  1  0  0  0  0
 74 76  1  0  0  0  0
M  CHG  1  84   1
M  ISO  4  44 101  48 100  75 100  93 101
M  END
> <Batch ID>
0114

> <Smiles>
C=C1CCCC1=CC1=CC2=CC(=CC(F)=C1C=[100N:0][100C:0](=O)N1CCCC(n3nc(-c4ccc(Oc5ccc(F)cc5F)cc4)c(C(N)=O)c3N)C1)N2CCC(=O)C[101C:1](=O)[101O:1]c1ccc2c(c1)CN(C(=O)C(NC(=O)C(C)NC)C(C)(C)C)C(C(=O)NC1CCCc3ccccc31)C2

> <Shape>
0.258

> <Color>
0.096

> <Negative vol penalty>
0.000

$$$$

  -OEChem-04052301373D

 81 89  0     1  0  0  0  0  0999 V2000
  -30.2374  -35.0184   24.5763 C   0  0  0  0  0  0  0  0  0  0  0  0
  -30.2493  -33.8214   23.8676 C   0  0  0  0  0  0  0  0  0  0  0  0
  -24.3065   -7.8775   19.7745 C   0  0  0  0  0  0  0  0  0  0  0  0
  -23.0539   -9.9316   19.9955 C   0  0  0  0  0  0  0  0  0  0  0  0
  -29.1538  -35.3310   25.3962 C   0  0  0  0  0  0  0  0  0  0  0  0
  -29.1781  -32.9356   23.9791 C   0  0  0  0  0  0  0  0  0  0  0  0
  -26.9194  -29.3180   19.5840 C   0  0  0  0  0  0  0  0  0  0  0  0
  -23.3197   -7.1988   20.4894 C   0  0  0  0  0  0  0  0  0  0  0  0
  -22.0670   -9.2529   20.7104 C   0  0  0  0  0  0  0  0  0  0  0  0
  -27.1101  -27.9687   19.2896 C   0  0  0  0  0  0  0  0  0  0  0  0
  -22.4026   -6.8172   23.7202 C   0  0  0  0  0  0  0  0  0  0  0  0
  -22.8171   -5.9359   24.7186 C   0  0  0  0  0  0  0  0  0  0  0  0
  -25.1054  -27.4240   20.5158 C   0  0  0  0  0  0  0  0  0  0  0  0
  -21.7202   -4.1165   23.5680 C   0  0  0  0  0  0  0  0  0  0  0  0
  -27.0601  -17.5039   20.7354 C   0  0  0  0  0  0  0  0  0  0  0  0
  -24.1736   -9.2439   19.5276 C   0  0  0  0  0  0  0  0  0  0  0  0
  -25.2559  -10.1343   17.3960 C   0  0  0  0  0  0  0  0  0  0  0  0
  -28.0644  -34.4531   25.5103 C   0  0  0  0  0  0  0  0  0  0  0  0
  -25.8243  -29.7300   20.3570 C   0  0  0  0  0  0  0  0  0  0  0  0
  -28.0796  -33.2362   24.8023 C   0  0  0  0  0  0  0  0  0  0  0  0
  -24.9016  -28.7794   20.8165 C   0  0  0  0  0  0  0  0  0  0  0  0
  -22.1999   -7.8865   20.9574 C   0  0  0  0  0  0  0  0  0  0  0  0
  -26.2047  -27.0211   19.7580 C   0  0  0  0  0  0  0  0  0  0  0  0
  -21.6468   -6.3483   22.6457 C   0  0  0  0  0  0  0  0  0  0  0  0
  -22.4760   -4.5855   24.6425 C   0  0  0  0  0  0  0  0  0  0  0  0
  -21.3056   -4.9979   22.5696 C   0  0  0  0  0  0  0  0  0  0  0  0
  -25.1930   -9.9457   18.7896 C   0  0  0  0  0  0  0  0  0  0  0  0
  -27.5644  -18.7846   21.0203 C   0  0  0  0  0  0  0  0  0  0  0  0
  -26.4064  -10.8581   17.1990 C   0  0  0  0  0  0  0  0  0  0  0  0
  -28.1672  -16.6991   20.7872 C   0  0  0  0  0  0  0  0  0  0  0  0
  -26.7387  -20.0024   21.0795 C   0  0  0  0  0  0  0  0  0  0  0  0
  -27.1991  -21.2392   21.3246 C   0  0  0  0  0  0  0  0  0  0  0  0
  -24.3548   -9.6945   16.3711 C   0  0  0  0  0  0  0  0  0  0  0  0
  -25.4793  -31.1877   23.1606 C   0  0  0  0  0  0  0  0  0  0  0  0
  -22.3413  -31.1783   22.3391 C   0  0  0  0  0  0  0  0  0  0  0  0
  -19.8281  -29.7625   20.5151 C   0  0  0  0  0  0  0  0  0  0  0  0
  -29.5305  -14.5837   20.6725 C   0  0  0  0  0  0  0  0  0  0  0  0
  -26.9372  -34.8126   26.4456 C   0  0  0  0  0  0  0  0  0  0  0  0
  -25.6181  -31.1922   20.6433 C   0  0  0  0  0  0  0  0  0  0  0  0
  -23.6986  -29.1721   21.6332 C   0  0  0  0  0  0  0  0  0  0  0  0
  -25.6709  -33.9912   26.2175 C   0  0  0  0  0  0  0  0  0  0  0  0
  -30.7293  -11.6143   19.1161 C   0  0  0  0  0  0  0  0  0  0  0  0
  -26.0119  -32.5104   26.0844 C   0  0  0  0  0  0  0  0  0  0  0  0
  -29.4513  -10.8694   18.7234 C   0  0  0  0  0  0  0  0  0  0  0  0
  -30.5752  -12.3399   20.4515 C   0  0  0  0  0  0  0  0  0  0  0  0
  -28.1346  -12.4874   20.1501 C   0  0  0  0  0  0  0  0  0  0  0  0
  -26.9249  -32.2609   24.8779 C   0  0  1  0  0  0  0  0  0  0  0  0
  -24.7498  -31.4437   21.8722 C   0  0  1  0  0  0  0  0  0  0  0  0
  -28.2198  -11.7945   18.7804 C   0  0  2  0  0  0  0  0  0  0  0  0
  -17.3634  -29.9479   20.0815 C   0  0  0  0  0  0  0  0  0  0  0  0
  -21.7711  -29.8464   25.0244 C   0  0  0  0  0  0  0  0  0  0  0  0
  -19.5143  -29.2069   24.1492 C   0  0  0  0  0  0  0  0  0  0  0  0
  -20.1291  -31.6146   24.3674 C   0  0  0  0  0  0  0  0  0  0  0  0
  -20.2586  -30.3336   17.6433 C   0  0  0  0  0  0  0  0  0  0  0  0
  -26.3177  -22.4551   21.3708 C   0  0  0  0  0  0  0  0  0  0  0  0
  -26.7704  -23.5061   20.3589 C   0  0  0  0  0  0  0  0  0  0  0  0
  -25.9076  -24.7585   20.4276 C   0  0  0  0  0  0  0  0  0  1  0  0
  -21.1868  -30.2261   22.5384 C   0  0  1  0  0  0  0  0  0  0  0  0
  -18.7531  -30.3755   19.6359 C   0  0  2  0  0  0  0  0  0  0  0  0
  -20.6739  -30.2156   24.0061 C   0  0  0  0  0  0  0  0  0  0  0  0
  -26.2218  -10.5045   19.4325 N   0  0  0  0  0  0  0  0  0  0  0  0
  -28.8833  -18.7748   21.2327 N   0  0  0  0  0  0  0  0  0  0  0  0
  -26.9421  -11.0512   18.4383 N   0  0  0  0  0  0  0  0  0  0  0  0
  -23.5440  -30.6132   21.8919 N   0  0  0  0  0  0  0  0  0  0  0  0
  -29.3906  -13.2007   20.4302 N   0  0  0  0  0  0  0  0  0  0  0  0
  -27.0021  -11.3417   16.0883 N   0  0  0  0  0  0  0  0  0  0  0  0
  -23.2210   -8.9617   16.7477 N   0  0  0  0  0  0  0  0  0  0  0  0
  -28.3402  -15.3060   20.5941 N   0  0  0  0  0  0  0  0  0  0  0  0
  -26.1588  -32.2867   23.6504 N   0  0  0  0  0  0  0  0  0  0  0  0
  -20.1758  -30.5989   21.5548 N   0  0  0  0  0  0  0  0  0  0  0  0
  -18.9419  -29.9561   18.2183 N   0  3  0  0  0  0  0  0  0  0  0  0
  -24.5579   -9.9299   15.1559 O   0  0  0  0  0  0  0  0  0  0  0  0
  -25.4282  -30.0757   23.6731 O   0  0  0  0  0  0  0  0  0  0  0  0
  -22.1797  -32.3802   22.5647 O   0  0  0  0  0  0  0  0  0  0  0  0
  -20.3085  -28.6513   20.3032 O   0  0  0  0  0  0  0  0  0  0  0  0
  -30.6295  -15.0941   20.9038 O   0  0  0  0  0  0  0  0  0  0  0  0
  -29.2616  -17.4459   21.0832 O   0  0  0  0  0  0  0  0  0  0  0  0
  -21.2366   -7.2244   21.6548 O   0  0  0  0  0  0  0  0  0  0  0  0
  -26.3889  -25.7033   19.4726 O   0  0  0  0  0  0  0  0  0  1  0  0
  -22.8754   -3.7389   25.6006 F   0  0  0  0  0  0  0  0  0  0  0  0
  -20.5807   -4.5413   21.5391 F   0  0  0  0  0  0  0  0  0  0  0  0
  1  2  1  0  0  0  0
  1  5  2  0  0  0  0
  2  6  2  0  0  0  0
  3  8  2  0  0  0  0
  3 16  1  0  0  0  0
  4  9  1  0  0  0  0
  4 16  2  0  0  0  0
  5 18  1  0  0  0  0
  6 20  1  0  0  0  0
  7 10  2  0  0  0  0
  7 19  1  0  0  0  0
  8 22  1  0  0  0  0
  9 22  2  0  0  0  0
 10 23  1  0  0  0  0
 11 12  2  0  0  0  0
 11 24  1  0  0  0  0
 12 25  1  0  0  0  0
 13 21  1  0  0  0  0
 13 23  2  0  0  0  0
 14 25  2  0  0  0  0
 14 26  1  0  0  0  0
 15 28  1  0  0  0  0
 15 30  2  0  0  0  0
 16 27  1  0  0  0  0
 17 27  1  0  0  0  0
 17 29  2  0  0  0  0
 17 33  1  0  0  0  0
 18 20  2  0  0  0  0
 18 38  1  0  0  0  0
 19 21  2  0  0  0  0
 19 39  1  0  0  0  0
 20 47  1  0  0  0  0
 21 40  1  0  0  0  0
 22 78  1  0  0  0  0
 23 79  1  0  0  0  0
 24 26  2  0  0  0  0
 24 78  1  0  0  0  0
 25 80  1  0  0  0  0
 26 81  1  0  0  0  0
 27 61  2  0  0  0  0
 28 31  1  0  0  0  0
 28 62  2  0  0  0  0
 29 63  1  0  0  0  0
 29 66  1  0  0  0  0
 30 68  1  0  0  0  0
 30 77  1  0  0  0  0
 31 32  2  0  0  0  0
 32 55  1  0  0  0  0
 33 67  1  0  0  0  0
 33 72  2  0  0  0  0
 34 48  1  0  0  0  0
 34 69  1  0  0  0  0
 34 73  2  0  0  0  0
 35 58  1  0  0  0  0
 35 64  1  0  0  0  0
 35 74  2  0  0  0  0
 36 59  1  0  0  0  0
 36 70  1  0  0  0  0
 36 75  2  0  0  0  0
 37 65  1  0  0  0  0
 37 68  1  0  0  0  0
 37 76  2  0  0  0  0
 38 41  1  0  0  0  0
 39 48  1  0  0  0  0
 40 64  1  0  0  0  0
 41 43  1  0  0  0  0
 42 44  1  0  0  0  0
 42 45  1  0  0  0  0
 43 47  1  0  0  0  0
 44 49  1  0  0  0  0
 45 65  1  0  0  0  0
 46 49  1  0  0  0  0
 46 65  1  0  0  0  0
 47 69  1  0  0  0  0
 48 64  1  0  0  0  0
 49 63  1  0  0  0  0
 50 59  1  0  0  0  0
 51 60  1  0  0  0  0
 52 60  1  0  0  0  0
 53 60  1  0  0  0  0
 54 71  1  0  0  0  0
 55 56  1  0  0  0  0
 56 57  1  0  0  0  0
 57 79  1  0  0  0  0
 58 60  1  0  0  0  0
 58 70  1  0  0  0  0
 59 71  1  0  0  0  0
 61 63  1  0  0  0  0
 62 77  1  0  0  0  0
M  CHG  1  71   1
M  ISO  4  37 100  57 101  68 100  79 101
M  END
> <Batch ID>
0114

> <Smiles>
CNC(C)C(=O)NC(C(=O)N1Cc2cc([101O:1][101CH2:1]CCC=Cc3cc([100NH:0][100C:0](=O)N4CCCC(n5nc(-c6ccc(Oc7ccc(F)cc7F)cc6)c(C(N)=O)c5N)C4)on3)ccc2CC1C(=O)NC1CCCc2ccccc21)C(C)(C)C

> <Shape>
0.274

> <Color>
0.089

> <Negative vol penalty>
0.000

$$$$

  -OEChem-04052301373D

 84 92  0     1  0  0  0  0  0999 V2000
  -20.4295  -24.6073   24.1368 C   0  0  0  0  0  0  0  0  0  0  0  0
  -21.3576  -24.7859   23.1160 C   0  0  0  0  0  0  0  0  0  0  0  0
  -26.0940  -11.7756   21.1826 C   0  0  0  0  0  0  0  0  0  0  0  0
  -26.0299  -12.1679   18.7995 C   0  0  0  0  0  0  0  0  0  0  0  0
  -19.4712  -25.5889   24.3857 C   0  0  0  0  0  0  0  0  0  0  0  0
  -21.3273  -25.9459   22.3427 C   0  0  0  0  0  0  0  0  0  0  0  0
  -25.9330  -27.9271   21.6306 C   0  0  0  0  0  0  0  0  0  0  0  0
  -24.8450  -11.1584   21.1146 C   0  0  0  0  0  0  0  0  0  0  0  0
  -24.7809  -11.5506   18.7315 C   0  0  0  0  0  0  0  0  0  0  0  0
  -26.7465  -27.3199   20.6749 C   0  0  0  0  0  0  0  0  0  0  0  0
  -23.5990   -8.1514   20.1989 C   0  0  0  0  0  0  0  0  0  0  0  0
  -23.4305   -6.9515   20.8898 C   0  0  0  0  0  0  0  0  0  0  0  0
  -28.4855  -21.1367   14.5619 C   0  0  0  0  0  0  0  0  0  0  0  0
  -29.0200  -18.9837   15.5190 C   0  0  0  0  0  0  0  0  0  0  0  0
  -29.0208  -20.9583   16.9111 C   0  0  0  0  0  0  0  0  0  0  0  0
  -26.1648  -29.0452   19.0925 C   0  0  0  0  0  0  0  0  0  0  0  0
  -21.6672   -7.9547   22.2020 C   0  0  0  0  0  0  0  0  0  0  0  0
  -26.6864  -12.2804   20.0250 C   0  0  0  0  0  0  0  0  0  0  0  0
  -28.6634  -19.7609   14.4169 C   0  0  0  0  0  0  0  0  0  0  0  0
  -28.6643  -21.7354   15.8090 C   0  0  0  0  0  0  0  0  0  0  0  0
  -29.2365  -12.3057   19.9598 C   0  0  0  0  0  0  0  0  0  0  0  0
  -19.4351  -26.7658   23.6214 C   0  0  0  0  0  0  0  0  0  0  0  0
  -25.2196  -29.0938   21.3205 C   0  0  0  0  0  0  0  0  0  0  0  0
  -20.3667  -26.9436   22.5808 C   0  0  0  0  0  0  0  0  0  0  0  0
  -25.3449  -29.6666   20.0468 C   0  0  0  0  0  0  0  0  0  0  0  0
  -29.1987  -19.5824   16.7661 C   0  0  0  0  0  0  0  0  0  0  0  0
  -24.1884  -11.0459   19.8890 C   0  0  0  0  0  0  0  0  0  0  0  0
  -26.8603  -27.8773   19.4047 C   0  0  0  0  0  0  0  0  0  0  0  0
  -22.8017   -9.2530   20.5096 C   0  0  0  0  0  0  0  0  0  0  0  0
  -22.4646   -6.8531   21.8913 C   0  0  0  0  0  0  0  0  0  0  0  0
  -21.8359   -9.1546   21.5111 C   0  0  0  0  0  0  0  0  0  0  0  0
  -27.9764  -12.9187   20.0947 C   0  0  0  0  0  0  0  0  0  0  0  0
  -30.1356  -13.3339   20.1040 C   0  0  0  0  0  0  0  0  0  0  0  0
  -28.0312  -17.8988   12.9512 C   0  0  0  0  0  0  0  0  0  0  0  0
  -28.4784  -19.1360   13.1164 C   0  0  0  0  0  0  0  0  0  0  0  0
  -28.4779  -23.1891   15.9624 C   0  0  0  0  0  0  0  0  0  0  0  0
  -28.2459  -23.8079   17.1285 C   0  0  0  0  0  0  0  0  0  0  0  0
  -29.5649  -10.9300   19.7250 C   0  0  0  0  0  0  0  0  0  0  0  0
  -28.0612  -25.2875   17.1751 C   0  0  0  0  0  0  0  0  0  0  0  0
  -22.1406  -29.8736   21.1948 C   0  0  0  0  0  0  0  0  0  0  0  0
  -23.3169  -32.8499   20.6652 C   0  0  0  0  0  0  0  0  0  0  0  0
  -25.9027  -34.7914   19.5737 C   0  0  0  0  0  0  0  0  0  0  0  0
  -29.7770  -19.2284   19.1923 C   0  0  0  0  0  0  0  0  0  0  0  0
  -18.3509  -27.7774   23.8969 C   0  0  0  0  0  0  0  0  0  0  0  0
  -24.3672  -29.7514   22.3709 C   0  0  0  0  0  0  0  0  0  0  0  0
  -24.6158  -30.9295   19.6700 C   0  0  0  0  0  0  0  0  0  0  0  0
  -18.6222  -29.1454   23.2761 C   0  0  0  0  0  0  0  0  0  0  0  0
  -30.6439  -17.5930   22.2339 C   0  0  0  0  0  0  0  0  0  0  0  0
  -19.0733  -28.9940   21.8268 C   0  0  0  0  0  0  0  0  0  0  0  0
  -30.1784  -16.1515   22.0158 C   0  0  0  0  0  0  0  0  0  0  0  0
  -29.6893  -18.6000   21.5949 C   0  0  0  0  0  0  0  0  0  0  0  0
  -28.9318  -16.9228   19.9572 C   0  0  0  0  0  0  0  0  0  0  0  0
  -20.3816  -28.1993   21.7363 C   0  0  1  0  0  0  0  0  0  0  0  0
  -23.2836  -30.6507   21.7842 C   0  0  1  0  0  0  0  0  0  0  0  0
  -29.8960  -15.8696   20.5271 C   0  0  2  0  0  0  0  0  0  0  0  0
  -26.5552  -37.1894   19.2258 C   0  0  0  0  0  0  0  0  0  0  0  0
  -21.5685  -32.9606   18.1671 C   0  0  0  0  0  0  0  0  0  0  0  0
  -22.9391  -34.9017   17.3786 C   0  0  0  0  0  0  0  0  0  0  0  0
  -21.6282  -35.0800   19.4934 C   0  0  0  0  0  0  0  0  0  0  0  0
  -28.1627  -34.5729   21.4720 C   0  0  0  0  0  0  0  0  0  0  0  0
  -27.8056  -25.8698   18.5492 C   0  0  0  0  0  0  0  0  0  1  0  0
  -23.7077  -33.6429   19.4415 C   0  0  1  0  0  0  0  0  0  0  0  0
  -26.5759  -36.0079   20.1830 C   0  0  2  0  0  0  0  0  0  0  0  0
  -22.4732  -34.1214   18.6263 C   0  0  0  0  0  0  0  0  0  0  0  0
  -28.0631  -14.2343   20.3084 N   0  0  0  0  0  0  0  0  0  0  0  0
  -29.3885  -14.4564   20.3089 N   0  0  0  0  0  0  0  0  0  0  0  0
  -23.7899  -31.5316   20.7296 N   0  0  0  0  0  0  0  0  0  0  0  0
  -29.4722  -18.2723   20.1841 N   0  0  0  0  0  0  0  0  0  0  0  0
  -31.4845  -13.3783   20.0743 N   0  0  0  0  0  0  0  0  0  0  0  0
  -28.5190  -10.0051   19.6016 N   0  0  0  0  0  0  0  0  0  0  0  0
  -29.5606  -18.7927   17.8855 N   0  0  0  0  0  0  0  0  0  0  0  0
  -21.5070  -29.0363   22.0931 N   0  0  0  0  0  0  0  0  0  0  0  0
  -24.5679  -34.7230   19.9126 N   0  0  0  0  0  0  0  0  0  0  0  0
  -27.9948  -35.7005   20.5196 N   0  3  0  0  0  0  0  0  0  0  0  0
  -30.7510  -10.5299   19.6438 O   0  0  0  0  0  0  0  0  0  0  0  0
  -28.1139  -25.9837   16.1648 O   0  0  0  0  0  0  0  0  0  0  0  0
  -21.8538  -30.0237   20.0128 O   0  0  0  0  0  0  0  0  0  0  0  0
  -22.6238  -33.3829   21.5353 O   0  0  0  0  0  0  0  0  0  0  0  0
  -26.5002  -33.9846   18.8648 O   0  0  0  0  0  0  0  0  0  0  0  0
  -30.2246  -20.3415   19.4798 O   0  0  0  0  0  0  0  0  0  0  0  0
  -22.9698  -10.4434   19.8223 O   0  0  0  0  0  0  0  0  0  0  0  0
  -27.6531  -27.2864   18.4698 O   0  0  0  0  0  0  0  0  0  1  0  0
  -22.3018   -5.7003   22.5536 F   0  0  0  0  0  0  0  0  0  0  0  0
  -21.0661  -10.2092   21.8132 F   0  0  0  0  0  0  0  0  0  0  0  0
  1  2  1  0  0  0  0
  1  5  2  0  0  0  0
  2  6  2  0  0  0  0
  3  8  2  0  0  0  0
  3 18  1  0  0  0  0
  4  9  1  0  0  0  0
  4 18  2  0  0  0  0
  5 22  1  0  0  0  0
  6 24  1  0  0  0  0
  7 10  2  0  0  0  0
  7 23  1  0  0  0  0
  8 27  1  0  0  0  0
  9 27  2  0  0  0  0
 10 28  1  0  0  0  0
 11 12  2  0  0  0  0
 11 29  1  0  0  0  0
 12 30  1  0  0  0  0
 13 19  1  0  0  0  0
 13 20  2  0  0  0  0
 14 19  2  0  0  0  0
 14 26  1  0  0  0  0
 15 20  1  0  0  0  0
 15 26  2  0  0  0  0
 16 25  1  0  0  0  0
 16 28  2  0  0  0  0
 17 30  2  0  0  0  0
 17 31  1  0  0  0  0
 18 32  1  0  0  0  0
 19 35  1  0  0  0  0
 20 36  1  0  0  0  0
 21 32  1  0  0  0  0
 21 33  2  0  0  0  0
 21 38  1  0  0  0  0
 22 24  2  0  0  0  0
 22 44  1  0  0  0  0
 23 25  2  0  0  0  0
 23 45  1  0  0  0  0
 24 53  1  0  0  0  0
 25 46  1  0  0  0  0
 26 71  1  0  0  0  0
 27 81  1  0  0  0  0
 28 82  1  0  0  0  0
 29 31  2  0  0  0  0
 29 81  1  0  0  0  0
 30 83  1  0  0  0  0
 31 84  1  0  0  0  0
 32 65  2  0  0  0  0
 33 66  1  0  0  0  0
 33 69  1  0  0  0  0
 34 35  2  0  0  0  0
 36 37  2  0  0  0  0
 37 39  1  0  0  0  0
 38 70  1  0  0  0  0
 38 75  2  0  0  0  0
 39 61  1  0  0  0  0
 39 76  2  0  0  0  0
 40 54  1  0  0  0  0
 40 72  1  0  0  0  0
 40 77  2  0  0  0  0
 41 62  1  0  0  0  0
 41 67  1  0  0  0  0
 41 78  2  0  0  0  0
 42 63  1  0  0  0  0
 42 73  1  0  0  0  0
 42 79  2  0  0  0  0
 43 68  1  0  0  0  0
 43 71  1  0  0  0  0
 43 80  2  0  0  0  0
 44 47  1  0  0  0  0
 45 54  1  0  0  0  0
 46 67  1  0  0  0  0
 47 49  1  0  0  0  0
 48 50  1  0  0  0  0
 48 51  1  0  0  0  0
 49 53  1  0  0  0  0
 50 55  1  0  0  0  0
 51 68  1  0  0  0  0
 52 55  1  0  0  0  0
 52 68  1  0  0  0  0
 53 72  1  0  0  0  0
 54 67  1  0  0  0  0
 55 66  1  0  0  0  0
 56 63  1  0  0  0  0
 57 64  1  0  0  0  0
 58 64  1  0  0  0  0
 59 64  1  0  0  0  0
 60 74  1  0  0  0  0
 61 82  1  0  0  0  0
 62 64  1  0  0  0  0
 62 73  1  0  0  0  0
 63 74  1  0  0  0  0
 65 66  1  0  0  0  0
M  CHG  1  74   1
M  ISO  4  43 100  61 101  71 100  82 101
M  END
> <Batch ID>
0114

> <Smiles>
C=Cc1cc(C=CC(=O)[101CH2:1][101O:1]c2ccc3c(c2)CN(C(=O)C(NC(=O)C(C)NC)C(C)(C)C)C(C(=O)NC2CCCc4ccccc42)C3)cc([100NH:0][100C:0](=O)N2CCCC(n3nc(-c4ccc(Oc5ccc(F)cc5F)cc4)c(C(N)=O)c3N)C2)c1

> <Shape>
0.263

> <Color>
0.097

> <Negative vol penalty>
0.000

$$$$

  -OEChem-04052301373D

 83 92  0     1  0  0  0  0  0999 V2000
  -29.4791  -34.5691   24.9875 C   0  0  0  0  0  0  0  0  0  0  0  0
  -29.3880  -33.2570   24.5340 C   0  0  0  0  0  0  0  0  0  0  0  0
  -27.0005   -7.8626   22.2760 C   0  0  0  0  0  0  0  0  0  0  0  0
  -25.2715   -7.7264   20.5940 C   0  0  0  0  0  0  0  0  0  0  0  0
  -28.3285  -35.2505   25.3823 C   0  0  0  0  0  0  0  0  0  0  0  0
  -28.1462  -32.6252   24.4761 C   0  0  0  0  0  0  0  0  0  0  0  0
  -27.4580  -30.0869   20.1485 C   0  0  0  0  0  0  0  0  0  0  0  0
  -26.3685   -6.8568   23.0071 C   0  0  0  0  0  0  0  0  0  0  0  0
  -24.6395   -6.7206   21.3251 C   0  0  0  0  0  0  0  0  0  0  0  0
  -28.0859  -28.8478   20.0303 C   0  0  0  0  0  0  0  0  0  0  0  0
  -22.6392   -6.4972   24.0416 C   0  0  0  0  0  0  0  0  0  0  0  0
  -21.2565   -6.5846   24.2031 C   0  0  0  0  0  0  0  0  0  0  0  0
  -30.0701  -19.9857   17.8599 C   0  0  0  0  0  0  0  0  0  0  0  0
  -29.8669  -21.3402   18.2168 C   0  0  0  0  0  0  0  0  0  0  0  0
  -26.0079  -27.7497   20.5737 C   0  0  0  0  0  0  0  0  0  0  0  0
  -20.9918   -4.4574   23.0886 C   0  0  0  0  0  0  0  0  0  0  0  0
  -26.4520   -8.2974   21.0694 C   0  0  0  0  0  0  0  0  0  0  0  0
  -28.0856   -9.1754   19.3179 C   0  0  0  0  0  0  0  0  0  0  0  0
  -27.0709  -34.6299   25.3201 C   0  0  0  0  0  0  0  0  0  0  0  0
  -26.1007  -30.1672   20.4914 C   0  0  0  0  0  0  0  0  0  0  0  0
  -26.9779  -33.2985   24.8717 C   0  0  0  0  0  0  0  0  0  0  0  0
  -25.3645  -28.9910   20.6931 C   0  0  0  0  0  0  0  0  0  0  0  0
  -25.1880   -6.2858   22.5317 C   0  0  0  0  0  0  0  0  0  0  0  0
  -27.3616  -27.6790   20.2458 C   0  0  0  0  0  0  0  0  0  0  0  0
  -23.1982   -5.3899   23.4035 C   0  0  0  0  0  0  0  0  0  0  0  0
  -20.4328   -5.5648   23.7266 C   0  0  0  0  0  0  0  0  0  0  0  0
  -22.3745   -4.3700   22.9271 C   0  0  0  0  0  0  0  0  0  0  0  0
  -27.1041   -9.3368   20.3140 C   0  0  0  0  0  0  0  0  0  0  0  0
  -29.7807  -19.2471   18.9836 C   0  0  0  0  0  0  0  0  0  0  0  0
  -28.3775  -10.4550   18.9130 C   0  0  0  0  0  0  0  0  0  0  0  0
  -29.4676  -21.3326   19.5330 C   0  0  0  0  0  0  0  0  0  0  0  0
  -28.5643  -24.4432   21.2300 C   0  0  0  0  0  0  0  0  0  0  0  0
  -29.8372  -17.8411   19.1235 C   0  0  0  0  0  0  0  0  0  0  0  0
  -27.9931  -25.6524   21.2280 C   0  0  0  0  0  0  0  0  0  1  0  0
  -29.5253  -17.1118   20.2454 C   0  0  0  0  0  0  0  0  0  0  0  0
  -28.6803   -7.9761   18.8043 C   0  0  0  0  0  0  0  0  0  0  0  0
  -29.6260  -15.6386   20.2312 C   0  0  0  0  0  0  0  0  0  0  0  0
  -24.4700  -31.4161   22.9173 C   0  0  0  0  0  0  0  0  0  0  0  0
  -21.9053  -30.5651   21.1227 C   0  0  0  0  0  0  0  0  0  0  0  0
  -20.6121  -28.5539   18.6877 C   0  0  0  0  0  0  0  0  0  0  0  0
  -25.8613  -35.3909   25.8022 C   0  0  0  0  0  0  0  0  0  0  0  0
  -25.4315  -31.5108   20.5887 C   0  0  0  0  0  0  0  0  0  0  0  0
  -23.9000  -29.0223   21.0434 C   0  0  0  0  0  0  0  0  0  0  0  0
  -28.6121  -23.5162   22.4031 C   0  0  0  0  0  0  0  0  0  0  0  0
  -29.1474  -23.7656   20.0265 C   0  0  0  0  0  0  0  0  0  0  0  0
  -24.5372  -34.7758   25.3564 C   0  0  0  0  0  0  0  0  0  0  0  0
  -26.0684  -14.8340   19.8737 C   0  0  0  0  0  0  0  0  0  0  0  0
  -24.5431  -33.2685   25.5904 C   0  0  0  0  0  0  0  0  0  0  0  0
  -26.1057  -13.3089   19.9237 C   0  0  0  0  0  0  0  0  0  0  0  0
  -28.6088  -22.1382   21.7474 C   0  0  0  0  0  0  0  0  0  0  0  0
  -27.1366  -15.4618   20.7677 C   0  0  0  0  0  0  0  0  0  0  0  0
  -28.5526  -13.4414   20.5364 C   0  0  0  0  0  0  0  0  0  0  0  0
  -25.6459  -32.5874   24.7710 C   0  0  1  0  0  0  0  0  0  0  0  0
  -24.1703  -31.4894   21.4468 C   0  0  1  0  0  0  0  0  0  0  0  0
  -27.5169  -12.7884   19.6078 C   0  0  1  0  0  0  0  0  0  0  0  0
  -18.4763  -28.0665   17.4638 C   0  0  0  0  0  0  0  0  0  0  0  0
  -20.8491  -29.0725   23.5653 C   0  0  0  0  0  0  0  0  0  0  0  0
  -19.2667  -27.8580   22.0522 C   0  0  0  0  0  0  0  0  0  0  0  0
  -19.1129  -30.3369   22.2841 C   0  0  0  0  0  0  0  0  0  0  0  0
  -21.8055  -29.2807   16.0788 C   0  0  0  0  0  0  0  0  0  0  0  0
  -21.0463  -29.3294   21.0038 C   0  0  1  0  0  0  0  0  0  0  0  0
  -19.7691  -28.8673   17.4648 C   0  0  2  0  0  0  0  0  0  0  0  0
  -20.0968  -29.1483   22.2216 C   0  0  0  0  0  0  0  0  0  0  0  0
  -26.7933  -10.6179   20.5290 N   0  0  0  0  0  0  0  0  0  0  0  0
  -27.5843  -11.2732   19.6624 N   0  0  0  0  0  0  0  0  0  0  0  0
  -29.1326  -22.3536   20.4006 N   0  0  3  0  0  0  0  0  0  0  0  0
  -28.4686  -14.9054   20.4868 N   0  0  0  0  0  0  0  0  0  0  0  0
  -23.2923  -30.3603   21.1331 N   0  0  0  0  0  0  0  0  0  0  0  0
  -29.2329  -10.9489   17.9928 N   0  0  0  0  0  0  0  0  0  0  0  0
  -28.2652   -6.7457   19.3317 N   0  0  0  0  0  0  0  0  0  0  0  0
  -25.2424  -32.4612   23.3869 N   0  0  0  0  0  0  0  0  0  0  0  0
  -20.3596  -29.4316   19.7207 N   0  0  0  0  0  0  0  0  0  0  0  0
  -20.5225  -28.5452   16.2199 N   0  3  0  0  0  0  0  0  0  0  0  0
  -29.5657   -7.9959   17.9160 O   0  0  0  0  0  0  0  0  0  0  0  0
  -30.7315  -15.1464   19.9983 O   0  0  0  0  0  0  0  0  0  0  0  0
  -24.0316  -30.4812   23.5774 O   0  0  0  0  0  0  0  0  0  0  0  0
  -21.3657  -31.6720   21.1962 O   0  0  0  0  0  0  0  0  0  0  0  0
  -21.4117  -27.6212   18.7243 O   0  0  0  0  0  0  0  0  0  0  0  0
  -29.4125  -20.0606   20.0078 O   0  0  0  0  0  0  0  0  0  0  0  0
  -24.5712   -5.3041   23.2447 O   0  0  0  0  0  0  0  0  0  0  0  0
  -27.9723  -26.4682   20.1318 O   0  0  0  0  0  0  0  0  0  1  0  0
  -19.1051   -5.6482   23.8831 F   0  0  0  0  0  0  0  0  0  0  0  0
  -22.9058   -3.3032   22.3143 F   0  0  0  0  0  0  0  0  0  0  0  0
  1  2  1  0  0  0  0
  1  5  2  0  0  0  0
  2  6  2  0  0  0  0
  3  8  2  0  0  0  0
  3 17  1  0  0  0  0
  4  9  1  0  0  0  0
  4 17  2  0  0  0  0
  5 19  1  0  0  0  0
  6 21  1  0  0  0  0
  7 10  2  0  0  0  0
  7 20  1  0  0  0  0
  8 23  1  0  0  0  0
  9 23  2  0  0  0  0
 10 24  1  0  0  0  0
 11 12  2  0  0  0  0
 11 25  1  0  0  0  0
 12 26  1  0  0  0  0
 13 14  1  0  0  0  0
 13 29  2  0  0  0  0
 14 31  2  0  0  0  0
 15 22  1  0  0  0  0
 15 24  2  0  0  0  0
 16 26  2  0  0  0  0
 16 27  1  0  0  0  0
 17 28  1  0  0  0  0
 18 28  1  0  0  0  0
 18 30  2  0  0  0  0
 18 36  1  0  0  0  0
 19 21  2  0  0  0  0
 19 41  1  0  0  0  0
 20 22  2  0  0  0  0
 20 42  1  0  0  0  0
 21 53  1  0  0  0  0
 22 43  1  0  0  0  0
 23 80  1  0  0  0  0
 24 81  1  0  0  0  0
 25 27  2  0  0  0  0
 25 80  1  0  0  0  0
 26 82  1  0  0  0  0
 27 83  1  0  0  0  0
 28 64  2  0  0  0  0
 29 33  1  0  0  0  0
 29 79  1  0  0  0  0
 30 65  1  0  0  0  0
 30 69  1  0  0  0  0
 31 66  1  0  0  0  0
 31 79  1  0  0  0  0
 32 34  2  0  0  0  0
 32 44  1  0  0  0  0
 32 45  1  0  0  0  0
 33 35  2  0  0  0  0
 34 81  1  0  0  0  0
 35 37  1  0  0  0  0
 36 70  1  0  0  0  0
 36 74  2  0  0  0  0
 37 67  1  0  0  0  0
 37 75  2  0  0  0  0
 38 54  1  0  0  0  0
 38 71  1  0  0  0  0
 38 76  2  0  0  0  0
 39 61  1  0  0  0  0
 39 68  1  0  0  0  0
 39 77  2  0  0  0  0
 40 62  1  0  0  0  0
 40 72  1  0  0  0  0
 40 78  2  0  0  0  0
 41 46  1  0  0  0  0
 42 54  1  0  0  0  0
 43 68  1  0  0  0  0
 44 50  1  0  0  0  0
 45 66  1  0  0  0  0
 46 48  1  0  0  0  0
 47 49  1  0  0  0  0
 47 51  1  0  0  0  0
 48 53  1  0  0  0  0
 49 55  1  0  0  0  0
 50 66  1  0  0  0  0
 51 67  1  0  0  0  0
 52 55  1  0  0  0  0
 52 67  1  0  0  0  0
 53 71  1  0  0  0  0
 54 68  1  0  0  0  0
 55 65  1  0  0  0  0
 56 62  1  0  0  0  0
 57 63  1  0  0  0  0
 58 63  1  0  0  0  0
 59 63  1  0  0  0  0
 60 73  1  0  0  0  0
 61 63  1  0  0  0  0
 61 72  1  0  0  0  0
 62 73  1  0  0  0  0
 64 65  1  0  0  0  0
M  CHG  1  73   1
M  ISO  4  34 101  35 100  37 100  81 101
M  END
> <Batch ID>
0114

> <Smiles>
CNC(C)C(=O)NC(C(=O)N1Cc2cc([101O:1][101CH:1]=C3CCN(c4ccc(C=[100CH:0][100C:0](=O)N5CCCC(n6nc(-c7ccc(Oc8ccc(F)cc8F)cc7)c(C(N)=O)c6N)C5)o4)C3)ccc2CC1C(=O)NC1CCCc2ccccc21)C(C)(C)C

> <Shape>
0.287

> <Color>
0.088

> <Negative vol penalty>
0.000

$$$$

  -OEChem-04052301373D

 83 91  0     1  0  0  0  0  0999 V2000
  -27.8477  -10.8625   19.2816 C   0  0  0  0  0  0  0  0  0  0  0  0
  -28.1861  -12.1057   18.7568 C   0  0  0  0  0  0  0  0  0  0  0  0
  -19.8379  -28.6776   22.0986 C   0  0  0  0  0  0  0  0  0  0  0  0
  -20.7829  -26.6904   23.0961 C   0  0  0  0  0  0  0  0  0  0  0  0
  -26.6595  -10.7079   19.9943 C   0  0  0  0  0  0  0  0  0  0  0  0
  -27.3357  -13.1949   18.9436 C   0  0  0  0  0  0  0  0  0  0  0  0
  -29.8247  -17.3942   20.2911 C   0  0  0  0  0  0  0  0  0  0  0  0
  -18.5961  -28.0473   22.0194 C   0  0  0  0  0  0  0  0  0  0  0  0
  -19.5411  -26.0601   23.0169 C   0  0  0  0  0  0  0  0  0  0  0  0
  -30.4868  -18.0932   19.2827 C   0  0  0  0  0  0  0  0  0  0  0  0
  -16.0306  -27.3274   24.1009 C   0  0  0  0  0  0  0  0  0  0  0  0
  -14.9084  -28.0537   24.4994 C   0  0  0  0  0  0  0  0  0  0  0  0
  -31.4796  -25.1185   19.3334 C   0  0  0  0  0  0  0  0  0  0  0  0
  -28.6546  -19.6586   19.1732 C   0  0  0  0  0  0  0  0  0  0  0  0
  -13.9681  -27.8146   22.2868 C   0  0  0  0  0  0  0  0  0  0  0  0
  -29.9480  -25.4531   17.7172 C   0  0  0  0  0  0  0  0  0  0  0  0
  -20.9313  -27.9991   22.6370 C   0  0  0  0  0  0  0  0  0  0  0  0
  -30.9582  -24.6075   18.1193 C   0  0  0  0  0  0  0  0  0  0  0  0
  -22.7100  -29.4210   23.7868 C   0  0  0  0  0  0  0  0  0  0  0  0
  -25.7988  -11.7980   20.1982 C   0  0  0  0  0  0  0  0  0  0  0  0
  -28.5656  -17.8165   20.7413 C   0  0  0  0  0  0  0  0  0  0  0  0
  -26.1341  -13.0545   19.6585 C   0  0  0  0  0  0  0  0  0  0  0  0
  -27.9798  -18.9647   20.1892 C   0  0  0  0  0  0  0  0  0  0  0  0
  -18.4477  -26.7385   22.4785 C   0  0  0  0  0  0  0  0  0  0  0  0
  -29.9005  -19.2239   18.7216 C   0  0  0  0  0  0  0  0  0  0  0  0
  -16.1216  -26.8448   22.7954 C   0  0  0  0  0  0  0  0  0  0  0  0
  -13.8771  -28.2973   23.5923 C   0  0  0  0  0  0  0  0  0  0  0  0
  -15.0903  -27.0884   21.8883 C   0  0  0  0  0  0  0  0  0  0  0  0
  -22.2145  -28.6494   22.7186 C   0  0  0  0  0  0  0  0  0  0  0  0
  -30.7720  -26.2608   19.6364 C   0  0  0  0  0  0  0  0  0  0  0  0
  -23.9621  -29.8100   23.3775 C   0  0  0  0  0  0  0  0  0  0  0  0
  -31.3898  -23.4014   17.3934 C   0  0  0  0  0  0  0  0  0  0  0  0
  -30.8504  -27.1707   20.7057 C   0  0  0  0  0  0  0  0  0  0  0  0
  -32.0798  -22.3823   17.9290 C   0  0  0  0  0  0  0  0  0  0  0  0
  -31.7012  -27.1194   21.7927 C   0  0  0  0  0  0  0  0  0  0  0  0
  -22.0937  -29.7561   25.0372 C   0  0  0  0  0  0  0  0  0  0  0  0
  -25.6539  -16.5421   20.7804 C   0  0  0  0  0  0  0  0  0  0  0  0
  -27.7424  -27.3327   19.5242 C   0  0  0  0  0  0  0  0  0  0  0  0
  -24.9369  -19.2013   22.4942 C   0  0  0  0  0  0  0  0  0  0  0  0
  -25.7004  -22.4324   23.2838 C   0  0  0  0  0  0  0  0  0  0  0  0
  -24.5023  -11.5715   20.9347 C   0  0  0  0  0  0  0  0  0  0  0  0
  -27.8765  -17.0670   21.8484 C   0  0  0  0  0  0  0  0  0  0  0  0
  -26.6389  -19.4712   20.6514 C   0  0  0  0  0  0  0  0  0  0  0  0
  -23.8378  -12.8613   21.4091 C   0  0  0  0  0  0  0  0  0  0  0  0
  -26.4993  -30.7495   19.4400 C   0  0  0  0  0  0  0  0  0  0  0  0
  -23.8241  -13.8976   20.2899 C   0  0  0  0  0  0  0  0  0  0  0  0
  -25.2794  -30.6536   20.3553 C   0  0  0  0  0  0  0  0  0  0  0  0
  -26.6959  -29.4701   18.6309 C   0  0  0  0  0  0  0  0  0  0  0  0
  -25.5666  -28.1377   20.3841 C   0  0  0  0  0  0  0  0  0  0  0  0
  -25.2497  -14.2656   19.8612 C   0  0  1  0  0  0  0  0  0  0  0  0
  -26.3674  -17.2894   21.8714 C   0  0  1  0  0  0  0  0  0  0  0  0
  -25.3509  -29.3968   21.2402 C   0  0  2  0  0  0  0  0  0  0  0  0
  -31.7430  -28.1067   22.9135 C   0  0  0  0  0  0  0  0  0  0  0  0
  -24.9096  -24.3572   24.6864 C   0  0  0  0  0  0  0  0  0  0  0  0
  -22.6918  -19.7310   20.4970 C   0  0  0  0  0  0  0  0  0  0  0  0
  -22.5717  -22.0780   21.3606 C   0  0  0  0  0  0  0  0  0  0  0  0
  -22.0874  -20.1636   22.8849 C   0  0  0  0  0  0  0  0  0  0  0  0
  -28.2243  -22.4947   24.8283 C   0  0  0  0  0  0  0  0  0  0  0  0
  -32.5122  -21.1726   17.1464 C   0  0  0  0  0  0  0  0  0  0  0  0
  -28.8842  -27.5360   18.5604 C   0  0  0  0  0  0  0  0  0  0  0  0
  -31.9709  -19.8847   17.7560 C   0  0  0  0  0  0  0  0  0  1  0  0
  -24.4696  -20.5967   22.1572 C   0  0  1  0  0  0  0  0  0  0  0  0
  -25.8206  -23.1412   24.6209 C   0  0  2  0  0  0  0  0  0  0  0  0
  -22.9795  -20.6319   21.7146 C   0  0  0  0  0  0  0  0  0  0  0  0
  -23.0809  -28.5530   21.7067 N   0  0  0  0  0  0  0  0  0  0  0  0
  -29.8435  -26.4543   18.6472 N   0  0  0  0  0  0  0  0  0  0  0  0
  -24.1336  -29.2691   22.1372 N   0  0  0  0  0  0  0  0  0  0  0  0
  -26.0018  -18.7005   21.7320 N   0  0  0  0  0  0  0  0  0  0  0  0
  -26.7311  -28.2936   19.5077 N   0  0  0  0  0  0  0  0  0  0  0  0
  -24.9221  -30.5585   23.9610 N   0  0  0  0  0  0  0  0  0  0  0  0
  -20.8036  -29.2738   25.2967 N   0  0  0  0  0  0  0  0  0  0  0  0
  -25.8462  -15.1742   20.8168 N   0  0  0  0  0  0  0  0  0  0  0  0
  -24.7658  -21.4195   23.3249 N   0  0  0  0  0  0  0  0  0  0  0  0
  -27.2233  -23.5924   24.8438 N   0  3  0  0  0  0  0  0  0  0  0  0
  -22.6635  -30.4760   25.8920 O   0  0  0  0  0  0  0  0  0  0  0  0
  -24.9778  -17.1606   19.9668 O   0  0  0  0  0  0  0  0  0  0  0  0
  -27.7522  -26.3502   20.2703 O   0  0  0  0  0  0  0  0  0  0  0  0
  -24.3824  -18.5813   23.4051 O   0  0  0  0  0  0  0  0  0  0  0  0
  -26.3662  -22.7484   22.3002 O   0  0  0  0  0  0  0  0  0  0  0  0
  -17.2360  -26.1233   22.4015 O   0  0  0  0  0  0  0  0  0  0  0  0
  -30.5443  -19.9076   17.7367 O   0  0  0  0  0  0  0  0  0  1  0  0
  -12.7988  -28.9934   23.9755 F   0  0  0  0  0  0  0  0  0  0  0  0
  -15.1716  -26.6263   20.6330 F   0  0  0  0  0  0  0  0  0  0  0  0
  1  2  1  0  0  0  0
  1  5  2  0  0  0  0
  2  6  2  0  0  0  0
  3  8  2  0  0  0  0
  3 17  1  0  0  0  0
  4  9  1  0  0  0  0
  4 17  2  0  0  0  0
  5 20  1  0  0  0  0
  6 22  1  0  0  0  0
  7 10  2  0  0  0  0
  7 21  1  0  0  0  0
  8 24  1  0  0  0  0
  9 24  2  0  0  0  0
 10 25  1  0  0  0  0
 11 12  2  0  0  0  0
 11 26  1  0  0  0  0
 12 27  1  0  0  0  0
 13 18  1  0  0  0  0
 13 30  2  0  0  0  0
 14 23  1  0  0  0  0
 14 25  2  0  0  0  0
 15 27  2  0  0  0  0
 15 28  1  0  0  0  0
 16 18  2  0  0  0  0
 16 66  1  0  0  0  0
 17 29  1  0  0  0  0
 18 32  1  0  0  0  0
 19 29  1  0  0  0  0
 19 31  2  0  0  0  0
 19 36  1  0  0  0  0
 20 22  2  0  0  0  0
 20 41  1  0  0  0  0
 21 23  2  0  0  0  0
 21 42  1  0  0  0  0
 22 50  1  0  0  0  0
 23 43  1  0  0  0  0
 24 80  1  0  0  0  0
 25 81  1  0  0  0  0
 26 28  2  0  0  0  0
 26 80  1  0  0  0  0
 27 82  1  0  0  0  0
 28 83  1  0  0  0  0
 29 65  2  0  0  0  0
 30 33  1  0  0  0  0
 30 66  1  0  0  0  0
 31 67  1  0  0  0  0
 31 70  1  0  0  0  0
 32 34  2  0  0  0  0
 33 35  2  0  0  0  0
 34 59  1  0  0  0  0
 35 53  1  0  0  0  0
 36 71  1  0  0  0  0
 36 75  2  0  0  0  0
 37 51  1  0  0  0  0
 37 72  1  0  0  0  0
 37 76  2  0  0  0  0
 38 60  1  0  0  0  0
 38 69  1  0  0  0  0
 38 77  2  0  0  0  0
 39 62  1  0  0  0  0
 39 68  1  0  0  0  0
 39 78  2  0  0  0  0
 40 63  1  0  0  0  0
 40 73  1  0  0  0  0
 40 79  2  0  0  0  0
 41 44  1  0  0  0  0
 42 51  1  0  0  0  0
 43 68  1  0  0  0  0
 44 46  1  0  0  0  0
 45 47  1  0  0  0  0
 45 48  1  0  0  0  0
 46 50  1  0  0  0  0
 47 52  1  0  0  0  0
 48 69  1  0  0  0  0
 49 52  1  0  0  0  0
 49 69  1  0  0  0  0
 50 72  1  0  0  0  0
 51 68  1  0  0  0  0
 52 67  1  0  0  0  0
 54 63  1  0  0  0  0
 55 64  1  0  0  0  0
 56 64  1  0  0  0  0
 57 64  1  0  0  0  0
 58 74  1  0  0  0  0
 59 61  1  0  0  0  0
 60 66  1  0  0  0  0
 61 81  1  0  0  0  0
 62 64  1  0  0  0  0
 62 73  1  0  0  0  0
 63 74  1  0  0  0  0
 65 67  1  0  0  0  0
M  CHG  1  74   1
M  ISO  4  38 100  60 100  61 101  81 101
M  END
> <Batch ID>
0114

> <Smiles>
CC=Cc1cc(C=CC[101CH2:1][101O:1]c2ccc3c(c2)CN(C(=O)C(NC(=O)C(C)NC)C(C)(C)C)C(C(=O)NC2CCCc4ccccc42)C3)cn1[100CH2:0][100C:0](=O)N1CCCC(n2nc(-c3ccc(Oc4ccc(F)cc4F)cc3)c(C(N)=O)c2N)C1

> <Shape>
0.255

> <Color>
0.063

> <Negative vol penalty>
0.000

$$$$

  -OEChem-04052301373D

 87 95  0     1  0  0  0  0  0999 V2000
  -28.7662  -25.8210   15.8009 C   0  0  0  0  0  0  0  0  0  0  0  0
  -27.5638  -26.3425   16.2648 C   0  0  0  0  0  0  0  0  0  0  0  0
  -25.8655  -15.1083   20.9697 C   0  0  0  0  0  0  0  0  0  0  0  0
  -28.1157  -14.3759   20.4826 C   0  0  0  0  0  0  0  0  0  0  0  0
  -29.9068  -25.8941   16.5976 C   0  0  0  0  0  0  0  0  0  0  0  0
  -27.5043  -26.9479   17.5205 C   0  0  0  0  0  0  0  0  0  0  0  0
  -23.2898  -29.1800   18.7281 C   0  0  0  0  0  0  0  0  0  0  0  0
  -25.4231  -13.7867   20.9133 C   0  0  0  0  0  0  0  0  0  0  0  0
  -27.6733  -13.0542   20.4263 C   0  0  0  0  0  0  0  0  0  0  0  0
  -22.1254  -28.4771   19.0345 C   0  0  0  0  0  0  0  0  0  0  0  0
  -24.6485  -11.5193   18.5294 C   0  0  0  0  0  0  0  0  0  0  0  0
  -23.4738  -11.2594   17.8235 C   0  0  0  0  0  0  0  0  0  0  0  0
  -22.3804  -21.3387   18.0945 C   0  0  0  0  0  0  0  0  0  0  0  0
  -22.4853  -28.9148   21.3793 C   0  0  0  0  0  0  0  0  0  0  0  0
  -20.8128  -21.8724   19.8536 C   0  0  0  0  0  0  0  0  0  0  0  0
  -22.4602  -10.3821   19.8335 C   0  0  0  0  0  0  0  0  0  0  0  0
  -27.2118  -15.4030   20.7542 C   0  0  0  0  0  0  0  0  0  0  0  0
  -23.0845  -22.5118   18.3659 C   0  0  0  0  0  0  0  0  0  0  0  0
  -28.1398  -17.4600   21.9439 C   0  0  0  0  0  0  0  0  0  0  0  0
  -29.8575  -26.4897   17.8688 C   0  0  0  0  0  0  0  0  0  0  0  0
  -24.0677  -29.7473   19.7476 C   0  0  0  0  0  0  0  0  0  0  0  0
  -28.6501  -27.0528   18.3297 C   0  0  0  0  0  0  0  0  0  0  0  0
  -23.6577  -29.6267   21.0830 C   0  0  0  0  0  0  0  0  0  0  0  0
  -22.6527  -23.3652   19.3812 C   0  0  0  0  0  0  0  0  0  0  0  0
  -21.5168  -23.0456   20.1251 C   0  0  0  0  0  0  0  0  0  0  0  0
  -21.2445  -21.0190   18.8383 C   0  0  0  0  0  0  0  0  0  0  0  0
  -26.3270  -12.7597   20.6416 C   0  0  0  0  0  0  0  0  0  0  0  0
  -21.7245  -28.3419   20.3604 C   0  0  0  0  0  0  0  0  0  0  0  0
  -24.7290  -11.2106   19.8873 C   0  0  0  0  0  0  0  0  0  0  0  0
  -22.3797  -10.6909   18.4755 C   0  0  0  0  0  0  0  0  0  0  0  0
  -23.6349  -10.6420   20.5393 C   0  0  0  0  0  0  0  0  0  0  0  0
  -27.6693  -16.7680   20.8117 C   0  0  0  0  0  0  0  0  0  0  0  0
  -28.4478  -18.7142   21.4763 C   0  0  0  0  0  0  0  0  0  0  0  0
  -24.9326  -24.8597   21.6549 C   0  0  0  0  0  0  0  0  0  0  0  0
  -24.6824  -24.3813   20.4309 C   0  0  0  0  0  0  0  0  0  0  0  0
  -20.2227  -24.8054   20.7984 C   0  0  0  0  0  0  0  0  0  0  0  0
  -24.2890  -22.8261   17.5553 C   0  0  0  0  0  0  0  0  0  0  0  0
  -28.2856  -17.0092   23.2971 C   0  0  0  0  0  0  0  0  0  0  0  0
  -27.0429  -29.3393   20.7897 C   0  0  0  0  0  0  0  0  0  0  0  0
  -26.3107  -31.8676   22.6855 C   0  0  0  0  0  0  0  0  0  0  0  0
  -23.9037  -33.7287   24.2311 C   0  0  0  0  0  0  0  0  0  0  0  0
  -26.5133  -21.9673   16.8930 C   0  0  0  0  0  0  0  0  0  0  0  0
  -31.1239  -26.5488   18.6861 C   0  0  0  0  0  0  0  0  0  0  0  0
  -25.3068  -30.5254   19.3986 C   0  0  0  0  0  0  0  0  0  0  0  0
  -24.4468  -30.2343   22.2129 C   0  0  0  0  0  0  0  0  0  0  0  0
  -30.8642  -26.8050   20.1671 C   0  0  0  0  0  0  0  0  0  0  0  0
  -29.8557  -20.9877   17.4980 C   0  0  0  0  0  0  0  0  0  0  0  0
  -29.9218  -27.9878   20.3325 C   0  0  0  0  0  0  0  0  0  0  0  0
  -29.7218  -19.8667   18.5323 C   0  0  0  0  0  0  0  0  0  0  0  0
  -28.7304  -20.9440   16.4651 C   0  0  0  0  0  0  0  0  0  0  0  0
  -27.2421  -19.7946   18.0530 C   0  0  0  0  0  0  0  0  0  0  0  0
  -28.5545  -27.6886   19.7048 C   0  0  1  0  0  0  0  0  0  0  0  0
  -26.2970  -30.6224   20.5551 C   0  0  1  0  0  0  0  0  0  0  0  0
  -28.3120  -19.8379   19.1560 C   0  0  1  0  0  0  0  0  0  0  0  0
  -23.6139  -35.7105   25.7431 C   0  0  0  0  0  0  0  0  0  0  0  0
  -27.1883  -30.1753   25.0679 C   0  0  0  0  0  0  0  0  0  0  0  0
  -26.0098  -31.7985   26.5661 C   0  0  0  0  0  0  0  0  0  0  0  0
  -27.9217  -32.5644   25.1589 C   0  0  0  0  0  0  0  0  0  0  0  0
  -22.3432  -35.2018   22.1931 C   0  0  0  0  0  0  0  0  0  0  0  0
  -23.4050  -24.6255   19.6741 C   0  0  0  0  0  0  0  0  0  0  0  0
  -19.6587  -25.7622   21.8144 C   0  0  0  0  0  0  0  0  0  0  0  0
  -20.5485  -26.9889   21.9233 C   0  0  0  0  0  0  0  0  0  1  0  0
  -25.7076  -32.0344   24.0593 C   0  0  1  0  0  0  0  0  0  0  0  0
  -23.6809  -35.2286   24.3022 C   0  0  2  0  0  0  0  0  0  0  0  0
  -26.6928  -31.6299   25.1922 C   0  0  0  0  0  0  0  0  0  0  0  0
  -27.6759  -17.5203   19.7081 N   0  0  0  0  0  0  0  0  0  0  0  0
  -21.0664  -23.8917   21.1523 N   0  0  0  0  0  0  0  0  0  0  0  0
  -28.1541  -18.6980   20.1445 N   0  0  0  0  0  0  0  0  0  0  0  0
  -25.6541  -30.9802   21.8211 N   0  0  0  0  0  0  0  0  0  0  0  0
  -27.4292  -20.9288   17.1358 N   0  0  0  0  0  0  0  0  0  0  0  0
  -20.5332  -19.8322   18.5642 N   0  0  0  0  0  0  0  0  0  0  0  0
  -28.9383  -19.8183   22.0786 N   0  0  0  0  0  0  0  0  0  0  0  0
  -27.9223  -15.6910   23.6051 N   0  0  0  0  0  0  0  0  0  0  0  0
  -25.3168  -21.8844   17.6137 N   0  0  0  0  0  0  0  0  0  0  0  0
  -27.7639  -28.8997   19.6959 N   0  0  0  0  0  0  0  0  0  0  0  0
  -25.2431  -33.4152   24.1363 N   0  0  0  0  0  0  0  0  0  0  0  0
  -22.4056  -35.5956   23.6241 N   0  3  0  0  0  0  0  0  0  0  0  0
  -24.2990  -23.8442   16.8689 O   0  0  0  0  0  0  0  0  0  0  0  0
  -28.7094  -17.7584   24.2096 O   0  0  0  0  0  0  0  0  0  0  0  0
  -26.9708  -28.7897   21.8825 O   0  0  0  0  0  0  0  0  0  0  0  0
  -27.3230  -32.5067   22.3878 O   0  0  0  0  0  0  0  0  0  0  0  0
  -22.9820  -32.9163   24.2609 O   0  0  0  0  0  0  0  0  0  0  0  0
  -26.7551  -22.9076   16.1297 O   0  0  0  0  0  0  0  0  0  0  0  0
  -25.8957  -11.4699   20.5868 O   0  0  0  0  0  0  0  0  0  0  0  0
  -20.5888  -27.6556   20.6623 O   0  0  0  0  0  0  0  0  0  1  0  0
  -21.2512  -10.4428   17.7979 F   0  0  0  0  0  0  0  0  0  0  0  0
  -23.7059  -10.3443   21.8440 F   0  0  0  0  0  0  0  0  0  0  0  0
  1  2  1  0  0  0  0
  1  5  2  0  0  0  0
  2  6  2  0  0  0  0
  3  8  2  0  0  0  0
  3 17  1  0  0  0  0
  4  9  1  0  0  0  0
  4 17  2  0  0  0  0
  5 20  1  0  0  0  0
  6 22  1  0  0  0  0
  7 10  2  0  0  0  0
  7 21  1  0  0  0  0
  8 27  1  0  0  0  0
  9 27  2  0  0  0  0
 10 28  1  0  0  0  0
 11 12  2  0  0  0  0
 11 29  1  0  0  0  0
 12 30  1  0  0  0  0
 13 18  1  0  0  0  0
 13 26  2  0  0  0  0
 14 23  1  0  0  0  0
 14 28  2  0  0  0  0
 15 25  2  0  0  0  0
 15 26  1  0  0  0  0
 16 30  2  0  0  0  0
 16 31  1  0  0  0  0
 17 32  1  0  0  0  0
 18 24  2  0  0  0  0
 18 37  1  0  0  0  0
 19 32  1  0  0  0  0
 19 33  2  0  0  0  0
 19 38  1  0  0  0  0
 20 22  2  0  0  0  0
 20 43  1  0  0  0  0
 21 23  2  0  0  0  0
 21 44  1  0  0  0  0
 22 52  1  0  0  0  0
 23 45  1  0  0  0  0
 24 25  1  0  0  0  0
 24 60  1  0  0  0  0
 25 67  1  0  0  0  0
 26 71  1  0  0  0  0
 27 84  1  0  0  0  0
 28 85  1  0  0  0  0
 29 31  2  0  0  0  0
 29 84  1  0  0  0  0
 30 86  1  0  0  0  0
 31 87  1  0  0  0  0
 32 66  2  0  0  0  0
 33 68  1  0  0  0  0
 33 72  1  0  0  0  0
 34 35  2  0  0  0  0
 35 60  1  0  0  0  0
 36 61  1  0  0  0  0
 36 67  2  0  0  0  0
 37 74  1  0  0  0  0
 37 78  2  0  0  0  0
 38 73  1  0  0  0  0
 38 79  2  0  0  0  0
 39 53  1  0  0  0  0
 39 75  1  0  0  0  0
 39 80  2  0  0  0  0
 40 63  1  0  0  0  0
 40 69  1  0  0  0  0
 40 81  2  0  0  0  0
 41 64  1  0  0  0  0
 41 76  1  0  0  0  0
 41 82  2  0  0  0  0
 42 70  1  0  0  0  0
 42 74  1  0  0  0  0
 42 83  2  0  0  0  0
 43 46  1  0  0  0  0
 44 53  1  0  0  0  0
 45 69  1  0  0  0  0
 46 48  1  0  0  0  0
 47 49  1  0  0  0  0
 47 50  1  0  0  0  0
 48 52  1  0  0  0  0
 49 54  1  0  0  0  0
 50 70  1  0  0  0  0
 51 54  1  0  0  0  0
 51 70  1  0  0  0  0
 52 75  1  0  0  0  0
 53 69  1  0  0  0  0
 54 68  1  0  0  0  0
 55 64  1  0  0  0  0
 56 65  1  0  0  0  0
 57 65  1  0  0  0  0
 58 65  1  0  0  0  0
 59 77  1  0  0  0  0
 61 62  1  0  0  0  0
 62 85  1  0  0  0  0
 63 65  1  0  0  0  0
 63 76  1  0  0  0  0
 64 77  1  0  0  0  0
 66 68  1  0  0  0  0
M  CHG  1  77   1
M  ISO  4  42 100  62 101  74 100  85 101
M  END
> <Batch ID>
0114

> <Smiles>
C=CCc1c(NC=C[101CH2:1][101O:1]c2ccc3c(c2)CN(C(=O)C(NC(=O)C(C)NC)C(C)(C)C)C(C(=O)NC2CCCc4ccccc42)C3)cc(N)cc1C(=O)[100NH:0][100C:0](=O)N1CCCC(n2nc(-c3ccc(Oc4ccc(F)cc4F)cc3)c(C(N)=O)c2N)C1

> <Shape>
0.269

> <Color>
0.069

> <Negative vol penalty>
0.000

$$$$

  -OEChem-04052301373D

 83 91  0     1  0  0  0  0  0999 V2000
  -22.7678  -22.1872   24.5396 C   0  0  0  0  0  0  0  0  0  0  0  0
  -21.1803  -12.7239   21.0643 C   0  0  0  0  0  0  0  0  0  0  0  0
  -21.5776  -13.9237   21.6456 C   0  0  0  0  0  0  0  0  0  0  0  0
  -31.3559  -26.5018   19.5337 C   0  0  0  0  0  0  0  0  0  0  0  0
  -31.0055  -27.5727   21.6709 C   0  0  0  0  0  0  0  0  0  0  0  0
  -21.8770  -25.9462   22.7168 C   0  0  0  0  0  0  0  0  0  0  0  0
  -22.1374  -11.8446   20.5595 C   0  0  0  0  0  0  0  0  0  0  0  0
  -22.9324  -14.2445   21.7234 C   0  0  0  0  0  0  0  0  0  0  0  0
  -23.8727  -19.0401   20.3956 C   0  0  0  0  0  0  0  0  0  0  0  0
  -21.6275  -24.7053   23.3029 C   0  0  0  0  0  0  0  0  0  0  0  0
  -32.6251  -27.0750   19.4546 C   0  0  0  0  0  0  0  0  0  0  0  0
  -32.2747  -28.1458   21.5918 C   0  0  0  0  0  0  0  0  0  0  0  0
  -23.5919  -20.0285   21.3379 C   0  0  0  0  0  0  0  0  0  0  0  0
  -35.2799  -30.1808   21.7858 C   0  0  0  0  0  0  0  0  0  0  0  0
  -35.4041  -31.5295   22.1191 C   0  0  0  0  0  0  0  0  0  0  0  0
  -23.3516  -25.1322   24.9407 C   0  0  0  0  0  0  0  0  0  0  0  0
  -25.9293  -20.1223   21.9270 C   0  0  0  0  0  0  0  0  0  0  0  0
  -33.8601  -32.1082   20.3533 C   0  0  0  0  0  0  0  0  0  0  0  0
  -30.5461  -26.7507   20.6419 C   0  0  0  0  0  0  0  0  0  0  0  0
  -22.8638  -26.7801   23.2426 C   0  0  0  0  0  0  0  0  0  0  0  0
  -23.6011  -26.3731   24.3546 C   0  0  0  0  0  0  0  0  0  0  0  0
  -28.8968  -24.9162   21.2916 C   0  0  0  0  0  0  0  0  0  0  0  0
  -23.5040  -12.1592   20.6225 C   0  0  0  0  0  0  0  0  0  0  0  0
  -25.1845  -18.5769   20.2192 C   0  0  0  0  0  0  0  0  0  0  0  0
  -23.9087  -13.3680   21.2202 C   0  0  0  0  0  0  0  0  0  0  0  0
  -26.2245  -19.1298   20.9800 C   0  0  0  0  0  0  0  0  0  0  0  0
  -22.3648  -24.2983   24.4149 C   0  0  0  0  0  0  0  0  0  0  0  0
  -33.0845  -27.8970   20.4836 C   0  0  0  0  0  0  0  0  0  0  0  0
  -24.6198  -20.5677   22.1059 C   0  0  0  0  0  0  0  0  0  0  0  0
  -34.4458  -29.7958   20.7361 C   0  0  0  0  0  0  0  0  0  0  0  0
  -34.6942  -32.4932   21.4030 C   0  0  0  0  0  0  0  0  0  0  0  0
  -33.7359  -30.7594   20.0199 C   0  0  0  0  0  0  0  0  0  0  0  0
  -29.2347  -26.1593   20.7240 C   0  0  0  0  0  0  0  0  0  0  0  0
  -27.5378  -24.8180   21.1190 C   0  0  0  0  0  0  0  0  0  0  0  0
  -24.6355  -27.6351   26.1857 C   0  0  0  0  0  0  0  0  0  0  0  0
  -23.4808  -21.2296   24.0385 C   0  0  0  0  0  0  0  0  0  1  0  0
  -24.6405  -27.2189   24.9286 C   0  0  0  0  0  0  0  0  0  0  0  0
  -23.0931  -28.0691   22.6006 C   0  0  0  0  0  0  0  0  0  0  0  0
  -29.7363  -23.9378   21.9190 C   0  0  0  0  0  0  0  0  0  0  0  0
  -22.8546  -28.2587   21.1513 C   0  0  0  0  0  0  0  0  0  0  0  0
  -26.6377  -15.7708   20.5624 C   0  0  0  0  0  0  0  0  0  0  0  0
  -29.1592  -17.3598   19.2820 C   0  0  0  0  0  0  0  0  0  0  0  0
  -30.7134  -20.3427   18.7048 C   0  0  0  0  0  0  0  0  0  0  0  0
  -24.5045  -11.1557   20.1060 C   0  0  0  0  0  0  0  0  0  0  0  0
  -25.4749  -17.5292   19.1797 C   0  0  0  0  0  0  0  0  0  0  0  0
  -27.6528  -18.6815   20.8148 C   0  0  0  0  0  0  0  0  0  0  0  0
  -25.8979  -11.7406   19.8900 C   0  0  0  0  0  0  0  0  0  0  0  0
  -24.2322  -26.9247   18.1216 C   0  0  0  0  0  0  0  0  0  0  0  0
  -26.3180  -12.5775   21.0942 C   0  0  0  0  0  0  0  0  0  0  0  0
  -25.6450  -26.5083   18.5294 C   0  0  0  0  0  0  0  0  0  0  0  0
  -23.7805  -28.1745   18.8700 C   0  0  0  0  0  0  0  0  0  0  0  0
  -25.2761  -27.6314   20.7718 C   0  0  0  0  0  0  0  0  0  0  0  0
  -25.3674  -13.7628   21.3009 C   0  0  1  0  0  0  0  0  0  0  0  0
  -26.7693  -16.7668   19.4452 C   0  0  1  0  0  0  0  0  0  0  0  0
  -25.7565  -26.3564   20.0569 C   0  0  2  0  0  0  0  0  0  0  0  0
  -32.7790  -21.3194   17.6670 C   0  0  0  0  0  0  0  0  0  0  0  0
  -30.7983  -16.4415   21.6862 C   0  0  0  0  0  0  0  0  0  0  0  0
  -32.5013  -18.1810   21.1015 C   0  0  0  0  0  0  0  0  0  0  0  0
  -32.0055  -16.3351   19.4986 C   0  0  0  0  0  0  0  0  0  0  0  0
  -29.1328  -21.9112   16.7553 C   0  0  0  0  0  0  0  0  0  0  0  0
  -30.3033  -18.1736   19.8367 C   0  0  1  0  0  0  0  0  0  0  0  0
  -31.3246  -20.9332   17.4469 C   0  0  2  0  0  0  0  0  0  0  0  0
  -31.3750  -17.2901   20.5355 C   0  0  0  0  0  0  0  0  0  0  0  0
  -28.1758  -26.8045   20.2277 N   0  0  0  0  0  0  0  0  0  0  0  0
  -23.5130  -29.1217   23.2449 N   0  0  0  0  0  0  0  0  0  0  0  0
  -22.1121  -23.0441   25.0067 N   0  0  0  0  0  0  0  0  0  0  0  0
  -27.1591  -25.9635   20.4829 N   0  0  0  0  0  0  0  0  0  0  0  0
  -23.9333  -28.0100   20.3142 N   0  0  0  0  0  0  0  0  0  0  0  0
  -27.8851  -17.6502   19.7900 N   0  0  0  0  0  0  0  0  0  0  0  0
  -26.6417  -23.8644   21.4507 N   0  0  0  0  0  0  0  0  0  0  0  0
  -31.1103  -24.1979   22.0131 N   0  0  0  0  0  0  0  0  0  0  0  0
  -25.6601  -14.8167   20.3533 N   0  0  0  0  0  0  0  0  0  0  0  0
  -30.8157  -18.9678   18.7254 N   0  0  0  0  0  0  0  0  0  0  0  0
  -30.5734  -22.1504   17.0282 N   0  3  0  0  0  0  0  0  0  0  0  0
  -29.2839  -22.8573   22.3677 O   0  0  0  0  0  0  0  0  0  0  0  0
  -21.7249  -28.6171   20.8452 O   0  0  0  0  0  0  0  0  0  0  0  0
  -27.3697  -15.8603   21.5410 O   0  0  0  0  0  0  0  0  0  0  0  0
  -29.3866  -16.5029   18.4243 O   0  0  0  0  0  0  0  0  0  0  0  0
  -30.2001  -21.0324   19.5831 O   0  0  0  0  0  0  0  0  0  0  0  0
  -34.3230  -28.4563   20.4068 O   0  0  0  0  0  0  0  0  0  0  0  0
  -24.3484  -21.5320   23.0268 O   0  0  0  0  0  0  0  0  0  1  0  0
  -34.8124  -33.7882   21.7242 F   0  0  0  0  0  0  0  0  0  0  0  0
  -32.9321  -30.3955   19.0113 F   0  0  0  0  0  0  0  0  0  0  0  0
  1 36  2  0  0  0  0
  1 66  2  0  0  0  0
  2  3  1  0  0  0  0
  2  7  2  0  0  0  0
  3  8  2  0  0  0  0
  4 11  2  0  0  0  0
  4 19  1  0  0  0  0
  5 12  1  0  0  0  0
  5 19  2  0  0  0  0
  6 10  2  0  0  0  0
  6 20  1  0  0  0  0
  7 23  1  0  0  0  0
  8 25  1  0  0  0  0
  9 13  2  0  0  0  0
  9 24  1  0  0  0  0
 10 27  1  0  0  0  0
 11 28  1  0  0  0  0
 12 28  2  0  0  0  0
 13 29  1  0  0  0  0
 14 15  2  0  0  0  0
 14 30  1  0  0  0  0
 15 31  1  0  0  0  0
 16 21  1  0  0  0  0
 16 27  2  0  0  0  0
 17 26  1  0  0  0  0
 17 29  2  0  0  0  0
 18 31  2  0  0  0  0
 18 32  1  0  0  0  0
 19 33  1  0  0  0  0
 20 21  2  0  0  0  0
 20 38  1  0  0  0  0
 21 37  1  0  0  0  0
 22 33  1  0  0  0  0
 22 34  2  0  0  0  0
 22 39  1  0  0  0  0
 23 25  2  0  0  0  0
 23 44  1  0  0  0  0
 24 26  2  0  0  0  0
 24 45  1  0  0  0  0
 25 53  1  0  0  0  0
 26 46  1  0  0  0  0
 27 66  1  0  0  0  0
 28 80  1  0  0  0  0
 29 81  1  0  0  0  0
 30 32  2  0  0  0  0
 30 80  1  0  0  0  0
 31 82  1  0  0  0  0
 32 83  1  0  0  0  0
 33 64  2  0  0  0  0
 34 67  1  0  0  0  0
 34 70  1  0  0  0  0
 35 37  2  0  0  0  0
 36 81  1  0  0  0  0
 38 40  1  0  0  0  0
 38 65  2  0  0  0  0
 39 71  1  0  0  0  0
 39 75  2  0  0  0  0
 40 68  1  0  0  0  0
 40 76  2  0  0  0  0
 41 54  1  0  0  0  0
 41 72  1  0  0  0  0
 41 77  2  0  0  0  0
 42 61  1  0  0  0  0
 42 69  1  0  0  0  0
 42 78  2  0  0  0  0
 43 62  1  0  0  0  0
 43 73  1  0  0  0  0
 43 79  2  0  0  0  0
 44 47  1  0  0  0  0
 45 54  1  0  0  0  0
 46 69  1  0  0  0  0
 47 49  1  0  0  0  0
 48 50  1  0  0  0  0
 48 51  1  0  0  0  0
 49 53  1  0  0  0  0
 50 55  1  0  0  0  0
 51 68  1  0  0  0  0
 52 55  1  0  0  0  0
 52 68  1  0  0  0  0
 53 72  1  0  0  0  0
 54 69  1  0  0  0  0
 55 67  1  0  0  0  0
 56 62  1  0  0  0  0
 57 63  1  0  0  0  0
 58 63  1  0  0  0  0
 59 63  1  0  0  0  0
 60 74  1  0  0  0  0
 61 63  1  0  0  0  0
 61 73  1  0  0  0  0
 62 74  1  0  0  0  0
 64 67  1  0  0  0  0
M  CHG  1  74   1
M  ISO  4  36 101  38 100  40 100  81 101
M  END
> <Batch ID>
0114

> <Smiles>
C=Cc1cc(N=C=[101CH:1][101O:1]c2ccc3c(c2)CN(C(=O)C(NC(=O)C(C)NC)C(C)(C)C)C(C(=O)NC2CCCc4ccccc42)C3)ccc1[100C:0](=N)[100C:0](=O)N1CCCC(n2nc(-c3ccc(Oc4ccc(F)cc4F)cc3)c(C(N)=O)c2N)C1

> <Shape>
0.179

> <Color>
0.073

> <Negative vol penalty>
0.000

$$$$

  -OEChem-04052301373D

 82 90  0     1  0  0  0  0  0999 V2000
  -17.9940  -32.9673   23.6861 C   0  0  0  0  0  0  0  0  0  0  0  0
  -19.2489  -33.1799   23.1244 C   0  0  0  0  0  0  0  0  0  0  0  0
  -24.4232  -11.9589   19.7922 C   0  0  0  0  0  0  0  0  0  0  0  0
  -25.5082  -12.3738   21.9107 C   0  0  0  0  0  0  0  0  0  0  0  0
  -17.7157  -31.7637   24.3326 C   0  0  0  0  0  0  0  0  0  0  0  0
  -20.2266  -32.1894   23.2099 C   0  0  0  0  0  0  0  0  0  0  0  0
  -25.7580  -29.4748   19.5559 C   0  0  0  0  0  0  0  0  0  0  0  0
  -24.7503  -10.6064   19.8896 C   0  0  0  0  0  0  0  0  0  0  0  0
  -25.8352  -11.0213   22.0080 C   0  0  0  0  0  0  0  0  0  0  0  0
  -27.1063  -29.1601   19.7192 C   0  0  0  0  0  0  0  0  0  0  0  0
  -24.9852   -6.9813   19.7537 C   0  0  0  0  0  0  0  0  0  0  0  0
  -23.9927   -6.0505   19.4471 C   0  0  0  0  0  0  0  0  0  0  0  0
  -26.4869  -27.0895   20.7908 C   0  0  0  0  0  0  0  0  0  0  0  0
  -22.6084   -6.9446   21.2139 C   0  0  0  0  0  0  0  0  0  0  0  0
  -24.8022  -12.8426   20.8027 C   0  0  0  0  0  0  0  0  0  0  0  0
  -23.2986  -14.8692   21.1769 C   0  0  0  0  0  0  0  0  0  0  0  0
  -18.6874  -30.7542   24.4176 C   0  0  0  0  0  0  0  0  0  0  0  0
  -24.7623  -28.6029   20.0193 C   0  0  0  0  0  0  0  0  0  0  0  0
  -19.9615  -30.9717   23.8593 C   0  0  0  0  0  0  0  0  0  0  0  0
  -25.1267  -27.3943   20.6298 C   0  0  0  0  0  0  0  0  0  0  0  0
  -25.4562  -10.1376   20.9975 C   0  0  0  0  0  0  0  0  0  0  0  0
  -27.4710  -27.9686   20.3394 C   0  0  0  0  0  0  0  0  0  0  0  0
  -24.7893   -7.8938   20.7904 C   0  0  0  0  0  0  0  0  0  0  0  0
  -22.8043   -6.0321   20.1772 C   0  0  0  0  0  0  0  0  0  0  0  0
  -23.6010   -7.8755   21.5204 C   0  0  0  0  0  0  0  0  0  0  0  0
  -24.4652  -14.2399   20.7025 C   0  0  0  0  0  0  0  0  0  0  0  0
  -23.4588  -16.1903   20.8371 C   0  0  0  0  0  0  0  0  0  0  0  0
  -28.9103  -21.9277   21.0559 C   0  0  0  0  0  0  0  0  0  0  0  0
  -31.0968  -23.3320   20.0680 C   0  0  0  0  0  0  0  0  0  0  0  0
  -30.6630  -22.2480   19.4034 C   0  0  0  0  0  0  0  0  0  0  0  0
  -29.5166  -21.5200   19.9302 C   0  0  0  0  0  0  0  0  0  0  0  0
  -29.3939  -23.1320   21.7919 C   0  0  0  0  0  0  0  0  0  0  0  0
  -22.1712  -14.3095   21.8634 C   0  0  0  0  0  0  0  0  0  0  0  0
  -22.4288  -28.8023   22.1684 C   0  0  0  0  0  0  0  0  0  0  0  0
  -21.6333  -25.8821   21.0014 C   0  0  0  0  0  0  0  0  0  0  0  0
  -22.6215  -23.0336   19.4025 C   0  0  0  0  0  0  0  0  0  0  0  0
  -28.4335  -19.3445   19.9141 C   0  0  0  0  0  0  0  0  0  0  0  0
  -18.3555  -29.4885   25.1676 C   0  0  0  0  0  0  0  0  0  0  0  0
  -23.3123  -28.9445   19.8115 C   0  0  0  0  0  0  0  0  0  0  0  0
  -24.0962  -26.4146   21.1267 C   0  0  0  0  0  0  0  0  0  0  0  0
  -19.3247  -28.3428   24.8878 C   0  0  0  0  0  0  0  0  0  0  0  0
  -25.5559  -19.0116   17.6190 C   0  0  0  0  0  0  0  0  0  0  0  0
  -20.7671  -28.8329   24.9648 C   0  0  0  0  0  0  0  0  0  0  0  0
  -24.8797  -17.7627   18.1764 C   0  0  0  0  0  0  0  0  0  0  0  0
  -27.0760  -18.9551   17.7662 C   0  0  0  0  0  0  0  0  0  0  0  0
  -26.8512  -17.4494   19.7220 C   0  0  0  0  0  0  0  0  0  0  0  0
  -21.0403  -29.9116   23.9098 C   0  0  1  0  0  0  0  0  0  0  0  0
  -22.3832  -28.2229   20.7828 C   0  0  1  0  0  0  0  0  0  0  0  0
  -25.3189  -17.5105   19.6266 C   0  0  2  0  0  0  0  0  0  0  0  0
  -31.3393  -21.7897   18.1437 C   0  0  0  0  0  0  0  0  0  0  0  0
  -21.7569  -20.8095   18.6258 C   0  0  0  0  0  0  0  0  0  0  0  0
  -21.7109  -24.8520   23.8724 C   0  0  0  0  0  0  0  0  0  0  0  0
  -21.7892  -22.5217   22.9605 C   0  0  0  0  0  0  0  0  0  0  0  0
  -19.8137  -23.9737   22.4999 C   0  0  0  0  0  0  0  0  0  0  0  0
  -23.2261  -23.6562   16.5731 C   0  0  0  0  0  0  0  0  0  0  0  0
  -30.6020  -26.2552   21.2009 C   0  0  0  0  0  0  0  0  0  0  0  0
  -31.0307  -24.9666   21.8897 C   0  0  0  0  0  0  0  0  0  0  0  0
  -29.0883  -26.4221   21.1446 C   0  0  0  0  0  0  0  0  0  1  0  0
  -22.0062  -24.4585   21.3379 C   0  0  1  0  0  0  0  0  0  0  0  0
  -22.0075  -22.2613   18.2488 C   0  0  2  0  0  0  0  0  0  0  0  0
  -21.3496  -23.9706   22.6601 C   0  0  0  0  0  0  0  0  0  0  0  0
  -25.3043  -15.0912   20.1065 N   0  0  0  0  0  0  0  0  0  0  0  0
  -24.6643  -16.2689   20.2041 N   0  0  0  0  0  0  0  0  0  0  0  0
  -30.5044  -23.7981   21.2401 N   0  0  0  0  0  0  0  0  0  0  0  0
  -22.6917  -26.7967   20.9060 N   0  0  0  0  0  0  0  0  0  0  0  0
  -27.4756  -18.6490   19.1493 N   0  0  0  0  0  0  0  0  0  0  0  0
  -22.6845  -17.2808   21.0209 N   0  0  0  0  0  0  0  0  0  0  0  0
  -22.1685  -12.9342   22.1333 N   0  0  0  0  0  0  0  0  0  0  0  0
  -29.0542  -20.4139   19.2742 N   0  0  0  0  0  0  0  0  0  0  0  0
  -21.2202  -29.3095   22.6061 N   0  0  0  0  0  0  0  0  0  0  0  0
  -21.6599  -23.6584   20.1681 N   0  0  0  0  0  0  0  0  0  0  0  0
  -22.9135  -22.2900   17.0659 N   0  3  0  0  0  0  0  0  0  0  0  0
  -28.8103  -23.4728   22.8195 O   0  0  0  0  0  0  0  0  0  0  0  0
  -21.1876  -15.0055   22.2122 O   0  0  0  0  0  0  0  0  0  0  0  0
  -23.4820  -28.7888   22.7946 O   0  0  0  0  0  0  0  0  0  0  0  0
  -20.4473  -26.1704   20.8224 O   0  0  0  0  0  0  0  0  0  0  0  0
  -23.8328  -23.0751   19.6066 O   0  0  0  0  0  0  0  0  0  0  0  0
  -28.7141  -19.0235   21.0747 O   0  0  0  0  0  0  0  0  0  0  0  0
  -25.7753   -8.8179   21.0929 O   0  0  0  0  0  0  0  0  0  0  0  0
  -28.7863  -27.6593   20.5007 O   0  0  0  0  0  0  0  0  0  1  0  0
  -21.8507   -5.1391   19.8818 F   0  0  0  0  0  0  0  0  0  0  0  0
  -23.4066   -8.7504   22.5167 F   0  0  0  0  0  0  0  0  0  0  0  0
  1  2  1  0  0  0  0
  1  5  2  0  0  0  0
  2  6  2  0  0  0  0
  3  8  2  0  0  0  0
  3 15  1  0  0  0  0
  4  9  1  0  0  0  0
  4 15  2  0  0  0  0
  5 17  1  0  0  0  0
  6 19  1  0  0  0  0
  7 10  2  0  0  0  0
  7 18  1  0  0  0  0
  8 21  1  0  0  0  0
  9 21  2  0  0  0  0
 10 22  1  0  0  0  0
 11 12  2  0  0  0  0
 11 23  1  0  0  0  0
 12 24  1  0  0  0  0
 13 20  1  0  0  0  0
 13 22  2  0  0  0  0
 14 24  2  0  0  0  0
 14 25  1  0  0  0  0
 15 26  1  0  0  0  0
 16 26  1  0  0  0  0
 16 27  2  0  0  0  0
 16 33  1  0  0  0  0
 17 19  2  0  0  0  0
 17 38  1  0  0  0  0
 18 20  2  0  0  0  0
 18 39  1  0  0  0  0
 19 47  1  0  0  0  0
 20 40  1  0  0  0  0
 21 79  1  0  0  0  0
 22 80  1  0  0  0  0
 23 25  2  0  0  0  0
 23 79  1  0  0  0  0
 24 81  1  0  0  0  0
 25 82  1  0  0  0  0
 26 62  2  0  0  0  0
 27 63  1  0  0  0  0
 27 67  1  0  0  0  0
 28 31  2  0  0  0  0
 28 32  1  0  0  0  0
 29 30  2  0  0  0  0
 29 64  1  0  0  0  0
 30 31  1  0  0  0  0
 30 50  1  0  0  0  0
 31 69  1  0  0  0  0
 32 64  1  0  0  0  0
 32 73  2  0  0  0  0
 33 68  1  0  0  0  0
 33 74  2  0  0  0  0
 34 48  1  0  0  0  0
 34 70  1  0  0  0  0
 34 75  2  0  0  0  0
 35 59  1  0  0  0  0
 35 65  1  0  0  0  0
 35 76  2  0  0  0  0
 36 60  1  0  0  0  0
 36 71  1  0  0  0  0
 36 77  2  0  0  0  0
 37 66  1  0  0  0  0
 37 69  1  0  0  0  0
 37 78  2  0  0  0  0
 38 41  1  0  0  0  0
 39 48  1  0  0  0  0
 40 65  1  0  0  0  0
 41 43  1  0  0  0  0
 42 44  1  0  0  0  0
 42 45  1  0  0  0  0
 43 47  1  0  0  0  0
 44 49  1  0  0  0  0
 45 66  1  0  0  0  0
 46 49  1  0  0  0  0
 46 66  1  0  0  0  0
 47 70  1  0  0  0  0
 48 65  1  0  0  0  0
 49 63  1  0  0  0  0
 51 60  1  0  0  0  0
 52 61  1  0  0  0  0
 53 61  1  0  0  0  0
 54 61  1  0  0  0  0
 55 72  1  0  0  0  0
 56 57  1  0  0  0  0
 56 58  1  0  0  0  0
 57 64  1  0  0  0  0
 58 80  1  0  0  0  0
 59 61  1  0  0  0  0
 59 71  1  0  0  0  0
 60 72  1  0  0  0  0
 62 63  1  0  0  0  0
M  CHG  1  72   1
M  ISO  4  37 100  58 101  69 100  80 101
M  END
> <Batch ID>
0114

> <Smiles>
CNC(C)C(=O)NC(C(=O)N1Cc2cc([101O:1][101CH2:1]CCn3cc(C)c([100NH:0][100C:0](=O)N4CCCC(n5nc(-c6ccc(Oc7ccc(F)cc7F)cc6)c(C(N)=O)c5N)C4)cc3=O)ccc2CC1C(=O)NC1CCCc2ccccc21)C(C)(C)C

> <Shape>
0.230

> <Color>
0.103

> <Negative vol penalty>
0.000

$$$$

  -OEChem-04052301373D

 88 96  0     1  0  0  0  0  0999 V2000
  -32.2701  -31.0557   24.3461 C   0  0  0  0  0  0  0  0  0  0  0  0
  -31.6379  -29.9569   23.7732 C   0  0  0  0  0  0  0  0  0  0  0  0
  -22.6631  -11.1461   19.6784 C   0  0  0  0  0  0  0  0  0  0  0  0
  -23.3617  -10.0582   21.7194 C   0  0  0  0  0  0  0  0  0  0  0  0
  -31.5717  -31.8781   25.2292 C   0  0  0  0  0  0  0  0  0  0  0  0
  -30.3072  -29.6792   24.0838 C   0  0  0  0  0  0  0  0  0  0  0  0
  -27.5579  -28.5208   19.9918 C   0  0  0  0  0  0  0  0  0  0  0  0
  -21.6162  -10.2334   19.5502 C   0  0  0  0  0  0  0  0  0  0  0  0
  -22.3147   -9.1454   21.5912 C   0  0  0  0  0  0  0  0  0  0  0  0
  -27.6980  -27.2339   19.4739 C   0  0  0  0  0  0  0  0  0  0  0  0
  -21.6473   -6.3549   19.8028 C   0  0  0  0  0  0  0  0  0  0  0  0
  -21.9327   -5.0068   20.0189 C   0  0  0  0  0  0  0  0  0  0  0  0
  -28.2067  -20.4600   17.8268 C   0  0  0  0  0  0  0  0  0  0  0  0
  -25.6563  -26.5745   20.5764 C   0  0  0  0  0  0  0  0  0  0  0  0
  -27.7363  -19.6276   20.0456 C   0  0  0  0  0  0  0  0  0  0  0  0
  -20.3297   -4.9571   21.8258 C   0  0  0  0  0  0  0  0  0  0  0  0
  -23.5359  -11.0585   20.7630 C   0  0  0  0  0  0  0  0  0  0  0  0
  -29.0784  -19.3927   17.6112 C   0  0  0  0  0  0  0  0  0  0  0  0
  -29.2790  -18.4427   18.6127 C   0  0  0  0  0  0  0  0  0  0  0  0
  -24.5898  -13.2386   21.5654 C   0  0  0  0  0  0  0  0  0  0  0  0
  -30.2288  -31.6160   25.5434 C   0  0  0  0  0  0  0  0  0  0  0  0
  -26.4699  -28.8417   20.8161 C   0  0  0  0  0  0  0  0  0  0  0  0
  -29.5906  -30.4981   24.9729 C   0  0  0  0  0  0  0  0  0  0  0  0
  -25.5033  -27.8668   21.1013 C   0  0  0  0  0  0  0  0  0  0  0  0
  -27.5357  -20.5776   19.0440 C   0  0  0  0  0  0  0  0  0  0  0  0
  -21.4419   -9.2331   20.5066 C   0  0  0  0  0  0  0  0  0  0  0  0
  -26.7487  -26.2598   19.7686 C   0  0  0  0  0  0  0  0  0  0  0  0
  -20.7031   -7.0042   20.5982 C   0  0  0  0  0  0  0  0  0  0  0  0
  -28.6079  -18.5602   19.8299 C   0  0  0  0  0  0  0  0  0  0  0  0
  -21.2739   -4.3079   21.0304 C   0  0  0  0  0  0  0  0  0  0  0  0
  -20.0443   -6.3052   21.6097 C   0  0  0  0  0  0  0  0  0  0  0  0
  -24.6179  -12.0007   20.8957 C   0  0  0  0  0  0  0  0  0  0  0  0
  -25.8560  -13.7455   21.4032 C   0  0  0  0  0  0  0  0  0  0  0  0
  -30.6002  -20.2232   15.8763 C   0  0  0  0  0  0  0  0  0  0  0  0
  -31.3363  -17.0825   23.0661 C   0  0  0  0  0  0  0  0  0  0  0  0
  -29.7614  -19.3028   16.3261 C   0  0  0  0  0  0  0  0  0  0  0  0
  -30.0404  -17.0225   22.7403 C   0  0  0  0  0  0  0  0  0  0  0  0
  -27.1874  -22.7159   19.7732 C   0  0  0  0  0  0  0  0  0  0  0  0
  -30.2040  -17.2993   18.4033 C   0  0  0  0  0  0  0  0  0  0  0  0
  -23.5153  -13.8735   22.2711 C   0  0  0  0  0  0  0  0  0  0  0  0
  -26.1454  -29.8170   23.8240 C   0  0  0  0  0  0  0  0  0  0  0  0
  -23.0212  -30.0791   22.9917 C   0  0  0  0  0  0  0  0  0  0  0  0
  -20.4783  -29.0998   20.9371 C   0  0  0  0  0  0  0  0  0  0  0  0
  -30.3112  -14.8295   18.2928 C   0  0  0  0  0  0  0  0  0  0  0  0
  -29.5293  -32.5061   26.5399 C   0  0  0  0  0  0  0  0  0  0  0  0
  -26.3189  -30.2417   21.3449 C   0  0  0  0  0  0  0  0  0  0  0  0
  -24.3060  -28.1660   21.9647 C   0  0  0  0  0  0  0  0  0  0  0  0
  -28.0099  -32.3589   26.5266 C   0  0  0  0  0  0  0  0  0  0  0  0
  -30.0778  -11.5706   19.6425 C   0  0  0  0  0  0  0  0  0  0  0  0
  -27.6164  -30.8852   26.5216 C   0  0  0  0  0  0  0  0  0  0  0  0
  -28.6362  -11.4933   20.1525 C   0  0  0  0  0  0  0  0  0  0  0  0
  -30.1757  -12.3545   18.3346 C   0  0  0  0  0  0  0  0  0  0  0  0
  -28.1258  -13.6083   18.8678 C   0  0  0  0  0  0  0  0  0  0  0  0
  -28.1407  -30.1783   25.2659 C   0  0  1  0  0  0  0  0  0  0  0  0
  -25.4447  -30.3180   22.5928 C   0  0  1  0  0  0  0  0  0  0  0  0
  -27.9841  -12.8890   20.2189 C   0  0  1  0  0  0  0  0  0  0  0  0
  -18.0292  -29.4596   20.5246 C   0  0  0  0  0  0  0  0  0  0  0  0
  -22.3607  -28.3372   25.4082 C   0  0  0  0  0  0  0  0  0  0  0  0
  -20.0922  -27.9507   24.4220 C   0  0  0  0  0  0  0  0  0  0  0  0
  -20.8007  -30.2587   25.0497 C   0  0  0  0  0  0  0  0  0  0  0  0
  -20.9710  -30.1301   18.2068 C   0  0  0  0  0  0  0  0  0  0  0  0
  -29.2987  -18.1273   22.0640 C   0  0  0  0  0  0  0  0  0  0  0  0
  -26.3512  -23.9311   20.0426 C   0  0  0  0  0  0  0  0  0  1  0  0
  -21.8266  -29.1565   23.0187 C   0  0  1  0  0  0  0  0  0  0  0  0
  -19.4411  -29.8975   20.1674 C   0  0  2  0  0  0  0  0  0  0  0  0
  -21.2935  -28.9193   24.4599 C   0  0  0  0  0  0  0  0  0  0  0  0
  -25.8076  -11.7373   20.3486 N   0  0  0  0  0  0  0  0  0  0  0  0
  -26.6580  -21.6530   19.2618 N   0  0  0  0  0  0  0  0  0  0  0  0
  -26.5388  -12.8168   20.6743 N   0  0  0  0  0  0  0  0  0  0  0  0
  -24.2061  -29.5477   22.4632 N   0  0  0  0  0  0  0  0  0  0  0  0
  -29.5442  -13.6669   18.4836 N   0  0  0  0  0  0  0  0  0  0  0  0
  -26.4407  -14.8907   21.8143 N   0  0  0  0  0  0  0  0  0  0  0  0
  -22.2805  -13.2143   22.3414 N   0  0  0  0  0  0  0  0  0  0  0  0
  -29.6272  -16.0327   18.4998 N   0  0  0  0  0  0  0  0  0  0  0  0
  -27.3111  -30.4961   24.1234 N   0  0  0  0  0  0  0  0  0  0  0  0
  -20.8451  -29.7327   22.1059 N   0  0  0  0  0  0  0  0  0  0  0  0
  -19.6323  -29.7165   18.7006 N   0  3  0  0  0  0  0  0  0  0  0  0
  -31.3790  -17.5237   18.1262 O   0  0  0  0  0  0  0  0  0  0  0  0
  -23.6415  -14.9997   22.8089 O   0  0  0  0  0  0  0  0  0  0  0  0
  -25.6635  -28.8845   24.4562 O   0  0  0  0  0  0  0  0  0  0  0  0
  -22.9053  -31.2312   23.4170 O   0  0  0  0  0  0  0  0  0  0  0  0
  -20.9162  -28.0212   20.5429 O   0  0  0  0  0  0  0  0  0  0  0  0
  -31.5108  -14.7992   18.0010 O   0  0  0  0  0  0  0  0  0  0  0  0
  -20.4203   -8.3424   20.3819 O   0  0  0  0  0  0  0  0  0  0  0  0
  -28.7883  -17.6443   20.8234 O   0  0  0  0  0  0  0  0  0  0  0  0
  -26.8834  -25.0027   19.2650 O   0  0  0  0  0  0  0  0  0  1  0  0
  -21.5470   -3.0129   21.2368 F   0  0  0  0  0  0  0  0  0  0  0  0
  -19.1354   -6.9233   22.3763 F   0  0  0  0  0  0  0  0  0  0  0  0
  1  2  1  0  0  0  0
  1  5  2  0  0  0  0
  2  6  2  0  0  0  0
  3  8  2  0  0  0  0
  3 17  1  0  0  0  0
  4  9  1  0  0  0  0
  4 17  2  0  0  0  0
  5 21  1  0  0  0  0
  6 23  1  0  0  0  0
  7 10  2  0  0  0  0
  7 22  1  0  0  0  0
  8 26  1  0  0  0  0
  9 26  2  0  0  0  0
 10 27  1  0  0  0  0
 11 12  2  0  0  0  0
 11 28  1  0  0  0  0
 12 30  1  0  0  0  0
 13 18  2  0  0  0  0
 13 25  1  0  0  0  0
 14 24  1  0  0  0  0
 14 27  2  0  0  0  0
 15 25  2  0  0  0  0
 15 29  1  0  0  0  0
 16 30  2  0  0  0  0
 16 31  1  0  0  0  0
 17 32  1  0  0  0  0
 18 19  1  0  0  0  0
 18 36  1  0  0  0  0
 19 29  2  0  0  0  0
 19 39  1  0  0  0  0
 20 32  1  0  0  0  0
 20 33  2  0  0  0  0
 20 40  1  0  0  0  0
 21 23  2  0  0  0  0
 21 45  1  0  0  0  0
 22 24  2  0  0  0  0
 22 46  1  0  0  0  0
 23 54  1  0  0  0  0
 24 47  1  0  0  0  0
 25 68  1  0  0  0  0
 26 84  1  0  0  0  0
 27 86  1  0  0  0  0
 28 31  2  0  0  0  0
 28 84  1  0  0  0  0
 29 85  1  0  0  0  0
 30 87  1  0  0  0  0
 31 88  1  0  0  0  0
 32 67  2  0  0  0  0
 33 69  1  0  0  0  0
 33 72  1  0  0  0  0
 34 36  2  0  0  0  0
 35 37  2  0  0  0  0
 37 62  1  0  0  0  0
 38 63  1  0  0  0  0
 38 68  2  0  0  0  0
 39 74  1  0  0  0  0
 39 78  2  0  0  0  0
 40 73  1  0  0  0  0
 40 79  2  0  0  0  0
 41 55  1  0  0  0  0
 41 75  1  0  0  0  0
 41 80  2  0  0  0  0
 42 64  1  0  0  0  0
 42 70  1  0  0  0  0
 42 81  2  0  0  0  0
 43 65  1  0  0  0  0
 43 76  1  0  0  0  0
 43 82  2  0  0  0  0
 44 71  1  0  0  0  0
 44 74  1  0  0  0  0
 44 83  2  0  0  0  0
 45 48  1  0  0  0  0
 46 55  1  0  0  0  0
 47 70  1  0  0  0  0
 48 50  1  0  0  0  0
 49 51  1  0  0  0  0
 49 52  1  0  0  0  0
 50 54  1  0  0  0  0
 51 56  1  0  0  0  0
 52 71  1  0  0  0  0
 53 56  1  0  0  0  0
 53 71  1  0  0  0  0
 54 75  1  0  0  0  0
 55 70  1  0  0  0  0
 56 69  1  0  0  0  0
 57 65  1  0  0  0  0
 58 66  1  0  0  0  0
 59 66  1  0  0  0  0
 60 66  1  0  0  0  0
 61 77  1  0  0  0  0
 62 85  1  0  0  0  0
 63 86  1  0  0  0  0
 64 66  1  0  0  0  0
 64 76  1  0  0  0  0
 65 77  1  0  0  0  0
 67 69  1  0  0  0  0
M  CHG  1  77   1
M  ISO  4  44 100  63 101  74 100  86 101
M  END
> <Batch ID>
0114

> <Smiles>
C=CCOc1cc(NC=[101CH:1][101O:1]c2ccc3c(c2)CN(C(=O)C(NC(=O)C(C)NC)C(C)(C)C)C(C(=O)NC2CCCc4ccccc42)C3)cc(C=C)c1C(=O)[100NH:0][100C:0](=O)N1CCCC(n2nc(-c3ccc(Oc4ccc(F)cc4F)cc3)c(C(N)=O)c2N)C1

> <Shape>
0.297

> <Color>
0.097

> <Negative vol penalty>
0.000

$$$$

  -OEChem-04052301373D

 86 94  0     1  0  0  0  0  0999 V2000
  -20.2716  -20.8489   14.8635 C   0  0  0  0  0  0  0  0  0  0  0  0
  -21.4853  -20.2314   14.5786 C   0  0  0  0  0  0  0  0  0  0  0  0
  -24.4351  -30.4433   20.0207 C   0  0  0  0  0  0  0  0  0  0  0  0
  -24.0542  -29.2912   22.1099 C   0  0  0  0  0  0  0  0  0  0  0  0
  -19.8516  -20.9811   16.1864 C   0  0  0  0  0  0  0  0  0  0  0  0
  -22.2802  -19.7466   15.6167 C   0  0  0  0  0  0  0  0  0  0  0  0
  -26.8849  -14.4707   17.1260 C   0  0  0  0  0  0  0  0  0  0  0  0
  -23.5650  -31.4572   20.4211 C   0  0  0  0  0  0  0  0  0  0  0  0
  -23.1840  -30.3052   22.5104 C   0  0  0  0  0  0  0  0  0  0  0  0
  -28.1676  -14.2736   17.6354 C   0  0  0  0  0  0  0  0  0  0  0  0
  -19.9846  -31.2218   21.9153 C   0  0  0  0  0  0  0  0  0  0  0  0
  -18.7733  -30.8449   22.4951 C   0  0  0  0  0  0  0  0  0  0  0  0
  -30.1334  -19.8135   21.9916 C   0  0  0  0  0  0  0  0  0  0  0  0
  -27.3034  -14.4869   19.8775 C   0  0  0  0  0  0  0  0  0  0  0  0
  -29.0170  -19.9002   19.4364 C   0  0  0  0  0  0  0  0  0  0  0  0
  -19.3701  -32.0314   24.5133 C   0  0  0  0  0  0  0  0  0  0  0  0
  -24.6797  -29.3602   20.8650 C   0  0  0  0  0  0  0  0  0  0  0  0
  -29.1644  -20.7691   21.6859 C   0  0  0  0  0  0  0  0  0  0  0  0
  -26.9672  -28.2482   20.6699 C   0  0  0  0  0  0  0  0  0  0  0  0
  -20.6373  -20.4890   17.2406 C   0  0  0  0  0  0  0  0  0  0  0  0
  -25.8018  -14.6887   17.9895 C   0  0  0  0  0  0  0  0  0  0  0  0
  -21.8709  -19.8735   16.9550 C   0  0  0  0  0  0  0  0  0  0  0  0
  -26.0075  -14.6840   19.3765 C   0  0  0  0  0  0  0  0  0  0  0  0
  -28.6062  -20.8125   20.4084 C   0  0  0  0  0  0  0  0  0  0  0  0
  -22.9395  -31.3882   21.6660 C   0  0  0  0  0  0  0  0  0  0  0  0
  -28.3775  -14.2845   19.0113 C   0  0  0  0  0  0  0  0  0  0  0  0
  -20.8887  -32.0035   22.6345 C   0  0  0  0  0  0  0  0  0  0  0  0
  -30.5442  -18.9012   21.0196 C   0  0  0  0  0  0  0  0  0  0  0  0
  -18.4660  -31.2496   23.7941 C   0  0  0  0  0  0  0  0  0  0  0  0
  -29.9860  -18.9445   19.7421 C   0  0  0  0  0  0  0  0  0  0  0  0
  -20.5814  -32.4083   23.9335 C   0  0  0  0  0  0  0  0  0  0  0  0
  -25.5780  -28.3122   20.4517 C   0  0  0  0  0  0  0  0  0  0  0  0
  -27.3520  -27.0648   20.0885 C   0  0  0  0  0  0  0  0  0  0  0  0
  -29.5884  -22.5669   23.2994 C   0  0  0  0  0  0  0  0  0  0  0  0
  -28.7607  -21.7063   22.7275 C   0  0  0  0  0  0  0  0  0  0  0  0
  -27.8326  -29.1754   21.3386 C   0  0  0  0  0  0  0  0  0  0  0  0
  -23.7530  -17.0728   18.4606 C   0  0  0  0  0  0  0  0  0  0  0  0
  -31.4163  -15.0460   20.8407 C   0  0  0  0  0  0  0  0  0  0  0  0
  -22.3562  -14.9553   20.4825 C   0  0  0  0  0  0  0  0  0  0  0  0
  -22.6794  -12.1950   22.4631 C   0  0  0  0  0  0  0  0  0  0  0  0
  -26.5914  -21.6316   19.1371 C   0  0  0  0  0  0  0  0  0  0  0  0
  -20.1638  -20.6972   18.6573 C   0  0  0  0  0  0  0  0  0  0  0  0
  -24.4199  -14.8731   17.4250 C   0  0  0  0  0  0  0  0  0  0  0  0
  -24.8748  -14.8934   20.3469 C   0  0  0  0  0  0  0  0  0  0  0  0
  -20.8887  -19.8222   19.6767 C   0  0  0  0  0  0  0  0  0  0  0  0
  -24.8132  -23.9071   17.0545 C   0  0  0  0  0  0  0  0  0  0  0  0
  -22.3950  -19.8621   19.4392 C   0  0  0  0  0  0  0  0  0  0  0  0
  -24.9679  -25.2507   17.7706 C   0  0  0  0  0  0  0  0  0  0  0  0
  -24.6621  -22.7518   18.0426 C   0  0  0  0  0  0  0  0  0  0  0  0
  -25.8660  -24.0133   19.7829 C   0  0  0  0  0  0  0  0  0  0  0  0
  -22.7495  -19.3127   18.0521 C   0  0  1  0  0  0  0  0  0  0  0  0
  -23.4763  -15.5981   18.3797 C   0  0  1  0  0  0  0  0  0  0  0  0
  -26.0865  -25.1993   18.8297 C   0  0  2  0  0  0  0  0  0  0  0  0
  -21.3726  -10.7243   24.0209 C   0  0  0  0  0  0  0  0  0  0  0  0
  -22.5264  -17.1000   22.6461 C   0  0  0  0  0  0  0  0  0  0  0  0
  -22.1127  -15.3139   24.3512 C   0  0  0  0  0  0  0  0  0  0  0  0
  -20.3841  -15.8098   22.6223 C   0  0  0  0  0  0  0  0  0  0  0  0
  -23.1113   -9.8121   20.7619 C   0  0  0  0  0  0  0  0  0  0  0  0
  -31.8686  -15.7150   22.1303 C   0  0  0  0  0  0  0  0  0  0  0  0
  -29.9365  -14.7275   20.7518 C   0  0  0  0  0  0  0  0  0  1  0  0
  -31.1934  -17.0570   22.3736 C   0  0  0  0  0  0  0  0  0  0  0  0
  -22.5070  -14.6151   21.9455 C   0  0  1  0  0  0  0  0  0  0  0  0
  -21.8341  -10.9403   22.5880 C   0  0  2  0  0  0  0  0  0  0  0  0
  -21.9044  -15.7077   22.8732 C   0  0  0  0  0  0  0  0  0  0  0  0
  -25.1116  -27.2538   19.7836 N   0  0  0  0  0  0  0  0  0  0  0  0
  -26.2141  -26.5136   19.5769 N   0  0  0  0  0  0  0  0  0  0  0  0
  -23.5432  -15.0755   19.7459 N   0  0  0  0  0  0  0  0  0  0  0  0
  -25.7592  -22.7642   19.0128 N   0  0  0  0  0  0  0  0  0  0  0  0
  -28.5492  -26.4524   19.9699 N   0  0  0  0  0  0  0  0  0  0  0  0
  -27.2730  -30.3414   21.8786 N   0  0  0  0  0  0  0  0  0  0  0  0
  -27.6203  -21.7716   20.0680 N   0  0  0  0  0  0  0  0  0  0  0  0
  -22.6977  -17.8664   18.0530 N   0  0  0  0  0  0  0  0  0  0  0  0
  -21.9177  -13.2919   22.1197 N   0  0  0  0  0  0  0  0  0  0  0  0
  -22.6149   -9.7450   22.1605 N   0  3  0  0  0  0  0  0  0  0  0  0
  -29.0682  -28.9838   21.4394 O   0  0  0  0  0  0  0  0  0  0  0  0
  -24.8426  -17.4618   18.8645 O   0  0  0  0  0  0  0  0  0  0  0  0
  -32.1919  -14.7795   19.9240 O   0  0  0  0  0  0  0  0  0  0  0  0
  -21.2266  -15.1018   20.0089 O   0  0  0  0  0  0  0  0  0  0  0  0
  -23.8934  -12.2022   22.6549 O   0  0  0  0  0  0  0  0  0  0  0  0
  -26.4216  -20.6227   18.4477 O   0  0  0  0  0  0  0  0  0  0  0  0
  -22.0905  -32.3776   22.0572 O   0  0  0  0  0  0  0  0  0  0  0  0
  -29.6286  -14.0930   19.5112 O   0  0  0  0  0  0  0  0  0  1  0  0
  -31.4969  -17.9635   21.3206 O   0  0  0  0  0  0  0  0  0  0  0  0
  -17.3021  -30.8889   24.3502 F   0  0  0  0  0  0  0  0  0  0  0  0
  -30.3772  -18.0710   18.8041 F   0  0  0  0  0  0  0  0  0  0  0  0
  -21.4455  -33.1603   24.6289 F   0  0  0  0  0  0  0  0  0  0  0  0
  1  2  1  0  0  0  0
  1  5  2  0  0  0  0
  2  6  2  0  0  0  0
  3  8  2  0  0  0  0
  3 17  1  0  0  0  0
  4  9  1  0  0  0  0
  4 17  2  0  0  0  0
  5 20  1  0  0  0  0
  6 22  1  0  0  0  0
  7 10  2  0  0  0  0
  7 21  1  0  0  0  0
  8 25  1  0  0  0  0
  9 25  2  0  0  0  0
 10 26  1  0  0  0  0
 11 12  2  0  0  0  0
 11 27  1  0  0  0  0
 12 29  1  0  0  0  0
 13 18  1  0  0  0  0
 13 28  2  0  0  0  0
 14 23  1  0  0  0  0
 14 26  2  0  0  0  0
 15 24  1  0  0  0  0
 15 30  2  0  0  0  0
 16 29  2  0  0  0  0
 16 31  1  0  0  0  0
 17 32  1  0  0  0  0
 18 24  2  0  0  0  0
 18 35  1  0  0  0  0
 19 32  1  0  0  0  0
 19 33  2  0  0  0  0
 19 36  1  0  0  0  0
 20 22  2  0  0  0  0
 20 42  1  0  0  0  0
 21 23  2  0  0  0  0
 21 43  1  0  0  0  0
 22 51  1  0  0  0  0
 23 44  1  0  0  0  0
 24 71  1  0  0  0  0
 25 81  1  0  0  0  0
 26 82  1  0  0  0  0
 27 31  2  0  0  0  0
 27 81  1  0  0  0  0
 28 30  1  0  0  0  0
 28 83  1  0  0  0  0
 29 84  1  0  0  0  0
 30 85  1  0  0  0  0
 31 86  1  0  0  0  0
 32 65  2  0  0  0  0
 33 66  1  0  0  0  0
 33 69  1  0  0  0  0
 34 35  2  0  0  0  0
 36 70  1  0  0  0  0
 36 75  2  0  0  0  0
 37 52  1  0  0  0  0
 37 72  1  0  0  0  0
 37 76  2  0  0  0  0
 38 59  1  0  0  0  0
 38 60  1  0  0  0  0
 38 77  2  0  0  0  0
 39 62  1  0  0  0  0
 39 67  1  0  0  0  0
 39 78  2  0  0  0  0
 40 63  1  0  0  0  0
 40 73  1  0  0  0  0
 40 79  2  0  0  0  0
 41 68  1  0  0  0  0
 41 71  1  0  0  0  0
 41 80  2  0  0  0  0
 42 45  1  0  0  0  0
 43 52  1  0  0  0  0
 44 67  1  0  0  0  0
 45 47  1  0  0  0  0
 46 48  1  0  0  0  0
 46 49  1  0  0  0  0
 47 51  1  0  0  0  0
 48 53  1  0  0  0  0
 49 68  1  0  0  0  0
 50 53  1  0  0  0  0
 50 68  1  0  0  0  0
 51 72  1  0  0  0  0
 52 67  1  0  0  0  0
 53 66  1  0  0  0  0
 54 63  1  0  0  0  0
 55 64  1  0  0  0  0
 56 64  1  0  0  0  0
 57 64  1  0  0  0  0
 58 74  1  0  0  0  0
 59 61  1  0  0  0  0
 60 82  1  0  0  0  0
 61 83  1  0  0  0  0
 62 64  1  0  0  0  0
 62 73  1  0  0  0  0
 63 74  1  0  0  0  0
 65 66  1  0  0  0  0
M  CHG  1  74   1
M  ISO  4  41 100  60 101  71 100  82 101
M  END
> <Batch ID>
0114

> <Smiles>
C=Cc1cc(OCCC(=O)[101CH2:1][101O:1]c2ccc3c(c2)CN(C(=O)C(NC(=O)C(C)NC)C(C)(C)C)C(C(=O)NC2CCCc4ccccc42)C3)c(F)cc1[100NH:0][100C:0](=O)N1CCCC(n2nc(-c3ccc(Oc4ccc(F)cc4F)cc3)c(C(N)=O)c2N)C1

> <Shape>
0.223

> <Color>
0.067

> <Negative vol penalty>
0.000

$$$$

  -OEChem-04052301373D

 93103  0     1  0  0  0  0  0999 V2000
  -26.9741  -39.1751   24.5305 C   0  0  0  0  0  0  0  0  0  0  0  0
  -27.7440  -38.1224   25.0149 C   0  0  0  0  0  0  0  0  0  0  0  0
  -24.3343   -8.3728   21.4809 C   0  0  0  0  0  0  0  0  0  0  0  0
  -23.3407  -10.1792   20.2213 C   0  0  0  0  0  0  0  0  0  0  0  0
  -25.6088  -38.9957   24.3119 C   0  0  0  0  0  0  0  0  0  0  0  0
  -27.1488  -36.8900   25.2820 C   0  0  0  0  0  0  0  0  0  0  0  0
  -29.4003  -30.8927   21.9875 C   0  0  0  0  0  0  0  0  0  0  0  0
  -27.5235  -21.2409   18.0355 C   0  0  0  0  0  0  0  0  0  0  0  0
  -27.4541  -22.2791   18.9690 C   0  0  0  0  0  0  0  0  0  0  0  0
  -23.0651   -7.9502   21.8760 C   0  0  0  0  0  0  0  0  0  0  0  0
  -22.0715   -9.7566   20.6163 C   0  0  0  0  0  0  0  0  0  0  0  0
  -29.9130  -29.6689   21.5565 C   0  0  0  0  0  0  0  0  0  0  0  0
  -20.4936   -6.2056   20.5431 C   0  0  0  0  0  0  0  0  0  0  0  0
  -20.2152   -4.8404   20.4770 C   0  0  0  0  0  0  0  0  0  0  0  0
  -29.5519  -23.1424   18.1674 C   0  0  0  0  0  0  0  0  0  0  0  0
  -28.1383  -28.5051   22.7158 C   0  0  0  0  0  0  0  0  0  0  0  0
  -28.0788  -17.9663   17.2352 C   0  0  0  0  0  0  0  0  0  0  0  0
  -27.0944  -18.5675   15.1124 C   0  0  0  0  0  0  0  0  0  0  0  0
  -26.5143  -16.4702   16.1623 C   0  0  0  0  0  0  0  0  0  0  0  0
  -19.7877   -4.8125   22.8547 C   0  0  0  0  0  0  0  0  0  0  0  0
  -24.4721   -9.4874   20.6536 C   0  0  0  0  0  0  0  0  0  0  0  0
  -29.6202  -22.0993   17.2332 C   0  0  0  0  0  0  0  0  0  0  0  0
  -26.7354   -9.1893   19.5151 C   0  0  0  0  0  0  0  0  0  0  0  0
  -24.9984  -37.7576   24.5673 C   0  0  0  0  0  0  0  0  0  0  0  0
  -28.2444  -30.9281   22.7724 C   0  0  0  0  0  0  0  0  0  0  0  0
  -25.7738  -36.6943   25.0679 C   0  0  0  0  0  0  0  0  0  0  0  0
  -27.6130  -29.7285   23.1400 C   0  0  0  0  0  0  0  0  0  0  0  0
  -28.6087  -21.1210   17.1460 C   0  0  0  0  0  0  0  0  0  0  0  0
  -27.9440  -18.8657   16.1777 C   0  0  0  0  0  0  0  0  0  0  0  0
  -28.4673  -23.2282   19.0348 C   0  0  0  0  0  0  0  0  0  0  0  0
  -27.3639  -16.7685   17.2275 C   0  0  0  0  0  0  0  0  0  0  0  0
  -21.9337   -8.6420   21.4437 C   0  0  0  0  0  0  0  0  0  0  0  0
  -29.2836  -28.4781   21.9200 C   0  0  0  0  0  0  0  0  0  0  0  0
  -20.4191   -6.8742   21.7650 C   0  0  0  0  0  0  0  0  0  0  0  0
  -19.8623   -4.1438   21.6328 C   0  0  0  0  0  0  0  0  0  0  0  0
  -26.3795  -17.3697   15.1047 C   0  0  0  0  0  0  0  0  0  0  0  0
  -20.0662   -6.1777   22.9208 C   0  0  0  0  0  0  0  0  0  0  0  0
  -25.7830   -9.9248   20.2456 C   0  0  0  0  0  0  0  0  0  0  0  0
  -27.8039  -10.0428   19.3871 C   0  0  0  0  0  0  0  0  0  0  0  0
  -30.8039  -22.0149   16.3455 C   0  0  0  0  0  0  0  0  0  0  0  0
  -26.6610   -7.8539   18.9984 C   0  0  0  0  0  0  0  0  0  0  0  0
  -25.7230  -33.0310   24.5880 C   0  0  0  0  0  0  0  0  0  0  0  0
  -24.1733  -30.7650   23.2191 C   0  0  0  0  0  0  0  0  0  0  0  0
  -29.3139  -25.3033   20.1799 C   0  0  0  0  0  0  0  0  0  0  0  0
  -21.8349  -28.8204   21.6739 C   0  0  0  0  0  0  0  0  0  0  0  0
  -28.3005  -15.9973   19.4354 C   0  0  0  0  0  0  0  0  0  0  0  0
  -23.5103  -37.6255   24.3604 C   0  0  0  0  0  0  0  0  0  0  0  0
  -27.6920  -32.2201   23.3104 C   0  0  0  0  0  0  0  0  0  0  0  0
  -26.3918  -29.8132   24.0144 C   0  0  0  0  0  0  0  0  0  0  0  0
  -30.8766  -20.8316   15.4188 C   0  0  0  0  0  0  0  0  0  0  0  0
  -23.0280  -36.1780   24.3137 C   0  0  0  0  0  0  0  0  0  0  0  0
  -29.9571  -13.7048   21.5980 C   0  0  0  0  0  0  0  0  0  0  0  0
  -23.6403  -35.3741   25.4564 C   0  0  0  0  0  0  0  0  0  0  0  0
  -29.1651  -12.4067   21.4255 C   0  0  0  0  0  0  0  0  0  0  0  0
  -29.4854  -20.3825   15.0024 C   0  0  0  0  0  0  0  0  0  0  0  0
  -29.0499  -14.9331   21.5521 C   0  0  0  0  0  0  0  0  0  0  0  0
  -27.3855  -13.7188   20.2013 C   0  0  0  0  0  0  0  0  0  0  0  0
  -25.1693  -35.3352   25.3462 C   0  0  1  0  0  0  0  0  0  0  0  0
  -26.1551  -32.2307   23.3946 C   0  0  1  0  0  0  0  0  0  0  0  0
  -28.2647  -12.4578   20.1756 C   0  0  2  0  0  0  0  0  0  0  0  0
  -19.4866  -27.9766   21.9408 C   0  0  0  0  0  0  0  0  0  0  0  0
  -25.1340  -28.7639   25.3110 C   0  0  0  0  0  0  0  0  0  0  0  0
  -23.0919  -27.3953   24.8366 C   0  0  0  0  0  0  0  0  0  0  0  0
  -22.8585  -29.7092   25.7387 C   0  0  0  0  0  0  0  0  0  0  0  0
  -20.9526  -30.1424   19.1774 C   0  0  0  0  0  0  0  0  0  0  0  0
  -28.8567  -26.2225   21.2973 C   0  0  0  0  0  0  0  0  0  1  0  0
  -23.5856  -29.3817   23.3395 C   0  0  1  0  0  0  0  0  0  0  0  0
  -20.3712  -29.0663   21.3552 C   0  0  2  0  0  0  0  0  0  0  0  0
  -23.6856  -28.8192   24.7856 C   0  0  0  0  0  0  0  0  0  0  0  0
  -26.2088  -11.1512   20.5598 N   0  0  0  0  0  0  0  0  0  0  0  0
  -27.4407  -11.1928   20.0242 N   0  0  0  0  0  0  0  0  0  0  0  0
  -28.6684  -20.0788   16.1851 N   0  0  0  0  0  0  0  0  0  0  0  0
  -25.5235  -30.9105   23.5598 N   0  0  0  0  0  0  0  0  0  0  0  0
  -28.2298  -14.9159   20.3389 N   0  0  0  0  0  0  0  0  0  0  0  0
  -29.0093   -9.9143   18.7930 N   0  0  0  0  0  0  0  0  0  0  0  0
  -25.4902   -7.1161   19.2198 N   0  0  0  0  0  0  0  0  0  0  0  0
  -28.3955  -24.2781   19.9808 N   0  0  0  0  0  0  0  0  0  0  0  0
  -27.5006  -15.8549   18.3020 N   0  0  0  0  0  0  0  0  0  0  0  0
  -25.5792  -34.3822   24.3371 N   0  0  0  0  0  0  0  0  0  0  0  0
  -22.2230  -29.4710   22.8260 N   0  0  0  0  0  0  0  0  0  0  0  0
  -20.1609  -29.1002   19.8802 N   0  3  0  0  0  0  0  0  0  0  0  0
  -31.7068  -22.8426   16.4089 O   0  0  0  0  0  0  0  0  0  0  0  0
  -27.6112   -7.3247   18.3733 O   0  0  0  0  0  0  0  0  0  0  0  0
  -25.5323  -32.4651   25.6581 O   0  0  0  0  0  0  0  0  0  0  0  0
  -23.4555  -31.6943   22.8389 O   0  0  0  0  0  0  0  0  0  0  0  0
  -30.3638  -25.4985   19.5764 O   0  0  0  0  0  0  0  0  0  0  0  0
  -22.5604  -28.1181   20.9732 O   0  0  0  0  0  0  0  0  0  0  0  0
  -29.0383  -16.9651   19.6379 O   0  0  0  0  0  0  0  0  0  0  0  0
  -20.6950   -8.2298   21.8288 O   0  0  0  0  0  0  0  0  0  0  0  0
  -29.7868  -27.2871   21.4920 O   0  0  0  0  0  0  0  0  0  1  0  0
  -19.5934   -2.8332   21.5689 F   0  0  0  0  0  0  0  0  0  0  0  0
  -25.5626  -17.0835   14.0825 F   0  0  0  0  0  0  0  0  0  0  0  0
  -19.9918   -6.8149   24.0974 F   0  0  0  0  0  0  0  0  0  0  0  0
  1  2  1  0  0  0  0
  1  5  2  0  0  0  0
  2  6  2  0  0  0  0
  3 10  2  0  0  0  0
  3 21  1  0  0  0  0
  4 11  1  0  0  0  0
  4 21  2  0  0  0  0
  5 24  1  0  0  0  0
  6 26  1  0  0  0  0
  7 12  2  0  0  0  0
  7 25  1  0  0  0  0
  8  9  2  0  0  0  0
  8 28  1  0  0  0  0
  9 30  1  0  0  0  0
 10 32  1  0  0  0  0
 11 32  2  0  0  0  0
 12 33  1  0  0  0  0
 13 14  2  0  0  0  0
 13 34  1  0  0  0  0
 14 35  1  0  0  0  0
 15 22  1  0  0  0  0
 15 30  2  0  0  0  0
 16 27  1  0  0  0  0
 16 33  2  0  0  0  0
 17 29  2  0  0  0  0
 17 31  1  0  0  0  0
 18 29  1  0  0  0  0
 18 36  2  0  0  0  0
 19 31  2  0  0  0  0
 19 36  1  0  0  0  0
 20 35  2  0  0  0  0
 20 37  1  0  0  0  0
 21 38  1  0  0  0  0
 22 28  2  0  0  0  0
 22 40  1  0  0  0  0
 23 38  1  0  0  0  0
 23 39  2  0  0  0  0
 23 41  1  0  0  0  0
 24 26  2  0  0  0  0
 24 47  1  0  0  0  0
 25 27  2  0  0  0  0
 25 48  1  0  0  0  0
 26 58  1  0  0  0  0
 27 49  1  0  0  0  0
 28 72  1  0  0  0  0
 29 72  1  0  0  0  0
 30 77  1  0  0  0  0
 31 78  1  0  0  0  0
 32 89  1  0  0  0  0
 33 90  1  0  0  0  0
 34 37  2  0  0  0  0
 34 89  1  0  0  0  0
 35 91  1  0  0  0  0
 36 92  1  0  0  0  0
 37 93  1  0  0  0  0
 38 70  2  0  0  0  0
 39 71  1  0  0  0  0
 39 75  1  0  0  0  0
 40 50  1  0  0  0  0
 40 82  2  0  0  0  0
 41 76  1  0  0  0  0
 41 83  2  0  0  0  0
 42 59  1  0  0  0  0
 42 79  1  0  0  0  0
 42 84  2  0  0  0  0
 43 67  1  0  0  0  0
 43 73  1  0  0  0  0
 43 85  2  0  0  0  0
 44 66  1  0  0  0  0
 44 77  1  0  0  0  0
 44 86  2  0  0  0  0
 45 68  1  0  0  0  0
 45 80  1  0  0  0  0
 45 87  2  0  0  0  0
 46 74  1  0  0  0  0
 46 78  1  0  0  0  0
 46 88  2  0  0  0  0
 47 51  1  0  0  0  0
 48 59  1  0  0  0  0
 49 73  1  0  0  0  0
 50 55  1  0  0  0  0
 51 53  1  0  0  0  0
 52 54  1  0  0  0  0
 52 56  1  0  0  0  0
 53 58  1  0  0  0  0
 54 60  1  0  0  0  0
 55 72  1  0  0  0  0
 56 74  1  0  0  0  0
 57 60  1  0  0  0  0
 57 74  1  0  0  0  0
 58 79  1  0  0  0  0
 59 73  1  0  0  0  0
 60 71  1  0  0  0  0
 61 68  1  0  0  0  0
 62 69  1  0  0  0  0
 63 69  1  0  0  0  0
 64 69  1  0  0  0  0
 65 81  1  0  0  0  0
 66 90  1  0  0  0  0
 67 69  1  0  0  0  0
 67 80  1  0  0  0  0
 68 81  1  0  0  0  0
 70 71  1  0  0  0  0
M  CHG  1  81   1
M  ISO  4  46 100  66 101  78 100  90 101
M  END
> <Batch ID>
0114

> <Smiles>
CNC(C)C(=O)NC(C(=O)N1Cc2cc([101O:1][101CH2:1]C(=O)Nc3ccc4c(c3)C(=O)CCN4c3cc(F)cc([100NH:0][100C:0](=O)N4CCCC(n5nc(-c6ccc(Oc7ccc(F)cc7F)cc6)c(C(N)=O)c5N)C4)c3)ccc2CC1C(=O)NC1CCCc2ccccc21)C(C)(C)C

> <Shape>
0.267

> <Color>
0.077

> <Negative vol penalty>
0.000

$$$$

  -OEChem-04052301373D

 84 92  0     1  0  0  0  0  0999 V2000
  -21.7567  -12.3675   19.3869 C   0  0  0  0  0  0  0  0  0  0  0  0
  -21.6965  -13.6615   19.8941 C   0  0  0  0  0  0  0  0  0  0  0  0
  -29.5077  -26.1617   18.6910 C   0  0  0  0  0  0  0  0  0  0  0  0
  -27.5924  -26.4181   17.2407 C   0  0  0  0  0  0  0  0  0  0  0  0
  -22.9435  -11.6408   19.4729 C   0  0  0  0  0  0  0  0  0  0  0  0
  -22.8228  -14.2291   20.4888 C   0  0  0  0  0  0  0  0  0  0  0  0
  -23.6219  -18.9967   18.9798 C   0  0  0  0  0  0  0  0  0  0  0  0
  -30.2825  -25.7713   17.5988 C   0  0  0  0  0  0  0  0  0  0  0  0
  -28.3672  -26.0277   16.1485 C   0  0  0  0  0  0  0  0  0  0  0  0
  -22.8277  -19.9880   19.5545 C   0  0  0  0  0  0  0  0  0  0  0  0
  -30.6660  -27.4228   14.1016 C   0  0  0  0  0  0  0  0  0  0  0  0
  -30.5525  -28.1690   12.9287 C   0  0  0  0  0  0  0  0  0  0  0  0
  -24.6295  -20.5526   21.0558 C   0  0  0  0  0  0  0  0  0  0  0  0
  -29.8178  -26.1954   11.7443 C   0  0  0  0  0  0  0  0  0  0  0  0
  -28.1627  -26.4850   18.5120 C   0  0  0  0  0  0  0  0  0  0  0  0
  -27.0897  -26.1386   20.8003 C   0  0  0  0  0  0  0  0  0  0  0  0
  -24.0877  -12.2033   20.0602 C   0  0  0  0  0  0  0  0  0  0  0  0
  -24.9242  -18.7682   19.4468 C   0  0  0  0  0  0  0  0  0  0  0  0
  -24.0256  -13.5088   20.5840 C   0  0  0  0  0  0  0  0  0  0  0  0
  -25.4391  -19.5595   20.4836 C   0  0  0  0  0  0  0  0  0  0  0  0
  -29.7123  -25.7043   16.3276 C   0  0  0  0  0  0  0  0  0  0  0  0
  -23.3305  -20.7642   20.5946 C   0  0  0  0  0  0  0  0  0  0  0  0
  -30.3555  -26.0629   14.0960 C   0  0  0  0  0  0  0  0  0  0  0  0
  -30.1283  -27.5553   11.7500 C   0  0  0  0  0  0  0  0  0  0  0  0
  -29.9314  -25.4492   12.9173 C   0  0  0  0  0  0  0  0  0  0  0  0
  -27.3617  -26.8879   19.6399 C   0  0  0  0  0  0  0  0  0  0  0  0
  -20.3968  -27.8032   23.9615 C   0  0  0  0  0  0  0  0  0  0  0  0
  -19.6938  -27.6463   25.1376 C   0  0  0  0  0  0  0  0  0  0  0  0
  -26.2906  -26.9586   21.5590 C   0  0  0  0  0  0  0  0  0  0  0  0
  -20.1326  -25.6269   23.8998 C   0  0  0  0  0  0  0  0  0  0  0  0
  -20.8715  -29.1003   23.4477 C   0  0  0  0  0  0  0  0  0  0  0  0
  -27.5210  -24.8195   21.1603 C   0  0  0  0  0  0  0  0  0  0  0  0
  -26.4265  -16.3099   20.7900 C   0  0  0  0  0  0  0  0  0  0  0  0
  -29.0241  -18.2269   20.4742 C   0  0  0  0  0  0  0  0  0  0  0  0
  -20.7380  -23.7019   22.3926 C   0  0  0  0  0  0  0  0  0  0  0  0
  -30.2714  -21.3887   20.1679 C   0  0  0  0  0  0  0  0  0  0  0  0
  -21.9448  -30.4424   21.9185 C   0  0  0  0  0  0  0  0  0  0  0  0
  -25.3342  -11.3618   20.1728 C   0  0  0  0  0  0  0  0  0  0  0  0
  -25.7775  -17.7128   18.7983 C   0  0  0  0  0  0  0  0  0  0  0  0
  -26.8379  -19.3676   21.0078 C   0  0  0  0  0  0  0  0  0  0  0  0
  -26.5904  -12.1723   20.4816 C   0  0  0  0  0  0  0  0  0  0  0  0
  -25.1483  -31.8525   21.0503 C   0  0  0  0  0  0  0  0  0  0  0  0
  -26.3223  -13.1636   21.6096 C   0  0  0  0  0  0  0  0  0  0  0  0
  -25.9754  -30.6253   20.6676 C   0  0  0  0  0  0  0  0  0  0  0  0
  -23.6868  -31.6920   20.6429 C   0  0  0  0  0  0  0  0  0  0  0  0
  -23.8687  -29.2240   20.7999 C   0  0  0  0  0  0  0  0  0  0  0  0
  -25.2333  -14.1681   21.2140 C   0  0  1  0  0  0  0  0  0  0  0  0
  -26.9080  -17.2226   19.6978 C   0  0  1  0  0  0  0  0  0  0  0  0
  -25.3431  -29.3370   21.2237 C   0  0  1  0  0  0  0  0  0  0  0  0
  -20.3962  -29.1190   27.0413 C   0  0  0  0  0  0  0  0  0  0  0  0
  -31.9788  -23.1948   19.8207 C   0  0  0  0  0  0  0  0  0  0  0  0
  -29.5351  -17.8144   23.4539 C   0  0  0  0  0  0  0  0  0  0  0  0
  -31.0792  -19.7841   23.3907 C   0  0  0  0  0  0  0  0  0  0  0  0
  -31.5875  -17.7588   22.0260 C   0  0  0  0  0  0  0  0  0  0  0  0
  -29.9413  -21.2964   17.2283 C   0  0  0  0  0  0  0  0  0  0  0  0
  -19.2574  -28.6486   26.1308 C   0  0  0  0  0  0  0  0  0  0  0  0
  -20.5350  -22.1910   22.3796 C   0  0  0  0  0  0  0  0  0  0  0  0
  -21.1466  -21.5163   21.1612 C   0  0  0  0  0  0  0  0  0  1  0  0
  -29.6886  -19.2767   21.3316 C   0  0  1  0  0  0  0  0  0  0  0  0
  -31.2933  -21.9804   19.2139 C   0  0  2  0  0  0  0  0  0  0  0  0
  -30.4455  -18.6611   22.5422 C   0  0  0  0  0  0  0  0  0  0  0  0
  -26.7822  -28.0912   19.6555 N   0  0  0  0  0  0  0  0  0  0  0  0
  -20.6497  -26.6463   23.2505 N   0  0  0  0  0  0  0  0  0  0  0  0
  -21.5295  -29.1932   22.3387 N   0  0  0  0  0  0  0  0  0  0  0  0
  -26.1381  -28.1043   20.8349 N   0  0  0  0  0  0  0  0  0  0  0  0
  -27.6310  -18.3190   20.3453 N   0  0  0  0  0  0  0  0  0  0  0  0
  -23.1305  -30.4415   21.1612 N   0  0  0  0  0  0  0  0  0  0  0  0
  -25.7105  -26.8041   22.7681 N   0  0  0  0  0  0  0  0  0  0  0  0
  -26.7218  -23.7303   20.7873 N   0  0  0  0  0  0  0  0  0  0  0  0
  -20.1585  -24.2617   23.5280 N   0  0  0  0  0  0  0  0  0  0  0  0
  -25.7752  -15.1802   20.3328 N   0  0  0  0  0  0  0  0  0  0  0  0
  -30.5317  -20.0615   20.4361 N   0  0  0  0  0  0  0  0  0  0  0  0
  -30.6352  -22.3980   17.9437 N   0  3  0  0  0  0  0  0  0  0  0  0
  -28.5752  -24.6140   21.8082 O   0  0  0  0  0  0  0  0  0  0  0  0
  -26.6319  -16.6079   21.9607 O   0  0  0  0  0  0  0  0  0  0  0  0
  -29.7164  -17.3614   19.9327 O   0  0  0  0  0  0  0  0  0  0  0  0
  -21.3375  -24.2877   21.4972 O   0  0  0  0  0  0  0  0  0  0  0  0
  -29.3380  -22.0399   20.6319 O   0  0  0  0  0  0  0  0  0  0  0  0
  -21.3402  -31.4879   22.1684 O   0  0  0  0  0  0  0  0  0  0  0  0
  -30.4680  -25.3236   15.2615 O   0  0  0  0  0  0  0  0  0  0  0  0
  -22.5572  -21.7321   21.1578 O   0  0  0  0  0  0  0  0  0  1  0  0
  -30.0179  -28.2724   10.6241 F   0  0  0  0  0  0  0  0  0  0  0  0
  -29.6305  -24.1434   12.9060 F   0  0  0  0  0  0  0  0  0  0  0  0
  -19.3277  -25.9872   25.3719 S   0  0  0  0  0  0  0  0  0  0  0  0
  1  2  1  0  0  0  0
  1  5  2  0  0  0  0
  2  6  2  0  0  0  0
  3  8  2  0  0  0  0
  3 15  1  0  0  0  0
  4  9  1  0  0  0  0
  4 15  2  0  0  0  0
  5 17  1  0  0  0  0
  6 19  1  0  0  0  0
  7 10  2  0  0  0  0
  7 18  1  0  0  0  0
  8 21  1  0  0  0  0
  9 21  2  0  0  0  0
 10 22  1  0  0  0  0
 11 12  2  0  0  0  0
 11 23  1  0  0  0  0
 12 24  1  0  0  0  0
 13 20  1  0  0  0  0
 13 22  2  0  0  0  0
 14 24  2  0  0  0  0
 14 25  1  0  0  0  0
 15 26  1  0  0  0  0
 16 26  1  0  0  0  0
 16 29  2  0  0  0  0
 16 32  1  0  0  0  0
 17 19  2  0  0  0  0
 17 38  1  0  0  0  0
 18 20  2  0  0  0  0
 18 39  1  0  0  0  0
 19 47  1  0  0  0  0
 20 40  1  0  0  0  0
 21 80  1  0  0  0  0
 22 81  1  0  0  0  0
 23 25  2  0  0  0  0
 23 80  1  0  0  0  0
 24 82  1  0  0  0  0
 25 83  1  0  0  0  0
 26 62  2  0  0  0  0
 27 28  2  0  0  0  0
 27 31  1  0  0  0  0
 27 63  1  0  0  0  0
 28 56  1  0  0  0  0
 28 84  1  0  0  0  0
 29 65  1  0  0  0  0
 29 68  1  0  0  0  0
 30 63  2  0  0  0  0
 30 70  1  0  0  0  0
 30 84  1  0  0  0  0
 31 64  2  0  0  0  0
 32 69  1  0  0  0  0
 32 74  2  0  0  0  0
 33 48  1  0  0  0  0
 33 71  1  0  0  0  0
 33 75  2  0  0  0  0
 34 59  1  0  0  0  0
 34 66  1  0  0  0  0
 34 76  2  0  0  0  0
 35 57  1  0  0  0  0
 35 70  1  0  0  0  0
 35 77  2  0  0  0  0
 36 60  1  0  0  0  0
 36 72  1  0  0  0  0
 36 78  2  0  0  0  0
 37 64  1  0  0  0  0
 37 67  1  0  0  0  0
 37 79  2  0  0  0  0
 38 41  1  0  0  0  0
 39 48  1  0  0  0  0
 40 66  1  0  0  0  0
 41 43  1  0  0  0  0
 42 44  1  0  0  0  0
 42 45  1  0  0  0  0
 43 47  1  0  0  0  0
 44 49  1  0  0  0  0
 45 67  1  0  0  0  0
 46 49  1  0  0  0  0
 46 67  1  0  0  0  0
 47 71  1  0  0  0  0
 48 66  1  0  0  0  0
 49 65  1  0  0  0  0
 50 56  1  0  0  0  0
 51 60  1  0  0  0  0
 52 61  1  0  0  0  0
 53 61  1  0  0  0  0
 54 61  1  0  0  0  0
 55 73  1  0  0  0  0
 57 58  1  0  0  0  0
 58 81  1  0  0  0  0
 59 61  1  0  0  0  0
 59 72  1  0  0  0  0
 60 73  1  0  0  0  0
 62 65  1  0  0  0  0
M  CHG  1  73   1
M  ISO  4  37 100  58 101  64 100  81 101
M  END
> <Batch ID>
0114

> <Smiles>
C=Cc1sc(NC(=O)C[101CH2:1][101O:1]c2ccc3c(c2)CN(C(=O)C(NC(=O)C(C)NC)C(C)(C)C)C(C(=O)NC2CCCc4ccccc42)C3)nc1C[100NH:0][100C:0](=O)N1CCCC(n2nc(-c3ccc(Oc4ccc(F)cc4F)cc3)c(C(N)=O)c2N)C1

> <Shape>
0.209

> <Color>
0.083

> <Negative vol penalty>
0.000

$$$$

  -OEChem-04052301373D

 86 94  0     1  0  0  0  0  0999 V2000
  -26.0876  -33.1550   24.2183 C   0  0  0  0  0  0  0  0  0  0  0  0
  -25.6010  -31.8524   24.1775 C   0  0  0  0  0  0  0  0  0  0  0  0
  -22.9944   -9.8174   20.0600 C   0  0  0  0  0  0  0  0  0  0  0  0
  -23.6541  -10.0364   22.3738 C   0  0  0  0  0  0  0  0  0  0  0  0
  -27.1333  -33.5339   23.3775 C   0  0  0  0  0  0  0  0  0  0  0  0
  -26.1590  -30.9281   23.2952 C   0  0  0  0  0  0  0  0  0  0  0  0
  -26.9079  -24.9238   24.2407 C   0  0  0  0  0  0  0  0  0  0  0  0
  -22.2182   -8.7054   20.3865 C   0  0  0  0  0  0  0  0  0  0  0  0
  -22.8778   -8.9245   22.7004 C   0  0  0  0  0  0  0  0  0  0  0  0
  -26.1632  -23.8124   23.8483 C   0  0  0  0  0  0  0  0  0  0  0  0
  -23.1281   -5.5600   22.4807 C   0  0  0  0  0  0  0  0  0  0  0  0
  -23.6918   -4.6004   23.3215 C   0  0  0  0  0  0  0  0  0  0  0  0
  -31.7908  -18.5295   23.8601 C   0  0  0  0  0  0  0  0  0  0  0  0
  -27.6235  -23.5111   21.9519 C   0  0  0  0  0  0  0  0  0  0  0  0
  -31.9916  -16.6228   22.3900 C   0  0  0  0  0  0  0  0  0  0  0  0
  -21.9216   -4.9652   24.9247 C   0  0  0  0  0  0  0  0  0  0  0  0
  -23.7124  -10.4828   21.0536 C   0  0  0  0  0  0  0  0  0  0  0  0
  -30.4105  -18.5391   23.6592 C   0  0  0  0  0  0  0  0  0  0  0  0
  -29.8208  -17.5905   22.8237 C   0  0  0  0  0  0  0  0  0  0  0  0
  -24.1081  -12.9788   20.7055 C   0  0  0  0  0  0  0  0  0  0  0  0
  -27.7110  -32.6111   22.4912 C   0  0  0  0  0  0  0  0  0  0  0  0
  -28.0113  -25.3444   23.4844 C   0  0  0  0  0  0  0  0  0  0  0  0
  -27.2126  -31.2953   22.4408 C   0  0  0  0  0  0  0  0  0  0  0  0
  -28.3820  -24.6267   22.3383 C   0  0  0  0  0  0  0  0  0  0  0  0
  -30.6113  -16.6324   22.1891 C   0  0  0  0  0  0  0  0  0  0  0  0
  -22.1598   -8.2590   21.7067 C   0  0  0  0  0  0  0  0  0  0  0  0
  -26.5192  -23.1076   22.7021 C   0  0  0  0  0  0  0  0  0  0  0  0
  -21.9611   -6.2223   22.8619 C   0  0  0  0  0  0  0  0  0  0  0  0
  -23.0886   -4.3029   24.5435 C   0  0  0  0  0  0  0  0  0  0  0  0
  -32.5813  -17.5713   23.2255 C   0  0  0  0  0  0  0  0  0  0  0  0
  -21.3579   -5.9249   24.0839 C   0  0  0  0  0  0  0  0  0  0  0  0
  -24.5149  -11.6312   20.7169 C   0  0  0  0  0  0  0  0  0  0  0  0
  -25.2293  -13.6727   20.3210 C   0  0  0  0  0  0  0  0  0  0  0  0
  -29.7712  -20.8578   24.1390 C   0  0  0  0  0  0  0  0  0  0  0  0
  -29.6195  -19.5578   24.3392 C   0  0  0  0  0  0  0  0  0  0  0  0
  -28.3513  -17.5940   22.6050 C   0  0  0  0  0  0  0  0  0  0  0  0
  -22.8309  -13.5521   21.0148 C   0  0  0  0  0  0  0  0  0  0  0  0
  -28.7547  -27.9849   21.8785 C   0  0  0  0  0  0  0  0  0  0  0  0
  -31.6173  -26.4996   21.5299 C   0  0  0  0  0  0  0  0  0  0  0  0
  -33.3747  -23.5748   21.4637 C   0  0  0  0  0  0  0  0  0  0  0  0
  -30.7020  -14.6478   20.6401 C   0  0  0  0  0  0  0  0  0  0  0  0
  -28.8078  -33.0799   21.5682 C   0  0  0  0  0  0  0  0  0  0  0  0
  -28.8203  -26.5294   23.9359 C   0  0  0  0  0  0  0  0  0  0  0  0
  -29.5702  -25.0251   21.5029 C   0  0  0  0  0  0  0  0  0  0  0  0
  -29.5941  -31.9388   20.9278 C   0  0  0  0  0  0  0  0  0  0  0  0
  -29.6449  -12.0316   18.4686 C   0  0  0  0  0  0  0  0  0  0  0  0
  -28.6449  -30.8740   20.3874 C   0  0  0  0  0  0  0  0  0  0  0  0
  -28.1825  -11.8051   18.8590 C   0  0  0  0  0  0  0  0  0  0  0  0
  -30.5112  -12.3627   19.6825 C   0  0  0  0  0  0  0  0  0  0  0  0
  -28.5605  -13.2471   20.8998 C   0  0  0  0  0  0  0  0  0  0  0  0
  -27.8084  -30.2571   21.5148 C   0  0  1  0  0  0  0  0  0  0  0  0
  -29.6161  -27.1751   22.8059 C   0  0  1  0  0  0  0  0  0  0  0  0
  -27.6365  -12.9745   19.7016 C   0  0  2  0  0  0  0  0  0  0  0  0
  -35.6925  -22.6767   21.1192 C   0  0  0  0  0  0  0  0  0  0  0  0
  -31.3385  -26.9401   18.5235 C   0  0  0  0  0  0  0  0  0  0  0  0
  -33.1389  -25.2351   18.1772 C   0  0  0  0  0  0  0  0  0  0  0  0
  -33.6366  -27.3357   19.4271 C   0  0  0  0  0  0  0  0  0  0  0  0
  -33.4562  -22.4176   24.1864 C   0  0  0  0  0  0  0  0  0  0  0  0
  -25.8373  -19.6538   21.9365 C   0  0  0  0  0  0  0  0  0  0  0  0
  -26.4978  -18.4854   21.2173 C   0  0  0  0  0  0  0  0  0  0  0  0
  -26.4883  -20.9933   21.6138 C   0  0  0  0  0  0  0  0  0  1  0  0
  -32.2140  -25.5524   20.5170 C   0  0  1  0  0  0  0  0  0  0  0  0
  -34.6721  -23.1638   22.1362 C   0  0  2  0  0  0  0  0  0  0  0  0
  -32.5584  -26.2592   19.1757 C   0  0  0  0  0  0  0  0  0  0  0  0
  -25.7947  -11.4759   20.3673 N   0  0  0  0  0  0  0  0  0  0  0  0
  -26.2016  -12.7350   20.1325 N   0  0  0  0  0  0  0  0  0  0  0  0
  -30.3257  -26.1943   21.9821 N   0  0  0  0  0  0  0  0  0  0  0  0
  -29.9348  -13.4825   20.4299 N   0  0  0  0  0  0  0  0  0  0  0  0
  -25.4685  -14.9874   20.1291 N   0  0  0  0  0  0  0  0  0  0  0  0
  -21.7878  -12.6955   21.3925 N   0  0  0  0  0  0  0  0  0  0  0  0
  -30.0378  -15.6579   21.3351 N   0  0  0  0  0  0  0  0  0  0  0  0
  -27.8922  -18.3620   21.5408 N   0  0  0  0  0  0  0  0  0  0  0  0
  -28.5962  -29.3023   22.2644 N   0  0  0  0  0  0  0  0  0  0  0  0
  -33.3558  -24.9221   21.1707 N   0  0  0  0  0  0  0  0  0  0  0  0
  -34.4237  -22.0676   23.1148 N   0  3  0  0  0  0  0  0  0  0  0  0
  -27.6301  -16.9533   23.3651 O   0  0  0  0  0  0  0  0  0  0  0  0
  -22.6163  -14.7859   20.9421 O   0  0  0  0  0  0  0  0  0  0  0  0
  -28.2710  -27.4542   20.8855 O   0  0  0  0  0  0  0  0  0  0  0  0
  -32.2759  -27.4704   21.9113 O   0  0  0  0  0  0  0  0  0  0  0  0
  -32.4701  -22.7795   21.2192 O   0  0  0  0  0  0  0  0  0  0  0  0
  -31.8534  -14.7530   20.2097 O   0  0  0  0  0  0  0  0  0  0  0  0
  -21.4022   -7.1742   22.0257 O   0  0  0  0  0  0  0  0  0  0  0  0
  -25.7937  -22.0228   22.3165 O   0  0  0  0  0  0  0  0  0  1  0  0
  -23.6292   -3.3803   25.3501 F   0  0  0  0  0  0  0  0  0  0  0  0
  -33.9065  -17.5606   23.4201 F   0  0  0  0  0  0  0  0  0  0  0  0
  -20.2361   -6.5570   24.4551 F   0  0  0  0  0  0  0  0  0  0  0  0
  1  2  1  0  0  0  0
  1  5  2  0  0  0  0
  2  6  2  0  0  0  0
  3  8  2  0  0  0  0
  3 17  1  0  0  0  0
  4  9  1  0  0  0  0
  4 17  2  0  0  0  0
  5 21  1  0  0  0  0
  6 23  1  0  0  0  0
  7 10  2  0  0  0  0
  7 22  1  0  0  0  0
  8 26  1  0  0  0  0
  9 26  2  0  0  0  0
 10 27  1  0  0  0  0
 11 12  2  0  0  0  0
 11 28  1  0  0  0  0
 12 29  1  0  0  0  0
 13 18  1  0  0  0  0
 13 30  2  0  0  0  0
 14 24  1  0  0  0  0
 14 27  2  0  0  0  0
 15 25  2  0  0  0  0
 15 30  1  0  0  0  0
 16 29  2  0  0  0  0
 16 31  1  0  0  0  0
 17 32  1  0  0  0  0
 18 19  2  0  0  0  0
 18 35  1  0  0  0  0
 19 25  1  0  0  0  0
 19 36  1  0  0  0  0
 20 32  1  0  0  0  0
 20 33  2  0  0  0  0
 20 37  1  0  0  0  0
 21 23  2  0  0  0  0
 21 42  1  0  0  0  0
 22 24  2  0  0  0  0
 22 43  1  0  0  0  0
 23 51  1  0  0  0  0
 24 44  1  0  0  0  0
 25 71  1  0  0  0  0
 26 82  1  0  0  0  0
 27 83  1  0  0  0  0
 28 31  2  0  0  0  0
 28 82  1  0  0  0  0
 29 84  1  0  0  0  0
 30 85  1  0  0  0  0
 31 86  1  0  0  0  0
 32 65  2  0  0  0  0
 33 66  1  0  0  0  0
 33 69  1  0  0  0  0
 34 35  2  0  0  0  0
 36 72  1  0  0  0  0
 36 76  2  0  0  0  0
 37 70  1  0  0  0  0
 37 77  2  0  0  0  0
 38 52  1  0  0  0  0
 38 73  1  0  0  0  0
 38 78  2  0  0  0  0
 39 62  1  0  0  0  0
 39 67  1  0  0  0  0
 39 79  2  0  0  0  0
 40 63  1  0  0  0  0
 40 74  1  0  0  0  0
 40 80  2  0  0  0  0
 41 68  1  0  0  0  0
 41 71  1  0  0  0  0
 41 81  2  0  0  0  0
 42 45  1  0  0  0  0
 43 52  1  0  0  0  0
 44 67  1  0  0  0  0
 45 47  1  0  0  0  0
 46 48  1  0  0  0  0
 46 49  1  0  0  0  0
 47 51  1  0  0  0  0
 48 53  1  0  0  0  0
 49 68  1  0  0  0  0
 50 53  1  0  0  0  0
 50 68  1  0  0  0  0
 51 73  1  0  0  0  0
 52 67  1  0  0  0  0
 53 66  1  0  0  0  0
 54 63  1  0  0  0  0
 55 64  1  0  0  0  0
 56 64  1  0  0  0  0
 57 64  1  0  0  0  0
 58 75  1  0  0  0  0
 59 60  1  0  0  0  0
 59 61  1  0  0  0  0
 60 72  1  0  0  0  0
 61 83  1  0  0  0  0
 62 64  1  0  0  0  0
 62 74  1  0  0  0  0
 63 75  1  0  0  0  0
 65 66  1  0  0  0  0
M  CHG  1  75   1
M  ISO  4  41 100  61 101  71 100  83 101
M  END
> <Batch ID>
0114

> <Smiles>
C=Cc1cc(F)cc([100NH:0][100C:0](=O)N2CCCC(n3nc(-c4ccc(Oc5ccc(F)cc5F)cc4)c(C(N)=O)c3N)C2)c1C(=O)NCC[101CH2:1][101O:1]c1ccc2c(c1)CN(C(=O)C(NC(=O)C(C)NC)C(C)(C)C)C(C(=O)NC1CCCc3ccccc31)C2

> <Shape>
0.260

> <Color>
0.194

> <Negative vol penalty>
0.000

$$$$

  -OEChem-04052301373D

 87 96  0     1  0  0  0  0  0999 V2000
  -19.2094  -28.8819   23.3155 C   0  0  0  0  0  0  0  0  0  0  0  0
  -20.5320  -28.4961   23.1225 C   0  0  0  0  0  0  0  0  0  0  0  0
  -32.5553  -22.6502   18.3867 C   0  0  0  0  0  0  0  0  0  0  0  0
  -24.3554  -13.8186   22.1920 C   0  0  0  0  0  0  0  0  0  0  0  0
  -26.2812  -13.9843   20.7425 C   0  0  0  0  0  0  0  0  0  0  0  0
  -18.1746  -28.0993   22.8051 C   0  0  0  0  0  0  0  0  0  0  0  0
  -20.8205  -27.3267   22.4198 C   0  0  0  0  0  0  0  0  0  0  0  0
  -24.5618  -27.9495   19.0642 C   0  0  0  0  0  0  0  0  0  0  0  0
  -32.6436  -24.0407   18.3216 C   0  0  0  0  0  0  0  0  0  0  0  0
  -31.4732  -22.0494   19.0300 C   0  0  0  0  0  0  0  0  0  0  0  0
  -23.8849  -12.7397   21.4435 C   0  0  0  0  0  0  0  0  0  0  0  0
  -25.8107  -12.9054   19.9941 C   0  0  0  0  0  0  0  0  0  0  0  0
  -25.8650  -27.9649   19.5593 C   0  0  0  0  0  0  0  0  0  0  0  0
  -24.5247   -9.4309   21.1686 C   0  0  0  0  0  0  0  0  0  0  0  0
  -24.0493   -8.3185   21.8629 C   0  0  0  0  0  0  0  0  0  0  0  0
  -26.1419  -25.6653   18.8852 C   0  0  0  0  0  0  0  0  0  0  0  0
  -30.5678  -24.2297   19.5433 C   0  0  0  0  0  0  0  0  0  0  0  0
  -21.8846   -8.5969   20.8266 C   0  0  0  0  0  0  0  0  0  0  0  0
  -25.5535  -14.4409   21.8415 C   0  0  0  0  0  0  0  0  0  0  0  0
  -26.3662  -15.5633   23.9833 C   0  0  0  0  0  0  0  0  0  0  0  0
  -18.4508  -26.9249   22.0875 C   0  0  0  0  0  0  0  0  0  0  0  0
  -24.0342  -26.7865   18.4848 C   0  0  0  0  0  0  0  0  0  0  0  0
  -19.7883  -26.5269   21.9005 C   0  0  0  0  0  0  0  0  0  0  0  0
  -24.8326  -25.6385   18.3812 C   0  0  0  0  0  0  0  0  0  0  0  0
  -31.6499  -24.8304   18.8999 C   0  0  0  0  0  0  0  0  0  0  0  0
  -30.4795  -22.8391   19.6083 C   0  0  0  0  0  0  0  0  0  0  0  0
  -24.6125  -12.2831   20.3446 C   0  0  0  0  0  0  0  0  0  0  0  0
  -26.6543  -26.8219   19.4724 C   0  0  0  0  0  0  0  0  0  0  0  0
  -23.6801  -10.1264   20.3033 C   0  0  0  0  0  0  0  0  0  0  0  0
  -22.7293   -7.9015   21.6919 C   0  0  0  0  0  0  0  0  0  0  0  0
  -22.3601   -9.7094   20.1324 C   0  0  0  0  0  0  0  0  0  0  0  0
  -26.0398  -15.5558   22.6139 C   0  0  0  0  0  0  0  0  0  0  0  0
  -26.7755  -16.8507   24.2317 C   0  0  0  0  0  0  0  0  0  0  0  0
  -30.9097  -28.2913   20.7920 C   0  0  0  0  0  0  0  0  0  0  0  0
  -30.1088  -27.8376   19.8108 C   0  0  0  0  0  0  0  0  0  0  0  0
  -32.3898  -28.1778   20.8161 C   0  0  0  0  0  0  0  0  0  0  0  0
  -26.3051  -14.5015   24.9448 C   0  0  0  0  0  0  0  0  0  0  0  0
  -21.6082  -24.8464   19.1588 C   0  0  0  0  0  0  0  0  0  0  0  0
  -22.4319  -23.4726   16.3381 C   0  0  0  0  0  0  0  0  0  0  0  0
  -23.0931  -21.5509   13.5964 C   0  0  0  0  0  0  0  0  0  0  0  0
  -29.1332  -20.8622   20.4231 C   0  0  0  0  0  0  0  0  0  0  0  0
  -17.2975  -26.0866   21.5955 C   0  0  0  0  0  0  0  0  0  0  0  0
  -22.6356  -26.7942   17.9314 C   0  0  0  0  0  0  0  0  0  0  0  0
  -24.3203  -24.3706   17.7499 C   0  0  0  0  0  0  0  0  0  0  0  0
  -33.1310  -28.1858   19.5031 C   0  0  0  0  0  0  0  0  0  0  0  0
  -17.6980  -25.0595   20.5396 C   0  0  0  0  0  0  0  0  0  0  0  0
  -25.6700  -21.0345   22.0664 C   0  0  0  0  0  0  0  0  0  0  0  0
  -18.9584  -24.3155   20.9695 C   0  0  0  0  0  0  0  0  0  0  0  0
  -25.8076  -19.8907   23.0684 C   0  0  0  0  0  0  0  0  0  0  0  0
  -33.0673  -26.8443   18.7912 C   0  0  0  0  0  0  0  0  0  0  0  0
  -27.0208  -21.5995   21.6457 C   0  0  0  0  0  0  0  0  0  0  0  0
  -27.5588  -19.1747   21.3505 C   0  0  0  0  0  0  0  0  0  0  0  0
  -20.1422  -25.2782   21.1223 C   0  0  1  0  0  0  0  0  0  0  0  0
  -30.5141  -27.0153   18.5943 C   0  0  1  0  0  0  0  0  0  0  0  0
  -22.0271  -25.3993   17.8259 C   0  0  1  0  0  0  0  0  0  0  0  0
  -27.0041  -18.9661   22.7683 C   0  0  2  0  0  0  0  0  0  0  0  0
  -30.6051  -27.8360   17.3032 C   0  0  0  0  0  0  0  0  0  0  0  0
  -22.7291  -19.2466   12.6718 C   0  0  0  0  0  0  0  0  0  0  0  0
  -24.5953  -22.3879   18.1963 C   0  0  0  0  0  0  0  0  0  0  0  0
  -24.8577  -20.4431   16.6415 C   0  0  0  0  0  0  0  0  0  0  0  0
  -22.6820  -20.8270   17.7997 C   0  0  0  0  0  0  0  0  0  0  0  0
  -21.5778  -22.5945   11.2784 C   0  0  0  0  0  0  0  0  0  0  0  0
  -28.6213  -28.0801   19.9239 C   0  0  0  0  0  0  0  0  0  1  0  0
  -23.3752  -22.3703   15.9210 C   0  0  1  0  0  0  0  0  0  0  0  0
  -22.1977  -20.6696   12.7444 C   0  0  2  0  0  0  0  0  0  0  0  0
  -23.8807  -21.5337   17.1301 C   0  0  0  0  0  0  0  0  0  0  0  0
  -26.2255  -16.7441   22.0330 N   0  0  0  0  0  0  0  0  0  0  0  0
  -26.6729  -17.5104   23.0424 N   0  0  0  0  0  0  0  0  0  0  0  0
  -31.7385  -26.2272   18.8339 N   0  0  3  0  0  0  0  0  0  0  0  0
  -22.9443  -24.4262   17.2292 N   0  0  0  0  0  0  0  0  0  0  0  0
  -27.9401  -20.5746   21.1302 N   0  0  0  0  0  0  0  0  0  0  0  0
  -27.2093  -17.4715   25.3492 N   0  0  0  0  0  0  0  0  0  0  0  0
  -27.4355  -13.6914   25.1184 N   0  0  0  0  0  0  0  0  0  0  0  0
  -29.3808  -22.2281   20.2630 N   0  0  0  0  0  0  0  0  0  0  0  0
  -20.6818  -25.6256   19.8251 N   0  0  0  0  0  0  0  0  0  0  0  0
  -22.6706  -21.5915   14.9084 N   0  0  0  0  0  0  0  0  0  0  0  0
  -22.1079  -21.2090   11.3580 N   0  3  0  0  0  0  0  0  0  0  0  0
  -32.9799  -28.1331   21.8939 O   0  0  0  0  0  0  0  0  0  0  0  0
  -25.2729  -14.2675   25.6181 O   0  0  0  0  0  0  0  0  0  0  0  0
  -22.0889  -23.7903   19.5529 O   0  0  0  0  0  0  0  0  0  0  0  0
  -21.2851  -23.4912   15.8842 O   0  0  0  0  0  0  0  0  0  0  0  0
  -24.0718  -22.1410   13.1443 O   0  0  0  0  0  0  0  0  0  0  0  0
  -29.8732  -19.9669   20.0098 O   0  0  0  0  0  0  0  0  0  0  0  0
  -24.1538  -11.2302   19.6141 O   0  0  0  0  0  0  0  0  0  0  0  0
  -27.9265  -26.8341   19.9554 O   0  0  0  0  0  0  0  0  0  1  0  0
  -22.2733   -6.8323   22.3575 F   0  0  0  0  0  0  0  0  0  0  0  0
  -21.5442  -10.3728   19.3016 F   0  0  0  0  0  0  0  0  0  0  0  0
  1  2  1  0  0  0  0
  1  6  2  0  0  0  0
  2  7  2  0  0  0  0
  3  9  2  0  0  0  0
  3 10  1  0  0  0  0
  4 11  2  0  0  0  0
  4 19  1  0  0  0  0
  5 12  1  0  0  0  0
  5 19  2  0  0  0  0
  6 21  1  0  0  0  0
  7 23  1  0  0  0  0
  8 13  2  0  0  0  0
  8 22  1  0  0  0  0
  9 25  1  0  0  0  0
 10 26  2  0  0  0  0
 11 27  1  0  0  0  0
 12 27  2  0  0  0  0
 13 28  1  0  0  0  0
 14 15  2  0  0  0  0
 14 29  1  0  0  0  0
 15 30  1  0  0  0  0
 16 24  1  0  0  0  0
 16 28  2  0  0  0  0
 17 25  2  0  0  0  0
 17 26  1  0  0  0  0
 18 30  2  0  0  0  0
 18 31  1  0  0  0  0
 19 32  1  0  0  0  0
 20 32  1  0  0  0  0
 20 33  2  0  0  0  0
 20 37  1  0  0  0  0
 21 23  2  0  0  0  0
 21 42  1  0  0  0  0
 22 24  2  0  0  0  0
 22 43  1  0  0  0  0
 23 53  1  0  0  0  0
 24 44  1  0  0  0  0
 25 69  1  0  0  0  0
 26 74  1  0  0  0  0
 27 84  1  0  0  0  0
 28 85  1  0  0  0  0
 29 31  2  0  0  0  0
 29 84  1  0  0  0  0
 30 86  1  0  0  0  0
 31 87  1  0  0  0  0
 32 67  2  0  0  0  0
 33 68  1  0  0  0  0
 33 72  1  0  0  0  0
 34 35  2  0  0  0  0
 34 36  1  0  0  0  0
 35 54  1  0  0  0  0
 35 63  1  0  0  0  0
 36 45  1  0  0  0  0
 36 78  2  0  0  0  0
 37 73  1  0  0  0  0
 37 79  2  0  0  0  0
 38 55  1  0  0  0  0
 38 75  1  0  0  0  0
 38 80  2  0  0  0  0
 39 64  1  0  0  0  0
 39 70  1  0  0  0  0
 39 81  2  0  0  0  0
 40 65  1  0  0  0  0
 40 76  1  0  0  0  0
 40 82  2  0  0  0  0
 41 71  1  0  0  0  0
 41 74  1  0  0  0  0
 41 83  2  0  0  0  0
 42 46  1  0  0  0  0
 43 55  1  0  0  0  0
 44 70  1  0  0  0  0
 45 50  1  0  0  0  0
 46 48  1  0  0  0  0
 47 49  1  0  0  0  0
 47 51  1  0  0  0  0
 48 53  1  0  0  0  0
 49 56  1  0  0  0  0
 50 69  1  0  0  0  0
 51 71  1  0  0  0  0
 52 56  1  0  0  0  0
 52 71  1  0  0  0  0
 53 75  1  0  0  0  0
 54 57  1  0  0  0  0
 54 69  1  0  0  0  0
 55 70  1  0  0  0  0
 56 68  1  0  0  0  0
 58 65  1  0  0  0  0
 59 66  1  0  0  0  0
 60 66  1  0  0  0  0
 61 66  1  0  0  0  0
 62 77  1  0  0  0  0
 63 85  1  0  0  0  0
 64 66  1  0  0  0  0
 64 76  1  0  0  0  0
 65 77  1  0  0  0  0
 67 68  1  0  0  0  0
M  CHG  1  77   1
M  ISO  4  41 100  63 101  74 100  85 101
M  END
> <Batch ID>
0114

> <Smiles>
CNC(C)C(=O)NC(C(=O)N1Cc2cc([101O:1][101CH2:1]C3=C(C)N(c4cccc([100NH:0][100C:0](=O)N5CCCC(n6nc(-c7ccc(Oc8ccc(F)cc8F)cc7)c(C(N)=O)c6N)C5)c4)CCC(=O)C3)ccc2CC1C(=O)NC1CCCc2ccccc21)C(C)(C)C

> <Shape>
0.219

> <Color>
0.073

> <Negative vol penalty>
0.000

$$$$

  -OEChem-04052301373D

 87 95  0     1  0  0  0  0  0999 V2000
  -21.8710  -12.6163   19.4823 C   0  0  0  0  0  0  0  0  0  0  0  0
  -21.8024  -14.0015   19.5913 C   0  0  0  0  0  0  0  0  0  0  0  0
  -28.6553  -28.4113   18.8235 C   0  0  0  0  0  0  0  0  0  0  0  0
  -28.8646  -26.9324   20.7225 C   0  0  0  0  0  0  0  0  0  0  0  0
  -23.0000  -11.9373   19.9389 C   0  0  0  0  0  0  0  0  0  0  0  0
  -22.8623  -14.7085   20.1580 C   0  0  0  0  0  0  0  0  0  0  0  0
  -24.0799  -18.8441   17.5011 C   0  0  0  0  0  0  0  0  0  0  0  0
  -30.0196  -28.2751   18.5670 C   0  0  0  0  0  0  0  0  0  0  0  0
  -30.2289  -26.7962   20.4660 C   0  0  0  0  0  0  0  0  0  0  0  0
  -23.2617  -19.9626   17.6536 C   0  0  0  0  0  0  0  0  0  0  0  0
  -33.3780  -28.0309   17.1972 C   0  0  0  0  0  0  0  0  0  0  0  0
  -33.7715  -27.8185   15.8760 C   0  0  0  0  0  0  0  0  0  0  0  0
  -19.5238  -28.8146   22.9705 C   0  0  0  0  0  0  0  0  0  0  0  0
  -24.8664  -20.9210   19.1786 C   0  0  0  0  0  0  0  0  0  0  0  0
  -18.6718  -27.1886   21.3998 C   0  0  0  0  0  0  0  0  0  0  0  0
  -32.4648  -25.7872   15.8135 C   0  0  0  0  0  0  0  0  0  0  0  0
  -28.0778  -27.7399   19.9013 C   0  0  0  0  0  0  0  0  0  0  0  0
  -20.4320  -27.8724   23.4533 C   0  0  0  0  0  0  0  0  0  0  0  0
  -25.6244  -27.0833   19.6614 C   0  0  0  0  0  0  0  0  0  0  0  0
  -24.0784  -12.6373   20.5026 C   0  0  0  0  0  0  0  0  0  0  0  0
  -25.2944  -18.7506   18.1958 C   0  0  0  0  0  0  0  0  0  0  0  0
  -24.0062  -14.0382   20.6237 C   0  0  0  0  0  0  0  0  0  0  0  0
  -25.6994  -19.8014   19.0312 C   0  0  0  0  0  0  0  0  0  0  0  0
  -20.4601  -26.5883   22.9092 C   0  0  0  0  0  0  0  0  0  0  0  0
  -30.8064  -27.4676   19.3883 C   0  0  0  0  0  0  0  0  0  0  0  0
  -23.6536  -21.0000   18.4947 C   0  0  0  0  0  0  0  0  0  0  0  0
  -32.5280  -27.1215   17.8267 C   0  0  0  0  0  0  0  0  0  0  0  0
  -19.5800  -26.2464   21.8825 C   0  0  0  0  0  0  0  0  0  0  0  0
  -33.3149  -26.6967   15.1842 C   0  0  0  0  0  0  0  0  0  0  0  0
  -18.6436  -28.4727   21.9438 C   0  0  0  0  0  0  0  0  0  0  0  0
  -32.0714  -25.9997   17.1348 C   0  0  0  0  0  0  0  0  0  0  0  0
  -26.6687  -27.8807   20.1670 C   0  0  0  0  0  0  0  0  0  0  0  0
  -24.4854  -27.6223   20.2078 C   0  0  0  0  0  0  0  0  0  0  0  0
  -20.8139  -23.2279   24.0864 C   0  0  0  0  0  0  0  0  0  0  0  0
  -20.7864  -24.5458   24.3148 C   0  0  0  0  0  0  0  0  0  0  0  0
  -21.3388  -28.2583   24.5264 C   0  0  0  0  0  0  0  0  0  0  0  0
  -25.6792  -25.9561   18.7770 C   0  0  0  0  0  0  0  0  0  0  0  0
  -21.8032  -29.6566   24.6753 C   0  0  0  0  0  0  0  0  0  0  0  0
  -26.4840  -16.7681   20.3772 C   0  0  0  0  0  0  0  0  0  0  0  0
  -29.1866  -18.5008   19.9124 C   0  0  0  0  0  0  0  0  0  0  0  0
  -30.6094  -21.4372   18.9125 C   0  0  0  0  0  0  0  0  0  0  0  0
  -25.2575  -11.8555   21.0252 C   0  0  0  0  0  0  0  0  0  0  0  0
  -26.1782  -17.5494   17.9998 C   0  0  0  0  0  0  0  0  0  0  0  0
  -27.0034  -19.7588   19.7837 C   0  0  0  0  0  0  0  0  0  0  0  0
  -26.4962  -12.7132   21.2711 C   0  0  0  0  0  0  0  0  0  0  0  0
  -23.7492  -31.9433   22.7155 C   0  0  0  0  0  0  0  0  0  0  0  0
  -26.1232  -13.9862   22.0242 C   0  0  0  0  0  0  0  0  0  0  0  0
  -24.6240  -31.0232   21.8646 C   0  0  0  0  0  0  0  0  0  0  0  0
  -23.4956  -31.3511   24.0980 C   0  0  0  0  0  0  0  0  0  0  0  0
  -23.7785  -29.0514   23.2146 C   0  0  0  0  0  0  0  0  0  0  0  0
  -25.1460  -14.8427   21.2099 C   0  0  1  0  0  0  0  0  0  0  0  0
  -27.1516  -17.3291   19.1536 C   0  0  1  0  0  0  0  0  0  0  0  0
  -24.0336  -29.6033   21.8012 C   0  0  2  0  0  0  0  0  0  0  0  0
  -32.8375  -22.5686   18.6821 C   0  0  0  0  0  0  0  0  0  0  0  0
  -29.2671  -18.9511   22.9291 C   0  0  0  0  0  0  0  0  0  0  0  0
  -30.8952  -20.8124   22.5376 C   0  0  0  0  0  0  0  0  0  0  0  0
  -31.4902  -18.4794   21.8850 C   0  0  0  0  0  0  0  0  0  0  0  0
  -30.2840  -21.7386   15.9863 C   0  0  0  0  0  0  0  0  0  0  0  0
  -21.4304  -25.5714   23.4213 C   0  0  0  0  0  0  0  0  0  0  0  0
  -20.8862  -23.4097   18.1837 C   0  0  0  0  0  0  0  0  0  0  0  0
  -20.5745  -23.5804   19.6664 C   0  0  0  0  0  0  0  0  0  0  0  0
  -21.6324  -22.1101   17.9126 C   0  0  0  0  0  0  0  0  0  1  0  0
  -19.8666  -24.8991   19.9438 C   0  0  0  0  0  0  0  0  0  0  0  0
  -29.7761  -19.7476   20.5265 C   0  0  1  0  0  0  0  0  0  0  0  0
  -31.7781  -21.7268   17.9879 C   0  0  2  0  0  0  0  0  0  0  0  0
  -30.3316  -19.4978   21.9570 C   0  0  0  0  0  0  0  0  0  0  0  0
  -26.2318  -28.8524   20.9726 N   0  0  0  0  0  0  0  0  0  0  0  0
  -21.7939  -27.4175   25.4135 N   0  0  0  0  0  0  0  0  0  0  0  0
  -24.9004  -28.6692   20.9772 N   0  0  0  0  0  0  0  0  0  0  0  0
  -22.9699  -29.9908   24.0020 N   0  0  0  0  0  0  0  0  0  0  0  0
  -27.8298  -18.5604   19.5638 N   0  0  0  0  0  0  0  0  0  0  0  0
  -23.1793  -27.2982   20.1003 N   0  0  0  0  0  0  0  0  0  0  0  0
  -26.9312  -25.5340   18.3093 N   0  0  0  0  0  0  0  0  0  0  0  0
  -25.8494  -15.5587   20.1673 N   0  0  0  0  0  0  0  0  0  0  0  0
  -30.7688  -20.2399   19.5775 N   0  0  0  0  0  0  0  0  0  0  0  0
  -31.3118  -22.4620   16.7783 N   0  3  0  0  0  0  0  0  0  0  0  0
  -24.6470  -25.3516   18.3993 O   0  0  0  0  0  0  0  0  0  0  0  0
  -21.1043  -30.3721   25.3810 O   0  0  0  0  0  0  0  0  0  0  0  0
  -26.5416  -17.3860   21.4339 O   0  0  0  0  0  0  0  0  0  0  0  0
  -29.9053  -17.5129   19.7414 O   0  0  0  0  0  0  0  0  0  0  0  0
  -29.6527  -22.1989   19.0355 O   0  0  0  0  0  0  0  0  0  0  0  0
  -32.1376  -27.3343   19.1382 O   0  0  0  0  0  0  0  0  0  0  0  0
  -22.8565  -22.0926   18.6458 O   0  0  0  0  0  0  0  0  0  1  0  0
  -19.5923  -24.9897   21.3351 O   0  0  0  0  0  0  0  0  0  0  0  0
  -33.6916  -26.4936   13.9149 F   0  0  0  0  0  0  0  0  0  0  0  0
  -17.7716  -29.3776   21.4800 F   0  0  0  0  0  0  0  0  0  0  0  0
  -31.2537  -25.1231   17.7338 F   0  0  0  0  0  0  0  0  0  0  0  0
  1  2  1  0  0  0  0
  1  5  2  0  0  0  0
  2  6  2  0  0  0  0
  3  8  2  0  0  0  0
  3 17  1  0  0  0  0
  4  9  1  0  0  0  0
  4 17  2  0  0  0  0
  5 20  1  0  0  0  0
  6 22  1  0  0  0  0
  7 10  2  0  0  0  0
  7 21  1  0  0  0  0
  8 25  1  0  0  0  0
  9 25  2  0  0  0  0
 10 26  1  0  0  0  0
 11 12  2  0  0  0  0
 11 27  1  0  0  0  0
 12 29  1  0  0  0  0
 13 18  1  0  0  0  0
 13 30  2  0  0  0  0
 14 23  1  0  0  0  0
 14 26  2  0  0  0  0
 15 28  2  0  0  0  0
 15 30  1  0  0  0  0
 16 29  2  0  0  0  0
 16 31  1  0  0  0  0
 17 32  1  0  0  0  0
 18 24  2  0  0  0  0
 18 36  1  0  0  0  0
 19 32  1  0  0  0  0
 19 33  2  0  0  0  0
 19 37  1  0  0  0  0
 20 22  2  0  0  0  0
 20 42  1  0  0  0  0
 21 23  2  0  0  0  0
 21 43  1  0  0  0  0
 22 51  1  0  0  0  0
 23 44  1  0  0  0  0
 24 28  1  0  0  0  0
 24 59  1  0  0  0  0
 25 82  1  0  0  0  0
 26 83  1  0  0  0  0
 27 31  2  0  0  0  0
 27 82  1  0  0  0  0
 28 84  1  0  0  0  0
 29 85  1  0  0  0  0
 30 86  1  0  0  0  0
 31 87  1  0  0  0  0
 32 67  2  0  0  0  0
 33 69  1  0  0  0  0
 33 72  1  0  0  0  0
 34 35  2  0  0  0  0
 35 59  1  0  0  0  0
 36 38  1  0  0  0  0
 36 68  2  0  0  0  0
 37 73  1  0  0  0  0
 37 77  2  0  0  0  0
 38 70  1  0  0  0  0
 38 78  2  0  0  0  0
 39 52  1  0  0  0  0
 39 74  1  0  0  0  0
 39 79  2  0  0  0  0
 40 64  1  0  0  0  0
 40 71  1  0  0  0  0
 40 80  2  0  0  0  0
 41 65  1  0  0  0  0
 41 75  1  0  0  0  0
 41 81  2  0  0  0  0
 42 45  1  0  0  0  0
 43 52  1  0  0  0  0
 44 71  1  0  0  0  0
 45 47  1  0  0  0  0
 46 48  1  0  0  0  0
 46 49  1  0  0  0  0
 47 51  1  0  0  0  0
 48 53  1  0  0  0  0
 49 70  1  0  0  0  0
 50 53  1  0  0  0  0
 50 70  1  0  0  0  0
 51 74  1  0  0  0  0
 52 71  1  0  0  0  0
 53 69  1  0  0  0  0
 54 65  1  0  0  0  0
 55 66  1  0  0  0  0
 56 66  1  0  0  0  0
 57 66  1  0  0  0  0
 58 76  1  0  0  0  0
 60 61  1  0  0  0  0
 60 62  1  0  0  0  0
 61 63  1  0  0  0  0
 62 83  1  0  0  0  0
 63 84  1  0  0  0  0
 64 66  1  0  0  0  0
 64 75  1  0  0  0  0
 65 76  1  0  0  0  0
 67 69  1  0  0  0  0
M  CHG  1  76   1
M  ISO  4  36 100  38 100  62 101  83 101
M  END
> <Batch ID>
0114

> <Smiles>
C=CCc1c(OCCC[101CH2:1][101O:1]c2ccc3c(c2)CN(C(=O)C(NC(=O)C(C)NC)C(C)(C)C)C(C(=O)NC2CCCc4ccccc42)C3)cc(F)cc1[100C:0](=N)[100C:0](=O)N1CCCC(n2nc(-c3ccc(Oc4ccc(F)cc4F)cc3)c(C(N)=O)c2N)C1

> <Shape>
0.245

> <Color>
0.074

> <Negative vol penalty>
0.000

$$$$

  -OEChem-04052301373D

 84 92  0     1  0  0  0  0  0999 V2000
  -17.2952  -29.0174   18.3542 C   0  0  0  0  0  0  0  0  0  0  0  0
  -18.4835  -28.3022   18.2456 C   0  0  0  0  0  0  0  0  0  0  0  0
  -24.3076   -9.8270   22.2349 C   0  0  0  0  0  0  0  0  0  0  0  0
  -24.1464   -9.3711   19.8678 C   0  0  0  0  0  0  0  0  0  0  0  0
  -17.3258  -30.3721   18.6823 C   0  0  0  0  0  0  0  0  0  0  0  0
  -19.7033  -28.9417   18.4640 C   0  0  0  0  0  0  0  0  0  0  0  0
  -24.7239  -26.5249   21.0054 C   0  0  0  0  0  0  0  0  0  0  0  0
  -23.0956   -9.1690   22.4442 C   0  0  0  0  0  0  0  0  0  0  0  0
  -22.9344   -8.7130   20.0771 C   0  0  0  0  0  0  0  0  0  0  0  0
  -25.8882  -25.9895   20.4563 C   0  0  0  0  0  0  0  0  0  0  0  0
  -22.0013   -5.9781   22.6760 C   0  0  0  0  0  0  0  0  0  0  0  0
  -21.9253   -5.0833   23.7433 C   0  0  0  0  0  0  0  0  0  0  0  0
  -26.9912  -28.1165   20.7366 C   0  0  0  0  0  0  0  0  0  0  0  0
  -31.1834  -20.5223   20.7093 C   0  0  0  0  0  0  0  0  0  0  0  0
  -20.1477   -6.3973   24.7184 C   0  0  0  0  0  0  0  0  0  0  0  0
  -24.8329   -9.9281   20.9467 C   0  0  0  0  0  0  0  0  0  0  0  0
  -27.3738  -10.0432   20.7506 C   0  0  0  0  0  0  0  0  0  0  0  0
  -18.5460  -31.0262   18.9143 C   0  0  0  0  0  0  0  0  0  0  0  0
  -24.6810  -27.8654   21.4147 C   0  0  0  0  0  0  0  0  0  0  0  0
  -19.7503  -30.3067   18.7942 C   0  0  0  0  0  0  0  0  0  0  0  0
  -25.8259  -28.6658   21.2928 C   0  0  0  0  0  0  0  0  0  0  0  0
  -22.4091   -8.6119   21.3653 C   0  0  0  0  0  0  0  0  0  0  0  0
  -27.0212  -26.7861   20.3192 C   0  0  0  0  0  0  0  0  0  0  0  0
  -21.1505   -7.0826   22.6299 C   0  0  0  0  0  0  0  0  0  0  0  0
  -32.0341  -21.6415   20.4773 C   0  0  0  0  0  0  0  0  0  0  0  0
  -20.9986   -5.2929   24.7645 C   0  0  0  0  0  0  0  0  0  0  0  0
  -20.2237   -7.2921   23.6511 C   0  0  0  0  0  0  0  0  0  0  0  0
  -26.0845  -10.6082   20.7298 C   0  0  0  0  0  0  0  0  0  0  0  0
  -31.8983  -19.3641   20.9219 C   0  0  0  0  0  0  0  0  0  0  0  0
  -33.3670  -21.2961   20.5216 C   0  0  0  0  0  0  0  0  0  0  0  0
  -28.2148  -11.0972   20.4895 C   0  0  0  0  0  0  0  0  0  0  0  0
  -31.4129  -18.0651   21.1840 C   0  0  0  0  0  0  0  0  0  0  0  0
  -34.5052  -22.1137   20.3438 C   0  0  0  0  0  0  0  0  0  0  0  0
  -30.0961  -17.6751   21.2624 C   0  0  0  0  0  0  0  0  0  0  0  0
  -34.6130  -23.2320   19.5471 C   0  0  0  0  0  0  0  0  0  0  0  0
  -27.7752   -8.6869   20.9849 C   0  0  0  0  0  0  0  0  0  0  0  0
  -29.7465  -16.2667   21.5362 C   0  0  0  0  0  0  0  0  0  0  0  0
  -22.9963  -30.4203   20.5559 C   0  0  0  0  0  0  0  0  0  0  0  0
  -24.5166  -31.7865   23.0747 C   0  0  0  0  0  0  0  0  0  0  0  0
  -27.2032  -31.7958   25.1792 C   0  0  0  0  0  0  0  0  0  0  0  0
  -18.5314  -32.5031   19.2200 C   0  0  0  0  0  0  0  0  0  0  0  0
  -23.4255  -28.4204   22.0297 C   0  0  0  0  0  0  0  0  0  0  0  0
  -25.8379  -30.1052   21.7358 C   0  0  0  0  0  0  0  0  0  0  0  0
  -19.8450  -33.0174   19.8032 C   0  0  0  0  0  0  0  0  0  0  0  0
  -27.2461  -15.7842   18.9006 C   0  0  0  0  0  0  0  0  0  0  0  0
  -21.0289  -32.4906   18.9984 C   0  0  0  0  0  0  0  0  0  0  0  0
  -26.7952  -14.3534   19.1820 C   0  0  0  0  0  0  0  0  0  0  0  0
  -27.5984  -16.5354   20.1836 C   0  0  0  0  0  0  0  0  0  0  0  0
  -28.1540  -14.3997   21.3107 C   0  0  0  0  0  0  0  0  0  0  0  0
  -21.0919  -30.9592   19.0480 C   0  0  1  0  0  0  0  0  0  0  0  0
  -23.3371  -29.9407   21.9385 C   0  0  1  0  0  0  0  0  0  0  0  0
  -27.8394  -13.6105   20.0303 C   0  0  1  0  0  0  0  0  0  0  0  0
  -35.8437  -24.0633   19.3822 C   0  0  0  0  0  0  0  0  0  0  0  0
  -28.1861  -33.0568   27.1134 C   0  0  0  0  0  0  0  0  0  0  0  0
  -25.4096  -34.0004   21.1744 C   0  0  0  0  0  0  0  0  0  0  0  0
  -27.1162  -34.6774   22.8766 C   0  0  0  0  0  0  0  0  0  0  0  0
  -24.6875  -34.7932   23.4337 C   0  0  0  0  0  0  0  0  0  0  0  0
  -27.0771  -29.4213   26.9414 C   0  0  0  0  0  0  0  0  0  0  0  0
  -29.8874  -24.5967   19.9985 C   0  0  0  0  0  0  0  0  0  0  0  0
  -28.3921  -24.8724   19.9811 C   0  0  0  0  0  0  0  0  0  1  0  0
  -30.1919  -23.1245   20.2271 C   0  0  0  0  0  0  0  0  0  0  0  0
  -25.8135  -32.5361   23.2622 C   0  0  1  0  0  0  0  0  0  0  0  0
  -27.2983  -31.8966   26.6909 C   0  0  2  0  0  0  0  0  0  0  0  0
  -25.7562  -33.9752   22.6765 C   0  0  0  0  0  0  0  0  0  0  0  0
  -26.1002  -11.9194   20.4757 N   0  0  0  0  0  0  0  0  0  0  0  0
  -27.4096  -12.1871   20.3345 N   0  0  0  0  0  0  0  0  0  0  0  0
  -28.5540  -15.7779   21.0057 N   0  0  0  0  0  0  0  0  0  0  0  0
  -24.5842  -30.6036   22.3251 N   0  0  0  0  0  0  0  0  0  0  0  0
  -29.5572  -11.1889   20.3797 N   0  0  0  0  0  0  0  0  0  0  0  0
  -26.7825   -7.7304   21.2375 N   0  0  0  0  0  0  0  0  0  0  0  0
  -21.6395  -30.5165   20.3123 N   0  0  0  0  0  0  0  0  0  0  0  0
  -26.1131  -32.4831   24.6890 N   0  0  0  0  0  0  0  0  0  0  0  0
  -27.8641  -30.6406   27.2593 N   0  3  0  0  0  0  0  0  0  0  0  0
  -28.9798   -8.3368   20.9870 O   0  0  0  0  0  0  0  0  0  0  0  0
  -30.5306  -15.6094   22.2231 O   0  0  0  0  0  0  0  0  0  0  0  0
  -23.8975  -30.6850   19.7690 O   0  0  0  0  0  0  0  0  0  0  0  0
  -23.4830  -32.2303   23.5810 O   0  0  0  0  0  0  0  0  0  0  0  0
  -28.0169  -31.1728   24.5007 O   0  0  0  0  0  0  0  0  0  0  0  0
  -21.2266   -7.9696   21.5692 O   0  0  0  0  0  0  0  0  0  0  0  0
  -28.1588  -26.2662   19.7831 O   0  0  0  0  0  0  0  0  0  1  0  0
  -31.5980  -22.9190   20.2396 O   0  0  0  0  0  0  0  0  0  0  0  0
  -20.9247   -4.4327   25.7886 F   0  0  0  0  0  0  0  0  0  0  0  0
  -19.4029   -8.3507   23.6117 F   0  0  0  0  0  0  0  0  0  0  0  0
  -33.5883  -19.6285   20.8415 S   0  0  0  0  0  0  0  0  0  0  0  0
  1  2  1  0  0  0  0
  1  5  2  0  0  0  0
  2  6  2  0  0  0  0
  3  8  2  0  0  0  0
  3 16  1  0  0  0  0
  4  9  1  0  0  0  0
  4 16  2  0  0  0  0
  5 18  1  0  0  0  0
  6 20  1  0  0  0  0
  7 10  2  0  0  0  0
  7 19  1  0  0  0  0
  8 22  1  0  0  0  0
  9 22  2  0  0  0  0
 10 23  1  0  0  0  0
 11 12  2  0  0  0  0
 11 24  1  0  0  0  0
 12 26  1  0  0  0  0
 13 21  1  0  0  0  0
 13 23  2  0  0  0  0
 14 25  1  0  0  0  0
 14 29  2  0  0  0  0
 15 26  2  0  0  0  0
 15 27  1  0  0  0  0
 16 28  1  0  0  0  0
 17 28  1  0  0  0  0
 17 31  2  0  0  0  0
 17 36  1  0  0  0  0
 18 20  2  0  0  0  0
 18 41  1  0  0  0  0
 19 21  2  0  0  0  0
 19 42  1  0  0  0  0
 20 50  1  0  0  0  0
 21 43  1  0  0  0  0
 22 79  1  0  0  0  0
 23 80  1  0  0  0  0
 24 27  2  0  0  0  0
 24 79  1  0  0  0  0
 25 30  2  0  0  0  0
 25 81  1  0  0  0  0
 26 82  1  0  0  0  0
 27 83  1  0  0  0  0
 28 65  2  0  0  0  0
 29 32  1  0  0  0  0
 29 84  1  0  0  0  0
 30 33  1  0  0  0  0
 30 84  1  0  0  0  0
 31 66  1  0  0  0  0
 31 69  1  0  0  0  0
 32 34  2  0  0  0  0
 33 35  2  0  0  0  0
 34 37  1  0  0  0  0
 35 53  1  0  0  0  0
 36 70  1  0  0  0  0
 36 74  2  0  0  0  0
 37 67  1  0  0  0  0
 37 75  2  0  0  0  0
 38 51  1  0  0  0  0
 38 71  1  0  0  0  0
 38 76  2  0  0  0  0
 39 62  1  0  0  0  0
 39 68  1  0  0  0  0
 39 77  2  0  0  0  0
 40 63  1  0  0  0  0
 40 72  1  0  0  0  0
 40 78  2  0  0  0  0
 41 44  1  0  0  0  0
 42 51  1  0  0  0  0
 43 68  1  0  0  0  0
 44 46  1  0  0  0  0
 45 47  1  0  0  0  0
 45 48  1  0  0  0  0
 46 50  1  0  0  0  0
 47 52  1  0  0  0  0
 48 67  1  0  0  0  0
 49 52  1  0  0  0  0
 49 67  1  0  0  0  0
 50 71  1  0  0  0  0
 51 68  1  0  0  0  0
 52 66  1  0  0  0  0
 54 63  1  0  0  0  0
 55 64  1  0  0  0  0
 56 64  1  0  0  0  0
 57 64  1  0  0  0  0
 58 73  1  0  0  0  0
 59 60  1  0  0  0  0
 59 61  1  0  0  0  0
 60 80  1  0  0  0  0
 61 81  1  0  0  0  0
 62 64  1  0  0  0  0
 62 72  1  0  0  0  0
 63 73  1  0  0  0  0
 65 66  1  0  0  0  0
M  CHG  1  73   1
M  ISO  4  34 100  37 100  60 101  80 101
M  END
> <Batch ID>
0114

> <Smiles>
CC=Cc1sc(C=[100CH:0][100C:0](=O)N2CCCC(n3nc(-c4ccc(Oc5ccc(F)cc5F)cc4)c(C(N)=O)c3N)C2)cc1OCC[101CH2:1][101O:1]c1ccc2c(c1)CN(C(=O)C(NC(=O)C(C)NC)C(C)(C)C)C(C(=O)NC1CCCc3ccccc31)C2

> <Shape>
0.275

> <Color>
0.089

> <Negative vol penalty>
0.000

$$$$

  -OEChem-04052301373D

 85 93  0     1  0  0  0  0  0999 V2000
  -19.8385  -17.2291   19.8360 C   0  0  0  0  0  0  0  0  0  0  0  0
  -21.0145  -17.9664   19.9307 C   0  0  0  0  0  0  0  0  0  0  0  0
  -25.5368  -21.4529   18.5113 C   0  0  0  0  0  0  0  0  0  0  0  0
  -26.0491  -22.6501   16.4763 C   0  0  0  0  0  0  0  0  0  0  0  0
  -19.7726  -15.9501   20.3871 C   0  0  0  0  0  0  0  0  0  0  0  0
  -22.1250  -17.4253   20.5776 C   0  0  0  0  0  0  0  0  0  0  0  0
  -26.4233  -18.1639   18.0039 C   0  0  0  0  0  0  0  0  0  0  0  0
  -24.8112  -20.5150   17.7770 C   0  0  0  0  0  0  0  0  0  0  0  0
  -25.3235  -21.7121   15.7419 C   0  0  0  0  0  0  0  0  0  0  0  0
  -27.0031  -19.4294   18.0824 C   0  0  0  0  0  0  0  0  0  0  0  0
  -23.3062  -19.8342   13.3724 C   0  0  0  0  0  0  0  0  0  0  0  0
  -22.4331  -20.3110   12.3948 C   0  0  0  0  0  0  0  0  0  0  0  0
  -28.5636  -18.6057   19.7273 C   0  0  0  0  0  0  0  0  0  0  0  0
  -26.4365  -25.8508   25.1647 C   0  0  0  0  0  0  0  0  0  0  0  0
  -28.2501  -24.6716   24.0890 C   0  0  0  0  0  0  0  0  0  0  0  0
  -21.2047  -21.5254   14.0840 C   0  0  0  0  0  0  0  0  0  0  0  0
  -26.1557  -22.5205   17.8610 C   0  0  0  0  0  0  0  0  0  0  0  0
  -26.5946  -25.8182   22.7542 C   0  0  0  0  0  0  0  0  0  0  0  0
  -28.2755  -23.4453   18.9375 C   0  0  0  0  0  0  0  0  0  0  0  0
  -20.8859  -15.3894   21.0326 C   0  0  0  0  0  0  0  0  0  0  0  0
  -26.9031  -17.1108   18.7958 C   0  0  0  0  0  0  0  0  0  0  0  0
  -22.0735  -16.1382   21.1390 C   0  0  0  0  0  0  0  0  0  0  0  0
  -27.9898  -17.3272   19.6550 C   0  0  0  0  0  0  0  0  0  0  0  0
  -25.9374  -26.2222   23.9163 C   0  0  0  0  0  0  0  0  0  0  0  0
  -24.7045  -20.6445   16.3922 C   0  0  0  0  0  0  0  0  0  0  0  0
  -28.0715  -19.6512   18.9463 C   0  0  0  0  0  0  0  0  0  0  0  0
  -23.1286  -20.2029   14.7059 C   0  0  0  0  0  0  0  0  0  0  0  0
  -27.7510  -25.0429   22.8405 C   0  0  0  0  0  0  0  0  0  0  0  0
  -21.3823  -21.1566   12.7505 C   0  0  0  0  0  0  0  0  0  0  0  0
  -27.5929  -25.0756   25.2511 C   0  0  0  0  0  0  0  0  0  0  0  0
  -22.0778  -21.0485   15.0617 C   0  0  0  0  0  0  0  0  0  0  0  0
  -26.9050  -23.4900   18.6191 C   0  0  0  0  0  0  0  0  0  0  0  0
  -28.4965  -24.5891   19.6650 C   0  0  0  0  0  0  0  0  0  0  0  0
  -25.1887  -25.4934   20.7710 C   0  0  0  0  0  0  0  0  0  0  0  0
  -26.0825  -26.2015   21.4409 C   0  0  0  0  0  0  0  0  0  0  0  0
  -29.1457  -22.7344   20.4653 C   0  0  0  0  0  0  0  0  0  0  0  0
  -28.6283  -21.5222   20.2347 C   0  0  0  0  0  0  0  0  0  1  0  0
  -29.2608  -22.4581   18.6053 C   0  0  0  0  0  0  0  0  0  0  0  0
  -25.6663  -15.2772   21.0788 C   0  0  0  0  0  0  0  0  0  0  0  0
  -28.5017  -13.7220   20.8253 C   0  0  0  0  0  0  0  0  0  0  0  0
  -31.7925  -13.8252   19.9270 C   0  0  0  0  0  0  0  0  0  0  0  0
  -24.4709  -27.9431   22.8304 C   0  0  0  0  0  0  0  0  0  0  0  0
  -20.7520  -14.0218   21.6543 C   0  0  0  0  0  0  0  0  0  0  0  0
  -26.2841  -15.7448   18.6797 C   0  0  0  0  0  0  0  0  0  0  0  0
  -28.5553  -16.2249   20.5115 C   0  0  0  0  0  0  0  0  0  0  0  0
  -22.0915  -13.3738   21.9951 C   0  0  0  0  0  0  0  0  0  0  0  0
  -26.8852  -29.0506   20.2540 C   0  0  0  0  0  0  0  0  0  0  0  0
  -23.0006  -14.3702   22.7077 C   0  0  0  0  0  0  0  0  0  0  0  0
  -27.2136  -27.7536   19.5169 C   0  0  0  0  0  0  0  0  0  0  0  0
  -25.4799  -29.0246   20.8473 C   0  0  0  0  0  0  0  0  0  0  0  0
  -25.5610  -26.5527   21.0029 C   0  0  0  0  0  0  0  0  0  0  0  0
  -23.3073  -15.5760   21.8113 C   0  0  1  0  0  0  0  0  0  0  0  0
  -26.5210  -14.8749   19.9103 C   0  0  1  0  0  0  0  0  0  0  0  0
  -26.9863  -26.5380   20.4306 C   0  0  1  0  0  0  0  0  0  0  0  0
  -33.8648  -12.4110   19.8721 C   0  0  0  0  0  0  0  0  0  0  0  0
  -28.8319  -14.0933   23.8358 C   0  0  0  0  0  0  0  0  0  0  0  0
  -31.2595  -13.5432   23.5670 C   0  0  0  0  0  0  0  0  0  0  0  0
  -29.5259  -11.8485   22.9792 C   0  0  0  0  0  0  0  0  0  0  0  0
  -23.8963  -27.0753   25.0549 C   0  0  0  0  0  0  0  0  0  0  0  0
  -31.9993  -14.0373   16.9823 C   0  0  0  0  0  0  0  0  0  0  0  0
  -29.1220  -23.3995   21.8035 C   0  0  0  0  0  0  0  0  0  0  0  0
  -29.8564  -13.8557   21.4778 C   0  0  1  0  0  0  0  0  0  0  0  0
  -32.6408  -12.8769   19.0990 C   0  0  2  0  0  0  0  0  0  0  0  0
  -29.8568  -13.3567   22.9504 C   0  0  0  0  0  0  0  0  0  0  0  0
  -26.2980  -24.5762   19.1047 N   0  0  0  0  0  0  0  0  0  0  0  0
  -27.2918  -25.2245   19.7357 N   0  0  0  0  0  0  0  0  0  0  0  0
  -27.9119  -14.9086   20.3670 N   0  0  0  0  0  0  0  0  0  0  0  0
  -25.2582  -27.8316   21.6660 N   0  0  0  0  0  0  0  0  0  0  0  0
  -29.6019  -25.1033   20.2449 N   0  0  0  0  0  0  0  0  0  0  0  0
  -28.8638  -21.3452   17.8516 N   0  0  0  0  0  0  0  0  0  0  0  0
  -24.3087  -15.2309   20.8251 N   0  0  0  0  0  0  0  0  0  0  0  0
  -30.7983  -13.1571   20.6100 N   0  0  0  0  0  0  0  0  0  0  0  0
  -24.7396  -27.0241   23.8627 N   0  0  0  0  0  0  0  0  0  0  0  0
  -33.1010  -13.5490   17.8510 N   0  3  0  0  0  0  0  0  0  0  0  0
  -30.4542  -22.5517   18.9801 O   0  0  0  0  0  0  0  0  0  0  0  0
  -26.1990  -15.6039   22.1329 O   0  0  0  0  0  0  0  0  0  0  0  0
  -27.9890  -12.6051   20.7194 O   0  0  0  0  0  0  0  0  0  0  0  0
  -31.9941  -15.0369   19.9670 O   0  0  0  0  0  0  0  0  0  0  0  0
  -23.5537  -28.7680   22.9237 O   0  0  0  0  0  0  0  0  0  0  0  0
  -23.9967  -19.7293   15.6753 O   0  0  0  0  0  0  0  0  0  0  0  0
  -28.6388  -20.8856   19.0255 O   0  0  0  0  0  0  0  0  0  1  0  0
  -28.4197  -24.6325   21.7169 O   0  0  0  0  0  0  0  0  0  0  0  0
  -20.5448  -21.6157   11.8114 F   0  0  0  0  0  0  0  0  0  0  0  0
  -28.0725  -24.7208   26.4503 F   0  0  0  0  0  0  0  0  0  0  0  0
  -21.9029  -21.4071   16.3410 F   0  0  0  0  0  0  0  0  0  0  0  0
  1  2  1  0  0  0  0
  1  5  2  0  0  0  0
  2  6  2  0  0  0  0
  3  8  2  0  0  0  0
  3 17  1  0  0  0  0
  4  9  1  0  0  0  0
  4 17  2  0  0  0  0
  5 20  1  0  0  0  0
  6 22  1  0  0  0  0
  7 10  2  0  0  0  0
  7 21  1  0  0  0  0
  8 25  1  0  0  0  0
  9 25  2  0  0  0  0
 10 26  1  0  0  0  0
 11 12  2  0  0  0  0
 11 27  1  0  0  0  0
 12 29  1  0  0  0  0
 13 23  1  0  0  0  0
 13 26  2  0  0  0  0
 14 24  1  0  0  0  0
 14 30  2  0  0  0  0
 15 28  2  0  0  0  0
 15 30  1  0  0  0  0
 16 29  2  0  0  0  0
 16 31  1  0  0  0  0
 17 32  1  0  0  0  0
 18 24  2  0  0  0  0
 18 28  1  0  0  0  0
 18 35  1  0  0  0  0
 19 32  1  0  0  0  0
 19 33  2  0  0  0  0
 19 38  1  0  0  0  0
 20 22  2  0  0  0  0
 20 43  1  0  0  0  0
 21 23  2  0  0  0  0
 21 44  1  0  0  0  0
 22 52  1  0  0  0  0
 23 45  1  0  0  0  0
 24 73  1  0  0  0  0
 25 80  1  0  0  0  0
 26 81  1  0  0  0  0
 27 31  2  0  0  0  0
 27 80  1  0  0  0  0
 28 82  1  0  0  0  0
 29 83  1  0  0  0  0
 30 84  1  0  0  0  0
 31 85  1  0  0  0  0
 32 65  2  0  0  0  0
 33 66  1  0  0  0  0
 33 69  1  0  0  0  0
 34 35  2  0  0  0  0
 36 37  2  0  0  0  0
 36 61  1  0  0  0  0
 37 81  1  0  0  0  0
 38 70  1  0  0  0  0
 38 75  2  0  0  0  0
 39 53  1  0  0  0  0
 39 71  1  0  0  0  0
 39 76  2  0  0  0  0
 40 62  1  0  0  0  0
 40 67  1  0  0  0  0
 40 77  2  0  0  0  0
 41 63  1  0  0  0  0
 41 72  1  0  0  0  0
 41 78  2  0  0  0  0
 42 68  1  0  0  0  0
 42 73  1  0  0  0  0
 42 79  2  0  0  0  0
 43 46  1  0  0  0  0
 44 53  1  0  0  0  0
 45 67  1  0  0  0  0
 46 48  1  0  0  0  0
 47 49  1  0  0  0  0
 47 50  1  0  0  0  0
 48 52  1  0  0  0  0
 49 54  1  0  0  0  0
 50 68  1  0  0  0  0
 51 54  1  0  0  0  0
 51 68  1  0  0  0  0
 52 71  1  0  0  0  0
 53 67  1  0  0  0  0
 54 66  1  0  0  0  0
 55 63  1  0  0  0  0
 56 64  1  0  0  0  0
 57 64  1  0  0  0  0
 58 64  1  0  0  0  0
 59 73  1  0  0  0  0
 60 74  1  0  0  0  0
 61 82  1  0  0  0  0
 62 64  1  0  0  0  0
 62 72  1  0  0  0  0
 63 74  1  0  0  0  0
 65 66  1  0  0  0  0
M  CHG  1  74   1
M  ISO  4  37 101  42 100  73 100  81 101
M  END
> <Batch ID>
0114

> <Smiles>
C=Cc1c(OCC=[101CH:1][101O:1]c2ccc3c(c2)CN(C(=O)C(NC(=O)C(C)NC)C(C)(C)C)C(C(=O)NC2CCCc4ccccc42)C3)cc(F)cc1[100N:0](C)[100C:0](=O)N1CCCC(n2nc(-c3ccc(Oc4ccc(F)cc4F)cc3)c(C(N)=O)c2N)C1

> <Shape>
0.158

> <Color>
0.058

> <Negative vol penalty>
0.000

$$$$

  -OEChem-04052301373D

 85 93  0     1  0  0  0  0  0999 V2000
  -29.6029  -32.5516   24.9601 C   0  0  0  0  0  0  0  0  0  0  0  0
  -29.3445  -31.3163   24.3747 C   0  0  0  0  0  0  0  0  0  0  0  0
  -24.1338   -9.7545   21.4039 C   0  0  0  0  0  0  0  0  0  0  0  0
  -24.6620  -10.8258   23.5040 C   0  0  0  0  0  0  0  0  0  0  0  0
  -28.5600  -33.2879   25.5206 C   0  0  0  0  0  0  0  0  0  0  0  0
  -28.0431  -30.8161   24.3504 C   0  0  0  0  0  0  0  0  0  0  0  0
  -26.7902  -28.8792   19.8422 C   0  0  0  0  0  0  0  0  0  0  0  0
  -23.7041   -8.6193   22.0911 C   0  0  0  0  0  0  0  0  0  0  0  0
  -24.2323   -9.6906   24.1912 C   0  0  0  0  0  0  0  0  0  0  0  0
  -27.2766  -27.6086   19.5377 C   0  0  0  0  0  0  0  0  0  0  0  0
  -20.9587   -7.6325   23.8005 C   0  0  0  0  0  0  0  0  0  0  0  0
  -19.7584   -7.0468   23.3983 C   0  0  0  0  0  0  0  0  0  0  0  0
  -28.4373  -20.5333   19.1271 C   0  0  0  0  0  0  0  0  0  0  0  0
  -25.1400  -26.6562   20.1268 C   0  0  0  0  0  0  0  0  0  0  0  0
  -30.4757  -19.7753   20.8743 C   0  0  0  0  0  0  0  0  0  0  0  0
  -20.9269   -4.9904   22.9055 C   0  0  0  0  0  0  0  0  0  0  0  0
  -24.6128  -10.8578   22.1103 C   0  0  0  0  0  0  0  0  0  0  0  0
  -28.5430  -19.2056   19.5412 C   0  0  0  0  0  0  0  0  0  0  0  0
  -24.2807  -13.1440   21.0285 C   0  0  0  0  0  0  0  0  0  0  0  0
  -27.2436  -32.8009   25.4945 C   0  0  0  0  0  0  0  0  0  0  0  0
  -25.4763  -29.0469   20.3025 C   0  0  0  0  0  0  0  0  0  0  0  0
  -26.9818  -31.5460   24.9122 C   0  0  0  0  0  0  0  0  0  0  0  0
  -24.6386  -27.9302   20.4340 C   0  0  0  0  0  0  0  0  0  0  0  0
  -29.3509  -21.4820   19.5864 C   0  0  0  0  0  0  0  0  0  0  0  0
  -29.5622  -18.8265   20.4149 C   0  0  0  0  0  0  0  0  0  0  0  0
  -23.7533   -8.5873   23.4847 C   0  0  0  0  0  0  0  0  0  0  0  0
  -26.4524  -26.4965   19.6828 C   0  0  0  0  0  0  0  0  0  0  0  0
  -22.1432   -6.8972   23.7552 C   0  0  0  0  0  0  0  0  0  0  0  0
  -19.7425   -5.7258   22.9508 C   0  0  0  0  0  0  0  0  0  0  0  0
  -30.3700  -21.1030   20.4601 C   0  0  0  0  0  0  0  0  0  0  0  0
  -22.1273   -5.5761   23.3077 C   0  0  0  0  0  0  0  0  0  0  0  0
  -25.0573  -12.0305   21.4010 C   0  0  0  0  0  0  0  0  0  0  0  0
  -25.1618  -13.9767   20.3830 C   0  0  0  0  0  0  0  0  0  0  0  0
  -27.4280  -17.9462   17.7563 C   0  0  0  0  0  0  0  0  0  0  0  0
  -28.9037  -17.7933   23.0929 C   0  0  0  0  0  0  0  0  0  0  0  0
  -27.5709  -18.2416   19.0388 C   0  0  0  0  0  0  0  0  0  0  0  0
  -29.6302  -17.1121   22.2041 C   0  0  0  0  0  0  0  0  0  0  0  0
  -28.5057  -23.5807   19.9136 C   0  0  0  0  0  0  0  0  0  0  0  0
  -22.8874  -13.4026   21.2466 C   0  0  0  0  0  0  0  0  0  0  0  0
  -24.1601  -30.1517   22.9766 C   0  0  0  0  0  0  0  0  0  0  0  0
  -21.4002  -29.7637   21.3169 C   0  0  0  0  0  0  0  0  0  0  0  0
  -19.7361  -28.1833   18.7910 C   0  0  0  0  0  0  0  0  0  0  0  0
  -30.0676  -16.4615   19.9213 C   0  0  0  0  0  0  0  0  0  0  0  0
  -26.1566  -33.6112   26.1551 C   0  0  0  0  0  0  0  0  0  0  0  0
  -24.9584  -30.4271   20.6011 C   0  0  0  0  0  0  0  0  0  0  0  0
  -23.2138  -28.0589   20.9051 C   0  0  0  0  0  0  0  0  0  0  0  0
  -24.7477  -33.1808   25.7552 C   0  0  0  0  0  0  0  0  0  0  0  0
  -29.8753  -13.1756   18.7576 C   0  0  0  0  0  0  0  0  0  0  0  0
  -24.6142  -31.6627   25.8213 C   0  0  0  0  0  0  0  0  0  0  0  0
  -28.5456  -12.6651   19.3117 C   0  0  0  0  0  0  0  0  0  0  0  0
  -30.5989  -14.0412   19.7827 C   0  0  0  0  0  0  0  0  0  0  0  0
  -28.4566  -14.7042   20.8289 C   0  0  0  0  0  0  0  0  0  0  0  0
  -25.5796  -30.9810   24.8442 C   0  0  1  0  0  0  0  0  0  0  0  0
  -23.7659  -30.4249   21.5526 C   0  0  1  0  0  0  0  0  0  0  0  0
  -27.6790  -13.8278   19.8266 C   0  0  2  0  0  0  0  0  0  0  0  0
  -17.4797  -28.0472   17.7011 C   0  0  0  0  0  0  0  0  0  0  0  0
  -20.3713  -28.1019   23.6599 C   0  0  0  0  0  0  0  0  0  0  0  0
  -18.5683  -27.2285   22.1583 C   0  0  0  0  0  0  0  0  0  0  0  0
  -18.6887  -29.6665   22.6723 C   0  0  0  0  0  0  0  0  0  0  0  0
  -20.8099  -29.0945   16.1881 C   0  0  0  0  0  0  0  0  0  0  0  0
  -28.3213  -25.0297   19.5749 C   0  0  0  0  0  0  0  0  0  1  0  0
  -20.4116  -28.6374   21.1345 C   0  0  1  0  0  0  0  0  0  0  0  0
  -18.8453  -28.7163   17.6834 C   0  0  2  0  0  0  0  0  0  0  0  0
  -19.5374  -28.4056   22.3992 C   0  0  0  0  0  0  0  0  0  0  0  0
  -26.3336  -12.1425   21.0234 N   0  0  0  0  0  0  0  0  0  0  0  0
  -29.2412  -22.8198   19.1708 N   0  0  0  0  0  0  0  0  0  0  0  0
  -26.3657  -13.3362   20.4069 N   0  0  0  0  0  0  0  0  0  0  0  0
  -22.7557  -29.4286   21.1905 N   0  0  0  0  0  0  0  0  0  0  0  0
  -29.7414  -15.1308   20.2504 N   0  0  0  0  0  0  0  0  0  0  0  0
  -25.0166  -15.1870   19.8030 N   0  0  0  0  0  0  0  0  0  0  0  0
  -22.1280  -12.4412   21.9272 N   0  0  0  0  0  0  0  0  0  0  0  0
  -25.0679  -31.0567   23.4926 N   0  0  0  0  0  0  0  0  0  0  0  0
  -19.6497  -28.9538   19.9313 N   0  0  0  0  0  0  0  0  0  0  0  0
  -29.6983  -17.4562   20.8638 N   0  0  0  0  0  0  0  0  0  0  0  0
  -19.4709  -28.4724   16.3530 N   0  3  0  0  0  0  0  0  0  0  0  0
  -22.3287  -14.4477   20.8352 O   0  0  0  0  0  0  0  0  0  0  0  0
  -23.6753  -29.1917   23.5641 O   0  0  0  0  0  0  0  0  0  0  0  0
  -20.9846  -30.9004   21.5554 O   0  0  0  0  0  0  0  0  0  0  0  0
  -20.4354  -27.1813   18.6593 O   0  0  0  0  0  0  0  0  0  0  0  0
  -30.6642  -16.7458   18.8746 O   0  0  0  0  0  0  0  0  0  0  0  0
  -23.3339   -7.4798   24.1556 O   0  0  0  0  0  0  0  0  0  0  0  0
  -26.9248  -25.2550   19.3869 O   0  0  0  0  0  0  0  0  0  1  0  0
  -18.5895   -5.1630   22.5660 F   0  0  0  0  0  0  0  0  0  0  0  0
  -31.2532  -22.0075   20.9059 F   0  0  0  0  0  0  0  0  0  0  0  0
  -23.2618   -4.8643   23.2631 F   0  0  0  0  0  0  0  0  0  0  0  0
  1  2  1  0  0  0  0
  1  5  2  0  0  0  0
  2  6  2  0  0  0  0
  3  8  2  0  0  0  0
  3 17  1  0  0  0  0
  4  9  1  0  0  0  0
  4 17  2  0  0  0  0
  5 20  1  0  0  0  0
  6 22  1  0  0  0  0
  7 10  2  0  0  0  0
  7 21  1  0  0  0  0
  8 26  1  0  0  0  0
  9 26  2  0  0  0  0
 10 27  1  0  0  0  0
 11 12  2  0  0  0  0
 11 28  1  0  0  0  0
 12 29  1  0  0  0  0
 13 18  1  0  0  0  0
 13 24  2  0  0  0  0
 14 23  1  0  0  0  0
 14 27  2  0  0  0  0
 15 25  1  0  0  0  0
 15 30  2  0  0  0  0
 16 29  2  0  0  0  0
 16 31  1  0  0  0  0
 17 32  1  0  0  0  0
 18 25  2  0  0  0  0
 18 36  1  0  0  0  0
 19 32  1  0  0  0  0
 19 33  2  0  0  0  0
 19 39  1  0  0  0  0
 20 22  2  0  0  0  0
 20 44  1  0  0  0  0
 21 23  2  0  0  0  0
 21 45  1  0  0  0  0
 22 53  1  0  0  0  0
 23 46  1  0  0  0  0
 24 30  1  0  0  0  0
 24 66  1  0  0  0  0
 25 74  1  0  0  0  0
 26 81  1  0  0  0  0
 27 82  1  0  0  0  0
 28 31  2  0  0  0  0
 28 81  1  0  0  0  0
 29 83  1  0  0  0  0
 30 84  1  0  0  0  0
 31 85  1  0  0  0  0
 32 65  2  0  0  0  0
 33 67  1  0  0  0  0
 33 70  1  0  0  0  0
 34 36  2  0  0  0  0
 35 37  2  0  0  0  0
 37 74  1  0  0  0  0
 38 61  1  0  0  0  0
 38 66  2  0  0  0  0
 39 71  1  0  0  0  0
 39 76  2  0  0  0  0
 40 54  1  0  0  0  0
 40 72  1  0  0  0  0
 40 77  2  0  0  0  0
 41 62  1  0  0  0  0
 41 68  1  0  0  0  0
 41 78  2  0  0  0  0
 42 63  1  0  0  0  0
 42 73  1  0  0  0  0
 42 79  2  0  0  0  0
 43 69  1  0  0  0  0
 43 74  1  0  0  0  0
 43 80  2  0  0  0  0
 44 47  1  0  0  0  0
 45 54  1  0  0  0  0
 46 68  1  0  0  0  0
 47 49  1  0  0  0  0
 48 50  1  0  0  0  0
 48 51  1  0  0  0  0
 49 53  1  0  0  0  0
 50 55  1  0  0  0  0
 51 69  1  0  0  0  0
 52 55  1  0  0  0  0
 52 69  1  0  0  0  0
 53 72  1  0  0  0  0
 54 68  1  0  0  0  0
 55 67  1  0  0  0  0
 56 63  1  0  0  0  0
 57 64  1  0  0  0  0
 58 64  1  0  0  0  0
 59 64  1  0  0  0  0
 60 75  1  0  0  0  0
 61 82  1  0  0  0  0
 62 64  1  0  0  0  0
 62 73  1  0  0  0  0
 63 75  1  0  0  0  0
 65 67  1  0  0  0  0
M  CHG  1  75   1
M  ISO  4  43 100  61 101  74 100  82 101
M  END
> <Batch ID>
0114

> <Smiles>
C=Cc1cc(NC=[101CH:1][101O:1]c2ccc3c(c2)CN(C(=O)C(NC(=O)C(C)NC)C(C)(C)C)C(C(=O)NC2CCCc4ccccc42)C3)c(F)cc1[100N:0](C=C)[100C:0](=O)N1CCCC(n2nc(-c3ccc(Oc4ccc(F)cc4F)cc3)c(C(N)=O)c2N)C1

> <Shape>
0.385

> <Color>
0.162

> <Negative vol penalty>
0.000

$$$$
