
  -OEChem-04052301403D

 85 93  0     1  0  0  0  0  0999 V2000
  -22.5388   -7.7152   20.7194 C   0  0  0  0  0  0  0  0  0  0  0  0
  -22.0473   -8.9087   20.2003 C   0  0  0  0  0  0  0  0  0  0  0  0
  -25.6966  -31.4198   22.4402 C   0  0  0  0  0  0  0  0  0  0  0  0
  -26.6908  -31.9674   20.3074 C   0  0  0  0  0  0  0  0  0  0  0  0
  -23.5512   -7.7378   21.6778 C   0  0  0  0  0  0  0  0  0  0  0  0
  -22.5671  -10.1255   20.6401 C   0  0  0  0  0  0  0  0  0  0  0  0
  -23.3364  -15.2150   17.3218 C   0  0  0  0  0  0  0  0  0  0  0  0
  -25.8351  -32.7471   22.8457 C   0  0  0  0  0  0  0  0  0  0  0  0
  -26.8293  -33.2949   20.7129 C   0  0  0  0  0  0  0  0  0  0  0  0
  -22.5735  -16.3748   17.1928 C   0  0  0  0  0  0  0  0  0  0  0  0
  -24.2355  -35.6840   22.3466 C   0  0  0  0  0  0  0  0  0  0  0  0
  -23.1486  -36.2846   22.9817 C   0  0  0  0  0  0  0  0  0  0  0  0
  -26.5851  -22.4456   18.0336 C   0  0  0  0  0  0  0  0  0  0  0  0
  -23.9560  -17.4608   18.8446 C   0  0  0  0  0  0  0  0  0  0  0  0
  -24.5317  -23.6319   16.5643 C   0  0  0  0  0  0  0  0  0  0  0  0
  -24.5068  -36.6693   24.9425 C   0  0  0  0  0  0  0  0  0  0  0  0
  -26.1245  -31.0299   21.1711 C   0  0  0  0  0  0  0  0  0  0  0  0
  -26.8407  -23.5872   17.2739 C   0  0  0  0  0  0  0  0  0  0  0  0
  -24.8815  -29.0818   20.0904 C   0  0  0  0  0  0  0  0  0  0  0  0
  -24.0904   -8.9552   22.1225 C   0  0  0  0  0  0  0  0  0  0  0  0
  -24.4099  -15.1658   18.2227 C   0  0  0  0  0  0  0  0  0  0  0  0
  -23.5867  -10.1644   21.6064 C   0  0  0  0  0  0  0  0  0  0  0  0
  -24.7325  -16.3000   18.9814 C   0  0  0  0  0  0  0  0  0  0  0  0
  -24.2761  -22.4903   17.3239 C   0  0  0  0  0  0  0  0  0  0  0  0
  -25.8140  -24.1804   16.5393 C   0  0  0  0  0  0  0  0  0  0  0  0
  -26.4014  -33.6847   21.9820 C   0  0  0  0  0  0  0  0  0  0  0  0
  -22.8815  -17.4970   17.9563 C   0  0  0  0  0  0  0  0  0  0  0  0
  -25.4581  -35.5760   23.0094 C   0  0  0  0  0  0  0  0  0  0  0  0
  -23.2842  -36.7773   24.2796 C   0  0  0  0  0  0  0  0  0  0  0  0
  -25.3028  -21.8971   18.0585 C   0  0  0  0  0  0  0  0  0  0  0  0
  -25.5938  -36.0686   24.3073 C   0  0  0  0  0  0  0  0  0  0  0  0
  -25.9822  -29.6587   20.7519 C   0  0  0  0  0  0  0  0  0  0  0  0
  -25.2360  -27.7663   19.9170 C   0  0  0  0  0  0  0  0  0  0  0  0
  -22.7350  -21.0511   16.4418 C   0  0  0  0  0  0  0  0  0  0  0  0
  -28.1917  -24.1337   17.2666 C   0  0  0  0  0  0  0  0  0  0  0  0
  -23.6488  -29.6816   19.6703 C   0  0  0  0  0  0  0  0  0  0  0  0
  -29.0864  -23.9878   18.4377 C   0  0  0  0  0  0  0  0  0  0  0  0
  -25.0960  -13.4399   20.8024 C   0  0  0  0  0  0  0  0  0  0  0  0
  -27.9382  -14.9908   20.6056 C   0  0  0  0  0  0  0  0  0  0  0  0
  -29.6834  -17.7142   19.5174 C   0  0  0  0  0  0  0  0  0  0  0  0
  -25.1509   -8.9309   23.1947 C   0  0  0  0  0  0  0  0  0  0  0  0
  -25.2395  -13.9158   18.3307 C   0  0  0  0  0  0  0  0  0  0  0  0
  -25.8875  -16.3052   19.9480 C   0  0  0  0  0  0  0  0  0  0  0  0
  -25.9077  -10.2494   23.3328 C   0  0  0  0  0  0  0  0  0  0  0  0
  -29.0599  -25.0928   21.8487 C   0  0  0  0  0  0  0  0  0  0  0  0
  -24.9348  -11.4241   23.3504 C   0  0  0  0  0  0  0  0  0  0  0  0
  -28.1979  -26.3541   21.8045 C   0  0  0  0  0  0  0  0  0  0  0  0
  -29.8778  -24.9305   20.5716 C   0  0  0  0  0  0  0  0  0  0  0  0
  -28.1886  -26.2003   19.2744 C   0  0  0  0  0  0  0  0  0  0  0  0
  -24.1422  -11.5036   22.0401 C   0  0  1  0  0  0  0  0  0  0  0  0
  -25.9914  -13.8102   19.6540 C   0  0  1  0  0  0  0  0  0  0  0  0
  -27.3270  -26.3835   20.5359 C   0  0  2  0  0  0  0  0  0  0  0  0
  -20.7549  -20.7068   15.0176 C   0  0  0  0  0  0  0  0  0  0  0  0
  -31.9830  -18.7184   19.5407 C   0  0  0  0  0  0  0  0  0  0  0  0
  -27.5409  -15.8272   23.5129 C   0  0  0  0  0  0  0  0  0  0  0  0
  -29.3212  -17.5568   23.1858 C   0  0  0  0  0  0  0  0  0  0  0  0
  -29.8743  -15.1372   22.9355 C   0  0  0  0  0  0  0  0  0  0  0  0
  -29.8702  -17.6438   16.5646 C   0  0  0  0  0  0  0  0  0  0  0  0
  -21.5433  -18.8812   16.5601 C   0  0  0  0  0  0  0  0  0  1  0  0
  -21.3782  -20.3868   16.3706 C   0  0  1  0  0  0  0  0  0  0  0  0
  -28.4913  -16.2831   21.1561 C   0  0  1  0  0  0  0  0  0  0  0  0
  -31.0054  -17.8351   18.7812 C   0  0  2  0  0  0  0  0  0  0  0  0
  -28.7839  -16.2007   22.6809 C   0  0  0  0  0  0  0  0  0  0  0  0
  -26.9625  -28.7814   20.9830 N   0  0  0  0  0  0  0  0  0  0  0  0
  -28.6969  -24.7741   16.2492 N   0  0  0  0  0  0  0  0  0  0  0  0
  -22.9837  -21.9401   17.3476 N   0  0  0  0  0  0  0  0  0  0  0  0
  -26.4790  -27.6400   20.4640 N   0  0  0  0  0  0  0  0  0  0  0  0
  -29.0260  -24.9993   19.3860 N   0  0  0  0  0  0  0  0  0  0  0  0
  -26.6649  -15.0571   20.0225 N   0  0  0  0  0  0  0  0  0  0  0  0
  -26.0525  -25.3364   15.7630 N   0  0  0  0  0  0  0  0  0  0  0  0
  -24.6027  -26.7168   19.3514 N   0  0  0  0  0  0  0  0  0  0  0  0
  -23.4472  -31.0446   19.9272 N   0  0  0  0  0  0  0  0  0  0  0  0
  -24.9567  -12.0781   20.9908 N   0  0  0  0  0  0  0  0  0  0  0  0
  -29.6565  -16.6085   20.3408 N   0  0  0  0  0  0  0  0  0  0  0  0
  -30.7932  -18.4238   17.4286 N   0  3  0  0  0  0  0  0  0  0  0  0
  -22.7458  -29.0244   19.0991 O   0  0  0  0  0  0  0  0  0  0  0  0
  -29.7880  -22.9847   18.4436 O   0  0  0  0  0  0  0  0  0  0  0  0
  -24.5715  -14.3243   21.4691 O   0  0  0  0  0  0  0  0  0  0  0  0
  -28.6142  -13.9619   20.6835 O   0  0  0  0  0  0  0  0  0  0  0  0
  -28.7675  -18.5221   19.3789 O   0  0  0  0  0  0  0  0  0  0  0  0
  -26.5365  -34.9801   22.3773 O   0  0  0  0  0  0  0  0  0  0  0  0
  -22.1381  -18.6301   17.8327 O   0  0  0  0  0  0  0  0  0  1  0  0
  -22.2408  -37.3554   24.8888 F   0  0  0  0  0  0  0  0  0  0  0  0
  -25.0658  -20.8000   18.7912 F   0  0  0  0  0  0  0  0  0  0  0  0
  -26.7661  -35.9688   24.9487 F   0  0  0  0  0  0  0  0  0  0  0  0
  1  2  1  0  0  0  0
  1  5  2  0  0  0  0
  2  6  2  0  0  0  0
  3  8  2  0  0  0  0
  3 17  1  0  0  0  0
  4  9  1  0  0  0  0
  4 17  2  0  0  0  0
  5 20  1  0  0  0  0
  6 22  1  0  0  0  0
  7 10  2  0  0  0  0
  7 21  1  0  0  0  0
  8 26  1  0  0  0  0
  9 26  2  0  0  0  0
 10 27  1  0  0  0  0
 11 12  2  0  0  0  0
 11 28  1  0  0  0  0
 12 29  1  0  0  0  0
 13 18  2  0  0  0  0
 13 30  1  0  0  0  0
 14 23  1  0  0  0  0
 14 27  2  0  0  0  0
 15 24  1  0  0  0  0
 15 25  2  0  0  0  0
 16 29  2  0  0  0  0
 16 31  1  0  0  0  0
 17 32  1  0  0  0  0
 18 25  1  0  0  0  0
 18 35  1  0  0  0  0
 19 32  1  0  0  0  0
 19 33  2  0  0  0  0
 19 36  1  0  0  0  0
 20 22  2  0  0  0  0
 20 41  1  0  0  0  0
 21 23  2  0  0  0  0
 21 42  1  0  0  0  0
 22 50  1  0  0  0  0
 23 43  1  0  0  0  0
 24 30  2  0  0  0  0
 24 66  1  0  0  0  0
 25 70  1  0  0  0  0
 26 81  1  0  0  0  0
 27 82  1  0  0  0  0
 28 31  2  0  0  0  0
 28 81  1  0  0  0  0
 29 83  1  0  0  0  0
 30 84  1  0  0  0  0
 31 85  1  0  0  0  0
 32 64  2  0  0  0  0
 33 67  1  0  0  0  0
 33 71  1  0  0  0  0
 34 60  1  0  0  0  0
 34 66  2  0  0  0  0
 35 37  1  0  0  0  0
 35 65  2  0  0  0  0
 36 72  1  0  0  0  0
 36 76  2  0  0  0  0
 37 68  1  0  0  0  0
 37 77  2  0  0  0  0
 38 51  1  0  0  0  0
 38 73  1  0  0  0  0
 38 78  2  0  0  0  0
 39 61  1  0  0  0  0
 39 69  1  0  0  0  0
 39 79  2  0  0  0  0
 40 62  1  0  0  0  0
 40 74  1  0  0  0  0
 40 80  2  0  0  0  0
 41 44  1  0  0  0  0
 42 51  1  0  0  0  0
 43 69  1  0  0  0  0
 44 46  1  0  0  0  0
 45 47  1  0  0  0  0
 45 48  1  0  0  0  0
 46 50  1  0  0  0  0
 47 52  1  0  0  0  0
 48 68  1  0  0  0  0
 49 52  1  0  0  0  0
 49 68  1  0  0  0  0
 50 73  1  0  0  0  0
 51 69  1  0  0  0  0
 52 67  1  0  0  0  0
 53 60  1  0  0  0  0
 54 62  1  0  0  0  0
 55 63  1  0  0  0  0
 56 63  1  0  0  0  0
 57 63  1  0  0  0  0
 58 75  1  0  0  0  0
 59 60  1  0  0  0  0
 59 82  1  0  0  0  0
 61 63  1  0  0  0  0
 61 74  1  0  0  0  0
 62 75  1  0  0  0  0
 64 67  1  0  0  0  0
M  CHG  1  75   1
M  ISO  4  35 100  37 100  59 101  82 101
M  END
> <Batch ID>
0115

> <Smiles>
CNC(C)C(=O)NC(C(=O)N1Cc2cc([101O:1][101CH2:1]C(C)=CNc3cc(N)c([100C:0](=N)[100C:0](=O)N4CCCC(n5nc(-c6ccc(Oc7ccc(F)cc7F)cc6)c(C(N)=O)c5N)C4)cc3F)ccc2CC1C(=O)NC1CCCc2ccccc21)C(C)(C)C

> <Shape>
0.266

> <Color>
0.059

> <Negative vol penalty>
0.000

$$$$

  -OEChem-04052301403D

 87 95  0     1  0  0  0  0  0999 V2000
  -23.8494   -7.0148   25.7593 C   0  0  0  0  0  0  0  0  0  0  0  0
  -24.7412   -8.0825   25.7496 C   0  0  0  0  0  0  0  0  0  0  0  0
  -23.1978  -30.9137   21.7170 C   0  0  0  0  0  0  0  0  0  0  0  0
  -22.8158  -28.7219   22.6589 C   0  0  0  0  0  0  0  0  0  0  0  0
  -23.3179   -6.5411   24.5605 C   0  0  0  0  0  0  0  0  0  0  0  0
  -25.1029   -8.6764   24.5409 C   0  0  0  0  0  0  0  0  0  0  0  0
  -26.9071  -15.0269   21.7604 C   0  0  0  0  0  0  0  0  0  0  0  0
  -21.8377  -31.0273   21.4296 C   0  0  0  0  0  0  0  0  0  0  0  0
  -21.4556  -28.8355   22.3714 C   0  0  0  0  0  0  0  0  0  0  0  0
  -27.9067  -15.6212   20.9913 C   0  0  0  0  0  0  0  0  0  0  0  0
  -18.7508  -30.3677   23.6969 C   0  0  0  0  0  0  0  0  0  0  0  0
  -17.8465  -29.9891   24.6891 C   0  0  0  0  0  0  0  0  0  0  0  0
  -28.1847  -22.6835   21.7209 C   0  0  0  0  0  0  0  0  0  0  0  0
  -26.8640  -14.7699   18.9894 C   0  0  0  0  0  0  0  0  0  0  0  0
  -29.5750  -22.7540   19.7462 C   0  0  0  0  0  0  0  0  0  0  0  0
  -16.9211  -28.3193   23.2083 C   0  0  0  0  0  0  0  0  0  0  0  0
  -23.6869  -29.7610   22.3317 C   0  0  0  0  0  0  0  0  0  0  0  0
  -28.0679  -21.2998   21.5893 C   0  0  0  0  0  0  0  0  0  0  0  0
  -25.7472  -30.0364   23.8105 C   0  0  0  0  0  0  0  0  0  0  0  0
  -23.6658   -7.1356   23.3374 C   0  0  0  0  0  0  0  0  0  0  0  0
  -25.8828  -14.2893   21.1495 C   0  0  0  0  0  0  0  0  0  0  0  0
  -24.5766   -8.2092   23.3245 C   0  0  0  0  0  0  0  0  0  0  0  0
  -25.8512  -14.1695   19.7528 C   0  0  0  0  0  0  0  0  0  0  0  0
  -28.7047  -20.6431   20.5362 C   0  0  0  0  0  0  0  0  0  0  0  0
  -28.9382  -23.4106   20.7993 C   0  0  0  0  0  0  0  0  0  0  0  0
  -20.9666  -29.9882   21.7568 C   0  0  0  0  0  0  0  0  0  0  0  0
  -27.8869  -15.4903   19.6058 C   0  0  0  0  0  0  0  0  0  0  0  0
  -18.7402  -29.7222   22.4604 C   0  0  0  0  0  0  0  0  0  0  0  0
  -29.4582  -21.3702   19.6146 C   0  0  0  0  0  0  0  0  0  0  0  0
  -16.9317  -28.9649   24.4448 C   0  0  0  0  0  0  0  0  0  0  0  0
  -17.8254  -28.6980   22.2161 C   0  0  0  0  0  0  0  0  0  0  0  0
  -25.0920  -29.6428   22.6283 C   0  0  0  0  0  0  0  0  0  0  0  0
  -27.0650  -29.7138   23.5964 C   0  0  0  0  0  0  0  0  0  0  0  0
  -28.9327  -18.8192   16.7498 C   0  0  0  0  0  0  0  0  0  0  0  0
  -29.3888  -17.6084   17.1027 C   0  0  0  0  0  0  0  0  0  0  0  0
  -27.2746  -20.5664   22.5667 C   0  0  0  0  0  0  0  0  0  0  0  0
  -25.2125  -30.6396   24.9962 C   0  0  0  0  0  0  0  0  0  0  0  0
  -24.9173  -11.2634   21.2730 C   0  0  0  0  0  0  0  0  0  0  0  0
  -22.4926  -12.3695   19.4237 C   0  0  0  0  0  0  0  0  0  0  0  0
  -21.3687  -14.7236   17.2234 C   0  0  0  0  0  0  0  0  0  0  0  0
  -29.7665  -25.6863   20.1055 C   0  0  0  0  0  0  0  0  0  0  0  0
  -23.1019   -6.5584   22.0632 C   0  0  0  0  0  0  0  0  0  0  0  0
  -24.7971  -13.6770   21.9914 C   0  0  0  0  0  0  0  0  0  0  0  0
  -24.7622  -13.4052   19.0470 C   0  0  0  0  0  0  0  0  0  0  0  0
  -23.2468   -7.4846   20.8585 C   0  0  0  0  0  0  0  0  0  0  0  0
  -30.2729  -29.2105   20.0764 C   0  0  0  0  0  0  0  0  0  0  0  0
  -24.6593   -8.0566   20.7916 C   0  0  0  0  0  0  0  0  0  0  0  0
  -29.0645  -29.7567   20.8404 C   0  0  0  0  0  0  0  0  0  0  0  0
  -29.9021  -28.0031   19.2171 C   0  0  0  0  0  0  0  0  0  0  0  0
  -28.0062  -27.4663   20.6958 C   0  0  0  0  0  0  0  0  0  0  0  0
  -24.9742   -8.8958   22.0358 C   0  0  1  0  0  0  0  0  0  0  0  0
  -24.0882  -12.5162   21.3004 C   0  0  1  0  0  0  0  0  0  0  0  0
  -28.3439  -28.6433   21.6255 C   0  0  2  0  0  0  0  0  0  0  0  0
  -28.5860  -19.1593   20.3877 C   0  0  0  0  0  0  0  0  0  0  0  0
  -19.3569  -15.3412   15.8564 C   0  0  0  0  0  0  0  0  0  0  0  0
  -23.1711  -10.1603   17.4314 C   0  0  0  0  0  0  0  0  0  0  0  0
  -21.8159  -11.3845   15.7188 C   0  0  0  0  0  0  0  0  0  0  0  0
  -20.7232  -10.5257   17.7903 C   0  0  0  0  0  0  0  0  0  0  0  0
  -21.0662  -17.3121   18.6259 C   0  0  0  0  0  0  0  0  0  0  0  0
  -29.8180  -19.9529   16.3147 C   0  0  0  0  0  0  0  0  0  0  0  0
  -28.5041  -16.4838   17.5351 C   0  0  0  0  0  0  0  0  0  1  0  0
  -29.7174  -21.1428   17.2616 C   0  0  0  0  0  0  0  0  0  0  0  0
  -22.2649  -12.5240   17.9394 C   0  0  1  0  0  0  0  0  0  0  0  0
  -20.0827  -15.5290   17.1796 C   0  0  2  0  0  0  0  0  0  0  0  0
  -22.0155  -11.1615   17.2331 C   0  0  0  0  0  0  0  0  0  0  0  0
  -25.9248  -29.1110   21.7298 N   0  0  0  0  0  0  0  0  0  0  0  0
  -27.1170  -29.1682   22.3475 N   0  0  0  0  0  0  0  0  0  0  0  0
  -23.7267  -12.8194   19.9142 N   0  0  0  0  0  0  0  0  0  0  0  0
  -29.2272  -26.9879   20.0287 N   0  0  0  0  0  0  0  0  0  0  0  0
  -28.1727  -29.8465   24.3565 N   0  0  0  0  0  0  0  0  0  0  0  0
  -25.9210  -20.3930   22.2994 N   0  0  0  0  0  0  0  0  0  0  0  0
  -23.8370  -30.9032   25.0497 N   0  0  0  0  0  0  0  0  0  0  0  0
  -29.0572  -24.8162   20.9328 N   0  0  0  0  0  0  0  0  0  0  0  0
  -24.3467  -10.1964   21.9403 N   0  0  0  0  0  0  0  0  0  0  0  0
  -21.1748  -13.4822   17.7912 N   0  0  0  0  0  0  0  0  0  0  0  0
  -20.3740  -16.9801   17.3541 N   0  3  0  0  0  0  0  0  0  0  0  0
  -27.7830  -20.1253   23.6108 O   0  0  0  0  0  0  0  0  0  0  0  0
  -25.9357  -30.9512   25.9727 O   0  0  0  0  0  0  0  0  0  0  0  0
  -25.9943  -11.2643   20.6883 O   0  0  0  0  0  0  0  0  0  0  0  0
  -21.6054  -11.8746   20.1234 O   0  0  0  0  0  0  0  0  0  0  0  0
  -22.4376  -15.1515   16.7932 O   0  0  0  0  0  0  0  0  0  0  0  0
  -30.7980  -25.3748   19.5048 O   0  0  0  0  0  0  0  0  0  0  0  0
  -19.6392  -30.0987   21.4766 O   0  0  0  0  0  0  0  0  0  0  0  0
  -28.8616  -16.0687   18.8527 O   0  0  0  0  0  0  0  0  0  1  0  0
  -30.0911  -20.7427   18.5737 O   0  0  0  0  0  0  0  0  0  0  0  0
  -16.0643  -28.6004   25.3982 F   0  0  0  0  0  0  0  0  0  0  0  0
  -17.8112  -28.0734   21.0306 F   0  0  0  0  0  0  0  0  0  0  0  0
  1  2  1  0  0  0  0
  1  5  2  0  0  0  0
  2  6  2  0  0  0  0
  3  8  2  0  0  0  0
  3 17  1  0  0  0  0
  4  9  1  0  0  0  0
  4 17  2  0  0  0  0
  5 20  1  0  0  0  0
  6 22  1  0  0  0  0
  7 10  2  0  0  0  0
  7 21  1  0  0  0  0
  8 26  1  0  0  0  0
  9 26  2  0  0  0  0
 10 27  1  0  0  0  0
 11 12  2  0  0  0  0
 11 28  1  0  0  0  0
 12 30  1  0  0  0  0
 13 18  2  0  0  0  0
 13 25  1  0  0  0  0
 14 23  1  0  0  0  0
 14 27  2  0  0  0  0
 15 25  2  0  0  0  0
 15 29  1  0  0  0  0
 16 30  2  0  0  0  0
 16 31  1  0  0  0  0
 17 32  1  0  0  0  0
 18 24  1  0  0  0  0
 18 36  1  0  0  0  0
 19 32  1  0  0  0  0
 19 33  2  0  0  0  0
 19 37  1  0  0  0  0
 20 22  2  0  0  0  0
 20 42  1  0  0  0  0
 21 23  2  0  0  0  0
 21 43  1  0  0  0  0
 22 51  1  0  0  0  0
 23 44  1  0  0  0  0
 24 29  2  0  0  0  0
 24 54  1  0  0  0  0
 25 73  1  0  0  0  0
 26 83  1  0  0  0  0
 27 84  1  0  0  0  0
 28 31  2  0  0  0  0
 28 83  1  0  0  0  0
 29 85  1  0  0  0  0
 30 86  1  0  0  0  0
 31 87  1  0  0  0  0
 32 66  2  0  0  0  0
 33 67  1  0  0  0  0
 33 70  1  0  0  0  0
 34 35  2  0  0  0  0
 34 60  1  0  0  0  0
 35 61  1  0  0  0  0
 36 71  1  0  0  0  0
 36 77  2  0  0  0  0
 37 72  1  0  0  0  0
 37 78  2  0  0  0  0
 38 52  1  0  0  0  0
 38 74  1  0  0  0  0
 38 79  2  0  0  0  0
 39 63  1  0  0  0  0
 39 68  1  0  0  0  0
 39 80  2  0  0  0  0
 40 64  1  0  0  0  0
 40 75  1  0  0  0  0
 40 81  2  0  0  0  0
 41 69  1  0  0  0  0
 41 73  1  0  0  0  0
 41 82  2  0  0  0  0
 42 45  1  0  0  0  0
 43 52  1  0  0  0  0
 44 68  1  0  0  0  0
 45 47  1  0  0  0  0
 46 48  1  0  0  0  0
 46 49  1  0  0  0  0
 47 51  1  0  0  0  0
 48 53  1  0  0  0  0
 49 69  1  0  0  0  0
 50 53  1  0  0  0  0
 50 69  1  0  0  0  0
 51 74  1  0  0  0  0
 52 68  1  0  0  0  0
 53 67  1  0  0  0  0
 55 64  1  0  0  0  0
 56 65  1  0  0  0  0
 57 65  1  0  0  0  0
 58 65  1  0  0  0  0
 59 76  1  0  0  0  0
 60 62  1  0  0  0  0
 61 84  1  0  0  0  0
 62 85  1  0  0  0  0
 63 65  1  0  0  0  0
 63 75  1  0  0  0  0
 64 76  1  0  0  0  0
 66 67  1  0  0  0  0
M  CHG  1  76   1
M  ISO  4  41 100  61 101  73 100  84 101
M  END
> <Batch ID>
0115

> <Smiles>
CNC(C)C(=O)NC(C(=O)N1Cc2cc([101O:1][101CH2:1]C=CCCOc3cc([100NH:0][100C:0](=O)N4CCCC(n5nc(-c6ccc(Oc7ccc(F)cc7F)cc6)c(C(N)=O)c5N)C4)cc(C(N)=O)c3C)ccc2CC1C(=O)NC1CCCc2ccccc21)C(C)(C)C

> <Shape>
0.272

> <Color>
0.062

> <Negative vol penalty>
0.000

$$$$

  -OEChem-04052301403D

 88 96  0     1  0  0  0  0  0999 V2000
  -17.0715  -29.5113   24.6626 C   0  0  0  0  0  0  0  0  0  0  0  0
  -17.6698  -28.3702   24.1378 C   0  0  0  0  0  0  0  0  0  0  0  0
  -27.0633   -9.9902   19.5567 C   0  0  0  0  0  0  0  0  0  0  0  0
  -26.0234  -11.8493   18.4168 C   0  0  0  0  0  0  0  0  0  0  0  0
  -17.4146  -30.7681   24.1660 C   0  0  0  0  0  0  0  0  0  0  0  0
  -18.6107  -28.4853   23.1151 C   0  0  0  0  0  0  0  0  0  0  0  0
  -22.6812  -25.5723   23.8836 C   0  0  0  0  0  0  0  0  0  0  0  0
  -25.9047   -9.2339   19.3803 C   0  0  0  0  0  0  0  0  0  0  0  0
  -24.8647  -11.0930   18.2403 C   0  0  0  0  0  0  0  0  0  0  0  0
  -22.5533  -24.2126   23.6031 C   0  0  0  0  0  0  0  0  0  0  0  0
  -23.0909   -6.9363   19.5462 C   0  0  0  0  0  0  0  0  0  0  0  0
  -22.6190   -6.2060   20.6368 C   0  0  0  0  0  0  0  0  0  0  0  0
  -27.5596  -19.2293   21.0207 C   0  0  0  0  0  0  0  0  0  0  0  0
  -23.6548  -24.5523   21.4841 C   0  0  0  0  0  0  0  0  0  0  0  0
  -27.0121  -21.4635   20.2823 C   0  0  0  0  0  0  0  0  0  0  0  0
  -22.3786   -8.2503   21.9018 C   0  0  0  0  0  0  0  0  0  0  0  0
  -27.1226  -11.2980   19.0750 C   0  0  0  0  0  0  0  0  0  0  0  0
  -28.8987  -19.4513   20.6997 C   0  0  0  0  0  0  0  0  0  0  0  0
  -29.4216  -12.1628   18.3862 C   0  0  0  0  0  0  0  0  0  0  0  0
  -18.3674  -30.8993   23.1434 C   0  0  0  0  0  0  0  0  0  0  0  0
  -23.2882  -26.4355   22.9602 C   0  0  0  0  0  0  0  0  0  0  0  0
  -18.9659  -29.7449   22.6034 C   0  0  0  0  0  0  0  0  0  0  0  0
  -23.7915  -25.9221   21.7564 C   0  0  0  0  0  0  0  0  0  0  0  0
  -29.2945  -20.6794   20.1699 C   0  0  0  0  0  0  0  0  0  0  0  0
  -26.6162  -20.2354   20.8120 C   0  0  0  0  0  0  0  0  0  0  0  0
  -24.8054   -9.7853   18.7220 C   0  0  0  0  0  0  0  0  0  0  0  0
  -23.0375  -23.7029   22.4020 C   0  0  0  0  0  0  0  0  0  0  0  0
  -23.2068   -8.3237   19.6333 C   0  0  0  0  0  0  0  0  0  0  0  0
  -28.3512  -21.6856   19.9612 C   0  0  0  0  0  0  0  0  0  0  0  0
  -22.2628   -6.8630   21.8146 C   0  0  0  0  0  0  0  0  0  0  0  0
  -22.8506   -8.9807   20.8111 C   0  0  0  0  0  0  0  0  0  0  0  0
  -28.3190  -12.0800   19.2575 C   0  0  0  0  0  0  0  0  0  0  0  0
  -30.2867  -13.0293   19.0085 C   0  0  0  0  0  0  0  0  0  0  0  0
  -31.5569  -23.8799   17.4355 C   0  0  0  0  0  0  0  0  0  0  0  0
  -30.3378  -23.4575   17.0819 C   0  0  0  0  0  0  0  0  0  0  0  0
  -24.9190  -20.3250   22.3405 C   0  0  0  0  0  0  0  0  0  0  0  0
  -29.8615  -18.3821   20.9285 C   0  0  0  0  0  0  0  0  0  0  0  0
  -29.6440  -11.5144   17.1269 C   0  0  0  0  0  0  0  0  0  0  0  0
  -30.0865  -17.8264   22.2826 C   0  0  0  0  0  0  0  0  0  0  0  0
  -22.3342  -28.9705   21.2966 C   0  0  0  0  0  0  0  0  0  0  0  0
  -25.4622  -29.1042   20.4483 C   0  0  0  0  0  0  0  0  0  0  0  0
  -28.4261  -27.4624   20.0398 C   0  0  0  0  0  0  0  0  0  0  0  0
  -18.6710  -32.2756   22.6064 C   0  0  0  0  0  0  0  0  0  0  0  0
  -23.4424  -27.8951   23.2894 C   0  0  0  0  0  0  0  0  0  0  0  0
  -24.4695  -26.8032   20.7403 C   0  0  0  0  0  0  0  0  0  0  0  0
  -19.9529  -32.3377   21.7799 C   0  0  0  0  0  0  0  0  0  0  0  0
  -30.9212  -14.6137   23.6385 C   0  0  0  0  0  0  0  0  0  0  0  0
  -20.0037  -31.1819   20.7858 C   0  0  0  0  0  0  0  0  0  0  0  0
  -30.4049  -13.6390   22.5806 C   0  0  0  0  0  0  0  0  0  0  0  0
  -30.0283  -15.8455   23.7460 C   0  0  0  0  0  0  0  0  0  0  0  0
  -29.3148  -15.5903   21.3850 C   0  0  0  0  0  0  0  0  0  0  0  0
  -20.0092  -29.8306   21.5106 C   0  0  1  0  0  0  0  0  0  0  0  0
  -23.6172  -28.7713   22.0528 C   0  0  1  0  0  0  0  0  0  0  0  0
  -30.2065  -14.3462   21.2282 C   0  0  2  0  0  0  0  0  0  0  0  0
  -30.7285  -20.9264   19.8227 C   0  0  0  0  0  0  0  0  0  0  0  0
  -30.7948  -27.8286   19.2968 C   0  0  0  0  0  0  0  0  0  0  0  0
  -24.5429  -29.1306   17.5390 C   0  0  0  0  0  0  0  0  0  0  0  0
  -26.8818  -28.5415   16.8674 C   0  0  0  0  0  0  0  0  0  0  0  0
  -26.4296  -30.6903   18.0511 C   0  0  0  0  0  0  0  0  0  0  0  0
  -29.4981  -26.6992   22.6907 C   0  0  0  0  0  0  0  0  0  0  0  0
  -29.0654  -24.1747   17.4313 C   0  0  0  0  0  0  0  0  0  0  0  0
  -23.4965  -20.1437   22.7983 C   0  0  0  0  0  0  0  0  0  0  0  0
  -28.1104  -23.2828   18.2157 C   0  0  0  0  0  0  0  0  0  0  0  0
  -22.9166  -21.4785   23.2346 C   0  0  0  0  0  0  0  0  0  1  0  0
  -26.2939  -28.5161   19.3341 C   0  0  1  0  0  0  0  0  0  0  0  0
  -29.8377  -27.8078   20.4784 C   0  0  2  0  0  0  0  0  0  0  0  0
  -26.0226  -29.2031   17.9660 C   0  0  0  0  0  0  0  0  0  0  0  0
  -28.4675  -12.8337   20.3502 N   0  0  0  0  0  0  0  0  0  0  0  0
  -30.5765  -17.8492   19.9766 N   0  0  0  0  0  0  0  0  0  0  0  0
  -25.2674  -20.0119   21.1353 N   0  0  0  0  0  0  0  0  0  0  0  0
  -29.6737  -13.3982   20.1697 N   0  0  0  0  0  0  0  0  0  0  0  0
  -29.8315  -16.4713   22.4399 N   0  0  0  0  0  0  0  0  0  0  0  0
  -24.5906  -28.2243   21.1055 N   0  0  0  0  0  0  0  0  0  0  0  0
  -31.5044  -13.5040   18.6703 N   0  0  0  0  0  0  0  0  0  0  0  0
  -28.6523  -10.6560   16.6331 N   0  0  0  0  0  0  0  0  0  0  0  0
  -21.3249  -29.5481   22.0431 N   0  0  0  0  0  0  0  0  0  0  0  0
  -27.6820  -28.5930   19.7766 N   0  0  0  0  0  0  0  0  0  0  0  0
  -30.3325  -26.8078   21.4664 N   0  3  0  0  0  0  0  0  0  0  0  0
  -30.6982  -11.6784   16.4672 O   0  0  0  0  0  0  0  0  0  0  0  0
  -30.4753  -18.6268   23.1232 O   0  0  0  0  0  0  0  0  0  0  0  0
  -22.2654  -28.6271   20.1222 O   0  0  0  0  0  0  0  0  0  0  0  0
  -25.5867  -30.2987   20.7301 O   0  0  0  0  0  0  0  0  0  0  0  0
  -28.0248  -26.3052   19.9372 O   0  0  0  0  0  0  0  0  0  0  0  0
  -23.6748   -9.0474   18.5494 O   0  0  0  0  0  0  0  0  0  0  0  0
  -22.9133  -22.3763   22.1254 O   0  0  0  0  0  0  0  0  0  1  0  0
  -28.7189  -22.8918   19.4447 O   0  0  0  0  0  0  0  0  0  0  0  0
  -21.8082   -6.1616   22.8613 F   0  0  0  0  0  0  0  0  0  0  0  0
  -22.9586  -10.3134   20.9004 F   0  0  0  0  0  0  0  0  0  0  0  0
  1  2  1  0  0  0  0
  1  5  2  0  0  0  0
  2  6  2  0  0  0  0
  3  8  2  0  0  0  0
  3 17  1  0  0  0  0
  4  9  1  0  0  0  0
  4 17  2  0  0  0  0
  5 20  1  0  0  0  0
  6 22  1  0  0  0  0
  7 10  2  0  0  0  0
  7 21  1  0  0  0  0
  8 26  1  0  0  0  0
  9 26  2  0  0  0  0
 10 27  1  0  0  0  0
 11 12  2  0  0  0  0
 11 28  1  0  0  0  0
 12 30  1  0  0  0  0
 13 18  2  0  0  0  0
 13 25  1  0  0  0  0
 14 23  1  0  0  0  0
 14 27  2  0  0  0  0
 15 25  2  0  0  0  0
 15 29  1  0  0  0  0
 16 30  2  0  0  0  0
 16 31  1  0  0  0  0
 17 32  1  0  0  0  0
 18 24  1  0  0  0  0
 18 37  1  0  0  0  0
 19 32  1  0  0  0  0
 19 33  2  0  0  0  0
 19 38  1  0  0  0  0
 20 22  2  0  0  0  0
 20 43  1  0  0  0  0
 21 23  2  0  0  0  0
 21 44  1  0  0  0  0
 22 52  1  0  0  0  0
 23 45  1  0  0  0  0
 24 29  2  0  0  0  0
 24 55  1  0  0  0  0
 25 70  1  0  0  0  0
 26 84  1  0  0  0  0
 27 85  1  0  0  0  0
 28 31  2  0  0  0  0
 28 84  1  0  0  0  0
 29 86  1  0  0  0  0
 30 87  1  0  0  0  0
 31 88  1  0  0  0  0
 32 68  2  0  0  0  0
 33 71  1  0  0  0  0
 33 74  1  0  0  0  0
 34 35  2  0  0  0  0
 35 61  1  0  0  0  0
 36 62  1  0  0  0  0
 36 70  2  0  0  0  0
 37 39  1  0  0  0  0
 37 69  2  0  0  0  0
 38 75  1  0  0  0  0
 38 79  2  0  0  0  0
 39 72  1  0  0  0  0
 39 80  2  0  0  0  0
 40 53  1  0  0  0  0
 40 76  1  0  0  0  0
 40 81  2  0  0  0  0
 41 65  1  0  0  0  0
 41 73  1  0  0  0  0
 41 82  2  0  0  0  0
 42 66  1  0  0  0  0
 42 77  1  0  0  0  0
 42 83  2  0  0  0  0
 43 46  1  0  0  0  0
 44 53  1  0  0  0  0
 45 73  1  0  0  0  0
 46 48  1  0  0  0  0
 47 49  1  0  0  0  0
 47 50  1  0  0  0  0
 48 52  1  0  0  0  0
 49 54  1  0  0  0  0
 50 72  1  0  0  0  0
 51 54  1  0  0  0  0
 51 72  1  0  0  0  0
 52 76  1  0  0  0  0
 53 73  1  0  0  0  0
 54 71  1  0  0  0  0
 56 66  1  0  0  0  0
 57 67  1  0  0  0  0
 58 67  1  0  0  0  0
 59 67  1  0  0  0  0
 60 78  1  0  0  0  0
 61 63  1  0  0  0  0
 62 64  1  0  0  0  0
 63 86  1  0  0  0  0
 64 85  1  0  0  0  0
 65 67  1  0  0  0  0
 65 77  1  0  0  0  0
 66 78  1  0  0  0  0
 68 71  1  0  0  0  0
M  CHG  1  78   1
M  ISO  4  37 100  39 100  64 101  85 101
M  END
> <Batch ID>
0115

> <Smiles>
C=CCCOc1cc(N=CC[101CH2:1][101O:1]c2ccc3c(c2)CN(C(=O)C(NC(=O)C(C)NC)C(C)(C)C)C(C(=O)NC2CCCc4ccccc42)C3)cc([100C:0](=N)[100C:0](=O)N2CCCC(n3nc(-c4ccc(Oc5ccc(F)cc5F)cc4)c(C(N)=O)c3N)C2)c1C

> <Shape>
0.290

> <Color>
0.096

> <Negative vol penalty>
0.000

$$$$

  -OEChem-04052301403D

 85 93  0     1  0  0  0  0  0999 V2000
  -32.1749  -11.8822   22.8330 C   0  0  0  0  0  0  0  0  0  0  0  0
  -32.2409  -13.2173   23.2184 C   0  0  0  0  0  0  0  0  0  0  0  0
  -20.0551  -20.5863   24.0203 C   0  0  0  0  0  0  0  0  0  0  0  0
  -20.5227  -22.0423   25.8907 C   0  0  0  0  0  0  0  0  0  0  0  0
  -31.5991  -11.5384   21.6106 C   0  0  0  0  0  0  0  0  0  0  0  0
  -31.7321  -14.2095   22.3812 C   0  0  0  0  0  0  0  0  0  0  0  0
  -28.5121  -20.6042   22.6185 C   0  0  0  0  0  0  0  0  0  0  0  0
  -19.8611  -19.5202   24.8986 C   0  0  0  0  0  0  0  0  0  0  0  0
  -20.3287  -20.9762   26.7691 C   0  0  0  0  0  0  0  0  0  0  0  0
  -28.6404  -21.8943   22.1058 C   0  0  0  0  0  0  0  0  0  0  0  0
  -21.7779  -17.3716   26.6689 C   0  0  0  0  0  0  0  0  0  0  0  0
  -22.3681  -16.1501   26.3446 C   0  0  0  0  0  0  0  0  0  0  0  0
  -27.5968  -21.1759   20.0530 C   0  0  0  0  0  0  0  0  0  0  0  0
  -20.1886  -15.1086   26.3009 C   0  0  0  0  0  0  0  0  0  0  0  0
  -26.0563  -30.2237   20.8184 C   0  0  0  0  0  0  0  0  0  0  0  0
  -20.3860  -21.8473   24.5163 C   0  0  0  0  0  0  0  0  0  0  0  0
  -21.5409  -23.0375   22.5780 C   0  0  0  0  0  0  0  0  0  0  0  0
  -31.0742  -12.5260   20.7623 C   0  0  0  0  0  0  0  0  0  0  0  0
  -27.9341  -19.5858   21.8468 C   0  0  0  0  0  0  0  0  0  0  0  0
  -31.1499  -13.8787   21.1457 C   0  0  0  0  0  0  0  0  0  0  0  0
  -27.4600  -19.8743   20.5591 C   0  0  0  0  0  0  0  0  0  0  0  0
  -19.9979  -19.7152   26.2730 C   0  0  0  0  0  0  0  0  0  0  0  0
  -28.1853  -22.1797   20.8219 C   0  0  0  0  0  0  0  0  0  0  0  0
  -20.3930  -17.4616   26.8092 C   0  0  0  0  0  0  0  0  0  0  0  0
  -21.5735  -15.0186   26.1606 C   0  0  0  0  0  0  0  0  0  0  0  0
  -19.5984  -16.3301   26.6252 C   0  0  0  0  0  0  0  0  0  0  0  0
  -20.5870  -22.9488   23.6095 C   0  0  0  0  0  0  0  0  0  0  0  0
  -21.3236  -24.2711   22.0145 C   0  0  0  0  0  0  0  0  0  0  0  0
  -25.6715  -28.9162   20.7221 C   0  0  0  0  0  0  0  0  0  0  0  0
  -23.8681  -30.1302   21.1398 C   0  0  0  0  0  0  0  0  0  0  0  0
  -27.2861  -24.3188   20.5282 C   0  0  0  0  0  0  0  0  0  1  0  0
  -22.5345  -22.0896   22.1660 C   0  0  0  0  0  0  0  0  0  0  0  0
  -22.4543  -30.5062   21.3979 C   0  0  0  0  0  0  0  0  0  0  0  0
  -27.3026  -25.5796   20.0790 C   0  0  0  0  0  0  0  0  0  0  0  0
  -26.1288  -26.4683   20.3628 C   0  0  0  0  0  0  0  0  0  0  0  0
  -28.9447  -16.8068   20.6809 C   0  0  0  0  0  0  0  0  0  0  0  0
  -25.8408  -16.4953   19.7915 C   0  0  0  0  0  0  0  0  0  0  0  0
  -22.8804  -18.0106   19.0258 C   0  0  0  0  0  0  0  0  0  0  0  0
  -20.3446  -29.7097   22.4169 C   0  0  0  0  0  0  0  0  0  0  0  0
  -30.5040  -12.1100   19.4295 C   0  0  0  0  0  0  0  0  0  0  0  0
  -27.7788  -18.2057   22.4244 C   0  0  0  0  0  0  0  0  0  0  0  0
  -26.8136  -18.8213   19.6978 C   0  0  0  0  0  0  0  0  0  0  0  0
  -29.6504  -13.1892   18.7686 C   0  0  0  0  0  0  0  0  0  0  0  0
  -17.5390  -27.5734   22.6666 C   0  0  0  0  0  0  0  0  0  0  0  0
  -30.3583  -14.5392   18.8256 C   0  0  0  0  0  0  0  0  0  0  0  0
  -18.1577  -26.1838   22.8416 C   0  0  0  0  0  0  0  0  0  0  0  0
  -18.3358  -28.6466   23.4071 C   0  0  0  0  0  0  0  0  0  0  0  0
  -20.3861  -27.2909   23.2802 C   0  0  0  0  0  0  0  0  0  0  0  0
  -30.5865  -14.9816   20.2761 C   0  0  1  0  0  0  0  0  0  0  0  0
  -27.6412  -17.1237   21.3577 C   0  0  1  0  0  0  0  0  0  0  0  0
  -19.6603  -26.1860   22.4957 C   0  0  1  0  0  0  0  0  0  0  0  0
  -20.4450  -18.2075   18.4536 C   0  0  0  0  0  0  0  0  0  0  0  0
  -26.8366  -15.9657   16.9564 C   0  0  0  0  0  0  0  0  0  0  0  0
  -24.5132  -16.4044   16.1331 C   0  0  0  0  0  0  0  0  0  0  0  0
  -24.9452  -14.5023   17.6882 C   0  0  0  0  0  0  0  0  0  0  0  0
  -24.8805  -32.3915   21.2550 C   0  0  0  0  0  0  0  0  0  0  0  0
  -22.0938  -18.0451   21.8787 C   0  0  0  0  0  0  0  0  0  0  0  0
  -25.0358  -16.8698   18.5706 C   0  0  1  0  0  0  0  0  0  0  0  0
  -21.4594  -17.7341   19.4829 C   0  0  2  0  0  0  0  0  0  0  0  0
  -25.3466  -15.9552   17.3523 C   0  0  0  0  0  0  0  0  0  0  0  0
  -19.8208  -24.0393   23.6984 N   0  0  0  0  0  0  0  0  0  0  0  0
  -24.9204  -30.9525   21.0767 N   0  0  0  0  0  0  0  0  0  0  0  0
  -20.2931  -24.8249   22.7156 N   0  0  0  0  0  0  0  0  0  0  0  0
  -24.3129  -28.8878   20.9255 N   0  3  0  0  0  0  0  0  0  0  0  0
  -26.6903  -17.4857   20.3048 N   0  0  0  0  0  0  0  0  0  0  0  0
  -19.7457  -28.5883   23.0172 N   0  0  0  0  0  0  0  0  0  0  0  0
  -21.9154  -24.9253   20.9926 N   0  0  0  0  0  0  0  0  0  0  0  0
  -23.8021  -22.1490   22.7611 N   0  0  0  0  0  0  0  0  0  0  0  0
  -26.5043  -27.8009   20.4634 N   0  0  0  0  0  0  0  0  0  0  0  0
  -21.6820  -29.5394   22.0424 N   0  0  0  0  0  0  0  0  0  0  0  0
  -29.3609  -15.4994   20.8453 N   0  0  0  0  0  0  0  0  0  0  0  0
  -23.6370  -16.8586   18.9848 N   0  0  0  0  0  0  0  0  0  0  0  0
  -21.1841  -18.4330   20.7700 N   0  3  0  0  0  0  0  0  0  0  0  0
  -22.3103  -21.2261   21.2841 O   0  0  0  0  0  0  0  0  0  0  0  0
  -22.0650  -31.6256   21.0768 O   0  0  0  0  0  0  0  0  0  0  0  0
  -25.0001  -26.0033   20.4794 O   0  0  0  0  0  0  0  0  0  0  0  0
  -29.5289  -17.6832   20.0545 O   0  0  0  0  0  0  0  0  0  0  0  0
  -25.7151  -15.3680   20.2763 O   0  0  0  0  0  0  0  0  0  0  0  0
  -23.2782  -19.1354   18.7307 O   0  0  0  0  0  0  0  0  0  0  0  0
  -19.7311  -30.7590   22.1982 O   0  0  0  0  0  0  0  0  0  0  0  0
  -28.3619  -26.0984   19.3625 O   0  0  0  0  0  0  0  0  0  0  0  0
  -19.8085  -18.6752   27.1304 O   0  0  0  0  0  0  0  0  0  0  0  0
  -28.3098  -23.4380   20.3188 O   0  0  0  0  0  0  0  0  0  1  0  0
  -22.1403  -13.8460   25.8477 F   0  0  0  0  0  0  0  0  0  0  0  0
  -18.2673  -16.4106   26.7576 F   0  0  0  0  0  0  0  0  0  0  0  0
  1  2  1  0  0  0  0
  1  5  2  0  0  0  0
  2  6  2  0  0  0  0
  3  8  2  0  0  0  0
  3 16  1  0  0  0  0
  4  9  1  0  0  0  0
  4 16  2  0  0  0  0
  5 18  1  0  0  0  0
  6 20  1  0  0  0  0
  7 10  2  0  0  0  0
  7 19  1  0  0  0  0
  8 22  1  0  0  0  0
  9 22  2  0  0  0  0
 10 23  1  0  0  0  0
 11 12  2  0  0  0  0
 11 24  1  0  0  0  0
 12 25  1  0  0  0  0
 13 21  1  0  0  0  0
 13 23  2  0  0  0  0
 14 25  2  0  0  0  0
 14 26  1  0  0  0  0
 15 29  2  0  0  0  0
 15 62  1  0  0  0  0
 16 27  1  0  0  0  0
 17 27  1  0  0  0  0
 17 28  2  0  0  0  0
 17 32  1  0  0  0  0
 18 20  2  0  0  0  0
 18 40  1  0  0  0  0
 19 21  2  0  0  0  0
 19 41  1  0  0  0  0
 20 49  1  0  0  0  0
 21 42  1  0  0  0  0
 22 82  1  0  0  0  0
 23 83  1  0  0  0  0
 24 26  2  0  0  0  0
 24 82  1  0  0  0  0
 25 84  1  0  0  0  0
 26 85  1  0  0  0  0
 27 61  2  0  0  0  0
 28 63  1  0  0  0  0
 28 67  1  0  0  0  0
 29 64  1  0  0  0  0
 29 69  1  0  0  0  0
 30 33  1  0  0  0  0
 30 62  1  0  0  0  0
 30 64  2  0  0  0  0
 31 34  2  0  0  0  0
 31 83  1  0  0  0  0
 32 68  1  0  0  0  0
 32 74  2  0  0  0  0
 33 70  1  0  0  0  0
 33 75  2  0  0  0  0
 34 35  1  0  0  0  0
 34 81  1  0  0  0  0
 35 69  1  0  0  0  0
 35 76  2  0  0  0  0
 36 50  1  0  0  0  0
 36 71  1  0  0  0  0
 36 77  2  0  0  0  0
 37 58  1  0  0  0  0
 37 65  1  0  0  0  0
 37 78  2  0  0  0  0
 38 59  1  0  0  0  0
 38 72  1  0  0  0  0
 38 79  2  0  0  0  0
 39 66  1  0  0  0  0
 39 70  1  0  0  0  0
 39 80  2  0  0  0  0
 40 43  1  0  0  0  0
 41 50  1  0  0  0  0
 42 65  1  0  0  0  0
 43 45  1  0  0  0  0
 44 46  1  0  0  0  0
 44 47  1  0  0  0  0
 45 49  1  0  0  0  0
 46 51  1  0  0  0  0
 47 66  1  0  0  0  0
 48 51  1  0  0  0  0
 48 66  1  0  0  0  0
 49 71  1  0  0  0  0
 50 65  1  0  0  0  0
 51 63  1  0  0  0  0
 52 59  1  0  0  0  0
 53 60  1  0  0  0  0
 54 60  1  0  0  0  0
 55 60  1  0  0  0  0
 56 62  1  0  0  0  0
 57 73  1  0  0  0  0
 58 60  1  0  0  0  0
 58 72  1  0  0  0  0
 59 73  1  0  0  0  0
 61 63  1  0  0  0  0
M  CHG  2  64   1  73   1
M  ISO  4  31 101  39 100  70 100  83 101
M  END
> <Batch ID>
0115

> <Smiles>
CNC(C)C(=O)NC(C(=O)N1Cc2cc([101O:1][101CH2:1]C(=O)C(=O)Nc3cn(C)c(C(=O)[100NH:0][100C:0](=O)N4CCCC(n5nc(-c6ccc(Oc7ccc(F)cc7F)cc6)c(C(N)=O)c5N)C4)n3)ccc2CC1C(=O)NC1CCCc2ccccc21)C(C)(C)C

> <Shape>
0.196

> <Color>
0.069

> <Negative vol penalty>
0.000

$$$$

  -OEChem-04052301403D

 83 91  0     1  0  0  0  0  0999 V2000
  -33.1922  -25.3906   19.1564 C   0  0  0  0  0  0  0  0  0  0  0  0
  -31.8487  -25.7217   19.0213 C   0  0  0  0  0  0  0  0  0  0  0  0
  -27.8546  -17.2201   18.9216 C   0  0  0  0  0  0  0  0  0  0  0  0
  -27.7468  -17.6361   21.2991 C   0  0  0  0  0  0  0  0  0  0  0  0
  -33.8809  -25.7470   20.3139 C   0  0  0  0  0  0  0  0  0  0  0  0
  -31.1966  -26.4199   20.0383 C   0  0  0  0  0  0  0  0  0  0  0  0
  -26.6076  -27.9372   19.1208 C   0  0  0  0  0  0  0  0  0  0  0  0
  -28.5954  -18.3895   18.7506 C   0  0  0  0  0  0  0  0  0  0  0  0
  -28.4877  -18.8054   21.1281 C   0  0  0  0  0  0  0  0  0  0  0  0
  -25.5238  -27.0628   19.0541 C   0  0  0  0  0  0  0  0  0  0  0  0
  -30.0425  -22.0875   21.2723 C   0  0  0  0  0  0  0  0  0  0  0  0
  -29.6102  -23.2325   21.9412 C   0  0  0  0  0  0  0  0  0  0  0  0
  -24.8212  -27.7758   21.2489 C   0  0  0  0  0  0  0  0  0  0  0  0
  -22.5841  -21.7736   19.0061 C   0  0  0  0  0  0  0  0  0  0  0  0
  -20.1723  -21.6397   19.0558 C   0  0  0  0  0  0  0  0  0  0  0  0
  -27.5023  -23.1234   20.7656 C   0  0  0  0  0  0  0  0  0  0  0  0
  -27.4302  -16.8434   20.1959 C   0  0  0  0  0  0  0  0  0  0  0  0
  -27.1617  -14.3426   20.6221 C   0  0  0  0  0  0  0  0  0  0  0  0
  -33.2330  -26.4390   21.3504 C   0  0  0  0  0  0  0  0  0  0  0  0
  -26.8128  -28.7309   20.2585 C   0  0  0  0  0  0  0  0  0  0  0  0
  -31.8808  -26.8096   21.2039 C   0  0  0  0  0  0  0  0  0  0  0  0
  -25.9070  -28.6614   21.3265 C   0  0  0  0  0  0  0  0  0  0  0  0
  -22.6631  -20.3840   19.0964 C   0  0  0  0  0  0  0  0  0  0  0  0
  -20.2513  -20.2500   19.1461 C   0  0  0  0  0  0  0  0  0  0  0  0
  -21.3387  -22.4015   18.9858 C   0  0  0  0  0  0  0  0  0  0  0  0
  -21.4968  -19.6221   19.1664 C   0  0  0  0  0  0  0  0  0  0  0  0
  -28.9120  -19.1821   19.8538 C   0  0  0  0  0  0  0  0  0  0  0  0
  -24.6320  -26.9799   20.1194 C   0  0  0  0  0  0  0  0  0  0  0  0
  -29.2048  -21.4604   20.3500 C   0  0  0  0  0  0  0  0  0  0  0  0
  -28.3401  -23.7505   21.6879 C   0  0  0  0  0  0  0  0  0  0  0  0
  -27.9347  -21.9783   20.0967 C   0  0  0  0  0  0  0  0  0  0  0  0
  -26.6644  -15.6359   20.3731 C   0  0  0  0  0  0  0  0  0  0  0  0
  -26.0403  -13.5545   20.7101 C   0  0  0  0  0  0  0  0  0  0  0  0
  -21.2459  -24.4364   20.0230 C   0  0  0  0  0  0  0  0  0  0  0  0
  -28.5163  -13.8939   20.7616 C   0  0  0  0  0  0  0  0  0  0  0  0
  -29.1162  -28.9785   22.4350 C   0  0  0  0  0  0  0  0  0  0  0  0
  -27.3417  -31.4932   23.4597 C   0  0  0  0  0  0  0  0  0  0  0  0
  -24.2901  -33.0131   23.6170 C   0  0  0  0  0  0  0  0  0  0  0  0
  -22.1933  -17.4511   20.2577 C   0  0  0  0  0  0  0  0  0  0  0  0
  -34.0284  -26.8069   22.5781 C   0  0  0  0  0  0  0  0  0  0  0  0
  -27.9718  -29.6887   20.3038 C   0  0  0  0  0  0  0  0  0  0  0  0
  -26.0713  -29.5068   22.5621 C   0  0  0  0  0  0  0  0  0  0  0  0
  -33.1485  -27.1474   23.7765 C   0  0  0  0  0  0  0  0  0  0  0  0
  -21.5958  -13.9101   18.8541 C   0  0  0  0  0  0  0  0  0  0  0  0
  -32.0761  -28.1458   23.3671 C   0  0  0  0  0  0  0  0  0  0  0  0
  -23.0467  -13.5334   19.1260 C   0  0  0  0  0  0  0  0  0  0  0  0
  -21.4226  -15.4253   18.9126 C   0  0  0  0  0  0  0  0  0  0  0  0
  -22.6175  -15.1450   21.0865 C   0  0  0  0  0  0  0  0  0  0  0  0
  -31.1428  -27.5419   22.3100 C   0  0  1  0  0  0  0  0  0  0  0  0
  -28.3732  -30.0742   21.7242 C   0  0  1  0  0  0  0  0  0  0  0  0
  -23.5067  -14.0221   20.5141 C   0  0  2  0  0  0  0  0  0  0  0  0
  -24.0119  -19.7401   19.1186 C   0  0  0  0  0  0  0  0  0  0  0  0
  -18.9843  -19.4606   19.2178 C   0  0  0  0  0  0  0  0  0  0  0  0
  -23.1446  -35.0392   24.5551 C   0  0  0  0  0  0  0  0  0  0  0  0
  -27.3688  -30.2214   26.2331 C   0  0  0  0  0  0  0  0  0  0  0  0
  -25.4750  -31.7311   26.8675 C   0  0  0  0  0  0  0  0  0  0  0  0
  -27.6794  -32.7029   26.2203 C   0  0  0  0  0  0  0  0  0  0  0  0
  -23.5340  -33.9762   20.9226 C   0  0  0  0  0  0  0  0  0  0  0  0
  -21.1773  -25.9398   20.0540 C   0  0  0  0  0  0  0  0  0  0  0  0
  -22.3948  -26.5012   20.7689 C   0  0  0  0  0  0  0  0  0  1  0  0
  -26.2084  -31.6728   24.4406 C   0  0  1  0  0  0  0  0  0  0  0  0
  -23.8637  -34.4460   23.3535 C   0  0  2  0  0  0  0  0  0  0  0  0
  -26.6806  -31.5646   25.9180 C   0  0  0  0  0  0  0  0  0  0  0  0
  -25.3308  -15.6715   20.3070 N   0  0  0  0  0  0  0  0  0  0  0  0
  -21.2589  -23.8014   18.8967 N   0  0  0  0  0  0  0  0  0  0  0  0
  -24.9807  -14.3909   20.5156 N   0  0  0  0  0  0  0  0  0  0  0  0
  -27.2236  -30.4232   22.5613 N   0  0  0  0  0  0  0  0  0  0  0  0
  -22.0981  -16.0510   20.0589 N   0  0  0  0  0  0  0  0  0  0  0  0
  -25.8671  -12.2345   20.9339 N   0  0  0  0  0  0  0  0  0  0  0  0
  -29.5477  -14.8355   20.6428 N   0  0  0  0  0  0  0  0  0  0  0  0
  -21.5773  -18.2097   19.2586 N   0  0  0  0  0  0  0  0  0  0  0  0
  -30.2756  -28.5799   21.7977 N   0  0  0  0  0  0  0  0  0  0  0  0
  -25.5773  -32.9451   24.1068 N   0  0  0  0  0  0  0  0  0  0  0  0
  -22.9469  -34.5062   22.1802 N   0  3  0  0  0  0  0  0  0  0  0  0
  -28.8044  -12.6907   20.9685 O   0  0  0  0  0  0  0  0  0  0  0  0
  -28.6712  -28.5292   23.4847 O   0  0  0  0  0  0  0  0  0  0  0  0
  -28.2932  -32.2778   23.4847 O   0  0  0  0  0  0  0  0  0  0  0  0
  -23.5536  -32.0507   23.4125 O   0  0  0  0  0  0  0  0  0  0  0  0
  -22.7711  -17.9286   21.2365 O   0  0  0  0  0  0  0  0  0  0  0  0
  -29.6352  -20.3232   19.6873 O   0  0  0  0  0  0  0  0  0  0  0  0
  -23.5737  -26.1267   20.0572 O   0  0  0  0  0  0  0  0  0  1  0  0
  -27.9245  -24.8493   22.3315 F   0  0  0  0  0  0  0  0  0  0  0  0
  -27.1249  -21.3796   19.2126 F   0  0  0  0  0  0  0  0  0  0  0  0
  1  2  1  0  0  0  0
  1  5  2  0  0  0  0
  2  6  2  0  0  0  0
  3  8  2  0  0  0  0
  3 17  1  0  0  0  0
  4  9  1  0  0  0  0
  4 17  2  0  0  0  0
  5 19  1  0  0  0  0
  6 21  1  0  0  0  0
  7 10  2  0  0  0  0
  7 20  1  0  0  0  0
  8 27  1  0  0  0  0
  9 27  2  0  0  0  0
 10 28  1  0  0  0  0
 11 12  2  0  0  0  0
 11 29  1  0  0  0  0
 12 30  1  0  0  0  0
 13 22  1  0  0  0  0
 13 28  2  0  0  0  0
 14 23  2  0  0  0  0
 14 25  1  0  0  0  0
 15 24  1  0  0  0  0
 15 25  2  0  0  0  0
 16 30  2  0  0  0  0
 16 31  1  0  0  0  0
 17 32  1  0  0  0  0
 18 32  1  0  0  0  0
 18 33  2  0  0  0  0
 18 35  1  0  0  0  0
 19 21  2  0  0  0  0
 19 40  1  0  0  0  0
 20 22  2  0  0  0  0
 20 41  1  0  0  0  0
 21 49  1  0  0  0  0
 22 42  1  0  0  0  0
 23 26  1  0  0  0  0
 23 52  1  0  0  0  0
 24 26  2  0  0  0  0
 24 53  1  0  0  0  0
 25 65  1  0  0  0  0
 26 71  1  0  0  0  0
 27 80  1  0  0  0  0
 28 81  1  0  0  0  0
 29 31  2  0  0  0  0
 29 80  1  0  0  0  0
 30 82  1  0  0  0  0
 31 83  1  0  0  0  0
 32 64  2  0  0  0  0
 33 66  1  0  0  0  0
 33 69  1  0  0  0  0
 34 59  1  0  0  0  0
 34 65  2  0  0  0  0
 35 70  1  0  0  0  0
 35 75  2  0  0  0  0
 36 50  1  0  0  0  0
 36 72  1  0  0  0  0
 36 76  2  0  0  0  0
 37 61  1  0  0  0  0
 37 67  1  0  0  0  0
 37 77  2  0  0  0  0
 38 62  1  0  0  0  0
 38 73  1  0  0  0  0
 38 78  2  0  0  0  0
 39 68  1  0  0  0  0
 39 71  1  0  0  0  0
 39 79  2  0  0  0  0
 40 43  1  0  0  0  0
 41 50  1  0  0  0  0
 42 67  1  0  0  0  0
 43 45  1  0  0  0  0
 44 46  1  0  0  0  0
 44 47  1  0  0  0  0
 45 49  1  0  0  0  0
 46 51  1  0  0  0  0
 47 68  1  0  0  0  0
 48 51  1  0  0  0  0
 48 68  1  0  0  0  0
 49 72  1  0  0  0  0
 50 67  1  0  0  0  0
 51 66  1  0  0  0  0
 54 62  1  0  0  0  0
 55 63  1  0  0  0  0
 56 63  1  0  0  0  0
 57 63  1  0  0  0  0
 58 74  1  0  0  0  0
 59 60  1  0  0  0  0
 60 81  1  0  0  0  0
 61 63  1  0  0  0  0
 61 73  1  0  0  0  0
 62 74  1  0  0  0  0
 64 66  1  0  0  0  0
M  CHG  1  74   1
M  ISO  4  39 100  60 101  71 100  81 101
M  END
> <Batch ID>
0115

> <Smiles>
CNC(C)C(=O)NC(C(=O)N1Cc2cc([101O:1][101CH2:1]C=CNc3cc(C)c([100NH:0][100C:0](=O)N4CCCC(n5nc(-c6ccc(Oc7ccc(F)cc7F)cc6)c(C(N)=O)c5N)C4)c(C)c3)ccc2CC1C(=O)NC1CCCc2ccccc21)C(C)(C)C

> <Shape>
0.239

> <Color>
0.095

> <Negative vol penalty>
0.000

$$$$

  -OEChem-04052301403D

 85 93  0     1  0  0  0  0  0999 V2000
  -26.2546  -29.3497   28.2687 C   0  0  0  0  0  0  0  0  0  0  0  0
  -26.3221  -28.1661   27.5406 C   0  0  0  0  0  0  0  0  0  0  0  0
  -23.2308   -9.8214   19.9392 C   0  0  0  0  0  0  0  0  0  0  0  0
  -23.5526  -10.0599   22.3218 C   0  0  0  0  0  0  0  0  0  0  0  0
  -25.5188  -30.4275   27.7782 C   0  0  0  0  0  0  0  0  0  0  0  0
  -25.6528  -28.0594   26.3220 C   0  0  0  0  0  0  0  0  0  0  0  0
  -27.4774  -24.9350   21.3809 C   0  0  0  0  0  0  0  0  0  0  0  0
  -22.4739   -8.6701   20.1567 C   0  0  0  0  0  0  0  0  0  0  0  0
  -22.7957   -8.9086   22.5393 C   0  0  0  0  0  0  0  0  0  0  0  0
  -27.1395  -23.6743   20.8907 C   0  0  0  0  0  0  0  0  0  0  0  0
  -21.2505   -5.8314   23.7026 C   0  0  0  0  0  0  0  0  0  0  0  0
  -21.7383   -4.8980   24.6171 C   0  0  0  0  0  0  0  0  0  0  0  0
  -27.3894  -16.9082   15.2451 C   0  0  0  0  0  0  0  0  0  0  0  0
  -25.5126  -24.6867   19.4253 C   0  0  0  0  0  0  0  0  0  0  0  0
  -26.0092  -18.8892   15.1565 C   0  0  0  0  0  0  0  0  0  0  0  0
  -23.7311   -4.6277   23.2782 C   0  0  0  0  0  0  0  0  0  0  0  0
  -23.7702  -10.5163   21.0218 C   0  0  0  0  0  0  0  0  0  0  0  0
  -28.2102  -17.5223   16.1910 C   0  0  0  0  0  0  0  0  0  0  0  0
  -24.0838  -13.0309   20.7286 C   0  0  0  0  0  0  0  0  0  0  0  0
  -24.8480  -30.3373   26.5483 C   0  0  0  0  0  0  0  0  0  0  0  0
  -26.8266  -26.0819   20.9040 C   0  0  0  0  0  0  0  0  0  0  0  0
  -24.9062  -29.1366   25.8152 C   0  0  0  0  0  0  0  0  0  0  0  0
  -25.8458  -25.9610   19.9092 C   0  0  0  0  0  0  0  0  0  0  0  0
  -27.9304  -18.8198   16.6198 C   0  0  0  0  0  0  0  0  0  0  0  0
  -26.8299  -19.5033   16.1026 C   0  0  0  0  0  0  0  0  0  0  0  0
  -22.2563   -8.2137   21.4567 C   0  0  0  0  0  0  0  0  0  0  0  0
  -26.1550  -23.5497   19.9149 C   0  0  0  0  0  0  0  0  0  0  0  0
  -22.0029   -6.1630   22.5758 C   0  0  0  0  0  0  0  0  0  0  0  0
  -22.9786   -4.2961   24.4049 C   0  0  0  0  0  0  0  0  0  0  0  0
  -26.2889  -17.5917   14.7278 C   0  0  0  0  0  0  0  0  0  0  0  0
  -23.2432   -5.5611   22.3637 C   0  0  0  0  0  0  0  0  0  0  0  0
  -24.5526  -11.7053   20.7978 C   0  0  0  0  0  0  0  0  0  0  0  0
  -25.2109  -13.7823   20.5020 C   0  0  0  0  0  0  0  0  0  0  0  0
  -25.7451  -20.9080   17.5432 C   0  0  0  0  0  0  0  0  0  0  0  0
  -29.3745  -16.7686   16.7231 C   0  0  0  0  0  0  0  0  0  0  0  0
  -22.7488  -13.5377   20.8578 C   0  0  0  0  0  0  0  0  0  0  0  0
  -24.9991  -28.3308   22.2104 C   0  0  0  0  0  0  0  0  0  0  0  0
  -25.2370  -29.6827   19.2713 C   0  0  0  0  0  0  0  0  0  0  0  0
  -25.7950  -29.2714   15.9297 C   0  0  0  0  0  0  0  0  0  0  0  0
  -30.0210  -14.6946   17.9080 C   0  0  0  0  0  0  0  0  0  0  0  0
  -24.0264  -31.5128   26.0816 C   0  0  0  0  0  0  0  0  0  0  0  0
  -27.2214  -27.4371   21.4237 C   0  0  0  0  0  0  0  0  0  0  0  0
  -25.1317  -27.1631   19.3494 C   0  0  0  0  0  0  0  0  0  0  0  0
  -23.6539  -31.4467   24.6027 C   0  0  0  0  0  0  0  0  0  0  0  0
  -30.1112  -12.5150   20.6897 C   0  0  0  0  0  0  0  0  0  0  0  0
  -23.1372  -30.0571   24.2438 C   0  0  0  0  0  0  0  0  0  0  0  0
  -28.6341  -12.2232   20.9679 C   0  0  0  0  0  0  0  0  0  0  0  0
  -30.3989  -12.6078   19.1919 C   0  0  0  0  0  0  0  0  0  0  0  0
  -28.0668  -13.2424   18.7267 C   0  0  0  0  0  0  0  0  0  0  0  0
  -24.2141  -28.9907   24.4773 C   0  0  1  0  0  0  0  0  0  0  0  0
  -26.1326  -28.4892   21.2367 C   0  0  1  0  0  0  0  0  0  0  0  0
  -27.7126  -13.2091   20.2222 C   0  0  1  0  0  0  0  0  0  0  0  0
  -28.5434  -18.9728   19.0462 C   0  0  0  0  0  0  0  0  0  0  0  0
  -25.8860  -30.5547   13.7751 C   0  0  0  0  0  0  0  0  0  0  0  0
  -22.1887  -29.8075   19.2196 C   0  0  0  0  0  0  0  0  0  0  0  0
  -22.3157  -30.1870   16.7481 C   0  0  0  0  0  0  0  0  0  0  0  0
  -23.3315  -31.8401   18.3158 C   0  0  0  0  0  0  0  0  0  0  0  0
  -28.6332  -28.5573   15.4897 C   0  0  0  0  0  0  0  0  0  0  0  0
  -28.8096  -19.4819   17.6341 C   0  0  0  0  0  0  0  0  0  0  0  0
  -25.3621  -22.2521   18.0863 C   0  0  0  0  0  0  0  0  0  1  0  0
  -24.4477  -29.5955   17.9874 C   0  0  1  0  0  0  0  0  0  0  0  0
  -26.6836  -30.0249   14.9566 C   0  0  2  0  0  0  0  0  0  0  0  0
  -23.0828  -30.3345   18.0795 C   0  0  0  0  0  0  0  0  0  0  0  0
  -25.8745  -11.6164   20.6286 N   0  0  0  0  0  0  0  0  0  0  0  0
  -26.5310  -20.8109   16.5212 N   0  0  0  0  0  0  0  0  0  0  0  0
  -26.2460  -12.8956   20.4509 N   0  0  0  0  0  0  0  0  0  0  0  0
  -25.5485  -28.4658   19.8941 N   0  0  0  0  0  0  0  0  0  0  0  0
  -29.4914  -13.5682   18.5616 N   0  0  0  0  0  0  0  0  0  0  0  0
  -25.4077  -15.1084   20.3434 N   0  0  0  0  0  0  0  0  0  0  0  0
  -21.7081  -12.6278   21.0886 N   0  0  0  0  0  0  0  0  0  0  0  0
  -29.0711  -15.5734   17.3757 N   0  0  0  0  0  0  0  0  0  0  0  0
  -25.1824  -29.0063   23.4018 N   0  0  0  0  0  0  0  0  0  0  0  0
  -25.3261  -30.0920   16.9337 N   0  0  0  0  0  0  0  0  0  0  0  0
  -27.7567  -29.1311   14.4363 N   0  3  0  0  0  0  0  0  0  0  0  0
  -30.5067  -17.2037   16.5313 O   0  0  0  0  0  0  0  0  0  0  0  0
  -22.4844  -14.7596   20.7546 O   0  0  0  0  0  0  0  0  0  0  0  0
  -24.0295  -27.6476   21.9028 O   0  0  0  0  0  0  0  0  0  0  0  0
  -25.5711  -30.7893   19.7018 O   0  0  0  0  0  0  0  0  0  0  0  0
  -25.5391  -28.0754   15.8089 O   0  0  0  0  0  0  0  0  0  0  0  0
  -31.2335  -14.9185   17.8374 O   0  0  0  0  0  0  0  0  0  0  0  0
  -21.5176   -7.0905   21.6693 O   0  0  0  0  0  0  0  0  0  0  0  0
  -25.8228  -22.3203   19.4352 O   0  0  0  0  0  0  0  0  0  1  0  0
  -23.4476   -3.4009   25.2840 F   0  0  0  0  0  0  0  0  0  0  0  0
  -25.5005  -17.0018   13.8197 F   0  0  0  0  0  0  0  0  0  0  0  0
  -23.9712   -5.8764   21.2836 F   0  0  0  0  0  0  0  0  0  0  0  0
  1  2  1  0  0  0  0
  1  5  2  0  0  0  0
  2  6  2  0  0  0  0
  3  8  2  0  0  0  0
  3 17  1  0  0  0  0
  4  9  1  0  0  0  0
  4 17  2  0  0  0  0
  5 20  1  0  0  0  0
  6 22  1  0  0  0  0
  7 10  2  0  0  0  0
  7 21  1  0  0  0  0
  8 26  1  0  0  0  0
  9 26  2  0  0  0  0
 10 27  1  0  0  0  0
 11 12  2  0  0  0  0
 11 28  1  0  0  0  0
 12 29  1  0  0  0  0
 13 18  1  0  0  0  0
 13 30  2  0  0  0  0
 14 23  1  0  0  0  0
 14 27  2  0  0  0  0
 15 25  2  0  0  0  0
 15 30  1  0  0  0  0
 16 29  2  0  0  0  0
 16 31  1  0  0  0  0
 17 32  1  0  0  0  0
 18 24  2  0  0  0  0
 18 35  1  0  0  0  0
 19 32  1  0  0  0  0
 19 33  2  0  0  0  0
 19 36  1  0  0  0  0
 20 22  2  0  0  0  0
 20 41  1  0  0  0  0
 21 23  2  0  0  0  0
 21 42  1  0  0  0  0
 22 50  1  0  0  0  0
 23 43  1  0  0  0  0
 24 25  1  0  0  0  0
 24 59  1  0  0  0  0
 25 65  1  0  0  0  0
 26 81  1  0  0  0  0
 27 82  1  0  0  0  0
 28 31  2  0  0  0  0
 28 81  1  0  0  0  0
 29 83  1  0  0  0  0
 30 84  1  0  0  0  0
 31 85  1  0  0  0  0
 32 64  2  0  0  0  0
 33 66  1  0  0  0  0
 33 69  1  0  0  0  0
 34 60  1  0  0  0  0
 34 65  2  0  0  0  0
 35 71  1  0  0  0  0
 35 75  2  0  0  0  0
 36 70  1  0  0  0  0
 36 76  2  0  0  0  0
 37 51  1  0  0  0  0
 37 72  1  0  0  0  0
 37 77  2  0  0  0  0
 38 61  1  0  0  0  0
 38 67  1  0  0  0  0
 38 78  2  0  0  0  0
 39 62  1  0  0  0  0
 39 73  1  0  0  0  0
 39 79  2  0  0  0  0
 40 68  1  0  0  0  0
 40 71  1  0  0  0  0
 40 80  2  0  0  0  0
 41 44  1  0  0  0  0
 42 51  1  0  0  0  0
 43 67  1  0  0  0  0
 44 46  1  0  0  0  0
 45 47  1  0  0  0  0
 45 48  1  0  0  0  0
 46 50  1  0  0  0  0
 47 52  1  0  0  0  0
 48 68  1  0  0  0  0
 49 52  1  0  0  0  0
 49 68  1  0  0  0  0
 50 72  1  0  0  0  0
 51 67  1  0  0  0  0
 52 66  1  0  0  0  0
 53 59  1  0  0  0  0
 54 62  1  0  0  0  0
 55 63  1  0  0  0  0
 56 63  1  0  0  0  0
 57 63  1  0  0  0  0
 58 74  1  0  0  0  0
 60 82  1  0  0  0  0
 61 63  1  0  0  0  0
 61 73  1  0  0  0  0
 62 74  1  0  0  0  0
 64 66  1  0  0  0  0
M  CHG  1  74   1
M  ISO  4  40 100  60 101  71 100  82 101
M  END
> <Batch ID>
0115

> <Smiles>
CCc1c(NC=[101CH:1][101O:1]c2ccc3c(c2)CN(C(=O)C(NC(=O)C(C)NC)C(C)(C)C)C(C(=O)NC2CCCc4ccccc42)C3)cc(F)cc1C(=O)[100NH:0][100C:0](=O)N1CCCC(n2nc(-c3ccc(Oc4ccc(F)cc4F)cc3)c(C(N)=O)c2N)C1

> <Shape>
0.225

> <Color>
0.186

> <Negative vol penalty>
0.000

$$$$

  -OEChem-04052301403D

 82 90  0     1  0  0  0  0  0999 V2000
  -28.9777  -34.1063   25.5181 C   0  0  0  0  0  0  0  0  0  0  0  0
  -28.7699  -32.7553   25.2589 C   0  0  0  0  0  0  0  0  0  0  0  0
  -23.8535   -9.6685   19.8414 C   0  0  0  0  0  0  0  0  0  0  0  0
  -24.5326   -9.8390   22.1538 C   0  0  0  0  0  0  0  0  0  0  0  0
  -27.9197  -35.0073   25.4050 C   0  0  0  0  0  0  0  0  0  0  0  0
  -27.5038  -32.3045   24.8875 C   0  0  0  0  0  0  0  0  0  0  0  0
  -27.6590  -29.0619   21.0008 C   0  0  0  0  0  0  0  0  0  0  0  0
  -23.4442   -8.3529   20.0586 C   0  0  0  0  0  0  0  0  0  0  0  0
  -24.1232   -8.5234   22.3710 C   0  0  0  0  0  0  0  0  0  0  0  0
  -28.0361  -27.7494   21.2812 C   0  0  0  0  0  0  0  0  0  0  0  0
  -21.2190   -6.8719   22.8799 C   0  0  0  0  0  0  0  0  0  0  0  0
  -20.4756   -6.6076   24.0301 C   0  0  0  0  0  0  0  0  0  0  0  0
  -25.7171  -27.0853   21.2626 C   0  0  0  0  0  0  0  0  0  0  0  0
  -22.1786   -5.0648   24.7763 C   0  0  0  0  0  0  0  0  0  0  0  0
  -24.3977  -10.4116   20.8890 C   0  0  0  0  0  0  0  0  0  0  0  0
  -24.0459  -12.9369   20.8070 C   0  0  0  0  0  0  0  0  0  0  0  0
  -26.6422  -34.5687   25.0226 C   0  0  0  0  0  0  0  0  0  0  0  0
  -26.3050  -29.3987   20.8596 C   0  0  0  0  0  0  0  0  0  0  0  0
  -26.4274  -33.2003   24.7705 C   0  0  0  0  0  0  0  0  0  0  0  0
  -25.3255  -28.4024   20.9778 C   0  0  0  0  0  0  0  0  0  0  0  0
  -23.5790   -7.7803   21.3234 C   0  0  0  0  0  0  0  0  0  0  0  0
  -27.0650  -26.7614   21.4150 C   0  0  0  0  0  0  0  0  0  0  0  0
  -22.4422   -6.2326   22.6778 C   0  0  0  0  0  0  0  0  0  0  0  0
  -20.9554   -5.7041   24.9784 C   0  0  0  0  0  0  0  0  0  0  0  0
  -22.9220   -5.3291   23.6260 C   0  0  0  0  0  0  0  0  0  0  0  0
  -24.8213  -11.7705   20.6651 C   0  0  0  0  0  0  0  0  0  0  0  0
  -24.9021  -13.9601   20.4810 C   0  0  0  0  0  0  0  0  0  0  0  0
  -29.7957  -20.4128   22.4498 C   0  0  0  0  0  0  0  0  0  0  0  0
  -29.1093  -18.4762   22.0816 C   0  0  0  0  0  0  0  0  0  0  0  0
  -31.7228  -21.8134   21.8665 C   0  0  0  0  0  0  0  0  0  0  0  0
  -30.5413  -21.6108   22.4881 C   0  0  0  0  0  0  0  0  0  0  0  0
  -27.1169  -22.3687   23.1496 C   0  0  0  0  0  0  0  0  0  0  0  0
  -27.2757  -23.6967   23.2495 C   0  0  0  0  0  0  0  0  0  0  0  0
  -22.6743  -13.0824   21.1986 C   0  0  0  0  0  0  0  0  0  0  0  0
  -24.3017  -31.3290   22.3972 C   0  0  0  0  0  0  0  0  0  0  0  0
  -22.2784  -30.4979   20.0018 C   0  0  0  0  0  0  0  0  0  0  0  0
  -21.4052  -28.2347   17.6013 C   0  0  0  0  0  0  0  0  0  0  0  0
  -29.8760  -16.4411   20.8101 C   0  0  0  0  0  0  0  0  0  0  0  0
  -25.5186  -35.5729   24.9597 C   0  0  0  0  0  0  0  0  0  0  0  0
  -25.9162  -30.8140   20.5307 C   0  0  0  0  0  0  0  0  0  0  0  0
  -23.8597  -28.7082   20.8154 C   0  0  0  0  0  0  0  0  0  0  0  0
  -24.2952  -35.0710   24.1970 C   0  0  0  0  0  0  0  0  0  0  0  0
  -29.5090  -13.8591   18.3861 C   0  0  0  0  0  0  0  0  0  0  0  0
  -23.9334  -33.6568   24.6395 C   0  0  0  0  0  0  0  0  0  0  0  0
  -28.1929  -13.1815   18.7746 C   0  0  0  0  0  0  0  0  0  0  0  0
  -30.3013  -14.3050   19.6138 C   0  0  0  0  0  0  0  0  0  0  0  0
  -28.2395  -14.4619   20.9530 C   0  0  0  0  0  0  0  0  0  0  0  0
  -25.0742  -32.6765   24.3411 C   0  0  1  0  0  0  0  0  0  0  0  0
  -24.4775  -31.1435   20.9166 C   0  0  1  0  0  0  0  0  0  0  0  0
  -27.3761  -14.0535   19.7483 C   0  0  2  0  0  0  0  0  0  0  0  0
  -19.6827  -27.8119   15.8260 C   0  0  0  0  0  0  0  0  0  0  0  0
  -20.2656  -29.6944   22.1496 C   0  0  0  0  0  0  0  0  0  0  0  0
  -19.0031  -28.4309   20.3951 C   0  0  0  0  0  0  0  0  0  0  0  0
  -19.2788  -30.9020   20.1945 C   0  0  0  0  0  0  0  0  0  0  0  0
  -23.4449  -28.2431   15.4569 C   0  0  0  0  0  0  0  0  0  0  0  0
  -27.8793  -21.3736   23.9756 C   0  0  0  0  0  0  0  0  0  0  0  0
  -26.5083  -24.6871   22.4365 C   0  0  0  0  0  0  0  0  0  1  0  0
  -21.2686  -29.3960   19.7893 C   0  0  1  0  0  0  0  0  0  0  0  0
  -21.0470  -28.4079   16.1363 C   0  0  2  0  0  0  0  0  0  0  0  0
  -19.9814  -29.6001   20.6372 C   0  0  0  0  0  0  0  0  0  0  0  0
  -26.0737  -12.0277   20.2789 N   0  0  0  0  0  0  0  0  0  0  0  0
  -30.1212  -19.2610   21.7926 N   0  0  0  0  0  0  0  0  0  0  0  0
  -28.2271  -19.1406   22.8755 N   0  0  0  0  0  0  0  0  0  0  0  0
  -26.0919  -13.3675   20.1752 N   0  0  0  0  0  0  0  0  0  0  0  0
  -28.6460  -20.3901   23.1273 N   0  0  0  0  0  0  0  0  0  0  0  0
  -23.5294  -30.1079   20.5005 N   0  0  0  0  0  0  0  0  0  0  0  0
  -29.4650  -15.1303   20.4880 N   0  0  0  0  0  0  0  0  0  0  0  0
  -24.7459  -15.3000   20.4289 N   0  0  0  0  0  0  0  0  0  0  0  0
  -21.9391  -11.9276   21.4989 N   0  0  0  0  0  0  0  0  0  0  0  0
  -28.9845  -17.1418   21.6219 N   0  0  0  0  0  0  0  0  0  0  0  0
  -25.0878  -32.3296   22.9361 N   0  0  0  0  0  0  0  0  0  0  0  0
  -21.0327  -29.3303   18.3511 N   0  0  0  0  0  0  0  0  0  0  0  0
  -22.0600  -27.7379   15.2727 N   0  3  0  0  0  0  0  0  0  0  0  0
  -22.1126  -14.2021   21.2640 O   0  0  0  0  0  0  0  0  0  0  0  0
  -23.5102  -30.6182   23.0055 O   0  0  0  0  0  0  0  0  0  0  0  0
  -21.9710  -31.6608   19.7285 O   0  0  0  0  0  0  0  0  0  0  0  0
  -21.9566  -27.2267   18.0376 O   0  0  0  0  0  0  0  0  0  0  0  0
  -30.9273  -16.9172   20.3741 O   0  0  0  0  0  0  0  0  0  0  0  0
  -23.1795   -6.4966   21.5357 O   0  0  0  0  0  0  0  0  0  0  0  0
  -27.4304  -25.4796   21.6894 O   0  0  0  0  0  0  0  0  0  1  0  0
  -20.2421   -5.4515   26.0836 F   0  0  0  0  0  0  0  0  0  0  0  0
  -24.0970   -4.7127   23.4380 F   0  0  0  0  0  0  0  0  0  0  0  0
  1  2  1  0  0  0  0
  1  5  2  0  0  0  0
  2  6  2  0  0  0  0
  3  8  2  0  0  0  0
  3 15  1  0  0  0  0
  4  9  1  0  0  0  0
  4 15  2  0  0  0  0
  5 17  1  0  0  0  0
  6 19  1  0  0  0  0
  7 10  2  0  0  0  0
  7 18  1  0  0  0  0
  8 21  1  0  0  0  0
  9 21  2  0  0  0  0
 10 22  1  0  0  0  0
 11 12  2  0  0  0  0
 11 23  1  0  0  0  0
 12 24  1  0  0  0  0
 13 20  1  0  0  0  0
 13 22  2  0  0  0  0
 14 24  2  0  0  0  0
 14 25  1  0  0  0  0
 15 26  1  0  0  0  0
 16 26  1  0  0  0  0
 16 27  2  0  0  0  0
 16 34  1  0  0  0  0
 17 19  2  0  0  0  0
 17 39  1  0  0  0  0
 18 20  2  0  0  0  0
 18 40  1  0  0  0  0
 19 48  1  0  0  0  0
 20 41  1  0  0  0  0
 21 79  1  0  0  0  0
 22 80  1  0  0  0  0
 23 25  2  0  0  0  0
 23 79  1  0  0  0  0
 24 81  1  0  0  0  0
 25 82  1  0  0  0  0
 26 61  2  0  0  0  0
 27 64  1  0  0  0  0
 27 68  1  0  0  0  0
 28 31  1  0  0  0  0
 28 62  2  0  0  0  0
 28 65  1  0  0  0  0
 29 62  1  0  0  0  0
 29 63  2  0  0  0  0
 29 70  1  0  0  0  0
 30 31  2  0  0  0  0
 32 33  2  0  0  0  0
 32 56  1  0  0  0  0
 33 57  1  0  0  0  0
 34 69  1  0  0  0  0
 34 74  2  0  0  0  0
 35 49  1  0  0  0  0
 35 71  1  0  0  0  0
 35 75  2  0  0  0  0
 36 58  1  0  0  0  0
 36 66  1  0  0  0  0
 36 76  2  0  0  0  0
 37 59  1  0  0  0  0
 37 72  1  0  0  0  0
 37 77  2  0  0  0  0
 38 67  1  0  0  0  0
 38 70  1  0  0  0  0
 38 78  2  0  0  0  0
 39 42  1  0  0  0  0
 40 49  1  0  0  0  0
 41 66  1  0  0  0  0
 42 44  1  0  0  0  0
 43 45  1  0  0  0  0
 43 46  1  0  0  0  0
 44 48  1  0  0  0  0
 45 50  1  0  0  0  0
 46 67  1  0  0  0  0
 47 50  1  0  0  0  0
 47 67  1  0  0  0  0
 48 71  1  0  0  0  0
 49 66  1  0  0  0  0
 50 64  1  0  0  0  0
 51 59  1  0  0  0  0
 52 60  1  0  0  0  0
 53 60  1  0  0  0  0
 54 60  1  0  0  0  0
 55 73  1  0  0  0  0
 56 65  1  0  0  0  0
 57 80  1  0  0  0  0
 58 60  1  0  0  0  0
 58 72  1  0  0  0  0
 59 73  1  0  0  0  0
 61 64  1  0  0  0  0
 63 65  1  0  0  0  0
M  CHG  1  73   1
M  ISO  4  38 100  57 101  70 100  80 101
M  END
> <Batch ID>
0115

> <Smiles>
C=Cc1nc([100NH:0][100C:0](=O)N2CCCC(n3nc(-c4ccc(Oc5ccc(F)cc5F)cc4)c(C(N)=O)c3N)C2)nn1CC=C[101CH2:1][101O:1]c1ccc2c(c1)CN(C(=O)C(NC(=O)C(C)NC)C(C)(C)C)C(C(=O)NC1CCCc3ccccc31)C2

> <Shape>
0.308

> <Color>
0.133

> <Negative vol penalty>
0.000

$$$$

  -OEChem-04052301403D

 88 96  0     1  0  0  0  0  0999 V2000
  -28.7623  -35.6521   17.6342 C   0  0  0  0  0  0  0  0  0  0  0  0
  -29.3515  -34.3974   17.7517 C   0  0  0  0  0  0  0  0  0  0  0  0
  -22.9700  -10.1263   20.0472 C   0  0  0  0  0  0  0  0  0  0  0  0
  -24.2290   -9.4736   22.0032 C   0  0  0  0  0  0  0  0  0  0  0  0
  -27.6940  -35.9995   18.4601 C   0  0  0  0  0  0  0  0  0  0  0  0
  -28.8734  -33.4895   18.6960 C   0  0  0  0  0  0  0  0  0  0  0  0
  -28.6009  -27.3970   18.1370 C   0  0  0  0  0  0  0  0  0  0  0  0
  -22.2651   -8.9238   20.0996 C   0  0  0  0  0  0  0  0  0  0  0  0
  -23.5241   -8.2711   22.0557 C   0  0  0  0  0  0  0  0  0  0  0  0
  -29.4339  -26.3752   18.5909 C   0  0  0  0  0  0  0  0  0  0  0  0
  -20.4920   -7.2068   23.1017 C   0  0  0  0  0  0  0  0  0  0  0  0
  -20.0188   -6.7885   24.3453 C   0  0  0  0  0  0  0  0  0  0  0  0
  -28.0562  -17.9898   23.0078 C   0  0  0  0  0  0  0  0  0  0  0  0
  -29.7656  -17.4672   20.8659 C   0  0  0  0  0  0  0  0  0  0  0  0
  -28.0121  -26.0800   20.5171 C   0  0  0  0  0  0  0  0  0  0  0  0
  -21.3314   -4.7681   24.1652 C   0  0  0  0  0  0  0  0  0  0  0  0
  -23.9520  -10.4012   20.9989 C   0  0  0  0  0  0  0  0  0  0  0  0
  -28.7976  -16.8087   22.9794 C   0  0  0  0  0  0  0  0  0  0  0  0
  -29.6523  -16.5474   21.9085 C   0  0  0  0  0  0  0  0  0  0  0  0
  -24.3392  -12.8571   21.5702 C   0  0  0  0  0  0  0  0  0  0  0  0
  -27.1964  -35.0919   19.4084 C   0  0  0  0  0  0  0  0  0  0  0  0
  -27.4714  -27.7759   18.8766 C   0  0  0  0  0  0  0  0  0  0  0  0
  -27.7983  -33.8255   19.5363 C   0  0  0  0  0  0  0  0  0  0  0  0
  -27.1650  -27.1051   20.0692 C   0  0  0  0  0  0  0  0  0  0  0  0
  -22.5421   -7.9962   21.1039 C   0  0  0  0  0  0  0  0  0  0  0  0
  -29.1411  -25.7185   19.7826 C   0  0  0  0  0  0  0  0  0  0  0  0
  -21.3848   -6.4058   22.3897 C   0  0  0  0  0  0  0  0  0  0  0  0
  -29.0241  -18.6483   20.8944 C   0  0  0  0  0  0  0  0  0  0  0  0
  -28.1693  -18.9096   21.9653 C   0  0  0  0  0  0  0  0  0  0  0  0
  -20.4385   -5.5692   24.8771 C   0  0  0  0  0  0  0  0  0  0  0  0
  -21.8046   -5.1865   22.9215 C   0  0  0  0  0  0  0  0  0  0  0  0
  -24.6808  -11.6429   20.9449 C   0  0  0  0  0  0  0  0  0  0  0  0
  -25.3444  -13.7221   21.2128 C   0  0  0  0  0  0  0  0  0  0  0  0
  -28.9013  -16.1837   25.3487 C   0  0  0  0  0  0  0  0  0  0  0  0
  -28.6547  -15.8708   24.0858 C   0  0  0  0  0  0  0  0  0  0  0  0
  -30.7966  -22.5553   19.7432 C   0  0  0  0  0  0  0  0  0  0  0  0
  -30.2914  -21.4799   19.1214 C   0  0  0  0  0  0  0  0  0  0  0  0
  -30.4431  -15.3238   21.8404 C   0  0  0  0  0  0  0  0  0  0  0  0
  -23.2138  -13.1746   22.3999 C   0  0  0  0  0  0  0  0  0  0  0  0
  -30.8079  -14.7164   20.5400 C   0  0  0  0  0  0  0  0  0  0  0  0
  -26.5280  -30.4457   20.3210 C   0  0  0  0  0  0  0  0  0  0  0  0
  -23.7948  -28.7632   20.7912 C   0  0  0  0  0  0  0  0  0  0  0  0
  -22.2766  -25.7184   21.0587 C   0  0  0  0  0  0  0  0  0  0  0  0
  -26.0704  -35.5298   20.3112 C   0  0  0  0  0  0  0  0  0  0  0  0
  -26.5682  -28.8620   18.3598 C   0  0  0  0  0  0  0  0  0  0  0  0
  -25.9531  -27.4603   20.8900 C   0  0  0  0  0  0  0  0  0  0  0  0
  -25.3809  -34.3729   21.0299 C   0  0  0  0  0  0  0  0  0  0  0  0
  -29.0244  -13.2748   17.7837 C   0  0  0  0  0  0  0  0  0  0  0  0
  -26.4147  -33.4230   21.6265 C   0  0  0  0  0  0  0  0  0  0  0  0
  -27.7239  -12.7867   18.4211 C   0  0  0  0  0  0  0  0  0  0  0  0
  -30.2013  -13.1423   18.7448 C   0  0  0  0  0  0  0  0  0  0  0  0
  -28.6875  -13.3452   20.6982 C   0  0  0  0  0  0  0  0  0  0  0  0
  -27.2920  -32.8042   20.5316 C   0  0  1  0  0  0  0  0  0  0  0  0
  -25.7292  -29.5130   19.4551 C   0  0  1  0  0  0  0  0  0  0  0  0
  -27.4711  -13.4892   19.7670 C   0  0  2  0  0  0  0  0  0  0  0  0
  -27.4218  -22.3593   22.6692 C   0  0  0  0  0  0  0  0  0  0  0  0
  -20.0397  -24.6630   21.4824 C   0  0  0  0  0  0  0  0  0  0  0  0
  -24.0530  -29.4141   23.7610 C   0  0  0  0  0  0  0  0  0  0  0  0
  -22.3961  -27.5972   24.2319 C   0  0  0  0  0  0  0  0  0  0  0  0
  -21.7260  -29.5682   22.8577 C   0  0  0  0  0  0  0  0  0  0  0  0
  -22.2738  -24.3881   18.4150 C   0  0  0  0  0  0  0  0  0  0  0  0
  -30.6402  -23.9534   19.2411 C   0  0  0  0  0  0  0  0  0  1  0  0
  -30.4375  -20.0828   19.6294 C   0  0  0  0  0  0  0  0  0  0  0  0
  -27.6619  -20.9312   23.1104 C   0  0  0  0  0  0  0  0  0  0  0  0
  -23.2808  -27.8378   21.8675 C   0  0  1  0  0  0  0  0  0  0  0  0
  -21.0127  -25.1641   20.4265 C   0  0  2  0  0  0  0  0  0  0  0  0
  -22.8879  -28.5987   23.1653 C   0  0  0  0  0  0  0  0  0  0  0  0
  -25.8144  -11.7253   20.2434 N   0  0  0  0  0  0  0  0  0  0  0  0
  -30.8755  -14.6952   22.8973 N   0  0  0  0  0  0  0  0  0  0  0  0
  -26.1938  -13.0017   20.4256 N   0  0  0  0  0  0  0  0  0  0  0  0
  -29.9143  -13.7883   20.0240 N   0  0  0  0  0  0  0  0  0  0  0  0
  -25.1043  -28.5332   20.3460 N   0  0  0  0  0  0  0  0  0  0  0  0
  -25.5757  -15.0211   21.4982 N   0  0  0  0  0  0  0  0  0  0  0  0
  -22.2756  -12.1682   22.6671 N   0  0  0  0  0  0  0  0  0  0  0  0
  -26.5789  -31.7443   19.8515 N   0  0  0  0  0  0  0  0  0  0  0  0
  -22.1895  -27.0788   21.2664 N   0  0  0  0  0  0  0  0  0  0  0  0
  -21.3428  -24.0312   19.5162 N   0  3  0  0  0  0  0  0  0  0  0  0
  -23.0366  -14.3213   22.8765 O   0  0  0  0  0  0  0  0  0  0  0  0
  -31.8652  -15.1000   20.0569 O   0  0  0  0  0  0  0  0  0  0  0  0
  -27.0576  -30.0190   21.3404 O   0  0  0  0  0  0  0  0  0  0  0  0
  -23.0590  -29.6526   20.3563 O   0  0  0  0  0  0  0  0  0  0  0  0
  -23.2430  -25.0144   21.3435 O   0  0  0  0  0  0  0  0  0  0  0  0
  -21.8543   -6.8228   21.1555 O   0  0  0  0  0  0  0  0  0  0  0  0
  -29.9528  -24.7213   20.2282 O   0  0  0  0  0  0  0  0  0  1  0  0
  -29.1439  -19.5444   19.8639 O   0  0  0  0  0  0  0  0  0  0  0  0
  -27.4396  -20.0596   22.0037 O   0  0  0  0  0  0  0  0  0  0  0  0
  -19.9852   -5.1683   26.0721 F   0  0  0  0  0  0  0  0  0  0  0  0
  -22.6631   -4.4132   22.2427 F   0  0  0  0  0  0  0  0  0  0  0  0
  1  2  1  0  0  0  0
  1  5  2  0  0  0  0
  2  6  2  0  0  0  0
  3  8  2  0  0  0  0
  3 17  1  0  0  0  0
  4  9  1  0  0  0  0
  4 17  2  0  0  0  0
  5 21  1  0  0  0  0
  6 23  1  0  0  0  0
  7 10  2  0  0  0  0
  7 22  1  0  0  0  0
  8 25  1  0  0  0  0
  9 25  2  0  0  0  0
 10 26  1  0  0  0  0
 11 12  2  0  0  0  0
 11 27  1  0  0  0  0
 12 30  1  0  0  0  0
 13 18  1  0  0  0  0
 13 29  2  0  0  0  0
 14 19  1  0  0  0  0
 14 28  2  0  0  0  0
 15 24  1  0  0  0  0
 15 26  2  0  0  0  0
 16 30  2  0  0  0  0
 16 31  1  0  0  0  0
 17 32  1  0  0  0  0
 18 19  2  0  0  0  0
 18 35  1  0  0  0  0
 19 38  1  0  0  0  0
 20 32  1  0  0  0  0
 20 33  2  0  0  0  0
 20 39  1  0  0  0  0
 21 23  2  0  0  0  0
 21 44  1  0  0  0  0
 22 24  2  0  0  0  0
 22 45  1  0  0  0  0
 23 53  1  0  0  0  0
 24 46  1  0  0  0  0
 25 83  1  0  0  0  0
 26 84  1  0  0  0  0
 27 31  2  0  0  0  0
 27 83  1  0  0  0  0
 28 29  1  0  0  0  0
 28 85  1  0  0  0  0
 29 86  1  0  0  0  0
 30 87  1  0  0  0  0
 31 88  1  0  0  0  0
 32 68  2  0  0  0  0
 33 70  1  0  0  0  0
 33 73  1  0  0  0  0
 34 35  2  0  0  0  0
 36 37  2  0  0  0  0
 36 62  1  0  0  0  0
 37 63  1  0  0  0  0
 38 40  1  0  0  0  0
 38 69  2  0  0  0  0
 39 74  1  0  0  0  0
 39 78  2  0  0  0  0
 40 71  1  0  0  0  0
 40 79  2  0  0  0  0
 41 54  1  0  0  0  0
 41 75  1  0  0  0  0
 41 80  2  0  0  0  0
 42 65  1  0  0  0  0
 42 72  1  0  0  0  0
 42 81  2  0  0  0  0
 43 66  1  0  0  0  0
 43 76  1  0  0  0  0
 43 82  2  0  0  0  0
 44 47  1  0  0  0  0
 45 54  1  0  0  0  0
 46 72  1  0  0  0  0
 47 49  1  0  0  0  0
 48 50  1  0  0  0  0
 48 51  1  0  0  0  0
 49 53  1  0  0  0  0
 50 55  1  0  0  0  0
 51 71  1  0  0  0  0
 52 55  1  0  0  0  0
 52 71  1  0  0  0  0
 53 75  1  0  0  0  0
 54 72  1  0  0  0  0
 55 70  1  0  0  0  0
 56 64  1  0  0  0  0
 57 66  1  0  0  0  0
 58 67  1  0  0  0  0
 59 67  1  0  0  0  0
 60 67  1  0  0  0  0
 61 77  1  0  0  0  0
 62 84  1  0  0  0  0
 63 85  1  0  0  0  0
 64 86  1  0  0  0  0
 65 67  1  0  0  0  0
 65 76  1  0  0  0  0
 66 77  1  0  0  0  0
 68 70  1  0  0  0  0
M  CHG  1  77   1
M  ISO  4  38 100  40 100  62 101  84 101
M  END
> <Batch ID>
0115

> <Smiles>
C=Cc1cc(OCC)c(OCC=C[101CH2:1][101O:1]c2ccc3c(c2)CN(C(=O)C(NC(=O)C(C)NC)C(C)(C)C)C(C(=O)NC2CCCc4ccccc42)C3)cc1[100C:0](=N)[100C:0](=O)N1CCCC(n2nc(-c3ccc(Oc4ccc(F)cc4F)cc3)c(C(N)=O)c2N)C1

> <Shape>
0.325

> <Color>
0.156

> <Negative vol penalty>
0.000

$$$$

  -OEChem-04052301403D

 86 94  0     1  0  0  0  0  0999 V2000
  -28.8978  -36.3776   25.0690 C   0  0  0  0  0  0  0  0  0  0  0  0
  -28.8770  -34.9871   25.0287 C   0  0  0  0  0  0  0  0  0  0  0  0
  -24.4422   -8.9354   21.3937 C   0  0  0  0  0  0  0  0  0  0  0  0
  -24.3079  -10.5171   23.2150 C   0  0  0  0  0  0  0  0  0  0  0  0
  -27.7068  -37.0948   24.9643 C   0  0  0  0  0  0  0  0  0  0  0  0
  -27.6648  -34.3130   24.8847 C   0  0  0  0  0  0  0  0  0  0  0  0
  -27.9215  -30.5557   21.4993 C   0  0  0  0  0  0  0  0  0  0  0  0
  -24.1018   -7.9018   22.2662 C   0  0  0  0  0  0  0  0  0  0  0  0
  -23.9675   -9.4835   24.0876 C   0  0  0  0  0  0  0  0  0  0  0  0
  -28.5248  -29.3680   21.9107 C   0  0  0  0  0  0  0  0  0  0  0  0
  -21.2982   -6.6838   23.7116 C   0  0  0  0  0  0  0  0  0  0  0  0
  -20.3414   -5.7633   23.2840 C   0  0  0  0  0  0  0  0  0  0  0  0
  -26.3476  -28.3950   22.2744 C   0  0  0  0  0  0  0  0  0  0  0  0
  -21.9552   -3.9798   23.5129 C   0  0  0  0  0  0  0  0  0  0  0  0
  -24.5453  -10.2431   21.8681 C   0  0  0  0  0  0  0  0  0  0  0  0
  -26.8985  -19.3505   18.9660 C   0  0  0  0  0  0  0  0  0  0  0  0
  -24.0190  -12.1090   20.2101 C   0  0  0  0  0  0  0  0  0  0  0  0
  -26.4805  -36.4294   24.8093 C   0  0  0  0  0  0  0  0  0  0  0  0
  -26.5245  -30.6757   21.4827 C   0  0  0  0  0  0  0  0  0  0  0  0
  -26.4561  -35.0220   24.7792 C   0  0  0  0  0  0  0  0  0  0  0  0
  -25.7290  -29.5844   21.8599 C   0  0  0  0  0  0  0  0  0  0  0  0
  -26.8442  -20.7230   19.1819 C   0  0  0  0  0  0  0  0  0  0  0  0
  -27.9212  -18.6022   19.5382 C   0  0  0  0  0  0  0  0  0  0  0  0
  -23.8644   -8.1758   23.6131 C   0  0  0  0  0  0  0  0  0  0  0  0
  -27.7380  -28.2884   22.3011 C   0  0  0  0  0  0  0  0  0  0  0  0
  -22.5834   -6.2524   24.0397 C   0  0  0  0  0  0  0  0  0  0  0  0
  -20.6699   -4.4113   23.1847 C   0  0  0  0  0  0  0  0  0  0  0  0
  -22.9119   -4.9004   23.9404 C   0  0  0  0  0  0  0  0  0  0  0  0
  -24.8975  -11.3112   20.9674 C   0  0  0  0  0  0  0  0  0  0  0  0
  -27.8288  -21.2947   19.9716 C   0  0  0  0  0  0  0  0  0  0  0  0
  -28.8577  -19.2689   20.3118 C   0  0  0  0  0  0  0  0  0  0  0  0
  -24.8412  -12.9695   19.5245 C   0  0  0  0  0  0  0  0  0  0  0  0
  -24.7392  -18.2410   18.6174 C   0  0  0  0  0  0  0  0  0  0  0  0
  -25.8835  -18.7015   18.1402 C   0  0  0  0  0  0  0  0  0  0  0  0
  -22.5877  -12.0753   20.1332 C   0  0  0  0  0  0  0  0  0  0  0  0
  -24.4143  -32.5269   22.9741 C   0  0  0  0  0  0  0  0  0  0  0  0
  -22.3094  -31.0597   20.9894 C   0  0  0  0  0  0  0  0  0  0  0  0
  -21.5562  -28.3503   19.0558 C   0  0  0  0  0  0  0  0  0  0  0  0
  -29.1936  -16.4372   19.3385 C   0  0  0  0  0  0  0  0  0  0  0  0
  -25.2141  -37.2462   24.7478 C   0  0  0  0  0  0  0  0  0  0  0  0
  -25.8887  -31.9546   21.0108 C   0  0  0  0  0  0  0  0  0  0  0  0
  -24.2247  -29.6553   21.8407 C   0  0  0  0  0  0  0  0  0  0  0  0
  -24.0117  -36.4670   24.2212 C   0  0  0  0  0  0  0  0  0  0  0  0
  -29.8702  -12.9633   18.9489 C   0  0  0  0  0  0  0  0  0  0  0  0
  -23.9214  -35.1031   24.8983 C   0  0  0  0  0  0  0  0  0  0  0  0
  -28.5645  -12.2895   19.3770 C   0  0  0  0  0  0  0  0  0  0  0  0
  -30.1738  -14.1995   19.7935 C   0  0  0  0  0  0  0  0  0  0  0  0
  -27.7816  -14.5109   20.2931 C   0  0  0  0  0  0  0  0  0  0  0  0
  -25.1638  -34.2554   24.5993 C   0  0  1  0  0  0  0  0  0  0  0  0
  -24.4637  -32.1382   21.5235 C   0  0  1  0  0  0  0  0  0  0  0  0
  -27.4003  -13.2982   19.4286 C   0  0  2  0  0  0  0  0  0  0  0  0
  -25.7664  -21.5704   18.5899 C   0  0  0  0  0  0  0  0  0  0  0  0
  -19.7471  -27.4210   17.5858 C   0  0  0  0  0  0  0  0  0  0  0  0
  -20.6774  -30.3314   23.4625 C   0  0  0  0  0  0  0  0  0  0  0  0
  -19.4529  -28.6469   22.0728 C   0  0  0  0  0  0  0  0  0  0  0  0
  -19.3193  -31.0703   21.4968 C   0  0  0  0  0  0  0  0  0  0  0  0
  -23.3385  -28.3052   16.6935 C   0  0  0  0  0  0  0  0  0  0  0  0
  -29.7463  -25.2945   22.0363 C   0  0  0  0  0  0  0  0  0  0  0  0
  -28.6698  -24.6707   21.1549 C   0  0  0  0  0  0  0  0  0  0  0  0
  -29.5900  -26.8065   22.1286 C   0  0  0  0  0  0  0  0  0  1  0  0
  -28.8507  -23.1647   21.0273 C   0  0  0  0  0  0  0  0  0  0  0  0
  -21.4666  -29.8092   21.0603 C   0  0  1  0  0  0  0  0  0  0  0  0
  -21.0268  -28.2411   17.6373 C   0  0  2  0  0  0  0  0  0  0  0  0
  -20.2574  -29.9634   22.0254 C   0  0  0  0  0  0  0  0  0  0  0  0
  -26.1796  -11.6359   20.7806 N   0  0  0  0  0  0  0  0  0  0  0  0
  -28.8377  -20.6006   20.5442 N   0  0  0  0  0  0  0  0  0  0  0  0
  -26.1127  -12.6471   19.8981 N   0  0  0  0  0  0  0  0  0  0  0  0
  -23.6503  -30.9293   21.3775 N   0  0  0  0  0  0  0  0  0  0  0  0
  -29.0280  -15.1116   19.7925 N   0  0  0  0  0  0  0  0  0  0  0  0
  -24.5934  -13.9628   18.6446 N   0  0  0  0  0  0  0  0  0  0  0  0
  -21.8993  -11.1284   20.9038 N   0  0  0  0  0  0  0  0  0  0  0  0
  -28.0273  -17.2015   19.3527 N   0  0  0  0  0  0  0  0  0  0  0  0
  -25.0867  -33.6984   23.2658 N   0  0  0  0  0  0  0  0  0  0  0  0
  -21.0971  -29.4875   19.6861 N   0  0  0  0  0  0  0  0  0  0  0  0
  -22.0374  -27.5909   16.7559 N   0  3  0  0  0  0  0  0  0  0  0  0
  -21.9393  -12.8508   19.3903 O   0  0  0  0  0  0  0  0  0  0  0  0
  -23.8097  -31.8174   23.7695 O   0  0  0  0  0  0  0  0  0  0  0  0
  -21.7985  -32.1118   20.5972 O   0  0  0  0  0  0  0  0  0  0  0  0
  -22.2995  -27.5090   19.5561 O   0  0  0  0  0  0  0  0  0  0  0  0
  -30.2835  -16.8549   18.9390 O   0  0  0  0  0  0  0  0  0  0  0  0
  -23.5319   -7.1675   24.4648 O   0  0  0  0  0  0  0  0  0  0  0  0
  -28.3243  -27.1283   22.7038 O   0  0  0  0  0  0  0  0  0  1  0  0
  -27.8117  -22.6446   20.2094 O   0  0  0  0  0  0  0  0  0  0  0  0
  -19.7506   -3.5271   22.7756 F   0  0  0  0  0  0  0  0  0  0  0  0
  -24.1447   -4.4798   24.2554 F   0  0  0  0  0  0  0  0  0  0  0  0
  -29.8562  -18.5693   20.8758 F   0  0  0  0  0  0  0  0  0  0  0  0
  1  2  1  0  0  0  0
  1  5  2  0  0  0  0
  2  6  2  0  0  0  0
  3  8  2  0  0  0  0
  3 15  1  0  0  0  0
  4  9  1  0  0  0  0
  4 15  2  0  0  0  0
  5 18  1  0  0  0  0
  6 20  1  0  0  0  0
  7 10  2  0  0  0  0
  7 19  1  0  0  0  0
  8 24  1  0  0  0  0
  9 24  2  0  0  0  0
 10 25  1  0  0  0  0
 11 12  2  0  0  0  0
 11 26  1  0  0  0  0
 12 27  1  0  0  0  0
 13 21  1  0  0  0  0
 13 25  2  0  0  0  0
 14 27  2  0  0  0  0
 14 28  1  0  0  0  0
 15 29  1  0  0  0  0
 16 22  1  0  0  0  0
 16 23  2  0  0  0  0
 16 34  1  0  0  0  0
 17 29  1  0  0  0  0
 17 32  2  0  0  0  0
 17 35  1  0  0  0  0
 18 20  2  0  0  0  0
 18 40  1  0  0  0  0
 19 21  2  0  0  0  0
 19 41  1  0  0  0  0
 20 49  1  0  0  0  0
 21 42  1  0  0  0  0
 22 30  2  0  0  0  0
 22 52  1  0  0  0  0
 23 31  1  0  0  0  0
 23 72  1  0  0  0  0
 24 81  1  0  0  0  0
 25 82  1  0  0  0  0
 26 28  2  0  0  0  0
 26 81  1  0  0  0  0
 27 84  1  0  0  0  0
 28 85  1  0  0  0  0
 29 65  2  0  0  0  0
 30 66  1  0  0  0  0
 30 83  1  0  0  0  0
 31 66  2  0  0  0  0
 31 86  1  0  0  0  0
 32 67  1  0  0  0  0
 32 70  1  0  0  0  0
 33 34  2  0  0  0  0
 35 71  1  0  0  0  0
 35 76  2  0  0  0  0
 36 50  1  0  0  0  0
 36 73  1  0  0  0  0
 36 77  2  0  0  0  0
 37 62  1  0  0  0  0
 37 68  1  0  0  0  0
 37 78  2  0  0  0  0
 38 63  1  0  0  0  0
 38 74  1  0  0  0  0
 38 79  2  0  0  0  0
 39 69  1  0  0  0  0
 39 72  1  0  0  0  0
 39 80  2  0  0  0  0
 40 43  1  0  0  0  0
 41 50  1  0  0  0  0
 42 68  1  0  0  0  0
 43 45  1  0  0  0  0
 44 46  1  0  0  0  0
 44 47  1  0  0  0  0
 45 49  1  0  0  0  0
 46 51  1  0  0  0  0
 47 69  1  0  0  0  0
 48 51  1  0  0  0  0
 48 69  1  0  0  0  0
 49 73  1  0  0  0  0
 50 68  1  0  0  0  0
 51 67  1  0  0  0  0
 53 63  1  0  0  0  0
 54 64  1  0  0  0  0
 55 64  1  0  0  0  0
 56 64  1  0  0  0  0
 57 75  1  0  0  0  0
 58 59  1  0  0  0  0
 58 60  1  0  0  0  0
 59 61  1  0  0  0  0
 60 82  1  0  0  0  0
 61 83  1  0  0  0  0
 62 64  1  0  0  0  0
 62 74  1  0  0  0  0
 63 75  1  0  0  0  0
 65 67  1  0  0  0  0
M  CHG  1  75   1
M  ISO  4  39 100  60 101  72 100  82 101
M  END
> <Batch ID>
0115

> <Smiles>
C=Cc1c(C)c(OCCC[101CH2:1][101O:1]c2ccc3c(c2)CN(C(=O)C(NC(=O)C(C)NC)C(C)(C)C)C(C(=O)NC2CCCc4ccccc42)C3)nc(F)c1[100NH:0][100C:0](=O)N1CCCC(n2nc(-c3ccc(Oc4ccc(F)cc4F)cc3)c(C(N)=O)c2N)C1

> <Shape>
0.323

> <Color>
0.102

> <Negative vol penalty>
0.000

$$$$

  -OEChem-04052301403D

 85 94  0     1  0  0  0  0  0999 V2000
  -23.2479  -35.2906   15.5799 C   0  0  0  0  0  0  0  0  0  0  0  0
  -23.5504  -33.9329   15.6056 C   0  0  0  0  0  0  0  0  0  0  0  0
  -24.5054   -8.5087   20.6061 C   0  0  0  0  0  0  0  0  0  0  0  0
  -23.0704  -10.4131   20.9945 C   0  0  0  0  0  0  0  0  0  0  0  0
  -23.6632  -36.1160   16.6240 C   0  0  0  0  0  0  0  0  0  0  0  0
  -24.2695  -33.4001   16.6749 C   0  0  0  0  0  0  0  0  0  0  0  0
  -23.6101  -27.8357   19.1465 C   0  0  0  0  0  0  0  0  0  0  0  0
  -23.4589   -7.6510   20.9447 C   0  0  0  0  0  0  0  0  0  0  0  0
  -22.0238   -9.5554   21.3332 C   0  0  0  0  0  0  0  0  0  0  0  0
  -24.3134  -26.6441   18.9757 C   0  0  0  0  0  0  0  0  0  0  0  0
  -21.9757   -6.5245   23.7653 C   0  0  0  0  0  0  0  0  0  0  0  0
  -22.2623   -5.4590   24.6186 C   0  0  0  0  0  0  0  0  0  0  0  0
  -25.6388  -27.1539   20.9257 C   0  0  0  0  0  0  0  0  0  0  0  0
  -28.4896  -18.3466   19.4111 C   0  0  0  0  0  0  0  0  0  0  0  0
  -29.5239  -18.8527   21.5350 C   0  0  0  0  0  0  0  0  0  0  0  0
  -21.5576   -3.9019   22.9109 C   0  0  0  0  0  0  0  0  0  0  0  0
  -24.3112   -9.8898   20.6310 C   0  0  0  0  0  0  0  0  0  0  0  0
  -25.7044  -11.2730   19.0022 C   0  0  0  0  0  0  0  0  0  0  0  0
  -24.3794  -35.5913   17.7113 C   0  0  0  0  0  0  0  0  0  0  0  0
  -23.9237  -28.7020   20.2037 C   0  0  0  0  0  0  0  0  0  0  0  0
  -24.6960  -34.2195   17.7338 C   0  0  0  0  0  0  0  0  0  0  0  0
  -24.9363  -28.3546   21.1093 C   0  0  0  0  0  0  0  0  0  0  0  0
  -28.9512  -20.6402   20.0139 C   0  0  0  0  0  0  0  0  0  0  0  0
  -29.0253  -17.9195   20.6261 C   0  0  0  0  0  0  0  0  0  0  0  0
  -22.2181   -8.1743   21.3083 C   0  0  0  0  0  0  0  0  0  0  0  0
  -25.3299  -26.3044   19.8636 C   0  0  0  0  0  0  0  0  0  0  0  0
  -21.4799   -6.2787   22.4848 C   0  0  0  0  0  0  0  0  0  0  0  0
  -22.0533   -4.1477   24.1914 C   0  0  0  0  0  0  0  0  0  0  0  0
  -28.4526  -19.7070   19.1050 C   0  0  0  0  0  0  0  0  0  0  0  0
  -29.4869  -20.2131   21.2289 C   0  0  0  0  0  0  0  0  0  0  0  0
  -21.2709   -4.9674   22.0576 C   0  0  0  0  0  0  0  0  0  0  0  0
  -25.3920  -10.7763   20.2818 C   0  0  0  0  0  0  0  0  0  0  0  0
  -26.8085  -12.0653   19.2016 C   0  0  0  0  0  0  0  0  0  0  0  0
  -28.1442  -24.1408   19.3311 C   0  0  0  0  0  0  0  0  0  0  0  0
  -27.3691  -25.2167   19.5040 C   0  0  0  0  0  0  0  0  0  1  0  0
  -25.0547  -11.0392   17.7457 C   0  0  0  0  0  0  0  0  0  0  0  0
  -24.9788  -31.6930   20.4151 C   0  0  0  0  0  0  0  0  0  0  0  0
  -24.4795  -31.2322   23.5870 C   0  0  0  0  0  0  0  0  0  0  0  0
  -24.1939  -29.0395   26.1865 C   0  0  0  0  0  0  0  0  0  0  0  0
  -29.5614  -15.9447   22.0955 C   0  0  0  0  0  0  0  0  0  0  0  0
  -24.8481  -36.5314   18.7935 C   0  0  0  0  0  0  0  0  0  0  0  0
  -23.1377  -29.9708   20.3899 C   0  0  0  0  0  0  0  0  0  0  0  0
  -25.2981  -29.2404   22.2724 C   0  0  0  0  0  0  0  0  0  0  0  0
  -29.6242  -24.1724   19.1149 C   0  0  0  0  0  0  0  0  0  0  0  0
  -27.6802  -22.7197   19.4429 C   0  0  0  0  0  0  0  0  0  0  0  0
  -25.2815  -35.8201   20.0727 C   0  0  0  0  0  0  0  0  0  0  0  0
  -29.8022  -12.5852   23.2500 C   0  0  0  0  0  0  0  0  0  0  0  0
  -26.1879  -34.6377   19.7451 C   0  0  0  0  0  0  0  0  0  0  0  0
  -28.7020  -11.8559   22.4754 C   0  0  0  0  0  0  0  0  0  0  0  0
  -30.0868  -22.8595   19.7405 C   0  0  0  0  0  0  0  0  0  0  0  0
  -29.3809  -14.0023   23.6348 C   0  0  0  0  0  0  0  0  0  0  0  0
  -27.8011  -14.1020   21.7471 C   0  0  0  0  0  0  0  0  0  0  0  0
  -25.4527  -33.5997   18.8885 C   0  0  1  0  0  0  0  0  0  0  0  0
  -23.8865  -31.0240   21.2007 C   0  0  1  0  0  0  0  0  0  0  0  0
  -28.2038  -12.6933   21.2812 C   0  0  2  0  0  0  0  0  0  0  0  0
  -23.8240  -28.9628   28.6673 C   0  0  0  0  0  0  0  0  0  0  0  0
  -27.3642  -32.1162   24.0420 C   0  0  0  0  0  0  0  0  0  0  0  0
  -27.2310  -31.1291   26.3390 C   0  0  0  0  0  0  0  0  0  0  0  0
  -25.7240  -33.0127   25.7035 C   0  0  0  0  0  0  0  0  0  0  0  0
  -21.6981  -27.4781   25.8830 C   0  0  0  0  0  0  0  0  0  0  0  0
  -25.3104  -30.7138   24.7359 C   0  0  1  0  0  0  0  0  0  0  0  0
  -23.1656  -28.9223   27.2971 C   0  0  2  0  0  0  0  0  0  0  0  0
  -26.4021  -31.7270   25.1821 C   0  0  0  0  0  0  0  0  0  0  0  0
  -26.2300  -11.2161   21.2244 N   0  0  0  0  0  0  0  0  0  0  0  0
  -27.0799  -11.9974   20.5364 N   0  0  0  0  0  0  0  0  0  0  0  0
  -28.9154  -21.9870   19.7100 N   0  0  3  0  0  0  0  0  0  0  0  0
  -24.5049  -30.4733   22.4084 N   0  0  0  0  0  0  0  0  0  0  0  0
  -28.9250  -14.7372   22.4529 N   0  0  0  0  0  0  0  0  0  0  0  0
  -27.5640  -12.8065   18.3635 N   0  0  0  0  0  0  0  0  0  0  0  0
  -23.9335  -10.1986   17.7195 N   0  0  0  0  0  0  0  0  0  0  0  0
  -29.0640  -16.5372   20.9353 N   0  0  0  0  0  0  0  0  0  0  0  0
  -24.5634  -32.8058   19.7091 N   0  0  0  0  0  0  0  0  0  0  0  0
  -24.3687  -30.3480   25.7883 N   0  0  0  0  0  0  0  0  0  0  0  0
  -22.4144  -27.6411   27.1743 N   0  3  0  0  0  0  0  0  0  0  0  0
  -25.4664  -11.5470   16.6751 O   0  0  0  0  0  0  0  0  0  0  0  0
  -26.1147  -31.2344   20.4484 O   0  0  0  0  0  0  0  0  0  0  0  0
  -23.8261  -32.2684   23.7325 O   0  0  0  0  0  0  0  0  0  0  0  0
  -24.7858  -28.0679   25.7214 O   0  0  0  0  0  0  0  0  0  0  0  0
  -30.4980  -16.4042   22.7540 O   0  0  0  0  0  0  0  0  0  0  0  0
  -21.1966   -7.3376   21.6386 O   0  0  0  0  0  0  0  0  0  0  0  0
  -26.0184  -25.1422   19.6988 O   0  0  0  0  0  0  0  0  0  1  0  0
  -22.3301   -3.1245   25.0104 F   0  0  0  0  0  0  0  0  0  0  0  0
  -27.9362  -20.1068   17.9342 F   0  0  0  0  0  0  0  0  0  0  0  0
  -29.9700  -21.1014   22.1091 F   0  0  0  0  0  0  0  0  0  0  0  0
  -20.7960   -4.7250   20.8282 F   0  0  0  0  0  0  0  0  0  0  0  0
  1  2  1  0  0  0  0
  1  5  2  0  0  0  0
  2  6  2  0  0  0  0
  3  8  2  0  0  0  0
  3 17  1  0  0  0  0
  4  9  1  0  0  0  0
  4 17  2  0  0  0  0
  5 19  1  0  0  0  0
  6 21  1  0  0  0  0
  7 10  2  0  0  0  0
  7 20  1  0  0  0  0
  8 25  1  0  0  0  0
  9 25  2  0  0  0  0
 10 26  1  0  0  0  0
 11 12  2  0  0  0  0
 11 27  1  0  0  0  0
 12 28  1  0  0  0  0
 13 22  1  0  0  0  0
 13 26  2  0  0  0  0
 14 24  1  0  0  0  0
 14 29  2  0  0  0  0
 15 24  2  0  0  0  0
 15 30  1  0  0  0  0
 16 28  2  0  0  0  0
 16 31  1  0  0  0  0
 17 32  1  0  0  0  0
 18 32  1  0  0  0  0
 18 33  2  0  0  0  0
 18 36  1  0  0  0  0
 19 21  2  0  0  0  0
 19 41  1  0  0  0  0
 20 22  2  0  0  0  0
 20 42  1  0  0  0  0
 21 53  1  0  0  0  0
 22 43  1  0  0  0  0
 23 29  1  0  0  0  0
 23 30  2  0  0  0  0
 23 66  1  0  0  0  0
 24 71  1  0  0  0  0
 25 80  1  0  0  0  0
 26 81  1  0  0  0  0
 27 31  2  0  0  0  0
 27 80  1  0  0  0  0
 28 82  1  0  0  0  0
 29 83  1  0  0  0  0
 30 84  1  0  0  0  0
 31 85  1  0  0  0  0
 32 64  2  0  0  0  0
 33 65  1  0  0  0  0
 33 69  1  0  0  0  0
 34 35  2  0  0  0  0
 34 44  1  0  0  0  0
 34 45  1  0  0  0  0
 35 81  1  0  0  0  0
 36 70  1  0  0  0  0
 36 75  2  0  0  0  0
 37 54  1  0  0  0  0
 37 72  1  0  0  0  0
 37 76  2  0  0  0  0
 38 61  1  0  0  0  0
 38 67  1  0  0  0  0
 38 77  2  0  0  0  0
 39 62  1  0  0  0  0
 39 73  1  0  0  0  0
 39 78  2  0  0  0  0
 40 68  1  0  0  0  0
 40 71  1  0  0  0  0
 40 79  2  0  0  0  0
 41 46  1  0  0  0  0
 42 54  1  0  0  0  0
 43 67  1  0  0  0  0
 44 50  1  0  0  0  0
 45 66  1  0  0  0  0
 46 48  1  0  0  0  0
 47 49  1  0  0  0  0
 47 51  1  0  0  0  0
 48 53  1  0  0  0  0
 49 55  1  0  0  0  0
 50 66  1  0  0  0  0
 51 68  1  0  0  0  0
 52 55  1  0  0  0  0
 52 68  1  0  0  0  0
 53 72  1  0  0  0  0
 54 67  1  0  0  0  0
 55 65  1  0  0  0  0
 56 62  1  0  0  0  0
 57 63  1  0  0  0  0
 58 63  1  0  0  0  0
 59 63  1  0  0  0  0
 60 74  1  0  0  0  0
 61 63  1  0  0  0  0
 61 73  1  0  0  0  0
 62 74  1  0  0  0  0
 64 65  1  0  0  0  0
M  CHG  1  74   1
M  ISO  4  35 101  40 100  71 100  81 101
M  END
> <Batch ID>
0115

> <Smiles>
CNC(C)C(=O)NC(C(=O)N1Cc2cc([101O:1][101CH:1]=C3CCN(c4c(F)cc([100NH:0][100C:0](=O)N5CCCC(n6nc(-c7ccc(Oc8ccc(F)cc8F)cc7)c(C(N)=O)c6N)C5)cc4F)C3)ccc2CC1C(=O)NC1CCCc2ccccc21)C(C)(C)C

> <Shape>
0.302

> <Color>
0.107

> <Negative vol penalty>
0.000

$$$$

  -OEChem-04052301403D

 86 94  0     1  0  0  0  0  0999 V2000
  -19.7648  -29.4282   28.1302 C   0  0  0  0  0  0  0  0  0  0  0  0
  -20.2617  -28.1524   27.8836 C   0  0  0  0  0  0  0  0  0  0  0  0
  -23.3721   -9.8130   19.8679 C   0  0  0  0  0  0  0  0  0  0  0  0
  -23.8153   -9.9222   22.2404 C   0  0  0  0  0  0  0  0  0  0  0  0
  -19.7502  -30.3786   27.1103 C   0  0  0  0  0  0  0  0  0  0  0  0
  -20.7435  -27.8260   26.6164 C   0  0  0  0  0  0  0  0  0  0  0  0
  -25.4090  -24.0824   25.3032 C   0  0  0  0  0  0  0  0  0  0  0  0
  -22.6947   -8.6074   20.0499 C   0  0  0  0  0  0  0  0  0  0  0  0
  -23.1379   -8.7165   22.4224 C   0  0  0  0  0  0  0  0  0  0  0  0
  -25.4570  -22.7458   24.9098 C   0  0  0  0  0  0  0  0  0  0  0  0
  -19.9311   -7.6677   22.6158 C   0  0  0  0  0  0  0  0  0  0  0  0
  -19.0298   -7.5863   23.6772 C   0  0  0  0  0  0  0  0  0  0  0  0
  -29.8383  -13.8205   24.9290 C   0  0  0  0  0  0  0  0  0  0  0  0
  -30.0798  -15.2788   23.0180 C   0  0  0  0  0  0  0  0  0  0  0  0
  -25.5995  -23.4362   22.6028 C   0  0  0  0  0  0  0  0  0  0  0  0
  -20.3103   -5.7701   24.6253 C   0  0  0  0  0  0  0  0  0  0  0  0
  -23.9325  -10.4704   20.9632 C   0  0  0  0  0  0  0  0  0  0  0  0
  -30.1922  -14.0132   23.5937 C   0  0  0  0  0  0  0  0  0  0  0  0
  -24.0872  -13.0126   20.8182 C   0  0  0  0  0  0  0  0  0  0  0  0
  -20.2410  -30.0667   25.8326 C   0  0  0  0  0  0  0  0  0  0  0  0
  -25.4450  -25.1076   24.3471 C   0  0  0  0  0  0  0  0  0  0  0  0
  -20.7343  -28.7728   25.5780 C   0  0  0  0  0  0  0  0  0  0  0  0
  -25.5544  -24.7851   22.9869 C   0  0  0  0  0  0  0  0  0  0  0  0
  -29.3717  -14.8933   25.6887 C   0  0  0  0  0  0  0  0  0  0  0  0
  -22.5776   -8.0591   21.3271 C   0  0  0  0  0  0  0  0  0  0  0  0
  -25.5493  -22.4224   23.5592 C   0  0  0  0  0  0  0  0  0  0  0  0
  -21.0220   -6.8002   22.5591 C   0  0  0  0  0  0  0  0  0  0  0  0
  -29.6132  -16.3516   23.7777 C   0  0  0  0  0  0  0  0  0  0  0  0
  -29.2592  -16.1588   25.1130 C   0  0  0  0  0  0  0  0  0  0  0  0
  -19.2194   -6.6376   24.6819 C   0  0  0  0  0  0  0  0  0  0  0  0
  -21.2116   -5.8515   23.5639 C   0  0  0  0  0  0  0  0  0  0  0  0
  -24.6328  -11.7156   20.7758 C   0  0  0  0  0  0  0  0  0  0  0  0
  -25.1556  -13.8425   20.5814 C   0  0  0  0  0  0  0  0  0  0  0  0
  -26.8295  -19.4216   22.0603 C   0  0  0  0  0  0  0  0  0  0  0  0
  -28.1308  -19.1025   22.0035 C   0  0  0  0  0  0  0  0  0  0  0  0
  -30.6784  -12.8946   22.8014 C   0  0  0  0  0  0  0  0  0  0  0  0
  -22.7354  -13.4299   21.0511 C   0  0  0  0  0  0  0  0  0  0  0  0
  -31.0625  -13.0650   21.3813 C   0  0  0  0  0  0  0  0  0  0  0  0
  -23.4597  -27.4315   23.4742 C   0  0  0  0  0  0  0  0  0  0  0  0
  -25.9538  -28.3288   21.6044 C   0  0  0  0  0  0  0  0  0  0  0  0
  -28.8134  -27.4413   19.9667 C   0  0  0  0  0  0  0  0  0  0  0  0
  -20.1610  -31.1127   24.7489 C   0  0  0  0  0  0  0  0  0  0  0  0
  -25.4193  -26.5449   24.7895 C   0  0  0  0  0  0  0  0  0  0  0  0
  -25.6168  -25.8488   21.9223 C   0  0  0  0  0  0  0  0  0  0  0  0
  -21.0355  -30.8021   23.5369 C   0  0  0  0  0  0  0  0  0  0  0  0
  -29.3775  -13.9867   18.3535 C   0  0  0  0  0  0  0  0  0  0  0  0
  -20.8575  -29.3490   23.1084 C   0  0  0  0  0  0  0  0  0  0  0  0
  -27.9261  -13.5903   18.6224 C   0  0  0  0  0  0  0  0  0  0  0  0
  -30.3525  -13.0234   19.0228 C   0  0  0  0  0  0  0  0  0  0  0  0
  -28.6803  -12.4725   20.7689 C   0  0  0  0  0  0  0  0  0  0  0  0
  -21.2885  -28.3883   24.2233 C   0  0  1  0  0  0  0  0  0  0  0  0
  -24.9441  -27.4980   23.6971 C   0  0  1  0  0  0  0  0  0  0  0  0
  -27.6659  -13.4382   20.1317 C   0  0  2  0  0  0  0  0  0  0  0  0
  -28.9975  -14.6676   27.1167 C   0  0  0  0  0  0  0  0  0  0  0  0
  -30.6123  -28.3833   18.4922 C   0  0  0  0  0  0  0  0  0  0  0  0
  -24.0313  -28.2855   19.2354 C   0  0  0  0  0  0  0  0  0  0  0  0
  -26.0183  -28.2889   17.7122 C   0  0  0  0  0  0  0  0  0  0  0  0
  -25.6249  -30.2128   19.2505 C   0  0  0  0  0  0  0  0  0  0  0  0
  -30.9237  -26.8171   21.9456 C   0  0  0  0  0  0  0  0  0  0  0  0
  -29.7782  -17.9762   26.5565 C   0  0  0  0  0  0  0  0  0  0  0  0
  -26.3143  -20.8212   21.9760 C   0  0  0  0  0  0  0  0  0  1  0  0
  -28.6456  -17.7021   22.0760 C   0  0  0  0  0  0  0  0  0  0  0  0
  -26.4091  -28.0055   20.2018 C   0  0  1  0  0  0  0  0  0  0  0  0
  -30.1887  -28.0825   19.9214 C   0  0  2  0  0  0  0  0  0  0  0  0
  -25.5178  -28.6778   19.1197 C   0  0  0  0  0  0  0  0  0  0  0  0
  -25.9459  -11.7164   20.5310 N   0  0  0  0  0  0  0  0  0  0  0  0
  -30.8106  -11.6850   23.2748 N   0  0  0  0  0  0  0  0  0  0  0  0
  -26.2342  -13.0241   20.4174 N   0  0  0  0  0  0  0  0  0  0  0  0
  -30.0551  -12.8744   20.4459 N   0  0  0  0  0  0  0  0  0  0  0  0
  -25.5820  -27.2393   22.4047 N   0  0  0  0  0  0  0  0  0  0  0  0
  -25.2683  -15.1853   20.4993 N   0  0  0  0  0  0  0  0  0  0  0  0
  -21.7623  -12.4469   21.2773 N   0  0  0  0  0  0  0  0  0  0  0  0
  -22.7314  -28.2898   24.2757 N   0  0  0  0  0  0  0  0  0  0  0  0
  -27.8174  -28.3802   20.1332 N   0  0  0  0  0  0  0  0  0  0  0  0
  -31.2028  -27.1768   20.5315 N   0  3  0  0  0  0  0  0  0  0  0  0
  -22.3973  -14.6378   21.0421 O   0  0  0  0  0  0  0  0  0  0  0  0
  -32.2347  -13.3571   21.1835 O   0  0  0  0  0  0  0  0  0  0  0  0
  -23.0086  -26.6597   22.6360 O   0  0  0  0  0  0  0  0  0  0  0  0
  -25.9359  -29.5041   21.9785 O   0  0  0  0  0  0  0  0  0  0  0  0
  -28.6398  -26.2292   19.8609 O   0  0  0  0  0  0  0  0  0  0  0  0
  -21.9164   -6.8828   21.5051 O   0  0  0  0  0  0  0  0  0  0  0  0
  -28.8037  -17.2106   25.8520 O   0  0  0  0  0  0  0  0  0  0  0  0
  -25.5956  -21.1186   23.1724 O   0  0  0  0  0  0  0  0  0  1  0  0
  -29.5078  -17.5901   23.1996 O   0  0  0  0  0  0  0  0  0  0  0  0
  -18.3546   -6.5606   25.7020 F   0  0  0  0  0  0  0  0  0  0  0  0
  -22.2584   -5.0162   23.5155 F   0  0  0  0  0  0  0  0  0  0  0  0
  1  2  1  0  0  0  0
  1  5  2  0  0  0  0
  2  6  2  0  0  0  0
  3  8  2  0  0  0  0
  3 17  1  0  0  0  0
  4  9  1  0  0  0  0
  4 17  2  0  0  0  0
  5 20  1  0  0  0  0
  6 22  1  0  0  0  0
  7 10  2  0  0  0  0
  7 21  1  0  0  0  0
  8 25  1  0  0  0  0
  9 25  2  0  0  0  0
 10 26  1  0  0  0  0
 11 12  2  0  0  0  0
 11 27  1  0  0  0  0
 12 30  1  0  0  0  0
 13 18  1  0  0  0  0
 13 24  2  0  0  0  0
 14 18  2  0  0  0  0
 14 28  1  0  0  0  0
 15 23  1  0  0  0  0
 15 26  2  0  0  0  0
 16 30  2  0  0  0  0
 16 31  1  0  0  0  0
 17 32  1  0  0  0  0
 18 36  1  0  0  0  0
 19 32  1  0  0  0  0
 19 33  2  0  0  0  0
 19 37  1  0  0  0  0
 20 22  2  0  0  0  0
 20 42  1  0  0  0  0
 21 23  2  0  0  0  0
 21 43  1  0  0  0  0
 22 51  1  0  0  0  0
 23 44  1  0  0  0  0
 24 29  1  0  0  0  0
 24 54  1  0  0  0  0
 25 81  1  0  0  0  0
 26 83  1  0  0  0  0
 27 31  2  0  0  0  0
 27 81  1  0  0  0  0
 28 29  2  0  0  0  0
 28 84  1  0  0  0  0
 29 82  1  0  0  0  0
 30 85  1  0  0  0  0
 31 86  1  0  0  0  0
 32 66  2  0  0  0  0
 33 68  1  0  0  0  0
 33 71  1  0  0  0  0
 34 35  2  0  0  0  0
 34 61  1  0  0  0  0
 35 62  1  0  0  0  0
 36 38  1  0  0  0  0
 36 67  2  0  0  0  0
 37 72  1  0  0  0  0
 37 76  2  0  0  0  0
 38 69  1  0  0  0  0
 38 77  2  0  0  0  0
 39 52  1  0  0  0  0
 39 73  1  0  0  0  0
 39 78  2  0  0  0  0
 40 63  1  0  0  0  0
 40 70  1  0  0  0  0
 40 79  2  0  0  0  0
 41 64  1  0  0  0  0
 41 74  1  0  0  0  0
 41 80  2  0  0  0  0
 42 45  1  0  0  0  0
 43 52  1  0  0  0  0
 44 70  1  0  0  0  0
 45 47  1  0  0  0  0
 46 48  1  0  0  0  0
 46 49  1  0  0  0  0
 47 51  1  0  0  0  0
 48 53  1  0  0  0  0
 49 69  1  0  0  0  0
 50 53  1  0  0  0  0
 50 69  1  0  0  0  0
 51 73  1  0  0  0  0
 52 70  1  0  0  0  0
 53 68  1  0  0  0  0
 55 64  1  0  0  0  0
 56 65  1  0  0  0  0
 57 65  1  0  0  0  0
 58 65  1  0  0  0  0
 59 75  1  0  0  0  0
 60 82  1  0  0  0  0
 61 83  1  0  0  0  0
 62 84  1  0  0  0  0
 63 65  1  0  0  0  0
 63 74  1  0  0  0  0
 64 75  1  0  0  0  0
 66 68  1  0  0  0  0
M  CHG  1  75   1
M  ISO  4  36 100  38 100  61 101  83 101
M  END
> <Batch ID>
0115

> <Smiles>
CNC(C)C(=O)NC(C(=O)N1Cc2cc([101O:1][101CH2:1]C=CCOc3cc([100C:0](=N)[100C:0](=O)N4CCCC(n5nc(-c6ccc(Oc7ccc(F)cc7F)cc6)c(C(N)=O)c5N)C4)cc(C)c3OC)ccc2CC1C(=O)NC1CCCc2ccccc21)C(C)(C)C

> <Shape>
0.240

> <Color>
0.182

> <Negative vol penalty>
0.000

$$$$

  -OEChem-04052301403D

 90 99  0     1  0  0  0  0  0999 V2000
  -17.7933  -24.7400   22.3901 C   0  0  0  0  0  0  0  0  0  0  0  0
  -19.0893  -24.6418   21.8940 C   0  0  0  0  0  0  0  0  0  0  0  0
  -23.4686  -10.5911   22.0020 C   0  0  0  0  0  0  0  0  0  0  0  0
  -24.6882   -8.8904   20.7948 C   0  0  0  0  0  0  0  0  0  0  0  0
  -17.2216  -25.9941   22.6002 C   0  0  0  0  0  0  0  0  0  0  0  0
  -19.8141  -25.7980   21.6067 C   0  0  0  0  0  0  0  0  0  0  0  0
  -24.5797  -25.5758   23.3052 C   0  0  0  0  0  0  0  0  0  0  0  0
  -22.3560   -9.7519   22.0603 C   0  0  0  0  0  0  0  0  0  0  0  0
  -23.5756   -8.0511   20.8531 C   0  0  0  0  0  0  0  0  0  0  0  0
  -25.4882  -24.8289   22.5567 C   0  0  0  0  0  0  0  0  0  0  0  0
  -21.3354   -7.0914   23.8806 C   0  0  0  0  0  0  0  0  0  0  0  0
  -20.6670   -6.9849   25.1002 C   0  0  0  0  0  0  0  0  0  0  0  0
  -26.3289  -26.8595   21.5621 C   0  0  0  0  0  0  0  0  0  0  0  0
  -32.0578  -20.6379   19.0176 C   0  0  0  0  0  0  0  0  0  0  0  0
  -29.6756  -20.2636   19.1671 C   0  0  0  0  0  0  0  0  0  0  0  0
  -18.6465   -7.8116   24.0652 C   0  0  0  0  0  0  0  0  0  0  0  0
  -24.6347  -10.1604   21.3691 C   0  0  0  0  0  0  0  0  0  0  0  0
  -26.8330  -11.1152   22.2429 C   0  0  0  0  0  0  0  0  0  0  0  0
  -17.9432  -27.1663   22.3244 C   0  0  0  0  0  0  0  0  0  0  0  0
  -24.5314  -26.9716   23.1795 C   0  0  0  0  0  0  0  0  0  0  0  0
  -19.2510  -27.0690   21.8120 C   0  0  0  0  0  0  0  0  0  0  0  0
  -25.4205  -27.6220   22.3121 C   0  0  0  0  0  0  0  0  0  0  0  0
  -31.1460  -18.4525   18.5386 C   0  0  0  0  0  0  0  0  0  0  0  0
  -32.2439  -19.3057   18.6485 C   0  0  0  0  0  0  0  0  0  0  0  0
  -30.7736  -21.1169   19.2769 C   0  0  0  0  0  0  0  0  0  0  0  0
  -29.8618  -18.9314   18.7979 C   0  0  0  0  0  0  0  0  0  0  0  0
  -22.4095   -8.4819   21.4859 C   0  0  0  0  0  0  0  0  0  0  0  0
  -26.3611  -25.4704   21.6828 C   0  0  0  0  0  0  0  0  0  0  0  0
  -20.6594   -7.5581   22.7532 C   0  0  0  0  0  0  0  0  0  0  0  0
  -19.3226   -7.3450   25.1925 C   0  0  0  0  0  0  0  0  0  0  0  0
  -19.3150   -7.9182   22.8455 C   0  0  0  0  0  0  0  0  0  0  0  0
  -25.7842  -11.0270   21.3080 C   0  0  0  0  0  0  0  0  0  0  0  0
  -27.6692  -12.0771   21.7311 C   0  0  0  0  0  0  0  0  0  0  0  0
  -29.5402  -24.3412   20.4552 C   0  0  0  0  0  0  0  0  0  0  0  0
  -36.1687  -17.3590   20.3740 C   0  0  0  0  0  0  0  0  0  0  0  0
  -28.5811  -24.9941   21.1212 C   0  0  0  0  0  0  0  0  0  1  0  0
  -35.5601  -17.8410   19.2880 C   0  0  0  0  0  0  0  0  0  0  0  0
  -34.1855  -18.3627   19.4083 C   0  0  0  0  0  0  0  0  0  0  0  0
  -27.0334  -10.3923   23.4648 C   0  0  0  0  0  0  0  0  0  0  0  0
  -22.3314  -29.0644   22.2392 C   0  0  0  0  0  0  0  0  0  0  0  0
  -24.5384  -31.2326   23.2140 C   0  0  0  0  0  0  0  0  0  0  0  0
  -27.8146  -31.9468   23.8491 C   0  0  0  0  0  0  0  0  0  0  0  0
  -28.5905  -16.9049   19.4822 C   0  0  0  0  0  0  0  0  0  0  0  0
  -17.2661  -28.4992   22.5230 C   0  0  0  0  0  0  0  0  0  0  0  0
  -23.5637  -27.7652   24.0139 C   0  0  0  0  0  0  0  0  0  0  0  0
  -25.4228  -29.1200   22.1557 C   0  0  0  0  0  0  0  0  0  0  0  0
  -31.0080  -24.5821   20.6100 C   0  0  0  0  0  0  0  0  0  0  0  0
  -18.2362  -29.6776   22.5469 C   0  0  0  0  0  0  0  0  0  0  0  0
  -27.7527  -14.3088   17.2015 C   0  0  0  0  0  0  0  0  0  0  0  0
  -19.2313  -29.5734   21.3954 C   0  0  0  0  0  0  0  0  0  0  0  0
  -27.2377  -13.2264   18.1496 C   0  0  0  0  0  0  0  0  0  0  0  0
  -31.6039  -23.1966   20.3815 C   0  0  0  0  0  0  0  0  0  0  0  0
  -27.3106  -15.7069   17.6347 C   0  0  0  0  0  0  0  0  0  0  0  0
  -27.1374  -14.9551   19.9861 C   0  0  0  0  0  0  0  0  0  0  0  0
  -20.0781  -28.3002   21.5117 C   0  0  1  0  0  0  0  0  0  0  0  0
  -29.3188  -23.1682   19.5349 C   0  0  1  0  0  0  0  0  0  0  0  0
  -23.2520  -29.1373   23.4245 C   0  0  1  0  0  0  0  0  0  0  0  0
  -27.6146  -13.5444   19.6074 C   0  0  1  0  0  0  0  0  0  0  0  0
  -31.3503  -17.0237   18.1412 C   0  0  0  0  0  0  0  0  0  0  0  0
  -29.0870  -23.6483   18.1031 C   0  0  0  0  0  0  0  0  0  0  0  0
  -29.3144  -33.8143   24.5978 C   0  0  0  0  0  0  0  0  0  0  0  0
  -24.3108  -32.5178   20.4560 C   0  0  0  0  0  0  0  0  0  0  0  0
  -26.4509  -33.7308   20.9214 C   0  0  0  0  0  0  0  0  0  0  0  0
  -24.4505  -34.1398   22.3544 C   0  0  0  0  0  0  0  0  0  0  0  0
  -27.5532  -18.5351   17.9196 C   0  0  0  0  0  0  0  0  0  0  0  0
  -28.7048  -30.4324   26.2309 C   0  0  0  0  0  0  0  0  0  0  0  0
  -25.6952  -31.9488   22.5598 C   0  0  1  0  0  0  0  0  0  0  0  0
  -28.4886  -32.6142   25.0343 C   0  0  2  0  0  0  0  0  0  0  0  0
  -25.2257  -33.0559   21.5742 C   0  0  0  0  0  0  0  0  0  0  0  0
  -25.9377  -11.8660   20.2802 N   0  0  0  0  0  0  0  0  0  0  0  0
  -33.5411  -18.8444   18.3918 N   0  0  0  0  0  0  0  0  0  0  0  0
  -27.0928  -12.4907   20.5662 N   0  0  0  0  0  0  0  0  0  0  0  0
  -30.5889  -22.4391   19.6440 N   0  0  3  0  0  0  0  0  0  0  0  0
  -24.4537  -29.8514   22.9885 N   0  0  0  0  0  0  0  0  0  0  0  0
  -27.6549  -15.9493   19.0428 N   0  0  0  0  0  0  0  0  0  0  0  0
  -28.8340  -12.6010   22.1683 N   0  0  0  0  0  0  0  0  0  0  0  0
  -26.0771   -9.4398   23.8421 N   0  0  0  0  0  0  0  0  0  0  0  0
  -21.1130  -28.4709   22.5088 N   0  0  0  0  0  0  0  0  0  0  0  0
  -26.5410  -32.4342   23.6448 N   0  0  0  0  0  0  0  0  0  0  0  0
  -28.7109  -18.0661   18.6888 N   0  0  0  0  0  0  0  0  0  0  0  0
  -29.3898  -31.6508   25.7277 N   0  3  0  0  0  0  0  0  0  0  0  0
  -28.0226  -10.5970   24.2085 O   0  0  0  0  0  0  0  0  0  0  0  0
  -22.6988  -29.5146   21.1603 O   0  0  0  0  0  0  0  0  0  0  0  0
  -23.7434  -31.8739   23.9057 O   0  0  0  0  0  0  0  0  0  0  0  0
  -28.3643  -31.0824   23.1700 O   0  0  0  0  0  0  0  0  0  0  0  0
  -29.2486  -16.7452   20.5172 O   0  0  0  0  0  0  0  0  0  0  0  0
  -21.3241   -7.6626   21.5429 O   0  0  0  0  0  0  0  0  0  0  0  0
  -27.2485  -24.7437   20.9505 O   0  0  0  0  0  0  0  0  0  1  0  0
  -18.6805   -7.2411   26.3634 F   0  0  0  0  0  0  0  0  0  0  0  0
  -18.6599   -8.3661   21.7657 F   0  0  0  0  0  0  0  0  0  0  0  0
  1  2  1  0  0  0  0
  1  5  2  0  0  0  0
  2  6  2  0  0  0  0
  3  8  2  0  0  0  0
  3 17  1  0  0  0  0
  4  9  1  0  0  0  0
  4 17  2  0  0  0  0
  5 19  1  0  0  0  0
  6 21  1  0  0  0  0
  7 10  2  0  0  0  0
  7 20  1  0  0  0  0
  8 27  1  0  0  0  0
  9 27  2  0  0  0  0
 10 28  1  0  0  0  0
 11 12  2  0  0  0  0
 11 29  1  0  0  0  0
 12 30  1  0  0  0  0
 13 22  1  0  0  0  0
 13 28  2  0  0  0  0
 14 24  1  0  0  0  0
 14 25  2  0  0  0  0
 15 25  1  0  0  0  0
 15 26  2  0  0  0  0
 16 30  2  0  0  0  0
 16 31  1  0  0  0  0
 17 32  1  0  0  0  0
 18 32  1  0  0  0  0
 18 33  2  0  0  0  0
 18 39  1  0  0  0  0
 19 21  2  0  0  0  0
 19 44  1  0  0  0  0
 20 22  2  0  0  0  0
 20 45  1  0  0  0  0
 21 55  1  0  0  0  0
 22 46  1  0  0  0  0
 23 24  2  0  0  0  0
 23 26  1  0  0  0  0
 23 59  1  0  0  0  0
 24 71  1  0  0  0  0
 25 73  1  0  0  0  0
 26 80  1  0  0  0  0
 27 87  1  0  0  0  0
 28 88  1  0  0  0  0
 29 31  2  0  0  0  0
 29 87  1  0  0  0  0
 30 89  1  0  0  0  0
 31 90  1  0  0  0  0
 32 70  2  0  0  0  0
 33 72  1  0  0  0  0
 33 76  1  0  0  0  0
 34 36  2  0  0  0  0
 34 47  1  0  0  0  0
 34 56  1  0  0  0  0
 35 37  2  0  0  0  0
 36 88  1  0  0  0  0
 37 38  1  0  0  0  0
 38 71  2  0  0  0  0
 39 77  1  0  0  0  0
 39 82  2  0  0  0  0
 40 57  1  0  0  0  0
 40 78  1  0  0  0  0
 40 83  2  0  0  0  0
 41 67  1  0  0  0  0
 41 74  1  0  0  0  0
 41 84  2  0  0  0  0
 42 68  1  0  0  0  0
 42 79  1  0  0  0  0
 42 85  2  0  0  0  0
 43 75  1  0  0  0  0
 43 80  1  0  0  0  0
 43 86  2  0  0  0  0
 44 48  1  0  0  0  0
 45 57  1  0  0  0  0
 46 74  1  0  0  0  0
 47 52  1  0  0  0  0
 48 50  1  0  0  0  0
 49 51  1  0  0  0  0
 49 53  1  0  0  0  0
 50 55  1  0  0  0  0
 51 58  1  0  0  0  0
 52 73  1  0  0  0  0
 53 75  1  0  0  0  0
 54 58  1  0  0  0  0
 54 75  1  0  0  0  0
 55 78  1  0  0  0  0
 56 60  1  0  0  0  0
 56 73  1  0  0  0  0
 57 74  1  0  0  0  0
 58 72  1  0  0  0  0
 61 68  1  0  0  0  0
 62 69  1  0  0  0  0
 63 69  1  0  0  0  0
 64 69  1  0  0  0  0
 65 80  1  0  0  0  0
 66 81  1  0  0  0  0
 67 69  1  0  0  0  0
 67 79  1  0  0  0  0
 68 81  1  0  0  0  0
 70 72  1  0  0  0  0
M  CHG  1  81   1
M  ISO  4  36 101  43 100  80 100  88 101
M  END
> <Batch ID>
0115

> <Smiles>
C=CC=Nc1cc(N2CCC(=[101CH:1][101O:1]c3ccc4c(c3)CN(C(=O)C(NC(=O)C(C)NC)C(C)(C)C)C(C(=O)NC3CCCc5ccccc53)C4)C2C)cc([100N:0](C)[100C:0](=O)N2CCCC(n3nc(-c4ccc(Oc5ccc(F)cc5F)cc4)c(C(N)=O)c3N)C2)c1C

> <Shape>
0.272

> <Color>
0.077

> <Negative vol penalty>
0.000

$$$$

  -OEChem-04052301403D

 80 88  0     1  0  0  0  0  0999 V2000
  -27.8475  -33.4967   14.4480 C   0  0  0  0  0  0  0  0  0  0  0  0
  -28.0840  -32.1445   14.6741 C   0  0  0  0  0  0  0  0  0  0  0  0
  -23.3525   -9.6789   21.4438 C   0  0  0  0  0  0  0  0  0  0  0  0
  -24.0486  -10.6886   23.5254 C   0  0  0  0  0  0  0  0  0  0  0  0
  -27.7867  -34.3819   15.5235 C   0  0  0  0  0  0  0  0  0  0  0  0
  -28.2609  -31.6769   15.9758 C   0  0  0  0  0  0  0  0  0  0  0  0
  -26.4958  -26.2557   18.2121 C   0  0  0  0  0  0  0  0  0  0  0  0
  -22.7234   -8.6544   22.1511 C   0  0  0  0  0  0  0  0  0  0  0  0
  -23.4195   -9.6641   24.2327 C   0  0  0  0  0  0  0  0  0  0  0  0
  -27.1817  -25.0609   18.4256 C   0  0  0  0  0  0  0  0  0  0  0  0
  -19.8350   -8.2110   23.8521 C   0  0  0  0  0  0  0  0  0  0  0  0
  -18.5525   -7.8383   23.4499 C   0  0  0  0  0  0  0  0  0  0  0  0
  -27.5445  -25.6873   20.7267 C   0  0  0  0  0  0  0  0  0  0  0  0
  -19.3403   -5.5962   23.0151 C   0  0  0  0  0  0  0  0  0  0  0  0
  -29.2211  -18.7526   20.6619 C   0  0  0  0  0  0  0  0  0  0  0  0
  -24.0152  -10.6959   22.1309 C   0  0  0  0  0  0  0  0  0  0  0  0
  -24.1018  -12.9788   20.9956 C   0  0  0  0  0  0  0  0  0  0  0  0
  -27.9533  -33.9234   16.8398 C   0  0  0  0  0  0  0  0  0  0  0  0
  -26.3383  -27.1818   19.2532 C   0  0  0  0  0  0  0  0  0  0  0  0
  -28.2036  -32.5571   17.0698 C   0  0  0  0  0  0  0  0  0  0  0  0
  -26.8540  -26.8920   20.5245 C   0  0  0  0  0  0  0  0  0  0  0  0
  -22.7569   -8.6470   23.5455 C   0  0  0  0  0  0  0  0  0  0  0  0
  -27.7087  -24.7778   19.6823 C   0  0  0  0  0  0  0  0  0  0  0  0
  -20.8703   -7.2763   23.8357 C   0  0  0  0  0  0  0  0  0  0  0  0
  -18.3051   -6.5309   23.0315 C   0  0  0  0  0  0  0  0  0  0  0  0
  -20.6229   -5.9689   23.4172 C   0  0  0  0  0  0  0  0  0  0  0  0
  -24.6657  -11.7542   21.4008 C   0  0  0  0  0  0  0  0  0  0  0  0
  -30.0391  -17.6838   20.2491 C   0  0  0  0  0  0  0  0  0  0  0  0
  -25.1212  -13.6265   20.3415 C   0  0  0  0  0  0  0  0  0  0  0  0
  -29.9484  -19.8780   20.3602 C   0  0  0  0  0  0  0  0  0  0  0  0
  -22.7752  -13.4855   21.1930 C   0  0  0  0  0  0  0  0  0  0  0  0
  -27.2540  -30.1865   19.7403 C   0  0  0  0  0  0  0  0  0  0  0  0
  -25.4258  -29.9010   22.4046 C   0  0  0  0  0  0  0  0  0  0  0  0
  -24.0051  -27.8556   24.7380 C   0  0  0  0  0  0  0  0  0  0  0  0
  -30.4465  -15.2121   19.9828 C   0  0  0  0  0  0  0  0  0  0  0  0
  -27.9262  -34.9256   17.9665 C   0  0  0  0  0  0  0  0  0  0  0  0
  -25.5727  -28.4542   19.0136 C   0  0  0  0  0  0  0  0  0  0  0  0
  -26.6945  -27.8439   21.6808 C   0  0  0  0  0  0  0  0  0  0  0  0
  -27.7516  -34.2897   19.3432 C   0  0  0  0  0  0  0  0  0  0  0  0
  -29.6443  -11.9471   18.8109 C   0  0  0  0  0  0  0  0  0  0  0  0
  -28.6884  -33.0965   19.5029 C   0  0  0  0  0  0  0  0  0  0  0  0
  -28.2311  -11.7066   19.3469 C   0  0  0  0  0  0  0  0  0  0  0  0
  -30.5002  -12.7343   19.8015 C   0  0  0  0  0  0  0  0  0  0  0  0
  -28.4947  -13.7532   20.8060 C   0  0  0  0  0  0  0  0  0  0  0  0
  -28.3759  -32.0076   18.4693 C   0  0  1  0  0  0  0  0  0  0  0  0
  -25.9174  -29.5558   20.0111 C   0  0  1  0  0  0  0  0  0  0  0  0
  -27.5751  -13.0201   19.8157 C   0  0  2  0  0  0  0  0  0  0  0  0
  -22.5990  -27.9156   26.8156 C   0  0  0  0  0  0  0  0  0  0  0  0
  -27.8471  -30.8271   24.0136 C   0  0  0  0  0  0  0  0  0  0  0  0
  -26.7169  -29.9694   26.0765 C   0  0  0  0  0  0  0  0  0  0  0  0
  -25.6673  -31.8050   24.7529 C   0  0  0  0  0  0  0  0  0  0  0  0
  -32.2078  -20.2407   19.3236 C   0  0  0  0  0  0  0  0  0  0  0  0
  -21.8565  -26.2641   23.4694 C   0  0  0  0  0  0  0  0  0  0  0  0
  -28.3226  -23.0594   21.2074 C   0  0  0  0  0  0  0  0  0  1  0  0
  -28.4348  -21.5500   21.1147 C   0  0  0  0  0  0  0  0  0  0  0  0
  -25.6694  -29.4530   23.8254 C   0  0  1  0  0  0  0  0  0  0  0  0
  -22.5962  -27.7943   25.2997 C   0  0  2  0  0  0  0  0  0  0  0  0
  -26.4801  -30.4963   24.6450 C   0  0  0  0  0  0  0  0  0  0  0  0
  -25.9441  -11.6289   21.0346 N   0  0  0  0  0  0  0  0  0  0  0  0
  -31.1973  -18.0935   19.7249 N   0  0  0  0  0  0  0  0  0  0  0  0
  -26.1919  -12.7832   20.3924 N   0  0  0  0  0  0  0  0  0  0  0  0
  -31.1123  -19.4323   19.8062 N   0  0  0  0  0  0  0  0  0  0  0  0
  -25.9435  -29.0774   21.3948 N   0  0  0  0  0  0  0  0  0  0  0  0
  -29.8171  -13.9677   20.1976 N   0  0  0  0  0  0  0  0  0  0  0  0
  -25.1971  -14.8293   19.7335 N   0  0  0  0  0  0  0  0  0  0  0  0
  -21.8525  -12.6904   21.8863 N   0  0  0  0  0  0  0  0  0  0  0  0
  -29.6877  -16.3164   20.3692 N   0  0  0  0  0  0  0  0  0  0  0  0
  -27.2050  -31.2554   18.8659 N   0  0  0  0  0  0  0  0  0  0  0  0
  -24.3590  -29.1408   24.3854 N   0  0  0  0  0  0  0  0  0  0  0  0
  -21.9479  -26.5036   24.9327 N   0  3  0  0  0  0  0  0  0  0  0  0
  -22.4138  -14.6032   20.7527 O   0  0  0  0  0  0  0  0  0  0  0  0
  -28.2555  -29.7375   20.2855 O   0  0  0  0  0  0  0  0  0  0  0  0
  -24.7930  -30.9396   22.1980 O   0  0  0  0  0  0  0  0  0  0  0  0
  -24.7216  -26.8632   24.6268 O   0  0  0  0  0  0  0  0  0  0  0  0
  -31.5643  -15.2935   19.4670 O   0  0  0  0  0  0  0  0  0  0  0  0
  -22.1429   -7.6476   24.2360 O   0  0  0  0  0  0  0  0  0  0  0  0
  -28.3792  -23.6125   19.8932 O   0  0  0  0  0  0  0  0  0  1  0  0
  -29.6842  -21.2123   20.5247 O   0  0  0  0  0  0  0  0  0  0  0  0
  -17.0731   -6.1728   22.6467 F   0  0  0  0  0  0  0  0  0  0  0  0
  -21.6132   -5.0662   23.4005 F   0  0  0  0  0  0  0  0  0  0  0  0
  1  2  1  0  0  0  0
  1  5  2  0  0  0  0
  2  6  2  0  0  0  0
  3  8  2  0  0  0  0
  3 16  1  0  0  0  0
  4  9  1  0  0  0  0
  4 16  2  0  0  0  0
  5 18  1  0  0  0  0
  6 20  1  0  0  0  0
  7 10  2  0  0  0  0
  7 19  1  0  0  0  0
  8 22  1  0  0  0  0
  9 22  2  0  0  0  0
 10 23  1  0  0  0  0
 11 12  2  0  0  0  0
 11 24  1  0  0  0  0
 12 25  1  0  0  0  0
 13 21  1  0  0  0  0
 13 23  2  0  0  0  0
 14 25  2  0  0  0  0
 14 26  1  0  0  0  0
 15 28  1  0  0  0  0
 15 30  2  0  0  0  0
 16 27  1  0  0  0  0
 17 27  1  0  0  0  0
 17 29  2  0  0  0  0
 17 31  1  0  0  0  0
 18 20  2  0  0  0  0
 18 36  1  0  0  0  0
 19 21  2  0  0  0  0
 19 37  1  0  0  0  0
 20 45  1  0  0  0  0
 21 38  1  0  0  0  0
 22 76  1  0  0  0  0
 23 77  1  0  0  0  0
 24 26  2  0  0  0  0
 24 76  1  0  0  0  0
 25 79  1  0  0  0  0
 26 80  1  0  0  0  0
 27 59  2  0  0  0  0
 28 60  2  0  0  0  0
 28 67  1  0  0  0  0
 29 61  1  0  0  0  0
 29 65  1  0  0  0  0
 30 62  1  0  0  0  0
 30 78  1  0  0  0  0
 31 66  1  0  0  0  0
 31 71  2  0  0  0  0
 32 46  1  0  0  0  0
 32 68  1  0  0  0  0
 32 72  2  0  0  0  0
 33 56  1  0  0  0  0
 33 63  1  0  0  0  0
 33 73  2  0  0  0  0
 34 57  1  0  0  0  0
 34 69  1  0  0  0  0
 34 74  2  0  0  0  0
 35 64  1  0  0  0  0
 35 67  1  0  0  0  0
 35 75  2  0  0  0  0
 36 39  1  0  0  0  0
 37 46  1  0  0  0  0
 38 63  1  0  0  0  0
 39 41  1  0  0  0  0
 40 42  1  0  0  0  0
 40 43  1  0  0  0  0
 41 45  1  0  0  0  0
 42 47  1  0  0  0  0
 43 64  1  0  0  0  0
 44 47  1  0  0  0  0
 44 64  1  0  0  0  0
 45 68  1  0  0  0  0
 46 63  1  0  0  0  0
 47 61  1  0  0  0  0
 48 57  1  0  0  0  0
 49 58  1  0  0  0  0
 50 58  1  0  0  0  0
 51 58  1  0  0  0  0
 52 62  1  0  0  0  0
 53 70  1  0  0  0  0
 54 55  1  0  0  0  0
 54 77  1  0  0  0  0
 55 78  1  0  0  0  0
 56 58  1  0  0  0  0
 56 69  1  0  0  0  0
 57 70  1  0  0  0  0
 59 61  1  0  0  0  0
 60 62  1  0  0  0  0
M  CHG  1  70   1
M  ISO  4  35 100  54 101  67 100  77 101
M  END
> <Batch ID>
0115

> <Smiles>
CNC(C)C(=O)NC(C(=O)N1Cc2cc([101O:1][101CH2:1]COc3cc([100NH:0][100C:0](=O)N4CCCC(n5nc(-c6ccc(Oc7ccc(F)cc7F)cc6)c(C(N)=O)c5N)C4)nn3C)ccc2CC1C(=O)NC1CCCc2ccccc21)C(C)(C)C

> <Shape>
0.272

> <Color>
0.181

> <Negative vol penalty>
0.000

$$$$

  -OEChem-04052301403D

 87 95  0     1  0  0  0  0  0999 V2000
  -27.6943  -24.4828   17.3069 C   0  0  0  0  0  0  0  0  0  0  0  0
  -26.5241  -24.7835   17.9966 C   0  0  0  0  0  0  0  0  0  0  0  0
  -27.3850  -15.7587   18.8615 C   0  0  0  0  0  0  0  0  0  0  0  0
  -26.9933  -17.0296   20.8785 C   0  0  0  0  0  0  0  0  0  0  0  0
  -28.9189  -24.9586   17.7734 C   0  0  0  0  0  0  0  0  0  0  0  0
  -26.5781  -25.5594   19.1540 C   0  0  0  0  0  0  0  0  0  0  0  0
  -22.9868  -29.1279   19.2702 C   0  0  0  0  0  0  0  0  0  0  0  0
  -28.7171  -16.1724   18.8595 C   0  0  0  0  0  0  0  0  0  0  0  0
  -28.3255  -17.4432   20.8766 C   0  0  0  0  0  0  0  0  0  0  0  0
  -21.6971  -28.7224   19.6108 C   0  0  0  0  0  0  0  0  0  0  0  0
  -31.7135  -18.5437   21.6036 C   0  0  0  0  0  0  0  0  0  0  0  0
  -32.4084  -18.5007   22.8122 C   0  0  0  0  0  0  0  0  0  0  0  0
  -22.0458  -29.5230   21.8595 C   0  0  0  0  0  0  0  0  0  0  0  0
  -19.0970  -22.7474   21.4963 C   0  0  0  0  0  0  0  0  0  0  0  0
  -32.0291  -16.1184   22.9456 C   0  0  0  0  0  0  0  0  0  0  0  0
  -26.5231  -16.1874   19.8709 C   0  0  0  0  0  0  0  0  0  0  0  0
  -24.6130  -14.6146   20.4920 C   0  0  0  0  0  0  0  0  0  0  0  0
  -28.9869  -25.7487   18.9318 C   0  0  0  0  0  0  0  0  0  0  0  0
  -23.8210  -29.7251   20.2261 C   0  0  0  0  0  0  0  0  0  0  0  0
  -27.8050  -26.0450   19.6372 C   0  0  0  0  0  0  0  0  0  0  0  0
  -23.3448  -29.9375   21.5278 C   0  0  0  0  0  0  0  0  0  0  0  0
  -19.3970  -21.6545   20.6832 C   0  0  0  0  0  0  0  0  0  0  0  0
  -21.5070  -22.6726   20.0930 C   0  0  0  0  0  0  0  0  0  0  0  0
  -20.0020  -23.8030   21.6077 C   0  0  0  0  0  0  0  0  0  0  0  0
  -20.6019  -21.6170   19.9816 C   0  0  0  0  0  0  0  0  0  0  0  0
  -29.1873  -17.0146   19.8670 C   0  0  0  0  0  0  0  0  0  0  0  0
  -21.2275  -28.9173   20.9064 C   0  0  0  0  0  0  0  0  0  0  0  0
  -31.1762  -17.3740   21.0660 C   0  0  0  0  0  0  0  0  0  0  0  0
  -21.2070  -23.7656   20.9061 C   0  0  0  0  0  0  0  0  0  0  0  0
  -32.5662  -17.2881   23.4832 C   0  0  0  0  0  0  0  0  0  0  0  0
  -31.3340  -16.1614   21.7370 C   0  0  0  0  0  0  0  0  0  0  0  0
  -25.1468  -15.7609   19.8732 C   0  0  0  0  0  0  0  0  0  0  0  0
  -23.2711  -14.6617   20.2028 C   0  0  0  0  0  0  0  0  0  0  0  0
  -24.3881  -20.6938   19.3286 C   0  0  0  0  0  0  0  0  0  0  0  0
  -23.8163  -21.7211   19.9670 C   0  0  0  0  0  0  0  0  0  0  0  0
  -19.0505  -25.8662   21.8582 C   0  0  0  0  0  0  0  0  0  0  0  0
  -25.2713  -13.5983   21.2597 C   0  0  0  0  0  0  0  0  0  0  0  0
  -26.6180  -28.9813   21.5404 C   0  0  0  0  0  0  0  0  0  0  0  0
  -26.3204  -31.9140   22.8943 C   0  0  0  0  0  0  0  0  0  0  0  0
  -24.2646  -34.4454   23.9007 C   0  0  0  0  0  0  0  0  0  0  0  0
  -20.0093  -19.6875   18.4631 C   0  0  0  0  0  0  0  0  0  0  0  0
  -30.3390  -26.2007   19.4239 C   0  0  0  0  0  0  0  0  0  0  0  0
  -25.2001  -30.1811   19.8357 C   0  0  0  0  0  0  0  0  0  0  0  0
  -24.1935  -30.5925   22.5857 C   0  0  0  0  0  0  0  0  0  0  0  0
  -30.2679  -27.3293   20.4493 C   0  0  0  0  0  0  0  0  0  0  0  0
  -20.4463  -16.4673   16.7030 C   0  0  0  0  0  0  0  0  0  0  0  0
  -29.2147  -27.0222   21.5091 C   0  0  0  0  0  0  0  0  0  0  0  0
  -21.4876  -15.6843   17.5042 C   0  0  0  0  0  0  0  0  0  0  0  0
  -19.6157  -17.4050   17.5684 C   0  0  0  0  0  0  0  0  0  0  0  0
  -21.7352  -17.8426   18.8281 C   0  0  0  0  0  0  0  0  0  0  0  0
  -27.8199  -26.9044   20.8828 C   0  0  1  0  0  0  0  0  0  0  0  0
  -26.1456  -30.3116   21.0258 C   0  0  1  0  0  0  0  0  0  0  0  0
  -21.7856  -16.3076   18.8781 C   0  0  2  0  0  0  0  0  0  0  0  0
  -18.4068  -20.5395   20.5835 C   0  0  0  0  0  0  0  0  0  0  0  0
  -24.3088  -36.6968   25.0082 C   0  0  0  0  0  0  0  0  0  0  0  0
  -26.7605  -30.5722   25.5991 C   0  0  0  0  0  0  0  0  0  0  0  0
  -25.8643  -32.6388   26.6919 C   0  0  0  0  0  0  0  0  0  0  0  0
  -27.9409  -32.7586   25.3149 C   0  0  0  0  0  0  0  0  0  0  0  0
  -23.0993  -35.7669   21.5227 C   0  0  0  0  0  0  0  0  0  0  0  0
  -23.0645  -24.7085   22.0535 C   0  0  0  0  0  0  0  0  0  0  0  0
  -22.8029  -22.6429   19.3446 C   0  0  0  0  0  0  0  0  0  0  0  0
  -18.6453  -27.0856   22.6423 C   0  0  0  0  0  0  0  0  0  0  0  0
  -19.7521  -28.1255   22.5952 C   0  0  0  0  0  0  0  0  0  1  0  0
  -25.7095  -32.4466   24.1680 C   0  0  1  0  0  0  0  0  0  0  0  0
  -24.3355  -35.9464   23.6857 C   0  0  2  0  0  0  0  0  0  0  0  0
  -26.5532  -32.0899   25.4243 C   0  0  0  0  0  0  0  0  0  0  0  0
  -24.2197  -16.4833   19.2386 N   0  0  0  0  0  0  0  0  0  0  0  0
  -19.6862  -24.8968   22.4309 N   0  0  0  0  0  0  0  0  0  0  0  0
  -23.0899  -15.7892   19.4571 N   0  0  0  0  0  0  0  0  0  0  0  0
  -25.5369  -31.0152   22.1567 N   0  0  0  0  0  0  0  0  0  0  0  0
  -20.4617  -18.3561   18.2951 N   0  0  0  0  0  0  0  0  0  0  0  0
  -22.2404  -13.8481   20.5161 N   0  0  0  0  0  0  0  0  0  0  0  0
  -26.6543  -13.7036   21.4610 N   0  0  0  0  0  0  0  0  0  0  0  0
  -20.9051  -20.5065   19.1552 N   0  0  0  0  0  0  0  0  0  0  0  0
  -27.2808  -28.2171   20.5991 N   0  0  0  0  0  0  0  0  0  0  0  0
  -25.5200  -33.8784   23.9622 N   0  0  0  0  0  0  0  0  0  0  0  0
  -23.1826  -36.4066   22.8609 N   0  3  0  0  0  0  0  0  0  0  0  0
  -24.6541  -12.6168   21.7387 O   0  0  0  0  0  0  0  0  0  0  0  0
  -26.3988  -28.6718   22.7057 O   0  0  0  0  0  0  0  0  0  0  0  0
  -27.4482  -32.2875   22.5624 O   0  0  0  0  0  0  0  0  0  0  0  0
  -23.2019  -33.8372   24.0074 O   0  0  0  0  0  0  0  0  0  0  0  0
  -18.9246  -20.0644   18.0143 O   0  0  0  0  0  0  0  0  0  0  0  0
  -30.4872  -17.4182   19.8656 O   0  0  0  0  0  0  0  0  0  0  0  0
  -22.0907  -24.7991   21.0166 O   0  0  0  0  0  0  0  0  0  0  0  0
  -19.9693  -28.5219   21.2417 O   0  0  0  0  0  0  0  0  0  1  0  0
  -33.2350  -17.2467   24.6431 F   0  0  0  0  0  0  0  0  0  0  0  0
  -30.8212  -15.0342   21.2248 F   0  0  0  0  0  0  0  0  0  0  0  0
  1  2  1  0  0  0  0
  1  5  2  0  0  0  0
  2  6  2  0  0  0  0
  3  8  2  0  0  0  0
  3 16  1  0  0  0  0
  4  9  1  0  0  0  0
  4 16  2  0  0  0  0
  5 18  1  0  0  0  0
  6 20  1  0  0  0  0
  7 10  2  0  0  0  0
  7 19  1  0  0  0  0
  8 26  1  0  0  0  0
  9 26  2  0  0  0  0
 10 27  1  0  0  0  0
 11 12  2  0  0  0  0
 11 28  1  0  0  0  0
 12 30  1  0  0  0  0
 13 21  1  0  0  0  0
 13 27  2  0  0  0  0
 14 22  1  0  0  0  0
 14 24  2  0  0  0  0
 15 30  2  0  0  0  0
 15 31  1  0  0  0  0
 16 32  1  0  0  0  0
 17 32  1  0  0  0  0
 17 33  2  0  0  0  0
 17 37  1  0  0  0  0
 18 20  2  0  0  0  0
 18 42  1  0  0  0  0
 19 21  2  0  0  0  0
 19 43  1  0  0  0  0
 20 51  1  0  0  0  0
 21 44  1  0  0  0  0
 22 25  2  0  0  0  0
 22 54  1  0  0  0  0
 23 25  1  0  0  0  0
 23 29  2  0  0  0  0
 23 61  1  0  0  0  0
 24 29  1  0  0  0  0
 24 68  1  0  0  0  0
 25 74  1  0  0  0  0
 26 83  1  0  0  0  0
 27 85  1  0  0  0  0
 28 31  2  0  0  0  0
 28 83  1  0  0  0  0
 29 84  1  0  0  0  0
 30 86  1  0  0  0  0
 31 87  1  0  0  0  0
 32 67  2  0  0  0  0
 33 69  1  0  0  0  0
 33 72  1  0  0  0  0
 34 35  2  0  0  0  0
 35 61  1  0  0  0  0
 36 62  1  0  0  0  0
 36 68  2  0  0  0  0
 37 73  1  0  0  0  0
 37 78  2  0  0  0  0
 38 52  1  0  0  0  0
 38 75  1  0  0  0  0
 38 79  2  0  0  0  0
 39 64  1  0  0  0  0
 39 70  1  0  0  0  0
 39 80  2  0  0  0  0
 40 65  1  0  0  0  0
 40 76  1  0  0  0  0
 40 81  2  0  0  0  0
 41 71  1  0  0  0  0
 41 74  1  0  0  0  0
 41 82  2  0  0  0  0
 42 45  1  0  0  0  0
 43 52  1  0  0  0  0
 44 70  1  0  0  0  0
 45 47  1  0  0  0  0
 46 48  1  0  0  0  0
 46 49  1  0  0  0  0
 47 51  1  0  0  0  0
 48 53  1  0  0  0  0
 49 71  1  0  0  0  0
 50 53  1  0  0  0  0
 50 71  1  0  0  0  0
 51 75  1  0  0  0  0
 52 70  1  0  0  0  0
 53 69  1  0  0  0  0
 55 65  1  0  0  0  0
 56 66  1  0  0  0  0
 57 66  1  0  0  0  0
 58 66  1  0  0  0  0
 59 77  1  0  0  0  0
 60 84  1  0  0  0  0
 62 63  1  0  0  0  0
 63 85  1  0  0  0  0
 64 66  1  0  0  0  0
 64 76  1  0  0  0  0
 65 77  1  0  0  0  0
 67 69  1  0  0  0  0
M  CHG  1  77   1
M  ISO  4  41 100  63 101  74 100  85 101
M  END
> <Batch ID>
0115

> <Smiles>
C=CCc1c([100NH:0][100C:0](=O)N2CCCC(n3nc(-c4ccc(Oc5ccc(F)cc5F)cc4)c(C(N)=O)c3N)C2)c(C)cc(NC=C[101CH2:1][101O:1]c2ccc3c(c2)CN(C(=O)C(NC(=O)C(C)NC)C(C)(C)C)C(C(=O)NC2CCCc4ccccc42)C3)c1OC

> <Shape>
0.287

> <Color>
0.077

> <Negative vol penalty>
0.000

$$$$

  -OEChem-04052301403D

 86 94  0     1  0  0  0  0  0999 V2000
  -27.1476  -37.8440   25.9081 C   0  0  0  0  0  0  0  0  0  0  0  0
  -27.8552  -37.1831   24.9092 C   0  0  0  0  0  0  0  0  0  0  0  0
  -24.4359   -8.8108   20.8575 C   0  0  0  0  0  0  0  0  0  0  0  0
  -22.7278  -10.4632   21.2924 C   0  0  0  0  0  0  0  0  0  0  0  0
  -26.3014  -37.1266   26.7526 C   0  0  0  0  0  0  0  0  0  0  0  0
  -27.7180  -35.8041   24.7549 C   0  0  0  0  0  0  0  0  0  0  0  0
  -27.7387  -30.7217   19.7066 C   0  0  0  0  0  0  0  0  0  0  0  0
  -23.5062   -7.7933   21.0715 C   0  0  0  0  0  0  0  0  0  0  0  0
  -21.7980   -9.4456   21.5063 C   0  0  0  0  0  0  0  0  0  0  0  0
  -28.3456  -29.5025   19.4082 C   0  0  0  0  0  0  0  0  0  0  0  0
  -22.0598   -6.2562   23.7115 C   0  0  0  0  0  0  0  0  0  0  0  0
  -22.4520   -5.1769   24.5032 C   0  0  0  0  0  0  0  0  0  0  0  0
  -26.7944  -28.3784   20.8744 C   0  0  0  0  0  0  0  0  0  0  0  0
  -27.4594  -19.0308   20.3592 C   0  0  0  0  0  0  0  0  0  0  0  0
  -22.0609   -3.6759   22.6508 C   0  0  0  0  0  0  0  0  0  0  0  0
  -24.0468  -10.1458   20.9680 C   0  0  0  0  0  0  0  0  0  0  0  0
  -25.3087  -11.8309   19.5273 C   0  0  0  0  0  0  0  0  0  0  0  0
  -26.1463  -35.7395   26.6024 C   0  0  0  0  0  0  0  0  0  0  0  0
  -26.6603  -30.7799   20.6011 C   0  0  0  0  0  0  0  0  0  0  0  0
  -26.8700  -35.0672   25.5991 C   0  0  0  0  0  0  0  0  0  0  0  0
  -26.1740  -29.5993   21.1805 C   0  0  0  0  0  0  0  0  0  0  0  0
  -22.1872   -8.1107   21.3958 C   0  0  0  0  0  0  0  0  0  0  0  0
  -27.8753  -28.3310   19.9943 C   0  0  0  0  0  0  0  0  0  0  0  0
  -21.6680   -6.0454   22.3894 C   0  0  0  0  0  0  0  0  0  0  0  0
  -27.7583  -20.2922   19.8564 C   0  0  0  0  0  0  0  0  0  0  0  0
  -28.6744  -21.1001   20.5207 C   0  0  0  0  0  0  0  0  0  0  0  0
  -22.4526   -3.8868   23.9729 C   0  0  0  0  0  0  0  0  0  0  0  0
  -21.6686   -4.7553   21.8591 C   0  0  0  0  0  0  0  0  0  0  0  0
  -25.0069  -11.1973   20.7477 C   0  0  0  0  0  0  0  0  0  0  0  0
  -28.0987  -18.6273   21.5204 C   0  0  0  0  0  0  0  0  0  0  0  0
  -29.2592  -20.6040   21.6747 C   0  0  0  0  0  0  0  0  0  0  0  0
  -26.2779  -12.7497   19.8480 C   0  0  0  0  0  0  0  0  0  0  0  0
  -24.7618  -11.6087   18.2207 C   0  0  0  0  0  0  0  0  0  0  0  0
  -26.1468  -32.1816   23.4074 C   0  0  0  0  0  0  0  0  0  0  0  0
  -28.6879  -24.7378   19.9116 C   0  0  0  0  0  0  0  0  0  0  0  0
  -23.1310  -31.0695   22.9713 C   0  0  0  0  0  0  0  0  0  0  0  0
  -21.0693  -28.7937   21.4822 C   0  0  0  0  0  0  0  0  0  0  0  0
  -28.3058  -16.7331   23.1682 C   0  0  0  0  0  0  0  0  0  0  0  0
  -25.2564  -34.9996   27.5695 C   0  0  0  0  0  0  0  0  0  0  0  0
  -25.9996  -32.0994   20.8919 C   0  0  0  0  0  0  0  0  0  0  0  0
  -25.0062  -29.6052   22.1316 C   0  0  0  0  0  0  0  0  0  0  0  0
  -24.8796  -33.5969   27.0997 C   0  0  0  0  0  0  0  0  0  0  0  0
  -28.9632  -13.3588   24.0954 C   0  0  0  0  0  0  0  0  0  0  0  0
  -26.1115  -32.8560   26.5896 C   0  0  0  0  0  0  0  0  0  0  0  0
  -28.0173  -12.5478   23.2067 C   0  0  0  0  0  0  0  0  0  0  0  0
  -28.3266  -14.6699   24.5531 C   0  0  0  0  0  0  0  0  0  0  0  0
  -26.8441  -14.6984   22.5857 C   0  0  0  0  0  0  0  0  0  0  0  0
  -26.7286  -33.5758   25.3844 C   0  0  1  0  0  0  0  0  0  0  0  0
  -25.2375  -32.1077   22.2135 C   0  0  1  0  0  0  0  0  0  0  0  0
  -27.4652  -13.3994   22.0467 C   0  0  2  0  0  0  0  0  0  0  0  0
  -18.6578  -28.1125   21.3473 C   0  0  0  0  0  0  0  0  0  0  0  0
  -23.3474  -29.7674   25.7223 C   0  0  0  0  0  0  0  0  0  0  0  0
  -21.3635  -28.3579   25.1342 C   0  0  0  0  0  0  0  0  0  0  0  0
  -21.1387  -30.8397   25.2465 C   0  0  0  0  0  0  0  0  0  0  0  0
  -20.9621  -29.3238   18.5725 C   0  0  0  0  0  0  0  0  0  0  0  0
  -26.2234  -19.8317   18.0992 C   0  0  0  0  0  0  0  0  0  0  0  0
  -30.7304  -20.8057   23.5324 C   0  0  0  0  0  0  0  0  0  0  0  0
  -27.9332  -25.9790   20.3416 C   0  0  0  0  0  0  0  0  0  1  0  0
  -28.2040  -23.4313   20.5064 C   0  0  0  0  0  0  0  0  0  0  0  0
  -22.4004  -29.7954   23.3205 C   0  0  1  0  0  0  0  0  0  0  0  0
  -19.7603  -28.9601   20.7317 C   0  0  2  0  0  0  0  0  0  0  0  0
  -22.0858  -29.6899   24.8395 C   0  0  0  0  0  0  0  0  0  0  0  0
  -25.7262  -11.6733   21.7675 N   0  0  0  0  0  0  0  0  0  0  0  0
  -28.9941  -19.3841   22.1935 N   0  0  0  0  0  0  0  0  0  0  0  0
  -26.4897  -12.6157   21.1886 N   0  0  0  0  0  0  0  0  0  0  0  0
  -24.3978  -30.9209   22.3892 N   0  0  0  0  0  0  0  0  0  0  0  0
  -27.8302  -15.4252   23.4007 N   0  0  0  0  0  0  0  0  0  0  0  0
  -26.9612  -13.6511   19.1111 N   0  0  0  0  0  0  0  0  0  0  0  0
  -23.7738  -10.6264   18.0681 N   0  0  0  0  0  0  0  0  0  0  0  0
  -27.7875  -17.3403   22.0249 N   0  0  0  0  0  0  0  0  0  0  0  0
  -25.9608  -33.3069   24.1875 N   0  0  0  0  0  0  0  0  0  0  0  0
  -21.2218  -29.7521   22.4617 N   0  0  0  0  0  0  0  0  0  0  0  0
  -19.9248  -28.5547   19.3071 N   0  3  0  0  0  0  0  0  0  0  0  0
  -25.1498  -12.2506   17.2153 O   0  0  0  0  0  0  0  0  0  0  0  0
  -26.9562  -31.2834   23.6069 O   0  0  0  0  0  0  0  0  0  0  0  0
  -29.6353  -24.7880   19.1285 O   0  0  0  0  0  0  0  0  0  0  0  0
  -22.5943  -32.1564   23.1998 O   0  0  0  0  0  0  0  0  0  0  0  0
  -21.8742  -27.9005   21.2277 O   0  0  0  0  0  0  0  0  0  0  0  0
  -29.1340  -17.2643   23.9124 O   0  0  0  0  0  0  0  0  0  0  0  0
  -21.2796   -7.1180   21.6044 O   0  0  0  0  0  0  0  0  0  0  0  0
  -27.1498  -20.7233   18.7171 O   0  0  0  0  0  0  0  0  0  0  0  0
  -28.4662  -27.1397   19.7053 O   0  0  0  0  0  0  0  0  0  1  0  0
  -28.9881  -22.3514   20.0452 O   0  0  0  0  0  0  0  0  0  0  0  0
  -30.1668  -21.3729   22.3559 O   0  0  0  0  0  0  0  0  0  0  0  0
  -22.8308   -2.8506   24.7329 F   0  0  0  0  0  0  0  0  0  0  0  0
  -21.2944   -4.5466   20.5894 F   0  0  0  0  0  0  0  0  0  0  0  0
  1  2  1  0  0  0  0
  1  5  2  0  0  0  0
  2  6  2  0  0  0  0
  3  8  2  0  0  0  0
  3 16  1  0  0  0  0
  4  9  1  0  0  0  0
  4 16  2  0  0  0  0
  5 18  1  0  0  0  0
  6 20  1  0  0  0  0
  7 10  2  0  0  0  0
  7 19  1  0  0  0  0
  8 22  1  0  0  0  0
  9 22  2  0  0  0  0
 10 23  1  0  0  0  0
 11 12  2  0  0  0  0
 11 24  1  0  0  0  0
 12 27  1  0  0  0  0
 13 21  1  0  0  0  0
 13 23  2  0  0  0  0
 14 25  2  0  0  0  0
 14 30  1  0  0  0  0
 15 27  2  0  0  0  0
 15 28  1  0  0  0  0
 16 29  1  0  0  0  0
 17 29  1  0  0  0  0
 17 32  2  0  0  0  0
 17 33  1  0  0  0  0
 18 20  2  0  0  0  0
 18 39  1  0  0  0  0
 19 21  2  0  0  0  0
 19 40  1  0  0  0  0
 20 48  1  0  0  0  0
 21 41  1  0  0  0  0
 22 80  1  0  0  0  0
 23 82  1  0  0  0  0
 24 28  2  0  0  0  0
 24 80  1  0  0  0  0
 25 26  1  0  0  0  0
 25 81  1  0  0  0  0
 26 31  2  0  0  0  0
 26 83  1  0  0  0  0
 27 85  1  0  0  0  0
 28 86  1  0  0  0  0
 29 63  2  0  0  0  0
 30 64  2  0  0  0  0
 30 70  1  0  0  0  0
 31 64  1  0  0  0  0
 31 84  1  0  0  0  0
 32 65  1  0  0  0  0
 32 68  1  0  0  0  0
 33 69  1  0  0  0  0
 33 74  2  0  0  0  0
 34 49  1  0  0  0  0
 34 71  1  0  0  0  0
 34 75  2  0  0  0  0
 35 58  1  0  0  0  0
 35 59  1  0  0  0  0
 35 76  2  0  0  0  0
 36 60  1  0  0  0  0
 36 66  1  0  0  0  0
 36 77  2  0  0  0  0
 37 61  1  0  0  0  0
 37 72  1  0  0  0  0
 37 78  2  0  0  0  0
 38 67  1  0  0  0  0
 38 70  1  0  0  0  0
 38 79  2  0  0  0  0
 39 42  1  0  0  0  0
 40 49  1  0  0  0  0
 41 66  1  0  0  0  0
 42 44  1  0  0  0  0
 43 45  1  0  0  0  0
 43 46  1  0  0  0  0
 44 48  1  0  0  0  0
 45 50  1  0  0  0  0
 46 67  1  0  0  0  0
 47 50  1  0  0  0  0
 47 67  1  0  0  0  0
 48 71  1  0  0  0  0
 49 66  1  0  0  0  0
 50 65  1  0  0  0  0
 51 61  1  0  0  0  0
 52 62  1  0  0  0  0
 53 62  1  0  0  0  0
 54 62  1  0  0  0  0
 55 73  1  0  0  0  0
 56 81  1  0  0  0  0
 57 84  1  0  0  0  0
 58 82  1  0  0  0  0
 59 83  1  0  0  0  0
 60 62  1  0  0  0  0
 60 72  1  0  0  0  0
 61 73  1  0  0  0  0
 63 65  1  0  0  0  0
M  CHG  1  73   1
M  ISO  4  38 100  58 101  70 100  82 101
M  END
> <Batch ID>
0115

> <Smiles>
CNC(C)C(=O)NC(C(=O)N1Cc2cc([101O:1][101CH2:1]C(=O)COc3c(OC)cc([100NH:0][100C:0](=O)N4CCCC(n5nc(-c6ccc(Oc7ccc(F)cc7F)cc6)c(C(N)=O)c5N)C4)nc3OC)ccc2CC1C(=O)NC1CCCc2ccccc21)C(C)(C)C

> <Shape>
0.311

> <Color>
0.120

> <Negative vol penalty>
0.000

$$$$

  -OEChem-04052301403D

 85 93  0     1  0  0  0  0  0999 V2000
  -34.5621  -17.7792   24.1469 C   0  0  0  0  0  0  0  0  0  0  0  0
  -33.5664  -18.4731   24.8270 C   0  0  0  0  0  0  0  0  0  0  0  0
  -27.9098  -24.4241   20.9907 C   0  0  0  0  0  0  0  0  0  0  0  0
  -27.5263  -24.8285   18.6398 C   0  0  0  0  0  0  0  0  0  0  0  0
  -34.3638  -17.3998   22.8200 C   0  0  0  0  0  0  0  0  0  0  0  0
  -32.3721  -18.7889   24.1801 C   0  0  0  0  0  0  0  0  0  0  0  0
  -25.3737  -19.6129   25.4687 C   0  0  0  0  0  0  0  0  0  0  0  0
  -27.8966  -23.0492   20.7563 C   0  0  0  0  0  0  0  0  0  0  0  0
  -27.5131  -23.4536   18.4055 C   0  0  0  0  0  0  0  0  0  0  0  0
  -24.3443  -20.5334   25.2770 C   0  0  0  0  0  0  0  0  0  0  0  0
  -25.3475  -20.8838   18.7762 C   0  0  0  0  0  0  0  0  0  0  0  0
  -24.3395  -20.3757   17.9570 C   0  0  0  0  0  0  0  0  0  0  0  0
  -21.9453  -28.2677   23.5485 C   0  0  0  0  0  0  0  0  0  0  0  0
  -24.0811  -19.7575   23.0081 C   0  0  0  0  0  0  0  0  0  0  0  0
  -23.6361  -27.1974   24.9023 C   0  0  0  0  0  0  0  0  0  0  0  0
  -26.0081  -19.5357   16.4249 C   0  0  0  0  0  0  0  0  0  0  0  0
  -27.7247  -25.3138   19.9324 C   0  0  0  0  0  0  0  0  0  0  0  0
  -21.3015  -27.0414   23.3831 C   0  0  0  0  0  0  0  0  0  0  0  0
  -28.8532  -27.5923   20.1394 C   0  0  0  0  0  0  0  0  0  0  0  0
  -33.1626  -17.7026   22.1596 C   0  0  0  0  0  0  0  0  0  0  0  0
  -25.7726  -18.7638   24.4264 C   0  0  0  0  0  0  0  0  0  0  0  0
  -32.1580  -18.4143   22.8428 C   0  0  0  0  0  0  0  0  0  0  0  0
  -25.1141  -18.8253   23.1899 C   0  0  0  0  0  0  0  0  0  0  0  0
  -21.8249  -25.8931   23.9773 C   0  0  0  0  0  0  0  0  0  0  0  0
  -23.1127  -28.3456   24.3081 C   0  0  0  0  0  0  0  0  0  0  0  0
  -27.6983  -22.5639   19.4637 C   0  0  0  0  0  0  0  0  0  0  0  0
  -23.6998  -20.6078   24.0457 C   0  0  0  0  0  0  0  0  0  0  0  0
  -26.6859  -20.7179   18.4198 C   0  0  0  0  0  0  0  0  0  0  0  0
  -24.6697  -19.7016   16.7813 C   0  0  0  0  0  0  0  0  0  0  0  0
  -22.9923  -25.9711   24.7369 C   0  0  0  0  0  0  0  0  0  0  0  0
  -27.0161  -20.0438   17.2442 C   0  0  0  0  0  0  0  0  0  0  0  0
  -27.7377  -26.7343   20.1740 C   0  0  0  0  0  0  0  0  0  0  0  0
  -28.3419  -28.8323   20.4352 C   0  0  0  0  0  0  0  0  0  0  0  0
  -20.0381  -27.3128   21.2985 C   0  0  0  0  0  0  0  0  0  0  0  0
  -20.0841  -26.9936   22.5829 C   0  0  0  0  0  0  0  0  0  0  0  0
  -21.5780  -23.9426   22.8113 C   0  0  0  0  0  0  0  0  0  0  0  0
  -30.2286  -27.2950   19.8643 C   0  0  0  0  0  0  0  0  0  0  0  0
  -28.4644  -18.3290   22.7927 C   0  0  0  0  0  0  0  0  0  0  0  0
  -26.8211  -15.8486   21.5007 C   0  0  0  0  0  0  0  0  0  0  0  0
  -23.7985  -14.4508   20.7547 C   0  0  0  0  0  0  0  0  0  0  0  0
  -23.7143  -30.6165   23.4880 C   0  0  0  0  0  0  0  0  0  0  0  0
  -33.0129  -17.3131   20.7103 C   0  0  0  0  0  0  0  0  0  0  0  0
  -26.8667  -17.7579   24.6575 C   0  0  0  0  0  0  0  0  0  0  0  0
  -25.4909  -17.9221   22.0451 C   0  0  0  0  0  0  0  0  0  0  0  0
  -31.5702  -17.3581   20.2134 C   0  0  0  0  0  0  0  0  0  0  0  0
  -24.3454  -31.4248   20.0833 C   0  0  0  0  0  0  0  0  0  0  0  0
  -30.8940  -18.6525   20.6539 C   0  0  0  0  0  0  0  0  0  0  0  0
  -25.3972  -30.3797   19.7133 C   0  0  0  0  0  0  0  0  0  0  0  0
  -23.2600  -30.8476   20.9926 C   0  0  0  0  0  0  0  0  0  0  0  0
  -24.8370  -29.1382   21.8384 C   0  0  0  0  0  0  0  0  0  0  0  0
  -30.8390  -18.7535   22.1830 C   0  0  1  0  0  0  0  0  0  0  0  0
  -27.5363  -17.2962   23.3668 C   0  0  1  0  0  0  0  0  0  0  0  0
  -25.9720  -29.7052   20.9714 C   0  0  1  0  0  0  0  0  0  0  0  0
  -22.7754  -12.4358   19.6635 C   0  0  0  0  0  0  0  0  0  0  0  0
  -27.4892  -16.9993   18.7549 C   0  0  0  0  0  0  0  0  0  0  0  0
  -25.6975  -15.5435   17.7860 C   0  0  0  0  0  0  0  0  0  0  0  0
  -27.6676  -14.5098   18.9142 C   0  0  0  0  0  0  0  0  0  0  0  0
  -24.3225  -29.9462   25.8023 C   0  0  0  0  0  0  0  0  0  0  0  0
  -22.4499  -13.6350   23.2596 C   0  0  0  0  0  0  0  0  0  0  0  0
  -20.9852  -22.5830   22.5544 C   0  0  0  0  0  0  0  0  0  0  0  0
  -22.0785  -21.5280   22.5690 C   0  0  0  0  0  0  0  0  0  1  0  0
  -25.9101  -15.6745   20.3096 C   0  0  1  0  0  0  0  0  0  0  0  0
  -23.2563  -13.0492   20.9694 C   0  0  2  0  0  0  0  0  0  0  0  0
  -26.6851  -15.7003   18.9619 C   0  0  0  0  0  0  0  0  0  0  0  0
  -26.6033  -27.3749   20.4687 N   0  0  0  0  0  0  0  0  0  0  0  0
  -21.1954  -24.6462   23.8264 N   0  0  0  0  0  0  0  0  0  0  0  0
  -27.0034  -28.6487   20.6221 N   0  0  0  0  0  0  0  0  0  0  0  0
  -26.5710  -16.9597   22.3184 N   0  0  0  0  0  0  0  0  0  0  0  0
  -23.8572  -30.1794   22.1575 N   0  0  0  0  0  0  0  0  0  0  0  0
  -28.9112  -30.0508   20.5513 N   0  0  0  0  0  0  0  0  0  0  0  0
  -30.5815  -25.9689   19.5794 N   0  0  0  0  0  0  0  0  0  0  0  0
  -29.7806  -17.9171   22.7071 N   0  0  0  0  0  0  0  0  0  0  0  0
  -25.1612  -14.4447   20.5448 N   0  0  0  0  0  0  0  0  0  0  0  0
  -23.7791  -29.6151   24.4806 N   0  0  0  0  0  0  0  0  0  0  0  0
  -22.1129  -13.0768   21.9248 N   0  3  0  0  0  0  0  0  0  0  0  0
  -31.1209  -28.1764   19.8872 O   0  0  0  0  0  0  0  0  0  0  0  0
  -28.0190  -19.4184   22.4513 O   0  0  0  0  0  0  0  0  0  0  0  0
  -27.7170  -15.0250   21.7023 O   0  0  0  0  0  0  0  0  0  0  0  0
  -23.0839  -15.4507   20.7678 O   0  0  0  0  0  0  0  0  0  0  0  0
  -23.5667  -31.8119   23.7694 O   0  0  0  0  0  0  0  0  0  0  0  0
  -27.6856  -21.2223   19.2347 O   0  0  0  0  0  0  0  0  0  0  0  0
  -22.6952  -21.5059   23.8557 O   0  0  0  0  0  0  0  0  0  1  0  0
  -23.7016  -19.2124   15.9954 F   0  0  0  0  0  0  0  0  0  0  0  0
  -23.5035  -24.8736   25.3124 F   0  0  0  0  0  0  0  0  0  0  0  0
  -28.3001  -19.8803   16.8971 F   0  0  0  0  0  0  0  0  0  0  0  0
  1  2  1  0  0  0  0
  1  5  2  0  0  0  0
  2  6  2  0  0  0  0
  3  8  2  0  0  0  0
  3 17  1  0  0  0  0
  4  9  1  0  0  0  0
  4 17  2  0  0  0  0
  5 20  1  0  0  0  0
  6 22  1  0  0  0  0
  7 10  2  0  0  0  0
  7 21  1  0  0  0  0
  8 26  1  0  0  0  0
  9 26  2  0  0  0  0
 10 27  1  0  0  0  0
 11 12  2  0  0  0  0
 11 28  1  0  0  0  0
 12 29  1  0  0  0  0
 13 18  1  0  0  0  0
 13 25  2  0  0  0  0
 14 23  1  0  0  0  0
 14 27  2  0  0  0  0
 15 25  1  0  0  0  0
 15 30  2  0  0  0  0
 16 29  2  0  0  0  0
 16 31  1  0  0  0  0
 17 32  1  0  0  0  0
 18 24  2  0  0  0  0
 18 35  1  0  0  0  0
 19 32  1  0  0  0  0
 19 33  2  0  0  0  0
 19 37  1  0  0  0  0
 20 22  2  0  0  0  0
 20 42  1  0  0  0  0
 21 23  2  0  0  0  0
 21 43  1  0  0  0  0
 22 51  1  0  0  0  0
 23 44  1  0  0  0  0
 24 30  1  0  0  0  0
 24 66  1  0  0  0  0
 25 74  1  0  0  0  0
 26 81  1  0  0  0  0
 27 82  1  0  0  0  0
 28 31  2  0  0  0  0
 28 81  1  0  0  0  0
 29 83  1  0  0  0  0
 30 84  1  0  0  0  0
 31 85  1  0  0  0  0
 32 65  2  0  0  0  0
 33 67  1  0  0  0  0
 33 70  1  0  0  0  0
 34 35  2  0  0  0  0
 36 60  1  0  0  0  0
 36 66  2  0  0  0  0
 37 71  1  0  0  0  0
 37 76  2  0  0  0  0
 38 52  1  0  0  0  0
 38 72  1  0  0  0  0
 38 77  2  0  0  0  0
 39 62  1  0  0  0  0
 39 68  1  0  0  0  0
 39 78  2  0  0  0  0
 40 63  1  0  0  0  0
 40 73  1  0  0  0  0
 40 79  2  0  0  0  0
 41 69  1  0  0  0  0
 41 74  1  0  0  0  0
 41 80  2  0  0  0  0
 42 45  1  0  0  0  0
 43 52  1  0  0  0  0
 44 68  1  0  0  0  0
 45 47  1  0  0  0  0
 46 48  1  0  0  0  0
 46 49  1  0  0  0  0
 47 51  1  0  0  0  0
 48 53  1  0  0  0  0
 49 69  1  0  0  0  0
 50 53  1  0  0  0  0
 50 69  1  0  0  0  0
 51 72  1  0  0  0  0
 52 68  1  0  0  0  0
 53 67  1  0  0  0  0
 54 63  1  0  0  0  0
 55 64  1  0  0  0  0
 56 64  1  0  0  0  0
 57 64  1  0  0  0  0
 58 74  1  0  0  0  0
 59 75  1  0  0  0  0
 60 61  1  0  0  0  0
 61 82  1  0  0  0  0
 62 64  1  0  0  0  0
 62 73  1  0  0  0  0
 63 75  1  0  0  0  0
 65 67  1  0  0  0  0
M  CHG  1  75   1
M  ISO  4  41 100  61 101  74 100  82 101
M  END
> <Batch ID>
0115

> <Smiles>
C=Cc1cc([100N:0](C)[100C:0](=O)N2CCCC(n3nc(-c4ccc(Oc5ccc(F)cc5F)cc4)c(C(N)=O)c3N)C2)cc(F)c1NC=C[101CH2:1][101O:1]c1ccc2c(c1)CN(C(=O)C(NC(=O)C(C)NC)C(C)(C)C)C(C(=O)NC1CCCc3ccccc31)C2

> <Shape>
0.194

> <Color>
0.072

> <Negative vol penalty>
0.000

$$$$

  -OEChem-04052301403D

 85 93  0     1  0  0  0  0  0999 V2000
  -22.4426  -35.1287   17.8483 C   0  0  0  0  0  0  0  0  0  0  0  0
  -22.8844  -33.9919   17.1790 C   0  0  0  0  0  0  0  0  0  0  0  0
  -23.0954  -10.0184   19.9077 C   0  0  0  0  0  0  0  0  0  0  0  0
  -23.6609   -9.9103   22.2541 C   0  0  0  0  0  0  0  0  0  0  0  0
  -23.0745  -35.5343   19.0231 C   0  0  0  0  0  0  0  0  0  0  0  0
  -23.9591  -33.2606   17.6836 C   0  0  0  0  0  0  0  0  0  0  0  0
  -24.7307  -27.1911   17.4177 C   0  0  0  0  0  0  0  0  0  0  0  0
  -28.6724  -17.2511   15.3110 C   0  0  0  0  0  0  0  0  0  0  0  0
  -22.2946   -8.8850   20.0485 C   0  0  0  0  0  0  0  0  0  0  0  0
  -22.8601   -8.7769   22.3949 C   0  0  0  0  0  0  0  0  0  0  0  0
  -25.4696  -26.3761   16.5612 C   0  0  0  0  0  0  0  0  0  0  0  0
  -28.6695  -18.6332   15.1230 C   0  0  0  0  0  0  0  0  0  0  0  0
  -23.0838   -5.4699   21.7282 C   0  0  0  0  0  0  0  0  0  0  0  0
  -23.6020   -4.3960   22.4518 C   0  0  0  0  0  0  0  0  0  0  0  0
  -27.2806  -26.3537   18.1547 C   0  0  0  0  0  0  0  0  0  0  0  0
  -29.4895  -17.5591   17.5637 C   0  0  0  0  0  0  0  0  0  0  0  0
  -21.7710   -4.5680   24.0186 C   0  0  0  0  0  0  0  0  0  0  0  0
  -23.7786  -10.5310   21.0105 C   0  0  0  0  0  0  0  0  0  0  0  0
  -24.2147  -13.0444   21.0221 C   0  0  0  0  0  0  0  0  0  0  0  0
  -24.1513  -34.8022   19.5475 C   0  0  0  0  0  0  0  0  0  0  0  0
  -25.2664  -27.6031   18.6464 C   0  0  0  0  0  0  0  0  0  0  0  0
  -24.6069  -33.6576   18.8657 C   0  0  0  0  0  0  0  0  0  0  0  0
  -26.5455  -27.1718   19.0261 C   0  0  0  0  0  0  0  0  0  0  0  0
  -29.0824  -16.7140   16.5313 C   0  0  0  0  0  0  0  0  0  0  0  0
  -22.1769   -8.2643   21.2921 C   0  0  0  0  0  0  0  0  0  0  0  0
  -26.7459  -25.9597   16.9284 C   0  0  0  0  0  0  0  0  0  0  0  0
  -29.0766  -19.4783   16.1553 C   0  0  0  0  0  0  0  0  0  0  0  0
  -21.9091   -6.0930   22.1498 C   0  0  0  0  0  0  0  0  0  0  0  0
  -29.4866  -18.9412   17.3757 C   0  0  0  0  0  0  0  0  0  0  0  0
  -22.9457   -3.9450   23.5970 C   0  0  0  0  0  0  0  0  0  0  0  0
  -21.2527   -5.6420   23.2950 C   0  0  0  0  0  0  0  0  0  0  0  0
  -24.6065  -11.7014   20.8656 C   0  0  0  0  0  0  0  0  0  0  0  0
  -25.3581  -13.7660   20.7806 C   0  0  0  0  0  0  0  0  0  0  0  0
  -27.9865  -22.9061   15.4779 C   0  0  0  0  0  0  0  0  0  0  0  0
  -27.3415  -23.8103   16.2240 C   0  0  0  0  0  0  0  0  0  1  0  0
  -28.1958  -14.4314   16.0787 C   0  0  0  0  0  0  0  0  0  0  0  0
  -22.9319  -13.5909   21.3560 C   0  0  0  0  0  0  0  0  0  0  0  0
  -25.9999  -30.4100   19.9453 C   0  0  0  0  0  0  0  0  0  0  0  0
  -26.5855  -28.6011   22.5735 C   0  0  0  0  0  0  0  0  0  0  0  0
  -27.3806  -25.5456   23.8692 C   0  0  0  0  0  0  0  0  0  0  0  0
  -29.9204  -14.7085   17.6908 C   0  0  0  0  0  0  0  0  0  0  0  0
  -24.8330  -35.3063   20.7948 C   0  0  0  0  0  0  0  0  0  0  0  0
  -24.4460  -28.4604   19.5708 C   0  0  0  0  0  0  0  0  0  0  0  0
  -27.1580  -27.5698   20.3432 C   0  0  0  0  0  0  0  0  0  0  0  0
  -25.7247  -34.2643   21.4652 C   0  0  0  0  0  0  0  0  0  0  0  0
  -30.1628  -12.2892   20.3113 C   0  0  0  0  0  0  0  0  0  0  0  0
  -26.6042  -33.5693   20.4306 C   0  0  0  0  0  0  0  0  0  0  0  0
  -28.7082  -12.0054   20.6828 C   0  0  0  0  0  0  0  0  0  0  0  0
  -30.3143  -12.5300   18.8135 C   0  0  0  0  0  0  0  0  0  0  0  0
  -27.9822  -13.3544   18.6589 C   0  0  0  0  0  0  0  0  0  0  0  0
  -25.7537  -32.8240   19.3950 C   0  0  1  0  0  0  0  0  0  0  0  0
  -25.2932  -29.2410   20.5710 C   0  0  1  0  0  0  0  0  0  0  0  0
  -27.7818  -13.1198   20.1673 C   0  0  1  0  0  0  0  0  0  0  0  0
  -27.8269  -24.3861   26.0495 C   0  0  0  0  0  0  0  0  0  0  0  0
  -29.3506  -29.8861   22.6880 C   0  0  0  0  0  0  0  0  0  0  0  0
  -30.0613  -28.0537   24.2390 C   0  0  0  0  0  0  0  0  0  0  0  0
  -28.2339  -29.6139   24.9091 C   0  0  0  0  0  0  0  0  0  0  0  0
  -25.1041  -23.6941   23.4837 C   0  0  0  0  0  0  0  0  0  0  0  0
  -30.2912  -19.1273   19.6059 C   0  0  0  0  0  0  0  0  0  0  0  0
  -27.8183  -21.4303   15.6434 C   0  0  0  0  0  0  0  0  0  0  0  0
  -27.7892  -27.8771   23.1265 C   0  0  1  0  0  0  0  0  0  0  0  0
  -26.7767  -24.7475   25.0106 C   0  0  2  0  0  0  0  0  0  0  0  0
  -28.8483  -28.8516   23.7149 C   0  0  0  0  0  0  0  0  0  0  0  0
  -25.8978  -11.5745   20.5490 N   0  0  0  0  0  0  0  0  0  0  0  0
  -26.3274  -12.8471   20.5045 N   0  0  0  0  0  0  0  0  0  0  0  0
  -26.3189  -28.4139   21.2098 N   0  0  0  0  0  0  0  0  0  0  0  0
  -29.4031  -13.5768   18.3494 N   0  0  0  0  0  0  0  0  0  0  0  0
  -25.6189  -15.0905   20.7795 N   0  0  0  0  0  0  0  0  0  0  0  0
  -21.8651  -12.7078   21.5717 N   0  0  0  0  0  0  0  0  0  0  0  0
  -25.2629  -31.5789   19.9457 N   0  0  0  0  0  0  0  0  0  0  0  0
  -27.2757  -26.9036   24.0841 N   0  0  0  0  0  0  0  0  0  0  0  0
  -29.0859  -15.2839   16.7252 N   0  0  0  0  0  0  0  0  0  0  0  0
  -26.1704  -23.4867   24.4971 N   0  3  0  0  0  0  0  0  0  0  0  0
  -27.0896  -14.6638   15.6065 O   0  0  0  0  0  0  0  0  0  0  0  0
  -22.7335  -14.8263   21.4439 O   0  0  0  0  0  0  0  0  0  0  0  0
  -27.1308  -30.2628   19.4968 O   0  0  0  0  0  0  0  0  0  0  0  0
  -25.9026  -29.3010   23.3254 O   0  0  0  0  0  0  0  0  0  0  0  0
  -27.8971  -25.0173   22.8871 O   0  0  0  0  0  0  0  0  0  0  0  0
  -31.0450  -15.1698   17.9147 O   0  0  0  0  0  0  0  0  0  0  0  0
  -21.3954   -7.1585   21.4299 O   0  0  0  0  0  0  0  0  0  0  0  0
  -27.4695  -25.1647   16.0939 O   0  0  0  0  0  0  0  0  0  1  0  0
  -29.8876  -19.7561   18.3911 O   0  0  0  0  0  0  0  0  0  0  0  0
  -29.0701  -20.8344   15.9582 O   0  0  0  0  0  0  0  0  0  0  0  0
  -23.4427   -2.9127   24.2909 F   0  0  0  0  0  0  0  0  0  0  0  0
  -20.1232   -6.2357   23.7042 F   0  0  0  0  0  0  0  0  0  0  0  0
  1  2  1  0  0  0  0
  1  5  2  0  0  0  0
  2  6  2  0  0  0  0
  3  9  2  0  0  0  0
  3 18  1  0  0  0  0
  4 10  1  0  0  0  0
  4 18  2  0  0  0  0
  5 20  1  0  0  0  0
  6 22  1  0  0  0  0
  7 11  2  0  0  0  0
  7 21  1  0  0  0  0
  8 12  2  0  0  0  0
  8 24  1  0  0  0  0
  9 25  1  0  0  0  0
 10 25  2  0  0  0  0
 11 26  1  0  0  0  0
 12 27  1  0  0  0  0
 13 14  2  0  0  0  0
 13 28  1  0  0  0  0
 14 30  1  0  0  0  0
 15 23  1  0  0  0  0
 15 26  2  0  0  0  0
 16 24  2  0  0  0  0
 16 29  1  0  0  0  0
 17 30  2  0  0  0  0
 17 31  1  0  0  0  0
 18 32  1  0  0  0  0
 19 32  1  0  0  0  0
 19 33  2  0  0  0  0
 19 37  1  0  0  0  0
 20 22  2  0  0  0  0
 20 42  1  0  0  0  0
 21 23  2  0  0  0  0
 21 43  1  0  0  0  0
 22 51  1  0  0  0  0
 23 44  1  0  0  0  0
 24 72  1  0  0  0  0
 25 80  1  0  0  0  0
 26 81  1  0  0  0  0
 27 29  2  0  0  0  0
 27 83  1  0  0  0  0
 28 31  2  0  0  0  0
 28 80  1  0  0  0  0
 29 82  1  0  0  0  0
 30 84  1  0  0  0  0
 31 85  1  0  0  0  0
 32 64  2  0  0  0  0
 33 65  1  0  0  0  0
 33 68  1  0  0  0  0
 34 35  2  0  0  0  0
 34 60  1  0  0  0  0
 35 81  1  0  0  0  0
 36 72  1  0  0  0  0
 36 74  2  0  0  0  0
 37 69  1  0  0  0  0
 37 75  2  0  0  0  0
 38 52  1  0  0  0  0
 38 70  1  0  0  0  0
 38 76  2  0  0  0  0
 39 61  1  0  0  0  0
 39 66  1  0  0  0  0
 39 77  2  0  0  0  0
 40 62  1  0  0  0  0
 40 71  1  0  0  0  0
 40 78  2  0  0  0  0
 41 67  1  0  0  0  0
 41 72  1  0  0  0  0
 41 79  2  0  0  0  0
 42 45  1  0  0  0  0
 43 52  1  0  0  0  0
 44 66  1  0  0  0  0
 45 47  1  0  0  0  0
 46 48  1  0  0  0  0
 46 49  1  0  0  0  0
 47 51  1  0  0  0  0
 48 53  1  0  0  0  0
 49 67  1  0  0  0  0
 50 53  1  0  0  0  0
 50 67  1  0  0  0  0
 51 70  1  0  0  0  0
 52 66  1  0  0  0  0
 53 65  1  0  0  0  0
 54 62  1  0  0  0  0
 55 63  1  0  0  0  0
 56 63  1  0  0  0  0
 57 63  1  0  0  0  0
 58 73  1  0  0  0  0
 59 82  1  0  0  0  0
 60 83  1  0  0  0  0
 61 63  1  0  0  0  0
 61 71  1  0  0  0  0
 62 73  1  0  0  0  0
 64 65  1  0  0  0  0
M  CHG  1  73   1
M  ISO  4  35 101  41 100  72 100  81 101
M  END
> <Batch ID>
0115

> <Smiles>
CNC(C)C(=O)NC(C(=O)N1Cc2cc([101O:1][101CH:1]=CCOc3ccc([100N:0](C=O)[100C:0](=O)N4CCCC(n5nc(-c6ccc(Oc7ccc(F)cc7F)cc6)c(C(N)=O)c5N)C4)cc3OC)ccc2CC1C(=O)NC1CCCc2ccccc21)C(C)(C)C

> <Shape>
0.223

> <Color>
0.189

> <Negative vol penalty>
0.000

$$$$

  -OEChem-04052301403D

 86 94  0     1  0  0  0  0  0999 V2000
  -14.4543  -27.7028   21.8717 C   0  0  0  0  0  0  0  0  0  0  0  0
  -15.3085  -27.8039   20.7783 C   0  0  0  0  0  0  0  0  0  0  0  0
  -26.7903  -13.9617   21.7664 C   0  0  0  0  0  0  0  0  0  0  0  0
  -26.6070  -13.6053   19.3839 C   0  0  0  0  0  0  0  0  0  0  0  0
  -24.5998  -21.1566   12.7742 C   0  0  0  0  0  0  0  0  0  0  0  0
  -14.8193  -28.2650   23.0943 C   0  0  0  0  0  0  0  0  0  0  0  0
  -16.5278  -28.4682   20.9066 C   0  0  0  0  0  0  0  0  0  0  0  0
  -20.3544  -25.9362   18.7639 C   0  0  0  0  0  0  0  0  0  0  0  0
  -25.9865  -12.8450   21.9954 C   0  0  0  0  0  0  0  0  0  0  0  0
  -25.8032  -12.4885   19.6128 C   0  0  0  0  0  0  0  0  0  0  0  0
  -25.4097  -20.0347   12.9500 C   0  0  0  0  0  0  0  0  0  0  0  0
  -20.4687  -26.0096   17.3764 C   0  0  0  0  0  0  0  0  0  0  0  0
  -23.6863  -10.2978   23.1974 C   0  0  0  0  0  0  0  0  0  0  0  0
  -22.6686  -10.4125   24.1442 C   0  0  0  0  0  0  0  0  0  0  0  0
  -25.1134  -21.8796   15.0215 C   0  0  0  0  0  0  0  0  0  0  0  0
  -22.1935  -27.6794   17.6127 C   0  0  0  0  0  0  0  0  0  0  0  0
  -21.6740  -12.1999   22.8585 C   0  0  0  0  0  0  0  0  0  0  0  0
  -27.1005  -14.3419   20.4607 C   0  0  0  0  0  0  0  0  0  0  0  0
  -24.4517  -22.0791   13.8099 C   0  0  0  0  0  0  0  0  0  0  0  0
  -29.3333  -15.5251   20.1110 C   0  0  0  0  0  0  0  0  0  0  0  0
  -16.0479  -28.9281   23.2402 C   0  0  0  0  0  0  0  0  0  0  0  0
  -21.1526  -26.7432   19.5875 C   0  0  0  0  0  0  0  0  0  0  0  0
  -16.9090  -29.0409   22.1319 C   0  0  0  0  0  0  0  0  0  0  0  0
  -22.0893  -27.6125   19.0105 C   0  0  0  0  0  0  0  0  0  0  0  0
  -25.9233  -20.7577   15.1973 C   0  0  0  0  0  0  0  0  0  0  0  0
  -25.4929  -12.1084   20.9186 C   0  0  0  0  0  0  0  0  0  0  0  0
  -21.3863  -26.8833   16.8005 C   0  0  0  0  0  0  0  0  0  0  0  0
  -26.0715  -19.8352   14.1616 C   0  0  0  0  0  0  0  0  0  0  0  0
  -23.6980  -11.1342   22.0811 C   0  0  0  0  0  0  0  0  0  0  0  0
  -21.6624  -11.3636   23.9748 C   0  0  0  0  0  0  0  0  0  0  0  0
  -22.6918  -12.0852   21.9117 C   0  0  0  0  0  0  0  0  0  0  0  0
  -27.9303  -15.4957   20.2236 C   0  0  0  0  0  0  0  0  0  0  0  0
  -29.6323  -16.8472   19.8894 C   0  0  0  0  0  0  0  0  0  0  0  0
  -23.5957  -23.2644   13.6236 C   0  0  0  0  0  0  0  0  0  0  0  0
  -22.6376  -23.3682   12.6915 C   0  0  0  0  0  0  0  0  0  0  0  0
  -30.2814  -14.4532   20.1988 C   0  0  0  0  0  0  0  0  0  0  0  0
  -21.8011  -24.5836   12.5295 C   0  0  0  0  0  0  0  0  0  0  0  0
  -22.0169  -25.7585   13.4337 C   0  0  0  0  0  0  0  0  0  0  0  0
  -20.5810  -29.0290   21.7211 C   0  0  0  0  0  0  0  0  0  0  0  0
  -23.7793  -28.8217   22.2214 C   0  0  0  0  0  0  0  0  0  0  0  0
  -26.8513  -27.9596   21.0105 C   0  0  0  0  0  0  0  0  0  0  0  0
  -26.5397  -21.3961   17.5551 C   0  0  0  0  0  0  0  0  0  0  0  0
  -16.3780  -29.5609   24.5688 C   0  0  0  0  0  0  0  0  0  0  0  0
  -21.0360  -26.6327   21.0830 C   0  0  0  0  0  0  0  0  0  0  0  0
  -22.9838  -28.4855   19.8509 C   0  0  0  0  0  0  0  0  0  0  0  0
  -17.8532  -29.9227   24.7214 C   0  0  0  0  0  0  0  0  0  0  0  0
  -28.0035  -21.2582   20.7978 C   0  0  0  0  0  0  0  0  0  0  0  0
  -18.3599  -30.6361   23.4720 C   0  0  0  0  0  0  0  0  0  0  0  0
  -28.2841  -19.7682   21.0058 C   0  0  0  0  0  0  0  0  0  0  0  0
  -26.7013  -21.4887   20.0330 C   0  0  0  0  0  0  0  0  0  0  0  0
  -26.8723  -19.2734   18.9689 C   0  0  0  0  0  0  0  0  0  0  0  0
  -18.2510  -29.7321   22.2381 C   0  0  1  0  0  0  0  0  0  0  0  0
  -21.5375  -27.8739   21.8147 C   0  0  1  0  0  0  0  0  0  0  0  0
  -28.2065  -18.9894   19.6780 C   0  0  2  0  0  0  0  0  0  0  0  0
  -29.3259  -27.5425   21.0229 C   0  0  0  0  0  0  0  0  0  0  0  0
  -23.9224  -31.8322   21.7453 C   0  0  0  0  0  0  0  0  0  0  0  0
  -26.3960  -31.5958   21.4392 C   0  0  0  0  0  0  0  0  0  0  0  0
  -25.3494  -31.0043   23.6249 C   0  0  0  0  0  0  0  0  0  0  0  0
  -26.4936  -25.1687   21.9281 C   0  0  0  0  0  0  0  0  0  0  0  0
  -26.2333  -17.5564   14.8222 C   0  0  0  0  0  0  0  0  0  0  0  0
  -21.2101  -25.7731   14.7047 C   0  0  0  0  0  0  0  0  0  1  0  0
  -24.9990  -29.4882   21.6322 C   0  0  1  0  0  0  0  0  0  0  0  0
  -27.9826  -27.1500   21.6182 C   0  0  2  0  0  0  0  0  0  0  0  0
  -25.1486  -30.9652   22.0942 C   0  0  0  0  0  0  0  0  0  0  0  0
  -27.3765  -16.7032   20.0851 N   0  0  0  0  0  0  0  0  0  0  0  0
  -20.8731  -24.7192   11.6428 N   0  0  0  0  0  0  0  0  0  0  0  0
  -28.4368  -17.5038   19.8833 N   0  0  0  0  0  0  0  0  0  0  0  0
  -22.8278  -28.3459   21.3082 N   0  0  0  0  0  0  0  0  0  0  0  0
  -26.7011  -20.7230   18.7846 N   0  0  0  0  0  0  0  0  0  0  0  0
  -30.7985  -17.5006   19.7012 N   0  0  0  0  0  0  0  0  0  0  0  0
  -29.8038  -13.1561   20.4304 N   0  0  0  0  0  0  0  0  0  0  0  0
  -26.5889  -20.5684   16.4338 N   0  0  0  0  0  0  0  0  0  0  0  0
  -19.3235  -28.7605   22.2271 N   0  0  0  0  0  0  0  0  0  0  0  0
  -26.1340  -28.6375   21.9734 N   0  0  0  0  0  0  0  0  0  0  0  0
  -27.7676  -25.6955   21.3747 N   0  3  0  0  0  0  0  0  0  0  0  0
  -31.5168  -14.6426   20.0920 O   0  0  0  0  0  0  0  0  0  0  0  0
  -22.8109  -26.6148   13.0760 O   0  0  0  0  0  0  0  0  0  0  0  0
  -20.9566  -30.0859   21.2276 O   0  0  0  0  0  0  0  0  0  0  0  0
  -23.6781  -28.7205   23.4466 O   0  0  0  0  0  0  0  0  0  0  0  0
  -26.6287  -27.9906   19.8022 O   0  0  0  0  0  0  0  0  0  0  0  0
  -26.3977  -22.6203   17.4992 O   0  0  0  0  0  0  0  0  0  0  0  0
  -24.7087  -11.0185   21.1416 O   0  0  0  0  0  0  0  0  0  0  0  0
  -26.8581  -18.7323   14.3125 O   0  0  0  0  0  0  0  0  0  0  0  0
  -21.4993  -26.9574   15.4464 O   0  0  0  0  0  0  0  0  0  1  0  0
  -20.6842  -11.4726   24.8834 F   0  0  0  0  0  0  0  0  0  0  0  0
  -22.6971  -12.8907   20.8407 F   0  0  0  0  0  0  0  0  0  0  0  0
  1  2  1  0  0  0  0
  1  6  2  0  0  0  0
  2  7  2  0  0  0  0
  3  9  2  0  0  0  0
  3 18  1  0  0  0  0
  4 10  1  0  0  0  0
  4 18  2  0  0  0  0
  5 11  2  0  0  0  0
  5 19  1  0  0  0  0
  6 21  1  0  0  0  0
  7 23  1  0  0  0  0
  8 12  2  0  0  0  0
  8 22  1  0  0  0  0
  9 26  1  0  0  0  0
 10 26  2  0  0  0  0
 11 28  1  0  0  0  0
 12 27  1  0  0  0  0
 13 14  2  0  0  0  0
 13 29  1  0  0  0  0
 14 30  1  0  0  0  0
 15 19  2  0  0  0  0
 15 25  1  0  0  0  0
 16 24  1  0  0  0  0
 16 27  2  0  0  0  0
 17 30  2  0  0  0  0
 17 31  1  0  0  0  0
 18 32  1  0  0  0  0
 19 34  1  0  0  0  0
 20 32  1  0  0  0  0
 20 33  2  0  0  0  0
 20 36  1  0  0  0  0
 21 23  2  0  0  0  0
 21 43  1  0  0  0  0
 22 24  2  0  0  0  0
 22 44  1  0  0  0  0
 23 52  1  0  0  0  0
 24 45  1  0  0  0  0
 25 28  2  0  0  0  0
 25 72  1  0  0  0  0
 26 82  1  0  0  0  0
 27 84  1  0  0  0  0
 28 83  1  0  0  0  0
 29 31  2  0  0  0  0
 29 82  1  0  0  0  0
 30 85  1  0  0  0  0
 31 86  1  0  0  0  0
 32 65  2  0  0  0  0
 33 67  1  0  0  0  0
 33 70  1  0  0  0  0
 34 35  2  0  0  0  0
 35 37  1  0  0  0  0
 36 71  1  0  0  0  0
 36 76  2  0  0  0  0
 37 38  1  0  0  0  0
 37 66  2  0  0  0  0
 38 61  1  0  0  0  0
 38 77  2  0  0  0  0
 39 53  1  0  0  0  0
 39 73  1  0  0  0  0
 39 78  2  0  0  0  0
 40 62  1  0  0  0  0
 40 68  1  0  0  0  0
 40 79  2  0  0  0  0
 41 63  1  0  0  0  0
 41 74  1  0  0  0  0
 41 80  2  0  0  0  0
 42 69  1  0  0  0  0
 42 72  1  0  0  0  0
 42 81  2  0  0  0  0
 43 46  1  0  0  0  0
 44 53  1  0  0  0  0
 45 68  1  0  0  0  0
 46 48  1  0  0  0  0
 47 49  1  0  0  0  0
 47 50  1  0  0  0  0
 48 52  1  0  0  0  0
 49 54  1  0  0  0  0
 50 69  1  0  0  0  0
 51 54  1  0  0  0  0
 51 69  1  0  0  0  0
 52 73  1  0  0  0  0
 53 68  1  0  0  0  0
 54 67  1  0  0  0  0
 55 63  1  0  0  0  0
 56 64  1  0  0  0  0
 57 64  1  0  0  0  0
 58 64  1  0  0  0  0
 59 75  1  0  0  0  0
 60 83  1  0  0  0  0
 61 84  1  0  0  0  0
 62 64  1  0  0  0  0
 62 74  1  0  0  0  0
 63 75  1  0  0  0  0
 65 67  1  0  0  0  0
M  CHG  1  75   1
M  ISO  4  42 100  61 101  72 100  84 101
M  END
> <Batch ID>
0115

> <Smiles>
CNC(C)C(=O)NC(C(=O)N1Cc2cc([101O:1][101CH2:1]C(=O)C(=N)C=Cc3ccc(OC)c([100NH:0][100C:0](=O)N4CCCC(n5nc(-c6ccc(Oc7ccc(F)cc7F)cc6)c(C(N)=O)c5N)C4)c3)ccc2CC1C(=O)NC1CCCc2ccccc21)C(C)(C)C

> <Shape>
0.233

> <Color>
0.067

> <Negative vol penalty>
0.000

$$$$

  -OEChem-04052301403D

 87 95  0     1  0  0  0  0  0999 V2000
  -26.9393  -38.7714   23.1456 C   0  0  0  0  0  0  0  0  0  0  0  0
  -27.5109  -37.6707   22.5154 C   0  0  0  0  0  0  0  0  0  0  0  0
  -24.6072   -8.6409   21.8759 C   0  0  0  0  0  0  0  0  0  0  0  0
  -23.3592   -9.1167   19.8627 C   0  0  0  0  0  0  0  0  0  0  0  0
  -26.2295  -38.6022   24.3337 C   0  0  0  0  0  0  0  0  0  0  0  0
  -27.3740  -36.4002   23.0736 C   0  0  0  0  0  0  0  0  0  0  0  0
  -26.8194  -31.0964   20.0624 C   0  0  0  0  0  0  0  0  0  0  0  0
  -23.4711   -8.0646   22.4440 C   0  0  0  0  0  0  0  0  0  0  0  0
  -22.2231   -8.5404   20.4307 C   0  0  0  0  0  0  0  0  0  0  0  0
  -27.7402  -30.1009   19.7386 C   0  0  0  0  0  0  0  0  0  0  0  0
  -21.8026   -5.1303   22.2470 C   0  0  0  0  0  0  0  0  0  0  0  0
  -21.9559   -3.9130   22.9104 C   0  0  0  0  0  0  0  0  0  0  0  0
  -28.0290  -21.5273   19.7750 C   0  0  0  0  0  0  0  0  0  0  0  0
  -28.2403  -20.3607   17.2497 C   0  0  0  0  0  0  0  0  0  0  0  0
  -27.0690  -28.8534   21.6911 C   0  0  0  0  0  0  0  0  0  0  0  0
  -21.1490   -4.9236   24.9512 C   0  0  0  0  0  0  0  0  0  0  0  0
  -24.5513   -9.1670   20.5852 C   0  0  0  0  0  0  0  0  0  0  0  0
  -27.4095  -20.3044   19.5177 C   0  0  0  0  0  0  0  0  0  0  0  0
  -27.5152  -19.7210   18.2551 C   0  0  0  0  0  0  0  0  0  0  0  0
  -26.7133   -9.1168   19.2321 C   0  0  0  0  0  0  0  0  0  0  0  0
  -26.0757  -37.3277   24.9017 C   0  0  0  0  0  0  0  0  0  0  0  0
  -26.0228  -30.9828   21.2109 C   0  0  0  0  0  0  0  0  0  0  0  0
  -26.6627  -36.2140   24.2711 C   0  0  0  0  0  0  0  0  0  0  0  0
  -26.1371  -29.8476   22.0259 C   0  0  0  0  0  0  0  0  0  0  0  0
  -22.2790   -8.0144   21.7214 C   0  0  0  0  0  0  0  0  0  0  0  0
  -27.8672  -28.9805   20.5545 C   0  0  0  0  0  0  0  0  0  0  0  0
  -21.3226   -6.2443   22.9357 C   0  0  0  0  0  0  0  0  0  0  0  0
  -28.7541  -22.1670   18.7696 C   0  0  0  0  0  0  0  0  0  0  0  0
  -21.6291   -3.8096   24.2625 C   0  0  0  0  0  0  0  0  0  0  0  0
  -28.8597  -21.5837   17.5070 C   0  0  0  0  0  0  0  0  0  0  0  0
  -20.9958   -6.1409   24.2877 C   0  0  0  0  0  0  0  0  0  0  0  0
  -25.7244   -9.7628   19.9981 C   0  0  0  0  0  0  0  0  0  0  0  0
  -27.6051  -10.1116   18.9135 C   0  0  0  0  0  0  0  0  0  0  0  0
  -27.1860  -19.3288   21.7568 C   0  0  0  0  0  0  0  0  0  0  0  0
  -26.6581  -19.6625   20.5890 C   0  0  0  0  0  0  0  0  0  0  0  0
  -26.8702  -18.4268   17.9500 C   0  0  0  0  0  0  0  0  0  0  0  0
  -26.8164   -7.7406   18.8435 C   0  0  0  0  0  0  0  0  0  0  0  0
  -25.6847  -32.6721   23.8822 C   0  0  0  0  0  0  0  0  0  0  0  0
  -29.0376  -25.6697   19.6748 C   0  0  0  0  0  0  0  0  0  0  0  0
  -23.2551  -30.5931   24.4273 C   0  0  0  0  0  0  0  0  0  0  0  0
  -21.8713  -27.5321   23.8257 C   0  0  0  0  0  0  0  0  0  0  0  0
  -26.7179  -16.0127   18.5208 C   0  0  0  0  0  0  0  0  0  0  0  0
  -25.3400  -37.2009   26.2122 C   0  0  0  0  0  0  0  0  0  0  0  0
  -25.0154  -32.0527   21.5318 C   0  0  0  0  0  0  0  0  0  0  0  0
  -25.2911  -29.6682   23.2590 C   0  0  0  0  0  0  0  0  0  0  0  0
  -24.9224  -35.7697   26.5403 C   0  0  0  0  0  0  0  0  0  0  0  0
  -29.3303  -14.2607   20.4864 C   0  0  0  0  0  0  0  0  0  0  0  0
  -26.0823  -34.8076   26.3036 C   0  0  0  0  0  0  0  0  0  0  0  0
  -28.7315  -12.8612   20.5730 C   0  0  0  0  0  0  0  0  0  0  0  0
  -28.2564  -15.3471   20.4458 C   0  0  0  0  0  0  0  0  0  0  0  0
  -26.6502  -13.7344   19.4480 C   0  0  0  0  0  0  0  0  0  0  0  0
  -26.5150  -34.8164   24.8325 C   0  0  1  0  0  0  0  0  0  0  0  0
  -24.6194  -32.0779   23.0048 C   0  0  1  0  0  0  0  0  0  0  0  0
  -27.7248  -12.6378   19.4355 C   0  0  2  0  0  0  0  0  0  0  0  0
  -19.9018  -26.1048   24.4433 C   0  0  0  0  0  0  0  0  0  0  0  0
  -24.5376  -29.9979   27.1312 C   0  0  0  0  0  0  0  0  0  0  0  0
  -23.1154  -27.9424   27.2750 C   0  0  0  0  0  0  0  0  0  0  0  0
  -22.0448  -30.1935   27.1794 C   0  0  0  0  0  0  0  0  0  0  0  0
  -20.9295  -27.4152   21.0224 C   0  0  0  0  0  0  0  0  0  0  0  0
  -28.4466  -26.6756   20.6412 C   0  0  0  0  0  0  0  0  0  1  0  0
  -28.7530  -24.2136   19.9809 C   0  0  0  0  0  0  0  0  0  0  0  0
  -23.1300  -29.2479   25.1009 C   0  0  1  0  0  0  0  0  0  0  0  0
  -20.4572  -27.1207   23.4573 C   0  0  2  0  0  0  0  0  0  0  0  0
  -23.2244  -29.3494   26.6495 C   0  0  0  0  0  0  0  0  0  0  0  0
  -25.9651  -11.0670   20.1565 N   0  0  0  0  0  0  0  0  0  0  0  0
  -27.1155  -11.2486   19.4858 N   0  0  0  0  0  0  0  0  0  0  0  0
  -24.3250  -30.7447   23.5339 N   0  0  0  0  0  0  0  0  0  0  0  0
  -27.2373  -15.0785   19.4219 N   0  0  0  0  0  0  0  0  0  0  0  0
  -28.7526  -10.1159   18.2023 N   0  0  0  0  0  0  0  0  0  0  0  0
  -25.8136   -6.8528   19.2562 N   0  0  0  0  0  0  0  0  0  0  0  0
  -27.2348  -17.3558   18.6721 N   0  0  0  0  0  0  0  0  0  0  0  0
  -25.5923  -34.0429   24.0296 N   0  0  0  0  0  0  0  0  0  0  0  0
  -21.8851  -28.6624   24.6152 N   0  0  0  0  0  0  0  0  0  0  0  0
  -25.9678  -18.4034   16.9695 N   0  3  0  0  0  0  0  0  0  0  0  0
  -20.4318  -26.5163   22.0954 N   0  3  0  0  0  0  0  0  0  0  0  0
  -27.7783   -7.3077   18.1645 O   0  0  0  0  0  0  0  0  0  0  0  0
  -26.5273  -31.9408   24.3891 O   0  0  0  0  0  0  0  0  0  0  0  0
  -29.7076  -26.0140   18.7023 O   0  0  0  0  0  0  0  0  0  0  0  0
  -22.4297  -31.4745   24.6790 O   0  0  0  0  0  0  0  0  0  0  0  0
  -22.8641  -26.9105   23.4535 O   0  0  0  0  0  0  0  0  0  0  0  0
  -25.8672  -15.7843   17.6675 O   0  0  0  0  0  0  0  0  0  0  0  0
  -21.1702   -7.4520   22.2754 O   0  0  0  0  0  0  0  0  0  0  0  0
  -28.7656  -28.0077   20.2411 O   0  0  0  0  0  0  0  0  0  1  0  0
  -29.3628  -23.3732   19.0241 O   0  0  0  0  0  0  0  0  0  0  0  0
  -21.7749   -2.6401   24.8991 F   0  0  0  0  0  0  0  0  0  0  0  0
  -29.5544  -22.1937   16.5368 F   0  0  0  0  0  0  0  0  0  0  0  0
  -20.5330   -7.2074   24.9543 F   0  0  0  0  0  0  0  0  0  0  0  0
  1  2  1  0  0  0  0
  1  5  2  0  0  0  0
  2  6  2  0  0  0  0
  3  8  2  0  0  0  0
  3 17  1  0  0  0  0
  4  9  1  0  0  0  0
  4 17  2  0  0  0  0
  5 21  1  0  0  0  0
  6 23  1  0  0  0  0
  7 10  2  0  0  0  0
  7 22  1  0  0  0  0
  8 25  1  0  0  0  0
  9 25  2  0  0  0  0
 10 26  1  0  0  0  0
 11 12  2  0  0  0  0
 11 27  1  0  0  0  0
 12 29  1  0  0  0  0
 13 18  1  0  0  0  0
 13 28  2  0  0  0  0
 14 19  1  0  0  0  0
 14 30  2  0  0  0  0
 15 24  1  0  0  0  0
 15 26  2  0  0  0  0
 16 29  2  0  0  0  0
 16 31  1  0  0  0  0
 17 32  1  0  0  0  0
 18 19  2  0  0  0  0
 18 35  1  0  0  0  0
 19 36  1  0  0  0  0
 20 32  1  0  0  0  0
 20 33  2  0  0  0  0
 20 37  1  0  0  0  0
 21 23  2  0  0  0  0
 21 43  1  0  0  0  0
 22 24  2  0  0  0  0
 22 44  1  0  0  0  0
 23 52  1  0  0  0  0
 24 45  1  0  0  0  0
 25 82  1  0  0  0  0
 26 83  1  0  0  0  0
 27 31  2  0  0  0  0
 27 82  1  0  0  0  0
 28 30  1  0  0  0  0
 28 84  1  0  0  0  0
 29 85  1  0  0  0  0
 30 86  1  0  0  0  0
 31 87  1  0  0  0  0
 32 65  2  0  0  0  0
 33 66  1  0  0  0  0
 33 69  1  0  0  0  0
 34 35  2  0  0  0  0
 36 71  1  0  0  0  0
 36 74  2  0  0  0  0
 37 70  1  0  0  0  0
 37 76  2  0  0  0  0
 38 53  1  0  0  0  0
 38 72  1  0  0  0  0
 38 77  2  0  0  0  0
 39 60  1  0  0  0  0
 39 61  1  0  0  0  0
 39 78  2  0  0  0  0
 40 62  1  0  0  0  0
 40 67  1  0  0  0  0
 40 79  2  0  0  0  0
 41 63  1  0  0  0  0
 41 73  1  0  0  0  0
 41 80  2  0  0  0  0
 42 68  1  0  0  0  0
 42 71  1  0  0  0  0
 42 81  2  0  0  0  0
 43 46  1  0  0  0  0
 44 53  1  0  0  0  0
 45 67  1  0  0  0  0
 46 48  1  0  0  0  0
 47 49  1  0  0  0  0
 47 50  1  0  0  0  0
 48 52  1  0  0  0  0
 49 54  1  0  0  0  0
 50 68  1  0  0  0  0
 51 54  1  0  0  0  0
 51 68  1  0  0  0  0
 52 72  1  0  0  0  0
 53 67  1  0  0  0  0
 54 66  1  0  0  0  0
 55 63  1  0  0  0  0
 56 64  1  0  0  0  0
 57 64  1  0  0  0  0
 58 64  1  0  0  0  0
 59 75  1  0  0  0  0
 60 83  1  0  0  0  0
 61 84  1  0  0  0  0
 62 64  1  0  0  0  0
 62 73  1  0  0  0  0
 63 75  1  0  0  0  0
 65 66  1  0  0  0  0
M  CHG  2  74   1  75   1
M  ISO  4  42 100  60 101  71 100  83 101
M  END
> <Batch ID>
0115

> <Smiles>
C=Cc1cc(OCC(=O)[101CH2:1][101O:1]c2ccc3c(c2)CN(C(=O)C(NC(=O)C(C)NC)C(C)(C)C)C(C(=O)NC2CCCc4ccccc42)C3)c(F)cc1C(=N)[100NH:0][100C:0](=O)N1CCCC(n2nc(-c3ccc(Oc4ccc(F)cc4F)cc3)c(C(N)=O)c2N)C1

> <Shape>
0.318

> <Color>
0.087

> <Negative vol penalty>
0.000

$$$$

  -OEChem-04052301403D

 87 95  0     1  0  0  0  0  0999 V2000
  -20.0661  -22.9888   23.1937 C   0  0  0  0  0  0  0  0  0  0  0  0
  -21.1168  -23.5332   22.4624 C   0  0  0  0  0  0  0  0  0  0  0  0
  -23.7222  -14.3162   20.4849 C   0  0  0  0  0  0  0  0  0  0  0  0
  -25.4938  -14.6383   22.0958 C   0  0  0  0  0  0  0  0  0  0  0  0
  -19.3483  -23.7887   24.0819 C   0  0  0  0  0  0  0  0  0  0  0  0
  -21.4497  -24.8784   22.6180 C   0  0  0  0  0  0  0  0  0  0  0  0
  -26.4449  -25.6098   23.0163 C   0  0  0  0  0  0  0  0  0  0  0  0
  -24.1160  -12.9887   20.3172 C   0  0  0  0  0  0  0  0  0  0  0  0
  -25.8876  -13.3107   21.9282 C   0  0  0  0  0  0  0  0  0  0  0  0
  -27.1902  -25.5690   21.8387 C   0  0  0  0  0  0  0  0  0  0  0  0
  -23.7610  -10.0579   21.9657 C   0  0  0  0  0  0  0  0  0  0  0  0
  -22.7636   -9.0829   21.9499 C   0  0  0  0  0  0  0  0  0  0  0  0
  -29.7954  -22.9247   20.4979 C   0  0  0  0  0  0  0  0  0  0  0  0
  -31.7043  -22.7725   21.9709 C   0  0  0  0  0  0  0  0  0  0  0  0
  -27.2155  -27.9804   21.7783 C   0  0  0  0  0  0  0  0  0  0  0  0
  -23.4301   -8.4372   19.7193 C   0  0  0  0  0  0  0  0  0  0  0  0
  -24.4111  -15.1411   21.3742 C   0  0  0  0  0  0  0  0  0  0  0  0
  -31.1164  -23.2541   20.8013 C   0  0  0  0  0  0  0  0  0  0  0  0
  -23.0713  -17.0121   22.4749 C   0  0  0  0  0  0  0  0  0  0  0  0
  -19.6789  -25.1419   24.2557 C   0  0  0  0  0  0  0  0  0  0  0  0
  -26.0693  -26.8382   23.5787 C   0  0  0  0  0  0  0  0  0  0  0  0
  -20.7349  -25.6975   23.5084 C   0  0  0  0  0  0  0  0  0  0  0  0
  -26.4675  -28.0341   22.9644 C   0  0  0  0  0  0  0  0  0  0  0  0
  -29.0622  -22.1138   21.3642 C   0  0  0  0  0  0  0  0  0  0  0  0
  -25.1987  -12.4859   21.0389 C   0  0  0  0  0  0  0  0  0  0  0  0
  -27.5732  -26.7544   21.2180 C   0  0  0  0  0  0  0  0  0  0  0  0
  -24.5929  -10.2226   20.8582 C   0  0  0  0  0  0  0  0  0  0  0  0
  -30.9711  -21.9616   22.8373 C   0  0  0  0  0  0  0  0  0  0  0  0
  -29.6501  -21.6322   22.5339 C   0  0  0  0  0  0  0  0  0  0  0  0
  -22.5982   -8.2725   20.8268 C   0  0  0  0  0  0  0  0  0  0  0  0
  -24.4275   -9.4122   19.7350 C   0  0  0  0  0  0  0  0  0  0  0  0
  -24.0052  -16.5127   21.5474 C   0  0  0  0  0  0  0  0  0  0  0  0
  -23.0419  -18.3647   22.2380 C   0  0  0  0  0  0  0  0  0  0  0  0
  -31.0917  -26.2207   19.6792 C   0  0  0  0  0  0  0  0  0  0  0  0
  -31.8989  -24.1202   19.8769 C   0  0  0  0  0  0  0  0  0  0  0  0
  -22.2994  -16.3157   23.4623 C   0  0  0  0  0  0  0  0  0  0  0  0
  -23.2988  -28.2660   24.2027 C   0  0  0  0  0  0  0  0  0  0  0  0
  -25.2026  -30.4749   25.6235 C   0  0  0  0  0  0  0  0  0  0  0  0
  -28.2812  -31.9300   25.8507 C   0  0  0  0  0  0  0  0  0  0  0  0
  -27.0023  -22.1894   19.9160 C   0  0  0  0  0  0  0  0  0  0  0  0
  -18.8439  -25.9786   25.1924 C   0  0  0  0  0  0  0  0  0  0  0  0
  -25.2880  -26.8654   24.8637 C   0  0  0  0  0  0  0  0  0  0  0  0
  -26.1071  -29.3790   23.5387 C   0  0  0  0  0  0  0  0  0  0  0  0
  -19.5007  -27.3020   25.5764 C   0  0  0  0  0  0  0  0  0  0  0  0
  -23.6993  -21.5691   18.7403 C   0  0  0  0  0  0  0  0  0  0  0  0
  -20.0596  -27.9992   24.3402 C   0  0  0  0  0  0  0  0  0  0  0  0
  -23.3156  -20.2506   19.4159 C   0  0  0  0  0  0  0  0  0  0  0  0
  -25.1739  -21.5942   18.3419 C   0  0  0  0  0  0  0  0  0  0  0  0
  -25.7311  -19.9610   20.1002 C   0  0  0  0  0  0  0  0  0  0  0  0
  -21.1422  -27.1462   23.6679 C   0  0  1  0  0  0  0  0  0  0  0  0
  -24.5220  -28.1685   25.0698 C   0  0  1  0  0  0  0  0  0  0  0  0
  -24.2706  -19.9140   20.5779 C   0  0  2  0  0  0  0  0  0  0  0  0
  -29.5216  -33.7344   27.0766 C   0  0  0  0  0  0  0  0  0  0  0  0
  -23.8177  -32.5868   23.9112 C   0  0  0  0  0  0  0  0  0  0  0  0
  -25.6905  -34.1565   24.4563 C   0  0  0  0  0  0  0  0  0  0  0  0
  -24.2350  -33.2734   26.2796 C   0  0  0  0  0  0  0  0  0  0  0  0
  -30.2001  -29.9914   26.9991 C   0  0  0  0  0  0  0  0  0  0  0  0
  -32.2375  -20.2468   23.8915 C   0  0  0  0  0  0  0  0  0  0  0  0
  -28.2031  -21.4938   24.4162 C   0  0  0  0  0  0  0  0  0  0  0  0
  -30.3516  -27.3226   18.9710 C   0  0  0  0  0  0  0  0  0  0  0  0
  -29.1939  -27.8040   19.8297 C   0  0  0  0  0  0  0  0  0  1  0  0
  -25.9039  -31.7323   25.1697 C   0  0  1  0  0  0  0  0  0  0  0  0
  -29.1539  -32.2590   27.0484 C   0  0  2  0  0  0  0  0  0  0  0  0
  -24.9171  -32.9121   24.9421 C   0  0  0  0  0  0  0  0  0  0  0  0
  -24.5309  -17.4700   20.7786 N   0  0  0  0  0  0  0  0  0  0  0  0
  -31.2248  -25.0565   19.1308 N   0  0  0  0  0  0  0  0  0  0  0  0
  -23.9253  -18.5846   21.2224 N   0  0  0  0  0  0  0  0  0  0  0  0
  -25.3370  -29.3531   24.7933 N   0  0  0  0  0  0  0  0  0  0  0  0
  -26.0185  -21.2704   19.4937 N   0  0  0  0  0  0  0  0  0  0  0  0
  -22.3467  -19.3756   22.8014 N   0  0  0  0  0  0  0  0  0  0  0  0
  -22.4515  -14.9267   23.5717 N   0  0  0  0  0  0  0  0  0  0  0  0
  -27.7217  -21.7876   21.0409 N   0  0  0  0  0  0  0  0  0  0  0  0
  -22.3885  -27.2447   24.3969 N   0  0  0  0  0  0  0  0  0  0  0  0
  -26.9397  -32.0025   26.1609 N   0  0  0  0  0  0  0  0  0  0  0  0
  -33.1698  -23.9951   19.7237 N   0  3  0  0  0  0  0  0  0  0  0  0
  -30.4124  -31.4617   27.0070 N   0  3  0  0  0  0  0  0  0  0  0  0
  -21.4865  -16.9054   24.2139 O   0  0  0  0  0  0  0  0  0  0  0  0
  -23.1883  -29.1997   23.4167 O   0  0  0  0  0  0  0  0  0  0  0  0
  -24.5651  -30.4856   26.6795 O   0  0  0  0  0  0  0  0  0  0  0  0
  -28.7433  -31.6414   24.7490 O   0  0  0  0  0  0  0  0  0  0  0  0
  -27.1741  -23.2666   19.3396 O   0  0  0  0  0  0  0  0  0  0  0  0
  -25.5831  -11.1905   20.8757 O   0  0  0  0  0  0  0  0  0  0  0  0
  -31.5578  -21.4977   23.9760 O   0  0  0  0  0  0  0  0  0  0  0  0
  -28.9397  -20.8387   23.3867 O   0  0  0  0  0  0  0  0  0  0  0  0
  -28.3002  -26.7174   20.0682 O   0  0  0  0  0  0  0  0  0  1  0  0
  -21.6414   -7.3352   20.8124 F   0  0  0  0  0  0  0  0  0  0  0  0
  -25.2244   -9.5649   18.6685 F   0  0  0  0  0  0  0  0  0  0  0  0
  1  2  1  0  0  0  0
  1  5  2  0  0  0  0
  2  6  2  0  0  0  0
  3  8  2  0  0  0  0
  3 17  1  0  0  0  0
  4  9  1  0  0  0  0
  4 17  2  0  0  0  0
  5 20  1  0  0  0  0
  6 22  1  0  0  0  0
  7 10  2  0  0  0  0
  7 21  1  0  0  0  0
  8 25  1  0  0  0  0
  9 25  2  0  0  0  0
 10 26  1  0  0  0  0
 11 12  2  0  0  0  0
 11 27  1  0  0  0  0
 12 30  1  0  0  0  0
 13 18  1  0  0  0  0
 13 24  2  0  0  0  0
 14 18  2  0  0  0  0
 14 28  1  0  0  0  0
 15 23  1  0  0  0  0
 15 26  2  0  0  0  0
 16 30  2  0  0  0  0
 16 31  1  0  0  0  0
 17 32  1  0  0  0  0
 18 35  1  0  0  0  0
 19 32  1  0  0  0  0
 19 33  2  0  0  0  0
 19 36  1  0  0  0  0
 20 22  2  0  0  0  0
 20 41  1  0  0  0  0
 21 23  2  0  0  0  0
 21 42  1  0  0  0  0
 22 50  1  0  0  0  0
 23 43  1  0  0  0  0
 24 29  1  0  0  0  0
 24 72  1  0  0  0  0
 25 82  1  0  0  0  0
 26 85  1  0  0  0  0
 27 31  2  0  0  0  0
 27 82  1  0  0  0  0
 28 29  2  0  0  0  0
 28 83  1  0  0  0  0
 29 84  1  0  0  0  0
 30 86  1  0  0  0  0
 31 87  1  0  0  0  0
 32 65  2  0  0  0  0
 33 67  1  0  0  0  0
 33 70  1  0  0  0  0
 34 60  1  0  0  0  0
 34 66  2  0  0  0  0
 35 66  1  0  0  0  0
 35 75  2  0  0  0  0
 36 71  1  0  0  0  0
 36 77  2  0  0  0  0
 37 51  1  0  0  0  0
 37 73  1  0  0  0  0
 37 78  2  0  0  0  0
 38 62  1  0  0  0  0
 38 68  1  0  0  0  0
 38 79  2  0  0  0  0
 39 63  1  0  0  0  0
 39 74  1  0  0  0  0
 39 80  2  0  0  0  0
 40 69  1  0  0  0  0
 40 72  1  0  0  0  0
 40 81  2  0  0  0  0
 41 44  1  0  0  0  0
 42 51  1  0  0  0  0
 43 68  1  0  0  0  0
 44 46  1  0  0  0  0
 45 47  1  0  0  0  0
 45 48  1  0  0  0  0
 46 50  1  0  0  0  0
 47 52  1  0  0  0  0
 48 69  1  0  0  0  0
 49 52  1  0  0  0  0
 49 69  1  0  0  0  0
 50 73  1  0  0  0  0
 51 68  1  0  0  0  0
 52 67  1  0  0  0  0
 53 63  1  0  0  0  0
 54 64  1  0  0  0  0
 55 64  1  0  0  0  0
 56 64  1  0  0  0  0
 57 76  1  0  0  0  0
 58 83  1  0  0  0  0
 59 84  1  0  0  0  0
 60 61  1  0  0  0  0
 61 85  1  0  0  0  0
 62 64  1  0  0  0  0
 62 74  1  0  0  0  0
 63 76  1  0  0  0  0
 65 67  1  0  0  0  0
M  CHG  2  75   1  76   1
M  ISO  4  40 100  61 101  72 100  85 101
M  END
> <Batch ID>
0115

> <Smiles>
CNC(C)C(=O)NC(C(=O)N1Cc2cc([101O:1][101CH2:1]C=CNC(=N)c3cc([100NH:0][100C:0](=O)N4CCCC(n5nc(-c6ccc(Oc7ccc(F)cc7F)cc6)c(C(N)=O)c5N)C4)c(OC)c(OC)c3)ccc2CC1C(=O)NC1CCCc2ccccc21)C(C)(C)C

> <Shape>
0.200

> <Color>
0.074

> <Negative vol penalty>
0.000

$$$$

  -OEChem-04052301403D

 86 94  0     1  0  0  0  0  0999 V2000
  -25.7624  -35.3597   24.3663 C   0  0  0  0  0  0  0  0  0  0  0  0
  -25.8467  -33.9911   24.6010 C   0  0  0  0  0  0  0  0  0  0  0  0
  -22.9740   -9.9074   20.2398 C   0  0  0  0  0  0  0  0  0  0  0  0
  -24.3535   -9.1436   22.0702 C   0  0  0  0  0  0  0  0  0  0  0  0
  -29.7595  -17.2503   21.1220 C   0  0  0  0  0  0  0  0  0  0  0  0
  -25.1493  -35.8304   23.2060 C   0  0  0  0  0  0  0  0  0  0  0  0
  -25.3169  -33.0923   23.6759 C   0  0  0  0  0  0  0  0  0  0  0  0
  -27.5191  -27.5612   22.2393 C   0  0  0  0  0  0  0  0  0  0  0  0
  -29.0146  -18.4201   21.2714 C   0  0  0  0  0  0  0  0  0  0  0  0
  -22.2814   -8.6968   20.2565 C   0  0  0  0  0  0  0  0  0  0  0  0
  -23.6609   -7.9329   22.0870 C   0  0  0  0  0  0  0  0  0  0  0  0
  -27.1696  -26.2763   22.6522 C   0  0  0  0  0  0  0  0  0  0  0  0
  -20.7048   -6.7722   23.2423 C   0  0  0  0  0  0  0  0  0  0  0  0
  -20.3106   -6.2700   24.4824 C   0  0  0  0  0  0  0  0  0  0  0  0
  -28.1814  -17.6185   23.3928 C   0  0  0  0  0  0  0  0  0  0  0  0
  -25.7811  -26.0313   20.6949 C   0  0  0  0  0  0  0  0  0  0  0  0
  -21.6229   -4.2791   24.0932 C   0  0  0  0  0  0  0  0  0  0  0  0
  -24.0101  -10.1308   21.1466 C   0  0  0  0  0  0  0  0  0  0  0  0
  -29.7153  -16.2646   22.1080 C   0  0  0  0  0  0  0  0  0  0  0  0
  -28.9263  -16.4487   23.2434 C   0  0  0  0  0  0  0  0  0  0  0  0
  -24.4153  -12.5488   21.8514 C   0  0  0  0  0  0  0  0  0  0  0  0
  -24.6203  -34.9367   22.2615 C   0  0  0  0  0  0  0  0  0  0  0  0
  -26.9927  -28.0959   21.0545 C   0  0  0  0  0  0  0  0  0  0  0  0
  -24.6949  -33.5515   22.5024 C   0  0  0  0  0  0  0  0  0  0  0  0
  -26.1275  -27.3223   20.2677 C   0  0  0  0  0  0  0  0  0  0  0  0
  -28.2255  -18.6042   22.4068 C   0  0  0  0  0  0  0  0  0  0  0  0
  -22.6248   -7.7096   21.1801 C   0  0  0  0  0  0  0  0  0  0  0  0
  -26.2983  -25.5122   21.8815 C   0  0  0  0  0  0  0  0  0  0  0  0
  -21.5580   -6.0279   22.4275 C   0  0  0  0  0  0  0  0  0  0  0  0
  -20.7697   -5.0234   24.9079 C   0  0  0  0  0  0  0  0  0  0  0  0
  -22.0171   -4.7813   22.8530 C   0  0  0  0  0  0  0  0  0  0  0  0
  -24.7263  -11.3810   21.1294 C   0  0  0  0  0  0  0  0  0  0  0  0
  -25.3914  -13.4454   21.4910 C   0  0  0  0  0  0  0  0  0  0  0  0
  -29.1732  -15.6696   25.5558 C   0  0  0  0  0  0  0  0  0  0  0  0
  -28.8543  -15.4383   24.2915 C   0  0  0  0  0  0  0  0  0  0  0  0
  -26.7291  -23.2133   21.8614 C   0  0  0  0  0  0  0  0  0  1  0  0
  -30.5083  -15.0563   21.9134 C   0  0  0  0  0  0  0  0  0  0  0  0
  -23.3404  -12.8006   22.7661 C   0  0  0  0  0  0  0  0  0  0  0  0
  -26.4842  -21.9404   22.1948 C   0  0  0  0  0  0  0  0  0  0  0  0
  -30.7975  -14.5375   20.5567 C   0  0  0  0  0  0  0  0  0  0  0  0
  -27.3950  -20.8657   21.6813 C   0  0  0  0  0  0  0  0  0  0  0  0
  -25.1561  -30.5902   20.3411 C   0  0  0  0  0  0  0  0  0  0  0  0
  -25.8054  -29.7008   17.2899 C   0  0  0  0  0  0  0  0  0  0  0  0
  -26.7197  -27.2253   15.1260 C   0  0  0  0  0  0  0  0  0  0  0  0
  -23.9249  -35.4940   21.0447 C   0  0  0  0  0  0  0  0  0  0  0  0
  -27.4004  -29.4735   20.6092 C   0  0  0  0  0  0  0  0  0  0  0  0
  -25.5508  -27.8424   18.9772 C   0  0  0  0  0  0  0  0  0  0  0  0
  -23.7217  -34.4657   19.9349 C   0  0  0  0  0  0  0  0  0  0  0  0
  -28.8594  -13.2575   17.8251 C   0  0  0  0  0  0  0  0  0  0  0  0
  -23.1725  -33.1631   20.5081 C   0  0  0  0  0  0  0  0  0  0  0  0
  -27.6032  -12.7161   18.5066 C   0  0  0  0  0  0  0  0  0  0  0  0
  -30.0933  -13.0758   18.7031 C   0  0  0  0  0  0  0  0  0  0  0  0
  -28.6995  -13.1370   20.7530 C   0  0  0  0  0  0  0  0  0  0  0  0
  -24.1541  -32.5444   21.5107 C   0  0  1  0  0  0  0  0  0  0  0  0
  -26.4010  -30.1114   19.6492 C   0  0  1  0  0  0  0  0  0  0  0  0
  -27.4280  -13.3279   19.9079 C   0  0  2  0  0  0  0  0  0  0  0  0
  -27.1294  -26.7917   12.6885 C   0  0  0  0  0  0  0  0  0  0  0  0
  -22.7951  -29.6611   16.7934 C   0  0  0  0  0  0  0  0  0  0  0  0
  -23.2262  -28.3380   14.7122 C   0  0  0  0  0  0  0  0  0  0  0  0
  -24.1462  -30.6460   14.9336 C   0  0  0  0  0  0  0  0  0  0  0  0
  -29.5451  -26.4912   15.6125 C   0  0  0  0  0  0  0  0  0  0  0  0
  -25.1652  -28.7702   16.2884 C   0  0  1  0  0  0  0  0  0  0  0  0
  -27.7551  -27.1889   14.0164 C   0  0  2  0  0  0  0  0  0  0  0  0
  -23.8424  -29.3445   15.7072 C   0  0  0  0  0  0  0  0  0  0  0  0
  -25.8147  -11.5200   20.3678 N   0  0  0  0  0  0  0  0  0  0  0  0
  -31.0082  -14.3655   22.8993 N   0  0  0  0  0  0  0  0  0  0  0  0
  -26.1961  -12.7859   20.6091 N   0  0  0  0  0  0  0  0  0  0  0  0
  -29.8803  -13.6352   20.0364 N   0  0  0  0  0  0  0  0  0  0  0  0
  -25.9747  -29.1974   18.5875 N   0  0  0  0  0  0  0  0  0  0  0  0
  -25.6312  -14.7257   21.8455 N   0  0  0  0  0  0  0  0  0  0  0  0
  -22.4267  -11.7695   23.0234 N   0  0  0  0  0  0  0  0  0  0  0  0
  -27.4696  -19.7917   22.5576 N   0  0  0  0  0  0  0  0  0  0  0  0
  -25.2388  -31.8856   20.8152 N   0  0  0  0  0  0  0  0  0  0  0  0
  -26.1853  -28.4864   15.2847 N   0  0  0  0  0  0  0  0  0  0  0  0
  -28.8290  -26.2083   14.3420 N   0  3  0  0  0  0  0  0  0  0  0  0
  -23.1849  -13.9125   23.3257 O   0  0  0  0  0  0  0  0  0  0  0  0
  -31.8210  -14.9623   20.0368 O   0  0  0  0  0  0  0  0  0  0  0  0
  -27.9721  -20.9894   20.6063 O   0  0  0  0  0  0  0  0  0  0  0  0
  -24.1914  -29.8406   20.4364 O   0  0  0  0  0  0  0  0  0  0  0  0
  -26.1494  -30.8302   16.9323 O   0  0  0  0  0  0  0  0  0  0  0  0
  -26.4127  -26.2333   15.7834 O   0  0  0  0  0  0  0  0  0  0  0  0
  -25.4228  -21.5744   22.9974 O   0  0  0  0  0  0  0  0  0  0  0  0
  -21.9491   -6.5282   21.1969 O   0  0  0  0  0  0  0  0  0  0  0  0
  -25.9551  -24.2579   22.2826 O   0  0  0  0  0  0  0  0  0  1  0  0
  -20.3924   -4.5419   26.0995 F   0  0  0  0  0  0  0  0  0  0  0  0
  -22.8379   -4.0622   22.0752 F   0  0  0  0  0  0  0  0  0  0  0  0
  1  2  1  0  0  0  0
  1  6  2  0  0  0  0
  2  7  2  0  0  0  0
  3 10  2  0  0  0  0
  3 18  1  0  0  0  0
  4 11  1  0  0  0  0
  4 18  2  0  0  0  0
  5  9  2  0  0  0  0
  5 19  1  0  0  0  0
  6 22  1  0  0  0  0
  7 24  1  0  0  0  0
  8 12  2  0  0  0  0
  8 23  1  0  0  0  0
  9 26  1  0  0  0  0
 10 27  1  0  0  0  0
 11 27  2  0  0  0  0
 12 28  1  0  0  0  0
 13 14  2  0  0  0  0
 13 29  1  0  0  0  0
 14 30  1  0  0  0  0
 15 20  1  0  0  0  0
 15 26  2  0  0  0  0
 16 25  1  0  0  0  0
 16 28  2  0  0  0  0
 17 30  2  0  0  0  0
 17 31  1  0  0  0  0
 18 32  1  0  0  0  0
 19 20  2  0  0  0  0
 19 37  1  0  0  0  0
 20 35  1  0  0  0  0
 21 32  1  0  0  0  0
 21 33  2  0  0  0  0
 21 38  1  0  0  0  0
 22 24  2  0  0  0  0
 22 45  1  0  0  0  0
 23 25  2  0  0  0  0
 23 46  1  0  0  0  0
 24 54  1  0  0  0  0
 25 47  1  0  0  0  0
 26 72  1  0  0  0  0
 27 83  1  0  0  0  0
 28 84  1  0  0  0  0
 29 31  2  0  0  0  0
 29 83  1  0  0  0  0
 30 85  1  0  0  0  0
 31 86  1  0  0  0  0
 32 65  2  0  0  0  0
 33 67  1  0  0  0  0
 33 70  1  0  0  0  0
 34 35  2  0  0  0  0
 36 39  2  0  0  0  0
 36 84  1  0  0  0  0
 37 40  1  0  0  0  0
 37 66  2  0  0  0  0
 38 71  1  0  0  0  0
 38 76  2  0  0  0  0
 39 41  1  0  0  0  0
 39 82  1  0  0  0  0
 40 68  1  0  0  0  0
 40 77  2  0  0  0  0
 41 72  1  0  0  0  0
 41 78  2  0  0  0  0
 42 55  1  0  0  0  0
 42 73  1  0  0  0  0
 42 79  2  0  0  0  0
 43 62  1  0  0  0  0
 43 69  1  0  0  0  0
 43 80  2  0  0  0  0
 44 63  1  0  0  0  0
 44 74  1  0  0  0  0
 44 81  2  0  0  0  0
 45 48  1  0  0  0  0
 46 55  1  0  0  0  0
 47 69  1  0  0  0  0
 48 50  1  0  0  0  0
 49 51  1  0  0  0  0
 49 52  1  0  0  0  0
 50 54  1  0  0  0  0
 51 56  1  0  0  0  0
 52 68  1  0  0  0  0
 53 56  1  0  0  0  0
 53 68  1  0  0  0  0
 54 73  1  0  0  0  0
 55 69  1  0  0  0  0
 56 67  1  0  0  0  0
 57 63  1  0  0  0  0
 58 64  1  0  0  0  0
 59 64  1  0  0  0  0
 60 64  1  0  0  0  0
 61 75  1  0  0  0  0
 62 64  1  0  0  0  0
 62 74  1  0  0  0  0
 63 75  1  0  0  0  0
 65 67  1  0  0  0  0
M  CHG  1  75   1
M  ISO  4  36 101  37 100  40 100  84 101
M  END
> <Batch ID>
0115

> <Smiles>
C=Cc1cc(NC(=O)C(=O)[101CH2:1][101O:1]c2ccc3c(c2)CN(C(=O)C(NC(=O)C(C)NC)C(C)(C)C)C(C(=O)NC2CCCc4ccccc42)C3)ccc1[100C:0](=N)[100C:0](=O)N1CCCC(n2nc(-c3ccc(Oc4ccc(F)cc4F)cc3)c(C(N)=O)c2N)C1

> <Shape>
0.281

> <Color>
0.129

> <Negative vol penalty>
0.000

$$$$

  -OEChem-04052301403D

 83 91  0     1  0  0  0  0  0999 V2000
  -37.1728  -16.4073   23.1315 C   0  0  0  0  0  0  0  0  0  0  0  0
  -36.3486  -17.1796   22.3192 C   0  0  0  0  0  0  0  0  0  0  0  0
  -24.6798  -29.1858   22.6591 C   0  0  0  0  0  0  0  0  0  0  0  0
  -24.2555  -29.2101   20.2808 C   0  0  0  0  0  0  0  0  0  0  0  0
  -36.9119  -15.0475   23.2953 C   0  0  0  0  0  0  0  0  0  0  0  0
  -35.2638  -16.5922   21.6692 C   0  0  0  0  0  0  0  0  0  0  0  0
  -31.0534  -19.3861   22.0039 C   0  0  0  0  0  0  0  0  0  0  0  0
  -25.3736  -30.3906   22.5477 C   0  0  0  0  0  0  0  0  0  0  0  0
  -24.9493  -30.4150   20.1693 C   0  0  0  0  0  0  0  0  0  0  0  0
  -30.9530  -20.4901   21.1584 C   0  0  0  0  0  0  0  0  0  0  0  0
  -24.6292  -33.6763   22.2589 C   0  0  0  0  0  0  0  0  0  0  0  0
  -24.3615  -34.6681   23.2024 C   0  0  0  0  0  0  0  0  0  0  0  0
  -27.0380  -22.8470   17.6332 C   0  0  0  0  0  0  0  0  0  0  0  0
  -29.5456  -19.2151   19.6708 C   0  0  0  0  0  0  0  0  0  0  0  0
  -26.6771  -34.6381   23.8909 C   0  0  0  0  0  0  0  0  0  0  0  0
  -25.3930  -23.3587   16.1834 C   0  0  0  0  0  0  0  0  0  0  0  0
  -24.1208  -28.5954   21.5256 C   0  0  0  0  0  0  0  0  0  0  0  0
  -25.6530  -22.7084   17.3695 C   0  0  0  0  0  0  0  0  0  0  0  0
  -22.0283  -27.1808   21.8836 C   0  0  0  0  0  0  0  0  0  0  0  0
  -35.8177  -14.4452   22.6547 C   0  0  0  0  0  0  0  0  0  0  0  0
  -30.4085  -18.1829   21.6832 C   0  0  0  0  0  0  0  0  0  0  0  0
  -34.9889  -15.2228   21.8235 C   0  0  0  0  0  0  0  0  0  0  0  0
  -29.6373  -18.0981   20.5152 C   0  0  0  0  0  0  0  0  0  0  0  0
  -25.5084  -31.0053   21.3028 C   0  0  0  0  0  0  0  0  0  0  0  0
  -30.2013  -20.4038   19.9902 C   0  0  0  0  0  0  0  0  0  0  0  0
  -25.9208  -33.1653   22.1315 C   0  0  0  0  0  0  0  0  0  0  0  0
  -25.3855  -35.1490   24.0184 C   0  0  0  0  0  0  0  0  0  0  0  0
  -26.9448  -33.6462   22.9474 C   0  0  0  0  0  0  0  0  0  0  0  0
  -23.4044  -27.3505   21.6400 C   0  0  0  0  0  0  0  0  0  0  0  0
  -27.5822  -23.5780   16.6003 C   0  0  0  0  0  0  0  0  0  0  0  0
  -21.8480  -25.8193   21.9010 C   0  0  0  0  0  0  0  0  0  0  0  0
  -30.5505  -21.3472   17.8786 C   0  0  0  0  0  0  0  0  0  1  0  0
  -24.6680  -22.0282   18.1590 C   0  0  0  0  0  0  0  0  0  0  0  0
  -21.0045  -28.1658   22.0767 C   0  0  0  0  0  0  0  0  0  0  0  0
  -30.5136  -22.3237   16.9587 C   0  0  0  0  0  0  0  0  0  0  0  0
  -25.0122  -21.3464   19.4278 C   0  0  0  0  0  0  0  0  0  0  0  0
  -31.3706  -15.2152   21.0742 C   0  0  0  0  0  0  0  0  0  0  0  0
  -28.1854  -14.6017   21.0585 C   0  0  0  0  0  0  0  0  0  0  0  0
  -25.0096  -15.7822   20.6497 C   0  0  0  0  0  0  0  0  0  0  0  0
  -35.6035  -12.9619   22.8244 C   0  0  0  0  0  0  0  0  0  0  0  0
  -30.5049  -17.0095   22.6192 C   0  0  0  0  0  0  0  0  0  0  0  0
  -28.9089  -16.8356   20.1358 C   0  0  0  0  0  0  0  0  0  0  0  0
  -34.2140  -12.4945   22.3988 C   0  0  0  0  0  0  0  0  0  0  0  0
  -24.1314  -21.7409   22.8811 C   0  0  0  0  0  0  0  0  0  0  0  0
  -33.8387  -13.0962   21.0483 C   0  0  0  0  0  0  0  0  0  0  0  0
  -23.7570  -23.2191   22.9833 C   0  0  0  0  0  0  0  0  0  0  0  0
  -25.2543  -21.5178   21.8733 C   0  0  0  0  0  0  0  0  0  0  0  0
  -24.5832  -23.5424   20.6088 C   0  0  0  0  0  0  0  0  0  0  0  0
  -33.7878  -14.6271   21.1215 C   0  0  1  0  0  0  0  0  0  0  0  0
  -30.2276  -15.6746   21.9345 C   0  0  1  0  0  0  0  0  0  0  0  0
  -23.4331  -23.8038   21.5969 C   0  0  2  0  0  0  0  0  0  0  0  0
  -31.0418  -22.0879   15.5705 C   0  0  0  0  0  0  0  0  0  0  0  0
  -22.6138  -15.0354   20.6602 C   0  0  0  0  0  0  0  0  0  0  0  0
  -28.5687  -13.3418   18.3060 C   0  0  0  0  0  0  0  0  0  0  0  0
  -26.0916  -13.4858   17.9722 C   0  0  0  0  0  0  0  0  0  0  0  0
  -27.0203  -12.0905   19.8197 C   0  0  0  0  0  0  0  0  0  0  0  0
  -26.7053  -24.6419   14.4993 C   0  0  0  0  0  0  0  0  0  0  0  0
  -24.3363  -17.5851   22.8981 C   0  0  0  0  0  0  0  0  0  0  0  0
  -29.9878  -23.7045   17.2504 C   0  0  0  0  0  0  0  0  0  0  0  0
  -27.1002  -14.6103   20.0091 C   0  0  1  0  0  0  0  0  0  0  0  0
  -23.7548  -15.6083   21.4864 C   0  0  2  0  0  0  0  0  0  0  0  0
  -27.2104  -13.4054   19.0326 C   0  0  0  0  0  0  0  0  0  0  0  0
  -24.0524  -26.1896   21.5121 N   0  0  0  0  0  0  0  0  0  0  0  0
  -23.3930  -21.9490   17.8387 N   0  0  0  0  0  0  0  0  0  0  0  0
  -26.5730  -23.8838   15.7251 N   0  0  0  0  0  0  0  0  0  0  0  0
  -23.0792  -25.2774   21.6759 N   0  0  0  0  0  0  0  0  0  0  0  0
  -24.9303  -22.1160   20.5798 N   0  0  0  0  0  0  0  0  0  0  0  0
  -29.0390  -15.7137   21.0802 N   0  0  0  0  0  0  0  0  0  0  0  0
  -20.7580  -25.0448   22.0868 N   0  0  0  0  0  0  0  0  0  0  0  0
  -21.3624  -29.5200   22.0275 N   0  0  0  0  0  0  0  0  0  0  0  0
  -28.8841  -23.9942   16.3679 N   0  0  0  0  0  0  0  0  0  0  0  0
  -32.5624  -15.0623   21.7567 N   0  0  0  0  0  0  0  0  0  0  0  0
  -25.8345  -14.6803   20.7313 N   0  0  0  0  0  0  0  0  0  0  0  0
  -23.3187  -16.9194   22.0446 N   0  3  0  0  0  0  0  0  0  0  0  0
  -19.8107  -27.8542   22.3031 O   0  0  0  0  0  0  0  0  0  0  0  0
  -25.3345  -20.1701   19.3238 O   0  0  0  0  0  0  0  0  0  0  0  0
  -31.1847  -15.0129   19.8800 O   0  0  0  0  0  0  0  0  0  0  0  0
  -28.2681  -13.6468   21.8350 O   0  0  0  0  0  0  0  0  0  0  0  0
  -25.2335  -16.7927   19.9870 O   0  0  0  0  0  0  0  0  0  0  0  0
  -26.1851  -32.1812   21.1937 O   0  0  0  0  0  0  0  0  0  0  0  0
  -30.1022  -21.4797   19.1628 O   0  0  0  0  0  0  0  0  0  1  0  0
  -25.1286  -36.1026   24.9233 F   0  0  0  0  0  0  0  0  0  0  0  0
  -28.1879  -33.1600   22.8288 F   0  0  0  0  0  0  0  0  0  0  0  0
  1  2  1  0  0  0  0
  1  5  2  0  0  0  0
  2  6  2  0  0  0  0
  3  8  2  0  0  0  0
  3 17  1  0  0  0  0
  4  9  1  0  0  0  0
  4 17  2  0  0  0  0
  5 20  1  0  0  0  0
  6 22  1  0  0  0  0
  7 10  2  0  0  0  0
  7 21  1  0  0  0  0
  8 24  1  0  0  0  0
  9 24  2  0  0  0  0
 10 25  1  0  0  0  0
 11 12  2  0  0  0  0
 11 26  1  0  0  0  0
 12 27  1  0  0  0  0
 13 18  1  0  0  0  0
 13 30  2  0  0  0  0
 14 23  1  0  0  0  0
 14 25  2  0  0  0  0
 15 27  2  0  0  0  0
 15 28  1  0  0  0  0
 16 18  2  0  0  0  0
 16 65  1  0  0  0  0
 17 29  1  0  0  0  0
 18 33  1  0  0  0  0
 19 29  1  0  0  0  0
 19 31  2  0  0  0  0
 19 34  1  0  0  0  0
 20 22  2  0  0  0  0
 20 40  1  0  0  0  0
 21 23  2  0  0  0  0
 21 41  1  0  0  0  0
 22 49  1  0  0  0  0
 23 42  1  0  0  0  0
 24 80  1  0  0  0  0
 25 81  1  0  0  0  0
 26 28  2  0  0  0  0
 26 80  1  0  0  0  0
 27 82  1  0  0  0  0
 28 83  1  0  0  0  0
 29 63  2  0  0  0  0
 30 65  1  0  0  0  0
 30 71  1  0  0  0  0
 31 66  1  0  0  0  0
 31 69  1  0  0  0  0
 32 35  2  0  0  0  0
 32 81  1  0  0  0  0
 33 36  1  0  0  0  0
 33 64  2  0  0  0  0
 34 70  1  0  0  0  0
 34 75  2  0  0  0  0
 35 52  1  0  0  0  0
 35 59  1  0  0  0  0
 36 67  1  0  0  0  0
 36 76  2  0  0  0  0
 37 50  1  0  0  0  0
 37 72  1  0  0  0  0
 37 77  2  0  0  0  0
 38 60  1  0  0  0  0
 38 68  1  0  0  0  0
 38 78  2  0  0  0  0
 39 61  1  0  0  0  0
 39 73  1  0  0  0  0
 39 79  2  0  0  0  0
 40 43  1  0  0  0  0
 41 50  1  0  0  0  0
 42 68  1  0  0  0  0
 43 45  1  0  0  0  0
 44 46  1  0  0  0  0
 44 47  1  0  0  0  0
 45 49  1  0  0  0  0
 46 51  1  0  0  0  0
 47 67  1  0  0  0  0
 48 51  1  0  0  0  0
 48 67  1  0  0  0  0
 49 72  1  0  0  0  0
 50 68  1  0  0  0  0
 51 66  1  0  0  0  0
 53 61  1  0  0  0  0
 54 62  1  0  0  0  0
 55 62  1  0  0  0  0
 56 62  1  0  0  0  0
 57 65  1  0  0  0  0
 58 74  1  0  0  0  0
 59 71  1  0  0  0  0
 60 62  1  0  0  0  0
 60 73  1  0  0  0  0
 61 74  1  0  0  0  0
 63 66  1  0  0  0  0
M  CHG  1  74   1
M  ISO  4  32 101  33 100  36 100  81 101
M  END
> <Batch ID>
0115

> <Smiles>
CNC(C)C(=O)NC(C(=O)N1Cc2cc([101O:1][101CH:1]=C(C)CNc3cc([100C:0](=N)[100C:0](=O)N4CCCC(n5nc(-c6ccc(Oc7ccc(F)cc7F)cc6)c(C(N)=O)c5N)C4)cn3C)ccc2CC1C(=O)NC1CCCc2ccccc21)C(C)(C)C

> <Shape>
0.214

> <Color>
0.055

> <Negative vol penalty>
0.000

$$$$

  -OEChem-04052301403D

 85 93  0     1  0  0  0  0  0999 V2000
  -27.9401  -25.0396   16.4669 C   0  0  0  0  0  0  0  0  0  0  0  0
  -26.7643  -25.2156   17.1893 C   0  0  0  0  0  0  0  0  0  0  0  0
  -25.9506  -19.8382   20.9103 C   0  0  0  0  0  0  0  0  0  0  0  0
  -26.0568  -21.0450   18.8200 C   0  0  0  0  0  0  0  0  0  0  0  0
  -29.1469  -25.5198   16.9738 C   0  0  0  0  0  0  0  0  0  0  0  0
  -26.7948  -25.8710   18.4197 C   0  0  0  0  0  0  0  0  0  0  0  0
  -23.0506  -29.2442   18.9172 C   0  0  0  0  0  0  0  0  0  0  0  0
  -27.3395  -19.7102   20.9070 C   0  0  0  0  0  0  0  0  0  0  0  0
  -27.4457  -20.9171   18.8167 C   0  0  0  0  0  0  0  0  0  0  0  0
  -21.7833  -28.7486   19.2207 C   0  0  0  0  0  0  0  0  0  0  0  0
  -30.8293  -18.7531   21.2658 C   0  0  0  0  0  0  0  0  0  0  0  0
  -31.3679  -17.5061   21.5828 C   0  0  0  0  0  0  0  0  0  0  0  0
  -16.2734  -20.9357   18.4845 C   0  0  0  0  0  0  0  0  0  0  0  0
  -22.1173  -29.3307   21.5378 C   0  0  0  0  0  0  0  0  0  0  0  0
  -16.0479  -22.8375   19.9574 C   0  0  0  0  0  0  0  0  0  0  0  0
  -30.1996  -16.5253   19.7092 C   0  0  0  0  0  0  0  0  0  0  0  0
  -25.3092  -20.5056   19.8668 C   0  0  0  0  0  0  0  0  0  0  0  0
  -17.2278  -21.6268   17.7382 C   0  0  0  0  0  0  0  0  0  0  0  0
  -17.5923  -22.9233   18.1014 C   0  0  0  0  0  0  0  0  0  0  0  0
  -23.1178  -21.6822   20.4338 C   0  0  0  0  0  0  0  0  0  0  0  0
  -29.1907  -26.1900   18.2065 C   0  0  0  0  0  0  0  0  0  0  0  0
  -23.8664  -29.7777   19.9252 C   0  0  0  0  0  0  0  0  0  0  0  0
  -28.0035  -26.3595   18.9442 C   0  0  0  0  0  0  0  0  0  0  0  0
  -23.3935  -29.8348   21.2440 C   0  0  0  0  0  0  0  0  0  0  0  0
  -28.0871  -20.2496   19.8602 C   0  0  0  0  0  0  0  0  0  0  0  0
  -21.3176  -28.7892   20.5317 C   0  0  0  0  0  0  0  0  0  0  0  0
  -29.9758  -18.8862   20.1706 C   0  0  0  0  0  0  0  0  0  0  0  0
  -17.0023  -23.5287   19.2111 C   0  0  0  0  0  0  0  0  0  0  0  0
  -31.0531  -16.3922   20.8044 C   0  0  0  0  0  0  0  0  0  0  0  0
  -15.6834  -21.5410   19.5941 C   0  0  0  0  0  0  0  0  0  0  0  0
  -29.6610  -17.7723   19.3923 C   0  0  0  0  0  0  0  0  0  0  0  0
  -23.8744  -20.6377   19.8694 C   0  0  0  0  0  0  0  0  0  0  0  0
  -21.8134  -21.3424   20.1704 C   0  0  0  0  0  0  0  0  0  0  0  0
  -18.3507  -24.8221   16.7469 C   0  0  0  0  0  0  0  0  0  0  0  0
  -18.5886  -23.6568   17.3259 C   0  0  0  0  0  0  0  0  0  0  0  0
  -18.6603  -26.3746   20.8075 C   0  0  0  0  0  0  0  0  0  0  0  0
  -19.8245  -26.9891   20.5683 C   0  0  0  0  0  0  0  0  0  1  0  0
  -17.8187  -20.9557   16.5859 C   0  0  0  0  0  0  0  0  0  0  0  0
  -23.5552  -22.8547   21.1335 C   0  0  0  0  0  0  0  0  0  0  0  0
  -17.9745  -19.4834   16.5512 C   0  0  0  0  0  0  0  0  0  0  0  0
  -26.7057  -29.0303   21.1432 C   0  0  0  0  0  0  0  0  0  0  0  0
  -26.2914  -31.7934   22.7912 C   0  0  0  0  0  0  0  0  0  0  0  0
  -24.1353  -34.1141   24.0609 C   0  0  0  0  0  0  0  0  0  0  0  0
  -30.5260  -26.6498   18.7358 C   0  0  0  0  0  0  0  0  0  0  0  0
  -25.2203  -30.3326   19.5768 C   0  0  0  0  0  0  0  0  0  0  0  0
  -24.2223  -30.4160   22.3592 C   0  0  0  0  0  0  0  0  0  0  0  0
  -30.4147  -27.6637   19.8715 C   0  0  0  0  0  0  0  0  0  0  0  0
  -19.8034  -17.0451   18.4398 C   0  0  0  0  0  0  0  0  0  0  0  0
  -29.3861  -27.2032   20.8993 C   0  0  0  0  0  0  0  0  0  0  0  0
  -20.9846  -17.8411   18.9938 C   0  0  0  0  0  0  0  0  0  0  0  0
  -19.3992  -17.5376   17.0540 C   0  0  0  0  0  0  0  0  0  0  0  0
  -20.2755  -19.8028   17.5535 C   0  0  0  0  0  0  0  0  0  0  0  0
  -27.9920  -27.0872   20.2710 C   0  0  1  0  0  0  0  0  0  0  0  0
  -26.1702  -30.3835   20.7696 C   0  0  1  0  0  0  0  0  0  0  0  0
  -20.6948  -19.3523   18.9638 C   0  0  2  0  0  0  0  0  0  0  0  0
  -24.0903  -36.2406   25.3925 C   0  0  0  0  0  0  0  0  0  0  0  0
  -26.8156  -30.2040   25.3425 C   0  0  0  0  0  0  0  0  0  0  0  0
  -25.8393  -32.1062   26.6451 C   0  0  0  0  0  0  0  0  0  0  0  0
  -27.8956  -32.4588   25.2776 C   0  0  0  0  0  0  0  0  0  0  0  0
  -22.8906  -35.6174   21.8361 C   0  0  0  0  0  0  0  0  0  0  0  0
  -18.4153  -24.9300   20.5132 C   0  0  0  0  0  0  0  0  0  0  0  0
  -25.6695  -32.1654   24.1155 C   0  0  1  0  0  0  0  0  0  0  0  0
  -24.1377  -35.6309   24.0001 C   0  0  2  0  0  0  0  0  0  0  0  0
  -26.5399  -31.7208   25.3247 C   0  0  0  0  0  0  0  0  0  0  0  0
  -23.1138  -19.7042   19.2912 N   0  0  0  0  0  0  0  0  0  0  0  0
  -18.2393  -21.5922   15.5291 N   0  0  0  0  0  0  0  0  0  0  0  0
  -21.8658  -20.1609   19.4910 N   0  0  0  0  0  0  0  0  0  0  0  0
  -19.1668  -18.9805   17.0528 N   0  0  0  0  0  0  0  0  0  0  0  0
  -25.5416  -30.9401   21.9693 N   0  0  0  0  0  0  0  0  0  0  0  0
  -20.6380  -21.9420   20.4560 N   0  0  0  0  0  0  0  0  0  0  0  0
  -24.9310  -23.0493   21.3166 N   0  0  0  0  0  0  0  0  0  0  0  0
  -27.3928  -28.3965   20.1255 N   0  0  0  0  0  0  0  0  0  0  0  0
  -25.4150  -33.6008   24.0582 N   0  0  0  0  0  0  0  0  0  0  0  0
  -22.9581  -36.1205   23.2323 N   0  3  0  0  0  0  0  0  0  0  0  0
  -22.7490  -23.6964   21.5974 O   0  0  0  0  0  0  0  0  0  0  0  0
  -17.0293  -18.8640   16.0807 O   0  0  0  0  0  0  0  0  0  0  0  0
  -26.5113  -28.5941   22.2718 O   0  0  0  0  0  0  0  0  0  0  0  0
  -27.3985  -32.2490   22.4938 O   0  0  0  0  0  0  0  0  0  0  0  0
  -23.1015  -33.4511   24.1099 O   0  0  0  0  0  0  0  0  0  0  0  0
  -29.4425  -20.1251   19.8568 O   0  0  0  0  0  0  0  0  0  0  0  0
  -20.0813  -28.3055   20.8308 O   0  0  0  0  0  0  0  0  0  1  0  0
  -17.3398  -24.8009   19.5926 O   0  0  0  0  0  0  0  0  0  0  0  0
  -31.5717  -15.1951   21.1080 F   0  0  0  0  0  0  0  0  0  0  0  0
  -14.7674  -20.8772   20.3115 F   0  0  0  0  0  0  0  0  0  0  0  0
  -28.8426  -17.8943   18.3382 F   0  0  0  0  0  0  0  0  0  0  0  0
  1  2  1  0  0  0  0
  1  5  2  0  0  0  0
  2  6  2  0  0  0  0
  3  8  2  0  0  0  0
  3 17  1  0  0  0  0
  4  9  1  0  0  0  0
  4 17  2  0  0  0  0
  5 21  1  0  0  0  0
  6 23  1  0  0  0  0
  7 10  2  0  0  0  0
  7 22  1  0  0  0  0
  8 25  1  0  0  0  0
  9 25  2  0  0  0  0
 10 26  1  0  0  0  0
 11 12  2  0  0  0  0
 11 27  1  0  0  0  0
 12 29  1  0  0  0  0
 13 18  1  0  0  0  0
 13 30  2  0  0  0  0
 14 24  1  0  0  0  0
 14 26  2  0  0  0  0
 15 28  2  0  0  0  0
 15 30  1  0  0  0  0
 16 29  2  0  0  0  0
 16 31  1  0  0  0  0
 17 32  1  0  0  0  0
 18 19  2  0  0  0  0
 18 38  1  0  0  0  0
 19 28  1  0  0  0  0
 19 35  1  0  0  0  0
 20 32  1  0  0  0  0
 20 33  2  0  0  0  0
 20 39  1  0  0  0  0
 21 23  2  0  0  0  0
 21 44  1  0  0  0  0
 22 24  2  0  0  0  0
 22 45  1  0  0  0  0
 23 53  1  0  0  0  0
 24 46  1  0  0  0  0
 25 80  1  0  0  0  0
 26 81  1  0  0  0  0
 27 31  2  0  0  0  0
 27 80  1  0  0  0  0
 28 82  1  0  0  0  0
 29 83  1  0  0  0  0
 30 84  1  0  0  0  0
 31 85  1  0  0  0  0
 32 65  2  0  0  0  0
 33 67  1  0  0  0  0
 33 70  1  0  0  0  0
 34 35  2  0  0  0  0
 36 37  2  0  0  0  0
 36 61  1  0  0  0  0
 37 81  1  0  0  0  0
 38 40  1  0  0  0  0
 38 66  2  0  0  0  0
 39 71  1  0  0  0  0
 39 75  2  0  0  0  0
 40 68  1  0  0  0  0
 40 76  2  0  0  0  0
 41 54  1  0  0  0  0
 41 72  1  0  0  0  0
 41 77  2  0  0  0  0
 42 62  1  0  0  0  0
 42 69  1  0  0  0  0
 42 78  2  0  0  0  0
 43 63  1  0  0  0  0
 43 73  1  0  0  0  0
 43 79  2  0  0  0  0
 44 47  1  0  0  0  0
 45 54  1  0  0  0  0
 46 69  1  0  0  0  0
 47 49  1  0  0  0  0
 48 50  1  0  0  0  0
 48 51  1  0  0  0  0
 49 53  1  0  0  0  0
 50 55  1  0  0  0  0
 51 68  1  0  0  0  0
 52 55  1  0  0  0  0
 52 68  1  0  0  0  0
 53 72  1  0  0  0  0
 54 69  1  0  0  0  0
 55 67  1  0  0  0  0
 56 63  1  0  0  0  0
 57 64  1  0  0  0  0
 58 64  1  0  0  0  0
 59 64  1  0  0  0  0
 60 74  1  0  0  0  0
 61 82  1  0  0  0  0
 62 64  1  0  0  0  0
 62 73  1  0  0  0  0
 63 74  1  0  0  0  0
 65 67  1  0  0  0  0
M  CHG  1  74   1
M  ISO  4  37 101  38 100  40 100  81 101
M  END
> <Batch ID>
0115

> <Smiles>
C=Cc1c(OCC=[101CH:1][101O:1]c2ccc3c(c2)CN(C(=O)C(NC(=O)C(C)NC)C(C)(C)C)C(C(=O)NC2CCCc4ccccc42)C3)cc(F)cc1[100C:0](=N)[100C:0](=O)N1CCCC(n2nc(-c3ccc(Oc4ccc(F)cc4F)cc3)c(C(N)=O)c2N)C1

> <Shape>
0.238

> <Color>
0.071

> <Negative vol penalty>
0.000

$$$$

  -OEChem-04052301403D

 86 94  0     1  0  0  0  0  0999 V2000
  -28.2792  -23.6959   19.4622 C   0  0  0  0  0  0  0  0  0  0  0  0
  -27.0022  -24.1994   19.6883 C   0  0  0  0  0  0  0  0  0  0  0  0
  -28.1933  -14.3428   21.0488 C   0  0  0  0  0  0  0  0  0  0  0  0
  -26.1470  -15.1545   20.0532 C   0  0  0  0  0  0  0  0  0  0  0  0
  -29.3446  -24.1186   20.2560 C   0  0  0  0  0  0  0  0  0  0  0  0
  -26.7896  -25.1252   20.7091 C   0  0  0  0  0  0  0  0  0  0  0  0
  -23.8608  -28.9895   19.2482 C   0  0  0  0  0  0  0  0  0  0  0  0
  -27.6756  -13.0477   21.0570 C   0  0  0  0  0  0  0  0  0  0  0  0
  -25.6293  -13.8593   20.0614 C   0  0  0  0  0  0  0  0  0  0  0  0
  -22.4876  -28.7581   19.1820 C   0  0  0  0  0  0  0  0  0  0  0  0
  -24.2302  -11.7497   22.3026 C   0  0  0  0  0  0  0  0  0  0  0  0
  -22.9181  -11.5790   22.7440 C   0  0  0  0  0  0  0  0  0  0  0  0
  -22.2086  -29.8381   21.3209 C   0  0  0  0  0  0  0  0  0  0  0  0
  -23.1295  -22.8866   21.8332 C   0  0  0  0  0  0  0  0  0  0  0  0
  -22.3155  -10.6543   20.5948 C   0  0  0  0  0  0  0  0  0  0  0  0
  -23.9543  -24.1231   23.5245 C   0  0  0  0  0  0  0  0  0  0  0  0
  -27.4290  -15.3963   20.5469 C   0  0  0  0  0  0  0  0  0  0  0  0
  -28.7055  -17.3472   19.5115 C   0  0  0  0  0  0  0  0  0  0  0  0
  -29.1468  -25.0574   21.2808 C   0  0  0  0  0  0  0  0  0  0  0  0
  -24.4206  -29.6384   20.3582 C   0  0  0  0  0  0  0  0  0  0  0  0
  -27.8532  -25.5600   21.5182 C   0  0  0  0  0  0  0  0  0  0  0  0
  -23.5889  -30.0789   21.3976 C   0  0  0  0  0  0  0  0  0  0  0  0
  -24.1625  -22.9709   22.7990 C   0  0  0  0  0  0  0  0  0  0  0  0
  -26.3937  -12.8059   20.5633 C   0  0  0  0  0  0  0  0  0  0  0  0
  -21.6616  -29.1798   20.2198 C   0  0  0  0  0  0  0  0  0  0  0  0
  -24.5850  -11.3727   21.0074 C   0  0  0  0  0  0  0  0  0  0  0  0
  -21.9607  -11.0313   21.8901 C   0  0  0  0  0  0  0  0  0  0  0  0
  -23.6277  -10.8250   20.1535 C   0  0  0  0  0  0  0  0  0  0  0  0
  -27.9630  -16.7345   20.5387 C   0  0  0  0  0  0  0  0  0  0  0  0
  -22.3216  -23.9901   21.9977 C   0  0  0  0  0  0  0  0  0  0  0  0
  -28.9734  -18.6078   19.9865 C   0  0  0  0  0  0  0  0  0  0  0  0
  -23.1649  -27.1196   25.5729 C   0  0  0  0  0  0  0  0  0  0  0  0
  -22.4900  -26.1139   25.0050 C   0  0  0  0  0  0  0  0  0  0  0  0
  -29.1162  -16.8237   18.2415 C   0  0  0  0  0  0  0  0  0  0  0  0
  -21.1067  -24.3476   21.2209 C   0  0  0  0  0  0  0  0  0  0  0  0
  -26.5291  -28.8364   22.5976 C   0  0  0  0  0  0  0  0  0  0  0  0
  -26.2138  -31.9481   23.4578 C   0  0  0  0  0  0  0  0  0  0  0  0
  -24.3045  -34.7767   23.4508 C   0  0  0  0  0  0  0  0  0  0  0  0
  -26.2407  -22.1407   23.9558 C   0  0  0  0  0  0  0  0  0  0  0  0
  -30.3205  -25.4487   22.1433 C   0  0  0  0  0  0  0  0  0  0  0  0
  -25.9004  -29.9042   20.4020 C   0  0  0  0  0  0  0  0  0  0  0  0
  -24.1378  -30.7980   22.6018 C   0  0  0  0  0  0  0  0  0  0  0  0
  -30.0799  -26.7147   22.9615 C   0  0  0  0  0  0  0  0  0  0  0  0
  -29.6143  -21.0092   24.0801 C   0  0  0  0  0  0  0  0  0  0  0  0
  -28.7135  -26.6618   23.6376 C   0  0  0  0  0  0  0  0  0  0  0  0
  -29.6427  -19.8443   23.0880 C   0  0  0  0  0  0  0  0  0  0  0  0
  -28.2958  -21.0669   24.8494 C   0  0  0  0  0  0  0  0  0  0  0  0
  -27.1173  -19.9107   23.0210 C   0  0  0  0  0  0  0  0  0  0  0  0
  -27.5872  -26.5844   22.5998 C   0  0  1  0  0  0  0  0  0  0  0  0
  -26.4276  -30.1167   21.8178 C   0  0  1  0  0  0  0  0  0  0  0  0
  -28.4002  -19.8503   22.1760 C   0  0  2  0  0  0  0  0  0  0  0  0
  -24.2968  -37.1502   24.2657 C   0  0  0  0  0  0  0  0  0  0  0  0
  -18.7395  -29.0132   21.9592 C   0  0  0  0  0  0  0  0  0  0  0  0
  -25.5880  -30.9743   26.2809 C   0  0  0  0  0  0  0  0  0  0  0  0
  -24.6775  -33.2504   26.7892 C   0  0  0  0  0  0  0  0  0  0  0  0
  -27.0800  -32.9786   26.1755 C   0  0  0  0  0  0  0  0  0  0  0  0
  -24.1430  -35.8444   20.6953 C   0  0  0  0  0  0  0  0  0  0  0  0
  -22.2854  -25.9768   23.5283 C   0  0  0  0  0  0  0  0  0  0  0  0
  -19.0874  -26.9112   20.6027 C   0  0  0  0  0  0  0  0  0  0  0  0
  -20.0424  -26.0569   19.7712 C   0  0  0  0  0  0  0  0  0  0  0  0
  -25.3075  -32.7123   24.3924 C   0  0  1  0  0  0  0  0  0  0  0  0
  -24.6409  -36.2183   23.1142 C   0  0  2  0  0  0  0  0  0  0  0  0
  -19.7469  -28.1623   21.1968 C   0  0  1  0  0  0  0  0  0  1  0  0
  -25.6528  -32.4637   25.8879 C   0  0  0  0  0  0  0  0  0  0  0  0
  -27.7716  -17.5395   21.5872 N   0  0  0  0  0  0  0  0  0  0  0  0
  -22.8327  -24.7348   23.0284 N   0  0  0  0  0  0  0  0  0  0  0  0
  -28.3978  -18.6710   21.2214 N   0  0  0  0  0  0  0  0  0  0  0  0
  -25.5918  -31.0287   22.6012 N   0  0  0  0  0  0  0  0  0  0  0  0
  -27.1636  -21.0740   23.9205 N   0  0  0  0  0  0  0  0  0  0  0  0
  -29.6429  -19.6573   19.4642 N   0  0  0  0  0  0  0  0  0  0  0  0
  -28.7561  -15.5098   17.9124 N   0  0  0  0  0  0  0  0  0  0  0  0
  -25.2247  -22.0559   23.0044 N   0  0  0  0  0  0  0  0  0  0  0  0
  -21.1472  -25.5619   20.5447 N   0  0  0  0  0  0  0  0  0  0  0  0
  -27.3474  -27.8868   22.0161 N   0  0  0  0  0  0  0  0  0  0  0  0
  -25.3872  -34.1110   23.9854 N   0  0  0  0  0  0  0  0  0  0  0  0
  -23.8823  -36.6595   21.9097 N   0  3  0  0  0  0  0  0  0  0  0  0
  -29.7969  -17.4954   17.4297 O   0  0  0  0  0  0  0  0  0  0  0  0
  -20.1436  -23.5855   21.2289 O   0  0  0  0  0  0  0  0  0  0  0  0
  -25.9118  -28.7192   23.6497 O   0  0  0  0  0  0  0  0  0  0  0  0
  -27.4280  -32.1642   23.4817 O   0  0  0  0  0  0  0  0  0  0  0  0
  -23.1914  -34.2910   23.2622 O   0  0  0  0  0  0  0  0  0  0  0  0
  -26.3595  -23.0755   24.7521 O   0  0  0  0  0  0  0  0  0  0  0  0
  -25.8883  -11.5421   20.5709 O   0  0  0  0  0  0  0  0  0  0  0  0
  -20.3210  -28.9546   20.1580 O   0  0  0  0  0  0  0  0  0  1  0  0
  -20.7011  -10.8660   22.3145 F   0  0  0  0  0  0  0  0  0  0  0  0
  -23.9628  -10.4599   18.9084 F   0  0  0  0  0  0  0  0  0  0  0  0
  1  2  1  0  0  0  0
  1  5  2  0  0  0  0
  2  6  2  0  0  0  0
  3  8  2  0  0  0  0
  3 17  1  0  0  0  0
  4  9  1  0  0  0  0
  4 17  2  0  0  0  0
  5 19  1  0  0  0  0
  6 21  1  0  0  0  0
  7 10  2  0  0  0  0
  7 20  1  0  0  0  0
  8 24  1  0  0  0  0
  9 24  2  0  0  0  0
 10 25  1  0  0  0  0
 11 12  2  0  0  0  0
 11 26  1  0  0  0  0
 12 27  1  0  0  0  0
 13 22  1  0  0  0  0
 13 25  2  0  0  0  0
 14 23  1  0  0  0  0
 14 30  2  0  0  0  0
 15 27  2  0  0  0  0
 15 28  1  0  0  0  0
 16 23  2  0  0  0  0
 16 66  1  0  0  0  0
 17 29  1  0  0  0  0
 18 29  1  0  0  0  0
 18 31  2  0  0  0  0
 18 34  1  0  0  0  0
 19 21  2  0  0  0  0
 19 40  1  0  0  0  0
 20 22  2  0  0  0  0
 20 41  1  0  0  0  0
 21 49  1  0  0  0  0
 22 42  1  0  0  0  0
 23 72  1  0  0  0  0
 24 83  1  0  0  0  0
 25 84  1  0  0  0  0
 26 28  2  0  0  0  0
 26 83  1  0  0  0  0
 27 85  1  0  0  0  0
 28 86  1  0  0  0  0
 29 65  2  0  0  0  0
 30 35  1  0  0  0  0
 30 66  1  0  0  0  0
 31 67  1  0  0  0  0
 31 70  1  0  0  0  0
 32 33  2  0  0  0  0
 33 58  1  0  0  0  0
 34 71  1  0  0  0  0
 34 77  2  0  0  0  0
 35 73  1  0  0  0  0
 35 78  2  0  0  0  0
 36 50  1  0  0  0  0
 36 74  1  0  0  0  0
 36 79  2  0  0  0  0
 37 61  1  0  0  0  0
 37 68  1  0  0  0  0
 37 80  2  0  0  0  0
 38 62  1  0  0  0  0
 38 75  1  0  0  0  0
 38 81  2  0  0  0  0
 39 69  1  0  0  0  0
 39 72  1  0  0  0  0
 39 82  2  0  0  0  0
 40 43  1  0  0  0  0
 41 50  1  0  0  0  0
 42 68  1  0  0  0  0
 43 45  1  0  0  0  0
 44 46  1  0  0  0  0
 44 47  1  0  0  0  0
 45 49  1  0  0  0  0
 46 51  1  0  0  0  0
 47 69  1  0  0  0  0
 48 51  1  0  0  0  0
 48 69  1  0  0  0  0
 49 74  1  0  0  0  0
 50 68  1  0  0  0  0
 51 67  1  0  0  0  0
 52 62  1  0  0  0  0
 53 63  1  0  0  0  0
 54 64  1  0  0  0  0
 55 64  1  0  0  0  0
 56 64  1  0  0  0  0
 57 76  1  0  0  0  0
 58 66  1  0  0  0  0
 59 60  1  0  0  0  0
 59 63  1  0  0  0  0
 60 73  1  0  0  0  0
 61 64  1  0  0  0  0
 61 75  1  0  0  0  0
 62 76  1  0  0  0  0
 63 84  1  0  0  0  0
 65 67  1  0  0  0  0
M  CHG  1  76   1
M  ISO  4  39 100  63 101  72 100  84 101
M  END
> <Batch ID>
0115

> <Smiles>
C=CCn1cc([100NH:0][100C:0](=O)N2CCCC(n3nc(-c4ccc(Oc5ccc(F)cc5F)cc4)c(C(N)=O)c3N)C2)cc1C(=O)NCC[101CH:1](C)[101O:1]c1ccc2c(c1)CN(C(=O)C(NC(=O)C(C)NC)C(C)(C)C)C(C(=O)NC1CCCc3ccccc31)C2

> <Shape>
0.271

> <Color>
0.057

> <Negative vol penalty>
0.000

$$$$

  -OEChem-04052301403D

 87 95  0     1  0  0  0  0  0999 V2000
  -17.5438  -32.5151   23.2958 C   0  0  0  0  0  0  0  0  0  0  0  0
  -18.7083  -32.7396   22.5685 C   0  0  0  0  0  0  0  0  0  0  0  0
  -27.3552  -12.1470   21.6674 C   0  0  0  0  0  0  0  0  0  0  0  0
  -27.4869  -12.8257   19.3524 C   0  0  0  0  0  0  0  0  0  0  0  0
  -17.4972  -31.4855   24.2347 C   0  0  0  0  0  0  0  0  0  0  0  0
  -19.8274  -31.9350   22.7806 C   0  0  0  0  0  0  0  0  0  0  0  0
  -25.4233  -29.1250   19.3012 C   0  0  0  0  0  0  0  0  0  0  0  0
  -26.5438  -11.0716   21.3060 C   0  0  0  0  0  0  0  0  0  0  0  0
  -26.6755  -11.7502   18.9910 C   0  0  0  0  0  0  0  0  0  0  0  0
  -26.8118  -29.0360   19.3889 C   0  0  0  0  0  0  0  0  0  0  0  0
  -24.1423   -8.3544   21.0356 C   0  0  0  0  0  0  0  0  0  0  0  0
  -23.0090   -8.1062   21.8099 C   0  0  0  0  0  0  0  0  0  0  0  0
  -26.5900  -27.2365   20.9800 C   0  0  0  0  0  0  0  0  0  0  0  0
  -31.5517  -23.2388   18.1228 C   0  0  0  0  0  0  0  0  0  0  0  0
  -22.1650  -10.3072   21.2804 C   0  0  0  0  0  0  0  0  0  0  0  0
  -27.8267  -13.0241   20.6906 C   0  0  0  0  0  0  0  0  0  0  0  0
  -30.0306  -21.4046   17.7241 C   0  0  0  0  0  0  0  0  0  0  0  0
  -30.0697  -14.1503   21.1474 C   0  0  0  0  0  0  0  0  0  0  0  0
  -18.6130  -30.6618   24.4515 C   0  0  0  0  0  0  0  0  0  0  0  0
  -24.6062  -28.2763   20.0618 C   0  0  0  0  0  0  0  0  0  0  0  0
  -19.7961  -30.8943   23.7242 C   0  0  0  0  0  0  0  0  0  0  0  0
  -25.1913  -27.3150   20.8983 C   0  0  0  0  0  0  0  0  0  0  0  0
  -29.0395  -22.0696   18.4460 C   0  0  0  0  0  0  0  0  0  0  0  0
  -30.5607  -23.9039   18.8447 C   0  0  0  0  0  0  0  0  0  0  0  0
  -31.2867  -21.9892   17.5625 C   0  0  0  0  0  0  0  0  0  0  0  0
  -26.2040  -10.8731   19.9678 C   0  0  0  0  0  0  0  0  0  0  0  0
  -27.3954  -28.0936   20.2305 C   0  0  0  0  0  0  0  0  0  0  0  0
  -24.2870   -9.5791   20.3837 C   0  0  0  0  0  0  0  0  0  0  0  0
  -22.0203   -9.0825   21.9323 C   0  0  0  0  0  0  0  0  0  0  0  0
  -23.2984  -10.5554   20.5061 C   0  0  0  0  0  0  0  0  0  0  0  0
  -29.3046  -23.3192   19.0063 C   0  0  0  0  0  0  0  0  0  0  0  0
  -28.6645  -14.1356   21.0634 C   0  0  0  0  0  0  0  0  0  0  0  0
  -30.3768  -15.4303   21.5393 C   0  0  0  0  0  0  0  0  0  0  0  0
  -29.9225  -18.9552   17.7865 C   0  0  0  0  0  0  0  0  0  0  0  0
  -29.7477  -20.0956   17.1403 C   0  0  0  0  0  0  0  0  0  0  0  0
  -30.5712  -26.1817   18.6551 C   0  0  0  0  0  0  0  0  0  0  0  0
  -31.0130  -13.1007   20.8939 C   0  0  0  0  0  0  0  0  0  0  0  0
  -22.4316  -28.7055   22.3402 C   0  0  0  0  0  0  0  0  0  0  0  0
  -22.0011  -25.5095   21.9895 C   0  0  0  0  0  0  0  0  0  0  0  0
  -23.2870  -22.5027   21.0136 C   0  0  0  0  0  0  0  0  0  0  0  0
  -27.5194  -20.6623   20.9797 C   0  0  0  0  0  0  0  0  0  0  0  0
  -18.5304  -29.5915   25.5108 C   0  0  0  0  0  0  0  0  0  0  0  0
  -23.1101  -28.3671   19.9358 C   0  0  0  0  0  0  0  0  0  0  0  0
  -24.3586  -26.3668   21.7205 C   0  0  0  0  0  0  0  0  0  0  0  0
  -19.6378  -28.5458   25.4078 C   0  0  0  0  0  0  0  0  0  0  0  0
  -28.5918  -19.1215   24.0050 C   0  0  0  0  0  0  0  0  0  0  0  0
  -20.9920  -29.2199   25.2115 C   0  0  0  0  0  0  0  0  0  0  0  0
  -28.8588  -17.6703   23.6018 C   0  0  0  0  0  0  0  0  0  0  0  0
  -27.3922  -19.7027   23.2599 C   0  0  0  0  0  0  0  0  0  0  0  0
  -27.7267  -18.1350   21.3880 C   0  0  0  0  0  0  0  0  0  0  0  0
  -21.0226  -30.0272   23.9081 C   0  0  1  0  0  0  0  0  0  0  0  0
  -22.3731  -27.7979   21.1441 C   0  0  1  0  0  0  0  0  0  0  0  0
  -28.9614  -17.5233   22.0717 C   0  0  2  0  0  0  0  0  0  0  0  0
  -31.8438  -28.2504   18.2445 C   0  0  0  0  0  0  0  0  0  0  0  0
  -22.7121  -20.0635   20.8826 C   0  0  0  0  0  0  0  0  0  0  0  0
  -22.4409  -25.2467   24.9974 C   0  0  0  0  0  0  0  0  0  0  0  0
  -22.8018  -22.7924   24.6598 C   0  0  0  0  0  0  0  0  0  0  0  0
  -20.6026  -23.8187   24.0832 C   0  0  0  0  0  0  0  0  0  0  0  0
  -23.5840  -22.4720   18.0692 C   0  0  0  0  0  0  0  0  0  0  0  0
  -27.6814  -21.4737   18.6399 C   0  0  0  0  0  0  0  0  0  0  0  0
  -29.5013  -28.3600   19.1580 C   0  0  0  0  0  0  0  0  0  1  0  0
  -30.8178  -27.5874   19.1553 C   0  0  1  0  0  0  0  0  0  0  0  0
  -22.6070  -24.2745   22.6113 C   0  0  1  0  0  0  0  0  0  0  0  0
  -22.7138  -21.3952   20.1481 C   0  0  2  0  0  0  0  0  0  0  0  0
  -22.1291  -24.0521   24.0740 C   0  0  0  0  0  0  0  0  0  0  0  0
  -28.1169  -15.3128   21.3769 N   0  0  0  0  0  0  0  0  0  0  0  0
  -30.8297  -25.1624   19.4079 N   0  0  0  0  0  0  0  0  0  0  0  0
  -29.1834  -16.0792   21.6617 N   0  0  0  0  0  0  0  0  0  0  0  0
  -22.9003  -26.4990   21.5675 N   0  0  0  0  0  0  0  0  0  0  0  0
  -27.5527  -19.5326   21.8138 N   0  0  0  0  0  0  0  0  0  0  0  0
  -32.3114  -21.3403   16.8353 N   0  0  0  0  0  0  0  0  0  0  0  0
  -31.5486  -16.0529   21.7877 N   0  0  0  0  0  0  0  0  0  0  0  0
  -30.5271  -11.8466   20.4994 N   0  0  0  0  0  0  0  0  0  0  0  0
  -21.1957  -29.1470   22.7724 N   0  0  0  0  0  0  0  0  0  0  0  0
  -22.3007  -23.1705   21.7082 N   0  0  0  0  0  0  0  0  0  0  0  0
  -27.6857  -20.4132   19.6228 N   0  0  0  0  0  0  0  0  0  0  0  0
  -23.5167  -21.2435   18.9019 N   0  3  0  0  0  0  0  0  0  0  0  0
  -32.2491  -13.2653   21.0295 O   0  0  0  0  0  0  0  0  0  0  0  0
  -23.5177  -28.9833   22.8351 O   0  0  0  0  0  0  0  0  0  0  0  0
  -20.7754  -25.5901   21.8757 O   0  0  0  0  0  0  0  0  0  0  0  0
  -24.4899  -22.7483   21.0709 O   0  0  0  0  0  0  0  0  0  0  0  0
  -27.3591  -21.8085   21.4127 O   0  0  0  0  0  0  0  0  0  0  0  0
  -25.4124   -9.8237   19.6147 O   0  0  0  0  0  0  0  0  0  0  0  0
  -28.7505  -28.0050   20.3184 O   0  0  0  0  0  0  0  0  0  1  0  0
  -20.9313   -8.8434   22.6746 F   0  0  0  0  0  0  0  0  0  0  0  0
  -23.4313  -11.7334   19.8812 F   0  0  0  0  0  0  0  0  0  0  0  0
  -28.3531  -23.9606   19.7013 F   0  0  0  0  0  0  0  0  0  0  0  0
  1  2  1  0  0  0  0
  1  5  2  0  0  0  0
  2  6  2  0  0  0  0
  3  8  2  0  0  0  0
  3 16  1  0  0  0  0
  4  9  1  0  0  0  0
  4 16  2  0  0  0  0
  5 19  1  0  0  0  0
  6 21  1  0  0  0  0
  7 10  2  0  0  0  0
  7 20  1  0  0  0  0
  8 26  1  0  0  0  0
  9 26  2  0  0  0  0
 10 27  1  0  0  0  0
 11 12  2  0  0  0  0
 11 28  1  0  0  0  0
 12 29  1  0  0  0  0
 13 22  1  0  0  0  0
 13 27  2  0  0  0  0
 14 24  1  0  0  0  0
 14 25  2  0  0  0  0
 15 29  2  0  0  0  0
 15 30  1  0  0  0  0
 16 32  1  0  0  0  0
 17 23  2  0  0  0  0
 17 25  1  0  0  0  0
 17 35  1  0  0  0  0
 18 32  1  0  0  0  0
 18 33  2  0  0  0  0
 18 37  1  0  0  0  0
 19 21  2  0  0  0  0
 19 42  1  0  0  0  0
 20 22  2  0  0  0  0
 20 43  1  0  0  0  0
 21 51  1  0  0  0  0
 22 44  1  0  0  0  0
 23 31  1  0  0  0  0
 23 60  1  0  0  0  0
 24 31  2  0  0  0  0
 24 67  1  0  0  0  0
 25 71  1  0  0  0  0
 26 83  1  0  0  0  0
 27 84  1  0  0  0  0
 28 30  2  0  0  0  0
 28 83  1  0  0  0  0
 29 85  1  0  0  0  0
 30 86  1  0  0  0  0
 31 87  1  0  0  0  0
 32 66  2  0  0  0  0
 33 68  1  0  0  0  0
 33 72  1  0  0  0  0
 34 35  2  0  0  0  0
 36 62  1  0  0  0  0
 36 67  2  0  0  0  0
 37 73  1  0  0  0  0
 37 78  2  0  0  0  0
 38 52  1  0  0  0  0
 38 74  1  0  0  0  0
 38 79  2  0  0  0  0
 39 63  1  0  0  0  0
 39 69  1  0  0  0  0
 39 80  2  0  0  0  0
 40 64  1  0  0  0  0
 40 75  1  0  0  0  0
 40 81  2  0  0  0  0
 41 70  1  0  0  0  0
 41 76  1  0  0  0  0
 41 82  2  0  0  0  0
 42 45  1  0  0  0  0
 43 52  1  0  0  0  0
 44 69  1  0  0  0  0
 45 47  1  0  0  0  0
 46 48  1  0  0  0  0
 46 49  1  0  0  0  0
 47 51  1  0  0  0  0
 48 53  1  0  0  0  0
 49 70  1  0  0  0  0
 50 53  1  0  0  0  0
 50 70  1  0  0  0  0
 51 74  1  0  0  0  0
 52 69  1  0  0  0  0
 53 68  1  0  0  0  0
 54 62  1  0  0  0  0
 55 64  1  0  0  0  0
 56 65  1  0  0  0  0
 57 65  1  0  0  0  0
 58 65  1  0  0  0  0
 59 77  1  0  0  0  0
 60 76  1  0  0  0  0
 61 62  1  0  0  0  0
 61 84  1  0  0  0  0
 63 65  1  0  0  0  0
 63 75  1  0  0  0  0
 64 77  1  0  0  0  0
 66 68  1  0  0  0  0
M  CHG  1  77   1
M  ISO  4  41 100  61 101  76 100  84 101
M  END
> <Batch ID>
0115

> <Smiles>
C=Cc1c(N)cc(NC=C(C)[101CH2:1][101O:1]c2ccc3c(c2)CN(C(=O)C(NC(=O)C(C)NC)C(C)(C)C)C(C(=O)NC2CCCc4ccccc42)C3)c(F)c1C[100NH:0][100C:0](=O)N1CCCC(n2nc(-c3ccc(Oc4ccc(F)cc4F)cc3)c(C(N)=O)c2N)C1

> <Shape>
0.264

> <Color>
0.088

> <Negative vol penalty>
0.000

$$$$

  -OEChem-04052301403D

 87 95  0     1  0  0  0  0  0999 V2000
  -21.5361  -24.2515   20.8401 C   0  0  0  0  0  0  0  0  0  0  0  0
  -22.7550  -23.6501   20.5434 C   0  0  0  0  0  0  0  0  0  0  0  0
  -22.3429  -28.2788   20.8351 C   0  0  0  0  0  0  0  0  0  0  0  0
  -23.4438  -27.1695   22.6776 C   0  0  0  0  0  0  0  0  0  0  0  0
  -20.6828  -23.6698   21.7768 C   0  0  0  0  0  0  0  0  0  0  0  0
  -23.1218  -22.4672   21.1841 C   0  0  0  0  0  0  0  0  0  0  0  0
  -26.3430  -17.8356   18.8012 C   0  0  0  0  0  0  0  0  0  0  0  0
  -21.1067  -28.0634   21.4441 C   0  0  0  0  0  0  0  0  0  0  0  0
  -22.2075  -26.9542   23.2866 C   0  0  0  0  0  0  0  0  0  0  0  0
  -27.6909  -17.4894   18.8855 C   0  0  0  0  0  0  0  0  0  0  0  0
  -19.2885  -29.4346   23.9434 C   0  0  0  0  0  0  0  0  0  0  0  0
  -18.3891  -30.5002   23.9791 C   0  0  0  0  0  0  0  0  0  0  0  0
  -31.3333  -21.8461   22.0779 C   0  0  0  0  0  0  0  0  0  0  0  0
  -27.1814  -15.9686   20.6873 C   0  0  0  0  0  0  0  0  0  0  0  0
  -31.1532  -22.0585   19.3021 C   0  0  0  0  0  0  0  0  0  0  0  0
  -16.7906  -29.1929   22.7248 C   0  0  0  0  0  0  0  0  0  0  0  0
  -23.5115  -27.8318   21.4519 C   0  0  0  0  0  0  0  0  0  0  0  0
  -30.3746  -22.6803   21.5031 C   0  0  0  0  0  0  0  0  0  0  0  0
  -25.6355  -29.1661   20.9872 C   0  0  0  0  0  0  0  0  0  0  0  0
  -21.0351  -22.4740   22.4223 C   0  0  0  0  0  0  0  0  0  0  0  0
  -25.4042  -17.2580   19.6681 C   0  0  0  0  0  0  0  0  0  0  0  0
  -22.2731  -21.8697   22.1314 C   0  0  0  0  0  0  0  0  0  0  0  0
  -25.8218  -16.3072   20.6103 C   0  0  0  0  0  0  0  0  0  0  0  0
  -30.2845  -22.7865   20.1152 C   0  0  0  0  0  0  0  0  0  0  0  0
  -21.0389  -27.4011   22.6698 C   0  0  0  0  0  0  0  0  0  0  0  0
  -28.1107  -16.5579   19.8305 C   0  0  0  0  0  0  0  0  0  0  0  0
  -18.9390  -28.2482   23.2984 C   0  0  0  0  0  0  0  0  0  0  0  0
  -32.2021  -21.1181   21.2649 C   0  0  0  0  0  0  0  0  0  0  0  0
  -17.1401  -30.3793   23.3699 C   0  0  0  0  0  0  0  0  0  0  0  0
  -32.1120  -21.2243   19.8770 C   0  0  0  0  0  0  0  0  0  0  0  0
  -17.6901  -28.1274   22.6891 C   0  0  0  0  0  0  0  0  0  0  0  0
  -24.7888  -28.0534   20.8230 C   0  0  0  0  0  0  0  0  0  0  0  0
  -26.7152  -28.8978   20.1817 C   0  0  0  0  0  0  0  0  0  0  0  0
  -28.6881  -22.8547   23.2752 C   0  0  0  0  0  0  0  0  0  0  0  0
  -29.4844  -23.4259   22.3850 C   0  0  0  0  0  0  0  0  0  0  0  0
  -31.3504  -16.2588   21.2835 C   0  0  0  0  0  0  0  0  0  0  0  0
  -25.4617  -30.3374   21.7956 C   0  0  0  0  0  0  0  0  0  0  0  0
  -23.4296  -18.3681   21.8979 C   0  0  0  0  0  0  0  0  0  0  0  0
  -22.3829  -15.2982   21.9459 C   0  0  0  0  0  0  0  0  0  0  0  0
  -23.0352  -12.0049   21.3334 C   0  0  0  0  0  0  0  0  0  0  0  0
  -29.1218  -23.8253   18.1364 C   0  0  0  0  0  0  0  0  0  0  0  0
  -20.1009  -21.9080   23.4623 C   0  0  0  0  0  0  0  0  0  0  0  0
  -23.9499  -17.6222   19.5466 C   0  0  0  0  0  0  0  0  0  0  0  0
  -24.8507  -15.6430   21.5507 C   0  0  0  0  0  0  0  0  0  0  0  0
  -20.3981  -20.4543   23.8213 C   0  0  0  0  0  0  0  0  0  0  0  0
  -27.9131  -26.5471   16.1850 C   0  0  0  0  0  0  0  0  0  0  0  0
  -21.8925  -20.2568   24.0548 C   0  0  0  0  0  0  0  0  0  0  0  0
  -27.0567  -27.3468   17.1695 C   0  0  0  0  0  0  0  0  0  0  0  0
  -27.7958  -25.0427   16.4234 C   0  0  0  0  0  0  0  0  0  0  0  0
  -27.2029  -25.4099   18.7862 C   0  0  0  0  0  0  0  0  0  0  0  0
  -22.6954  -20.5729   22.7872 C   0  0  1  0  0  0  0  0  0  0  0  0
  -23.1582  -17.3542   20.8228 C   0  0  1  0  0  0  0  0  0  0  0  0
  -27.3388  -26.9330   18.6271 C   0  0  2  0  0  0  0  0  0  0  0  0
  -21.9993   -9.7259   21.5080 C   0  0  0  0  0  0  0  0  0  0  0  0
  -22.8644  -15.3128   24.9589 C   0  0  0  0  0  0  0  0  0  0  0  0
  -22.7366  -12.8127   24.9211 C   0  0  0  0  0  0  0  0  0  0  0  0
  -20.7569  -14.1714   24.2448 C   0  0  0  0  0  0  0  0  0  0  0  0
  -23.2223  -11.5688   18.4121 C   0  0  0  0  0  0  0  0  0  0  0  0
  -29.9156  -15.8325   21.1989 C   0  0  0  0  0  0  0  0  0  1  0  0
  -33.5365  -18.3805   23.2094 C   0  0  0  0  0  0  0  0  0  0  0  0
  -33.1580  -17.4045   22.1043 C   0  0  0  0  0  0  0  0  0  0  0  0
  -32.8181  -19.7187   23.0865 C   0  0  0  0  0  0  0  0  0  0  0  0
  -22.7612  -14.0515   22.7085 C   0  0  1  0  0  0  0  0  0  0  0  0
  -22.2317  -10.9354   20.6158 C   0  0  2  0  0  0  0  0  0  0  0  0
  -22.2986  -14.1009   24.1920 C   0  0  0  0  0  0  0  0  0  0  0  0
  -25.2876  -27.1460   19.9794 N   0  0  0  0  0  0  0  0  0  0  0  0
  -31.7282  -17.1155   22.1673 N   0  0  0  0  0  0  0  0  0  0  0  0
  -26.4593  -27.6880   19.6062 N   0  0  0  0  0  0  0  0  0  0  0  0
  -23.4405  -16.0371   21.3970 N   0  0  0  0  0  0  0  0  0  0  0  0
  -28.0806  -24.7249   17.8244 N   0  0  0  0  0  0  0  0  0  0  0  0
  -27.8489  -29.5810   19.9166 N   0  0  0  0  0  0  0  0  0  0  0  0
  -24.2939  -30.4530   22.5620 N   0  0  0  0  0  0  0  0  0  0  0  0
  -29.3213  -23.6256   19.5021 N   0  0  0  0  0  0  0  0  0  0  0  0
  -22.6066  -19.4769   21.8463 N   0  0  0  0  0  0  0  0  0  0  0  0
  -22.2189  -12.9291   21.9505 N   0  0  0  0  0  0  0  0  0  0  0  0
  -22.9486  -10.4841   19.3897 N   0  3  0  0  0  0  0  0  0  0  0  0
  -26.3090  -31.2619   21.8246 O   0  0  0  0  0  0  0  0  0  0  0  0
  -24.3188  -18.1593   22.7148 O   0  0  0  0  0  0  0  0  0  0  0  0
  -21.1923  -15.6014   21.8351 O   0  0  0  0  0  0  0  0  0  0  0  0
  -24.2641  -12.0170   21.3484 O   0  0  0  0  0  0  0  0  0  0  0  0
  -29.8054  -23.2938   17.2577 O   0  0  0  0  0  0  0  0  0  0  0  0
  -19.8328  -27.1910   23.2645 O   0  0  0  0  0  0  0  0  0  0  0  0
  -29.4259  -16.2187   19.9153 O   0  0  0  0  0  0  0  0  0  1  0  0
  -33.1445  -20.2996   21.8308 O   0  0  0  0  0  0  0  0  0  0  0  0
  -16.2759  -31.4020   23.4056 F   0  0  0  0  0  0  0  0  0  0  0  0
  -32.9444  -20.5278   19.0909 F   0  0  0  0  0  0  0  0  0  0  0  0
  -17.3483  -26.9897   22.0689 F   0  0  0  0  0  0  0  0  0  0  0  0
  1  2  1  0  0  0  0
  1  5  2  0  0  0  0
  2  6  2  0  0  0  0
  3  8  2  0  0  0  0
  3 17  1  0  0  0  0
  4  9  1  0  0  0  0
  4 17  2  0  0  0  0
  5 20  1  0  0  0  0
  6 22  1  0  0  0  0
  7 10  2  0  0  0  0
  7 21  1  0  0  0  0
  8 25  1  0  0  0  0
  9 25  2  0  0  0  0
 10 26  1  0  0  0  0
 11 12  2  0  0  0  0
 11 27  1  0  0  0  0
 12 29  1  0  0  0  0
 13 18  1  0  0  0  0
 13 28  2  0  0  0  0
 14 23  1  0  0  0  0
 14 26  2  0  0  0  0
 15 24  1  0  0  0  0
 15 30  2  0  0  0  0
 16 29  2  0  0  0  0
 16 31  1  0  0  0  0
 17 32  1  0  0  0  0
 18 24  2  0  0  0  0
 18 35  1  0  0  0  0
 19 32  1  0  0  0  0
 19 33  2  0  0  0  0
 19 37  1  0  0  0  0
 20 22  2  0  0  0  0
 20 42  1  0  0  0  0
 21 23  2  0  0  0  0
 21 43  1  0  0  0  0
 22 51  1  0  0  0  0
 23 44  1  0  0  0  0
 24 73  1  0  0  0  0
 25 82  1  0  0  0  0
 26 83  1  0  0  0  0
 27 31  2  0  0  0  0
 27 82  1  0  0  0  0
 28 30  1  0  0  0  0
 28 84  1  0  0  0  0
 29 85  1  0  0  0  0
 30 86  1  0  0  0  0
 31 87  1  0  0  0  0
 32 66  2  0  0  0  0
 33 68  1  0  0  0  0
 33 71  1  0  0  0  0
 34 35  2  0  0  0  0
 36 59  1  0  0  0  0
 36 67  2  0  0  0  0
 37 72  1  0  0  0  0
 37 77  2  0  0  0  0
 38 52  1  0  0  0  0
 38 74  1  0  0  0  0
 38 78  2  0  0  0  0
 39 63  1  0  0  0  0
 39 69  1  0  0  0  0
 39 79  2  0  0  0  0
 40 64  1  0  0  0  0
 40 75  1  0  0  0  0
 40 80  2  0  0  0  0
 41 70  1  0  0  0  0
 41 73  1  0  0  0  0
 41 81  2  0  0  0  0
 42 45  1  0  0  0  0
 43 52  1  0  0  0  0
 44 69  1  0  0  0  0
 45 47  1  0  0  0  0
 46 48  1  0  0  0  0
 46 49  1  0  0  0  0
 47 51  1  0  0  0  0
 48 53  1  0  0  0  0
 49 70  1  0  0  0  0
 50 53  1  0  0  0  0
 50 70  1  0  0  0  0
 51 74  1  0  0  0  0
 52 69  1  0  0  0  0
 53 68  1  0  0  0  0
 54 64  1  0  0  0  0
 55 65  1  0  0  0  0
 56 65  1  0  0  0  0
 57 65  1  0  0  0  0
 58 76  1  0  0  0  0
 59 83  1  0  0  0  0
 60 61  1  0  0  0  0
 60 62  1  0  0  0  0
 61 67  1  0  0  0  0
 62 84  1  0  0  0  0
 63 65  1  0  0  0  0
 63 75  1  0  0  0  0
 64 76  1  0  0  0  0
 66 68  1  0  0  0  0
M  CHG  1  76   1
M  ISO  4  41 100  59 101  73 100  83 101
M  END
> <Batch ID>
0115

> <Smiles>
C=Cc1cc(OCCCNC=[101CH:1][101O:1]c2ccc3c(c2)CN(C(=O)C(NC(=O)C(C)NC)C(C)(C)C)C(C(=O)NC2CCCc4ccccc42)C3)c(F)cc1[100NH:0][100C:0](=O)N1CCCC(n2nc(-c3ccc(Oc4ccc(F)cc4F)cc3)c(C(N)=O)c2N)C1

> <Shape>
0.226

> <Color>
0.054

> <Negative vol penalty>
0.000

$$$$

  -OEChem-04052301403D

 85 93  0     1  0  0  0  0  0999 V2000
  -19.7007  -33.8345   21.7169 C   0  0  0  0  0  0  0  0  0  0  0  0
  -20.9677  -33.4334   21.3056 C   0  0  0  0  0  0  0  0  0  0  0  0
  -22.9707  -13.2170   20.9765 C   0  0  0  0  0  0  0  0  0  0  0  0
  -22.7082  -15.0518   22.5262 C   0  0  0  0  0  0  0  0  0  0  0  0
  -19.0182  -33.0994   22.6853 C   0  0  0  0  0  0  0  0  0  0  0  0
  -21.5535  -32.2975   21.8633 C   0  0  0  0  0  0  0  0  0  0  0  0
  -25.2237  -28.2866   19.0442 C   0  0  0  0  0  0  0  0  0  0  0  0
  -22.1952  -12.4062   21.8052 C   0  0  0  0  0  0  0  0  0  0  0  0
  -21.9326  -14.2410   23.3548 C   0  0  0  0  0  0  0  0  0  0  0  0
  -26.6102  -28.1438   19.0148 C   0  0  0  0  0  0  0  0  0  0  0  0
  -18.9138  -11.9533   22.4839 C   0  0  0  0  0  0  0  0  0  0  0  0
  -17.9272  -11.1699   21.8851 C   0  0  0  0  0  0  0  0  0  0  0  0
  -26.4726  -26.5025   20.7773 C   0  0  0  0  0  0  0  0  0  0  0  0
  -18.9943   -9.1761   22.7355 C   0  0  0  0  0  0  0  0  0  0  0  0
  -23.2273  -14.5399   21.3371 C   0  0  0  0  0  0  0  0  0  0  0  0
  -23.5773  -16.2000   19.4321 C   0  0  0  0  0  0  0  0  0  0  0  0
  -19.5919  -31.9485   23.2482 C   0  0  0  0  0  0  0  0  0  0  0  0
  -24.4509  -27.5451   19.9494 C   0  0  0  0  0  0  0  0  0  0  0  0
  -20.8786  -31.5471   22.8412 C   0  0  0  0  0  0  0  0  0  0  0  0
  -25.0762  -26.6358   20.8144 C   0  0  0  0  0  0  0  0  0  0  0  0
  -21.6761  -12.9181   22.9943 C   0  0  0  0  0  0  0  0  0  0  0  0
  -27.2352  -27.2538   19.8834 C   0  0  0  0  0  0  0  0  0  0  0  0
  -19.9407  -11.3481   23.2085 C   0  0  0  0  0  0  0  0  0  0  0  0
  -17.9675   -9.7813   22.0110 C   0  0  0  0  0  0  0  0  0  0  0  0
  -19.9809   -9.9595   23.3343 C   0  0  0  0  0  0  0  0  0  0  0  0
  -24.0288  -15.3778   20.4818 C   0  0  0  0  0  0  0  0  0  0  0  0
  -24.7184  -16.7825   18.9370 C   0  0  0  0  0  0  0  0  0  0  0  0
  -32.6880  -23.6890   19.4978 C   0  0  0  0  0  0  0  0  0  0  0  0
  -32.5243  -21.3043   20.1276 C   0  0  0  0  0  0  0  0  0  0  0  0
  -33.2587  -22.5121   19.8058 C   0  0  0  0  0  0  0  0  0  0  0  0
  -31.2704  -23.9971   19.4248 C   0  0  0  0  0  0  0  0  0  0  0  0
  -31.3590  -20.9181   19.5910 C   0  0  0  0  0  0  0  0  0  0  0  0
  -30.3037  -23.1616   18.9874 C   0  0  0  0  0  0  0  0  0  0  0  0
  -30.6124  -21.7455   18.6021 C   0  0  0  0  0  0  0  0  0  0  0  0
  -31.0450  -26.1435   18.7861 C   0  0  0  0  0  0  0  0  0  0  0  0
  -22.2455  -16.4178   18.9478 C   0  0  0  0  0  0  0  0  0  0  0  0
  -22.5153  -28.2689   22.3647 C   0  0  0  0  0  0  0  0  0  0  0  0
  -21.9382  -25.0769   22.3477 C   0  0  0  0  0  0  0  0  0  0  0  0
  -23.0175  -21.9418   21.5396 C   0  0  0  0  0  0  0  0  0  0  0  0
  -29.4335  -19.4693   19.9068 C   0  0  0  0  0  0  0  0  0  0  0  0
  -18.8354  -31.2132   24.3261 C   0  0  0  0  0  0  0  0  0  0  0  0
  -22.9538  -27.6910   19.9502 C   0  0  0  0  0  0  0  0  0  0  0  0
  -24.2899  -25.8014   21.7912 C   0  0  0  0  0  0  0  0  0  0  0  0
  -19.3702  -29.8091   24.5957 C   0  0  0  0  0  0  0  0  0  0  0  0
  -29.5813  -15.7781   19.7963 C   0  0  0  0  0  0  0  0  0  0  0  0
  -20.8910  -29.8301   24.7113 C   0  0  0  0  0  0  0  0  0  0  0  0
  -28.1044  -15.4215   19.9353 C   0  0  0  0  0  0  0  0  0  0  0  0
  -29.9428  -17.0406   20.5779 C   0  0  0  0  0  0  0  0  0  0  0  0
  -27.6119  -17.8584   20.3747 C   0  0  0  0  0  0  0  0  0  0  0  0
  -21.5370  -30.3066   23.4047 C   0  0  1  0  0  0  0  0  0  0  0  0
  -22.3125  -27.2634   21.2667 C   0  0  1  0  0  0  0  0  0  0  0  0
  -27.2202  -16.6188   19.5556 C   0  0  2  0  0  0  0  0  0  0  0  0
  -34.7558  -22.3746   19.8806 C   0  0  0  0  0  0  0  0  0  0  0  0
  -22.3447  -19.5285   21.6842 C   0  0  0  0  0  0  0  0  0  0  0  0
  -22.6468  -25.0596   25.3155 C   0  0  0  0  0  0  0  0  0  0  0  0
  -22.8853  -22.5715   25.1727 C   0  0  0  0  0  0  0  0  0  0  0  0
  -20.6806  -23.6403   24.7042 C   0  0  0  0  0  0  0  0  0  0  0  0
  -23.0372  -21.6397   18.5955 C   0  0  0  0  0  0  0  0  0  0  0  0
  -30.7910  -27.6085   19.0317 C   0  0  0  0  0  0  0  0  0  0  0  0
  -29.3061  -27.9084   18.9146 C   0  0  0  0  0  0  0  0  0  1  0  0
  -22.5542  -23.8755   23.0230 C   0  0  1  0  0  0  0  0  0  0  0  0
  -22.3261  -20.7892   20.8338 C   0  0  2  0  0  0  0  0  0  0  0  0
  -22.2070  -23.8037   24.5369 C   0  0  0  0  0  0  0  0  0  0  0  0
  -25.3535  -15.4304   20.6447 N   0  0  0  0  0  0  0  0  0  0  0  0
  -30.1574  -21.2503   17.4921 N   0  0  0  0  0  0  0  0  0  0  0  0
  -31.0191  -25.3037   19.7669 N   0  0  0  0  0  0  0  0  0  0  0  0
  -25.7441  -16.2925   19.6908 N   0  0  0  0  0  0  0  0  0  0  0  0
  -22.8294  -25.9845   21.7581 N   0  0  0  0  0  0  0  0  0  0  0  0
  -29.0439  -18.1584   20.2477 N   0  0  0  0  0  0  0  0  0  0  0  0
  -24.9345  -17.6607   17.9349 N   0  0  0  0  0  0  0  0  0  0  0  0
  -28.9864  -23.4957   18.8188 N   0  0  0  0  0  0  0  0  0  0  0  0
  -21.1888  -15.7397   19.5706 N   0  0  0  0  0  0  0  0  0  0  0  0
  -30.8053  -19.7069   19.8980 N   0  0  0  0  0  0  0  0  0  0  0  0
  -21.5368  -29.2428   22.4235 N   0  0  0  0  0  0  0  0  0  0  0  0
  -22.1251  -22.7112   22.2557 N   0  0  0  0  0  0  0  0  0  0  0  0
  -23.0033  -20.4932   19.5397 N   0  3  0  0  0  0  0  0  0  0  0  0
  -22.0016  -17.1784   17.9805 O   0  0  0  0  0  0  0  0  0  0  0  0
  -23.4868  -28.1677   23.1047 O   0  0  0  0  0  0  0  0  0  0  0  0
  -20.7110  -25.2016   22.3373 O   0  0  0  0  0  0  0  0  0  0  0  0
  -24.2286  -22.1376   21.4661 O   0  0  0  0  0  0  0  0  0  0  0  0
  -28.6136  -20.3558   19.6414 O   0  0  0  0  0  0  0  0  0  0  0  0
  -20.9190  -12.1273   23.8030 O   0  0  0  0  0  0  0  0  0  0  0  0
  -28.5884  -27.1130   19.8573 O   0  0  0  0  0  0  0  0  0  1  0  0
  -17.0191   -9.0293   21.4372 F   0  0  0  0  0  0  0  0  0  0  0  0
  -20.9643   -9.3725   24.0301 F   0  0  0  0  0  0  0  0  0  0  0  0
  1  2  1  0  0  0  0
  1  5  2  0  0  0  0
  2  6  2  0  0  0  0
  3  8  2  0  0  0  0
  3 15  1  0  0  0  0
  4  9  1  0  0  0  0
  4 15  2  0  0  0  0
  5 17  1  0  0  0  0
  6 19  1  0  0  0  0
  7 10  2  0  0  0  0
  7 18  1  0  0  0  0
  8 21  1  0  0  0  0
  9 21  2  0  0  0  0
 10 22  1  0  0  0  0
 11 12  2  0  0  0  0
 11 23  1  0  0  0  0
 12 24  1  0  0  0  0
 13 20  1  0  0  0  0
 13 22  2  0  0  0  0
 14 24  2  0  0  0  0
 14 25  1  0  0  0  0
 15 26  1  0  0  0  0
 16 26  1  0  0  0  0
 16 27  2  0  0  0  0
 16 36  1  0  0  0  0
 17 19  2  0  0  0  0
 17 41  1  0  0  0  0
 18 20  2  0  0  0  0
 18 42  1  0  0  0  0
 19 50  1  0  0  0  0
 20 43  1  0  0  0  0
 21 82  1  0  0  0  0
 22 83  1  0  0  0  0
 23 25  2  0  0  0  0
 23 82  1  0  0  0  0
 24 84  1  0  0  0  0
 25 85  1  0  0  0  0
 26 64  2  0  0  0  0
 27 67  1  0  0  0  0
 27 70  1  0  0  0  0
 28 30  2  0  0  0  0
 28 31  1  0  0  0  0
 29 30  1  0  0  0  0
 29 32  2  0  0  0  0
 30 53  1  0  0  0  0
 31 33  2  0  0  0  0
 31 66  1  0  0  0  0
 32 34  1  0  0  0  0
 32 73  1  0  0  0  0
 33 34  1  0  0  0  0
 33 71  1  0  0  0  0
 34 65  2  0  0  0  0
 35 59  1  0  0  0  0
 35 66  2  0  0  0  0
 36 72  1  0  0  0  0
 36 77  2  0  0  0  0
 37 51  1  0  0  0  0
 37 74  1  0  0  0  0
 37 78  2  0  0  0  0
 38 61  1  0  0  0  0
 38 68  1  0  0  0  0
 38 79  2  0  0  0  0
 39 62  1  0  0  0  0
 39 75  1  0  0  0  0
 39 80  2  0  0  0  0
 40 69  1  0  0  0  0
 40 73  1  0  0  0  0
 40 81  2  0  0  0  0
 41 44  1  0  0  0  0
 42 51  1  0  0  0  0
 43 68  1  0  0  0  0
 44 46  1  0  0  0  0
 45 47  1  0  0  0  0
 45 48  1  0  0  0  0
 46 50  1  0  0  0  0
 47 52  1  0  0  0  0
 48 69  1  0  0  0  0
 49 52  1  0  0  0  0
 49 69  1  0  0  0  0
 50 74  1  0  0  0  0
 51 68  1  0  0  0  0
 52 67  1  0  0  0  0
 54 62  1  0  0  0  0
 55 63  1  0  0  0  0
 56 63  1  0  0  0  0
 57 63  1  0  0  0  0
 58 76  1  0  0  0  0
 59 60  1  0  0  0  0
 60 83  1  0  0  0  0
 61 63  1  0  0  0  0
 61 75  1  0  0  0  0
 62 76  1  0  0  0  0
 64 67  1  0  0  0  0
M  CHG  1  76   1
M  ISO  4  40 100  60 101  73 100  83 101
M  END
> <Batch ID>
0115

> <Smiles>
CNC(C)C(=O)NC(C(=O)N1Cc2cc([101O:1][101CH2:1]C=CNc3cc(C)cc(=[100N:0][100C:0](=O)N4CCCC(n5nc(-c6ccc(Oc7ccc(F)cc7F)cc6)c(C(N)=O)c5N)C4)c(N)c3N)ccc2CC1C(=O)NC1CCCc2ccccc21)C(C)(C)C

> <Shape>
0.179

> <Color>
0.113

> <Negative vol penalty>
0.000

$$$$

  -OEChem-04052301403D

 84 92  0     1  0  0  0  0  0999 V2000
  -29.0006  -35.9156   22.7457 C   0  0  0  0  0  0  0  0  0  0  0  0
  -29.1204  -34.5374   22.5990 C   0  0  0  0  0  0  0  0  0  0  0  0
  -28.2290  -14.3849   20.8711 C   0  0  0  0  0  0  0  0  0  0  0  0
  -26.5958  -14.8154   19.1436 C   0  0  0  0  0  0  0  0  0  0  0  0
  -27.8332  -36.4598   23.2795 C   0  0  0  0  0  0  0  0  0  0  0  0
  -28.0732  -33.7024   22.9871 C   0  0  0  0  0  0  0  0  0  0  0  0
  -27.0960  -30.0953   19.5697 C   0  0  0  0  0  0  0  0  0  0  0  0
  -27.6383  -13.1463   21.1210 C   0  0  0  0  0  0  0  0  0  0  0  0
  -26.0051  -13.5767   19.3934 C   0  0  0  0  0  0  0  0  0  0  0  0
  -27.9528  -28.9958   19.5417 C   0  0  0  0  0  0  0  0  0  0  0  0
  -23.9005  -12.2350   21.6741 C   0  0  0  0  0  0  0  0  0  0  0  0
  -22.5090  -12.1857   21.7576 C   0  0  0  0  0  0  0  0  0  0  0  0
  -26.3437  -27.7175   20.8051 C   0  0  0  0  0  0  0  0  0  0  0  0
  -22.4529  -10.6344   19.9062 C   0  0  0  0  0  0  0  0  0  0  0  0
  -27.7077  -15.2195   19.8824 C   0  0  0  0  0  0  0  0  0  0  0  0
  -29.3538  -16.7791   18.7137 C   0  0  0  0  0  0  0  0  0  0  0  0
  -25.5561  -22.3799   18.2562 C   0  0  0  0  0  0  0  0  0  0  0  0
  -26.7674  -35.6317   23.6653 C   0  0  0  0  0  0  0  0  0  0  0  0
  -25.8593  -30.0175   20.2260 C   0  0  0  0  0  0  0  0  0  0  0  0
  -26.8910  -34.2359   23.5278 C   0  0  0  0  0  0  0  0  0  0  0  0
  -25.4720  -28.8167   20.8377 C   0  0  0  0  0  0  0  0  0  0  0  0
  -26.5263  -12.7422   20.3822 C   0  0  0  0  0  0  0  0  0  0  0  0
  -27.5779  -27.8075   20.1619 C   0  0  0  0  0  0  0  0  0  0  0  0
  -24.5682  -11.4841   20.7066 C   0  0  0  0  0  0  0  0  0  0  0  0
  -21.7852  -11.3854   20.8737 C   0  0  0  0  0  0  0  0  0  0  0  0
  -23.8444  -10.6837   19.8227 C   0  0  0  0  0  0  0  0  0  0  0  0
  -28.3172  -16.4993   19.6242 C   0  0  0  0  0  0  0  0  0  0  0  0
  -24.8979  -22.0636   17.0552 C   0  0  0  0  0  0  0  0  0  0  0  0
  -26.7202  -22.9721   17.8434 C   0  0  0  0  0  0  0  0  0  0  0  0
  -29.5703  -18.1291   18.8442 C   0  0  0  0  0  0  0  0  0  0  0  0
  -22.7548  -21.5825   15.9640 C   0  0  0  0  0  0  0  0  0  0  0  0
  -23.6332  -21.4271   16.9725 C   0  0  0  0  0  0  0  0  0  0  0  0
  -28.4242  -24.4807   18.0551 C   0  0  0  0  0  0  0  0  0  0  0  0
  -25.1572  -22.1611   19.6153 C   0  0  0  0  0  0  0  0  0  0  0  0
  -30.0579  -15.8974   17.8290 C   0  0  0  0  0  0  0  0  0  0  0  0
  -26.0033  -22.5728   20.7589 C   0  0  0  0  0  0  0  0  0  0  0  0
  -24.5304  -31.5187   22.6926 C   0  0  0  0  0  0  0  0  0  0  0  0
  -21.9125  -29.8139   21.8195 C   0  0  0  0  0  0  0  0  0  0  0  0
  -20.6355  -27.0692   20.2439 C   0  0  0  0  0  0  0  0  0  0  0  0
  -25.5438  -36.2629   24.2812 C   0  0  0  0  0  0  0  0  0  0  0  0
  -24.9350  -31.2041   20.2242 C   0  0  0  0  0  0  0  0  0  0  0  0
  -24.1462  -28.6751   21.5382 C   0  0  0  0  0  0  0  0  0  0  0  0
  -24.3332  -35.3338   24.3200 C   0  0  0  0  0  0  0  0  0  0  0  0
  -29.2496  -21.6960   22.0037 C   0  0  0  0  0  0  0  0  0  0  0  0
  -24.7341  -33.9560   24.8375 C   0  0  0  0  0  0  0  0  0  0  0  0
  -29.4551  -20.2739   21.4830 C   0  0  0  0  0  0  0  0  0  0  0  0
  -27.7864  -21.9598   22.3442 C   0  0  0  0  0  0  0  0  0  0  0  0
  -27.0487  -20.2699   20.6864 C   0  0  0  0  0  0  0  0  0  0  0  0
  -25.7672  -33.2989   23.9141 C   0  0  1  0  0  0  0  0  0  0  0  0
  -23.9208  -31.1733   21.3634 C   0  0  1  0  0  0  0  0  0  0  0  0
  -28.5101  -19.9750   20.3056 C   0  0  2  0  0  0  0  0  0  0  0  0
  -30.8373  -24.9574   17.9238 C   0  0  0  0  0  0  0  0  0  0  0  0
  -18.4611  -25.9271   19.7291 C   0  0  0  0  0  0  0  0  0  0  0  0
  -21.7628  -28.8076   24.6962 C   0  0  0  0  0  0  0  0  0  0  0  0
  -20.2210  -26.9987   23.9095 C   0  0  0  0  0  0  0  0  0  0  0  0
  -19.5540  -29.3913   23.6789 C   0  0  0  0  0  0  0  0  0  0  0  0
  -21.0566  -27.3287   17.3260 C   0  0  0  0  0  0  0  0  0  0  0  0
  -29.2738  -26.6059   19.0060 C   0  0  0  0  0  0  0  0  0  1  0  0
  -29.5853  -25.1296   18.7748 C   0  0  1  0  0  0  0  0  0  0  0  0
  -21.3550  -28.4558   22.1711 C   0  0  1  0  0  0  0  0  0  0  0  0
  -19.5062  -26.9181   19.2407 C   0  0  2  0  0  0  0  0  0  0  0  0
  -20.7491  -28.4163   23.6025 C   0  0  0  0  0  0  0  0  0  0  0  0
  -27.9041  -17.5844   20.2845 N   0  0  0  0  0  0  0  0  0  0  0  0
  -25.6001  -22.4316   15.9798 N   0  0  0  0  0  0  0  0  0  0  0  0
  -24.0248  -21.5879   19.9686 N   0  0  0  0  0  0  0  0  0  0  0  0
  -27.7824  -23.4977   18.5978 N   0  0  0  0  0  0  0  0  0  0  0  0
  -28.6851  -18.5591   19.7884 N   0  0  0  0  0  0  0  0  0  0  0  0
  -26.9142  -21.6319   21.2183 N   0  0  0  0  0  0  0  0  0  0  0  0
  -23.2800  -29.8654   21.5145 N   0  0  0  0  0  0  0  0  0  0  0  0
  -30.4298  -18.9784   18.2423 N   0  0  0  0  0  0  0  0  0  0  0  0
  -29.7092  -14.5400   17.8214 N   0  0  0  0  0  0  0  0  0  0  0  0
  -25.1228  -32.7665   22.7327 N   0  0  0  0  0  0  0  0  0  0  0  0
  -20.4101  -28.1159   21.1127 N   0  0  0  0  0  0  0  0  0  0  0  0
  -20.0356  -26.4368   17.9334 N   0  3  0  0  0  0  0  0  0  0  0  0
  -30.9804  -16.2985   17.0796 O   0  0  0  0  0  0  0  0  0  0  0  0
  -25.8071  -23.7055   21.1792 O   0  0  0  0  0  0  0  0  0  0  0  0
  -24.4667  -30.7134   23.6141 O   0  0  0  0  0  0  0  0  0  0  0  0
  -21.1608  -30.7919   21.8087 O   0  0  0  0  0  0  0  0  0  0  0  0
  -21.6174  -26.3302   20.2579 O   0  0  0  0  0  0  0  0  0  0  0  0
  -26.7581  -23.0088   16.4869 O   0  0  0  0  0  0  0  0  0  0  0  0
  -25.9498  -11.5335   20.6255 O   0  0  0  0  0  0  0  0  0  0  0  0
  -28.4125  -26.7330   20.1367 O   0  0  0  0  0  0  0  0  0  1  0  0
  -20.4491  -11.3369   20.9550 F   0  0  0  0  0  0  0  0  0  0  0  0
  -24.4804   -9.9591   18.8920 F   0  0  0  0  0  0  0  0  0  0  0  0
  1  2  1  0  0  0  0
  1  5  2  0  0  0  0
  2  6  2  0  0  0  0
  3  8  2  0  0  0  0
  3 15  1  0  0  0  0
  4  9  1  0  0  0  0
  4 15  2  0  0  0  0
  5 18  1  0  0  0  0
  6 20  1  0  0  0  0
  7 10  2  0  0  0  0
  7 19  1  0  0  0  0
  8 22  1  0  0  0  0
  9 22  2  0  0  0  0
 10 23  1  0  0  0  0
 11 12  2  0  0  0  0
 11 24  1  0  0  0  0
 12 25  1  0  0  0  0
 13 21  1  0  0  0  0
 13 23  2  0  0  0  0
 14 25  2  0  0  0  0
 14 26  1  0  0  0  0
 15 27  1  0  0  0  0
 16 27  1  0  0  0  0
 16 30  2  0  0  0  0
 16 35  1  0  0  0  0
 17 28  1  0  0  0  0
 17 29  2  0  0  0  0
 17 34  1  0  0  0  0
 18 20  2  0  0  0  0
 18 40  1  0  0  0  0
 19 21  2  0  0  0  0
 19 41  1  0  0  0  0
 20 49  1  0  0  0  0
 21 42  1  0  0  0  0
 22 81  1  0  0  0  0
 23 82  1  0  0  0  0
 24 26  2  0  0  0  0
 24 81  1  0  0  0  0
 25 83  1  0  0  0  0
 26 84  1  0  0  0  0
 27 63  2  0  0  0  0
 28 32  1  0  0  0  0
 28 64  2  0  0  0  0
 29 66  1  0  0  0  0
 29 80  1  0  0  0  0
 30 67  1  0  0  0  0
 30 70  1  0  0  0  0
 31 32  2  0  0  0  0
 33 59  1  0  0  0  0
 33 66  2  0  0  0  0
 34 36  1  0  0  0  0
 34 65  2  0  0  0  0
 35 71  1  0  0  0  0
 35 75  2  0  0  0  0
 36 68  1  0  0  0  0
 36 76  2  0  0  0  0
 37 50  1  0  0  0  0
 37 72  1  0  0  0  0
 37 77  2  0  0  0  0
 38 60  1  0  0  0  0
 38 69  1  0  0  0  0
 38 78  2  0  0  0  0
 39 61  1  0  0  0  0
 39 73  1  0  0  0  0
 39 79  2  0  0  0  0
 40 43  1  0  0  0  0
 41 50  1  0  0  0  0
 42 69  1  0  0  0  0
 43 45  1  0  0  0  0
 44 46  1  0  0  0  0
 44 47  1  0  0  0  0
 45 49  1  0  0  0  0
 46 51  1  0  0  0  0
 47 68  1  0  0  0  0
 48 51  1  0  0  0  0
 48 68  1  0  0  0  0
 49 72  1  0  0  0  0
 50 69  1  0  0  0  0
 51 67  1  0  0  0  0
 52 59  1  0  0  0  0
 53 61  1  0  0  0  0
 54 62  1  0  0  0  0
 55 62  1  0  0  0  0
 56 62  1  0  0  0  0
 57 74  1  0  0  0  0
 58 59  1  0  0  0  0
 58 82  1  0  0  0  0
 60 62  1  0  0  0  0
 60 73  1  0  0  0  0
 61 74  1  0  0  0  0
 63 67  1  0  0  0  0
 64 80  1  0  0  0  0
M  CHG  1  74   1
M  ISO  4  34 100  36 100  58 101  82 101
M  END
> <Batch ID>
0115

> <Smiles>
C=Cc1noc(NC=C(C)[101CH2:1][101O:1]c2ccc3c(c2)CN(C(=O)C(NC(=O)C(C)NC)C(C)(C)C)C(C(=O)NC2CCCc4ccccc42)C3)c1[100C:0](=N)[100C:0](=O)N1CCCC(n2nc(-c3ccc(Oc4ccc(F)cc4F)cc3)c(C(N)=O)c2N)C1

> <Shape>
0.302

> <Color>
0.066

> <Negative vol penalty>
0.000

$$$$

  -OEChem-04052301403D

 87 95  0     1  0  0  0  0  0999 V2000
  -29.8633  -33.7721   16.7646 C   0  0  0  0  0  0  0  0  0  0  0  0
  -29.7001  -32.4572   17.1888 C   0  0  0  0  0  0  0  0  0  0  0  0
  -23.9053   -9.2333   20.5228 C   0  0  0  0  0  0  0  0  0  0  0  0
  -22.9364  -11.4463   20.5503 C   0  0  0  0  0  0  0  0  0  0  0  0
  -29.5846  -34.8241   17.6361 C   0  0  0  0  0  0  0  0  0  0  0  0
  -29.2591  -32.1936   18.4851 C   0  0  0  0  0  0  0  0  0  0  0  0
  -25.6829  -28.6111   18.6298 C   0  0  0  0  0  0  0  0  0  0  0  0
  -22.6927   -8.6969   20.9555 C   0  0  0  0  0  0  0  0  0  0  0  0
  -21.7236  -10.9099   20.9831 C   0  0  0  0  0  0  0  0  0  0  0  0
  -26.1029  -27.2870   18.5112 C   0  0  0  0  0  0  0  0  0  0  0  0
  -20.9952   -8.4050   23.8637 C   0  0  0  0  0  0  0  0  0  0  0  0
  -21.0348   -7.4566   24.8858 C   0  0  0  0  0  0  0  0  0  0  0  0
  -25.9386  -27.0269   20.9038 C   0  0  0  0  0  0  0  0  0  0  0  0
  -31.5395  -17.6949   18.3956 C   0  0  0  0  0  0  0  0  0  0  0  0
  -30.9915  -20.0442   18.5283 C   0  0  0  0  0  0  0  0  0  0  0  0
  -19.9966   -5.8375   23.4237 C   0  0  0  0  0  0  0  0  0  0  0  0
  -24.0272  -10.6080   20.3202 C   0  0  0  0  0  0  0  0  0  0  0  0
  -25.6955  -11.3615   18.5435 C   0  0  0  0  0  0  0  0  0  0  0  0
  -29.1307  -34.5735   18.9406 C   0  0  0  0  0  0  0  0  0  0  0  0
  -25.3975  -29.1572   19.8895 C   0  0  0  0  0  0  0  0  0  0  0  0
  -28.9754  -33.2433   19.3753 C   0  0  0  0  0  0  0  0  0  0  0  0
  -25.5126  -28.3574   21.0355 C   0  0  0  0  0  0  0  0  0  0  0  0
  -29.8710  -18.4592   19.9668 C   0  0  0  0  0  0  0  0  0  0  0  0
  -30.6098  -17.4214   19.3988 C   0  0  0  0  0  0  0  0  0  0  0  0
  -21.6018   -9.5352   21.1857 C   0  0  0  0  0  0  0  0  0  0  0  0
  -26.2336  -26.4955   19.6486 C   0  0  0  0  0  0  0  0  0  0  0  0
  -20.4562   -8.0697   22.6217 C   0  0  0  0  0  0  0  0  0  0  0  0
  -30.0618  -19.7707   19.5315 C   0  0  0  0  0  0  0  0  0  0  0  0
  -20.5356   -6.1729   24.6658 C   0  0  0  0  0  0  0  0  0  0  0  0
  -31.7304  -19.0063   17.9604 C   0  0  0  0  0  0  0  0  0  0  0  0
  -19.9569   -6.7860   22.4016 C   0  0  0  0  0  0  0  0  0  0  0  0
  -25.2798  -11.1628   19.8737 C   0  0  0  0  0  0  0  0  0  0  0  0
  -26.9497  -11.9102   18.6540 C   0  0  0  0  0  0  0  0  0  0  0  0
  -31.0374  -13.7809   19.4073 C   0  0  0  0  0  0  0  0  0  0  0  0
  -30.6249  -14.9777   18.9839 C   0  0  0  0  0  0  0  0  0  0  0  0
  -25.0091  -11.0758   17.3175 C   0  0  0  0  0  0  0  0  0  0  0  0
  -26.5903  -31.5386   21.6244 C   0  0  0  0  0  0  0  0  0  0  0  0
  -28.3326  -23.5812   20.1604 C   0  0  0  0  0  0  0  0  0  0  0  0
  -24.1058  -30.8345   23.5876 C   0  0  0  0  0  0  0  0  0  0  0  0
  -21.8348  -28.5306   24.6743 C   0  0  0  0  0  0  0  0  0  0  0  0
  -30.2011  -15.7980   21.2138 C   0  0  0  0  0  0  0  0  0  0  0  0
  -28.8876  -35.7426   19.8618 C   0  0  0  0  0  0  0  0  0  0  0  0
  -24.9198  -30.5793   19.9979 C   0  0  0  0  0  0  0  0  0  0  0  0
  -25.1990  -28.8900   22.4089 C   0  0  0  0  0  0  0  0  0  0  0  0
  -28.0660  -35.3839   21.0974 C   0  0  0  0  0  0  0  0  0  0  0  0
  -30.0048  -12.4033   22.6436 C   0  0  0  0  0  0  0  0  0  0  0  0
  -28.5914  -34.1010   21.7338 C   0  0  0  0  0  0  0  0  0  0  0  0
  -28.7535  -11.8264   21.9836 C   0  0  0  0  0  0  0  0  0  0  0  0
  -29.9158  -13.9184   22.8013 C   0  0  0  0  0  0  0  0  0  0  0  0
  -28.3728  -14.0627   20.8713 C   0  0  0  0  0  0  0  0  0  0  0  0
  -28.4752  -32.9173   20.7659 C   0  0  1  0  0  0  0  0  0  0  0  0
  -25.1510  -31.1836   21.3795 C   0  0  1  0  0  0  0  0  0  0  0  0
  -28.4518  -12.5437   20.6564 C   0  0  2  0  0  0  0  0  0  0  0  0
  -28.8717  -18.1763   21.0439 C   0  0  0  0  0  0  0  0  0  0  0  0
  -19.9582  -28.2360   26.3141 C   0  0  0  0  0  0  0  0  0  0  0  0
  -26.1304  -30.5954   25.8578 C   0  0  0  0  0  0  0  0  0  0  0  0
  -24.3840  -29.4004   27.1959 C   0  0  0  0  0  0  0  0  0  0  0  0
  -24.0037  -31.7579   26.4747 C   0  0  0  0  0  0  0  0  0  0  0  0
  -19.8819  -27.9856   22.5184 C   0  0  0  0  0  0  0  0  0  0  0  0
  -29.1578  -22.9108   21.2489 C   0  0  0  0  0  0  0  0  0  0  0  0
  -27.3716  -24.6543   20.6339 C   0  0  0  0  0  0  0  0  0  1  0  0
  -30.0907  -21.8351   20.7118 C   0  0  0  0  0  0  0  0  0  0  0  0
  -23.8988  -29.9044   24.7584 C   0  0  1  0  0  0  0  0  0  0  0  0
  -20.3350  -28.6194   24.8915 C   0  0  2  0  0  0  0  0  0  0  0  0
  -24.6121  -30.4047   26.0462 C   0  0  0  0  0  0  0  0  0  0  0  0
  -26.1958  -11.5533   20.7639 N   0  0  0  0  0  0  0  0  0  0  0  0
  -27.1995  -12.0028   19.9916 N   0  0  0  0  0  0  0  0  0  0  0  0
  -24.7417  -30.2883   22.4636 N   0  0  0  0  0  0  0  0  0  0  0  0
  -29.5858  -14.5696   21.5330 N   0  0  0  0  0  0  0  0  0  0  0  0
  -27.8523  -12.3177   17.7366 N   0  0  0  0  0  0  0  0  0  0  0  0
  -23.7274  -10.5129   17.3849 N   0  0  0  0  0  0  0  0  0  0  0  0
  -27.1104  -32.4388   20.7141 N   0  0  0  0  0  0  0  0  0  0  0  0
  -22.4560  -29.7408   24.8997 N   0  0  0  0  0  0  0  0  0  0  0  0
  -30.4286  -16.0523   19.8360 N   0  0  0  0  0  0  0  0  0  0  0  0
  -19.6210  -27.7071   23.9541 N   0  3  0  0  0  0  0  0  0  0  0  0
  -25.5241  -11.2974   16.1954 O   0  0  0  0  0  0  0  0  0  0  0  0
  -27.1845  -31.0344   22.5700 O   0  0  0  0  0  0  0  0  0  0  0  0
  -28.4333  -23.2813   18.9718 O   0  0  0  0  0  0  0  0  0  0  0  0
  -23.7114  -32.0008   23.6646 O   0  0  0  0  0  0  0  0  0  0  0  0
  -22.3993  -27.4907   24.3419 O   0  0  0  0  0  0  0  0  0  0  0  0
  -30.5471  -16.5997   22.0912 O   0  0  0  0  0  0  0  0  0  0  0  0
  -20.4183   -9.0121   21.6077 O   0  0  0  0  0  0  0  0  0  0  0  0
  -26.6441  -25.2030   19.5357 O   0  0  0  0  0  0  0  0  0  1  0  0
  -29.3454  -20.8035   20.0770 O   0  0  0  0  0  0  0  0  0  0  0  0
  -20.5751   -5.2618   25.6468 F   0  0  0  0  0  0  0  0  0  0  0  0
  -32.6226  -19.2689   16.9962 F   0  0  0  0  0  0  0  0  0  0  0  0
  -19.4390   -6.4576   21.2101 F   0  0  0  0  0  0  0  0  0  0  0  0
  1  2  1  0  0  0  0
  1  5  2  0  0  0  0
  2  6  2  0  0  0  0
  3  8  2  0  0  0  0
  3 17  1  0  0  0  0
  4  9  1  0  0  0  0
  4 17  2  0  0  0  0
  5 19  1  0  0  0  0
  6 21  1  0  0  0  0
  7 10  2  0  0  0  0
  7 20  1  0  0  0  0
  8 25  1  0  0  0  0
  9 25  2  0  0  0  0
 10 26  1  0  0  0  0
 11 12  2  0  0  0  0
 11 27  1  0  0  0  0
 12 29  1  0  0  0  0
 13 22  1  0  0  0  0
 13 26  2  0  0  0  0
 14 24  1  0  0  0  0
 14 30  2  0  0  0  0
 15 28  2  0  0  0  0
 15 30  1  0  0  0  0
 16 29  2  0  0  0  0
 16 31  1  0  0  0  0
 17 32  1  0  0  0  0
 18 32  1  0  0  0  0
 18 33  2  0  0  0  0
 18 36  1  0  0  0  0
 19 21  2  0  0  0  0
 19 42  1  0  0  0  0
 20 22  2  0  0  0  0
 20 43  1  0  0  0  0
 21 51  1  0  0  0  0
 22 44  1  0  0  0  0
 23 24  2  0  0  0  0
 23 28  1  0  0  0  0
 23 54  1  0  0  0  0
 24 74  1  0  0  0  0
 25 82  1  0  0  0  0
 26 83  1  0  0  0  0
 27 31  2  0  0  0  0
 27 82  1  0  0  0  0
 28 84  1  0  0  0  0
 29 85  1  0  0  0  0
 30 86  1  0  0  0  0
 31 87  1  0  0  0  0
 32 66  2  0  0  0  0
 33 67  1  0  0  0  0
 33 70  1  0  0  0  0
 34 35  2  0  0  0  0
 35 74  1  0  0  0  0
 36 71  1  0  0  0  0
 36 76  2  0  0  0  0
 37 52  1  0  0  0  0
 37 72  1  0  0  0  0
 37 77  2  0  0  0  0
 38 60  1  0  0  0  0
 38 61  1  0  0  0  0
 38 78  2  0  0  0  0
 39 63  1  0  0  0  0
 39 68  1  0  0  0  0
 39 79  2  0  0  0  0
 40 64  1  0  0  0  0
 40 73  1  0  0  0  0
 40 80  2  0  0  0  0
 41 69  1  0  0  0  0
 41 74  1  0  0  0  0
 41 81  2  0  0  0  0
 42 45  1  0  0  0  0
 43 52  1  0  0  0  0
 44 68  1  0  0  0  0
 45 47  1  0  0  0  0
 46 48  1  0  0  0  0
 46 49  1  0  0  0  0
 47 51  1  0  0  0  0
 48 53  1  0  0  0  0
 49 69  1  0  0  0  0
 50 53  1  0  0  0  0
 50 69  1  0  0  0  0
 51 72  1  0  0  0  0
 52 68  1  0  0  0  0
 53 67  1  0  0  0  0
 55 64  1  0  0  0  0
 56 65  1  0  0  0  0
 57 65  1  0  0  0  0
 58 65  1  0  0  0  0
 59 75  1  0  0  0  0
 60 62  1  0  0  0  0
 61 83  1  0  0  0  0
 62 84  1  0  0  0  0
 63 65  1  0  0  0  0
 63 73  1  0  0  0  0
 64 75  1  0  0  0  0
 66 67  1  0  0  0  0
M  CHG  1  75   1
M  ISO  4  41 100  61 101  74 100  83 101
M  END
> <Batch ID>
0115

> <Smiles>
C=C[100N:0](c1cc(F)cc(OCCC(=O)[101CH2:1][101O:1]c2ccc3c(c2)CN(C(=O)C(NC(=O)C(C)NC)C(C)(C)C)C(C(=O)NC2CCCc4ccccc42)C3)c1C)[100C:0](=O)N1CCCC(n2nc(-c3ccc(Oc4ccc(F)cc4F)cc3)c(C(N)=O)c2N)C1

> <Shape>
0.278

> <Color>
0.104

> <Negative vol penalty>
0.000

$$$$

  -OEChem-04052301403D

 84 92  0     1  0  0  0  0  0999 V2000
  -24.4125  -21.1972   18.4417 C   0  0  0  0  0  0  0  0  0  0  0  0
  -25.5364  -21.2736   19.2580 C   0  0  0  0  0  0  0  0  0  0  0  0
  -23.0678   -9.7974   20.0594 C   0  0  0  0  0  0  0  0  0  0  0  0
  -23.7141  -10.0426   22.3744 C   0  0  0  0  0  0  0  0  0  0  0  0
  -24.0085  -22.3116   17.7077 C   0  0  0  0  0  0  0  0  0  0  0  0
  -26.2577  -22.4642   19.3399 C   0  0  0  0  0  0  0  0  0  0  0  0
  -27.4808  -23.6709   24.1036 C   0  0  0  0  0  0  0  0  0  0  0  0
  -22.3201   -8.6666   20.3879 C   0  0  0  0  0  0  0  0  0  0  0  0
  -22.9663   -8.9119   22.7029 C   0  0  0  0  0  0  0  0  0  0  0  0
  -28.5536  -22.9900   24.6775 C   0  0  0  0  0  0  0  0  0  0  0  0
  -23.3060   -5.5543   22.4971 C   0  0  0  0  0  0  0  0  0  0  0  0
  -23.8921   -4.6131   23.3434 C   0  0  0  0  0  0  0  0  0  0  0  0
  -31.8741  -16.8526   22.3950 C   0  0  0  0  0  0  0  0  0  0  0  0
  -29.9863  -24.8769   24.2233 C   0  0  0  0  0  0  0  0  0  0  0  0
  -30.2270  -18.7262   23.6437 C   0  0  0  0  0  0  0  0  0  0  0  0
  -22.1079   -4.9373   24.9398 C   0  0  0  0  0  0  0  0  0  0  0  0
  -23.7649  -10.4854   21.0526 C   0  0  0  0  0  0  0  0  0  0  0  0
  -32.4292  -17.8231   23.2291 C   0  0  0  0  0  0  0  0  0  0  0  0
  -24.0957  -12.9895   20.6959 C   0  0  0  0  0  0  0  0  0  0  0  0
  -24.7195  -23.5193   17.7881 C   0  0  0  0  0  0  0  0  0  0  0  0
  -27.6556  -24.9578   23.5745 C   0  0  0  0  0  0  0  0  0  0  0  0
  -25.8635  -23.5954   18.6052 C   0  0  0  0  0  0  0  0  0  0  0  0
  -28.9136  -25.5730   23.6455 C   0  0  0  0  0  0  0  0  0  0  0  0
  -29.6720  -17.7558   22.8096 C   0  0  0  0  0  0  0  0  0  0  0  0
  -31.6057  -18.7598   23.8535 C   0  0  0  0  0  0  0  0  0  0  0  0
  -30.4955  -16.8190   22.1852 C   0  0  0  0  0  0  0  0  0  0  0  0
  -22.2693   -8.2239   21.7096 C   0  0  0  0  0  0  0  0  0  0  0  0
  -29.8072  -23.5918   24.7348 C   0  0  0  0  0  0  0  0  0  0  0  0
  -22.1208   -6.1871   22.8722 C   0  0  0  0  0  0  0  0  0  0  0  0
  -23.2931   -4.3046   24.5647 C   0  0  0  0  0  0  0  0  0  0  0  0
  -21.5217   -5.8785   24.0935 C   0  0  0  0  0  0  0  0  0  0  0  0
  -24.5379  -11.6531   20.7138 C   0  0  0  0  0  0  0  0  0  0  0  0
  -25.1994  -13.7113   20.3122 C   0  0  0  0  0  0  0  0  0  0  0  0
  -34.7456  -18.0208   22.4477 C   0  0  0  0  0  0  0  0  0  0  0  0
  -33.8733  -17.8323   23.4262 C   0  0  0  0  0  0  0  0  0  0  0  0
  -32.4725  -20.8578   24.1219 C   0  0  0  0  0  0  0  0  0  0  0  0
  -22.8028  -13.5301   20.9991 C   0  0  0  0  0  0  0  0  0  0  0  0
  -27.3593  -26.2557   20.6881 C   0  0  0  0  0  0  0  0  0  0  0  0
  -27.9283  -29.0140   22.2976 C   0  0  0  0  0  0  0  0  0  0  0  0
  -29.2711  -30.5468   25.0351 C   0  0  0  0  0  0  0  0  0  0  0  0
  -30.6435  -14.8316   20.6442 C   0  0  0  0  0  0  0  0  0  0  0  0
  -24.2720  -24.6830   16.9394 C   0  0  0  0  0  0  0  0  0  0  0  0
  -26.4822  -25.6895   22.9829 C   0  0  0  0  0  0  0  0  0  0  0  0
  -29.1490  -26.9609   23.1101 C   0  0  0  0  0  0  0  0  0  0  0  0
  -24.8731  -26.0182   17.3709 C   0  0  0  0  0  0  0  0  0  0  0  0
  -29.6625  -12.1802   18.4797 C   0  0  0  0  0  0  0  0  0  0  0  0
  -26.3726  -25.8756   17.6117 C   0  0  0  0  0  0  0  0  0  0  0  0
  -28.2055  -11.9166   18.8665 C   0  0  0  0  0  0  0  0  0  0  0  0
  -30.5160  -12.5386   19.6950 C   0  0  0  0  0  0  0  0  0  0  0  0
  -28.5388  -13.3759   20.9028 C   0  0  0  0  0  0  0  0  0  0  0  0
  -26.6576  -24.8766   18.7396 C   0  0  1  0  0  0  0  0  0  0  0  0
  -26.8933  -26.7921   22.0120 C   0  0  1  0  0  0  0  0  0  0  0  0
  -27.6262  -13.0744   19.7029 C   0  0  2  0  0  0  0  0  0  0  0  0
  -28.1922  -17.7449   22.6010 C   0  0  0  0  0  0  0  0  0  0  0  0
  -29.6138  -32.8149   26.0527 C   0  0  0  0  0  0  0  0  0  0  0  0
  -30.1772  -29.5633   20.3099 C   0  0  0  0  0  0  0  0  0  0  0  0
  -31.0646  -31.2849   21.8963 C   0  0  0  0  0  0  0  0  0  0  0  0
  -28.7947  -31.5621   20.8995 C   0  0  0  0  0  0  0  0  0  0  0  0
  -27.6858  -29.8389   27.4319 C   0  0  0  0  0  0  0  0  0  0  0  0
  -33.0407  -21.9968   24.9255 C   0  0  0  0  0  0  0  0  0  0  0  0
  -32.1563  -23.2242   24.7851 C   0  0  0  0  0  0  0  0  0  1  0  0
  -29.1628  -29.7978   22.6726 C   0  0  1  0  0  0  0  0  0  0  0  0
  -28.7097  -31.5943   25.9797 C   0  0  2  0  0  0  0  0  0  0  0  0
  -29.7962  -30.5251   21.4530 C   0  0  0  0  0  0  0  0  0  0  0  0
  -25.8223  -11.5304   20.3688 N   0  0  0  0  0  0  0  0  0  0  0  0
  -32.1381  -19.7492   24.6971 N   0  0  0  0  0  0  0  0  0  0  0  0
  -26.1967  -12.7989   20.1303 N   0  0  0  0  0  0  0  0  0  0  0  0
  -27.9718  -27.6329   22.5355 N   0  0  0  0  0  0  0  0  0  0  0  0
  -29.9079  -13.6456   20.4363 N   0  0  0  0  0  0  0  0  0  0  0  0
  -25.4045  -15.0311   20.1159 N   0  0  0  0  0  0  0  0  0  0  0  0
  -21.7815  -12.6478   21.3769 N   0  0  0  0  0  0  0  0  0  0  0  0
  -29.9507  -15.8264   21.3333 N   0  0  0  0  0  0  0  0  0  0  0  0
  -26.4179  -25.4882   20.0291 N   0  0  0  0  0  0  0  0  0  0  0  0
  -28.7672  -30.6871   23.7593 N   0  0  0  0  0  0  0  0  0  0  0  0
  -28.5683  -31.0313   27.3523 N   0  3  0  0  0  0  0  0  0  0  0  0
  -22.5560  -14.7575   20.9209 O   0  0  0  0  0  0  0  0  0  0  0  0
  -28.4889  -26.5197   20.2930 O   0  0  0  0  0  0  0  0  0  0  0  0
  -26.9584  -29.6063   21.8180 O   0  0  0  0  0  0  0  0  0  0  0  0
  -30.0788  -29.6921   25.3924 O   0  0  0  0  0  0  0  0  0  0  0  0
  -31.7931  -14.9655   20.2170 O   0  0  0  0  0  0  0  0  0  0  0  0
  -21.5396   -7.1207   22.0306 O   0  0  0  0  0  0  0  0  0  0  0  0
  -30.8562  -22.9292   25.2939 O   0  0  0  0  0  0  0  0  0  1  0  0
  -23.8553   -3.3996   25.3766 F   0  0  0  0  0  0  0  0  0  0  0  0
  -20.3824   -6.4822   24.4587 F   0  0  0  0  0  0  0  0  0  0  0  0
  1  2  1  0  0  0  0
  1  5  2  0  0  0  0
  2  6  2  0  0  0  0
  3  8  2  0  0  0  0
  3 17  1  0  0  0  0
  4  9  1  0  0  0  0
  4 17  2  0  0  0  0
  5 20  1  0  0  0  0
  6 22  1  0  0  0  0
  7 10  2  0  0  0  0
  7 21  1  0  0  0  0
  8 27  1  0  0  0  0
  9 27  2  0  0  0  0
 10 28  1  0  0  0  0
 11 12  2  0  0  0  0
 11 29  1  0  0  0  0
 12 30  1  0  0  0  0
 13 18  1  0  0  0  0
 13 26  2  0  0  0  0
 14 23  1  0  0  0  0
 14 28  2  0  0  0  0
 15 24  2  0  0  0  0
 15 25  1  0  0  0  0
 16 30  2  0  0  0  0
 16 31  1  0  0  0  0
 17 32  1  0  0  0  0
 18 25  2  0  0  0  0
 18 35  1  0  0  0  0
 19 32  1  0  0  0  0
 19 33  2  0  0  0  0
 19 37  1  0  0  0  0
 20 22  2  0  0  0  0
 20 42  1  0  0  0  0
 21 23  2  0  0  0  0
 21 43  1  0  0  0  0
 22 51  1  0  0  0  0
 23 44  1  0  0  0  0
 24 26  1  0  0  0  0
 24 54  1  0  0  0  0
 25 66  1  0  0  0  0
 26 72  1  0  0  0  0
 27 81  1  0  0  0  0
 28 82  1  0  0  0  0
 29 31  2  0  0  0  0
 29 81  1  0  0  0  0
 30 83  1  0  0  0  0
 31 84  1  0  0  0  0
 32 65  2  0  0  0  0
 33 67  1  0  0  0  0
 33 70  1  0  0  0  0
 34 35  2  0  0  0  0
 36 60  1  0  0  0  0
 36 66  2  0  0  0  0
 37 71  1  0  0  0  0
 37 76  2  0  0  0  0
 38 52  1  0  0  0  0
 38 73  1  0  0  0  0
 38 77  2  0  0  0  0
 39 62  1  0  0  0  0
 39 68  1  0  0  0  0
 39 78  2  0  0  0  0
 40 63  1  0  0  0  0
 40 74  1  0  0  0  0
 40 79  2  0  0  0  0
 41 69  1  0  0  0  0
 41 72  1  0  0  0  0
 41 80  2  0  0  0  0
 42 45  1  0  0  0  0
 43 52  1  0  0  0  0
 44 68  1  0  0  0  0
 45 47  1  0  0  0  0
 46 48  1  0  0  0  0
 46 49  1  0  0  0  0
 47 51  1  0  0  0  0
 48 53  1  0  0  0  0
 49 69  1  0  0  0  0
 50 53  1  0  0  0  0
 50 69  1  0  0  0  0
 51 73  1  0  0  0  0
 52 68  1  0  0  0  0
 53 67  1  0  0  0  0
 55 63  1  0  0  0  0
 56 64  1  0  0  0  0
 57 64  1  0  0  0  0
 58 64  1  0  0  0  0
 59 75  1  0  0  0  0
 60 61  1  0  0  0  0
 61 82  1  0  0  0  0
 62 64  1  0  0  0  0
 62 74  1  0  0  0  0
 63 75  1  0  0  0  0
 65 67  1  0  0  0  0
M  CHG  1  75   1
M  ISO  4  41 100  61 101  72 100  82 101
M  END
> <Batch ID>
0115

> <Smiles>
C=Cc1cc([100NH:0][100C:0](=O)N2CCCC(n3nc(-c4ccc(Oc5ccc(F)cc5F)cc4)c(C(N)=O)c3N)C2)c(C)cc1NC=C[101CH2:1][101O:1]c1ccc2c(c1)CN(C(=O)C(NC(=O)C(C)NC)C(C)(C)C)C(C(=O)NC1CCCc3ccccc31)C2

> <Shape>
0.222

> <Color>
0.212

> <Negative vol penalty>
0.000

$$$$

  -OEChem-04052301403D

 85 93  0     1  0  0  0  0  0999 V2000
  -28.9532  -24.5568   17.0157 C   0  0  0  0  0  0  0  0  0  0  0  0
  -27.9306  -24.5498   17.9589 C   0  0  0  0  0  0  0  0  0  0  0  0
  -28.3737  -13.6096   19.1690 C   0  0  0  0  0  0  0  0  0  0  0  0
  -28.3836  -14.3026   21.4834 C   0  0  0  0  0  0  0  0  0  0  0  0
  -30.0225  -25.4405   17.1552 C   0  0  0  0  0  0  0  0  0  0  0  0
  -27.9773  -25.4258   19.0428 C   0  0  0  0  0  0  0  0  0  0  0  0
  -23.5265  -27.6797   19.9123 C   0  0  0  0  0  0  0  0  0  0  0  0
  -29.7366  -13.8923   19.0785 C   0  0  0  0  0  0  0  0  0  0  0  0
  -29.7465  -14.5853   21.3930 C   0  0  0  0  0  0  0  0  0  0  0  0
  -22.5511  -26.9307   20.5689 C   0  0  0  0  0  0  0  0  0  0  0  0
  -32.6493  -12.4263   19.9727 C   0  0  0  0  0  0  0  0  0  0  0  0
  -33.4653  -11.4885   19.3399 C   0  0  0  0  0  0  0  0  0  0  0  0
  -20.7647  -19.6466   23.2645 C   0  0  0  0  0  0  0  0  0  0  0  0
  -23.0991  -28.0424   22.6384 C   0  0  0  0  0  0  0  0  0  0  0  0
  -21.9985  -19.2953   25.7418 C   0  0  0  0  0  0  0  0  0  0  0  0
  -34.1084  -13.1495   17.7075 C   0  0  0  0  0  0  0  0  0  0  0  0
  -27.6972  -13.8148   20.3714 C   0  0  0  0  0  0  0  0  0  0  0  0
  -20.6550  -20.6332   24.2444 C   0  0  0  0  0  0  0  0  0  0  0  0
  -25.6968  -12.3009   20.8342 C   0  0  0  0  0  0  0  0  0  0  0  0
  -30.0775  -26.3345   18.2362 C   0  0  0  0  0  0  0  0  0  0  0  0
  -24.3044  -28.6095   20.6172 C   0  0  0  0  0  0  0  0  0  0  0  0
  -29.0490  -26.3214   19.1976 C   0  0  0  0  0  0  0  0  0  0  0  0
  -24.0821  -28.8038   21.9879 C   0  0  0  0  0  0  0  0  0  0  0  0
  -21.4912  -18.4843   23.5233 C   0  0  0  0  0  0  0  0  0  0  0  0
  -21.2720  -20.4576   25.4830 C   0  0  0  0  0  0  0  0  0  0  0  0
  -30.4230  -14.3801   20.1905 C   0  0  0  0  0  0  0  0  0  0  0  0
  -22.3392  -27.1099   21.9327 C   0  0  0  0  0  0  0  0  0  0  0  0
  -32.5629  -13.7257   19.4728 C   0  0  0  0  0  0  0  0  0  0  0  0
  -34.1948  -11.8501   18.2074 C   0  0  0  0  0  0  0  0  0  0  0  0
  -22.1081  -18.3087   24.7619 C   0  0  0  0  0  0  0  0  0  0  0  0
  -33.2924  -14.0873   18.3403 C   0  0  0  0  0  0  0  0  0  0  0  0
  -26.2892  -13.5236   20.4654 C   0  0  0  0  0  0  0  0  0  0  0  0
  -24.3459  -12.5405   20.7691 C   0  0  0  0  0  0  0  0  0  0  0  0
  -19.8688  -21.8629   23.9371 C   0  0  0  0  0  0  0  0  0  0  0  0
  -26.3125  -11.0597   21.2028 C   0  0  0  0  0  0  0  0  0  0  0  0
  -27.4058  -28.9286   21.2361 C   0  0  0  0  0  0  0  0  0  0  0  0
  -20.6519  -24.1539   23.1747 C   0  0  0  0  0  0  0  0  0  0  0  0
  -26.4601  -31.7506   22.5261 C   0  0  0  0  0  0  0  0  0  0  0  0
  -23.9567  -33.6051   23.9192 C   0  0  0  0  0  0  0  0  0  0  0  0
  -21.0526  -17.5037   21.2446 C   0  0  0  0  0  0  0  0  0  0  0  0
  -31.2773  -27.2385   18.3702 C   0  0  0  0  0  0  0  0  0  0  0  0
  -25.3344  -29.4287   19.8889 C   0  0  0  0  0  0  0  0  0  0  0  0
  -24.8765  -29.8038   22.7862 C   0  0  0  0  0  0  0  0  0  0  0  0
  -31.0637  -28.3936   19.3451 C   0  0  0  0  0  0  0  0  0  0  0  0
  -21.1300  -15.2558   18.4845 C   0  0  0  0  0  0  0  0  0  0  0  0
  -30.4303  -27.8905   20.6384 C   0  0  0  0  0  0  0  0  0  0  0  0
  -22.4047  -14.4411   18.7161 C   0  0  0  0  0  0  0  0  0  0  0  0
  -21.3058  -16.7148   18.9018 C   0  0  0  0  0  0  0  0  0  0  0  0
  -23.0752  -16.0992   20.5016 C   0  0  0  0  0  0  0  0  0  0  0  0
  -29.0515  -27.2736   20.3738 C   0  0  1  0  0  0  0  0  0  0  0  0
  -26.4199  -29.9789   20.8089 C   0  0  1  0  0  0  0  0  0  0  0  0
  -22.9265  -14.6084   20.1567 C   0  0  2  0  0  0  0  0  0  0  0  0
  -23.4959  -35.8644   24.9093 C   0  0  0  0  0  0  0  0  0  0  0  0
  -27.8998  -30.9201   25.0849 C   0  0  0  0  0  0  0  0  0  0  0  0
  -26.6335  -32.7090   26.2952 C   0  0  0  0  0  0  0  0  0  0  0  0
  -28.1989  -33.3210   24.4519 C   0  0  0  0  0  0  0  0  0  0  0  0
  -21.9295  -34.2251   21.8540 C   0  0  0  0  0  0  0  0  0  0  0  0
  -20.3015  -22.7355   22.7772 C   0  0  0  0  0  0  0  0  0  0  0  0
  -21.1135  -25.0761   22.0647 C   0  0  0  0  0  0  0  0  0  1  0  0
  -26.0022  -32.2016   23.8920 C   0  0  1  0  0  0  0  0  0  0  0  0
  -23.4787  -35.0196   23.6449 C   0  0  2  0  0  0  0  0  0  0  0  0
  -27.1698  -32.2676   24.9166 C   0  0  0  0  0  0  0  0  0  0  0  0
  -25.3884  -14.4696   20.1865 N   0  0  0  0  0  0  0  0  0  0  0  0
  -24.2163  -13.8413   20.3801 N   0  0  0  0  0  0  0  0  0  0  0  0
  -25.8763  -30.5762   22.0303 N   0  0  0  0  0  0  0  0  0  0  0  0
  -21.7983  -16.7953   20.2787 N   0  0  0  0  0  0  0  0  0  0  0  0
  -21.1741  -21.4451   26.4886 N   0  0  0  0  0  0  0  0  0  0  0  0
  -23.2681  -11.7632   21.0072 N   0  0  0  0  0  0  0  0  0  0  0  0
  -27.7121  -10.9867   21.2179 N   0  0  0  0  0  0  0  0  0  0  0  0
  -21.6026  -17.4840   22.5259 N   0  0  0  0  0  0  0  0  0  0  0  0
  -28.0607  -28.3118   20.1872 N   0  0  0  0  0  0  0  0  0  0  0  0
  -25.3101  -33.4703   23.6923 N   0  0  0  0  0  0  0  0  0  0  0  0
  -22.0877  -35.0018   23.1105 N   0  3  0  0  0  0  0  0  0  0  0  0
  -18.8875  -22.1392   24.6235 O   0  0  0  0  0  0  0  0  0  0  0  0
  -25.6415  -10.0406   21.4937 O   0  0  0  0  0  0  0  0  0  0  0  0
  -27.5620  -28.6961   22.4291 O   0  0  0  0  0  0  0  0  0  0  0  0
  -20.5910  -24.5186   24.3485 O   0  0  0  0  0  0  0  0  0  0  0  0
  -27.2994  -32.4197   21.9182 O   0  0  0  0  0  0  0  0  0  0  0  0
  -23.2054  -32.7102   24.3004 O   0  0  0  0  0  0  0  0  0  0  0  0
  -19.9894  -18.0621   20.9622 O   0  0  0  0  0  0  0  0  0  0  0  0
  -31.7530  -14.6558   20.1026 O   0  0  0  0  0  0  0  0  0  0  0  0
  -21.3881  -26.3797   22.5762 O   0  0  0  0  0  0  0  0  0  1  0  0
  -34.9795  -10.9499   17.6008 F   0  0  0  0  0  0  0  0  0  0  0  0
  -22.8084  -17.1953   25.0219 F   0  0  0  0  0  0  0  0  0  0  0  0
  -33.2143  -15.3344   17.8561 F   0  0  0  0  0  0  0  0  0  0  0  0
  1  2  1  0  0  0  0
  1  5  2  0  0  0  0
  2  6  2  0  0  0  0
  3  8  2  0  0  0  0
  3 17  1  0  0  0  0
  4  9  1  0  0  0  0
  4 17  2  0  0  0  0
  5 20  1  0  0  0  0
  6 22  1  0  0  0  0
  7 10  2  0  0  0  0
  7 21  1  0  0  0  0
  8 26  1  0  0  0  0
  9 26  2  0  0  0  0
 10 27  1  0  0  0  0
 11 12  2  0  0  0  0
 11 28  1  0  0  0  0
 12 29  1  0  0  0  0
 13 18  1  0  0  0  0
 13 24  2  0  0  0  0
 14 23  1  0  0  0  0
 14 27  2  0  0  0  0
 15 25  1  0  0  0  0
 15 30  2  0  0  0  0
 16 29  2  0  0  0  0
 16 31  1  0  0  0  0
 17 32  1  0  0  0  0
 18 25  2  0  0  0  0
 18 34  1  0  0  0  0
 19 32  1  0  0  0  0
 19 33  2  0  0  0  0
 19 35  1  0  0  0  0
 20 22  2  0  0  0  0
 20 41  1  0  0  0  0
 21 23  2  0  0  0  0
 21 42  1  0  0  0  0
 22 50  1  0  0  0  0
 23 43  1  0  0  0  0
 24 30  1  0  0  0  0
 24 70  1  0  0  0  0
 25 67  1  0  0  0  0
 26 81  1  0  0  0  0
 27 82  1  0  0  0  0
 28 31  2  0  0  0  0
 28 81  1  0  0  0  0
 29 83  1  0  0  0  0
 30 84  1  0  0  0  0
 31 85  1  0  0  0  0
 32 63  2  0  0  0  0
 33 64  1  0  0  0  0
 33 68  1  0  0  0  0
 34 58  1  0  0  0  0
 34 74  2  0  0  0  0
 35 69  1  0  0  0  0
 35 75  2  0  0  0  0
 36 51  1  0  0  0  0
 36 71  1  0  0  0  0
 36 76  2  0  0  0  0
 37 58  1  0  0  0  0
 37 59  1  0  0  0  0
 37 77  2  0  0  0  0
 38 60  1  0  0  0  0
 38 65  1  0  0  0  0
 38 78  2  0  0  0  0
 39 61  1  0  0  0  0
 39 72  1  0  0  0  0
 39 79  2  0  0  0  0
 40 66  1  0  0  0  0
 40 70  1  0  0  0  0
 40 80  2  0  0  0  0
 41 44  1  0  0  0  0
 42 51  1  0  0  0  0
 43 65  1  0  0  0  0
 44 46  1  0  0  0  0
 45 47  1  0  0  0  0
 45 48  1  0  0  0  0
 46 50  1  0  0  0  0
 47 52  1  0  0  0  0
 48 66  1  0  0  0  0
 49 52  1  0  0  0  0
 49 66  1  0  0  0  0
 50 71  1  0  0  0  0
 51 65  1  0  0  0  0
 52 64  1  0  0  0  0
 53 61  1  0  0  0  0
 54 62  1  0  0  0  0
 55 62  1  0  0  0  0
 56 62  1  0  0  0  0
 57 73  1  0  0  0  0
 59 82  1  0  0  0  0
 60 62  1  0  0  0  0
 60 72  1  0  0  0  0
 61 73  1  0  0  0  0
 63 64  1  0  0  0  0
M  CHG  1  73   1
M  ISO  4  40 100  59 101  70 100  82 101
M  END
> <Batch ID>
0115

> <Smiles>
CNC(C)C(=O)NC(C(=O)N1Cc2cc([101O:1][101CH2:1]C(=O)CC(=O)c3cc([100NH:0][100C:0](=O)N4CCCC(n5nc(-c6ccc(Oc7ccc(F)cc7F)cc6)c(C(N)=O)c5N)C4)c(F)cc3N)ccc2CC1C(=O)NC1CCCc2ccccc21)C(C)(C)C

> <Shape>
0.248

> <Color>
0.076

> <Negative vol penalty>
0.000

$$$$

  -OEChem-04052301403D

 86 94  0     1  0  0  0  0  0999 V2000
  -17.9999  -10.6910   26.4256 C   0  0  0  0  0  0  0  0  0  0  0  0
  -18.7246  -11.6073   25.6703 C   0  0  0  0  0  0  0  0  0  0  0  0
  -23.0878   -9.8504   21.4796 C   0  0  0  0  0  0  0  0  0  0  0  0
  -23.8512  -10.7562   23.5853 C   0  0  0  0  0  0  0  0  0  0  0  0
  -17.4883  -11.0631   27.6680 C   0  0  0  0  0  0  0  0  0  0  0  0
  -18.9372  -12.8968   26.1565 C   0  0  0  0  0  0  0  0  0  0  0  0
  -23.7181  -14.4452   25.5316 C   0  0  0  0  0  0  0  0  0  0  0  0
  -22.3610   -8.8753   22.1626 C   0  0  0  0  0  0  0  0  0  0  0  0
  -23.1243   -9.7811   24.2683 C   0  0  0  0  0  0  0  0  0  0  0  0
  -24.0874  -14.8727   24.2570 C   0  0  0  0  0  0  0  0  0  0  0  0
  -22.9813   -5.9371   23.7139 C   0  0  0  0  0  0  0  0  0  0  0  0
  -23.0614   -4.6249   23.2477 C   0  0  0  0  0  0  0  0  0  0  0  0
  -23.8264  -17.1663   24.9573 C   0  0  0  0  0  0  0  0  0  0  0  0
  -31.8707  -17.4517   20.6298 C   0  0  0  0  0  0  0  0  0  0  0  0
  -31.5064  -19.8287   20.3973 C   0  0  0  0  0  0  0  0  0  0  0  0
  -20.6742   -4.6112   22.8760 C   0  0  0  0  0  0  0  0  0  0  0  0
  -23.8330  -10.7909   22.1910 C   0  0  0  0  0  0  0  0  0  0  0  0
  -29.6296  -18.3082   20.3458 C   0  0  0  0  0  0  0  0  0  0  0  0
  -24.1384  -13.0758   21.0985 C   0  0  0  0  0  0  0  0  0  0  0  0
  -17.7029  -12.3548   28.1741 C   0  0  0  0  0  0  0  0  0  0  0  0
  -23.3890  -15.3763   26.5271 C   0  0  0  0  0  0  0  0  0  0  0  0
  -18.4268  -13.2870   27.4063 C   0  0  0  0  0  0  0  0  0  0  0  0
  -23.4557  -16.7481   26.2444 C   0  0  0  0  0  0  0  0  0  0  0  0
  -30.4981  -17.2304   20.5180 C   0  0  0  0  0  0  0  0  0  0  0  0
  -22.3792   -8.8406   23.5569 C   0  0  0  0  0  0  0  0  0  0  0  0
  -24.1388  -16.2334   23.9688 C   0  0  0  0  0  0  0  0  0  0  0  0
  -21.7476   -6.5864   23.7612 C   0  0  0  0  0  0  0  0  0  0  0  0
  -30.1338  -19.6074   20.2855 C   0  0  0  0  0  0  0  0  0  0  0  0
  -21.9079   -3.9620   22.8287 C   0  0  0  0  0  0  0  0  0  0  0  0
  -32.3749  -18.7509   20.5695 C   0  0  0  0  0  0  0  0  0  0  0  0
  -20.5941   -5.9234   23.3423 C   0  0  0  0  0  0  0  0  0  0  0  0
  -24.5845  -11.7981   21.4861 C   0  0  0  0  0  0  0  0  0  0  0  0
  -25.2191  -13.6393   20.4653 C   0  0  0  0  0  0  0  0  0  0  0  0
  -27.3630  -18.0904   21.4773 C   0  0  0  0  0  0  0  0  0  0  0  0
  -26.0361  -17.9100   21.4223 C   0  0  0  0  0  0  0  0  0  0  0  0
  -28.1684  -18.0853   20.2261 C   0  0  0  0  0  0  0  0  0  0  0  0
  -22.8613  -13.6976   21.2935 C   0  0  0  0  0  0  0  0  0  0  0  0
  -20.7804  -16.0145   28.2276 C   0  0  0  0  0  0  0  0  0  0  0  0
  -22.7586  -18.0767   29.7626 C   0  0  0  0  0  0  0  0  0  0  0  0
  -25.5885  -19.9823   29.6779 C   0  0  0  0  0  0  0  0  0  0  0  0
  -30.6700  -14.7396   20.1822 C   0  0  0  0  0  0  0  0  0  0  0  0
  -17.0900  -12.7256   29.5013 C   0  0  0  0  0  0  0  0  0  0  0  0
  -23.0184  -14.8996   27.9047 C   0  0  0  0  0  0  0  0  0  0  0  0
  -23.1316  -17.7886   27.2840 C   0  0  0  0  0  0  0  0  0  0  0  0
  -17.6793  -13.9950   30.1109 C   0  0  0  0  0  0  0  0  0  0  0  0
  -29.5865  -11.5822   18.9436 C   0  0  0  0  0  0  0  0  0  0  0  0
  -17.7725  -15.0978   29.0612 C   0  0  0  0  0  0  0  0  0  0  0  0
  -28.1519  -11.4620   19.4628 C   0  0  0  0  0  0  0  0  0  0  0  0
  -30.5002  -12.2708   19.9559 C   0  0  0  0  0  0  0  0  0  0  0  0
  -28.5852  -13.4503   20.9614 C   0  0  0  0  0  0  0  0  0  0  0  0
  -18.6996  -14.6874   27.9107 C   0  0  1  0  0  0  0  0  0  0  0  0
  -22.2062  -15.9227   28.6927 C   0  0  1  0  0  0  0  0  0  0  0  0
  -27.6131  -12.8214   19.9499 C   0  0  2  0  0  0  0  0  0  0  0  0
  -27.9418  -22.3173   21.2046 C   0  0  0  0  0  0  0  0  0  0  0  0
  -26.9244  -21.5881   31.0686 C   0  0  0  0  0  0  0  0  0  0  0  0
  -20.7094  -20.2660   29.1987 C   0  0  0  0  0  0  0  0  0  0  0  0
  -22.4736  -21.9591   29.7364 C   0  0  0  0  0  0  0  0  0  0  0  0
  -21.7203  -20.3471   31.4847 C   0  0  0  0  0  0  0  0  0  0  0  0
  -27.9614  -18.2139   29.6492 C   0  0  0  0  0  0  0  0  0  0  0  0
  -25.1575  -17.9155   22.6315 C   0  0  0  0  0  0  0  0  0  1  0  0
  -29.3065  -21.6648   21.1449 C   0  0  0  0  0  0  0  0  0  0  0  0
  -23.1532  -19.5214   29.5723 C   0  0  1  0  0  0  0  0  0  0  0  0
  -26.7304  -20.1344   30.6665 C   0  0  2  0  0  0  0  0  0  0  0  0
  -22.0184  -20.5040   29.9777 C   0  0  0  0  0  0  0  0  0  0  0  0
  -25.8499  -11.5634   21.1289 N   0  0  0  0  0  0  0  0  0  0  0  0
  -26.2082  -12.7013   20.5100 N   0  0  0  0  0  0  0  0  0  0  0  0
  -22.7686  -17.2725   28.6141 N   0  0  0  0  0  0  0  0  0  0  0  0
  -29.9279  -13.5541   20.3687 N   0  0  0  0  0  0  0  0  0  0  0  0
  -25.4102  -14.8407   19.8800 N   0  0  0  0  0  0  0  0  0  0  0  0
  -21.8630  -12.9778   21.9641 N   0  0  0  0  0  0  0  0  0  0  0  0
  -30.0107  -15.9014   20.5822 N   0  0  0  0  0  0  0  0  0  0  0  0
  -20.0854  -14.8227   28.3055 N   0  0  0  0  0  0  0  0  0  0  0  0
  -24.3963  -19.7060   30.3132 N   0  0  0  0  0  0  0  0  0  0  0  0
  -28.0023  -19.6383   30.0690 N   0  3  0  0  0  0  0  0  0  0  0  0
  -27.6654  -17.9303   19.1189 O   0  0  0  0  0  0  0  0  0  0  0  0
  -22.6075  -14.8510   20.8706 O   0  0  0  0  0  0  0  0  0  0  0  0
  -20.3427  -17.0874   27.8290 O   0  0  0  0  0  0  0  0  0  0  0  0
  -22.4596  -17.6749   30.8898 O   0  0  0  0  0  0  0  0  0  0  0  0
  -25.7383  -20.1008   28.4638 O   0  0  0  0  0  0  0  0  0  0  0  0
  -31.7958  -14.7279   19.6778 O   0  0  0  0  0  0  0  0  0  0  0  0
  -21.6698   -7.8894   24.2236 O   0  0  0  0  0  0  0  0  0  0  0  0
  -24.4984  -16.6534   22.7254 O   0  0  0  0  0  0  0  0  0  1  0  0
  -29.3038  -20.6757   20.1179 O   0  0  0  0  0  0  0  0  0  0  0  0
  -21.9852   -2.7025   22.3796 F   0  0  0  0  0  0  0  0  0  0  0  0
  -33.6931  -18.9634   20.6769 F   0  0  0  0  0  0  0  0  0  0  0  0
  -19.4062   -6.5424   23.3843 F   0  0  0  0  0  0  0  0  0  0  0  0
  1  2  1  0  0  0  0
  1  5  2  0  0  0  0
  2  6  2  0  0  0  0
  3  8  2  0  0  0  0
  3 17  1  0  0  0  0
  4  9  1  0  0  0  0
  4 17  2  0  0  0  0
  5 20  1  0  0  0  0
  6 22  1  0  0  0  0
  7 10  2  0  0  0  0
  7 21  1  0  0  0  0
  8 25  1  0  0  0  0
  9 25  2  0  0  0  0
 10 26  1  0  0  0  0
 11 12  2  0  0  0  0
 11 27  1  0  0  0  0
 12 29  1  0  0  0  0
 13 23  1  0  0  0  0
 13 26  2  0  0  0  0
 14 24  2  0  0  0  0
 14 30  1  0  0  0  0
 15 28  1  0  0  0  0
 15 30  2  0  0  0  0
 16 29  2  0  0  0  0
 16 31  1  0  0  0  0
 17 32  1  0  0  0  0
 18 24  1  0  0  0  0
 18 28  2  0  0  0  0
 18 36  1  0  0  0  0
 19 32  1  0  0  0  0
 19 33  2  0  0  0  0
 19 37  1  0  0  0  0
 20 22  2  0  0  0  0
 20 42  1  0  0  0  0
 21 23  2  0  0  0  0
 21 43  1  0  0  0  0
 22 51  1  0  0  0  0
 23 44  1  0  0  0  0
 24 71  1  0  0  0  0
 25 81  1  0  0  0  0
 26 82  1  0  0  0  0
 27 31  2  0  0  0  0
 27 81  1  0  0  0  0
 28 83  1  0  0  0  0
 29 84  1  0  0  0  0
 30 85  1  0  0  0  0
 31 86  1  0  0  0  0
 32 65  2  0  0  0  0
 33 66  1  0  0  0  0
 33 69  1  0  0  0  0
 34 35  2  0  0  0  0
 34 36  1  0  0  0  0
 35 60  1  0  0  0  0
 36 75  2  0  0  0  0
 37 70  1  0  0  0  0
 37 76  2  0  0  0  0
 38 52  1  0  0  0  0
 38 72  1  0  0  0  0
 38 77  2  0  0  0  0
 39 62  1  0  0  0  0
 39 67  1  0  0  0  0
 39 78  2  0  0  0  0
 40 63  1  0  0  0  0
 40 73  1  0  0  0  0
 40 79  2  0  0  0  0
 41 68  1  0  0  0  0
 41 71  1  0  0  0  0
 41 80  2  0  0  0  0
 42 45  1  0  0  0  0
 43 52  1  0  0  0  0
 44 67  1  0  0  0  0
 45 47  1  0  0  0  0
 46 48  1  0  0  0  0
 46 49  1  0  0  0  0
 47 51  1  0  0  0  0
 48 53  1  0  0  0  0
 49 68  1  0  0  0  0
 50 53  1  0  0  0  0
 50 68  1  0  0  0  0
 51 72  1  0  0  0  0
 52 67  1  0  0  0  0
 53 66  1  0  0  0  0
 54 61  1  0  0  0  0
 55 63  1  0  0  0  0
 56 64  1  0  0  0  0
 57 64  1  0  0  0  0
 58 64  1  0  0  0  0
 59 74  1  0  0  0  0
 60 82  1  0  0  0  0
 61 83  1  0  0  0  0
 62 64  1  0  0  0  0
 62 73  1  0  0  0  0
 63 74  1  0  0  0  0
 65 66  1  0  0  0  0
M  CHG  1  74   1
M  ISO  4  41 100  60 101  71 100  82 101
M  END
> <Batch ID>
0115

> <Smiles>
CCOc1cc(F)cc([100NH:0][100C:0](=O)N2CCCC(n3nc(-c4ccc(Oc5ccc(F)cc5F)cc4)c(C(N)=O)c3N)C2)c1C(=O)C=C[101CH2:1][101O:1]c1ccc2c(c1)CN(C(=O)C(NC(=O)C(C)NC)C(C)(C)C)C(C(=O)NC1CCCc3ccccc31)C2

> <Shape>
0.183

> <Color>
0.173

> <Negative vol penalty>
0.000

$$$$

  -OEChem-04052301403D

 87 95  0     1  0  0  0  0  0999 V2000
  -27.2198  -37.6178   18.6281 C   0  0  0  0  0  0  0  0  0  0  0  0
  -27.6161  -36.3092   18.3712 C   0  0  0  0  0  0  0  0  0  0  0  0
  -25.1339   -7.9701   21.4578 C   0  0  0  0  0  0  0  0  0  0  0  0
  -23.8910  -10.0337   21.2750 C   0  0  0  0  0  0  0  0  0  0  0  0
  -26.7917  -37.9773   19.9054 C   0  0  0  0  0  0  0  0  0  0  0  0
  -27.5856  -35.3596   19.3919 C   0  0  0  0  0  0  0  0  0  0  0  0
  -26.2769  -29.4024   18.8397 C   0  0  0  0  0  0  0  0  0  0  0  0
  -24.2484   -7.5236   22.4387 C   0  0  0  0  0  0  0  0  0  0  0  0
  -23.0054   -9.5872   22.2559 C   0  0  0  0  0  0  0  0  0  0  0  0
  -27.0840  -28.2693   18.7481 C   0  0  0  0  0  0  0  0  0  0  0  0
  -22.1053   -5.6911   24.7330 C   0  0  0  0  0  0  0  0  0  0  0  0
  -21.6407   -4.3793   24.6386 C   0  0  0  0  0  0  0  0  0  0  0  0
  -27.6130  -17.1547   20.0074 C   0  0  0  0  0  0  0  0  0  0  0  0
  -26.8460  -27.9153   21.1224 C   0  0  0  0  0  0  0  0  0  0  0  0
  -29.8825  -17.3586   20.8106 C   0  0  0  0  0  0  0  0  0  0  0  0
  -20.6800   -4.8750   22.4779 C   0  0  0  0  0  0  0  0  0  0  0  0
  -24.9552   -9.2252   20.8760 C   0  0  0  0  0  0  0  0  0  0  0  0
  -27.3525  -18.4642   20.4111 C   0  0  0  0  0  0  0  0  0  0  0  0
  -25.7632   -9.4999   18.4720 C   0  0  0  0  0  0  0  0  0  0  0  0
  -26.7468  -37.0293   20.9398 C   0  0  0  0  0  0  0  0  0  0  0  0
  -25.7563  -29.8073   20.0772 C   0  0  0  0  0  0  0  0  0  0  0  0
  -27.1578  -35.7071   20.6845 C   0  0  0  0  0  0  0  0  0  0  0  0
  -26.0305  -29.0524   21.2266 C   0  0  0  0  0  0  0  0  0  0  0  0
  -28.8780  -16.6019   20.2072 C   0  0  0  0  0  0  0  0  0  0  0  0
  -23.1842   -8.3321   22.8377 C   0  0  0  0  0  0  0  0  0  0  0  0
  -27.3711  -27.5272   19.8901 C   0  0  0  0  0  0  0  0  0  0  0  0
  -21.8572   -6.5949   23.6998 C   0  0  0  0  0  0  0  0  0  0  0  0
  -28.3569  -19.2209   21.0145 C   0  0  0  0  0  0  0  0  0  0  0  0
  -20.9281   -3.9712   23.5111 C   0  0  0  0  0  0  0  0  0  0  0  0
  -29.6220  -18.6681   21.2143 C   0  0  0  0  0  0  0  0  0  0  0  0
  -21.1446   -6.1868   22.5723 C   0  0  0  0  0  0  0  0  0  0  0  0
  -25.8700   -9.6872   19.8631 C   0  0  0  0  0  0  0  0  0  0  0  0
  -26.8727  -10.1234   17.9554 C   0  0  0  0  0  0  0  0  0  0  0  0
  -26.0251  -19.0225   20.1930 C   0  0  0  0  0  0  0  0  0  0  0  0
  -24.7515   -8.8230   17.7144 C   0  0  0  0  0  0  0  0  0  0  0  0
  -26.0555  -32.3956   21.8979 C   0  0  0  0  0  0  0  0  0  0  0  0
  -23.7740  -30.9302   23.6783 C   0  0  0  0  0  0  0  0  0  0  0  0
  -22.2370  -28.0246   24.5957 C   0  0  0  0  0  0  0  0  0  0  0  0
  -30.3427  -14.5720   19.9237 C   0  0  0  0  0  0  0  0  0  0  0  0
  -26.3217  -37.4762   22.3161 C   0  0  0  0  0  0  0  0  0  0  0  0
  -24.8654  -31.0168   20.1548 C   0  0  0  0  0  0  0  0  0  0  0  0
  -25.4795  -29.4333   22.5756 C   0  0  0  0  0  0  0  0  0  0  0  0
  -25.9632  -36.3213   23.2478 C   0  0  0  0  0  0  0  0  0  0  0  0
  -31.3840  -11.2741   19.0769 C   0  0  0  0  0  0  0  0  0  0  0  0
  -27.0234  -35.2271   23.1740 C   0  0  0  0  0  0  0  0  0  0  0  0
  -30.0778  -10.4772   19.0499 C   0  0  0  0  0  0  0  0  0  0  0  0
  -31.3818  -12.3294   20.1815 C   0  0  0  0  0  0  0  0  0  0  0  0
  -28.9210  -12.4399   20.1438 C   0  0  0  0  0  0  0  0  0  0  0  0
  -27.1153  -34.6425   21.7593 C   0  0  1  0  0  0  0  0  0  0  0  0
  -24.8103  -31.6297   21.5508 C   0  0  1  0  0  0  0  0  0  0  0  0
  -28.8503  -11.4084   19.0060 C   0  0  2  0  0  0  0  0  0  0  0  0
  -24.2477  -19.5660   18.4441 C   0  0  0  0  0  0  0  0  0  0  0  0
  -20.4315  -27.1402   26.0975 C   0  0  0  0  0  0  0  0  0  0  0  0
  -25.6195  -31.2579   26.0859 C   0  0  0  0  0  0  0  0  0  0  0  0
  -24.2299  -29.5614   27.2939 C   0  0  0  0  0  0  0  0  0  0  0  0
  -23.2049  -31.7115   26.5530 C   0  0  0  0  0  0  0  0  0  0  0  0
  -20.6887  -26.9683   22.3054 C   0  0  0  0  0  0  0  0  0  0  0  0
  -25.2084  -18.5232   18.9939 C   0  0  0  0  0  0  0  0  0  0  0  0
  -28.2964  -24.0327   20.1310 C   0  0  0  0  0  0  0  0  0  0  0  0
  -28.0320  -22.8805   21.0939 C   0  0  0  0  0  0  0  0  0  0  0  0
  -27.9146  -25.3744   20.7421 C   0  0  0  0  0  0  0  0  0  1  0  0
  -28.3730  -21.5355   20.4683 C   0  0  0  0  0  0  0  0  0  0  0  0
  -23.7795  -29.9535   24.8293 C   0  0  1  0  0  0  0  0  0  0  0  0
  -20.7694  -27.6527   24.7062 C   0  0  2  0  0  0  0  0  0  0  0  0
  -24.2206  -30.6147   26.1656 C   0  0  0  0  0  0  0  0  0  0  0  0
  -26.9612  -10.3757   20.2085 N   0  0  0  0  0  0  0  0  0  0  0  0
  -27.5503  -10.6263   19.0269 N   0  0  0  0  0  0  0  0  0  0  0  0
  -24.6188  -30.6275   22.6010 N   0  0  0  0  0  0  0  0  0  0  0  0
  -30.1923  -13.1771   20.0741 N   0  0  0  0  0  0  0  0  0  0  0  0
  -27.3250  -10.2849   16.6938 N   0  0  0  0  0  0  0  0  0  0  0  0
  -23.6803   -8.2379   18.4032 N   0  0  0  0  0  0  0  0  0  0  0  0
  -29.1426  -15.2711   19.7989 N   0  0  0  0  0  0  0  0  0  0  0  0
  -26.0226  -33.7243   21.5199 N   0  0  0  0  0  0  0  0  0  0  0  0
  -22.4473  -29.3600   24.8674 N   0  0  0  0  0  0  0  0  0  0  0  0
  -20.4285  -26.5902   23.7183 N   0  3  0  0  0  0  0  0  0  0  0  0
  -25.5268  -19.8849   20.9343 O   0  0  0  0  0  0  0  0  0  0  0  0
  -24.8047   -8.7252   16.4649 O   0  0  0  0  0  0  0  0  0  0  0  0
  -26.9774  -31.8238   22.4680 O   0  0  0  0  0  0  0  0  0  0  0  0
  -23.0416  -31.9215   23.7298 O   0  0  0  0  0  0  0  0  0  0  0  0
  -23.1100  -27.2110   24.3018 O   0  0  0  0  0  0  0  0  0  0  0  0
  -31.4550  -15.1038   19.8795 O   0  0  0  0  0  0  0  0  0  0  0  0
  -22.3198   -7.8967   23.7947 O   0  0  0  0  0  0  0  0  0  0  0  0
  -28.1591  -26.4211   19.8036 O   0  0  0  0  0  0  0  0  0  1  0  0
  -28.1194  -20.5093   21.4179 O   0  0  0  0  0  0  0  0  0  0  0  0
  -20.4833   -2.7110   23.4199 F   0  0  0  0  0  0  0  0  0  0  0  0
  -30.5911  -19.3892   21.7947 F   0  0  0  0  0  0  0  0  0  0  0  0
  -20.9042   -7.0502   21.5760 F   0  0  0  0  0  0  0  0  0  0  0  0
  1  2  1  0  0  0  0
  1  5  2  0  0  0  0
  2  6  2  0  0  0  0
  3  8  2  0  0  0  0
  3 17  1  0  0  0  0
  4  9  1  0  0  0  0
  4 17  2  0  0  0  0
  5 20  1  0  0  0  0
  6 22  1  0  0  0  0
  7 10  2  0  0  0  0
  7 21  1  0  0  0  0
  8 25  1  0  0  0  0
  9 25  2  0  0  0  0
 10 26  1  0  0  0  0
 11 12  2  0  0  0  0
 11 27  1  0  0  0  0
 12 29  1  0  0  0  0
 13 18  1  0  0  0  0
 13 24  2  0  0  0  0
 14 23  1  0  0  0  0
 14 26  2  0  0  0  0
 15 24  1  0  0  0  0
 15 30  2  0  0  0  0
 16 29  2  0  0  0  0
 16 31  1  0  0  0  0
 17 32  1  0  0  0  0
 18 28  2  0  0  0  0
 18 34  1  0  0  0  0
 19 32  1  0  0  0  0
 19 33  2  0  0  0  0
 19 35  1  0  0  0  0
 20 22  2  0  0  0  0
 20 40  1  0  0  0  0
 21 23  2  0  0  0  0
 21 41  1  0  0  0  0
 22 49  1  0  0  0  0
 23 42  1  0  0  0  0
 24 72  1  0  0  0  0
 25 82  1  0  0  0  0
 26 83  1  0  0  0  0
 27 31  2  0  0  0  0
 27 82  1  0  0  0  0
 28 30  1  0  0  0  0
 28 84  1  0  0  0  0
 29 85  1  0  0  0  0
 30 86  1  0  0  0  0
 31 87  1  0  0  0  0
 32 66  2  0  0  0  0
 33 67  1  0  0  0  0
 33 70  1  0  0  0  0
 34 58  1  0  0  0  0
 34 76  2  0  0  0  0
 35 71  1  0  0  0  0
 35 77  2  0  0  0  0
 36 50  1  0  0  0  0
 36 73  1  0  0  0  0
 36 78  2  0  0  0  0
 37 63  1  0  0  0  0
 37 68  1  0  0  0  0
 37 79  2  0  0  0  0
 38 64  1  0  0  0  0
 38 74  1  0  0  0  0
 38 80  2  0  0  0  0
 39 69  1  0  0  0  0
 39 72  1  0  0  0  0
 39 81  2  0  0  0  0
 40 43  1  0  0  0  0
 41 50  1  0  0  0  0
 42 68  1  0  0  0  0
 43 45  1  0  0  0  0
 44 46  1  0  0  0  0
 44 47  1  0  0  0  0
 45 49  1  0  0  0  0
 46 51  1  0  0  0  0
 47 69  1  0  0  0  0
 48 51  1  0  0  0  0
 48 69  1  0  0  0  0
 49 73  1  0  0  0  0
 50 68  1  0  0  0  0
 51 67  1  0  0  0  0
 52 58  1  0  0  0  0
 53 64  1  0  0  0  0
 54 65  1  0  0  0  0
 55 65  1  0  0  0  0
 56 65  1  0  0  0  0
 57 75  1  0  0  0  0
 59 60  1  0  0  0  0
 59 61  1  0  0  0  0
 60 62  1  0  0  0  0
 61 83  1  0  0  0  0
 62 84  1  0  0  0  0
 63 65  1  0  0  0  0
 63 74  1  0  0  0  0
 64 75  1  0  0  0  0
 66 67  1  0  0  0  0
M  CHG  1  75   1
M  ISO  4  39 100  61 101  72 100  83 101
M  END
> <Batch ID>
0115

> <Smiles>
CCC(=O)c1cc([100NH:0][100C:0](=O)N2CCCC(n3nc(-c4ccc(Oc5ccc(F)cc5F)cc4)c(C(N)=O)c3N)C2)cc(F)c1OCCC[101CH2:1][101O:1]c1ccc2c(c1)CN(C(=O)C(NC(=O)C(C)NC)C(C)(C)C)C(C(=O)NC1CCCc3ccccc31)C2

> <Shape>
0.283

> <Color>
0.096

> <Negative vol penalty>
0.000

$$$$

  -OEChem-04052301403D

 84 92  0     1  0  0  0  0  0999 V2000
  -21.6006  -12.7603   19.2627 C   0  0  0  0  0  0  0  0  0  0  0  0
  -21.6145  -14.0079   19.8782 C   0  0  0  0  0  0  0  0  0  0  0  0
  -28.3716  -26.0616   16.9316 C   0  0  0  0  0  0  0  0  0  0  0  0
  -30.3223  -25.5247   18.2519 C   0  0  0  0  0  0  0  0  0  0  0  0
  -22.7428  -11.9611   19.2839 C   0  0  0  0  0  0  0  0  0  0  0  0
  -22.7704  -14.4564   20.5163 C   0  0  0  0  0  0  0  0  0  0  0  0
  -23.8496  -19.2803   19.4158 C   0  0  0  0  0  0  0  0  0  0  0  0
  -29.1258  -25.9338   15.7652 C   0  0  0  0  0  0  0  0  0  0  0  0
  -31.0766  -25.3968   17.0855 C   0  0  0  0  0  0  0  0  0  0  0  0
  -23.1129  -20.2638   20.0745 C   0  0  0  0  0  0  0  0  0  0  0  0
  -31.5337  -23.0916   14.6571 C   0  0  0  0  0  0  0  0  0  0  0  0
  -32.3821  -21.9893   14.5533 C   0  0  0  0  0  0  0  0  0  0  0  0
  -21.3265  -26.8962   22.5720 C   0  0  0  0  0  0  0  0  0  0  0  0
  -19.6010  -28.5400   22.9689 C   0  0  0  0  0  0  0  0  0  0  0  0
  -24.9406  -20.5929   21.6141 C   0  0  0  0  0  0  0  0  0  0  0  0
  -18.9994  -26.2587   22.4484 C   0  0  0  0  0  0  0  0  0  0  0  0
  -34.2790  -23.4697   14.3361 C   0  0  0  0  0  0  0  0  0  0  0  0
  -28.9699  -25.8571   18.1750 C   0  0  0  0  0  0  0  0  0  0  0  0
  -20.9519  -28.2045   22.8778 C   0  0  0  0  0  0  0  0  0  0  0  0
  -27.4670  -24.9786   20.0397 C   0  0  0  0  0  0  0  0  0  0  0  0
  -23.9163  -12.4041   19.9142 C   0  0  0  0  0  0  0  0  0  0  0  0
  -25.1351  -18.9375   19.8587 C   0  0  0  0  0  0  0  0  0  0  0  0
  -23.9289  -13.6618   20.5471 C   0  0  0  0  0  0  0  0  0  0  0  0
  -25.6925  -19.6065   20.9577 C   0  0  0  0  0  0  0  0  0  0  0  0
  -20.3502  -25.9233   22.3573 C   0  0  0  0  0  0  0  0  0  0  0  0
  -18.6247  -27.5671   22.7542 C   0  0  0  0  0  0  0  0  0  0  0  0
  -30.4783  -25.6014   15.8422 C   0  0  0  0  0  0  0  0  0  0  0  0
  -23.6573  -20.9182   21.1756 C   0  0  0  0  0  0  0  0  0  0  0  0
  -32.0580  -24.3830   14.6003 C   0  0  0  0  0  0  0  0  0  0  0  0
  -33.7548  -22.1784   14.3928 C   0  0  0  0  0  0  0  0  0  0  0  0
  -33.4306  -24.5721   14.4398 C   0  0  0  0  0  0  0  0  0  0  0  0
  -28.1914  -25.9896   19.3802 C   0  0  0  0  0  0  0  0  0  0  0  0
  -26.9075  -25.6089   21.1242 C   0  0  0  0  0  0  0  0  0  0  0  0
  -21.9834  -29.2323   23.1043 C   0  0  0  0  0  0  0  0  0  0  0  0
  -27.3137  -23.5936   19.7022 C   0  0  0  0  0  0  0  0  0  0  0  0
  -26.4882  -16.2908   20.9847 C   0  0  0  0  0  0  0  0  0  0  0  0
  -20.9709  -22.3947   23.0615 C   0  0  0  0  0  0  0  0  0  0  0  0
  -29.1939  -18.0731   20.8268 C   0  0  0  0  0  0  0  0  0  0  0  0
  -30.6240  -21.1715   20.7873 C   0  0  0  0  0  0  0  0  0  0  0  0
  -24.1562  -29.9719   23.2566 C   0  0  0  0  0  0  0  0  0  0  0  0
  -25.1114  -11.4850   19.9521 C   0  0  0  0  0  0  0  0  0  0  0  0
  -25.9273  -17.8931   19.1209 C   0  0  0  0  0  0  0  0  0  0  0  0
  -27.0764  -19.2898   21.4605 C   0  0  0  0  0  0  0  0  0  0  0  0
  -26.4119  -12.1918   20.3257 C   0  0  0  0  0  0  0  0  0  0  0  0
  -27.7520  -30.1865   23.0854 C   0  0  0  0  0  0  0  0  0  0  0  0
  -26.1989  -13.0976   21.5344 C   0  0  0  0  0  0  0  0  0  0  0  0
  -28.1224  -29.0510   22.1315 C   0  0  0  0  0  0  0  0  0  0  0  0
  -26.4280  -30.8364   22.6951 C   0  0  0  0  0  0  0  0  0  0  0  0
  -25.6591  -28.7329   21.6308 C   0  0  0  0  0  0  0  0  0  0  0  0
  -25.1713  -14.1938   21.2281 C   0  0  1  0  0  0  0  0  0  0  0  0
  -27.0249  -17.2633   19.9729 C   0  0  1  0  0  0  0  0  0  0  0  0
  -26.9746  -28.0326   22.0121 C   0  0  1  0  0  0  0  0  0  0  0  0
  -20.7861  -21.5008   24.2643 C   0  0  0  0  0  0  0  0  0  0  0  0
  -32.4344  -22.8981   20.5908 C   0  0  0  0  0  0  0  0  0  0  0  0
  -29.6721  -17.3800   23.7596 C   0  0  0  0  0  0  0  0  0  0  0  0
  -31.3285  -19.2547   23.8603 C   0  0  0  0  0  0  0  0  0  0  0  0
  -31.7216  -17.3265   22.3273 C   0  0  0  0  0  0  0  0  0  0  0  0
  -30.2967  -21.3485   17.8512 C   0  0  0  0  0  0  0  0  0  0  0  0
  -20.7543  -24.5135   22.0276 C   0  0  0  0  0  0  0  0  0  0  0  0
  -21.5194  -21.7454   21.8090 C   0  0  0  0  0  0  0  0  0  1  0  0
  -29.9161  -19.0059   21.7688 C   0  0  1  0  0  0  0  0  0  0  0  0
  -31.6811  -21.7816   19.8846 C   0  0  2  0  0  0  0  0  0  0  0  0
  -30.6327  -18.2466   22.9210 C   0  0  0  0  0  0  0  0  0  0  0  0
  -28.1020  -27.1723   19.9943 N   0  0  0  0  0  0  0  0  0  0  0  0
  -23.2446  -28.9582   23.0310 N   0  0  0  0  0  0  0  0  0  0  0  0
  -20.6193  -23.6300   23.1736 N   0  0  0  0  0  0  0  0  0  0  0  0
  -27.3147  -26.9085   21.0510 N   0  0  0  0  0  0  0  0  0  0  0  0
  -27.8089  -18.2568   20.7095 N   0  0  0  0  0  0  0  0  0  0  0  0
  -25.3701  -29.8342   22.5588 N   0  0  0  0  0  0  0  0  0  0  0  0
  -17.2588  -27.9063   22.8461 N   0  0  0  0  0  0  0  0  0  0  0  0
  -26.1118  -25.1726   22.1237 N   0  0  0  0  0  0  0  0  0  0  0  0
  -27.9566  -23.1104   18.5544 N   0  0  0  0  0  0  0  0  0  0  0  0
  -25.7736  -15.2437   20.4348 N   0  0  0  0  0  0  0  0  0  0  0  0
  -30.8058  -19.8134   20.9413 N   0  0  0  0  0  0  0  0  0  0  0  0
  -31.0517  -22.3431   18.6560 N   0  3  0  0  0  0  0  0  0  0  0  0
  -26.6134  -22.8114   20.3889 O   0  0  0  0  0  0  0  0  0  0  0  0
  -26.7076  -16.4758   22.1761 O   0  0  0  0  0  0  0  0  0  0  0  0
  -29.8361  -17.2179   20.2122 O   0  0  0  0  0  0  0  0  0  0  0  0
  -29.7288  -21.8342   21.3071 O   0  0  0  0  0  0  0  0  0  0  0  0
  -23.9453  -30.9332   23.9999 O   0  0  0  0  0  0  0  0  0  0  0  0
  -31.2145  -25.4763   14.7042 O   0  0  0  0  0  0  0  0  0  0  0  0
  -22.9402  -21.8781   21.8207 O   0  0  0  0  0  0  0  0  0  1  0  0
  -34.5695  -21.1197   14.2947 F   0  0  0  0  0  0  0  0  0  0  0  0
  -33.9402  -25.8103   14.3858 F   0  0  0  0  0  0  0  0  0  0  0  0
  1  2  1  0  0  0  0
  1  5  2  0  0  0  0
  2  6  2  0  0  0  0
  3  8  2  0  0  0  0
  3 18  1  0  0  0  0
  4  9  1  0  0  0  0
  4 18  2  0  0  0  0
  5 21  1  0  0  0  0
  6 23  1  0  0  0  0
  7 10  2  0  0  0  0
  7 22  1  0  0  0  0
  8 27  1  0  0  0  0
  9 27  2  0  0  0  0
 10 28  1  0  0  0  0
 11 12  2  0  0  0  0
 11 29  1  0  0  0  0
 12 30  1  0  0  0  0
 13 19  1  0  0  0  0
 13 25  2  0  0  0  0
 14 19  2  0  0  0  0
 14 26  1  0  0  0  0
 15 24  1  0  0  0  0
 15 28  2  0  0  0  0
 16 25  1  0  0  0  0
 16 26  2  0  0  0  0
 17 30  2  0  0  0  0
 17 31  1  0  0  0  0
 18 32  1  0  0  0  0
 19 34  1  0  0  0  0
 20 32  1  0  0  0  0
 20 33  2  0  0  0  0
 20 35  1  0  0  0  0
 21 23  2  0  0  0  0
 21 41  1  0  0  0  0
 22 24  2  0  0  0  0
 22 42  1  0  0  0  0
 23 50  1  0  0  0  0
 24 43  1  0  0  0  0
 25 59  1  0  0  0  0
 26 70  1  0  0  0  0
 27 81  1  0  0  0  0
 28 82  1  0  0  0  0
 29 31  2  0  0  0  0
 29 81  1  0  0  0  0
 30 83  1  0  0  0  0
 31 84  1  0  0  0  0
 32 64  2  0  0  0  0
 33 67  1  0  0  0  0
 33 71  1  0  0  0  0
 34 65  2  0  0  0  0
 35 72  1  0  0  0  0
 35 76  2  0  0  0  0
 36 51  1  0  0  0  0
 36 73  1  0  0  0  0
 36 77  2  0  0  0  0
 37 53  1  0  0  0  0
 37 60  1  0  0  0  0
 37 66  2  0  0  0  0
 38 61  1  0  0  0  0
 38 68  1  0  0  0  0
 38 78  2  0  0  0  0
 39 62  1  0  0  0  0
 39 74  1  0  0  0  0
 39 79  2  0  0  0  0
 40 65  1  0  0  0  0
 40 69  1  0  0  0  0
 40 80  2  0  0  0  0
 41 44  1  0  0  0  0
 42 51  1  0  0  0  0
 43 68  1  0  0  0  0
 44 46  1  0  0  0  0
 45 47  1  0  0  0  0
 45 48  1  0  0  0  0
 46 50  1  0  0  0  0
 47 52  1  0  0  0  0
 48 69  1  0  0  0  0
 49 52  1  0  0  0  0
 49 69  1  0  0  0  0
 50 73  1  0  0  0  0
 51 68  1  0  0  0  0
 52 67  1  0  0  0  0
 54 62  1  0  0  0  0
 55 63  1  0  0  0  0
 56 63  1  0  0  0  0
 57 63  1  0  0  0  0
 58 75  1  0  0  0  0
 59 66  1  0  0  0  0
 60 82  1  0  0  0  0
 61 63  1  0  0  0  0
 61 74  1  0  0  0  0
 62 75  1  0  0  0  0
 64 67  1  0  0  0  0
M  CHG  1  75   1
M  ISO  4  40 100  60 101  65 100  82 101
M  END
> <Batch ID>
0115

> <Smiles>
CNC(C)C(=O)NC(C(=O)N1Cc2cc([101O:1][101CH2:1]C(C)=NCc3cc(N)cc(C=[100N:0][100C:0](=O)N4CCCC(n5nc(-c6ccc(Oc7ccc(F)cc7F)cc6)c(C(N)=O)c5N)C4)c3)ccc2CC1C(=O)NC1CCCc2ccccc21)C(C)(C)C

> <Shape>
0.215

> <Color>
0.091

> <Negative vol penalty>
0.000

$$$$

  -OEChem-04052301403D

 92100  0     1  0  0  0  0  0999 V2000
  -27.1125  -37.7975   18.6941 C   0  0  0  0  0  0  0  0  0  0  0  0
  -26.0461  -36.9132   18.5774 C   0  0  0  0  0  0  0  0  0  0  0  0
  -26.4718  -12.7760   21.6515 C   0  0  0  0  0  0  0  0  0  0  0  0
  -25.9106  -13.9339   19.6066 C   0  0  0  0  0  0  0  0  0  0  0  0
  -28.3479  -37.3378   19.1456 C   0  0  0  0  0  0  0  0  0  0  0  0
  -26.2113  -35.5716   18.9234 C   0  0  0  0  0  0  0  0  0  0  0  0
  -24.1606  -27.9216   20.0459 C   0  0  0  0  0  0  0  0  0  0  0  0
  -25.2400  -12.1224   21.6195 C   0  0  0  0  0  0  0  0  0  0  0  0
  -24.6788  -13.2803   19.5746 C   0  0  0  0  0  0  0  0  0  0  0  0
  -24.6683  -26.6343   20.2161 C   0  0  0  0  0  0  0  0  0  0  0  0
  -23.8500   -9.5060   19.9900 C   0  0  0  0  0  0  0  0  0  0  0  0
  -23.8366   -8.1352   20.2475 C   0  0  0  0  0  0  0  0  0  0  0  0
  -26.0524  -27.4261   22.0259 C   0  0  0  0  0  0  0  0  0  0  0  0
  -26.7069  -21.4922   26.7495 C   0  0  0  0  0  0  0  0  0  0  0  0
  -22.3788   -8.5046   22.1384 C   0  0  0  0  0  0  0  0  0  0  0  0
  -26.8071  -13.6818   20.6451 C   0  0  0  0  0  0  0  0  0  0  0  0
  -25.1272  -19.2079   27.0120 C   0  0  0  0  0  0  0  0  0  0  0  0
  -25.4190  -19.7123   25.7446 C   0  0  0  0  0  0  0  0  0  0  0  0
  -29.2875  -13.9239   20.1003 C   0  0  0  0  0  0  0  0  0  0  0  0
  -28.5309  -35.9872   19.4851 C   0  0  0  0  0  0  0  0  0  0  0  0
  -24.6032  -28.9751   20.8589 C   0  0  0  0  0  0  0  0  0  0  0  0
  -27.4438  -35.0933   19.4037 C   0  0  0  0  0  0  0  0  0  0  0  0
  -25.5452  -28.7247   21.8671 C   0  0  0  0  0  0  0  0  0  0  0  0
  -24.3435  -12.3745   20.5810 C   0  0  0  0  0  0  0  0  0  0  0  0
  -25.6160  -26.3869   21.2047 C   0  0  0  0  0  0  0  0  0  0  0  0
  -23.1278  -10.3762   20.8068 C   0  0  0  0  0  0  0  0  0  0  0  0
  -26.2088  -20.8544   25.6134 C   0  0  0  0  0  0  0  0  0  0  0  0
  -26.4153  -20.9878   28.0168 C   0  0  0  0  0  0  0  0  0  0  0  0
  -25.6254  -19.8457   28.1481 C   0  0  0  0  0  0  0  0  0  0  0  0
  -23.1010   -7.6345   21.3217 C   0  0  0  0  0  0  0  0  0  0  0  0
  -22.3922   -9.8755   21.8809 C   0  0  0  0  0  0  0  0  0  0  0  0
  -28.0792  -14.3577   20.6779 C   0  0  0  0  0  0  0  0  0  0  0  0
  -30.1904  -14.9113   20.4107 C   0  0  0  0  0  0  0  0  0  0  0  0
  -23.1389  -18.0030   27.7930 C   0  0  0  0  0  0  0  0  0  0  0  0
  -24.3009  -18.0128   27.1614 C   0  0  0  0  0  0  0  0  0  0  0  0
  -24.9025  -19.0538   24.5267 C   0  0  0  0  0  0  0  0  0  0  0  0
  -29.5686  -12.7347   19.3503 C   0  0  0  0  0  0  0  0  0  0  0  0
  -26.0785  -31.7814   20.4187 C   0  0  0  0  0  0  0  0  0  0  0  0
  -26.3329  -23.2780   22.9154 C   0  0  0  0  0  0  0  0  0  0  0  0
  -25.4631  -32.0249   23.6768 C   0  0  0  0  0  0  0  0  0  0  0  0
  -24.8503  -35.3800   23.5907 C   0  0  0  0  0  0  0  0  0  0  0  0
  -27.1409  -18.1390   23.9340 C   0  0  0  0  0  0  0  0  0  0  0  0
  -29.8870  -35.5451   19.9757 C   0  0  0  0  0  0  0  0  0  0  0  0
  -24.0202  -30.3507   20.6788 C   0  0  0  0  0  0  0  0  0  0  0  0
  -26.0492  -29.8200   22.7676 C   0  0  0  0  0  0  0  0  0  0  0  0
  -30.0858  -34.0352   19.8935 C   0  0  0  0  0  0  0  0  0  0  0  0
  -29.4800  -19.5883   21.2923 C   0  0  0  0  0  0  0  0  0  0  0  0
  -28.8976  -33.3197   20.5189 C   0  0  0  0  0  0  0  0  0  0  0  0
  -30.0064  -18.2904   20.6922 C   0  0  0  0  0  0  0  0  0  0  0  0
  -28.1191  -19.3581   21.9362 C   0  0  0  0  0  0  0  0  0  0  0  0
  -29.3537  -17.4863   23.0544 C   0  0  0  0  0  0  0  0  0  0  0  0
  -27.6083  -33.6234   19.7452 C   0  0  1  0  0  0  0  0  0  0  0  0
  -24.8838  -31.4619   21.2720 C   0  0  1  0  0  0  0  0  0  0  0  0
  -30.0290  -17.1373   21.7147 C   0  0  1  0  0  0  0  0  0  0  0  0
  -28.7094  -21.7531   30.6894 C   0  0  0  0  0  0  0  0  0  0  0  0
  -24.5333  -37.7122   24.4613 C   0  0  0  0  0  0  0  0  0  0  0  0
  -22.6240  -31.0477   24.2157 C   0  0  0  0  0  0  0  0  0  0  0  0
  -22.0167  -33.3887   24.8632 C   0  0  0  0  0  0  0  0  0  0  0  0
  -23.7390  -32.1425   26.1683 C   0  0  0  0  0  0  0  0  0  0  0  0
  -25.3393  -18.2875   22.2492 C   0  0  0  0  0  0  0  0  0  0  0  0
  -27.7464  -35.9637   23.4150 C   0  0  0  0  0  0  0  0  0  0  0  0
  -26.2604  -18.4136   29.9374 C   0  0  0  0  0  0  0  0  0  0  0  0
  -26.5184  -24.7648   22.6915 C   0  0  0  0  0  0  0  0  0  1  0  0
  -26.7124  -22.7646   24.2892 C   0  0  0  0  0  0  0  0  0  0  0  0
  -28.3267  -21.7244   29.2250 C   0  0  0  0  0  0  0  0  0  0  0  0
  -24.3035  -32.9740   23.8484 C   0  0  1  0  0  0  0  0  0  0  0  0
  -25.4940  -36.5409   24.3272 C   0  0  2  0  0  0  0  0  0  0  0  0
  -23.1818  -32.3827   24.7482 C   0  0  0  0  0  0  0  0  0  0  0  0
  -28.2001  -15.5294   21.3076 N   0  0  0  0  0  0  0  0  0  0  0  0
  -29.4952  -15.8402   21.1276 N   0  0  0  0  0  0  0  0  0  0  0  0
  -25.3892  -31.1223   22.6082 N   0  0  0  0  0  0  0  0  0  0  0  0
  -28.1276  -18.2794   22.9344 N   0  0  0  0  0  0  0  0  0  0  0  0
  -31.5033  -15.0669   20.1376 N   0  0  0  0  0  0  0  0  0  0  0  0
  -28.5259  -11.8262   19.1229 N   0  0  0  0  0  0  0  0  0  0  0  0
  -26.4801  -33.1020   20.4848 N   0  0  0  0  0  0  0  0  0  0  0  0
  -24.8692  -34.2245   24.3429 N   0  0  0  0  0  0  0  0  0  0  0  0
  -25.8424  -18.5728   23.5894 N   0  0  0  0  0  0  0  0  0  0  0  0
  -26.7065  -37.0088   23.5978 N   0  3  0  0  0  0  0  0  0  0  0  0
  -23.6813  -18.9502   24.4190 O   0  0  0  0  0  0  0  0  0  0  0  0
  -30.7144  -12.4773   18.9094 O   0  0  0  0  0  0  0  0  0  0  0  0
  -26.5985  -30.8951   19.7510 O   0  0  0  0  0  0  0  0  0  0  0  0
  -25.9015  -22.5339   22.0360 O   0  0  0  0  0  0  0  0  0  0  0  0
  -26.4060  -32.0752   24.4715 O   0  0  0  0  0  0  0  0  0  0  0  0
  -24.3747  -35.4884   22.4626 O   0  0  0  0  0  0  0  0  0  0  0  0
  -27.3729  -17.6385   25.0406 O   0  0  0  0  0  0  0  0  0  0  0  0
  -23.1415  -11.7368   20.5494 O   0  0  0  0  0  0  0  0  0  0  0  0
  -25.3495  -19.3664   29.3963 O   0  0  0  0  0  0  0  0  0  0  0  0
  -26.1128  -25.1312   21.3733 O   0  0  0  0  0  0  0  0  0  1  0  0
  -26.5101  -21.3698   24.3750 O   0  0  0  0  0  0  0  0  0  0  0  0
  -26.9083  -21.6216   29.1175 O   0  0  0  0  0  0  0  0  0  0  0  0
  -23.0870   -6.3179   21.5679 F   0  0  0  0  0  0  0  0  0  0  0  0
  -21.6955  -10.7063   22.6683 F   0  0  0  0  0  0  0  0  0  0  0  0
  1  2  1  0  0  0  0
  1  5  2  0  0  0  0
  2  6  2  0  0  0  0
  3  8  2  0  0  0  0
  3 16  1  0  0  0  0
  4  9  1  0  0  0  0
  4 16  2  0  0  0  0
  5 20  1  0  0  0  0
  6 22  1  0  0  0  0
  7 10  2  0  0  0  0
  7 21  1  0  0  0  0
  8 24  1  0  0  0  0
  9 24  2  0  0  0  0
 10 25  1  0  0  0  0
 11 12  2  0  0  0  0
 11 26  1  0  0  0  0
 12 30  1  0  0  0  0
 13 23  1  0  0  0  0
 13 25  2  0  0  0  0
 14 27  2  0  0  0  0
 14 28  1  0  0  0  0
 15 30  2  0  0  0  0
 15 31  1  0  0  0  0
 16 32  1  0  0  0  0
 17 18  2  0  0  0  0
 17 29  1  0  0  0  0
 17 35  1  0  0  0  0
 18 27  1  0  0  0  0
 18 36  1  0  0  0  0
 19 32  1  0  0  0  0
 19 33  2  0  0  0  0
 19 37  1  0  0  0  0
 20 22  2  0  0  0  0
 20 43  1  0  0  0  0
 21 23  2  0  0  0  0
 21 44  1  0  0  0  0
 22 52  1  0  0  0  0
 23 45  1  0  0  0  0
 24 86  1  0  0  0  0
 25 88  1  0  0  0  0
 26 31  2  0  0  0  0
 26 86  1  0  0  0  0
 27 89  1  0  0  0  0
 28 29  2  0  0  0  0
 28 90  1  0  0  0  0
 29 87  1  0  0  0  0
 30 91  1  0  0  0  0
 31 92  1  0  0  0  0
 32 69  2  0  0  0  0
 33 70  1  0  0  0  0
 33 73  1  0  0  0  0
 34 35  2  0  0  0  0
 36 77  1  0  0  0  0
 36 79  2  0  0  0  0
 37 74  1  0  0  0  0
 37 80  2  0  0  0  0
 38 53  1  0  0  0  0
 38 75  1  0  0  0  0
 38 81  2  0  0  0  0
 39 63  1  0  0  0  0
 39 64  1  0  0  0  0
 39 82  2  0  0  0  0
 40 66  1  0  0  0  0
 40 71  1  0  0  0  0
 40 83  2  0  0  0  0
 41 67  1  0  0  0  0
 41 76  1  0  0  0  0
 41 84  2  0  0  0  0
 42 72  1  0  0  0  0
 42 77  1  0  0  0  0
 42 85  2  0  0  0  0
 43 46  1  0  0  0  0
 44 53  1  0  0  0  0
 45 71  1  0  0  0  0
 46 48  1  0  0  0  0
 47 49  1  0  0  0  0
 47 50  1  0  0  0  0
 48 52  1  0  0  0  0
 49 54  1  0  0  0  0
 50 72  1  0  0  0  0
 51 54  1  0  0  0  0
 51 72  1  0  0  0  0
 52 75  1  0  0  0  0
 53 71  1  0  0  0  0
 54 70  1  0  0  0  0
 55 65  1  0  0  0  0
 56 67  1  0  0  0  0
 57 68  1  0  0  0  0
 58 68  1  0  0  0  0
 59 68  1  0  0  0  0
 60 77  1  0  0  0  0
 61 78  1  0  0  0  0
 62 87  1  0  0  0  0
 63 88  1  0  0  0  0
 64 89  1  0  0  0  0
 65 90  1  0  0  0  0
 66 68  1  0  0  0  0
 66 76  1  0  0  0  0
 67 78  1  0  0  0  0
 69 70  1  0  0  0  0
M  CHG  1  78   1
M  ISO  4  42 100  63 101  77 100  88 101
M  END
> <Batch ID>
0115

> <Smiles>
C=Cc1c(OC)c(OCC)cc(OCC(=O)[101CH2:1][101O:1]c2ccc3c(c2)CN(C(=O)C(NC(=O)C(C)NC)C(C)(C)C)C(C(=O)NC2CCCc4ccccc42)C3)c1C(=O)[100N:0](C)[100C:0](=O)N1CCCC(n2nc(-c3ccc(Oc4ccc(F)cc4F)cc3)c(C(N)=O)c2N)C1

> <Shape>
0.236

> <Color>
0.098

> <Negative vol penalty>
0.000

$$$$

  -OEChem-04052301403D

 90 98  0     1  0  0  0  0  0999 V2000
  -28.4368  -36.1117   23.6733 C   0  0  0  0  0  0  0  0  0  0  0  0
  -28.6407  -34.7589   23.4207 C   0  0  0  0  0  0  0  0  0  0  0  0
  -24.4252   -9.0856   22.3927 C   0  0  0  0  0  0  0  0  0  0  0  0
  -24.4518   -8.6875   20.0099 C   0  0  0  0  0  0  0  0  0  0  0  0
  -27.2134  -36.5484   24.1796 C   0  0  0  0  0  0  0  0  0  0  0  0
  -27.6216  -33.8419   23.6753 C   0  0  0  0  0  0  0  0  0  0  0  0
  -27.0358  -30.4960   19.9193 C   0  0  0  0  0  0  0  0  0  0  0  0
  -23.2366   -8.3637   22.5001 C   0  0  0  0  0  0  0  0  0  0  0  0
  -23.2631   -7.9655   20.1173 C   0  0  0  0  0  0  0  0  0  0  0  0
  -27.9524  -29.4476   19.8518 C   0  0  0  0  0  0  0  0  0  0  0  0
  -22.2917   -5.1180   22.5775 C   0  0  0  0  0  0  0  0  0  0  0  0
  -22.1874   -4.1916   23.6150 C   0  0  0  0  0  0  0  0  0  0  0  0
  -29.2556  -19.1411   18.8692 C   0  0  0  0  0  0  0  0  0  0  0  0
  -28.1848  -19.7699   16.7969 C   0  0  0  0  0  0  0  0  0  0  0  0
  -26.3494  -27.9861   20.9070 C   0  0  0  0  0  0  0  0  0  0  0  0
  -20.2822   -5.3899   24.4934 C   0  0  0  0  0  0  0  0  0  0  0  0
  -25.0328   -9.2476   21.1476 C   0  0  0  0  0  0  0  0  0  0  0  0
  -28.5773  -18.7853   17.7035 C   0  0  0  0  0  0  0  0  0  0  0  0
  -29.5413  -20.4816   19.1283 C   0  0  0  0  0  0  0  0  0  0  0  0
  -27.5720   -9.4920   21.1342 C   0  0  0  0  0  0  0  0  0  0  0  0
  -26.1754  -35.6375   24.4314 C   0  0  0  0  0  0  0  0  0  0  0  0
  -25.7709  -30.2998   20.4920 C   0  0  0  0  0  0  0  0  0  0  0  0
  -26.3835  -34.2667   24.1867 C   0  0  0  0  0  0  0  0  0  0  0  0
  -25.4176  -29.0329   20.9783 C   0  0  0  0  0  0  0  0  0  0  0  0
  -28.4705  -21.1104   17.0559 C   0  0  0  0  0  0  0  0  0  0  0  0
  -22.6555   -7.8036   21.3624 C   0  0  0  0  0  0  0  0  0  0  0  0
  -27.6103  -28.1932   20.3483 C   0  0  0  0  0  0  0  0  0  0  0  0
  -21.3913   -6.1804   22.4979 C   0  0  0  0  0  0  0  0  0  0  0  0
  -29.1488  -21.4663   18.2217 C   0  0  0  0  0  0  0  0  0  0  0  0
  -21.1827   -4.3275   24.5730 C   0  0  0  0  0  0  0  0  0  0  0  0
  -20.3866   -6.3164   23.4559 C   0  0  0  0  0  0  0  0  0  0  0  0
  -26.2604   -9.9937   21.0360 C   0  0  0  0  0  0  0  0  0  0  0  0
  -28.3747  -10.5926   20.9584 C   0  0  0  0  0  0  0  0  0  0  0  0
  -31.7408  -16.4388   17.2186 C   0  0  0  0  0  0  0  0  0  0  0  0
  -30.2505  -20.8261   20.3536 C   0  0  0  0  0  0  0  0  0  0  0  0
  -30.1722  -20.1591   21.5258 C   0  0  0  0  0  0  0  0  0  0  0  0
  -30.5589  -16.9395   16.8522 C   0  0  0  0  0  0  0  0  0  0  0  0
  -28.2718  -17.3597   17.4289 C   0  0  0  0  0  0  0  0  0  0  0  0
  -28.0245   -8.1510   21.3637 C   0  0  0  0  0  0  0  0  0  0  0  0
  -24.2269  -31.5151   22.9906 C   0  0  0  0  0  0  0  0  0  0  0  0
  -28.9195  -24.9555   19.3948 C   0  0  0  0  0  0  0  0  0  0  0  0
  -21.7596  -29.7612   21.8250 C   0  0  0  0  0  0  0  0  0  0  0  0
  -20.7255  -27.1005   19.9546 C   0  0  0  0  0  0  0  0  0  0  0  0
  -29.3499  -15.0941   17.7472 C   0  0  0  0  0  0  0  0  0  0  0  0
  -24.8866  -36.1509   25.0232 C   0  0  0  0  0  0  0  0  0  0  0  0
  -24.7839  -31.4340   20.5331 C   0  0  0  0  0  0  0  0  0  0  0  0
  -24.0651  -28.7651   21.5843 C   0  0  0  0  0  0  0  0  0  0  0  0
  -23.7291  -35.1619   24.9128 C   0  0  0  0  0  0  0  0  0  0  0  0
  -27.2938  -15.5097   20.8899 C   0  0  0  0  0  0  0  0  0  0  0  0
  -24.1765  -33.7669   25.3377 C   0  0  0  0  0  0  0  0  0  0  0  0
  -26.8727  -14.0634   21.1307 C   0  0  0  0  0  0  0  0  0  0  0  0
  -27.5738  -15.7845   19.4161 C   0  0  0  0  0  0  0  0  0  0  0  0
  -28.1226  -13.3888   19.0429 C   0  0  0  0  0  0  0  0  0  0  0  0
  -25.2938  -33.2444   24.4265 C   0  0  1  0  0  0  0  0  0  0  0  0
  -23.7116  -31.2545   21.6034 C   0  0  1  0  0  0  0  0  0  0  0  0
  -27.9052  -13.0958   20.5344 C   0  0  2  0  0  0  0  0  0  0  0  0
  -28.0423  -22.1494   16.0724 C   0  0  0  0  0  0  0  0  0  0  0  0
  -30.9122  -20.5548   22.7622 C   0  0  0  0  0  0  0  0  0  0  0  0
  -18.6495  -25.8982   19.2184 C   0  0  0  0  0  0  0  0  0  0  0  0
  -21.5074  -28.5059   24.5946 C   0  0  0  0  0  0  0  0  0  0  0  0
  -20.1140  -26.6954   23.5706 C   0  0  0  0  0  0  0  0  0  0  0  0
  -19.3291  -29.0621   23.4990 C   0  0  0  0  0  0  0  0  0  0  0  0
  -21.2920  -27.6299   17.0984 C   0  0  0  0  0  0  0  0  0  0  0  0
  -27.9711  -25.8495   20.1672 C   0  0  0  0  0  0  0  0  0  1  0  0
  -28.4583  -23.5278   19.1857 C   0  0  0  0  0  0  0  0  0  0  0  0
  -21.2596  -28.3515   22.0293 C   0  0  1  0  0  0  0  0  0  0  0  0
  -19.6634  -26.9789   18.8768 C   0  0  2  0  0  0  0  0  0  0  0  0
  -20.5788  -28.1590   23.4137 C   0  0  0  0  0  0  0  0  0  0  0  0
  -26.2272  -11.3105   20.8151 N   0  0  0  0  0  0  0  0  0  0  0  0
  -27.5280  -11.6457   20.7732 N   0  0  0  0  0  0  0  0  0  0  0  0
  -23.1369  -29.9077   21.6074 N   0  0  0  0  0  0  0  0  0  0  0  0
  -28.4739  -14.7918   18.8118 N   0  0  0  0  0  0  0  0  0  0  0  0
  -29.7151  -10.7527   20.9459 N   0  0  0  0  0  0  0  0  0  0  0  0
  -27.0663   -7.1405   21.5226 N   0  0  0  0  0  0  0  0  0  0  0  0
  -24.7461  -32.7832   23.1689 N   0  0  0  0  0  0  0  0  0  0  0  0
  -20.3949  -28.0562   20.8919 N   0  0  0  0  0  0  0  0  0  0  0  0
  -29.3549  -16.4476   17.3222 N   0  0  0  0  0  0  0  0  0  0  0  0
  -20.2900  -26.6388   17.5681 N   0  3  0  0  0  0  0  0  0  0  0  0
  -27.0845  -17.0548   17.3092 O   0  0  0  0  0  0  0  0  0  0  0  0
  -29.2421   -7.8602   21.4424 O   0  0  0  0  0  0  0  0  0  0  0  0
  -24.1571  -30.6316   23.8369 O   0  0  0  0  0  0  0  0  0  0  0  0
  -29.9972  -25.3636   18.9647 O   0  0  0  0  0  0  0  0  0  0  0  0
  -20.9566  -30.6972   21.8502 O   0  0  0  0  0  0  0  0  0  0  0  0
  -21.7446  -26.4136   19.9660 O   0  0  0  0  0  0  0  0  0  0  0  0
  -30.1056  -14.2558   17.2417 O   0  0  0  0  0  0  0  0  0  0  0  0
  -21.4958   -7.0989   21.4668 O   0  0  0  0  0  0  0  0  0  0  0  0
  -28.5033  -27.1684   20.2843 O   0  0  0  0  0  0  0  0  0  1  0  0
  -29.4253  -22.7902   18.4683 O   0  0  0  0  0  0  0  0  0  0  0  0
  -21.0816   -3.4370   25.5684 F   0  0  0  0  0  0  0  0  0  0  0  0
  -19.5180   -7.3343   23.3840 F   0  0  0  0  0  0  0  0  0  0  0  0
  1  2  1  0  0  0  0
  1  5  2  0  0  0  0
  2  6  2  0  0  0  0
  3  8  2  0  0  0  0
  3 17  1  0  0  0  0
  4  9  1  0  0  0  0
  4 17  2  0  0  0  0
  5 21  1  0  0  0  0
  6 23  1  0  0  0  0
  7 10  2  0  0  0  0
  7 22  1  0  0  0  0
  8 26  1  0  0  0  0
  9 26  2  0  0  0  0
 10 27  1  0  0  0  0
 11 12  2  0  0  0  0
 11 28  1  0  0  0  0
 12 30  1  0  0  0  0
 13 18  2  0  0  0  0
 13 19  1  0  0  0  0
 14 18  1  0  0  0  0
 14 25  2  0  0  0  0
 15 24  1  0  0  0  0
 15 27  2  0  0  0  0
 16 30  2  0  0  0  0
 16 31  1  0  0  0  0
 17 32  1  0  0  0  0
 18 38  1  0  0  0  0
 19 29  2  0  0  0  0
 19 35  1  0  0  0  0
 20 32  1  0  0  0  0
 20 33  2  0  0  0  0
 20 39  1  0  0  0  0
 21 23  2  0  0  0  0
 21 45  1  0  0  0  0
 22 24  2  0  0  0  0
 22 46  1  0  0  0  0
 23 54  1  0  0  0  0
 24 47  1  0  0  0  0
 25 29  1  0  0  0  0
 25 57  1  0  0  0  0
 26 86  1  0  0  0  0
 27 87  1  0  0  0  0
 28 31  2  0  0  0  0
 28 86  1  0  0  0  0
 29 88  1  0  0  0  0
 30 89  1  0  0  0  0
 31 90  1  0  0  0  0
 32 69  2  0  0  0  0
 33 70  1  0  0  0  0
 33 73  1  0  0  0  0
 34 37  2  0  0  0  0
 35 36  2  0  0  0  0
 36 58  1  0  0  0  0
 37 77  1  0  0  0  0
 38 77  1  0  0  0  0
 38 79  2  0  0  0  0
 39 74  1  0  0  0  0
 39 80  2  0  0  0  0
 40 55  1  0  0  0  0
 40 75  1  0  0  0  0
 40 81  2  0  0  0  0
 41 64  1  0  0  0  0
 41 65  1  0  0  0  0
 41 82  2  0  0  0  0
 42 66  1  0  0  0  0
 42 71  1  0  0  0  0
 42 83  2  0  0  0  0
 43 67  1  0  0  0  0
 43 76  1  0  0  0  0
 43 84  2  0  0  0  0
 44 72  1  0  0  0  0
 44 77  1  0  0  0  0
 44 85  2  0  0  0  0
 45 48  1  0  0  0  0
 46 55  1  0  0  0  0
 47 71  1  0  0  0  0
 48 50  1  0  0  0  0
 49 51  1  0  0  0  0
 49 52  1  0  0  0  0
 50 54  1  0  0  0  0
 51 56  1  0  0  0  0
 52 72  1  0  0  0  0
 53 56  1  0  0  0  0
 53 72  1  0  0  0  0
 54 75  1  0  0  0  0
 55 71  1  0  0  0  0
 56 70  1  0  0  0  0
 59 67  1  0  0  0  0
 60 68  1  0  0  0  0
 61 68  1  0  0  0  0
 62 68  1  0  0  0  0
 63 78  1  0  0  0  0
 64 87  1  0  0  0  0
 65 88  1  0  0  0  0
 66 68  1  0  0  0  0
 66 76  1  0  0  0  0
 67 78  1  0  0  0  0
 69 70  1  0  0  0  0
M  CHG  1  78   1
M  ISO  4  44 100  64 101  77 100  87 101
M  END
> <Batch ID>
0115

> <Smiles>
C=C[100N:0](C(=O)c1cc(C)c(OCC(=O)[101CH2:1][101O:1]c2ccc3c(c2)CN(C(=O)C(NC(=O)C(C)NC)C(C)(C)C)C(C(=O)NC2CCCc4ccccc42)C3)c(C=CC)c1)[100C:0](=O)N1CCCC(n2nc(-c3ccc(Oc4ccc(F)cc4F)cc3)c(C(N)=O)c2N)C1

> <Shape>
0.323

> <Color>
0.121

> <Negative vol penalty>
0.000

$$$$

  -OEChem-04052301403D

 86 95  0     1  0  0  0  0  0999 V2000
  -30.0756  -33.6265   25.7456 C   0  0  0  0  0  0  0  0  0  0  0  0
  -29.3606  -32.5010   25.3485 C   0  0  0  0  0  0  0  0  0  0  0  0
  -24.6243   -8.6723   20.9613 C   0  0  0  0  0  0  0  0  0  0  0  0
  -22.8368  -10.2669   20.6463 C   0  0  0  0  0  0  0  0  0  0  0  0
  -29.4043  -34.8189   26.0127 C   0  0  0  0  0  0  0  0  0  0  0  0
  -27.9738  -32.5671   25.2194 C   0  0  0  0  0  0  0  0  0  0  0  0
  -26.3105  -30.3627   20.9745 C   0  0  0  0  0  0  0  0  0  0  0  0
  -23.6873   -7.6755   21.2333 C   0  0  0  0  0  0  0  0  0  0  0  0
  -21.8997   -9.2701   20.9182 C   0  0  0  0  0  0  0  0  0  0  0  0
  -26.2377  -28.9705   20.9664 C   0  0  0  0  0  0  0  0  0  0  0  0
  -21.7633   -6.7103   23.8392 C   0  0  0  0  0  0  0  0  0  0  0  0
  -22.0053   -5.8743   24.9292 C   0  0  0  0  0  0  0  0  0  0  0  0
  -23.8663  -29.0981   21.3898 C   0  0  0  0  0  0  0  0  0  0  0  0
  -23.8949  -19.8526   20.7982 C   0  0  0  0  0  0  0  0  0  0  0  0
  -22.0204   -3.9588   23.4568 C   0  0  0  0  0  0  0  0  0  0  0  0
  -24.1991   -9.9680   20.6679 C   0  0  0  0  0  0  0  0  0  0  0  0
  -26.1187  -11.0108   19.3505 C   0  0  0  0  0  0  0  0  0  0  0  0
  -28.0095  -34.9023   25.8775 C   0  0  0  0  0  0  0  0  0  0  0  0
  -25.1618  -31.1343   21.2015 C   0  0  0  0  0  0  0  0  0  0  0  0
  -27.2831  -33.7614   25.4863 C   0  0  0  0  0  0  0  0  0  0  0  0
  -23.9267  -30.5000   21.3977 C   0  0  0  0  0  0  0  0  0  0  0  0
  -23.6920  -18.4996   20.4003 C   0  0  0  0  0  0  0  0  0  0  0  0
  -22.3250   -7.9744   21.2117 C   0  0  0  0  0  0  0  0  0  0  0  0
  -25.0160  -28.3379   21.1770 C   0  0  0  0  0  0  0  0  0  0  0  0
  -21.6498   -6.1706   22.5580 C   0  0  0  0  0  0  0  0  0  0  0  0
  -22.1339   -4.4986   24.7380 C   0  0  0  0  0  0  0  0  0  0  0  0
  -21.7784   -4.7949   22.3668 C   0  0  0  0  0  0  0  0  0  0  0  0
  -25.1666  -10.9982   20.3875 C   0  0  0  0  0  0  0  0  0  0  0  0
  -22.7700  -18.3923   19.3824 C   0  0  0  0  0  0  0  0  0  0  0  0
  -23.1203  -20.7280   20.0690 C   0  0  0  0  0  0  0  0  0  0  0  0
  -26.7897  -12.1979   19.5149 C   0  0  0  0  0  0  0  0  0  0  0  0
  -22.2987  -17.2370   18.7187 C   0  0  0  0  0  0  0  0  0  0  0  0
  -21.0493  -17.0394   18.1747 C   0  0  0  0  0  0  0  0  0  0  0  0
  -26.3735  -10.0367   18.3298 C   0  0  0  0  0  0  0  0  0  0  0  0
  -24.2645  -33.2212   23.4249 C   0  0  0  0  0  0  0  0  0  0  0  0
  -21.7064  -33.6134   21.4693 C   0  0  0  0  0  0  0  0  0  0  0  0
  -19.6955  -32.3193   19.0345 C   0  0  0  0  0  0  0  0  0  0  0  0
  -25.2991  -17.4183   22.0110 C   0  0  0  0  0  0  0  0  0  0  0  0
  -27.3230  -36.2000   26.2231 C   0  0  0  0  0  0  0  0  0  0  0  0
  -25.2523  -32.6355   21.1805 C   0  0  0  0  0  0  0  0  0  0  0  0
  -22.6605  -31.2831   21.6256 C   0  0  0  0  0  0  0  0  0  0  0  0
  -25.8916  -36.2898   25.7003 C   0  0  0  0  0  0  0  0  0  0  0  0
  -28.0569  -15.3464   22.8936 C   0  0  0  0  0  0  0  0  0  0  0  0
  -25.1303  -35.0035   26.0047 C   0  0  0  0  0  0  0  0  0  0  0  0
  -24.3882  -22.9081   19.8530 C   0  0  0  0  0  0  0  0  0  0  0  0
  -22.5293  -22.6858   21.5603 C   0  0  0  0  0  0  0  0  0  0  0  0
  -24.2961  -24.4303   19.9557 C   0  0  0  0  0  0  0  0  0  0  0  0
  -22.4419  -24.2086   21.6587 C   0  0  0  0  0  0  0  0  0  0  0  0
  -27.7182  -13.9991   22.2516 C   0  0  0  0  0  0  0  0  0  0  0  0
  -26.8105  -16.0483   23.4300 C   0  0  0  0  0  0  0  0  0  0  0  0
  -25.3801  -14.8547   21.8181 C   0  0  0  0  0  0  0  0  0  0  0  0
  -25.7804  -33.8004   25.3110 C   0  0  1  0  0  0  0  0  0  0  0  0
  -23.0424  -22.2397   20.1808 C   0  0  0  0  0  0  0  0  0  0  0  0
  -24.1115  -33.3135   21.9330 C   0  0  1  0  0  0  0  0  0  0  0  0
  -23.7842  -24.8760   21.3317 C   0  0  0  0  0  0  0  0  0  0  0  0
  -26.5954  -14.1398   21.2052 C   0  0  2  0  0  0  0  0  0  0  0  0
  -20.5907  -15.7939   17.4881 C   0  0  0  0  0  0  0  0  0  0  0  0
  -17.6632  -32.8592   17.6648 C   0  0  0  0  0  0  0  0  0  0  0  0
  -19.9308  -33.0475   23.8853 C   0  0  0  0  0  0  0  0  0  0  0  0
  -18.0260  -32.6606   22.3071 C   0  0  0  0  0  0  0  0  0  0  0  0
  -19.1245  -34.8979   22.4087 C   0  0  0  0  0  0  0  0  0  0  0  0
  -21.2136  -32.1418   16.5001 C   0  0  0  0  0  0  0  0  0  0  0  0
  -23.6584  -26.3972   21.3927 C   0  0  0  0  0  0  0  0  0  1  0  0
  -20.3504  -32.9627   21.3391 C   0  0  1  0  0  0  0  0  0  0  0  0
  -19.1816  -32.9091   17.7335 C   0  0  2  0  0  0  0  0  0  0  0  0
  -19.3820  -33.3771   22.4827 C   0  0  0  0  0  0  0  0  0  0  0  0
  -25.2247  -12.0905   21.1540 N   0  0  0  0  0  0  0  0  0  0  0  0
  -26.2213  -12.8005   20.5984 N   0  0  0  0  0  0  0  0  0  0  0  0
  -22.8017  -32.7483   21.6024 N   0  0  0  0  0  0  0  0  0  0  0  0
  -25.7920  -16.1495   22.3825 N   0  0  0  0  0  0  0  0  0  0  0  0
  -27.8048  -12.7745   18.8370 N   0  0  0  0  0  0  0  0  0  0  0  0
  -25.5914   -8.8739   18.3058 N   0  0  0  0  0  0  0  0  0  0  0  0
  -24.3583  -17.3926   20.9820 N   0  0  0  0  0  0  0  0  0  0  0  0
  -25.4336  -33.7789   23.9061 N   0  0  0  0  0  0  0  0  0  0  0  0
  -19.8686  -33.2874   20.0010 N   0  0  0  0  0  0  0  0  0  0  0  0
  -19.7297  -32.1551   16.5708 N   0  3  0  0  0  0  0  0  0  0  0  0
  -27.2792  -10.1851   17.4748 O   0  0  0  0  0  0  0  0  0  0  0  0
  -23.3862  -32.6850   24.0903 O   0  0  0  0  0  0  0  0  0  0  0  0
  -21.7913  -34.8438   21.4463 O   0  0  0  0  0  0  0  0  0  0  0  0
  -19.9173  -31.1192   19.1800 O   0  0  0  0  0  0  0  0  0  0  0  0
  -25.7034  -18.4537   22.5461 O   0  0  0  0  0  0  0  0  0  0  0  0
  -21.4103   -7.0019   21.4767 O   0  0  0  0  0  0  0  0  0  0  0  0
  -24.9422  -26.9791   21.1703 O   0  0  0  0  0  0  0  0  0  1  0  0
  -22.3678   -3.6961   25.7846 F   0  0  0  0  0  0  0  0  0  0  0  0
  -21.6715   -4.2707   21.1381 F   0  0  0  0  0  0  0  0  0  0  0  0
  -22.1534  -19.9185   18.9105 S   0  0  0  0  0  0  0  0  0  0  0  0
  1  2  1  0  0  0  0
  1  5  2  0  0  0  0
  2  6  2  0  0  0  0
  3  8  2  0  0  0  0
  3 16  1  0  0  0  0
  4  9  1  0  0  0  0
  4 16  2  0  0  0  0
  5 18  1  0  0  0  0
  6 20  1  0  0  0  0
  7 10  2  0  0  0  0
  7 19  1  0  0  0  0
  8 23  1  0  0  0  0
  9 23  2  0  0  0  0
 10 24  1  0  0  0  0
 11 12  2  0  0  0  0
 11 25  1  0  0  0  0
 12 26  1  0  0  0  0
 13 21  1  0  0  0  0
 13 24  2  0  0  0  0
 14 22  1  0  0  0  0
 14 30  2  0  0  0  0
 15 26  2  0  0  0  0
 15 27  1  0  0  0  0
 16 28  1  0  0  0  0
 17 28  1  0  0  0  0
 17 31  2  0  0  0  0
 17 34  1  0  0  0  0
 18 20  2  0  0  0  0
 18 39  1  0  0  0  0
 19 21  2  0  0  0  0
 19 40  1  0  0  0  0
 20 52  1  0  0  0  0
 21 41  1  0  0  0  0
 22 29  2  0  0  0  0
 22 73  1  0  0  0  0
 23 82  1  0  0  0  0
 24 83  1  0  0  0  0
 25 27  2  0  0  0  0
 25 82  1  0  0  0  0
 26 84  1  0  0  0  0
 27 85  1  0  0  0  0
 28 67  2  0  0  0  0
 29 32  1  0  0  0  0
 29 86  1  0  0  0  0
 30 53  1  0  0  0  0
 30 86  1  0  0  0  0
 31 68  1  0  0  0  0
 31 71  1  0  0  0  0
 32 33  2  0  0  0  0
 33 57  1  0  0  0  0
 34 72  1  0  0  0  0
 34 77  2  0  0  0  0
 35 54  1  0  0  0  0
 35 74  1  0  0  0  0
 35 78  2  0  0  0  0
 36 64  1  0  0  0  0
 36 69  1  0  0  0  0
 36 79  2  0  0  0  0
 37 65  1  0  0  0  0
 37 75  1  0  0  0  0
 37 80  2  0  0  0  0
 38 70  1  0  0  0  0
 38 73  1  0  0  0  0
 38 81  2  0  0  0  0
 39 42  1  0  0  0  0
 40 54  1  0  0  0  0
 41 69  1  0  0  0  0
 42 44  1  0  0  0  0
 43 49  1  0  0  0  0
 43 50  1  0  0  0  0
 44 52  1  0  0  0  0
 45 47  1  0  0  0  0
 45 53  1  0  0  0  0
 46 48  1  0  0  0  0
 46 53  1  0  0  0  0
 47 55  1  0  0  0  0
 48 55  1  0  0  0  0
 49 56  1  0  0  0  0
 50 70  1  0  0  0  0
 51 56  1  0  0  0  0
 51 70  1  0  0  0  0
 52 74  1  0  0  0  0
 54 69  1  0  0  0  0
 55 63  1  0  0  0  0
 56 68  1  0  0  0  0
 58 65  1  0  0  0  0
 59 66  1  0  0  0  0
 60 66  1  0  0  0  0
 61 66  1  0  0  0  0
 62 76  1  0  0  0  0
 63 83  1  0  0  0  0
 64 66  1  0  0  0  0
 64 75  1  0  0  0  0
 65 76  1  0  0  0  0
 67 68  1  0  0  0  0
M  CHG  1  76   1
M  ISO  4  38 100  63 101  73 100  83 101
M  END
> <Batch ID>
0115

> <Smiles>
CC=Cc1sc(C2CCC([101CH2:1][101O:1]c3ccc4c(c3)CN(C(=O)C(NC(=O)C(C)NC)C(C)(C)C)C(C(=O)NC3CCCc5ccccc53)C4)CC2)cc1[100NH:0][100C:0](=O)N1CCCC(n2nc(-c3ccc(Oc4ccc(F)cc4F)cc3)c(C(N)=O)c2N)C1

> <Shape>
0.202

> <Color>
0.113

> <Negative vol penalty>
0.000

$$$$

  -OEChem-04052301403D

 89 98  0     1  0  0  0  0  0999 V2000
  -28.3627  -17.0326   33.2471 C   0  0  0  0  0  0  0  0  0  0  0  0
  -28.9601  -17.5679   32.1105 C   0  0  0  0  0  0  0  0  0  0  0  0
  -23.0006   -9.8937   19.9812 C   0  0  0  0  0  0  0  0  0  0  0  0
  -23.7254   -9.9452   22.2854 C   0  0  0  0  0  0  0  0  0  0  0  0
  -27.0119  -16.6881   33.2267 C   0  0  0  0  0  0  0  0  0  0  0  0
  -28.2072  -17.7579   30.9523 C   0  0  0  0  0  0  0  0  0  0  0  0
  -29.0485  -22.2670   28.8061 C   0  0  0  0  0  0  0  0  0  0  0  0
  -22.2340   -8.7594   20.2477 C   0  0  0  0  0  0  0  0  0  0  0  0
  -22.9587   -8.8109   22.5519 C   0  0  0  0  0  0  0  0  0  0  0  0
  -30.2180  -22.4089   28.0605 C   0  0  0  0  0  0  0  0  0  0  0  0
  -23.2027   -5.4718   22.0809 C   0  0  0  0  0  0  0  0  0  0  0  0
  -23.7900   -4.4547   22.8333 C   0  0  0  0  0  0  0  0  0  0  0  0
  -32.0581  -16.5486   22.5622 C   0  0  0  0  0  0  0  0  0  0  0  0
  -30.4730  -18.3475   23.9884 C   0  0  0  0  0  0  0  0  0  0  0  0
  -28.9547  -22.0920   26.0300 C   0  0  0  0  0  0  0  0  0  0  0  0
  -22.0659   -4.6983   24.5082 C   0  0  0  0  0  0  0  0  0  0  0  0
  -23.7464  -10.4866   21.0000 C   0  0  0  0  0  0  0  0  0  0  0  0
  -32.6492  -17.4452   23.4524 C   0  0  0  0  0  0  0  0  0  0  0  0
  -31.8566  -18.3446   24.1655 C   0  0  0  0  0  0  0  0  0  0  0  0
  -24.1320  -13.0021   20.8234 C   0  0  0  0  0  0  0  0  0  0  0  0
  -26.2397  -16.8830   32.0707 C   0  0  0  0  0  0  0  0  0  0  0  0
  -27.8230  -22.0252   28.1689 C   0  0  0  0  0  0  0  0  0  0  0  0
  -26.8450  -17.4144   30.9159 C   0  0  0  0  0  0  0  0  0  0  0  0
  -27.7707  -21.9499   26.7697 C   0  0  0  0  0  0  0  0  0  0  0  0
  -30.6745  -16.5515   22.3851 C   0  0  0  0  0  0  0  0  0  0  0  0
  -22.2129   -8.2180   21.5330 C   0  0  0  0  0  0  0  0  0  0  0  0
  -30.1716  -22.3186   26.6724 C   0  0  0  0  0  0  0  0  0  0  0  0
  -22.0470   -6.1022   22.5421 C   0  0  0  0  0  0  0  0  0  0  0  0
  -23.2216   -4.0679   24.0470 C   0  0  0  0  0  0  0  0  0  0  0  0
  -29.8820  -17.4510   23.0982 C   0  0  0  0  0  0  0  0  0  0  0  0
  -21.4786   -5.7154   23.7557 C   0  0  0  0  0  0  0  0  0  0  0  0
  -24.5391  -11.6581   20.7252 C   0  0  0  0  0  0  0  0  0  0  0  0
  -25.2419  -13.7245   20.4591 C   0  0  0  0  0  0  0  0  0  0  0  0
  -33.2116  -22.1030   23.1714 C   0  0  0  0  0  0  0  0  0  0  0  0
  -32.6895  -20.8909   23.3693 C   0  0  0  0  0  0  0  0  0  0  0  0
  -34.0971  -17.4223   23.6147 C   0  0  0  0  0  0  0  0  0  0  0  0
  -32.4580  -19.3028   25.1102 C   0  0  0  0  0  0  0  0  0  0  0  0
  -22.8641  -13.5488   21.2096 C   0  0  0  0  0  0  0  0  0  0  0  0
  -25.6971  -19.6626   28.2177 C   0  0  0  0  0  0  0  0  0  0  0  0
  -23.9758  -21.6957   26.3666 C   0  0  0  0  0  0  0  0  0  0  0  0
  -23.9596  -24.3364   24.2050 C   0  0  0  0  0  0  0  0  0  0  0  0
  -30.7215  -14.6851   20.6938 C   0  0  0  0  0  0  0  0  0  0  0  0
  -24.7946  -16.4514   32.0817 C   0  0  0  0  0  0  0  0  0  0  0  0
  -26.5663  -21.9010   28.9859 C   0  0  0  0  0  0  0  0  0  0  0  0
  -26.4770  -21.7118   26.0362 C   0  0  0  0  0  0  0  0  0  0  0  0
  -33.8027  -22.6413   24.4395 C   0  0  0  0  0  0  0  0  0  0  0  0
  -23.9764  -17.0328   30.9316 C   0  0  0  0  0  0  0  0  0  0  0  0
  -29.6033  -12.2317   18.3683 C   0  0  0  0  0  0  0  0  0  0  0  0
  -24.7303  -16.8879   29.6135 C   0  0  0  0  0  0  0  0  0  0  0  0
  -28.1526  -11.9744   18.7822 C   0  0  0  0  0  0  0  0  0  0  0  0
  -30.5037  -12.4754   19.5781 C   0  0  0  0  0  0  0  0  0  0  0  0
  -28.5882  -13.2648   20.9111 C   0  0  0  0  0  0  0  0  0  0  0  0
  -26.0555  -17.6587   29.6482 C   0  0  1  0  0  0  0  0  0  0  0  0
  -25.4558  -21.1450   28.2629 C   0  0  1  0  0  0  0  0  0  0  0  0
  -27.6307  -13.0782   19.7228 C   0  0  2  0  0  0  0  0  0  0  0  0
  -33.4814  -21.5506   25.4869 C   0  0  1  0  0  0  0  0  0  0  0  0
  -34.7940  -16.1097   23.4129 C   0  0  0  0  0  0  0  0  0  0  0  0
  -22.4050  -25.7473   22.8302 C   0  0  0  0  0  0  0  0  0  0  0  0
  -23.7230  -19.4331   24.3351 C   0  0  0  0  0  0  0  0  0  0  0  0
  -23.0225  -21.1318   22.6346 C   0  0  0  0  0  0  0  0  0  0  0  0
  -21.6354  -20.7675   24.6756 C   0  0  0  0  0  0  0  0  0  0  0  0
  -24.7219  -26.7989   25.6589 C   0  0  0  0  0  0  0  0  0  0  0  0
  -32.5310  -22.0423   26.5575 C   0  0  0  0  0  0  0  0  0  1  0  0
  -23.8591  -21.9524   24.8836 C   0  0  1  0  0  0  0  0  0  0  0  0
  -23.1192  -25.6000   24.1647 C   0  0  2  0  0  0  0  0  0  0  0  0
  -23.0849  -20.8238   24.1459 C   0  0  0  0  0  0  0  0  0  0  0  0
  -25.8084  -11.5314   20.3293 N   0  0  0  0  0  0  0  0  0  0  0  0
  -26.2085  -12.8050   20.1755 N   0  0  0  0  0  0  0  0  0  0  0  0
  -32.8328  -20.4920   24.6772 N   0  0  0  0  0  0  0  0  0  0  0  0
  -25.2764  -21.5908   26.8797 N   0  0  0  0  0  0  0  0  0  0  0  0
  -29.9486  -13.5366   20.4211 N   0  0  0  0  0  0  0  0  0  0  0  0
  -25.4756  -15.0502   20.3567 N   0  0  0  0  0  0  0  0  0  0  0  0
  -21.8321  -12.6648   21.5532 N   0  0  0  0  0  0  0  0  0  0  0  0
  -30.0771  -15.6406   21.4790 N   0  0  0  0  0  0  0  0  0  0  0  0
  -25.8216  -19.0747   29.4619 N   0  0  0  0  0  0  0  0  0  0  0  0
  -23.2621  -23.2762   24.7442 N   0  0  0  0  0  0  0  0  0  0  0  0
  -32.6119  -18.9548   26.3844 N   0  3  0  0  0  0  0  0  0  0  0  0
  -23.9780  -26.8001   24.3730 N   0  3  0  0  0  0  0  0  0  0  0  0
  -34.7876  -18.3982   23.9094 O   0  0  0  0  0  0  0  0  0  0  0  0
  -22.6475  -14.7841   21.2330 O   0  0  0  0  0  0  0  0  0  0  0  0
  -25.7637  -19.0941   27.1341 O   0  0  0  0  0  0  0  0  0  0  0  0
  -22.9508  -21.5991   27.0461 O   0  0  0  0  0  0  0  0  0  0  0  0
  -25.1176  -24.2933   23.7954 O   0  0  0  0  0  0  0  0  0  0  0  0
  -31.8602  -14.8238   20.2399 O   0  0  0  0  0  0  0  0  0  0  0  0
  -21.4647   -7.1112   21.7935 O   0  0  0  0  0  0  0  0  0  0  0  0
  -31.3117  -22.4562   25.9422 O   0  0  0  0  0  0  0  0  0  1  0  0
  -23.7848   -3.0902   24.7687 F   0  0  0  0  0  0  0  0  0  0  0  0
  -28.5513  -17.4637   22.9352 F   0  0  0  0  0  0  0  0  0  0  0  0
  -20.3677   -6.3165   24.2034 F   0  0  0  0  0  0  0  0  0  0  0  0
  1  2  1  0  0  0  0
  1  5  2  0  0  0  0
  2  6  2  0  0  0  0
  3  8  2  0  0  0  0
  3 17  1  0  0  0  0
  4  9  1  0  0  0  0
  4 17  2  0  0  0  0
  5 21  1  0  0  0  0
  6 23  1  0  0  0  0
  7 10  2  0  0  0  0
  7 22  1  0  0  0  0
  8 26  1  0  0  0  0
  9 26  2  0  0  0  0
 10 27  1  0  0  0  0
 11 12  2  0  0  0  0
 11 28  1  0  0  0  0
 12 29  1  0  0  0  0
 13 18  1  0  0  0  0
 13 25  2  0  0  0  0
 14 19  1  0  0  0  0
 14 30  2  0  0  0  0
 15 24  1  0  0  0  0
 15 27  2  0  0  0  0
 16 29  2  0  0  0  0
 16 31  1  0  0  0  0
 17 32  1  0  0  0  0
 18 19  2  0  0  0  0
 18 36  1  0  0  0  0
 19 37  1  0  0  0  0
 20 32  1  0  0  0  0
 20 33  2  0  0  0  0
 20 38  1  0  0  0  0
 21 23  2  0  0  0  0
 21 43  1  0  0  0  0
 22 24  2  0  0  0  0
 22 44  1  0  0  0  0
 23 53  1  0  0  0  0
 24 45  1  0  0  0  0
 25 30  1  0  0  0  0
 25 74  1  0  0  0  0
 26 85  1  0  0  0  0
 27 86  1  0  0  0  0
 28 31  2  0  0  0  0
 28 85  1  0  0  0  0
 29 87  1  0  0  0  0
 30 88  1  0  0  0  0
 31 89  1  0  0  0  0
 32 67  2  0  0  0  0
 33 68  1  0  0  0  0
 33 72  1  0  0  0  0
 34 35  2  0  0  0  0
 34 46  1  0  0  0  0
 35 69  1  0  0  0  0
 36 57  1  0  0  0  0
 36 79  2  0  0  0  0
 37 69  1  0  0  0  0
 37 77  2  0  0  0  0
 38 73  1  0  0  0  0
 38 80  2  0  0  0  0
 39 54  1  0  0  0  0
 39 75  1  0  0  0  0
 39 81  2  0  0  0  0
 40 64  1  0  0  0  0
 40 70  1  0  0  0  0
 40 82  2  0  0  0  0
 41 65  1  0  0  0  0
 41 76  1  0  0  0  0
 41 83  2  0  0  0  0
 42 71  1  0  0  0  0
 42 74  1  0  0  0  0
 42 84  2  0  0  0  0
 43 47  1  0  0  0  0
 44 54  1  0  0  0  0
 45 70  1  0  0  0  0
 46 56  1  0  0  0  0
 47 49  1  0  0  0  0
 48 50  1  0  0  0  0
 48 51  1  0  0  0  0
 49 53  1  0  0  0  0
 50 55  1  0  0  0  0
 51 71  1  0  0  0  0
 52 55  1  0  0  0  0
 52 71  1  0  0  0  0
 53 75  1  0  0  0  0
 54 70  1  0  0  0  0
 55 68  1  0  0  0  0
 56 63  1  0  0  0  0
 56 69  1  0  0  0  0
 58 65  1  0  0  0  0
 59 66  1  0  0  0  0
 60 66  1  0  0  0  0
 61 66  1  0  0  0  0
 62 78  1  0  0  0  0
 63 86  1  0  0  0  0
 64 66  1  0  0  0  0
 64 76  1  0  0  0  0
 65 78  1  0  0  0  0
 67 68  1  0  0  0  0
M  CHG  2  77   1  78   1
M  ISO  4  42 100  63 101  74 100  86 101
M  END
> <Batch ID>
0115

> <Smiles>
CNC(C)C(=O)NC(C(=O)N1Cc2cc([101O:1][101CH2:1]C3CC=CN3C(=N)c3cc(F)c([100NH:0][100C:0](=O)N4CCCC(n5nc(-c6ccc(Oc7ccc(F)cc7F)cc6)c(C(N)=O)c5N)C4)cc3C(C)=O)ccc2CC1C(=O)NC1CCCc2ccccc21)C(C)(C)C

> <Shape>
0.172

> <Color>
0.189

> <Negative vol penalty>
0.000

$$$$

  -OEChem-04052301403D

 85 93  0     1  0  0  0  0  0999 V2000
  -27.1553  -11.4636   17.8775 C   0  0  0  0  0  0  0  0  0  0  0  0
  -26.9001  -12.7190   17.3351 C   0  0  0  0  0  0  0  0  0  0  0  0
  -28.8770  -26.7808   19.4658 C   0  0  0  0  0  0  0  0  0  0  0  0
  -27.5632  -25.2579   20.8043 C   0  0  0  0  0  0  0  0  0  0  0  0
  -26.6241  -11.1214   19.1204 C   0  0  0  0  0  0  0  0  0  0  0  0
  -26.1126  -13.6327   18.0348 C   0  0  0  0  0  0  0  0  0  0  0  0
  -25.3849  -20.6712   19.1511 C   0  0  0  0  0  0  0  0  0  0  0  0
  -29.9465  -25.8861   19.4975 C   0  0  0  0  0  0  0  0  0  0  0  0
  -28.6328  -24.3631   20.8360 C   0  0  0  0  0  0  0  0  0  0  0  0
  -24.4188  -21.6752   19.1025 C   0  0  0  0  0  0  0  0  0  0  0  0
  -30.0192  -22.0672   18.7800 C   0  0  0  0  0  0  0  0  0  0  0  0
  -29.7418  -20.7196   18.5507 C   0  0  0  0  0  0  0  0  0  0  0  0
  -19.8928  -28.3784   23.1918 C   0  0  0  0  0  0  0  0  0  0  0  0
  -23.6196  -21.0032   21.2771 C   0  0  0  0  0  0  0  0  0  0  0  0
  -18.9407  -27.0086   21.4442 C   0  0  0  0  0  0  0  0  0  0  0  0
  -30.6135  -20.1684   20.7355 C   0  0  0  0  0  0  0  0  0  0  0  0
  -27.6853  -26.4668   20.1192 C   0  0  0  0  0  0  0  0  0  0  0  0
  -20.8475  -27.3932   23.4440 C   0  0  0  0  0  0  0  0  0  0  0  0
  -25.9016  -27.8655   18.9489 C   0  0  0  0  0  0  0  0  0  0  0  0
  -25.8377  -12.0348   19.8400 C   0  0  0  0  0  0  0  0  0  0  0  0
  -25.4687  -19.8172   20.2602 C   0  0  0  0  0  0  0  0  0  0  0  0
  -25.5693  -13.3019   19.2878 C   0  0  0  0  0  0  0  0  0  0  0  0
  -24.5894  -19.9907   21.3385 C   0  0  0  0  0  0  0  0  0  0  0  0
  -20.8488  -26.2157   22.6963 C   0  0  0  0  0  0  0  0  0  0  0  0
  -19.8954  -26.0233   21.6964 C   0  0  0  0  0  0  0  0  0  0  0  0
  -29.8245  -24.6772   20.1826 C   0  0  0  0  0  0  0  0  0  0  0  0
  -23.5341  -21.8395   20.1643 C   0  0  0  0  0  0  0  0  0  0  0  0
  -30.5938  -22.4654   19.9871 C   0  0  0  0  0  0  0  0  0  0  0  0
  -30.0389  -19.7702   19.5284 C   0  0  0  0  0  0  0  0  0  0  0  0
  -18.9394  -28.1861   22.1920 C   0  0  0  0  0  0  0  0  0  0  0  0
  -30.8909  -21.5160   20.9648 C   0  0  0  0  0  0  0  0  0  0  0  0
  -26.5802  -27.3909   20.0873 C   0  0  0  0  0  0  0  0  0  0  0  0
  -24.9421  -28.7115   19.4490 C   0  0  0  0  0  0  0  0  0  0  0  0
  -20.5875  -24.8665   19.8504 C   0  0  0  0  0  0  0  0  0  0  0  0
  -21.8302  -27.6228   24.4946 C   0  0  0  0  0  0  0  0  0  0  0  0
  -26.1190  -27.5681   17.5632 C   0  0  0  0  0  0  0  0  0  0  0  0
  -22.2872  -28.9897   24.8351 C   0  0  0  0  0  0  0  0  0  0  0  0
  -25.1510  -16.6866   20.7097 C   0  0  0  0  0  0  0  0  0  0  0  0
  -26.1131  -17.4155   23.7206 C   0  0  0  0  0  0  0  0  0  0  0  0
  -26.3861  -19.7576   26.1877 C   0  0  0  0  0  0  0  0  0  0  0  0
  -25.2461  -11.6025   21.1583 C   0  0  0  0  0  0  0  0  0  0  0  0
  -26.5338  -18.7562   20.3090 C   0  0  0  0  0  0  0  0  0  0  0  0
  -24.6508  -19.1133   22.5610 C   0  0  0  0  0  0  0  0  0  0  0  0
  -24.7317  -12.7638   22.0051 C   0  0  0  0  0  0  0  0  0  0  0  0
  -24.0453  -31.6121   23.1355 C   0  0  0  0  0  0  0  0  0  0  0  0
  -23.8989  -13.7172   21.1541 C   0  0  0  0  0  0  0  0  0  0  0  0
  -24.8626  -30.8645   22.0825 C   0  0  0  0  0  0  0  0  0  0  0  0
  -23.9079  -30.7974   24.4176 C   0  0  0  0  0  0  0  0  0  0  0  0
  -24.1499  -28.6793   23.1513 C   0  0  0  0  0  0  0  0  0  0  0  0
  -24.7402  -14.3293   20.0276 C   0  0  1  0  0  0  0  0  0  0  0  0
  -26.1961  -17.6140   21.2623 C   0  0  1  0  0  0  0  0  0  0  0  0
  -24.2869  -29.4593   21.8321 C   0  0  2  0  0  0  0  0  0  0  0  0
  -21.2942  -23.9865   23.7540 C   0  0  0  0  0  0  0  0  0  0  0  0
  -27.0661  -20.7526   28.3889 C   0  0  0  0  0  0  0  0  0  0  0  0
  -23.6261  -15.9656   24.7320 C   0  0  0  0  0  0  0  0  0  0  0  0
  -23.9611  -17.0826   26.9475 C   0  0  0  0  0  0  0  0  0  0  0  0
  -25.7001  -15.5299   26.0599 C   0  0  0  0  0  0  0  0  0  0  0  0
  -28.9773  -20.6855   25.0997 C   0  0  0  0  0  0  0  0  0  0  0  0
  -21.8713  -25.1562   22.9649 C   0  0  0  0  0  0  0  0  0  0  0  0
  -20.6598  -23.6568   18.9575 C   0  0  0  0  0  0  0  0  0  0  0  0
  -22.0998  -23.1891   18.8311 C   0  0  0  0  0  0  0  0  0  1  0  0
  -25.4152  -17.8077   25.0005 C   0  0  1  0  0  0  0  0  0  0  0  0
  -27.5504  -20.1509   27.0788 C   0  0  2  0  0  0  0  0  0  0  0  0
  -24.6730  -16.6119   25.6612 C   0  0  0  0  0  0  0  0  0  0  0  0
  -26.0933  -27.8938   21.2249 N   0  0  0  0  0  0  0  0  0  0  0  0
  -22.3639  -26.6611   25.1958 N   0  0  0  0  0  0  0  0  0  0  0  0
  -19.8796  -24.8445   20.9322 N   0  0  0  0  0  0  0  0  0  0  0  0
  -25.0985  -28.6932   20.8038 N   0  0  0  0  0  0  0  0  0  0  0  0
  -23.3934  -29.4578   24.1400 N   0  0  0  0  0  0  0  0  0  0  0  0
  -25.7055  -18.0861   22.5587 N   0  0  0  0  0  0  0  0  0  0  0  0
  -23.9884  -29.4619   18.8577 N   0  0  0  0  0  0  0  0  0  0  0  0
  -25.4302  -26.4874   16.9958 N   0  0  0  0  0  0  0  0  0  0  0  0
  -25.5847  -15.3851   20.5439 N   0  0  0  0  0  0  0  0  0  0  0  0
  -26.4315  -18.4221   25.8479 N   0  0  0  0  0  0  0  0  0  0  0  0
  -28.4130  -21.1534   26.3918 N   0  3  0  0  0  0  0  0  0  0  0  0
  -26.9133  -28.2307   16.8536 O   0  0  0  0  0  0  0  0  0  0  0  0
  -21.6365  -29.5635   25.6987 O   0  0  0  0  0  0  0  0  0  0  0  0
  -24.0334  -17.1194   20.4542 O   0  0  0  0  0  0  0  0  0  0  0  0
  -26.9926  -16.5511   23.7518 O   0  0  0  0  0  0  0  0  0  0  0  0
  -25.5207  -20.5545   25.8319 O   0  0  0  0  0  0  0  0  0  0  0  0
  -30.8679  -23.8038   20.2135 O   0  0  0  0  0  0  0  0  0  0  0  0
  -22.5898  -22.8182   20.1191 O   0  0  0  0  0  0  0  0  0  1  0  0
  -29.7711  -18.4763   19.3087 F   0  0  0  0  0  0  0  0  0  0  0  0
  -18.0229  -29.1324   21.9494 F   0  0  0  0  0  0  0  0  0  0  0  0
  -31.4418  -21.8927   22.1269 F   0  0  0  0  0  0  0  0  0  0  0  0
  1  2  1  0  0  0  0
  1  5  2  0  0  0  0
  2  6  2  0  0  0  0
  3  8  2  0  0  0  0
  3 17  1  0  0  0  0
  4  9  1  0  0  0  0
  4 17  2  0  0  0  0
  5 20  1  0  0  0  0
  6 22  1  0  0  0  0
  7 10  2  0  0  0  0
  7 21  1  0  0  0  0
  8 26  1  0  0  0  0
  9 26  2  0  0  0  0
 10 27  1  0  0  0  0
 11 12  2  0  0  0  0
 11 28  1  0  0  0  0
 12 29  1  0  0  0  0
 13 18  1  0  0  0  0
 13 30  2  0  0  0  0
 14 23  1  0  0  0  0
 14 27  2  0  0  0  0
 15 25  2  0  0  0  0
 15 30  1  0  0  0  0
 16 29  2  0  0  0  0
 16 31  1  0  0  0  0
 17 32  1  0  0  0  0
 18 24  2  0  0  0  0
 18 35  1  0  0  0  0
 19 32  1  0  0  0  0
 19 33  2  0  0  0  0
 19 36  1  0  0  0  0
 20 22  2  0  0  0  0
 20 41  1  0  0  0  0
 21 23  2  0  0  0  0
 21 42  1  0  0  0  0
 22 50  1  0  0  0  0
 23 43  1  0  0  0  0
 24 25  1  0  0  0  0
 24 59  1  0  0  0  0
 25 67  1  0  0  0  0
 26 81  1  0  0  0  0
 27 82  1  0  0  0  0
 28 31  2  0  0  0  0
 28 81  1  0  0  0  0
 29 83  1  0  0  0  0
 30 84  1  0  0  0  0
 31 85  1  0  0  0  0
 32 65  2  0  0  0  0
 33 68  1  0  0  0  0
 33 71  1  0  0  0  0
 34 60  1  0  0  0  0
 34 67  2  0  0  0  0
 35 37  1  0  0  0  0
 35 66  2  0  0  0  0
 36 72  1  0  0  0  0
 36 76  2  0  0  0  0
 37 69  1  0  0  0  0
 37 77  2  0  0  0  0
 38 51  1  0  0  0  0
 38 73  1  0  0  0  0
 38 78  2  0  0  0  0
 39 62  1  0  0  0  0
 39 70  1  0  0  0  0
 39 79  2  0  0  0  0
 40 63  1  0  0  0  0
 40 74  1  0  0  0  0
 40 80  2  0  0  0  0
 41 44  1  0  0  0  0
 42 51  1  0  0  0  0
 43 70  1  0  0  0  0
 44 46  1  0  0  0  0
 45 47  1  0  0  0  0
 45 48  1  0  0  0  0
 46 50  1  0  0  0  0
 47 52  1  0  0  0  0
 48 69  1  0  0  0  0
 49 52  1  0  0  0  0
 49 69  1  0  0  0  0
 50 73  1  0  0  0  0
 51 70  1  0  0  0  0
 52 68  1  0  0  0  0
 53 59  1  0  0  0  0
 54 63  1  0  0  0  0
 55 64  1  0  0  0  0
 56 64  1  0  0  0  0
 57 64  1  0  0  0  0
 58 75  1  0  0  0  0
 60 61  1  0  0  0  0
 61 82  1  0  0  0  0
 62 64  1  0  0  0  0
 62 74  1  0  0  0  0
 63 75  1  0  0  0  0
 65 68  1  0  0  0  0
M  CHG  1  75   1
M  ISO  4  35 100  37 100  61 101  82 101
M  END
> <Batch ID>
0115

> <Smiles>
CCc1c(NC=C[101CH2:1][101O:1]c2ccc3c(c2)CN(C(=O)C(NC(=O)C(C)NC)C(C)(C)C)C(C(=O)NC2CCCc4ccccc42)C3)cc(F)cc1[100C:0](=N)[100C:0](=O)N1CCCC(n2nc(-c3ccc(Oc4ccc(F)cc4F)cc3)c(C(N)=O)c2N)C1

> <Shape>
0.203

> <Color>
0.062

> <Negative vol penalty>
0.000

$$$$

  -OEChem-04052301403D

 84 92  0     1  0  0  0  0  0999 V2000
  -22.0218   -8.6041   20.6634 C   0  0  0  0  0  0  0  0  0  0  0  0
  -21.8172   -9.9544   20.9284 C   0  0  0  0  0  0  0  0  0  0  0  0
  -29.6409  -27.5166   20.2828 C   0  0  0  0  0  0  0  0  0  0  0  0
  -27.7414  -26.5945   19.1087 C   0  0  0  0  0  0  0  0  0  0  0  0
  -23.2738   -8.0329   20.8872 C   0  0  0  0  0  0  0  0  0  0  0  0
  -22.8643  -10.7341   21.4184 C   0  0  0  0  0  0  0  0  0  0  0  0
  -23.9500  -16.6341   20.1869 C   0  0  0  0  0  0  0  0  0  0  0  0
  -30.4104  -26.4177   19.9011 C   0  0  0  0  0  0  0  0  0  0  0  0
  -28.5109  -25.4955   18.7269 C   0  0  0  0  0  0  0  0  0  0  0  0
  -23.6650  -17.8062   20.8861 C   0  0  0  0  0  0  0  0  0  0  0  0
  -29.6128  -22.6200   20.1228 C   0  0  0  0  0  0  0  0  0  0  0  0
  -29.0411  -21.3539   20.2475 C   0  0  0  0  0  0  0  0  0  0  0  0
  -25.8878  -17.7807   21.8229 C   0  0  0  0  0  0  0  0  0  0  0  0
  -22.2830  -26.0064   24.0996 C   0  0  0  0  0  0  0  0  0  0  0  0
  -29.3000  -21.0030   17.8711 C   0  0  0  0  0  0  0  0  0  0  0  0
  -28.3063  -27.6050   19.8867 C   0  0  0  0  0  0  0  0  0  0  0  0
  -27.3537  -29.9519   19.5828 C   0  0  0  0  0  0  0  0  0  0  0  0
  -24.3394   -8.8081   21.3711 C   0  0  0  0  0  0  0  0  0  0  0  0
  -25.2045  -16.0196   20.3091 C   0  0  0  0  0  0  0  0  0  0  0  0
  -24.1314  -10.1724   21.6501 C   0  0  0  0  0  0  0  0  0  0  0  0
  -26.1871  -16.6023   21.1222 C   0  0  0  0  0  0  0  0  0  0  0  0
  -29.8454  -25.4071   19.1231 C   0  0  0  0  0  0  0  0  0  0  0  0
  -24.6330  -18.3780   21.7065 C   0  0  0  0  0  0  0  0  0  0  0  0
  -30.0280  -23.0777   18.8722 C   0  0  0  0  0  0  0  0  0  0  0  0
  -22.0584  -24.6749   23.6448 C   0  0  0  0  0  0  0  0  0  0  0  0
  -28.8847  -20.5453   19.1217 C   0  0  0  0  0  0  0  0  0  0  0  0
  -29.8716  -22.2692   17.7464 C   0  0  0  0  0  0  0  0  0  0  0  0
  -27.5108  -28.7397   20.2811 C   0  0  0  0  0  0  0  0  0  0  0  0
  -21.7739  -26.9437   23.2279 C   0  0  0  0  0  0  0  0  0  0  0  0
  -21.3860  -24.6452   22.4428 C   0  0  0  0  0  0  0  0  0  0  0  0
  -26.5065  -30.6938   20.3690 C   0  0  0  0  0  0  0  0  0  0  0  0
  -24.4498  -21.6223   25.1421 C   0  0  0  0  0  0  0  0  0  0  0  0
  -24.1332  -20.4450   24.5834 C   0  0  0  0  0  0  0  0  0  0  0  0
  -27.9228  -30.3698   18.3349 C   0  0  0  0  0  0  0  0  0  0  0  0
  -21.7998  -28.3667   23.3286 C   0  0  0  0  0  0  0  0  0  0  0  0
  -22.4266  -29.0670   24.4732 C   0  0  0  0  0  0  0  0  0  0  0  0
  -26.2285  -13.2011   21.3633 C   0  0  0  0  0  0  0  0  0  0  0  0
  -29.0865  -14.2631   20.2561 C   0  0  0  0  0  0  0  0  0  0  0  0
  -31.0707  -16.9152   19.4338 C   0  0  0  0  0  0  0  0  0  0  0  0
  -25.6619   -8.1356   21.6422 C   0  0  0  0  0  0  0  0  0  0  0  0
  -25.5053  -14.7703   19.5274 C   0  0  0  0  0  0  0  0  0  0  0  0
  -27.5564  -15.9930   21.2718 C   0  0  0  0  0  0  0  0  0  0  0  0
  -26.8207   -9.1154   21.8080 C   0  0  0  0  0  0  0  0  0  0  0  0
  -25.1830  -31.3173   24.9152 C   0  0  0  0  0  0  0  0  0  0  0  0
  -26.4244  -10.2587   22.7367 C   0  0  0  0  0  0  0  0  0  0  0  0
  -26.0962  -30.9933   23.7333 C   0  0  0  0  0  0  0  0  0  0  0  0
  -24.4652  -30.0713   25.4240 C   0  0  0  0  0  0  0  0  0  0  0  0
  -24.6018  -29.0216   23.1817 C   0  0  0  0  0  0  0  0  0  0  0  0
  -25.2492  -11.0566   22.1589 C   0  0  1  0  0  0  0  0  0  0  0  0
  -26.6423  -13.9490   20.1276 C   0  0  1  0  0  0  0  0  0  0  0  0
  -25.3229  -30.2605   22.6226 C   0  0  2  0  0  0  0  0  0  0  0  0
  -20.9639  -23.4729   21.6440 C   0  0  0  0  0  0  0  0  0  0  0  0
  -33.0708  -18.1371   18.5371 C   0  0  0  0  0  0  0  0  0  0  0  0
  -30.2380  -13.6620   23.0170 C   0  0  0  0  0  0  0  0  0  0  0  0
  -32.2126  -15.0834   22.4262 C   0  0  0  0  0  0  0  0  0  0  0  0
  -31.7209  -13.0243   21.1068 C   0  0  0  0  0  0  0  0  0  0  0  0
  -29.9487  -16.9799   16.6960 C   0  0  0  0  0  0  0  0  0  0  0  0
  -23.5550  -22.3646   26.0943 C   0  0  0  0  0  0  0  0  0  0  0  0
  -25.0267  -19.7106   23.6366 C   0  0  0  0  0  0  0  0  0  1  0  0
  -23.1383  -23.7203   25.5365 C   0  0  0  0  0  0  0  0  0  0  0  0
  -30.2335  -15.0514   20.8408 C   0  0  1  0  0  0  0  0  0  0  0  0
  -31.9241  -17.1934   18.2096 C   0  0  2  0  0  0  0  0  0  0  0  0
  -31.0749  -14.2160   21.8466 C   0  0  0  0  0  0  0  0  0  0  0  0
  -26.8189  -28.7093   21.4233 N   0  0  0  0  0  0  0  0  0  0  0  0
  -21.2812  -29.1858   22.4312 N   0  0  0  0  0  0  0  0  0  0  0  0
  -26.2190  -29.9116   21.4486 N   0  0  0  0  0  0  0  0  0  0  0  0
  -23.7719  -29.3804   24.3386 N   0  0  0  0  0  0  0  0  0  0  0  0
  -27.8000  -14.7682   20.4919 N   0  0  0  0  0  0  0  0  0  0  0  0
  -25.9868  -31.9326   20.2352 N   0  0  0  0  0  0  0  0  0  0  0  0
  -28.7722  -29.4840   17.6579 N   0  0  0  0  0  0  0  0  0  0  0  0
  -25.7076  -11.9459   21.1132 N   0  0  0  0  0  0  0  0  0  0  0  0
  -30.9948  -15.5660   19.7077 N   0  0  0  0  0  0  0  0  0  0  0  0
  -31.0996  -17.8114   17.1330 N   0  3  0  0  0  0  0  0  0  0  0  0
  -27.6981  -31.5017   17.8430 O   0  0  0  0  0  0  0  0  0  0  0  0
  -21.6866  -29.2952   25.4212 O   0  0  0  0  0  0  0  0  0  0  0  0
  -26.3725  -13.7235   22.4624 O   0  0  0  0  0  0  0  0  0  0  0  0
  -29.3237  -13.2409   19.6077 O   0  0  0  0  0  0  0  0  0  0  0  0
  -30.5289  -17.8061   20.0845 O   0  0  0  0  0  0  0  0  0  0  0  0
  -30.5961  -24.3347   18.7502 O   0  0  0  0  0  0  0  0  0  0  0  0
  -24.3572  -19.5216   22.3907 O   0  0  0  0  0  0  0  0  0  1  0  0
  -22.4528  -23.5400   24.3040 O   0  0  0  0  0  0  0  0  0  0  0  0
  -28.3371  -19.3288   19.2418 F   0  0  0  0  0  0  0  0  0  0  0  0
  -30.2697  -22.7030   16.5426 F   0  0  0  0  0  0  0  0  0  0  0  0
  -21.0287  -26.2180   21.8676 S   0  0  0  0  0  0  0  0  0  0  0  0
  1  2  1  0  0  0  0
  1  5  2  0  0  0  0
  2  6  2  0  0  0  0
  3  8  2  0  0  0  0
  3 16  1  0  0  0  0
  4  9  1  0  0  0  0
  4 16  2  0  0  0  0
  5 18  1  0  0  0  0
  6 20  1  0  0  0  0
  7 10  2  0  0  0  0
  7 19  1  0  0  0  0
  8 22  1  0  0  0  0
  9 22  2  0  0  0  0
 10 23  1  0  0  0  0
 11 12  2  0  0  0  0
 11 24  1  0  0  0  0
 12 26  1  0  0  0  0
 13 21  1  0  0  0  0
 13 23  2  0  0  0  0
 14 25  1  0  0  0  0
 14 29  2  0  0  0  0
 15 26  2  0  0  0  0
 15 27  1  0  0  0  0
 16 28  1  0  0  0  0
 17 28  1  0  0  0  0
 17 31  2  0  0  0  0
 17 34  1  0  0  0  0
 18 20  2  0  0  0  0
 18 40  1  0  0  0  0
 19 21  2  0  0  0  0
 19 41  1  0  0  0  0
 20 49  1  0  0  0  0
 21 42  1  0  0  0  0
 22 79  1  0  0  0  0
 23 80  1  0  0  0  0
 24 27  2  0  0  0  0
 24 79  1  0  0  0  0
 25 30  2  0  0  0  0
 25 81  1  0  0  0  0
 26 82  1  0  0  0  0
 27 83  1  0  0  0  0
 28 64  2  0  0  0  0
 29 35  1  0  0  0  0
 29 84  1  0  0  0  0
 30 52  1  0  0  0  0
 30 84  1  0  0  0  0
 31 66  1  0  0  0  0
 31 69  1  0  0  0  0
 32 33  2  0  0  0  0
 32 58  1  0  0  0  0
 33 59  1  0  0  0  0
 34 70  1  0  0  0  0
 34 74  2  0  0  0  0
 35 36  1  0  0  0  0
 35 65  2  0  0  0  0
 36 67  1  0  0  0  0
 36 75  2  0  0  0  0
 37 50  1  0  0  0  0
 37 71  1  0  0  0  0
 37 76  2  0  0  0  0
 38 61  1  0  0  0  0
 38 68  1  0  0  0  0
 38 77  2  0  0  0  0
 39 62  1  0  0  0  0
 39 72  1  0  0  0  0
 39 78  2  0  0  0  0
 40 43  1  0  0  0  0
 41 50  1  0  0  0  0
 42 68  1  0  0  0  0
 43 45  1  0  0  0  0
 44 46  1  0  0  0  0
 44 47  1  0  0  0  0
 45 49  1  0  0  0  0
 46 51  1  0  0  0  0
 47 67  1  0  0  0  0
 48 51  1  0  0  0  0
 48 67  1  0  0  0  0
 49 71  1  0  0  0  0
 50 68  1  0  0  0  0
 51 66  1  0  0  0  0
 53 62  1  0  0  0  0
 54 63  1  0  0  0  0
 55 63  1  0  0  0  0
 56 63  1  0  0  0  0
 57 73  1  0  0  0  0
 58 60  1  0  0  0  0
 59 80  1  0  0  0  0
 60 81  1  0  0  0  0
 61 63  1  0  0  0  0
 61 72  1  0  0  0  0
 62 73  1  0  0  0  0
 64 66  1  0  0  0  0
M  CHG  1  73   1
M  ISO  4  35 100  36 100  59 101  80 101
M  END
> <Batch ID>
0115

> <Smiles>
CNC(C)C(=O)NC(C(=O)N1Cc2cc([101O:1][101CH2:1]C=CCCOc3cc([100C:0](=N)[100C:0](=O)N4CCCC(n5nc(-c6ccc(Oc7ccc(F)cc7F)cc6)c(C(N)=O)c5N)C4)sc3C)ccc2CC1C(=O)NC1CCCc2ccccc21)C(C)(C)C

> <Shape>
0.278

> <Color>
0.060

> <Negative vol penalty>
0.000

$$$$

  -OEChem-04052301403D

 87 95  0     1  0  0  0  0  0999 V2000
  -27.5672  -31.0986   27.3141 C   0  0  0  0  0  0  0  0  0  0  0  0
  -28.1782  -30.2319   26.4137 C   0  0  0  0  0  0  0  0  0  0  0  0
  -22.6395  -10.6410   20.9203 C   0  0  0  0  0  0  0  0  0  0  0  0
  -24.5829   -9.3296   21.5036 C   0  0  0  0  0  0  0  0  0  0  0  0
  -26.1763  -31.1512   27.3949 C   0  0  0  0  0  0  0  0  0  0  0  0
  -27.3986  -29.4163   25.5942 C   0  0  0  0  0  0  0  0  0  0  0  0
  -28.6442  -27.7056   19.8472 C   0  0  0  0  0  0  0  0  0  0  0  0
  -21.8492   -9.4927   20.9715 C   0  0  0  0  0  0  0  0  0  0  0  0
  -23.7927   -8.1813   21.5548 C   0  0  0  0  0  0  0  0  0  0  0  0
  -29.1946  -26.5411   19.3136 C   0  0  0  0  0  0  0  0  0  0  0  0
  -21.6232   -6.7469   23.7127 C   0  0  0  0  0  0  0  0  0  0  0  0
  -21.8030   -5.8861   24.7953 C   0  0  0  0  0  0  0  0  0  0  0  0
  -29.9371  -16.9265   22.8454 C   0  0  0  0  0  0  0  0  0  0  0  0
  -30.1267  -17.2727   20.0837 C   0  0  0  0  0  0  0  0  0  0  0  0
  -26.9760  -25.6928   18.8922 C   0  0  0  0  0  0  0  0  0  0  0  0
  -22.4030   -4.1037   23.2786 C   0  0  0  0  0  0  0  0  0  0  0  0
  -24.0063  -10.5594   21.1863 C   0  0  0  0  0  0  0  0  0  0  0  0
  -30.3068  -15.8554   22.0320 C   0  0  0  0  0  0  0  0  0  0  0  0
  -30.4016  -16.0285   20.6512 C   0  0  0  0  0  0  0  0  0  0  0  0
  -25.1047  -12.6317   22.1896 C   0  0  0  0  0  0  0  0  0  0  0  0
  -25.3791  -30.3428   26.5692 C   0  0  0  0  0  0  0  0  0  0  0  0
  -27.2531  -27.8681   19.9175 C   0  0  0  0  0  0  0  0  0  0  0  0
  -25.9957  -29.4571   25.6650 C   0  0  0  0  0  0  0  0  0  0  0  0
  -26.4105  -26.8614   19.4248 C   0  0  0  0  0  0  0  0  0  0  0  0
  -22.4258   -8.2629   21.2888 C   0  0  0  0  0  0  0  0  0  0  0  0
  -28.3604  -25.5333   18.8386 C   0  0  0  0  0  0  0  0  0  0  0  0
  -21.8332   -6.2861   22.4129 C   0  0  0  0  0  0  0  0  0  0  0  0
  -29.6622  -18.1708   22.2780 C   0  0  0  0  0  0  0  0  0  0  0  0
  -29.7570  -18.3439   20.8972 C   0  0  0  0  0  0  0  0  0  0  0  0
  -22.1929   -4.5645   24.5783 C   0  0  0  0  0  0  0  0  0  0  0  0
  -22.2231   -4.9646   22.1959 C   0  0  0  0  0  0  0  0  0  0  0  0
  -24.8233  -11.7451   21.1330 C   0  0  0  0  0  0  0  0  0  0  0  0
  -25.9180  -13.5863   21.6295 C   0  0  0  0  0  0  0  0  0  0  0  0
  -31.5156  -14.3938   23.5869 C   0  0  0  0  0  0  0  0  0  0  0  0
  -30.5871  -14.5699   22.6592 C   0  0  0  0  0  0  0  0  0  0  0  0
  -30.2605  -22.4901   18.6981 C   0  0  0  0  0  0  0  0  0  0  0  0
  -30.4263  -21.6557   19.7347 C   0  0  0  0  0  0  0  0  0  0  0  0
  -30.7831  -14.9337   19.7664 C   0  0  0  0  0  0  0  0  0  0  0  0
  -24.6699  -12.5956   23.5554 C   0  0  0  0  0  0  0  0  0  0  0  0
  -30.2842  -14.8621   18.3738 C   0  0  0  0  0  0  0  0  0  0  0  0
  -25.1556  -28.2508   22.2750 C   0  0  0  0  0  0  0  0  0  0  0  0
  -23.0715  -28.6829   19.8271 C   0  0  0  0  0  0  0  0  0  0  0  0
  -22.2957  -28.1279   16.5504 C   0  0  0  0  0  0  0  0  0  0  0  0
  -23.8801  -30.4003   26.7258 C   0  0  0  0  0  0  0  0  0  0  0  0
  -26.6754  -29.1416   20.4714 C   0  0  0  0  0  0  0  0  0  0  0  0
  -24.9107  -26.9956   19.4588 C   0  0  0  0  0  0  0  0  0  0  0  0
  -23.1213  -29.7746   25.5584 C   0  0  0  0  0  0  0  0  0  0  0  0
  -27.0787  -14.5195   16.8042 C   0  0  0  0  0  0  0  0  0  0  0  0
  -23.7258  -28.4230   25.1919 C   0  0  0  0  0  0  0  0  0  0  0  0
  -26.2412  -13.8046   17.8641 C   0  0  0  0  0  0  0  0  0  0  0  0
  -28.5327  -14.0602   16.8383 C   0  0  0  0  0  0  0  0  0  0  0  0
  -28.3440  -13.4914   19.2444 C   0  0  0  0  0  0  0  0  0  0  0  0
  -25.1839  -28.5746   24.7418 C   0  0  1  0  0  0  0  0  0  0  0  0
  -25.2407  -28.9818   20.9650 C   0  0  1  0  0  0  0  0  0  0  0  0
  -26.8752  -13.9495   19.2590 C   0  0  2  0  0  0  0  0  0  0  0  0
  -20.5074  -28.5723   14.8469 C   0  0  0  0  0  0  0  0  0  0  0  0
  -21.3351  -26.5136   21.0877 C   0  0  0  0  0  0  0  0  0  0  0  0
  -20.1037  -26.3345   18.9153 C   0  0  0  0  0  0  0  0  0  0  0  0
  -20.0681  -28.4759   20.1942 C   0  0  0  0  0  0  0  0  0  0  0  0
  -24.1534  -29.6597   14.8295 C   0  0  0  0  0  0  0  0  0  0  0  0
  -30.3511  -20.0308   23.5901 C   0  0  0  0  0  0  0  0  0  0  0  0
  -30.1560  -23.9738   18.8362 C   0  0  0  0  0  0  0  0  0  1  0  0
  -30.5426  -20.1729   19.5959 C   0  0  0  0  0  0  0  0  0  0  0  0
  -22.1867  -27.7782   19.0040 C   0  0  1  0  0  0  0  0  0  0  0  0
  -21.8106  -29.0634   15.4577 C   0  0  2  0  0  0  0  0  0  0  0  0
  -20.9516  -27.2719   19.8013 C   0  0  0  0  0  0  0  0  0  0  0  0
  -25.4100  -12.1045   19.9882 N   0  0  0  0  0  0  0  0  0  0  0  0
  -31.5742  -13.9645   20.1322 N   0  0  0  0  0  0  0  0  0  0  0  0
  -26.0681  -13.2276   20.3222 N   0  0  0  0  0  0  0  0  0  0  0  0
  -29.0925  -14.1769   18.1834 N   0  0  0  0  0  0  0  0  0  0  0  0
  -24.3939  -28.2567   20.0156 N   0  0  0  0  0  0  0  0  0  0  0  0
  -26.5121  -14.6892   22.1325 N   0  0  0  0  0  0  0  0  0  0  0  0
  -23.8373  -11.5448   23.9640 N   0  0  0  0  0  0  0  0  0  0  0  0
  -25.2446  -29.0708   23.3837 N   0  0  0  0  0  0  0  0  0  0  0  0
  -21.8530  -28.5233   17.7950 N   0  0  0  0  0  0  0  0  0  0  0  0
  -22.8284  -29.1658   14.3740 N   0  3  0  0  0  0  0  0  0  0  0  0
  -24.9963  -13.4783   24.3848 O   0  0  0  0  0  0  0  0  0  0  0  0
  -30.9810  -15.4181   17.5349 O   0  0  0  0  0  0  0  0  0  0  0  0
  -25.0179  -27.0331   22.2796 O   0  0  0  0  0  0  0  0  0  0  0  0
  -22.6085  -29.7328   20.2800 O   0  0  0  0  0  0  0  0  0  0  0  0
  -22.9941  -27.1427   16.3223 O   0  0  0  0  0  0  0  0  0  0  0  0
  -21.6550   -7.1422   21.3391 O   0  0  0  0  0  0  0  0  0  0  0  0
  -29.3015  -19.2095   23.0826 O   0  0  0  0  0  0  0  0  0  0  0  0
  -28.8950  -24.3953   18.3179 O   0  0  0  0  0  0  0  0  0  1  0  0
  -29.4893  -19.5618   20.3277 O   0  0  0  0  0  0  0  0  0  0  0  0
  -22.3670   -3.7384   25.6182 F   0  0  0  0  0  0  0  0  0  0  0  0
  -22.4275   -4.5166   20.9496 F   0  0  0  0  0  0  0  0  0  0  0  0
  1  2  1  0  0  0  0
  1  5  2  0  0  0  0
  2  6  2  0  0  0  0
  3  8  2  0  0  0  0
  3 17  1  0  0  0  0
  4  9  1  0  0  0  0
  4 17  2  0  0  0  0
  5 21  1  0  0  0  0
  6 23  1  0  0  0  0
  7 10  2  0  0  0  0
  7 22  1  0  0  0  0
  8 25  1  0  0  0  0
  9 25  2  0  0  0  0
 10 26  1  0  0  0  0
 11 12  2  0  0  0  0
 11 27  1  0  0  0  0
 12 30  1  0  0  0  0
 13 18  1  0  0  0  0
 13 28  2  0  0  0  0
 14 19  1  0  0  0  0
 14 29  2  0  0  0  0
 15 24  1  0  0  0  0
 15 26  2  0  0  0  0
 16 30  2  0  0  0  0
 16 31  1  0  0  0  0
 17 32  1  0  0  0  0
 18 19  2  0  0  0  0
 18 35  1  0  0  0  0
 19 38  1  0  0  0  0
 20 32  1  0  0  0  0
 20 33  2  0  0  0  0
 20 39  1  0  0  0  0
 21 23  2  0  0  0  0
 21 44  1  0  0  0  0
 22 24  2  0  0  0  0
 22 45  1  0  0  0  0
 23 53  1  0  0  0  0
 24 46  1  0  0  0  0
 25 82  1  0  0  0  0
 26 84  1  0  0  0  0
 27 31  2  0  0  0  0
 27 82  1  0  0  0  0
 28 29  1  0  0  0  0
 28 83  1  0  0  0  0
 29 85  1  0  0  0  0
 30 86  1  0  0  0  0
 31 87  1  0  0  0  0
 32 67  2  0  0  0  0
 33 69  1  0  0  0  0
 33 72  1  0  0  0  0
 34 35  2  0  0  0  0
 36 37  2  0  0  0  0
 36 62  1  0  0  0  0
 37 63  1  0  0  0  0
 38 40  1  0  0  0  0
 38 68  2  0  0  0  0
 39 73  1  0  0  0  0
 39 77  2  0  0  0  0
 40 70  1  0  0  0  0
 40 78  2  0  0  0  0
 41 54  1  0  0  0  0
 41 74  1  0  0  0  0
 41 79  2  0  0  0  0
 42 64  1  0  0  0  0
 42 71  1  0  0  0  0
 42 80  2  0  0  0  0
 43 65  1  0  0  0  0
 43 75  1  0  0  0  0
 43 81  2  0  0  0  0
 44 47  1  0  0  0  0
 45 54  1  0  0  0  0
 46 71  1  0  0  0  0
 47 49  1  0  0  0  0
 48 50  1  0  0  0  0
 48 51  1  0  0  0  0
 49 53  1  0  0  0  0
 50 55  1  0  0  0  0
 51 70  1  0  0  0  0
 52 55  1  0  0  0  0
 52 70  1  0  0  0  0
 53 74  1  0  0  0  0
 54 71  1  0  0  0  0
 55 69  1  0  0  0  0
 56 65  1  0  0  0  0
 57 66  1  0  0  0  0
 58 66  1  0  0  0  0
 59 66  1  0  0  0  0
 60 76  1  0  0  0  0
 61 83  1  0  0  0  0
 62 84  1  0  0  0  0
 63 85  1  0  0  0  0
 64 66  1  0  0  0  0
 64 75  1  0  0  0  0
 65 76  1  0  0  0  0
 67 69  1  0  0  0  0
M  CHG  1  76   1
M  ISO  4  38 100  40 100  62 101  84 101
M  END
> <Batch ID>
0115

> <Smiles>
C=Cc1cc(OC)c(OCC=C[101CH2:1][101O:1]c2ccc3c(c2)CN(C(=O)C(NC(=O)C(C)NC)C(C)(C)C)C(C(=O)NC2CCCc4ccccc42)C3)cc1[100C:0](=N)[100C:0](=O)N1CCCC(n2nc(-c3ccc(Oc4ccc(F)cc4F)cc3)c(C(N)=O)c2N)C1

> <Shape>
0.305

> <Color>
0.115

> <Negative vol penalty>
0.000

$$$$

  -OEChem-04052301403D

 89 97  0     1  0  0  0  0  0999 V2000
  -26.6466  -34.4897   21.0950 C   0  0  0  0  0  0  0  0  0  0  0  0
  -27.1502  -33.2167   21.3425 C   0  0  0  0  0  0  0  0  0  0  0  0
  -23.8769   -9.7416   21.6805 C   0  0  0  0  0  0  0  0  0  0  0  0
  -24.4334  -10.9640   23.6888 C   0  0  0  0  0  0  0  0  0  0  0  0
  -25.3311  -34.7969   21.4399 C   0  0  0  0  0  0  0  0  0  0  0  0
  -26.3388  -32.2504   21.9361 C   0  0  0  0  0  0  0  0  0  0  0  0
  -26.6999  -27.7430   19.6562 C   0  0  0  0  0  0  0  0  0  0  0  0
  -23.3848   -8.6917   22.4558 C   0  0  0  0  0  0  0  0  0  0  0  0
  -23.9412   -9.9141   24.4641 C   0  0  0  0  0  0  0  0  0  0  0  0
  -27.8224  -26.9696   19.9487 C   0  0  0  0  0  0  0  0  0  0  0  0
  -20.5757   -7.9882   24.2014 C   0  0  0  0  0  0  0  0  0  0  0  0
  -19.3528   -7.4278   23.8325 C   0  0  0  0  0  0  0  0  0  0  0  0
  -26.5129  -25.6663   21.4998 C   0  0  0  0  0  0  0  0  0  0  0  0
  -30.9543  -18.7614   20.6057 C   0  0  0  0  0  0  0  0  0  0  0  0
  -20.4251   -5.2832   23.5358 C   0  0  0  0  0  0  0  0  0  0  0  0
  -24.4013  -10.8777   22.2969 C   0  0  0  0  0  0  0  0  0  0  0  0
  -28.6124  -19.3143   20.8214 C   0  0  0  0  0  0  0  0  0  0  0  0
  -24.1931  -13.0752   21.0181 C   0  0  0  0  0  0  0  0  0  0  0  0
  -24.5002  -33.8311   22.0292 C   0  0  0  0  0  0  0  0  0  0  0  0
  -25.4760  -27.4903   20.2925 C   0  0  0  0  0  0  0  0  0  0  0  0
  -25.0113  -32.5454   22.2904 C   0  0  0  0  0  0  0  0  0  0  0  0
  -25.3757  -26.4362   21.2117 C   0  0  0  0  0  0  0  0  0  0  0  0
  -30.2953  -20.9873   21.2751 C   0  0  0  0  0  0  0  0  0  0  0  0
  -29.6128  -18.3880   20.5265 C   0  0  0  0  0  0  0  0  0  0  0  0
  -23.4169   -8.7780   23.8476 C   0  0  0  0  0  0  0  0  0  0  0  0
  -27.7298  -25.9330   20.8727 C   0  0  0  0  0  0  0  0  0  0  0  0
  -21.7233   -7.1961   24.2374 C   0  0  0  0  0  0  0  0  0  0  0  0
  -28.9537  -20.6140   21.1958 C   0  0  0  0  0  0  0  0  0  0  0  0
  -19.2775   -6.0753   23.4998 C   0  0  0  0  0  0  0  0  0  0  0  0
  -31.2956  -20.0611   20.9802 C   0  0  0  0  0  0  0  0  0  0  0  0
  -21.6480   -5.8436   23.9047 C   0  0  0  0  0  0  0  0  0  0  0  0
  -24.9103  -11.9623   21.4965 C   0  0  0  0  0  0  0  0  0  0  0  0
  -25.1209  -13.8061   20.3171 C   0  0  0  0  0  0  0  0  0  0  0  0
  -27.2042  -18.9336   20.7414 C   0  0  0  0  0  0  0  0  0  0  0  0
  -30.7710  -23.1436   20.6844 C   0  0  0  0  0  0  0  0  0  0  0  0
  -22.8117  -13.4177   21.1919 C   0  0  0  0  0  0  0  0  0  0  0  0
  -26.4140  -19.0248   19.6507 C   0  0  0  0  0  0  0  0  0  0  0  0
  -23.5673  -29.1450   22.2218 C   0  0  0  0  0  0  0  0  0  0  0  0
  -21.6044  -26.5924   21.8294 C   0  0  0  0  0  0  0  0  0  0  0  0
  -21.2739  -23.2814   21.0715 C   0  0  0  0  0  0  0  0  0  0  0  0
  -30.1967  -16.0409   19.8219 C   0  0  0  0  0  0  0  0  0  0  0  0
  -23.0997  -34.2240   22.4278 C   0  0  0  0  0  0  0  0  0  0  0  0
  -24.2678  -28.3166   19.9461 C   0  0  0  0  0  0  0  0  0  0  0  0
  -24.0799  -26.1111   21.9071 C   0  0  0  0  0  0  0  0  0  0  0  0
  -22.1896  -33.0315   22.7105 C   0  0  0  0  0  0  0  0  0  0  0  0
  -29.8257  -12.6314   18.8654 C   0  0  0  0  0  0  0  0  0  0  0  0
  -22.9010  -32.0159   23.5989 C   0  0  0  0  0  0  0  0  0  0  0  0
  -28.4548  -12.2449   19.4253 C   0  0  0  0  0  0  0  0  0  0  0  0
  -30.5710  -13.5844   19.7981 C   0  0  0  0  0  0  0  0  0  0  0  0
  -28.4490  -14.3975   20.7495 C   0  0  0  0  0  0  0  0  0  0  0  0
  -24.1545  -31.4628   22.9101 C   0  0  1  0  0  0  0  0  0  0  0  0
  -23.1999  -28.2993   21.0354 C   0  0  1  0  0  0  0  0  0  0  0  0
  -27.6335  -13.4899   19.8142 C   0  0  2  0  0  0  0  0  0  0  0  0
  -24.9686  -18.6102   19.7191 C   0  0  0  0  0  0  0  0  0  0  0  0
  -26.8587  -19.5104   18.2982 C   0  0  0  0  0  0  0  0  0  0  0  0
  -32.4643  -24.8812   20.2595 C   0  0  0  0  0  0  0  0  0  0  0  0
  -19.5497  -21.4691   20.8707 C   0  0  0  0  0  0  0  0  0  0  0  0
  -21.4701  -26.3867   24.8707 C   0  0  0  0  0  0  0  0  0  0  0  0
  -20.5584  -24.0702   24.6041 C   0  0  0  0  0  0  0  0  0  0  0  0
  -19.2893  -26.0195   23.7029 C   0  0  0  0  0  0  0  0  0  0  0  0
  -21.8754  -22.8668   18.2035 C   0  0  0  0  0  0  0  0  0  0  0  0
  -27.5530  -21.6039   22.8432 C   0  0  0  0  0  0  0  0  0  0  0  0
  -30.0351  -25.5013   20.4788 C   0  0  0  0  0  0  0  0  0  1  0  0
  -31.1496  -24.5800   20.9681 C   0  0  1  0  0  0  0  0  0  0  0  0
  -21.4079  -25.2756   22.5410 C   0  0  1  0  0  0  0  0  0  0  0  0
  -20.3258  -22.5517   20.1370 C   0  0  2  0  0  0  0  0  0  0  0  0
  -20.7064  -25.4451   23.9182 C   0  0  0  0  0  0  0  0  0  0  0  0
  -26.1947  -11.9803   21.1303 N   0  0  0  0  0  0  0  0  0  0  0  0
  -30.6533  -22.2927   21.6513 N   0  0  0  0  0  0  0  0  0  0  0  0
  -26.2918  -13.1134   20.4142 N   0  0  0  0  0  0  0  0  0  0  0  0
  -22.9283  -26.9516   21.5394 N   0  0  0  0  0  0  0  0  0  0  0  0
  -29.7334  -14.7419   20.1197 N   0  0  0  0  0  0  0  0  0  0  0  0
  -25.0413  -14.9673   19.6333 N   0  0  0  0  0  0  0  0  0  0  0  0
  -21.9988  -12.5559   21.9408 N   0  0  0  0  0  0  0  0  0  0  0  0
  -29.3007  -17.0603   20.1425 N   0  0  0  0  0  0  0  0  0  0  0  0
  -23.7912  -30.4742   21.9176 N   0  0  0  0  0  0  0  0  0  0  0  0
  -20.6930  -24.4106   21.6088 N   0  0  0  0  0  0  0  0  0  0  0  0
  -21.0844  -21.9139   19.0240 N   0  3  0  0  0  0  0  0  0  0  0  0
  -22.3093  -14.4487   20.6839 O   0  0  0  0  0  0  0  0  0  0  0  0
  -23.6406  -28.6300   23.3314 O   0  0  0  0  0  0  0  0  0  0  0  0
  -20.6191  -27.2738   21.5352 O   0  0  0  0  0  0  0  0  0  0  0  0
  -22.4143  -22.8869   21.3046 O   0  0  0  0  0  0  0  0  0  0  0  0
  -31.2952  -16.2330   19.2943 O   0  0  0  0  0  0  0  0  0  0  0  0
  -22.9365   -7.7538   24.6045 O   0  0  0  0  0  0  0  0  0  0  0  0
  -27.9834  -21.5297   21.4871 O   0  0  0  0  0  0  0  0  0  0  0  0
  -28.8241  -25.1770   21.1606 O   0  0  0  0  0  0  0  0  0  1  0  0
  -18.1027   -5.5369   23.1471 F   0  0  0  0  0  0  0  0  0  0  0  0
  -32.5877  -20.4102   21.0544 F   0  0  0  0  0  0  0  0  0  0  0  0
  -22.7469   -5.0774   23.9386 F   0  0  0  0  0  0  0  0  0  0  0  0
  1  2  1  0  0  0  0
  1  5  2  0  0  0  0
  2  6  2  0  0  0  0
  3  8  2  0  0  0  0
  3 16  1  0  0  0  0
  4  9  1  0  0  0  0
  4 16  2  0  0  0  0
  5 19  1  0  0  0  0
  6 21  1  0  0  0  0
  7 10  2  0  0  0  0
  7 20  1  0  0  0  0
  8 25  1  0  0  0  0
  9 25  2  0  0  0  0
 10 26  1  0  0  0  0
 11 12  2  0  0  0  0
 11 27  1  0  0  0  0
 12 29  1  0  0  0  0
 13 22  1  0  0  0  0
 13 26  2  0  0  0  0
 14 24  1  0  0  0  0
 14 30  2  0  0  0  0
 15 29  2  0  0  0  0
 15 31  1  0  0  0  0
 16 32  1  0  0  0  0
 17 24  2  0  0  0  0
 17 28  1  0  0  0  0
 17 34  1  0  0  0  0
 18 32  1  0  0  0  0
 18 33  2  0  0  0  0
 18 36  1  0  0  0  0
 19 21  2  0  0  0  0
 19 42  1  0  0  0  0
 20 22  2  0  0  0  0
 20 43  1  0  0  0  0
 21 51  1  0  0  0  0
 22 44  1  0  0  0  0
 23 28  2  0  0  0  0
 23 30  1  0  0  0  0
 23 69  1  0  0  0  0
 24 75  1  0  0  0  0
 25 84  1  0  0  0  0
 26 86  1  0  0  0  0
 27 31  2  0  0  0  0
 27 84  1  0  0  0  0
 28 85  1  0  0  0  0
 29 87  1  0  0  0  0
 30 88  1  0  0  0  0
 31 89  1  0  0  0  0
 32 68  2  0  0  0  0
 33 70  1  0  0  0  0
 33 73  1  0  0  0  0
 34 37  2  0  0  0  0
 35 64  1  0  0  0  0
 35 69  2  0  0  0  0
 36 74  1  0  0  0  0
 36 79  2  0  0  0  0
 37 54  1  0  0  0  0
 37 55  1  0  0  0  0
 38 52  1  0  0  0  0
 38 76  1  0  0  0  0
 38 80  2  0  0  0  0
 39 65  1  0  0  0  0
 39 71  1  0  0  0  0
 39 81  2  0  0  0  0
 40 66  1  0  0  0  0
 40 77  1  0  0  0  0
 40 82  2  0  0  0  0
 41 72  1  0  0  0  0
 41 75  1  0  0  0  0
 41 83  2  0  0  0  0
 42 45  1  0  0  0  0
 43 52  1  0  0  0  0
 44 71  1  0  0  0  0
 45 47  1  0  0  0  0
 46 48  1  0  0  0  0
 46 49  1  0  0  0  0
 47 51  1  0  0  0  0
 48 53  1  0  0  0  0
 49 72  1  0  0  0  0
 50 53  1  0  0  0  0
 50 72  1  0  0  0  0
 51 76  1  0  0  0  0
 52 71  1  0  0  0  0
 53 70  1  0  0  0  0
 56 64  1  0  0  0  0
 57 66  1  0  0  0  0
 58 67  1  0  0  0  0
 59 67  1  0  0  0  0
 60 67  1  0  0  0  0
 61 78  1  0  0  0  0
 62 85  1  0  0  0  0
 63 64  1  0  0  0  0
 63 86  1  0  0  0  0
 65 67  1  0  0  0  0
 65 77  1  0  0  0  0
 66 78  1  0  0  0  0
 68 70  1  0  0  0  0
M  CHG  1  78   1
M  ISO  4  41 100  63 101  75 100  86 101
M  END
> <Batch ID>
0115

> <Smiles>
CNC(C)C(=O)NC(C(=O)N1Cc2cc([101O:1][101CH2:1]C(C)=CNc3c(F)cc([100NH:0][100C:0](=O)N4CCCC(n5nc(-c6ccc(Oc7ccc(F)cc7F)cc6)c(C(N)=O)c5N)C4)c(C=C(C)C)c3OC)ccc2CC1C(=O)NC1CCCc2ccccc21)C(C)(C)C

> <Shape>
0.281

> <Color>
0.116

> <Negative vol penalty>
0.000

$$$$

  -OEChem-04052301403D

 86 94  0     1  0  0  0  0  0999 V2000
  -30.1877  -24.1479   15.5304 C   0  0  0  0  0  0  0  0  0  0  0  0
  -28.8708  -24.5961   15.5123 C   0  0  0  0  0  0  0  0  0  0  0  0
  -27.0537  -14.6155   21.9013 C   0  0  0  0  0  0  0  0  0  0  0  0
  -26.2267  -15.0461   19.6725 C   0  0  0  0  0  0  0  0  0  0  0  0
  -30.8390  -23.9504   16.7473 C   0  0  0  0  0  0  0  0  0  0  0  0
  -28.2040  -24.8459   16.7113 C   0  0  0  0  0  0  0  0  0  0  0  0
  -24.0422  -29.2126   17.7685 C   0  0  0  0  0  0  0  0  0  0  0  0
  -26.7327  -13.2655   21.7597 C   0  0  0  0  0  0  0  0  0  0  0  0
  -25.9057  -13.6961   19.5308 C   0  0  0  0  0  0  0  0  0  0  0  0
  -22.6484  -29.1929   17.7965 C   0  0  0  0  0  0  0  0  0  0  0  0
  -25.7994   -9.7693   22.1190 C   0  0  0  0  0  0  0  0  0  0  0  0
  -25.1545   -9.1393   23.1833 C   0  0  0  0  0  0  0  0  0  0  0  0
  -22.7063  -28.9219   20.1928 C   0  0  0  0  0  0  0  0  0  0  0  0
  -23.3196  -10.6997   22.9952 C   0  0  0  0  0  0  0  0  0  0  0  0
  -26.8006  -15.5058   20.8577 C   0  0  0  0  0  0  0  0  0  0  0  0
  -28.3490  -17.5247   20.6723 C   0  0  0  0  0  0  0  0  0  0  0  0
  -30.1830  -24.2072   17.9615 C   0  0  0  0  0  0  0  0  0  0  0  0
  -24.7799  -29.0759   18.9533 C   0  0  0  0  0  0  0  0  0  0  0  0
  -28.8467  -24.6504   17.9455 C   0  0  0  0  0  0  0  0  0  0  0  0
  -24.1093  -28.9427   20.1775 C   0  0  0  0  0  0  0  0  0  0  0  0
  -26.1587  -12.8058   20.5744 C   0  0  0  0  0  0  0  0  0  0  0  0
  -21.9803  -29.0447   19.0084 C   0  0  0  0  0  0  0  0  0  0  0  0
  -25.2044  -10.8646   21.4928 C   0  0  0  0  0  0  0  0  0  0  0  0
  -23.9147   -9.6045   23.6214 C   0  0  0  0  0  0  0  0  0  0  0  0
  -23.9646  -11.3298   21.9309 C   0  0  0  0  0  0  0  0  0  0  0  0
  -27.1314  -16.9006   21.0037 C   0  0  0  0  0  0  0  0  0  0  0  0
  -28.1576  -18.8453   20.9975 C   0  0  0  0  0  0  0  0  0  0  0  0
  -20.2168  -22.5292   21.5266 C   0  0  0  0  0  0  0  0  0  0  0  0
  -19.0288  -22.5903   20.9219 C   0  0  0  0  0  0  0  0  0  0  0  0
  -18.7649  -23.6598   19.9310 C   0  0  0  0  0  0  0  0  0  0  0  0
  -21.0998  -24.4763   20.3592 C   0  0  0  0  0  0  0  0  0  0  0  0
  -29.5460  -16.9610   20.1197 C   0  0  0  0  0  0  0  0  0  0  0  0
  -18.0373  -21.5733   21.2843 C   0  0  0  0  0  0  0  0  0  0  0  0
  -26.8824  -26.9619   20.0553 C   0  0  0  0  0  0  0  0  0  0  0  0
  -23.1914  -22.0806   21.3782 C   0  0  0  0  0  0  0  0  0  0  0  0
  -27.1483  -29.0824   22.4956 C   0  0  0  0  0  0  0  0  0  0  0  0
  -25.7371  -31.6077   24.3062 C   0  0  0  0  0  0  0  0  0  0  0  0
  -30.9127  -23.9337   19.2528 C   0  0  0  0  0  0  0  0  0  0  0  0
  -26.2825  -29.1259   18.9093 C   0  0  0  0  0  0  0  0  0  0  0  0
  -24.8546  -28.8127   21.4798 C   0  0  0  0  0  0  0  0  0  0  0  0
  -30.2579  -24.5798   20.4710 C   0  0  0  0  0  0  0  0  0  0  0  0
  -25.7007  -21.6581   23.9767 C   0  0  0  0  0  0  0  0  0  0  0  0
  -28.7528  -24.3318   20.4626 C   0  0  0  0  0  0  0  0  0  0  0  0
  -26.4468  -20.4194   23.4826 C   0  0  0  0  0  0  0  0  0  0  0  0
  -24.2109  -21.5824   23.6529 C   0  0  0  0  0  0  0  0  0  0  0  0
  -24.6648  -20.1206   21.7083 C   0  0  0  0  0  0  0  0  0  0  0  0
  -28.0978  -24.9561   19.2245 C   0  0  1  0  0  0  0  0  0  0  0  0
  -26.9381  -28.4622   20.1164 C   0  0  1  0  0  0  0  0  0  0  0  0
  -26.1761  -20.1716   21.9883 C   0  0  2  0  0  0  0  0  0  0  0  0
  -26.1804  -33.1140   26.2637 C   0  0  0  0  0  0  0  0  0  0  0  0
  -26.5750  -26.7699   24.4018 C   0  0  0  0  0  0  0  0  0  0  0  0
  -26.0920  -28.4548   26.1895 C   0  0  0  0  0  0  0  0  0  0  0  0
  -28.3661  -28.3365   25.1712 C   0  0  0  0  0  0  0  0  0  0  0  0
  -25.5566  -34.0372   22.6258 C   0  0  0  0  0  0  0  0  0  0  0  0
  -22.4977  -23.2695   21.9939 C   0  0  0  0  0  0  0  0  0  0  0  0
  -18.8085  -26.7628   19.3045 C   0  0  0  0  0  0  0  0  0  0  0  0
  -18.6194  -27.8948   18.2943 C   0  0  0  0  0  0  0  0  0  0  0  0
  -19.6345  -25.6100   18.7425 C   0  0  0  0  0  0  0  0  0  0  0  0
  -19.9524  -28.5098   17.8870 C   0  0  0  0  0  0  0  0  0  1  0  0
  -26.4504  -29.2821   23.8193 C   0  0  1  0  0  0  0  0  0  0  0  0
  -26.2820  -32.9516   24.7551 C   0  0  2  0  0  0  0  0  0  0  0  0
  -26.8565  -28.2113   24.8709 C   0  0  0  0  0  0  0  0  0  0  0  0
  -26.2331  -17.7545   21.5015 N   0  0  0  0  0  0  0  0  0  0  0  0
  -26.8867  -18.9287   21.4853 N   0  0  0  0  0  0  0  0  0  0  0  0
  -21.2344  -23.4228   21.2777 N   0  0  0  0  0  0  0  0  0  0  0  0
  -19.8328  -24.5557   19.6990 N   0  0  0  0  0  0  0  0  0  0  0  0
  -26.3230  -28.8610   21.3840 N   0  0  0  0  0  0  0  0  0  0  0  0
  -23.9958  -21.3179   22.2252 N   0  0  0  0  0  0  0  0  0  0  0  0
  -28.9542  -19.9317   20.9110 N   0  0  0  0  0  0  0  0  0  0  0  0
  -29.5725  -15.5869   19.8452 N   0  0  0  0  0  0  0  0  0  0  0  0
  -18.0978  -20.4466   20.4987 N   0  0  0  0  0  0  0  0  0  0  0  0
  -27.9517  -26.3856   19.3967 N   0  0  0  0  0  0  0  0  0  0  0  0
  -26.7306  -30.6550   24.2255 N   0  0  0  0  0  0  0  0  0  0  0  0
  -25.5222  -34.0600   24.1108 N   0  3  0  0  0  0  0  0  0  0  0  0
  -17.6697  -23.7196   19.3750 O   0  0  0  0  0  0  0  0  0  0  0  0
  -22.0028  -25.2861   20.1270 O   0  0  0  0  0  0  0  0  0  0  0  0
  -30.5675  -17.6524   19.8919 O   0  0  0  0  0  0  0  0  0  0  0  0
  -17.2443  -21.7446   22.2071 O   0  0  0  0  0  0  0  0  0  0  0  0
  -25.9398  -26.3709   20.5690 O   0  0  0  0  0  0  0  0  0  0  0  0
  -23.0244  -21.8402   20.1797 O   0  0  0  0  0  0  0  0  0  0  0  0
  -28.3801  -29.1284   22.4485 O   0  0  0  0  0  0  0  0  0  0  0  0
  -24.5484  -31.4208   24.0560 O   0  0  0  0  0  0  0  0  0  0  0  0
  -25.8456  -11.4885   20.4357 O   0  0  0  0  0  0  0  0  0  0  0  0
  -20.6199  -29.0245   19.0384 O   0  0  0  0  0  0  0  0  0  1  0  0
  -23.2948   -8.9984   24.6425 F   0  0  0  0  0  0  0  0  0  0  0  0
  -23.3875  -12.3808   21.3325 F   0  0  0  0  0  0  0  0  0  0  0  0
  1  2  1  0  0  0  0
  1  5  2  0  0  0  0
  2  6  2  0  0  0  0
  3  8  2  0  0  0  0
  3 15  1  0  0  0  0
  4  9  1  0  0  0  0
  4 15  2  0  0  0  0
  5 17  1  0  0  0  0
  6 19  1  0  0  0  0
  7 10  2  0  0  0  0
  7 18  1  0  0  0  0
  8 21  1  0  0  0  0
  9 21  2  0  0  0  0
 10 22  1  0  0  0  0
 11 12  2  0  0  0  0
 11 23  1  0  0  0  0
 12 24  1  0  0  0  0
 13 20  1  0  0  0  0
 13 22  2  0  0  0  0
 14 24  2  0  0  0  0
 14 25  1  0  0  0  0
 15 26  1  0  0  0  0
 16 26  1  0  0  0  0
 16 27  2  0  0  0  0
 16 32  1  0  0  0  0
 17 19  2  0  0  0  0
 17 38  1  0  0  0  0
 18 20  2  0  0  0  0
 18 39  1  0  0  0  0
 19 47  1  0  0  0  0
 20 40  1  0  0  0  0
 21 83  1  0  0  0  0
 22 84  1  0  0  0  0
 23 25  2  0  0  0  0
 23 83  1  0  0  0  0
 24 85  1  0  0  0  0
 25 86  1  0  0  0  0
 26 63  2  0  0  0  0
 27 64  1  0  0  0  0
 27 69  1  0  0  0  0
 28 29  2  0  0  0  0
 28 65  1  0  0  0  0
 29 30  1  0  0  0  0
 29 33  1  0  0  0  0
 30 66  1  0  0  0  0
 30 75  2  0  0  0  0
 31 65  1  0  0  0  0
 31 66  1  0  0  0  0
 31 76  2  0  0  0  0
 32 70  1  0  0  0  0
 32 77  2  0  0  0  0
 33 71  1  0  0  0  0
 33 78  2  0  0  0  0
 34 48  1  0  0  0  0
 34 72  1  0  0  0  0
 34 79  2  0  0  0  0
 35 55  1  0  0  0  0
 35 68  1  0  0  0  0
 35 80  2  0  0  0  0
 36 60  1  0  0  0  0
 36 67  1  0  0  0  0
 36 81  2  0  0  0  0
 37 61  1  0  0  0  0
 37 73  1  0  0  0  0
 37 82  2  0  0  0  0
 38 41  1  0  0  0  0
 39 48  1  0  0  0  0
 40 67  1  0  0  0  0
 41 43  1  0  0  0  0
 42 44  1  0  0  0  0
 42 45  1  0  0  0  0
 43 47  1  0  0  0  0
 44 49  1  0  0  0  0
 45 68  1  0  0  0  0
 46 49  1  0  0  0  0
 46 68  1  0  0  0  0
 47 72  1  0  0  0  0
 48 67  1  0  0  0  0
 49 64  1  0  0  0  0
 50 61  1  0  0  0  0
 51 62  1  0  0  0  0
 52 62  1  0  0  0  0
 53 62  1  0  0  0  0
 54 74  1  0  0  0  0
 55 65  1  0  0  0  0
 56 57  1  0  0  0  0
 56 58  1  0  0  0  0
 57 59  1  0  0  0  0
 58 66  1  0  0  0  0
 59 84  1  0  0  0  0
 60 62  1  0  0  0  0
 60 73  1  0  0  0  0
 61 74  1  0  0  0  0
 63 64  1  0  0  0  0
M  CHG  1  74   1
M  ISO  4  35 100  55 100  59 101  84 101
M  END
> <Batch ID>
0115

> <Smiles>
CNC(C)C(=O)NC(C(=O)N1Cc2cc([101O:1][101CH2:1]CCCn3c(=O)c(C(N)=O)cn([100CH2:0][100C:0](=O)N4CCCC(n5nc(-c6ccc(Oc7ccc(F)cc7F)cc6)c(C(N)=O)c5N)C4)c3=O)ccc2CC1C(=O)NC1CCCc2ccccc21)C(C)(C)C

> <Shape>
0.217

> <Color>
0.074

> <Negative vol penalty>
0.000

$$$$

  -OEChem-04052301403D

 85 93  0     1  0  0  0  0  0999 V2000
  -25.9666  -35.3801   25.7325 C   0  0  0  0  0  0  0  0  0  0  0  0
  -26.6313  -34.2142   25.3663 C   0  0  0  0  0  0  0  0  0  0  0  0
  -26.1587  -15.1908   20.9286 C   0  0  0  0  0  0  0  0  0  0  0  0
  -27.4113  -14.6980   18.9222 C   0  0  0  0  0  0  0  0  0  0  0  0
  -24.5730  -35.4053   25.7667 C   0  0  0  0  0  0  0  0  0  0  0  0
  -25.9027  -33.0723   25.0350 C   0  0  0  0  0  0  0  0  0  0  0  0
  -27.6581  -30.7880   20.8703 C   0  0  0  0  0  0  0  0  0  0  0  0
  -25.9503  -13.8269   21.1335 C   0  0  0  0  0  0  0  0  0  0  0  0
  -27.2029  -13.3341   19.1271 C   0  0  0  0  0  0  0  0  0  0  0  0
  -28.8051  -30.0074   21.0076 C   0  0  0  0  0  0  0  0  0  0  0  0
  -24.7116  -11.0967   18.6598 C   0  0  0  0  0  0  0  0  0  0  0  0
  -24.3306  -10.3270   17.5607 C   0  0  0  0  0  0  0  0  0  0  0  0
  -27.4381  -28.0209   21.0731 C   0  0  0  0  0  0  0  0  0  0  0  0
  -30.4254  -23.5284   17.9886 C   0  0  0  0  0  0  0  0  0  0  0  0
  -28.5264  -25.0160   18.1232 C   0  0  0  0  0  0  0  0  0  0  0  0
  -26.3120   -8.9699   17.8241 C   0  0  0  0  0  0  0  0  0  0  0  0
  -26.8891  -15.6263   19.8229 C   0  0  0  0  0  0  0  0  0  0  0  0
  -28.5336  -23.2081   16.5206 C   0  0  0  0  0  0  0  0  0  0  0  0
  -28.1759  -17.8130   20.0882 C   0  0  0  0  0  0  0  0  0  0  0  0
  -23.8268  -34.2661   25.4263 C   0  0  0  0  0  0  0  0  0  0  0  0
  -26.3896  -30.1907   20.8442 C   0  0  0  0  0  0  0  0  0  0  0  0
  -24.4978  -33.0819   25.0660 C   0  0  0  0  0  0  0  0  0  0  0  0
  -26.2767  -28.7959   20.9327 C   0  0  0  0  0  0  0  0  0  0  0  0
  -29.7972  -22.8190   16.9651 C   0  0  0  0  0  0  0  0  0  0  0  0
  -29.7900  -24.6269   18.5677 C   0  0  0  0  0  0  0  0  0  0  0  0
  -26.4724  -12.8985   20.2328 C   0  0  0  0  0  0  0  0  0  0  0  0
  -28.6950  -28.6239   21.1120 C   0  0  0  0  0  0  0  0  0  0  0  0
  -25.8929  -10.8030   19.3411 C   0  0  0  0  0  0  0  0  0  0  0  0
  -25.1307   -9.2636   17.1429 C   0  0  0  0  0  0  0  0  0  0  0  0
  -27.8982  -24.3066   17.0996 C   0  0  0  0  0  0  0  0  0  0  0  0
  -26.6931   -9.7396   18.9232 C   0  0  0  0  0  0  0  0  0  0  0  0
  -27.1043  -17.0351   19.6104 C   0  0  0  0  0  0  0  0  0  0  0  0
  -27.9195  -19.0773   19.6166 C   0  0  0  0  0  0  0  0  0  0  0  0
  -31.1685  -26.3284   19.2234 C   0  0  0  0  0  0  0  0  0  0  0  0
  -27.8589  -22.4839   15.4517 C   0  0  0  0  0  0  0  0  0  0  0  0
  -29.3025  -17.4272   20.8868 C   0  0  0  0  0  0  0  0  0  0  0  0
  -26.3814  -22.4035   15.3903 C   0  0  0  0  0  0  0  0  0  0  0  0
  -23.7933  -30.3584   22.6703 C   0  0  0  0  0  0  0  0  0  0  0  0
  -22.5096  -28.5027   20.3399 C   0  0  0  0  0  0  0  0  0  0  0  0
  -23.0127  -26.2746   17.8043 C   0  0  0  0  0  0  0  0  0  0  0  0
  -22.3230  -34.3275   25.5237 C   0  0  0  0  0  0  0  0  0  0  0  0
  -25.1638  -31.0445   20.6686 C   0  0  0  0  0  0  0  0  0  0  0  0
  -24.9395  -28.1042   20.8896 C   0  0  0  0  0  0  0  0  0  0  0  0
  -21.6183  -33.1853   24.7963 C   0  0  0  0  0  0  0  0  0  0  0  0
  -23.7927  -21.0218   17.4511 C   0  0  0  0  0  0  0  0  0  0  0  0
  -22.2780  -31.8514   25.1314 C   0  0  0  0  0  0  0  0  0  0  0  0
  -24.5040  -19.8997   18.2066 C   0  0  0  0  0  0  0  0  0  0  0  0
  -24.3437  -21.1798   16.0376 C   0  0  0  0  0  0  0  0  0  0  0  0
  -26.5404  -20.2716   16.7435 C   0  0  0  0  0  0  0  0  0  0  0  0
  -23.7421  -31.8302   24.6758 C   0  0  1  0  0  0  0  0  0  0  0  0
  -23.8901  -30.3718   21.1709 C   0  0  1  0  0  0  0  0  0  0  0  0
  -26.0298  -20.1003   18.1848 C   0  0  2  0  0  0  0  0  0  0  0  0
  -31.6001  -22.0684   15.3927 C   0  0  0  0  0  0  0  0  0  0  0  0
  -21.7681  -24.9064   16.1083 C   0  0  0  0  0  0  0  0  0  0  0  0
  -21.6935  -26.5382   22.5272 C   0  0  0  0  0  0  0  0  0  0  0  0
  -21.3348  -24.8138   20.7479 C   0  0  0  0  0  0  0  0  0  0  0  0
  -19.9680  -26.9005   20.7536 C   0  0  0  0  0  0  0  0  0  0  0  0
  -24.3511  -27.6430   15.5471 C   0  0  0  0  0  0  0  0  0  0  0  0
  -30.5000  -21.6467   16.3618 C   0  0  0  0  0  0  0  0  0  0  0  0
  -31.8856  -27.1765   20.2394 C   0  0  0  0  0  0  0  0  0  0  0  0
  -31.0113  -28.3503   20.6470 C   0  0  0  0  0  0  0  0  0  1  0  0
  -22.4053  -27.0172   20.0921 C   0  0  1  0  0  0  0  0  0  0  0  0
  -22.4742  -26.2244   16.3858 C   0  0  2  0  0  0  0  0  0  0  0  0
  -21.3756  -26.3303   21.0330 C   0  0  0  0  0  0  0  0  0  0  0  0
  -26.2319  -17.7458   18.8907 N   0  0  0  0  0  0  0  0  0  0  0  0
  -28.4951  -21.8701   14.4926 N   0  0  0  0  0  0  0  0  0  0  0  0
  -30.4221  -25.3416   19.5990 N   0  0  0  0  0  0  0  0  0  0  0  0
  -26.7551  -18.9835   18.9128 N   0  0  0  0  0  0  0  0  0  0  0  0
  -25.7972  -21.3317   16.0508 N   0  0  0  0  0  0  0  0  0  0  0  0
  -23.7700  -28.9828   20.7229 N   0  0  0  0  0  0  0  0  0  0  0  0
  -28.5788  -20.2489   19.7395 N   0  0  0  0  0  0  0  0  0  0  0  0
  -29.4120  -16.0879   21.2849 N   0  0  0  0  0  0  0  0  0  0  0  0
  -23.8238  -31.6137   23.2472 N   0  0  0  0  0  0  0  0  0  0  0  0
  -22.1142  -26.8598   18.6712 N   0  0  0  0  0  0  0  0  0  0  0  0
  -23.5850  -26.3782   15.4043 N   0  3  0  0  0  0  0  0  0  0  0  0
  -30.1773  -18.2493   21.2506 O   0  0  0  0  0  0  0  0  0  0  0  0
  -25.8304  -23.2961   14.7595 O   0  0  0  0  0  0  0  0  0  0  0  0
  -23.6966  -29.2886   23.2600 O   0  0  0  0  0  0  0  0  0  0  0  0
  -21.5113  -29.2121   20.1918 O   0  0  0  0  0  0  0  0  0  0  0  0
  -24.1181  -25.8350   18.1131 O   0  0  0  0  0  0  0  0  0  0  0  0
  -26.2695  -11.5676   20.4325 O   0  0  0  0  0  0  0  0  0  0  0  0
  -29.8130  -27.8598   21.2468 O   0  0  0  0  0  0  0  0  0  1  0  0
  -24.7639   -8.5236   16.0884 F   0  0  0  0  0  0  0  0  0  0  0  0
  -26.6847  -24.6920   16.6794 F   0  0  0  0  0  0  0  0  0  0  0  0
  -27.8284   -9.4519   19.5744 F   0  0  0  0  0  0  0  0  0  0  0  0
  1  2  1  0  0  0  0
  1  5  2  0  0  0  0
  2  6  2  0  0  0  0
  3  8  2  0  0  0  0
  3 17  1  0  0  0  0
  4  9  1  0  0  0  0
  4 17  2  0  0  0  0
  5 20  1  0  0  0  0
  6 22  1  0  0  0  0
  7 10  2  0  0  0  0
  7 21  1  0  0  0  0
  8 26  1  0  0  0  0
  9 26  2  0  0  0  0
 10 27  1  0  0  0  0
 11 12  2  0  0  0  0
 11 28  1  0  0  0  0
 12 29  1  0  0  0  0
 13 23  1  0  0  0  0
 13 27  2  0  0  0  0
 14 24  1  0  0  0  0
 14 25  2  0  0  0  0
 15 25  1  0  0  0  0
 15 30  2  0  0  0  0
 16 29  2  0  0  0  0
 16 31  1  0  0  0  0
 17 32  1  0  0  0  0
 18 24  2  0  0  0  0
 18 30  1  0  0  0  0
 18 35  1  0  0  0  0
 19 32  1  0  0  0  0
 19 33  2  0  0  0  0
 19 36  1  0  0  0  0
 20 22  2  0  0  0  0
 20 41  1  0  0  0  0
 21 23  2  0  0  0  0
 21 42  1  0  0  0  0
 22 50  1  0  0  0  0
 23 43  1  0  0  0  0
 24 59  1  0  0  0  0
 25 67  1  0  0  0  0
 26 81  1  0  0  0  0
 27 82  1  0  0  0  0
 28 31  2  0  0  0  0
 28 81  1  0  0  0  0
 29 83  1  0  0  0  0
 30 84  1  0  0  0  0
 31 85  1  0  0  0  0
 32 65  2  0  0  0  0
 33 68  1  0  0  0  0
 33 71  1  0  0  0  0
 34 60  1  0  0  0  0
 34 67  2  0  0  0  0
 35 37  1  0  0  0  0
 35 66  2  0  0  0  0
 36 72  1  0  0  0  0
 36 76  2  0  0  0  0
 37 69  1  0  0  0  0
 37 77  2  0  0  0  0
 38 51  1  0  0  0  0
 38 73  1  0  0  0  0
 38 78  2  0  0  0  0
 39 62  1  0  0  0  0
 39 70  1  0  0  0  0
 39 79  2  0  0  0  0
 40 63  1  0  0  0  0
 40 74  1  0  0  0  0
 40 80  2  0  0  0  0
 41 44  1  0  0  0  0
 42 51  1  0  0  0  0
 43 70  1  0  0  0  0
 44 46  1  0  0  0  0
 45 47  1  0  0  0  0
 45 48  1  0  0  0  0
 46 50  1  0  0  0  0
 47 52  1  0  0  0  0
 48 69  1  0  0  0  0
 49 52  1  0  0  0  0
 49 69  1  0  0  0  0
 50 73  1  0  0  0  0
 51 70  1  0  0  0  0
 52 68  1  0  0  0  0
 53 59  1  0  0  0  0
 54 63  1  0  0  0  0
 55 64  1  0  0  0  0
 56 64  1  0  0  0  0
 57 64  1  0  0  0  0
 58 75  1  0  0  0  0
 60 61  1  0  0  0  0
 61 82  1  0  0  0  0
 62 64  1  0  0  0  0
 62 74  1  0  0  0  0
 63 75  1  0  0  0  0
 65 68  1  0  0  0  0
M  CHG  1  75   1
M  ISO  4  35 100  37 100  61 101  82 101
M  END
> <Batch ID>
0115

> <Smiles>
CCc1cc(NC=C[101CH2:1][101O:1]c2ccc3c(c2)CN(C(=O)C(NC(=O)C(C)NC)C(C)(C)C)C(C(=O)NC2CCCc4ccccc42)C3)cc(F)c1[100C:0](=N)[100C:0](=O)N1CCCC(n2nc(-c3ccc(Oc4ccc(F)cc4F)cc3)c(C(N)=O)c2N)C1

> <Shape>
0.237

> <Color>
0.072

> <Negative vol penalty>
0.000

$$$$

  -OEChem-04052301403D

 85 93  0     1  0  0  0  0  0999 V2000
  -28.8976  -34.6589   27.6263 C   0  0  0  0  0  0  0  0  0  0  0  0
  -29.4260  -34.2367   26.4105 C   0  0  0  0  0  0  0  0  0  0  0  0
  -24.4509   -8.5350   21.1072 C   0  0  0  0  0  0  0  0  0  0  0  0
  -22.8053  -10.3006   21.0003 C   0  0  0  0  0  0  0  0  0  0  0  0
  -27.8966  -33.9126   28.2467 C   0  0  0  0  0  0  0  0  0  0  0  0
  -28.9544  -33.0674   25.8150 C   0  0  0  0  0  0  0  0  0  0  0  0
  -27.7496  -30.1771   19.3721 C   0  0  0  0  0  0  0  0  0  0  0  0
  -23.4526   -7.6256   21.4565 C   0  0  0  0  0  0  0  0  0  0  0  0
  -21.8069   -9.3913   21.3496 C   0  0  0  0  0  0  0  0  0  0  0  0
  -28.0392  -29.0296   18.6352 C   0  0  0  0  0  0  0  0  0  0  0  0
  -21.7115   -6.7817   24.2279 C   0  0  0  0  0  0  0  0  0  0  0  0
  -21.9776   -5.8986   25.2743 C   0  0  0  0  0  0  0  0  0  0  0  0
  -26.2516  -27.8637   19.7596 C   0  0  0  0  0  0  0  0  0  0  0  0
  -28.3153  -19.3867   20.9167 C   0  0  0  0  0  0  0  0  0  0  0  0
  -21.6594   -4.0291   23.7773 C   0  0  0  0  0  0  0  0  0  0  0  0
  -24.1273   -9.8725   20.8791 C   0  0  0  0  0  0  0  0  0  0  0  0
  -27.5114  -19.7837   18.2749 C   0  0  0  0  0  0  0  0  0  0  0  0
  -25.5939  -11.1402   19.2209 C   0  0  0  0  0  0  0  0  0  0  0  0
  -27.4057  -32.7387   27.6538 C   0  0  0  0  0  0  0  0  0  0  0  0
  -26.7141  -30.1733   20.3177 C   0  0  0  0  0  0  0  0  0  0  0  0
  -27.9467  -32.3040   26.4287 C   0  0  0  0  0  0  0  0  0  0  0  0
  -25.9492  -29.0132   20.5054 C   0  0  0  0  0  0  0  0  0  0  0  0
  -27.6278  -18.4892   18.7815 C   0  0  0  0  0  0  0  0  0  0  0  0
  -28.0298  -18.2908   20.1024 C   0  0  0  0  0  0  0  0  0  0  0  0
  -27.7969  -20.8796   19.0893 C   0  0  0  0  0  0  0  0  0  0  0  0
  -22.1306   -8.0538   21.5777 C   0  0  0  0  0  0  0  0  0  0  0  0
  -27.2921  -27.8718   18.8309 C   0  0  0  0  0  0  0  0  0  0  0  0
  -21.4193   -6.2886   22.9562 C   0  0  0  0  0  0  0  0  0  0  0  0
  -21.9516   -4.5223   25.0490 C   0  0  0  0  0  0  0  0  0  0  0  0
  -28.1988  -20.6811   20.4101 C   0  0  0  0  0  0  0  0  0  0  0  0
  -21.3933   -4.9123   22.7309 C   0  0  0  0  0  0  0  0  0  0  0  0
  -25.1582  -10.8124   20.5188 C   0  0  0  0  0  0  0  0  0  0  0  0
  -26.5820  -12.0741   19.4160 C   0  0  0  0  0  0  0  0  0  0  0  0
  -27.9308  -20.0261   15.8707 C   0  0  0  0  0  0  0  0  0  0  0  0
  -27.0904  -19.9889   16.8908 C   0  0  0  0  0  0  0  0  0  0  0  0
  -28.2253  -24.4669   18.1925 C   0  0  0  0  0  0  0  0  0  0  0  0
  -27.9291  -25.6215   18.7970 C   0  0  0  0  0  0  0  0  0  1  0  0
  -25.1455  -10.6449   17.9524 C   0  0  0  0  0  0  0  0  0  0  0  0
  -26.5470  -30.6020   23.4628 C   0  0  0  0  0  0  0  0  0  0  0  0
  -23.3524  -30.4426   22.9224 C   0  0  0  0  0  0  0  0  0  0  0  0
  -20.8018  -29.3650   20.9275 C   0  0  0  0  0  0  0  0  0  0  0  0
  -28.5428  -16.6375   21.9326 C   0  0  0  0  0  0  0  0  0  0  0  0
  -26.3561  -31.9401   28.3853 C   0  0  0  0  0  0  0  0  0  0  0  0
  -26.3969  -31.4273   21.0854 C   0  0  0  0  0  0  0  0  0  0  0  0
  -24.8139  -28.9632   21.4938 C   0  0  0  0  0  0  0  0  0  0  0  0
  -25.6481  -30.9136   27.5047 C   0  0  0  0  0  0  0  0  0  0  0  0
  -28.9365  -13.5431   23.6493 C   0  0  0  0  0  0  0  0  0  0  0  0
  -26.6623  -30.1284   26.6791 C   0  0  0  0  0  0  0  0  0  0  0  0
  -28.0245  -12.5838   22.8811 C   0  0  0  0  0  0  0  0  0  0  0  0
  -28.3367  -14.9451   23.7405 C   0  0  0  0  0  0  0  0  0  0  0  0
  -27.0256  -14.5751   21.6878 C   0  0  0  0  0  0  0  0  0  0  0  0
  -27.4438  -31.0543   25.7392 C   0  0  1  0  0  0  0  0  0  0  0  0
  -25.6536  -31.1573   22.3899 C   0  0  1  0  0  0  0  0  0  0  0  0
  -27.6173  -13.1668   21.5137 C   0  0  2  0  0  0  0  0  0  0  0  0
  -27.3237  -17.3036   17.9164 C   0  0  0  0  0  0  0  0  0  0  0  0
  -18.2976  -29.3532   20.7658 C   0  0  0  0  0  0  0  0  0  0  0  0
  -23.2276  -28.2611   25.0521 C   0  0  0  0  0  0  0  0  0  0  0  0
  -20.9609  -27.6432   24.1869 C   0  0  0  0  0  0  0  0  0  0  0  0
  -21.3533  -29.9143   25.1411 C   0  0  0  0  0  0  0  0  0  0  0  0
  -20.8432  -30.8736   18.3816 C   0  0  0  0  0  0  0  0  0  0  0  0
  -28.6253  -23.2276   18.9270 C   0  0  0  0  0  0  0  0  0  0  0  0
  -22.3290  -29.3335   22.8822 C   0  0  1  0  0  0  0  0  0  0  0  0
  -19.5779  -30.0794   20.3833 C   0  0  2  0  0  0  0  0  0  0  0  0
  -21.9903  -28.7881   24.2983 C   0  0  0  0  0  0  0  0  0  0  0  0
  -25.8158  -11.4834   21.4683 N   0  0  0  0  0  0  0  0  0  0  0  0
  -26.6747  -12.2421   20.7663 N   0  0  0  0  0  0  0  0  0  0  0  0
  -24.5468  -30.2129   22.2248 N   0  0  0  0  0  0  0  0  0  0  0  0
  -27.9791  -15.4342   22.4072 N   0  0  0  0  0  0  0  0  0  0  0  0
  -27.3719  -12.7596   18.5626 N   0  0  0  0  0  0  0  0  0  0  0  0
  -24.1214   -9.6882   17.9328 N   0  0  0  0  0  0  0  0  0  0  0  0
  -28.1546  -16.9854   20.6393 N   0  0  0  0  0  0  0  0  0  0  0  0
  -27.6892  -22.1774   18.6122 N   0  0  0  0  0  0  0  0  0  0  0  0
  -26.6396  -31.4004   24.5869 N   0  0  0  0  0  0  0  0  0  0  0  0
  -21.1805  -29.8641   22.1558 N   0  0  0  0  0  0  0  0  0  0  0  0
  -19.6449  -30.1626   18.8969 N   0  3  0  0  0  0  0  0  0  0  0  0
  -25.6496  -11.0268   16.8691 O   0  0  0  0  0  0  0  0  0  0  0  0
  -27.1094  -29.5279   23.2847 O   0  0  0  0  0  0  0  0  0  0  0  0
  -23.0986  -31.4775   23.5438 O   0  0  0  0  0  0  0  0  0  0  0  0
  -21.3633  -28.4528   20.3250 O   0  0  0  0  0  0  0  0  0  0  0  0
  -29.3345  -17.2956   22.6124 O   0  0  0  0  0  0  0  0  0  0  0  0
  -21.1561   -7.1666   21.9183 O   0  0  0  0  0  0  0  0  0  0  0  0
  -27.5731  -26.7501   18.1134 O   0  0  0  0  0  0  0  0  0  1  0  0
  -22.2086   -3.6744   26.0535 F   0  0  0  0  0  0  0  0  0  0  0  0
  -28.4758  -21.7264   21.2028 F   0  0  0  0  0  0  0  0  0  0  0  0
  -21.1144   -4.4326   21.5111 F   0  0  0  0  0  0  0  0  0  0  0  0
  1  2  1  0  0  0  0
  1  5  2  0  0  0  0
  2  6  2  0  0  0  0
  3  8  2  0  0  0  0
  3 16  1  0  0  0  0
  4  9  1  0  0  0  0
  4 16  2  0  0  0  0
  5 19  1  0  0  0  0
  6 21  1  0  0  0  0
  7 10  2  0  0  0  0
  7 20  1  0  0  0  0
  8 26  1  0  0  0  0
  9 26  2  0  0  0  0
 10 27  1  0  0  0  0
 11 12  2  0  0  0  0
 11 28  1  0  0  0  0
 12 29  1  0  0  0  0
 13 22  1  0  0  0  0
 13 27  2  0  0  0  0
 14 24  1  0  0  0  0
 14 30  2  0  0  0  0
 15 29  2  0  0  0  0
 15 31  1  0  0  0  0
 16 32  1  0  0  0  0
 17 23  1  0  0  0  0
 17 25  2  0  0  0  0
 17 35  1  0  0  0  0
 18 32  1  0  0  0  0
 18 33  2  0  0  0  0
 18 38  1  0  0  0  0
 19 21  2  0  0  0  0
 19 43  1  0  0  0  0
 20 22  2  0  0  0  0
 20 44  1  0  0  0  0
 21 52  1  0  0  0  0
 22 45  1  0  0  0  0
 23 24  2  0  0  0  0
 23 55  1  0  0  0  0
 24 71  1  0  0  0  0
 25 30  1  0  0  0  0
 25 72  1  0  0  0  0
 26 81  1  0  0  0  0
 27 82  1  0  0  0  0
 28 31  2  0  0  0  0
 28 81  1  0  0  0  0
 29 83  1  0  0  0  0
 30 84  1  0  0  0  0
 31 85  1  0  0  0  0
 32 65  2  0  0  0  0
 33 66  1  0  0  0  0
 33 69  1  0  0  0  0
 34 35  2  0  0  0  0
 36 37  2  0  0  0  0
 36 61  1  0  0  0  0
 37 82  1  0  0  0  0
 38 70  1  0  0  0  0
 38 76  2  0  0  0  0
 39 53  1  0  0  0  0
 39 73  1  0  0  0  0
 39 77  2  0  0  0  0
 40 62  1  0  0  0  0
 40 67  1  0  0  0  0
 40 78  2  0  0  0  0
 41 63  1  0  0  0  0
 41 74  1  0  0  0  0
 41 79  2  0  0  0  0
 42 68  1  0  0  0  0
 42 71  1  0  0  0  0
 42 80  2  0  0  0  0
 43 46  1  0  0  0  0
 44 53  1  0  0  0  0
 45 67  1  0  0  0  0
 46 48  1  0  0  0  0
 47 49  1  0  0  0  0
 47 50  1  0  0  0  0
 48 52  1  0  0  0  0
 49 54  1  0  0  0  0
 50 68  1  0  0  0  0
 51 54  1  0  0  0  0
 51 68  1  0  0  0  0
 52 73  1  0  0  0  0
 53 67  1  0  0  0  0
 54 66  1  0  0  0  0
 56 63  1  0  0  0  0
 57 64  1  0  0  0  0
 58 64  1  0  0  0  0
 59 64  1  0  0  0  0
 60 75  1  0  0  0  0
 61 72  1  0  0  0  0
 62 64  1  0  0  0  0
 62 74  1  0  0  0  0
 63 75  1  0  0  0  0
 65 66  1  0  0  0  0
M  CHG  1  75   1
M  ISO  4  37 101  42 100  71 100  82 101
M  END
> <Batch ID>
0115

> <Smiles>
C=Cc1c(C)c([100NH:0][100C:0](=O)N2CCCC(n3nc(-c4ccc(Oc5ccc(F)cc5F)cc4)c(C(N)=O)c3N)C2)cc(F)c1NCC=[101CH:1][101O:1]c1ccc2c(c1)CN(C(=O)C(NC(=O)C(C)NC)C(C)(C)C)C(C(=O)NC1CCCc3ccccc31)C2

> <Shape>
0.306

> <Color>
0.091

> <Negative vol penalty>
0.000

$$$$

  -OEChem-04052301403D

 82 90  0     1  0  0  0  0  0999 V2000
  -28.5468  -37.0868   21.6288 C   0  0  0  0  0  0  0  0  0  0  0  0
  -28.9143  -35.7621   21.4157 C   0  0  0  0  0  0  0  0  0  0  0  0
  -24.2214   -9.6511   21.4054 C   0  0  0  0  0  0  0  0  0  0  0  0
  -24.8496  -10.7153   23.4815 C   0  0  0  0  0  0  0  0  0  0  0  0
  -27.4253  -37.3821   22.4026 C   0  0  0  0  0  0  0  0  0  0  0  0
  -28.1610  -34.7318   21.9773 C   0  0  0  0  0  0  0  0  0  0  0  0
  -27.0678  -29.2205   19.5407 C   0  0  0  0  0  0  0  0  0  0  0  0
  -23.8510   -8.5032   22.1059 C   0  0  0  0  0  0  0  0  0  0  0  0
  -24.4791   -9.5674   24.1820 C   0  0  0  0  0  0  0  0  0  0  0  0
  -27.6546  -27.9722   19.7435 C   0  0  0  0  0  0  0  0  0  0  0  0
  -21.2244   -7.4550   23.9593 C   0  0  0  0  0  0  0  0  0  0  0  0
  -20.0134   -6.8514   23.6205 C   0  0  0  0  0  0  0  0  0  0  0  0
  -25.9162  -27.4180   21.3216 C   0  0  0  0  0  0  0  0  0  0  0  0
  -21.1872   -4.8198   23.0445 C   0  0  0  0  0  0  0  0  0  0  0  0
  -28.2198  -20.8676   20.5856 C   0  0  0  0  0  0  0  0  0  0  0  0
  -24.7208  -10.7571   22.0932 C   0  0  0  0  0  0  0  0  0  0  0  0
  -29.2811  -21.5149   19.9865 C   0  0  0  0  0  0  0  0  0  0  0  0
  -24.2887  -13.0455   21.0519 C   0  0  0  0  0  0  0  0  0  0  0  0
  -26.6522  -36.3546   22.9660 C   0  0  0  0  0  0  0  0  0  0  0  0
  -25.9049  -29.5818   20.2362 C   0  0  0  0  0  0  0  0  0  0  0  0
  -27.0288  -35.0136   22.7605 C   0  0  0  0  0  0  0  0  0  0  0  0
  -25.3152  -28.6705   21.1240 C   0  0  0  0  0  0  0  0  0  0  0  0
  -23.9798   -8.4613   23.4941 C   0  0  0  0  0  0  0  0  0  0  0  0
  -27.0805  -27.0718   20.6362 C   0  0  0  0  0  0  0  0  0  0  0  0
  -22.4169   -6.7410   23.8406 C   0  0  0  0  0  0  0  0  0  0  0  0
  -19.9948   -5.5338   23.1631 C   0  0  0  0  0  0  0  0  0  0  0  0
  -22.3982   -5.4234   23.3832 C   0  0  0  0  0  0  0  0  0  0  0  0
  -25.1042  -11.9430   21.3701 C   0  0  0  0  0  0  0  0  0  0  0  0
  -30.2673  -20.6968   19.4743 C   0  0  0  0  0  0  0  0  0  0  0  0
  -25.1173  -13.8986   20.3649 C   0  0  0  0  0  0  0  0  0  0  0  0
  -29.1437  -18.8380   20.1448 C   0  0  0  0  0  0  0  0  0  0  0  0
  -29.3310  -22.9848   19.9138 C   0  0  0  0  0  0  0  0  0  0  0  0
  -28.2625  -23.7921   19.8254 C   0  0  0  0  0  0  0  0  0  0  0  0
  -22.9057  -13.2778   21.3508 C   0  0  0  0  0  0  0  0  0  0  0  0
  -25.1560  -31.8584   22.3243 C   0  0  0  0  0  0  0  0  0  0  0  0
  -22.1613  -30.6668   21.9583 C   0  0  0  0  0  0  0  0  0  0  0  0
  -20.1795  -28.0211   21.1102 C   0  0  0  0  0  0  0  0  0  0  0  0
  -30.0006  -16.5021   19.7501 C   0  0  0  0  0  0  0  0  0  0  0  0
  -25.4757  -36.7241   23.8343 C   0  0  0  0  0  0  0  0  0  0  0  0
  -25.2692  -30.9219   19.9863 C   0  0  0  0  0  0  0  0  0  0  0  0
  -24.0555  -29.0021   21.8801 C   0  0  0  0  0  0  0  0  0  0  0  0
  -24.5146  -35.5646   24.0834 C   0  0  0  0  0  0  0  0  0  0  0  0
  -29.7648  -13.1795   18.4924 C   0  0  0  0  0  0  0  0  0  0  0  0
  -25.2854  -34.3047   24.4646 C   0  0  0  0  0  0  0  0  0  0  0  0
  -28.4641  -12.6523   19.1028 C   0  0  0  0  0  0  0  0  0  0  0  0
  -30.5183  -14.0889   19.4615 C   0  0  0  0  0  0  0  0  0  0  0  0
  -28.4269  -14.6670   20.6282 C   0  0  0  0  0  0  0  0  0  0  0  0
  -26.2227  -33.8676   23.3323 C   0  0  1  0  0  0  0  0  0  0  0  0
  -24.3742  -31.3818   21.1330 C   0  0  1  0  0  0  0  0  0  0  0  0
  -27.6007  -13.7983   19.6657 C   0  0  2  0  0  0  0  0  0  0  0  0
  -17.7706  -27.3369   20.9466 C   0  0  0  0  0  0  0  0  0  0  0  0
  -22.0384  -30.3828   24.9938 C   0  0  0  0  0  0  0  0  0  0  0  0
  -20.0735  -28.8589   24.7019 C   0  0  0  0  0  0  0  0  0  0  0  0
  -19.9349  -31.2300   23.9393 C   0  0  0  0  0  0  0  0  0  0  0  0
  -20.3974  -27.5252   18.2006 C   0  0  0  0  0  0  0  0  0  0  0  0
  -32.3350  -20.3325   18.3574 C   0  0  0  0  0  0  0  0  0  0  0  0
  -28.3638  -25.2814   19.7399 C   0  0  0  0  0  0  0  0  0  1  0  0
  -21.3492  -29.5893   22.6355 C   0  0  1  0  0  0  0  0  0  0  0  0
  -18.9635  -27.9222   20.2069 C   0  0  2  0  0  0  0  0  0  0  0  0
  -20.8738  -30.0094   24.0550 C   0  0  0  0  0  0  0  0  0  0  0  0
  -28.1184  -19.5257   20.6826 N   0  0  0  0  0  0  0  0  0  0  0  0
  -26.3548  -12.0804   20.9219 N   0  0  0  0  0  0  0  0  0  0  0  0
  -30.2308  -19.3495   19.5363 N   0  0  0  0  0  0  0  0  0  0  0  0
  -26.3314  -13.2792   20.3150 N   0  0  0  0  0  0  0  0  0  0  0  0
  -23.4753  -30.3272   21.6063 N   0  0  0  0  0  0  0  0  0  0  0  0
  -29.6388  -15.1531   19.9501 N   0  0  0  0  0  0  0  0  0  0  0  0
  -24.9186  -15.1106   19.8046 N   0  0  0  0  0  0  0  0  0  0  0  0
  -22.2028  -12.2979   22.0649 N   0  0  0  0  0  0  0  0  0  0  0  0
  -29.0713  -17.4254   20.2282 N   0  0  0  0  0  0  0  0  0  0  0  0
  -25.4758  -33.2021   22.2865 N   0  0  0  0  0  0  0  0  0  0  0  0
  -20.2660  -29.2563   21.7168 N   0  0  0  0  0  0  0  0  0  0  0  0
  -19.2600  -27.0543   19.0322 N   0  3  0  0  0  0  0  0  0  0  0  0
  -22.3067  -14.3160   20.9808 O   0  0  0  0  0  0  0  0  0  0  0  0
  -25.4464  -31.0659   23.2128 O   0  0  0  0  0  0  0  0  0  0  0  0
  -21.6463  -31.7668   21.7430 O   0  0  0  0  0  0  0  0  0  0  0  0
  -20.9712  -27.0939   21.2653 O   0  0  0  0  0  0  0  0  0  0  0  0
  -31.0441  -16.8151   19.1712 O   0  0  0  0  0  0  0  0  0  0  0  0
  -23.6182   -7.3414   24.1780 O   0  0  0  0  0  0  0  0  0  0  0  0
  -27.6515  -25.8530   20.8364 O   0  0  0  0  0  0  0  0  0  1  0  0
  -31.3634  -21.2425   18.8588 O   0  0  0  0  0  0  0  0  0  0  0  0
  -18.8317   -4.9538   22.8393 F   0  0  0  0  0  0  0  0  0  0  0  0
  -23.5405   -4.7321   23.2682 F   0  0  0  0  0  0  0  0  0  0  0  0
  1  2  1  0  0  0  0
  1  5  2  0  0  0  0
  2  6  2  0  0  0  0
  3  8  2  0  0  0  0
  3 16  1  0  0  0  0
  4  9  1  0  0  0  0
  4 16  2  0  0  0  0
  5 19  1  0  0  0  0
  6 21  1  0  0  0  0
  7 10  2  0  0  0  0
  7 20  1  0  0  0  0
  8 23  1  0  0  0  0
  9 23  2  0  0  0  0
 10 24  1  0  0  0  0
 11 12  2  0  0  0  0
 11 25  1  0  0  0  0
 12 26  1  0  0  0  0
 13 22  1  0  0  0  0
 13 24  2  0  0  0  0
 14 26  2  0  0  0  0
 14 27  1  0  0  0  0
 15 17  1  0  0  0  0
 15 61  2  0  0  0  0
 16 28  1  0  0  0  0
 17 29  2  0  0  0  0
 17 32  1  0  0  0  0
 18 28  1  0  0  0  0
 18 30  2  0  0  0  0
 18 34  1  0  0  0  0
 19 21  2  0  0  0  0
 19 39  1  0  0  0  0
 20 22  2  0  0  0  0
 20 40  1  0  0  0  0
 21 48  1  0  0  0  0
 22 41  1  0  0  0  0
 23 78  1  0  0  0  0
 24 79  1  0  0  0  0
 25 27  2  0  0  0  0
 25 78  1  0  0  0  0
 26 81  1  0  0  0  0
 27 82  1  0  0  0  0
 28 62  2  0  0  0  0
 29 63  1  0  0  0  0
 29 80  1  0  0  0  0
 30 64  1  0  0  0  0
 30 67  1  0  0  0  0
 31 61  1  0  0  0  0
 31 63  2  0  0  0  0
 31 69  1  0  0  0  0
 32 33  2  0  0  0  0
 33 57  1  0  0  0  0
 34 68  1  0  0  0  0
 34 73  2  0  0  0  0
 35 49  1  0  0  0  0
 35 70  1  0  0  0  0
 35 74  2  0  0  0  0
 36 58  1  0  0  0  0
 36 65  1  0  0  0  0
 36 75  2  0  0  0  0
 37 59  1  0  0  0  0
 37 71  1  0  0  0  0
 37 76  2  0  0  0  0
 38 66  1  0  0  0  0
 38 69  1  0  0  0  0
 38 77  2  0  0  0  0
 39 42  1  0  0  0  0
 40 49  1  0  0  0  0
 41 65  1  0  0  0  0
 42 44  1  0  0  0  0
 43 45  1  0  0  0  0
 43 46  1  0  0  0  0
 44 48  1  0  0  0  0
 45 50  1  0  0  0  0
 46 66  1  0  0  0  0
 47 50  1  0  0  0  0
 47 66  1  0  0  0  0
 48 70  1  0  0  0  0
 49 65  1  0  0  0  0
 50 64  1  0  0  0  0
 51 59  1  0  0  0  0
 52 60  1  0  0  0  0
 53 60  1  0  0  0  0
 54 60  1  0  0  0  0
 55 72  1  0  0  0  0
 56 80  1  0  0  0  0
 57 79  1  0  0  0  0
 58 60  1  0  0  0  0
 58 71  1  0  0  0  0
 59 72  1  0  0  0  0
 62 64  1  0  0  0  0
M  CHG  1  72   1
M  ISO  4  38 100  57 101  69 100  79 101
M  END
> <Batch ID>
0115

> <Smiles>
CNC(C)C(=O)NC(C(=O)N1Cc2cc([101O:1][101CH2:1]C=Cc3cnc([100NH:0][100C:0](=O)N4CCCC(n5nc(-c6ccc(Oc7ccc(F)cc7F)cc6)c(C(N)=O)c5N)C4)nc3OC)ccc2CC1C(=O)NC1CCCc2ccccc21)C(C)(C)C

> <Shape>
0.365

> <Color>
0.146

> <Negative vol penalty>
0.000

$$$$

  -OEChem-04052301403D

 87 95  0     1  0  0  0  0  0999 V2000
  -31.4656  -24.1414   16.6503 C   0  0  0  0  0  0  0  0  0  0  0  0
  -30.2735  -23.8949   17.3238 C   0  0  0  0  0  0  0  0  0  0  0  0
  -23.0668  -12.1942   23.1386 C   0  0  0  0  0  0  0  0  0  0  0  0
  -22.1440  -13.7712   21.5579 C   0  0  0  0  0  0  0  0  0  0  0  0
  -32.3221  -25.1469   17.0968 C   0  0  0  0  0  0  0  0  0  0  0  0
  -29.9378  -24.6531   18.4449 C   0  0  0  0  0  0  0  0  0  0  0  0
  -25.1040  -26.1620   18.3932 C   0  0  0  0  0  0  0  0  0  0  0  0
  -21.9024  -12.2779   23.9019 C   0  0  0  0  0  0  0  0  0  0  0  0
  -20.9795  -13.8549   22.3212 C   0  0  0  0  0  0  0  0  0  0  0  0
  -24.1393  -25.2207   18.7498 C   0  0  0  0  0  0  0  0  0  0  0  0
  -19.9591  -15.4052   25.1472 C   0  0  0  0  0  0  0  0  0  0  0  0
  -19.4317  -16.6739   25.3878 C   0  0  0  0  0  0  0  0  0  0  0  0
  -26.2621  -18.4912   21.0116 C   0  0  0  0  0  0  0  0  0  0  0  0
  -24.0291  -26.1801   20.9604 C   0  0  0  0  0  0  0  0  0  0  0  0
  -17.3809  -16.0306   24.2844 C   0  0  0  0  0  0  0  0  0  0  0  0
  -23.1877  -12.9409   21.9666 C   0  0  0  0  0  0  0  0  0  0  0  0
  -27.0261  -18.8863   19.9136 C   0  0  0  0  0  0  0  0  0  0  0  0
  -24.6558  -11.9573   20.1268 C   0  0  0  0  0  0  0  0  0  0  0  0
  -31.9921  -25.9242   18.2182 C   0  0  0  0  0  0  0  0  0  0  0  0
  -25.5471  -27.1141   19.3224 C   0  0  0  0  0  0  0  0  0  0  0  0
  -30.7913  -25.6690   18.9076 C   0  0  0  0  0  0  0  0  0  0  0  0
  -24.9976  -27.1340   20.6123 C   0  0  0  0  0  0  0  0  0  0  0  0
  -26.8754  -20.1679   19.3840 C   0  0  0  0  0  0  0  0  0  0  0  0
  -25.9607  -21.0544   19.9526 C   0  0  0  0  0  0  0  0  0  0  0  0
  -20.8587  -13.1082   23.4932 C   0  0  0  0  0  0  0  0  0  0  0  0
  -23.6038  -25.2279   20.0345 C   0  0  0  0  0  0  0  0  0  0  0  0
  -19.1975  -14.4492   24.4751 C   0  0  0  0  0  0  0  0  0  0  0  0
  -25.3474  -19.3776   21.5802 C   0  0  0  0  0  0  0  0  0  0  0  0
  -25.1967  -20.6592   21.0506 C   0  0  0  0  0  0  0  0  0  0  0  0
  -18.1426  -16.9866   24.9564 C   0  0  0  0  0  0  0  0  0  0  0  0
  -17.9084  -14.7619   24.0438 C   0  0  0  0  0  0  0  0  0  0  0  0
  -24.3905  -12.8553   21.1780 C   0  0  0  0  0  0  0  0  0  0  0  0
  -25.9234  -12.2820   19.7094 C   0  0  0  0  0  0  0  0  0  0  0  0
  -27.9728  -17.9381   19.3411 C   0  0  0  0  0  0  0  0  0  0  0  0
  -23.8301  -10.9222   19.5768 C   0  0  0  0  0  0  0  0  0  0  0  0
  -29.0822  -17.3778   20.1464 C   0  0  0  0  0  0  0  0  0  0  0  0
  -28.3418  -27.7983   20.6736 C   0  0  0  0  0  0  0  0  0  0  0  0
  -26.6951  -30.3133   21.8925 C   0  0  0  0  0  0  0  0  0  0  0  0
  -23.6817  -31.6472   22.7796 C   0  0  0  0  0  0  0  0  0  0  0  0
  -32.9721  -26.9684   18.6914 C   0  0  0  0  0  0  0  0  0  0  0  0
  -26.5689  -28.1395   18.9139 C   0  0  0  0  0  0  0  0  0  0  0  0
  -25.4248  -28.1481   21.6407 C   0  0  0  0  0  0  0  0  0  0  0  0
  -32.3656  -27.9763   19.6644 C   0  0  0  0  0  0  0  0  0  0  0  0
  -30.0417  -14.1161   21.2855 C   0  0  0  0  0  0  0  0  0  0  0  0
  -31.5493  -27.2598   20.7354 C   0  0  0  0  0  0  0  0  0  0  0  0
  -28.7179  -13.3534   21.3278 C   0  0  0  0  0  0  0  0  0  0  0  0
  -29.8516  -15.5849   21.6503 C   0  0  0  0  0  0  0  0  0  0  0  0
  -27.5059  -15.5275   20.8486 C   0  0  0  0  0  0  0  0  0  0  0  0
  -30.3804  -26.4867   20.1129 C   0  0  1  0  0  0  0  0  0  0  0  0
  -27.3208  -28.7387   20.0984 C   0  0  1  0  0  0  0  0  0  0  0  0
  -27.6534  -14.0463   20.4588 C   0  0  2  0  0  0  0  0  0  0  0  0
  -25.7938  -22.4303   19.3897 C   0  0  0  0  0  0  0  0  0  0  0  0
  -26.8897  -20.5764   16.9103 C   0  0  0  0  0  0  0  0  0  0  0  0
  -22.6580  -33.7065   23.7838 C   0  0  0  0  0  0  0  0  0  0  0  0
  -27.6437  -29.4343   24.6561 C   0  0  0  0  0  0  0  0  0  0  0  0
  -25.8714  -30.8952   25.6525 C   0  0  0  0  0  0  0  0  0  0  0  0
  -27.6890  -31.9055   24.2748 C   0  0  0  0  0  0  0  0  0  0  0  0
  -22.0919  -32.1863   20.3422 C   0  0  0  0  0  0  0  0  0  0  0  0
  -24.8235  -17.6528   23.1315 C   0  0  0  0  0  0  0  0  0  0  0  0
  -27.6938  -20.5928   18.2055 C   0  0  0  0  0  0  0  0  0  0  0  0
  -22.1031  -22.4867   21.8635 C   0  0  0  0  0  0  0  0  0  0  0  0
  -22.6224  -23.9118   21.7551 C   0  0  0  0  0  0  0  0  0  1  0  0
  -22.9741  -21.5040   21.0967 C   0  0  0  0  0  0  0  0  0  0  0  0
  -25.8791  -30.5535   23.1397 C   0  0  1  0  0  0  0  0  0  0  0  0
  -23.0572  -33.0016   22.4968 C   0  0  2  0  0  0  0  0  0  0  0  0
  -26.7640  -30.6767   24.4122 C   0  0  0  0  0  0  0  0  0  0  0  0
  -25.4079  -13.6879   21.4139 N   0  0  0  0  0  0  0  0  0  0  0  0
  -27.9096  -17.5236   18.1061 N   0  0  0  0  0  0  0  0  0  0  0  0
  -26.3248  -13.3143   20.5052 N   0  0  0  0  0  0  0  0  0  0  0  0
  -28.8099  -16.2023   20.8320 N   0  0  0  0  0  0  0  0  0  0  0  0
  -26.4312  -29.1259   21.1951 N   0  0  0  0  0  0  0  0  0  0  0  0
  -26.7226  -11.7822   18.7431 N   0  0  0  0  0  0  0  0  0  0  0  0
  -22.5551  -10.7231   20.1237 N   0  0  0  0  0  0  0  0  0  0  0  0
  -29.3032  -27.3898   19.7690 N   0  0  0  0  0  0  0  0  0  0  0  0
  -25.0554  -31.7268   22.8688 N   0  0  0  0  0  0  0  0  0  0  0  0
  -21.8409  -32.8446   21.6501 N   0  3  0  0  0  0  0  0  0  0  0  0
  -24.2180  -10.1845   18.6393 O   0  0  0  0  0  0  0  0  0  0  0  0
  -30.1266  -18.0156   20.1211 O   0  0  0  0  0  0  0  0  0  0  0  0
  -28.2640  -27.4689   21.8514 O   0  0  0  0  0  0  0  0  0  0  0  0
  -27.5308  -31.1518   21.5457 O   0  0  0  0  0  0  0  0  0  0  0  0
  -23.0171  -30.6219   22.9121 O   0  0  0  0  0  0  0  0  0  0  0  0
  -19.7222  -13.1899   24.2377 O   0  0  0  0  0  0  0  0  0  0  0  0
  -24.6079  -18.9789   22.6525 O   0  0  0  0  0  0  0  0  0  0  0  0
  -22.6625  -24.3098   20.3854 O   0  0  0  0  0  0  0  0  0  1  0  0
  -24.2973  -21.5261   21.6147 O   0  0  0  0  0  0  0  0  0  0  0  0
  -17.6357  -18.2044   25.1889 F   0  0  0  0  0  0  0  0  0  0  0  0
  -17.1714  -13.8473   23.3987 F   0  0  0  0  0  0  0  0  0  0  0  0
  1  2  1  0  0  0  0
  1  5  2  0  0  0  0
  2  6  2  0  0  0  0
  3  8  2  0  0  0  0
  3 16  1  0  0  0  0
  4  9  1  0  0  0  0
  4 16  2  0  0  0  0
  5 19  1  0  0  0  0
  6 21  1  0  0  0  0
  7 10  2  0  0  0  0
  7 20  1  0  0  0  0
  8 25  1  0  0  0  0
  9 25  2  0  0  0  0
 10 26  1  0  0  0  0
 11 12  2  0  0  0  0
 11 27  1  0  0  0  0
 12 30  1  0  0  0  0
 13 17  2  0  0  0  0
 13 28  1  0  0  0  0
 14 22  1  0  0  0  0
 14 26  2  0  0  0  0
 15 30  2  0  0  0  0
 15 31  1  0  0  0  0
 16 32  1  0  0  0  0
 17 23  1  0  0  0  0
 17 34  1  0  0  0  0
 18 32  1  0  0  0  0
 18 33  2  0  0  0  0
 18 35  1  0  0  0  0
 19 21  2  0  0  0  0
 19 40  1  0  0  0  0
 20 22  2  0  0  0  0
 20 41  1  0  0  0  0
 21 49  1  0  0  0  0
 22 42  1  0  0  0  0
 23 24  2  0  0  0  0
 23 60  1  0  0  0  0
 24 29  1  0  0  0  0
 24 52  1  0  0  0  0
 25 82  1  0  0  0  0
 26 84  1  0  0  0  0
 27 31  2  0  0  0  0
 27 82  1  0  0  0  0
 28 29  2  0  0  0  0
 28 83  1  0  0  0  0
 29 85  1  0  0  0  0
 30 86  1  0  0  0  0
 31 87  1  0  0  0  0
 32 67  2  0  0  0  0
 33 69  1  0  0  0  0
 33 72  1  0  0  0  0
 34 36  1  0  0  0  0
 34 68  2  0  0  0  0
 35 73  1  0  0  0  0
 35 77  2  0  0  0  0
 36 70  1  0  0  0  0
 36 78  2  0  0  0  0
 37 50  1  0  0  0  0
 37 74  1  0  0  0  0
 37 79  2  0  0  0  0
 38 64  1  0  0  0  0
 38 71  1  0  0  0  0
 38 80  2  0  0  0  0
 39 65  1  0  0  0  0
 39 75  1  0  0  0  0
 39 81  2  0  0  0  0
 40 43  1  0  0  0  0
 41 50  1  0  0  0  0
 42 71  1  0  0  0  0
 43 45  1  0  0  0  0
 44 46  1  0  0  0  0
 44 47  1  0  0  0  0
 45 49  1  0  0  0  0
 46 51  1  0  0  0  0
 47 70  1  0  0  0  0
 48 51  1  0  0  0  0
 48 70  1  0  0  0  0
 49 74  1  0  0  0  0
 50 71  1  0  0  0  0
 51 69  1  0  0  0  0
 53 60  1  0  0  0  0
 54 65  1  0  0  0  0
 55 66  1  0  0  0  0
 56 66  1  0  0  0  0
 57 66  1  0  0  0  0
 58 76  1  0  0  0  0
 59 83  1  0  0  0  0
 61 62  1  0  0  0  0
 61 63  1  0  0  0  0
 62 84  1  0  0  0  0
 63 85  1  0  0  0  0
 64 66  1  0  0  0  0
 64 75  1  0  0  0  0
 65 76  1  0  0  0  0
 67 69  1  0  0  0  0
M  CHG  1  76   1
M  ISO  4  34 100  36 100  62 101  84 101
M  END
> <Batch ID>
0115

> <Smiles>
CCc1c([100C:0](=N)[100C:0](=O)N2CCCC(n3nc(-c4ccc(Oc5ccc(F)cc5F)cc4)c(C(N)=O)c3N)C2)cc(OC)c(OCC[101CH2:1][101O:1]c2ccc3c(c2)CN(C(=O)C(NC(=O)C(C)NC)C(C)(C)C)C(C(=O)NC2CCCc4ccccc42)C3)c1C

> <Shape>
0.262

> <Color>
0.059

> <Negative vol penalty>
0.000

$$$$

  -OEChem-04052301403D

 84 92  0     1  0  0  0  0  0999 V2000
  -28.4363  -29.8658   27.7015 C   0  0  0  0  0  0  0  0  0  0  0  0
  -28.2432  -29.0348   26.6027 C   0  0  0  0  0  0  0  0  0  0  0  0
  -24.7434   -8.4799   21.5033 C   0  0  0  0  0  0  0  0  0  0  0  0
  -23.0343  -10.0270   20.7806 C   0  0  0  0  0  0  0  0  0  0  0  0
  -27.3980  -30.6825   28.1475 C   0  0  0  0  0  0  0  0  0  0  0  0
  -27.0112  -29.0191   25.9498 C   0  0  0  0  0  0  0  0  0  0  0  0
  -27.4822  -29.1307   20.9089 C   0  0  0  0  0  0  0  0  0  0  0  0
  -23.8498   -7.9187   22.4155 C   0  0  0  0  0  0  0  0  0  0  0  0
  -22.1406   -9.4658   21.6928 C   0  0  0  0  0  0  0  0  0  0  0  0
  -27.8252  -27.9373   20.2749 C   0  0  0  0  0  0  0  0  0  0  0  0
  -21.9099   -5.8403   24.6809 C   0  0  0  0  0  0  0  0  0  0  0  0
  -21.8527   -4.4489   24.7605 C   0  0  0  0  0  0  0  0  0  0  0  0
  -25.5123  -27.5951   19.6810 C   0  0  0  0  0  0  0  0  0  0  0  0
  -24.1263  -18.9240   18.9038 C   0  0  0  0  0  0  0  0  0  0  0  0
  -26.7432  -18.6953   19.8430 C   0  0  0  0  0  0  0  0  0  0  0  0
  -21.2119   -4.3422   22.4335 C   0  0  0  0  0  0  0  0  0  0  0  0
  -24.3357   -9.5341   20.6859 C   0  0  0  0  0  0  0  0  0  0  0  0
  -25.4686   -9.7230   18.4081 C   0  0  0  0  0  0  0  0  0  0  0  0
  -26.1557  -30.6839   27.4939 C   0  0  0  0  0  0  0  0  0  0  0  0
  -26.1479  -29.5605   20.9432 C   0  0  0  0  0  0  0  0  0  0  0  0
  -25.9548  -29.8356   26.3883 C   0  0  0  0  0  0  0  0  0  0  0  0
  -25.1554  -28.7956   20.3139 C   0  0  0  0  0  0  0  0  0  0  0  0
  -24.7538  -20.0210   19.4939 C   0  0  0  0  0  0  0  0  0  0  0  0
  -26.1157  -17.5982   19.2530 C   0  0  0  0  0  0  0  0  0  0  0  0
  -22.5484   -8.4116   22.5102 C   0  0  0  0  0  0  0  0  0  0  0  0
  -26.8398  -27.1679   19.6633 C   0  0  0  0  0  0  0  0  0  0  0  0
  -21.6180   -6.4827   23.4776 C   0  0  0  0  0  0  0  0  0  0  0  0
  -26.0623  -19.9068   19.9635 C   0  0  0  0  0  0  0  0  0  0  0  0
  -21.5037   -3.6998   23.6368 C   0  0  0  0  0  0  0  0  0  0  0  0
  -24.8072  -17.7125   18.7834 C   0  0  0  0  0  0  0  0  0  0  0  0
  -21.2690   -5.7336   22.3539 C   0  0  0  0  0  0  0  0  0  0  0  0
  -25.2586  -10.1146   19.7439 C   0  0  0  0  0  0  0  0  0  0  0  0
  -26.4380  -10.5800   17.9474 C   0  0  0  0  0  0  0  0  0  0  0  0
  -28.1149  -23.8347   19.2699 C   0  0  0  0  0  0  0  0  0  0  0  0
  -28.0540  -22.8870   20.2167 C   0  0  0  0  0  0  0  0  0  0  0  0
  -24.8433   -8.6780   17.6513 C   0  0  0  0  0  0  0  0  0  0  0  0
  -24.0311  -30.1232   23.2467 C   0  0  0  0  0  0  0  0  0  0  0  0
  -22.2180  -31.1999   20.7818 C   0  0  0  0  0  0  0  0  0  0  0  0
  -21.5418  -31.1334   17.4374 C   0  0  0  0  0  0  0  0  0  0  0  0
  -28.1113  -16.0890   19.5464 C   0  0  0  0  0  0  0  0  0  0  0  0
  -25.0483  -31.5490   28.0415 C   0  0  0  0  0  0  0  0  0  0  0  0
  -25.7981  -30.8636   21.6081 C   0  0  0  0  0  0  0  0  0  0  0  0
  -23.7112  -29.2230   20.3050 C   0  0  0  0  0  0  0  0  0  0  0  0
  -23.8925  -31.7497   27.0647 C   0  0  0  0  0  0  0  0  0  0  0  0
  -30.1636  -13.1808   19.4607 C   0  0  0  0  0  0  0  0  0  0  0  0
  -23.4845  -30.4194   26.4398 C   0  0  0  0  0  0  0  0  0  0  0  0
  -29.1579  -12.0291   19.3959 C   0  0  0  0  0  0  0  0  0  0  0  0
  -29.6638  -14.3211   20.3459 C   0  0  0  0  0  0  0  0  0  0  0  0
  -27.3204  -13.6745   19.9466 C   0  0  0  0  0  0  0  0  0  0  0  0
  -24.6406  -29.8087   25.6385 C   0  0  1  0  0  0  0  0  0  0  0  0
  -24.3335  -30.9466   22.0268 C   0  0  1  0  0  0  0  0  0  0  0  0
  -27.7511  -12.5302   19.0145 C   0  0  2  0  0  0  0  0  0  0  0  0
  -24.0096  -21.3098   19.6144 C   0  0  0  0  0  0  0  0  0  0  0  0
  -19.9772  -32.0903   15.7246 C   0  0  0  0  0  0  0  0  0  0  0  0
  -20.0212  -29.3094   21.7358 C   0  0  0  0  0  0  0  0  0  0  0  0
  -18.9077  -29.5928   19.5115 C   0  0  0  0  0  0  0  0  0  0  0  0
  -19.2156  -31.5630   21.0102 C   0  0  0  0  0  0  0  0  0  0  0  0
  -23.7599  -32.4231   15.9624 C   0  0  0  0  0  0  0  0  0  0  0  0
  -28.2939  -25.2887   19.5621 C   0  0  0  0  0  0  0  0  0  1  0  0
  -27.8868  -21.4316   19.9243 C   0  0  0  0  0  0  0  0  0  0  0  0
  -21.2234  -30.5751   19.8335 C   0  0  1  0  0  0  0  0  0  0  0  0
  -21.3132  -32.2490   16.4336 C   0  0  2  0  0  0  0  0  0  0  0  0
  -19.8688  -30.2508   20.5244 C   0  0  0  0  0  0  0  0  0  0  0  0
  -26.0324  -11.1405   20.1082 N   0  0  0  0  0  0  0  0  0  0  0  0
  -26.7382  -11.4007   18.9946 N   0  0  0  0  0  0  0  0  0  0  0  0
  -23.4185  -30.5015   20.9737 N   0  0  0  0  0  0  0  0  0  0  0  0
  -28.3277  -14.7466   19.9230 N   0  0  0  0  0  0  0  0  0  0  0  0
  -27.0544  -10.7041   16.7528 N   0  0  0  0  0  0  0  0  0  0  0  0
  -23.8673   -7.8914   18.2782 N   0  0  0  0  0  0  0  0  0  0  0  0
  -26.8096  -16.3688   19.1318 N   0  0  0  0  0  0  0  0  0  0  0  0
  -24.7739  -30.4712   24.3587 N   0  0  0  0  0  0  0  0  0  0  0  0
  -21.1127  -31.4861   18.6995 N   0  0  0  0  0  0  0  0  0  0  0  0
  -22.3930  -32.2509   15.4065 N   0  3  0  0  0  0  0  0  0  0  0  0
  -25.1530   -8.4380   16.4597 O   0  0  0  0  0  0  0  0  0  0  0  0
  -23.1853  -29.2387   23.1842 O   0  0  0  0  0  0  0  0  0  0  0  0
  -21.9429  -32.2719   21.3266 O   0  0  0  0  0  0  0  0  0  0  0  0
  -22.0468  -30.0555   17.1317 O   0  0  0  0  0  0  0  0  0  0  0  0
  -29.0208  -16.9223   19.5626 O   0  0  0  0  0  0  0  0  0  0  0  0
  -21.6760   -7.8641   23.4000 O   0  0  0  0  0  0  0  0  0  0  0  0
  -27.1718  -26.0023   19.0444 O   0  0  0  0  0  0  0  0  0  1  0  0
  -26.6936  -20.9751   20.5459 O   0  0  0  0  0  0  0  0  0  0  0  0
  -21.4503   -2.3636   23.7130 F   0  0  0  0  0  0  0  0  0  0  0  0
  -24.1941  -16.6646   18.2145 F   0  0  0  0  0  0  0  0  0  0  0  0
  -20.9887   -6.3450   21.1948 F   0  0  0  0  0  0  0  0  0  0  0  0
  1  2  1  0  0  0  0
  1  5  2  0  0  0  0
  2  6  2  0  0  0  0
  3  8  2  0  0  0  0
  3 17  1  0  0  0  0
  4  9  1  0  0  0  0
  4 17  2  0  0  0  0
  5 19  1  0  0  0  0
  6 21  1  0  0  0  0
  7 10  2  0  0  0  0
  7 20  1  0  0  0  0
  8 25  1  0  0  0  0
  9 25  2  0  0  0  0
 10 26  1  0  0  0  0
 11 12  2  0  0  0  0
 11 27  1  0  0  0  0
 12 29  1  0  0  0  0
 13 22  1  0  0  0  0
 13 26  2  0  0  0  0
 14 23  1  0  0  0  0
 14 30  2  0  0  0  0
 15 24  2  0  0  0  0
 15 28  1  0  0  0  0
 16 29  2  0  0  0  0
 16 31  1  0  0  0  0
 17 32  1  0  0  0  0
 18 32  1  0  0  0  0
 18 33  2  0  0  0  0
 18 36  1  0  0  0  0
 19 21  2  0  0  0  0
 19 41  1  0  0  0  0
 20 22  2  0  0  0  0
 20 42  1  0  0  0  0
 21 50  1  0  0  0  0
 22 43  1  0  0  0  0
 23 28  2  0  0  0  0
 23 53  1  0  0  0  0
 24 30  1  0  0  0  0
 24 70  1  0  0  0  0
 25 79  1  0  0  0  0
 26 80  1  0  0  0  0
 27 31  2  0  0  0  0
 27 79  1  0  0  0  0
 28 81  1  0  0  0  0
 29 82  1  0  0  0  0
 30 83  1  0  0  0  0
 31 84  1  0  0  0  0
 32 64  2  0  0  0  0
 33 65  1  0  0  0  0
 33 68  1  0  0  0  0
 34 35  2  0  0  0  0
 34 59  1  0  0  0  0
 35 60  1  0  0  0  0
 36 69  1  0  0  0  0
 36 74  2  0  0  0  0
 37 51  1  0  0  0  0
 37 71  1  0  0  0  0
 37 75  2  0  0  0  0
 38 61  1  0  0  0  0
 38 66  1  0  0  0  0
 38 76  2  0  0  0  0
 39 62  1  0  0  0  0
 39 72  1  0  0  0  0
 39 77  2  0  0  0  0
 40 67  1  0  0  0  0
 40 70  1  0  0  0  0
 40 78  2  0  0  0  0
 41 44  1  0  0  0  0
 42 51  1  0  0  0  0
 43 66  1  0  0  0  0
 44 46  1  0  0  0  0
 45 47  1  0  0  0  0
 45 48  1  0  0  0  0
 46 50  1  0  0  0  0
 47 52  1  0  0  0  0
 48 67  1  0  0  0  0
 49 52  1  0  0  0  0
 49 67  1  0  0  0  0
 50 71  1  0  0  0  0
 51 66  1  0  0  0  0
 52 65  1  0  0  0  0
 54 62  1  0  0  0  0
 55 63  1  0  0  0  0
 56 63  1  0  0  0  0
 57 63  1  0  0  0  0
 58 73  1  0  0  0  0
 59 80  1  0  0  0  0
 60 81  1  0  0  0  0
 61 63  1  0  0  0  0
 61 72  1  0  0  0  0
 62 73  1  0  0  0  0
 64 65  1  0  0  0  0
M  CHG  1  73   1
M  ISO  4  40 100  59 101  70 100  80 101
M  END
> <Batch ID>
0115

> <Smiles>
CNC(C)C(=O)NC(C(=O)N1Cc2cc([101O:1][101CH2:1]C=CCOc3cc([100NH:0][100C:0](=O)N4CCCC(n5nc(-c6ccc(Oc7ccc(F)cc7F)cc6)c(C(N)=O)c5N)C4)c(F)cc3C)ccc2CC1C(=O)NC1CCCc2ccccc21)C(C)(C)C

> <Shape>
0.260

> <Color>
0.113

> <Negative vol penalty>
0.000

$$$$

  -OEChem-04052301403D

 87 95  0     1  0  0  0  0  0999 V2000
  -32.5358  -13.9601   21.2726 C   0  0  0  0  0  0  0  0  0  0  0  0
  -31.7791  -15.0595   21.6651 C   0  0  0  0  0  0  0  0  0  0  0  0
  -27.5266  -22.1994   21.5377 C   0  0  0  0  0  0  0  0  0  0  0  0
  -29.2525  -23.0662   20.0862 C   0  0  0  0  0  0  0  0  0  0  0  0
  -31.9716  -12.9839   20.4524 C   0  0  0  0  0  0  0  0  0  0  0  0
  -30.4579  -15.1838   21.2369 C   0  0  0  0  0  0  0  0  0  0  0  0
  -25.7824  -17.5934   24.3737 C   0  0  0  0  0  0  0  0  0  0  0  0
  -27.7027  -20.9294   20.9887 C   0  0  0  0  0  0  0  0  0  0  0  0
  -29.4287  -21.7961   19.5372 C   0  0  0  0  0  0  0  0  0  0  0  0
  -25.1846  -18.8526   24.3467 C   0  0  0  0  0  0  0  0  0  0  0  0
  -27.8812  -19.8273   17.2656 C   0  0  0  0  0  0  0  0  0  0  0  0
  -27.9841  -19.7297   15.8780 C   0  0  0  0  0  0  0  0  0  0  0  0
  -19.8758  -25.3777   22.7856 C   0  0  0  0  0  0  0  0  0  0  0  0
  -23.5015  -18.0146   22.8353 C   0  0  0  0  0  0  0  0  0  0  0  0
  -30.1849  -18.7601   16.1095 C   0  0  0  0  0  0  0  0  0  0  0  0
  -28.3015  -23.2679   21.0864 C   0  0  0  0  0  0  0  0  0  0  0  0
  -20.5027  -26.0539   21.7450 C   0  0  0  0  0  0  0  0  0  0  0  0
  -20.5179  -24.3072   23.3982 C   0  0  0  0  0  0  0  0  0  0  0  0
  -28.7844  -25.1245   22.7678 C   0  0  0  0  0  0  0  0  0  0  0  0
  -30.6398  -13.0915   20.0218 C   0  0  0  0  0  0  0  0  0  0  0  0
  -25.2497  -16.5363   23.6219 C   0  0  0  0  0  0  0  0  0  0  0  0
  -29.8758  -14.2088   20.4091 C   0  0  0  0  0  0  0  0  0  0  0  0
  -24.0929  -16.7422   22.8565 C   0  0  0  0  0  0  0  0  0  0  0  0
  -28.6538  -20.7276   19.9884 C   0  0  0  0  0  0  0  0  0  0  0  0
  -24.0457  -19.0642   23.5752 C   0  0  0  0  0  0  0  0  0  0  0  0
  -28.9301  -19.3915   18.0752 C   0  0  0  0  0  0  0  0  0  0  0  0
  -29.1359  -19.1960   15.3000 C   0  0  0  0  0  0  0  0  0  0  0  0
  -30.0820  -18.8578   17.4972 C   0  0  0  0  0  0  0  0  0  0  0  0
  -28.1196  -24.5803   21.6527 C   0  0  0  0  0  0  0  0  0  0  0  0
  -21.7615  -25.6240   21.3573 C   0  0  0  0  0  0  0  0  0  0  0  0
  -21.7759  -23.9553   22.9364 C   0  0  0  0  0  0  0  0  0  0  0  0
  -28.2603  -26.3875   22.8974 C   0  0  0  0  0  0  0  0  0  0  0  0
  -19.4832  -28.2846   21.7414 C   0  0  0  0  0  0  0  0  0  0  0  0
  -18.5516  -23.4437   24.5829 C   0  0  0  0  0  0  0  0  0  0  0  0
  -19.8282  -27.1735   21.1059 C   0  0  0  0  0  0  0  0  0  0  0  0
  -19.8654  -23.5971   24.4865 C   0  0  0  0  0  0  0  0  0  0  0  0
  -29.7862  -24.5407   23.6112 C   0  0  0  0  0  0  0  0  0  0  0  0
  -22.5019  -26.2804   20.2647 C   0  0  0  0  0  0  0  0  0  0  0  0
  -26.3117  -14.7197   21.2395 C   0  0  0  0  0  0  0  0  0  0  0  0
  -23.5240  -13.1335   21.7243 C   0  0  0  0  0  0  0  0  0  0  0  0
  -20.3185  -13.1996   22.8935 C   0  0  0  0  0  0  0  0  0  0  0  0
  -24.5303  -26.0795   18.9019 C   0  0  0  0  0  0  0  0  0  0  0  0
  -30.0882  -12.0351   19.0975 C   0  0  0  0  0  0  0  0  0  0  0  0
  -25.8908  -15.1770   23.6828 C   0  0  0  0  0  0  0  0  0  0  0  0
  -23.4699  -15.6351   22.0474 C   0  0  0  0  0  0  0  0  0  0  0  0
  -28.5653  -12.0516   18.9936 C   0  0  0  0  0  0  0  0  0  0  0  0
  -27.1643  -28.4610   19.2305 C   0  0  0  0  0  0  0  0  0  0  0  0
  -28.0593  -13.4766   18.7935 C   0  0  0  0  0  0  0  0  0  0  0  0
  -27.2265  -28.7672   20.7242 C   0  0  0  0  0  0  0  0  0  0  0  0
  -25.7272  -28.2462   18.7768 C   0  0  0  0  0  0  0  0  0  0  0  0
  -25.0845  -27.3977   21.0195 C   0  0  0  0  0  0  0  0  0  0  0  0
  -28.4315  -14.3667   19.9855 C   0  0  1  0  0  0  0  0  0  0  0  0
  -25.5616  -14.3064   22.4740 C   0  0  1  0  0  0  0  0  0  0  0  0
  -26.4819  -27.7321   21.5847 C   0  0  1  0  0  0  0  0  0  0  0  0
  -18.2732  -11.7629   23.1172 C   0  0  0  0  0  0  0  0  0  0  0  0
  -22.9405  -13.5058   18.7526 C   0  0  0  0  0  0  0  0  0  0  0  0
  -20.5497  -12.9289   19.2210 C   0  0  0  0  0  0  0  0  0  0  0  0
  -22.3442  -11.2523   19.6585 C   0  0  0  0  0  0  0  0  0  0  0  0
  -22.9823  -24.1914   18.9892 C   0  0  0  0  0  0  0  0  0  0  0  0
  -20.3552  -13.4051   25.8457 C   0  0  0  0  0  0  0  0  0  0  0  0
  -24.3129  -21.4222   23.7299 C   0  0  0  0  0  0  0  0  0  1  0  0
  -23.7339  -22.6062   22.9798 C   0  0  0  0  0  0  0  0  0  0  0  0
  -22.1183  -13.2535   21.1870 C   0  0  1  0  0  0  0  0  0  0  0  0
  -19.5522  -12.2409   23.7869 C   0  0  2  0  0  0  0  0  0  0  0  0
  -22.0008  -12.7567   19.7184 C   0  0  0  0  0  0  0  0  0  0  0  0
  -27.2401  -25.4280   21.1123 N   0  0  0  0  0  0  0  0  0  0  0  0
  -22.4166  -24.5884   21.9282 N   0  0  0  0  0  0  0  0  0  0  0  0
  -27.3486  -26.5177   21.8913 N   0  0  0  0  0  0  0  0  0  0  0  0
  -24.1372  -14.3257   22.1347 N   0  0  0  0  0  0  0  0  0  0  0  0
  -25.0695  -27.2022   19.5612 N   0  0  0  0  0  0  0  0  0  0  0  0
  -28.4948  -27.3881   23.7726 N   0  0  0  0  0  0  0  0  0  0  0  0
  -30.2113  -23.2336   23.3373 N   0  0  0  0  0  0  0  0  0  0  0  0
  -27.5457  -14.1133   21.1015 N   0  0  0  0  0  0  0  0  0  0  0  0
  -21.2595  -12.5434   22.1286 N   0  0  0  0  0  0  0  0  0  0  0  0
  -23.3926  -25.5000   19.5005 N   0  0  0  0  0  0  0  0  0  0  0  0
  -19.1903  -12.9061   25.0704 N   0  3  0  0  0  0  0  0  0  0  0  0
  -30.2777  -25.1539   24.5889 O   0  0  0  0  0  0  0  0  0  0  0  0
  -22.2758  -27.4769   20.0863 O   0  0  0  0  0  0  0  0  0  0  0  0
  -25.8076  -15.5278   20.4684 O   0  0  0  0  0  0  0  0  0  0  0  0
  -24.0556  -12.0221   21.7844 O   0  0  0  0  0  0  0  0  0  0  0  0
  -20.1013  -14.4092   22.8733 O   0  0  0  0  0  0  0  0  0  0  0  0
  -25.0011  -25.6347   17.8489 O   0  0  0  0  0  0  0  0  0  0  0  0
  -28.8261  -19.4884   19.4527 O   0  0  0  0  0  0  0  0  0  0  0  0
  -23.4606  -20.2925   23.5465 O   0  0  0  0  0  0  0  0  0  1  0  0
  -22.4479  -22.9070   23.5079 O   0  0  0  0  0  0  0  0  0  0  0  0
  -29.2340  -19.1009   13.9675 F   0  0  0  0  0  0  0  0  0  0  0  0
  -31.0925  -18.4363   18.2698 F   0  0  0  0  0  0  0  0  0  0  0  0
  1  2  1  0  0  0  0
  1  5  2  0  0  0  0
  2  6  2  0  0  0  0
  3  8  2  0  0  0  0
  3 16  1  0  0  0  0
  4  9  1  0  0  0  0
  4 16  2  0  0  0  0
  5 20  1  0  0  0  0
  6 22  1  0  0  0  0
  7 10  2  0  0  0  0
  7 21  1  0  0  0  0
  8 24  1  0  0  0  0
  9 24  2  0  0  0  0
 10 25  1  0  0  0  0
 11 12  2  0  0  0  0
 11 26  1  0  0  0  0
 12 27  1  0  0  0  0
 13 17  2  0  0  0  0
 13 18  1  0  0  0  0
 14 23  1  0  0  0  0
 14 25  2  0  0  0  0
 15 27  2  0  0  0  0
 15 28  1  0  0  0  0
 16 29  1  0  0  0  0
 17 30  1  0  0  0  0
 17 35  1  0  0  0  0
 18 31  2  0  0  0  0
 18 36  1  0  0  0  0
 19 29  1  0  0  0  0
 19 32  2  0  0  0  0
 19 37  1  0  0  0  0
 20 22  2  0  0  0  0
 20 43  1  0  0  0  0
 21 23  2  0  0  0  0
 21 44  1  0  0  0  0
 22 52  1  0  0  0  0
 23 45  1  0  0  0  0
 24 83  1  0  0  0  0
 25 84  1  0  0  0  0
 26 28  2  0  0  0  0
 26 83  1  0  0  0  0
 27 86  1  0  0  0  0
 28 87  1  0  0  0  0
 29 66  2  0  0  0  0
 30 38  1  0  0  0  0
 30 67  2  0  0  0  0
 31 67  1  0  0  0  0
 31 85  1  0  0  0  0
 32 68  1  0  0  0  0
 32 71  1  0  0  0  0
 33 35  2  0  0  0  0
 34 36  2  0  0  0  0
 37 72  1  0  0  0  0
 37 77  2  0  0  0  0
 38 75  1  0  0  0  0
 38 78  2  0  0  0  0
 39 53  1  0  0  0  0
 39 73  1  0  0  0  0
 39 79  2  0  0  0  0
 40 63  1  0  0  0  0
 40 69  1  0  0  0  0
 40 80  2  0  0  0  0
 41 64  1  0  0  0  0
 41 74  1  0  0  0  0
 41 81  2  0  0  0  0
 42 70  1  0  0  0  0
 42 75  1  0  0  0  0
 42 82  2  0  0  0  0
 43 46  1  0  0  0  0
 44 53  1  0  0  0  0
 45 69  1  0  0  0  0
 46 48  1  0  0  0  0
 47 49  1  0  0  0  0
 47 50  1  0  0  0  0
 48 52  1  0  0  0  0
 49 54  1  0  0  0  0
 50 70  1  0  0  0  0
 51 54  1  0  0  0  0
 51 70  1  0  0  0  0
 52 73  1  0  0  0  0
 53 69  1  0  0  0  0
 54 68  1  0  0  0  0
 55 64  1  0  0  0  0
 56 65  1  0  0  0  0
 57 65  1  0  0  0  0
 58 65  1  0  0  0  0
 59 75  1  0  0  0  0
 60 76  1  0  0  0  0
 61 62  1  0  0  0  0
 61 84  1  0  0  0  0
 62 85  1  0  0  0  0
 63 65  1  0  0  0  0
 63 74  1  0  0  0  0
 64 76  1  0  0  0  0
 66 68  1  0  0  0  0
M  CHG  1  76   1
M  ISO  4  42 100  61 101  75 100  84 101
M  END
> <Batch ID>
0115

> <Smiles>
C=Cc1cc(C=C)c(C(=O)[100N:0](C)[100C:0](=O)N2CCCC(n3nc(-c4ccc(Oc5ccc(F)cc5F)cc4)c(C(N)=O)c3N)C2)nc1OC[101CH2:1][101O:1]c1ccc2c(c1)CN(C(=O)C(NC(=O)C(C)NC)C(C)(C)C)C(C(=O)NC1CCCc3ccccc31)C2

> <Shape>
0.195

> <Color>
0.058

> <Negative vol penalty>
0.000

$$$$

  -OEChem-04052301403D

 80 88  0     1  0  0  0  0  0999 V2000
  -29.3582  -29.2845   26.9200 C   0  0  0  0  0  0  0  0  0  0  0  0
  -29.0199  -28.4848   25.8331 C   0  0  0  0  0  0  0  0  0  0  0  0
  -24.6042   -8.9545   20.7176 C   0  0  0  0  0  0  0  0  0  0  0  0
  -22.9260  -10.6821   20.5288 C   0  0  0  0  0  0  0  0  0  0  0  0
  -28.3668  -29.9907   27.5998 C   0  0  0  0  0  0  0  0  0  0  0  0
  -27.6896  -28.3900   25.4260 C   0  0  0  0  0  0  0  0  0  0  0  0
  -27.1655  -28.7437   20.4015 C   0  0  0  0  0  0  0  0  0  0  0  0
  -23.6207   -8.0402   21.0948 C   0  0  0  0  0  0  0  0  0  0  0  0
  -21.9423   -9.7679   20.9059 C   0  0  0  0  0  0  0  0  0  0  0  0
  -27.4692  -27.6105   19.6483 C   0  0  0  0  0  0  0  0  0  0  0  0
  -21.8729   -7.2718   23.8839 C   0  0  0  0  0  0  0  0  0  0  0  0
  -22.1471   -6.4357   24.9662 C   0  0  0  0  0  0  0  0  0  0  0  0
  -25.1180  -27.0957   19.4860 C   0  0  0  0  0  0  0  0  0  0  0  0
  -27.6183  -20.5245   17.9291 C   0  0  0  0  0  0  0  0  0  0  0  0
  -21.8775   -4.5031   23.5416 C   0  0  0  0  0  0  0  0  0  0  0  0
  -24.2569  -10.2755   20.4347 C   0  0  0  0  0  0  0  0  0  0  0  0
  -25.7128  -11.5056   18.7391 C   0  0  0  0  0  0  0  0  0  0  0  0
  -27.0249  -29.9121   27.1949 C   0  0  0  0  0  0  0  0  0  0  0  0
  -25.8342  -29.0560   20.7124 C   0  0  0  0  0  0  0  0  0  0  0  0
  -26.6790  -29.0947   26.1019 C   0  0  0  0  0  0  0  0  0  0  0  0
  -24.7999  -28.2349   20.2411 C   0  0  0  0  0  0  0  0  0  0  0  0
  -27.6321  -19.1082   18.0851 C   0  0  0  0  0  0  0  0  0  0  0  0
  -22.2897   -8.4469   21.1890 C   0  0  0  0  0  0  0  0  0  0  0  0
  -26.4456  -26.7847   19.1929 C   0  0  0  0  0  0  0  0  0  0  0  0
  -21.6009   -6.7235   22.6304 C   0  0  0  0  0  0  0  0  0  0  0  0
  -22.1494   -5.0514   24.7951 C   0  0  0  0  0  0  0  0  0  0  0  0
  -21.6032   -5.3392   22.4593 C   0  0  0  0  0  0  0  0  0  0  0  0
  -25.2726  -11.2205   20.0455 C   0  0  0  0  0  0  0  0  0  0  0  0
  -27.9789  -21.1762   19.0879 C   0  0  0  0  0  0  0  0  0  0  0  0
  -26.6810  -12.4655   18.9048 C   0  0  0  0  0  0  0  0  0  0  0  0
  -28.0031  -18.7315   19.3572 C   0  0  0  0  0  0  0  0  0  0  0  0
  -28.0848  -22.6243   19.3326 C   0  0  0  0  0  0  0  0  0  0  0  0
  -27.8575  -23.5822   18.4205 C   0  0  0  0  0  0  0  0  0  0  0  0
  -25.2846  -10.9523   17.4876 C   0  0  0  0  0  0  0  0  0  0  0  0
  -24.1670  -29.3426   23.4035 C   0  0  0  0  0  0  0  0  0  0  0  0
  -21.8341  -30.3583   21.3914 C   0  0  0  0  0  0  0  0  0  0  0  0
  -20.5301  -30.3685   18.2377 C   0  0  0  0  0  0  0  0  0  0  0  0
  -28.5326  -17.1615   21.2549 C   0  0  0  0  0  0  0  0  0  0  0  0
  -25.9819  -30.6566   27.9901 C   0  0  0  0  0  0  0  0  0  0  0  0
  -25.5215  -30.2967   21.5032 C   0  0  0  0  0  0  0  0  0  0  0  0
  -23.3530  -28.5372   20.5303 C   0  0  0  0  0  0  0  0  0  0  0  0
  -24.6469  -30.7967   27.2631 C   0  0  0  0  0  0  0  0  0  0  0  0
  -28.9713  -14.1450   23.0948 C   0  0  0  0  0  0  0  0  0  0  0  0
  -24.2283  -29.4625   26.6537 C   0  0  0  0  0  0  0  0  0  0  0  0
  -28.0844  -13.1387   22.3580 C   0  0  0  0  0  0  0  0  0  0  0  0
  -28.3439  -15.5375   23.1263 C   0  0  0  0  0  0  0  0  0  0  0  0
  -27.0574  -15.0618   21.0799 C   0  0  0  0  0  0  0  0  0  0  0  0
  -25.2504  -28.9857   25.6147 C   0  0  1  0  0  0  0  0  0  0  0  0
  -24.1637  -30.2371   22.1962 C   0  0  1  0  0  0  0  0  0  0  0  0
  -27.6775  -13.6596   20.9657 C   0  0  2  0  0  0  0  0  0  0  0  0
  -27.2853  -18.1614   16.9981 C   0  0  0  0  0  0  0  0  0  0  0  0
  -18.5950  -31.2560   16.9090 C   0  0  0  0  0  0  0  0  0  0  0  0
  -20.0144  -28.2500   22.6379 C   0  0  0  0  0  0  0  0  0  0  0  0
  -18.4728  -28.5262   20.6845 C   0  0  0  0  0  0  0  0  0  0  0  0
  -18.9140  -30.4537   22.2053 C   0  0  0  0  0  0  0  0  0  0  0  0
  -22.3155  -31.9014   16.4429 C   0  0  0  0  0  0  0  0  0  0  0  0
  -27.9915  -25.0424   18.7127 C   0  0  0  0  0  0  0  0  0  1  0  0
  -20.7253  -29.6892   20.6157 C   0  0  1  0  0  0  0  0  0  0  0  0
  -20.0270  -31.4999   17.3594 C   0  0  2  0  0  0  0  0  0  0  0  0
  -19.5589  -29.2227   21.5319 C   0  0  0  0  0  0  0  0  0  0  0  0
  -25.9091  -11.9409   20.9728 N   0  0  0  0  0  0  0  0  0  0  0  0
  -26.7592  -12.6881   20.2482 N   0  0  0  0  0  0  0  0  0  0  0  0
  -23.0988  -29.7581   21.3127 N   0  0  0  0  0  0  0  0  0  0  0  0
  -27.9882  -15.9669   21.7721 N   0  0  0  0  0  0  0  0  0  0  0  0
  -27.4648  -13.1324   18.0311 N   0  0  0  0  0  0  0  0  0  0  0  0
  -24.2793   -9.9757   17.4979 N   0  0  0  0  0  0  0  0  0  0  0  0
  -28.1485  -17.4508   19.9459 N   0  0  0  0  0  0  0  0  0  0  0  0
  -25.0824  -29.7080   24.3720 N   0  0  0  0  0  0  0  0  0  0  0  0
  -20.3279  -30.6323   19.5759 N   0  0  0  0  0  0  0  0  0  0  0  0
  -20.8841  -31.6354   16.1478 N   0  3  0  0  0  0  0  0  0  0  0  0
  -25.7904  -11.3012   16.3940 O   0  0  0  0  0  0  0  0  0  0  0  0
  -23.3951  -28.3922   23.4533 O   0  0  0  0  0  0  0  0  0  0  0  0
  -21.5888  -31.3801   22.0375 O   0  0  0  0  0  0  0  0  0  0  0  0
  -21.0470  -29.3509   17.7820 O   0  0  0  0  0  0  0  0  0  0  0  0
  -29.3057  -17.8611   21.9143 O   0  0  0  0  0  0  0  0  0  0  0  0
  -21.3296   -7.5549   21.5567 O   0  0  0  0  0  0  0  0  0  0  0  0
  -26.7393  -25.6776   18.4580 O   0  0  0  0  0  0  0  0  0  1  0  0
  -22.4143   -4.2487   25.8341 F   0  0  0  0  0  0  0  0  0  0  0  0
  -21.3439   -4.8067   21.2572 F   0  0  0  0  0  0  0  0  0  0  0  0
  -28.3323  -20.0822   20.3570 S   0  0  0  0  0  0  0  0  0  0  0  0
  1  2  1  0  0  0  0
  1  5  2  0  0  0  0
  2  6  2  0  0  0  0
  3  8  2  0  0  0  0
  3 16  1  0  0  0  0
  4  9  1  0  0  0  0
  4 16  2  0  0  0  0
  5 18  1  0  0  0  0
  6 20  1  0  0  0  0
  7 10  2  0  0  0  0
  7 19  1  0  0  0  0
  8 23  1  0  0  0  0
  9 23  2  0  0  0  0
 10 24  1  0  0  0  0
 11 12  2  0  0  0  0
 11 25  1  0  0  0  0
 12 26  1  0  0  0  0
 13 21  1  0  0  0  0
 13 24  2  0  0  0  0
 14 22  1  0  0  0  0
 14 29  2  0  0  0  0
 15 26  2  0  0  0  0
 15 27  1  0  0  0  0
 16 28  1  0  0  0  0
 17 28  1  0  0  0  0
 17 30  2  0  0  0  0
 17 34  1  0  0  0  0
 18 20  2  0  0  0  0
 18 39  1  0  0  0  0
 19 21  2  0  0  0  0
 19 40  1  0  0  0  0
 20 48  1  0  0  0  0
 21 41  1  0  0  0  0
 22 31  2  0  0  0  0
 22 51  1  0  0  0  0
 23 76  1  0  0  0  0
 24 77  1  0  0  0  0
 25 27  2  0  0  0  0
 25 76  1  0  0  0  0
 26 78  1  0  0  0  0
 27 79  1  0  0  0  0
 28 61  2  0  0  0  0
 29 32  1  0  0  0  0
 29 80  1  0  0  0  0
 30 62  1  0  0  0  0
 30 65  1  0  0  0  0
 31 67  1  0  0  0  0
 31 80  1  0  0  0  0
 32 33  2  0  0  0  0
 33 57  1  0  0  0  0
 34 66  1  0  0  0  0
 34 71  2  0  0  0  0
 35 49  1  0  0  0  0
 35 68  1  0  0  0  0
 35 72  2  0  0  0  0
 36 58  1  0  0  0  0
 36 63  1  0  0  0  0
 36 73  2  0  0  0  0
 37 59  1  0  0  0  0
 37 69  1  0  0  0  0
 37 74  2  0  0  0  0
 38 64  1  0  0  0  0
 38 67  1  0  0  0  0
 38 75  2  0  0  0  0
 39 42  1  0  0  0  0
 40 49  1  0  0  0  0
 41 63  1  0  0  0  0
 42 44  1  0  0  0  0
 43 45  1  0  0  0  0
 43 46  1  0  0  0  0
 44 48  1  0  0  0  0
 45 50  1  0  0  0  0
 46 64  1  0  0  0  0
 47 50  1  0  0  0  0
 47 64  1  0  0  0  0
 48 68  1  0  0  0  0
 49 63  1  0  0  0  0
 50 62  1  0  0  0  0
 52 59  1  0  0  0  0
 53 60  1  0  0  0  0
 54 60  1  0  0  0  0
 55 60  1  0  0  0  0
 56 70  1  0  0  0  0
 57 77  1  0  0  0  0
 58 60  1  0  0  0  0
 58 69  1  0  0  0  0
 59 70  1  0  0  0  0
 61 62  1  0  0  0  0
M  CHG  1  70   1
M  ISO  4  38 100  57 101  67 100  77 101
M  END
> <Batch ID>
0115

> <Smiles>
CNC(C)C(=O)NC(C(=O)N1Cc2cc([101O:1][101CH2:1]C=Cc3cc(C)c([100NH:0][100C:0](=O)N4CCCC(n5nc(-c6ccc(Oc7ccc(F)cc7F)cc6)c(C(N)=O)c5N)C4)s3)ccc2CC1C(=O)NC1CCCc2ccccc21)C(C)(C)C

> <Shape>
0.276

> <Color>
0.106

> <Negative vol penalty>
0.000

$$$$

  -OEChem-04052301403D

 86 94  0     1  0  0  0  0  0999 V2000
  -21.7581  -22.0799   20.3210 C   0  0  0  0  0  0  0  0  0  0  0  0
  -22.8273  -21.6445   19.5446 C   0  0  0  0  0  0  0  0  0  0  0  0
  -23.9109  -29.0002   21.3797 C   0  0  0  0  0  0  0  0  0  0  0  0
  -25.5479  -30.1143   19.9955 C   0  0  0  0  0  0  0  0  0  0  0  0
  -21.4345  -21.4081   21.4991 C   0  0  0  0  0  0  0  0  0  0  0  0
  -23.5742  -20.5377   19.9466 C   0  0  0  0  0  0  0  0  0  0  0  0
  -27.2393  -15.0012   17.2578 C   0  0  0  0  0  0  0  0  0  0  0  0
  -23.8510  -30.1194   22.2099 C   0  0  0  0  0  0  0  0  0  0  0  0
  -25.4880  -31.2337   20.8257 C   0  0  0  0  0  0  0  0  0  0  0  0
  -28.4904  -14.3925   17.3470 C   0  0  0  0  0  0  0  0  0  0  0  0
  -23.5346  -32.5474   24.8985 C   0  0  0  0  0  0  0  0  0  0  0  0
  -23.5550  -32.3360   26.2771 C   0  0  0  0  0  0  0  0  0  0  0  0
  -30.3830  -16.8688   22.0899 C   0  0  0  0  0  0  0  0  0  0  0  0
  -27.7902  -13.2623   19.3599 C   0  0  0  0  0  0  0  0  0  0  0  0
  -25.7117  -31.2648   26.0809 C   0  0  0  0  0  0  0  0  0  0  0  0
  -29.9887  -18.6920   20.0983 C   0  0  0  0  0  0  0  0  0  0  0  0
  -24.7594  -28.9976   20.2725 C   0  0  0  0  0  0  0  0  0  0  0  0
  -29.4586  -17.8910   22.2741 C   0  0  0  0  0  0  0  0  0  0  0  0
  -29.2518  -18.8241   21.2642 C   0  0  0  0  0  0  0  0  0  0  0  0
  -24.0350  -27.5839   18.2764 C   0  0  0  0  0  0  0  0  0  0  0  0
  -22.1718  -20.2867   21.9107 C   0  0  0  0  0  0  0  0  0  0  0  0
  -26.2563  -14.7530   18.2265 C   0  0  0  0  0  0  0  0  0  0  0  0
  -23.2610  -19.8512   21.1320 C   0  0  0  0  0  0  0  0  0  0  0  0
  -26.5266  -13.8671   19.2792 C   0  0  0  0  0  0  0  0  0  0  0  0
  -24.6396  -31.2362   21.9329 C   0  0  0  0  0  0  0  0  0  0  0  0
  -28.7671  -13.5251   18.3998 C   0  0  0  0  0  0  0  0  0  0  0  0
  -24.6027  -32.1174   24.1110 C   0  0  0  0  0  0  0  0  0  0  0  0
  -24.6436  -31.6948   26.8683 C   0  0  0  0  0  0  0  0  0  0  0  0
  -25.6912  -31.4761   24.7022 C   0  0  0  0  0  0  0  0  0  0  0  0
  -24.8220  -27.8415   19.4148 C   0  0  0  0  0  0  0  0  0  0  0  0
  -31.0691  -16.8241   20.8869 C   0  0  0  0  0  0  0  0  0  0  0  0
  -24.4790  -26.3668   17.8203 C   0  0  0  0  0  0  0  0  0  0  0  0
  -27.9644  -16.9734   23.9889 C   0  0  0  0  0  0  0  0  0  0  0  0
  -28.7263  -17.9559   23.5321 C   0  0  0  0  0  0  0  0  0  0  0  0
  -28.2894  -19.9331   21.3895 C   0  0  0  0  0  0  0  0  0  0  0  0
  -33.0779  -14.1609   19.3608 C   0  0  0  0  0  0  0  0  0  0  0  0
  -22.9957  -28.3742   17.6841 C   0  0  0  0  0  0  0  0  0  0  0  0
  -32.3567  -13.2422   18.6892 C   0  0  0  0  0  0  0  0  0  0  0  0
  -24.6889  -16.5366   20.3398 C   0  0  0  0  0  0  0  0  0  0  0  0
  -23.0410  -13.7898   20.8517 C   0  0  0  0  0  0  0  0  0  0  0  0
  -22.9674  -10.3818   20.6875 C   0  0  0  0  0  0  0  0  0  0  0  0
  -27.1954  -21.8074   20.6268 C   0  0  0  0  0  0  0  0  0  0  0  0
  -21.8138  -19.6217   23.2162 C   0  0  0  0  0  0  0  0  0  0  0  0
  -24.9027  -15.3967   18.1012 C   0  0  0  0  0  0  0  0  0  0  0  0
  -25.4987  -13.5515   20.3339 C   0  0  0  0  0  0  0  0  0  0  0  0
  -22.4218  -18.2309   23.3781 C   0  0  0  0  0  0  0  0  0  0  0  0
  -28.3618  -23.5846   17.7138 C   0  0  0  0  0  0  0  0  0  0  0  0
  -23.8976  -18.2452   22.9924 C   0  0  0  0  0  0  0  0  0  0  0  0
  -27.5356  -24.8704   17.7378 C   0  0  0  0  0  0  0  0  0  0  0  0
  -28.7008  -23.1104   19.1236 C   0  0  0  0  0  0  0  0  0  0  0  0
  -26.6760  -24.2181   20.0302 C   0  0  0  0  0  0  0  0  0  0  0  0
  -24.0796  -18.6395   21.5218 C   0  0  1  0  0  0  0  0  0  0  0  0
  -24.1513  -15.4710   19.4269 C   0  0  1  0  0  0  0  0  0  0  0  0
  -26.2883  -24.7097   18.6252 C   0  0  1  0  0  0  0  0  0  0  0  0
  -32.7248  -11.7889   18.5682 C   0  0  0  0  0  0  0  0  0  0  0  0
  -21.4996   -8.4155   21.2133 C   0  0  0  0  0  0  0  0  0  0  0  0
  -23.6962  -14.0963   23.8159 C   0  0  0  0  0  0  0  0  0  0  0  0
  -23.0575  -11.6965   24.1338 C   0  0  0  0  0  0  0  0  0  0  0  0
  -21.3606  -13.3419   23.3364 C   0  0  0  0  0  0  0  0  0  0  0  0
  -22.8847   -9.5379   17.8521 C   0  0  0  0  0  0  0  0  0  0  0  0
  -32.7772  -15.6187   19.5250 C   0  0  0  0  0  0  0  0  0  0  0  0
  -31.1009  -13.6484   17.9595 C   0  0  0  0  0  0  0  0  0  1  0  0
  -23.2015  -12.6020   21.7694 C   0  0  1  0  0  0  0  0  0  0  0  0
  -21.9203   -9.4214   20.1532 C   0  0  2  0  0  0  0  0  0  0  0  0
  -22.8492  -12.9414   23.2453 C   0  0  0  0  0  0  0  0  0  0  0  0
  -30.8952  -17.7125   19.8829 N   0  0  0  0  0  0  0  0  0  0  0  0
  -25.6994  -26.8663   19.6666 N   0  0  0  0  0  0  0  0  0  0  0  0
  -28.1140  -20.7922   20.4395 N   0  0  0  0  0  0  0  0  0  0  0  0
  -25.4663  -25.9841   18.6800 N   0  0  0  0  0  0  0  0  0  0  0  0
  -24.1923  -14.2106   20.1712 N   0  0  0  0  0  0  0  0  0  0  0  0
  -27.4952  -23.0017   19.9462 N   0  0  0  0  0  0  0  0  0  0  0  0
  -24.1173  -25.5972   16.7718 N   0  0  0  0  0  0  0  0  0  0  0  0
  -22.6653  -29.5987   18.2803 N   0  0  0  0  0  0  0  0  0  0  0  0
  -31.9879  -15.7987   20.7171 N   0  0  0  0  0  0  0  0  0  0  0  0
  -23.7722  -17.5208   20.6567 N   0  0  0  0  0  0  0  0  0  0  0  0
  -22.3963  -11.5300   21.1943 N   0  0  0  0  0  0  0  0  0  0  0  0
  -22.4544   -8.6728   18.9805 N   0  3  0  0  0  0  0  0  0  0  0  0
  -22.3670  -27.9977   16.6660 O   0  0  0  0  0  0  0  0  0  0  0  0
  -25.8489  -16.4699   20.7290 O   0  0  0  0  0  0  0  0  0  0  0  0
  -21.9331  -14.3202   20.7372 O   0  0  0  0  0  0  0  0  0  0  0  0
  -24.1714  -10.1363   20.6616 O   0  0  0  0  0  0  0  0  0  0  0  0
  -26.1838  -21.6991   21.3240 O   0  0  0  0  0  0  0  0  0  0  0  0
  -24.5813  -32.3286   22.7426 O   0  0  0  0  0  0  0  0  0  0  0  0
  -29.9876  -12.9301   18.4897 O   0  0  0  0  0  0  0  0  0  1  0  0
  -24.6638  -31.4932   28.1923 F   0  0  0  0  0  0  0  0  0  0  0  0
  -26.7208  -31.0619   23.9511 F   0  0  0  0  0  0  0  0  0  0  0  0
  1  2  1  0  0  0  0
  1  5  2  0  0  0  0
  2  6  2  0  0  0  0
  3  8  2  0  0  0  0
  3 17  1  0  0  0  0
  4  9  1  0  0  0  0
  4 17  2  0  0  0  0
  5 21  1  0  0  0  0
  6 23  1  0  0  0  0
  7 10  2  0  0  0  0
  7 22  1  0  0  0  0
  8 25  1  0  0  0  0
  9 25  2  0  0  0  0
 10 26  1  0  0  0  0
 11 12  2  0  0  0  0
 11 27  1  0  0  0  0
 12 28  1  0  0  0  0
 13 18  1  0  0  0  0
 13 31  2  0  0  0  0
 14 24  1  0  0  0  0
 14 26  2  0  0  0  0
 15 28  2  0  0  0  0
 15 29  1  0  0  0  0
 16 19  1  0  0  0  0
 16 66  2  0  0  0  0
 17 30  1  0  0  0  0
 18 19  2  0  0  0  0
 18 34  1  0  0  0  0
 19 35  1  0  0  0  0
 20 30  1  0  0  0  0
 20 32  2  0  0  0  0
 20 37  1  0  0  0  0
 21 23  2  0  0  0  0
 21 43  1  0  0  0  0
 22 24  2  0  0  0  0
 22 44  1  0  0  0  0
 23 52  1  0  0  0  0
 24 45  1  0  0  0  0
 25 83  1  0  0  0  0
 26 84  1  0  0  0  0
 27 29  2  0  0  0  0
 27 83  1  0  0  0  0
 28 85  1  0  0  0  0
 29 86  1  0  0  0  0
 30 67  2  0  0  0  0
 31 66  1  0  0  0  0
 31 74  1  0  0  0  0
 32 69  1  0  0  0  0
 32 72  1  0  0  0  0
 33 34  2  0  0  0  0
 35 68  2  0  0  0  0
 36 38  2  0  0  0  0
 36 61  1  0  0  0  0
 37 73  1  0  0  0  0
 37 78  2  0  0  0  0
 38 55  1  0  0  0  0
 38 62  1  0  0  0  0
 39 53  1  0  0  0  0
 39 75  1  0  0  0  0
 39 79  2  0  0  0  0
 40 63  1  0  0  0  0
 40 70  1  0  0  0  0
 40 80  2  0  0  0  0
 41 64  1  0  0  0  0
 41 76  1  0  0  0  0
 41 81  2  0  0  0  0
 42 68  1  0  0  0  0
 42 71  1  0  0  0  0
 42 82  2  0  0  0  0
 43 46  1  0  0  0  0
 44 53  1  0  0  0  0
 45 70  1  0  0  0  0
 46 48  1  0  0  0  0
 47 49  1  0  0  0  0
 47 50  1  0  0  0  0
 48 52  1  0  0  0  0
 49 54  1  0  0  0  0
 50 71  1  0  0  0  0
 51 54  1  0  0  0  0
 51 71  1  0  0  0  0
 52 75  1  0  0  0  0
 53 70  1  0  0  0  0
 54 69  1  0  0  0  0
 56 64  1  0  0  0  0
 57 65  1  0  0  0  0
 58 65  1  0  0  0  0
 59 65  1  0  0  0  0
 60 77  1  0  0  0  0
 61 74  1  0  0  0  0
 62 84  1  0  0  0  0
 63 65  1  0  0  0  0
 63 76  1  0  0  0  0
 64 77  1  0  0  0  0
 67 69  1  0  0  0  0
M  CHG  1  77   1
M  ISO  4  42 100  62 101  68 100  84 101
M  END
> <Batch ID>
0115

> <Smiles>
C=Cc1cc(NCC=C(C)[101CH2:1][101O:1]c2ccc3c(c2)CN(C(=O)C(NC(=O)C(C)NC)C(C)(C)C)C(C(=O)NC2CCCc4ccccc42)C3)ncc1C=[100N:0][100C:0](=O)N1CCCC(n2nc(-c3ccc(Oc4ccc(F)cc4F)cc3)c(C(N)=O)c2N)C1

> <Shape>
0.268

> <Color>
0.054

> <Negative vol penalty>
0.000

$$$$

  -OEChem-04052301403D

 85 93  0     1  0  0  0  0  0999 V2000
  -32.9799  -29.7741   16.0873 C   0  0  0  0  0  0  0  0  0  0  0  0
  -32.0960  -28.8131   16.5676 C   0  0  0  0  0  0  0  0  0  0  0  0
  -22.6393  -16.1240   21.9190 C   0  0  0  0  0  0  0  0  0  0  0  0
  -22.9544  -16.4581   19.5470 C   0  0  0  0  0  0  0  0  0  0  0  0
  -33.2957  -30.8829   16.8714 C   0  0  0  0  0  0  0  0  0  0  0  0
  -31.5283  -28.9598   17.8327 C   0  0  0  0  0  0  0  0  0  0  0  0
  -26.5623  -27.9681   17.8604 C   0  0  0  0  0  0  0  0  0  0  0  0
  -21.6371  -17.0941   21.9225 C   0  0  0  0  0  0  0  0  0  0  0  0
  -21.9522  -17.4282   19.5505 C   0  0  0  0  0  0  0  0  0  0  0  0
  -26.1807  -26.6272   17.8526 C   0  0  0  0  0  0  0  0  0  0  0  0
  -18.5740  -17.5171   19.5681 C   0  0  0  0  0  0  0  0  0  0  0  0
  -17.6258  -17.4708   18.5461 C   0  0  0  0  0  0  0  0  0  0  0  0
  -25.7980  -26.7285   20.2322 C   0  0  0  0  0  0  0  0  0  0  0  0
  -28.9478  -17.5268   17.7227 C   0  0  0  0  0  0  0  0  0  0  0  0
  -29.7927  -17.9063   19.9540 C   0  0  0  0  0  0  0  0  0  0  0  0
  -18.2778  -19.6877   17.8409 C   0  0  0  0  0  0  0  0  0  0  0  0
  -23.2980  -15.8060   20.7313 C   0  0  0  0  0  0  0  0  0  0  0  0
  -24.1786  -13.4219   20.5116 C   0  0  0  0  0  0  0  0  0  0  0  0
  -32.7241  -31.0482   18.1428 C   0  0  0  0  0  0  0  0  0  0  0  0
  -26.5751  -28.6976   19.0579 C   0  0  0  0  0  0  0  0  0  0  0  0
  -31.8378  -30.0712   18.6350 C   0  0  0  0  0  0  0  0  0  0  0  0
  -26.1777  -28.0793   20.2521 C   0  0  0  0  0  0  0  0  0  0  0  0
  -29.7855  -17.1597   18.7758 C   0  0  0  0  0  0  0  0  0  0  0  0
  -28.1245  -19.3871   19.0260 C   0  0  0  0  0  0  0  0  0  0  0  0
  -21.2935  -17.7462   20.7382 C   0  0  0  0  0  0  0  0  0  0  0  0
  -25.8013  -26.0064   19.0390 C   0  0  0  0  0  0  0  0  0  0  0  0
  -19.3740  -18.6487   19.7266 C   0  0  0  0  0  0  0  0  0  0  0  0
  -17.4778  -18.5561   17.6825 C   0  0  0  0  0  0  0  0  0  0  0  0
  -28.1173  -18.6405   17.8478 C   0  0  0  0  0  0  0  0  0  0  0  0
  -28.9622  -19.0200   20.0792 C   0  0  0  0  0  0  0  0  0  0  0  0
  -19.2260  -19.7340   18.8630 C   0  0  0  0  0  0  0  0  0  0  0  0
  -24.3338  -14.8044   20.7271 C   0  0  0  0  0  0  0  0  0  0  0  0
  -25.4512  -12.9143   20.6083 C   0  0  0  0  0  0  0  0  0  0  0  0
  -31.9521  -14.5399   17.2762 C   0  0  0  0  0  0  0  0  0  0  0  0
  -26.0778  -22.4614   18.5611 C   0  0  0  0  0  0  0  0  0  0  0  0
  -31.1552  -15.6013   17.4192 C   0  0  0  0  0  0  0  0  0  0  0  0
  -26.3384  -23.7714   18.6063 C   0  0  0  0  0  0  0  0  0  1  0  0
  -22.9903  -12.6643   20.2474 C   0  0  0  0  0  0  0  0  0  0  0  0
  -28.8146  -30.1818   20.7566 C   0  0  0  0  0  0  0  0  0  0  0  0
  -26.2767  -31.1502   22.5297 C   0  0  0  0  0  0  0  0  0  0  0  0
  -23.0648  -30.5908   23.5383 C   0  0  0  0  0  0  0  0  0  0  0  0
  -30.8535  -15.1714   19.7750 C   0  0  0  0  0  0  0  0  0  0  0  0
  -33.1324  -32.2393   18.9730 C   0  0  0  0  0  0  0  0  0  0  0  0
  -26.9636  -30.1506   19.0451 C   0  0  0  0  0  0  0  0  0  0  0  0
  -26.1547  -28.8238   21.5611 C   0  0  0  0  0  0  0  0  0  0  0  0
  -32.1983  -32.5106   20.1495 C   0  0  0  0  0  0  0  0  0  0  0  0
  -29.6617  -13.7139   22.7151 C   0  0  0  0  0  0  0  0  0  0  0  0
  -31.8950  -31.2175   20.8996 C   0  0  0  0  0  0  0  0  0  0  0  0
  -28.1447  -13.6962   22.5296 C   0  0  0  0  0  0  0  0  0  0  0  0
  -30.2631  -15.0084   22.1800 C   0  0  0  0  0  0  0  0  0  0  0  0
  -28.4231  -15.2618   20.5448 C   0  0  0  0  0  0  0  0  0  0  0  0
  -31.1822  -30.2076   19.9922 C   0  0  1  0  0  0  0  0  0  0  0  0
  -27.4324  -30.6557   20.4062 C   0  0  1  0  0  0  0  0  0  0  0  0
  -27.7644  -13.9677   21.0634 C   0  0  2  0  0  0  0  0  0  0  0  0
  -21.2730  -31.5341   25.0206 C   0  0  0  0  0  0  0  0  0  0  0  0
  -27.7287  -30.0533   24.9789 C   0  0  0  0  0  0  0  0  0  0  0  0
  -25.5578  -30.1492   26.2223 C   0  0  0  0  0  0  0  0  0  0  0  0
  -26.5820  -32.2461   25.3411 C   0  0  0  0  0  0  0  0  0  0  0  0
  -21.2320  -31.0086   21.2525 C   0  0  0  0  0  0  0  0  0  0  0  0
  -27.0595  -21.4386   18.0864 C   0  0  0  0  0  0  0  0  0  0  0  0
  -25.5384  -30.6033   23.7275 C   0  0  1  0  0  0  0  0  0  0  0  0
  -21.8593  -31.5101   23.6176 C   0  0  2  0  0  0  0  0  0  0  0  0
  -26.3539  -30.7481   25.0433 C   0  0  0  0  0  0  0  0  0  0  0  0
  -25.6047  -15.1529   20.9446 N   0  0  0  0  0  0  0  0  0  0  0  0
  -26.2597  -13.9820   20.8662 N   0  0  0  0  0  0  0  0  0  0  0  0
  -26.5492  -30.2408   21.4979 N   0  0  0  0  0  0  0  0  0  0  0  0
  -29.8749  -15.2327   20.7871 N   0  0  0  0  0  0  0  0  0  0  0  0
  -25.9462  -11.6633   20.4972 N   0  0  0  0  0  0  0  0  0  0  0  0
  -21.7660  -13.3432   20.1811 N   0  0  0  0  0  0  0  0  0  0  0  0
  -27.2994  -20.4951   19.1496 N   0  0  0  0  0  0  0  0  0  0  0  0
  -29.7852  -30.5564   19.8472 N   0  0  0  0  0  0  0  0  0  0  0  0
  -24.2433  -31.2746   23.7501 N   0  0  0  0  0  0  0  0  0  0  0  0
  -30.6487  -16.0041   18.6442 N   0  0  0  0  0  0  0  0  0  0  0  0
  -20.7995  -31.0570   22.6729 N   0  3  0  0  0  0  0  0  0  0  0  0
  -23.0114  -11.4198   20.0916 O   0  0  0  0  0  0  0  0  0  0  0  0
  -28.9878  -29.5262   21.7773 O   0  0  0  0  0  0  0  0  0  0  0  0
  -26.5936  -32.3422   22.5071 O   0  0  0  0  0  0  0  0  0  0  0  0
  -22.9702  -29.3860   23.3149 O   0  0  0  0  0  0  0  0  0  0  0  0
  -31.8505  -14.4448   19.8765 O   0  0  0  0  0  0  0  0  0  0  0  0
  -20.3154  -18.6927   20.7412 O   0  0  0  0  0  0  0  0  0  0  0  0
  -25.4290  -24.6974   19.0343 O   0  0  0  0  0  0  0  0  0  1  0  0
  -16.5683  -18.5109   16.7002 F   0  0  0  0  0  0  0  0  0  0  0  0
  -27.3165  -18.9850   16.8294 F   0  0  0  0  0  0  0  0  0  0  0  0
  -28.9780  -19.7313   21.2154 F   0  0  0  0  0  0  0  0  0  0  0  0
  -19.9925  -20.8234   19.0095 F   0  0  0  0  0  0  0  0  0  0  0  0
  1  2  1  0  0  0  0
  1  5  2  0  0  0  0
  2  6  2  0  0  0  0
  3  8  2  0  0  0  0
  3 17  1  0  0  0  0
  4  9  1  0  0  0  0
  4 17  2  0  0  0  0
  5 19  1  0  0  0  0
  6 21  1  0  0  0  0
  7 10  2  0  0  0  0
  7 20  1  0  0  0  0
  8 25  1  0  0  0  0
  9 25  2  0  0  0  0
 10 26  1  0  0  0  0
 11 12  2  0  0  0  0
 11 27  1  0  0  0  0
 12 28  1  0  0  0  0
 13 22  1  0  0  0  0
 13 26  2  0  0  0  0
 14 23  1  0  0  0  0
 14 29  2  0  0  0  0
 15 23  2  0  0  0  0
 15 30  1  0  0  0  0
 16 28  2  0  0  0  0
 16 31  1  0  0  0  0
 17 32  1  0  0  0  0
 18 32  1  0  0  0  0
 18 33  2  0  0  0  0
 18 38  1  0  0  0  0
 19 21  2  0  0  0  0
 19 43  1  0  0  0  0
 20 22  2  0  0  0  0
 20 44  1  0  0  0  0
 21 52  1  0  0  0  0
 22 45  1  0  0  0  0
 23 73  1  0  0  0  0
 24 29  1  0  0  0  0
 24 30  2  0  0  0  0
 24 70  1  0  0  0  0
 25 80  1  0  0  0  0
 26 81  1  0  0  0  0
 27 31  2  0  0  0  0
 27 80  1  0  0  0  0
 28 82  1  0  0  0  0
 29 83  1  0  0  0  0
 30 84  1  0  0  0  0
 31 85  1  0  0  0  0
 32 64  2  0  0  0  0
 33 65  1  0  0  0  0
 33 68  1  0  0  0  0
 34 36  2  0  0  0  0
 35 37  2  0  0  0  0
 35 60  1  0  0  0  0
 36 73  1  0  0  0  0
 37 81  1  0  0  0  0
 38 69  1  0  0  0  0
 38 75  2  0  0  0  0
 39 53  1  0  0  0  0
 39 71  1  0  0  0  0
 39 76  2  0  0  0  0
 40 61  1  0  0  0  0
 40 66  1  0  0  0  0
 40 77  2  0  0  0  0
 41 62  1  0  0  0  0
 41 72  1  0  0  0  0
 41 78  2  0  0  0  0
 42 67  1  0  0  0  0
 42 73  1  0  0  0  0
 42 79  2  0  0  0  0
 43 46  1  0  0  0  0
 44 53  1  0  0  0  0
 45 66  1  0  0  0  0
 46 48  1  0  0  0  0
 47 49  1  0  0  0  0
 47 50  1  0  0  0  0
 48 52  1  0  0  0  0
 49 54  1  0  0  0  0
 50 67  1  0  0  0  0
 51 54  1  0  0  0  0
 51 67  1  0  0  0  0
 52 71  1  0  0  0  0
 53 66  1  0  0  0  0
 54 65  1  0  0  0  0
 55 62  1  0  0  0  0
 56 63  1  0  0  0  0
 57 63  1  0  0  0  0
 58 63  1  0  0  0  0
 59 74  1  0  0  0  0
 60 70  1  0  0  0  0
 61 63  1  0  0  0  0
 61 72  1  0  0  0  0
 62 74  1  0  0  0  0
 64 65  1  0  0  0  0
M  CHG  1  74   1
M  ISO  4  37 101  42 100  73 100  81 101
M  END
> <Batch ID>
0115

> <Smiles>
C=C[100N:0](c1cc(F)c(NCC=[101CH:1][101O:1]c2ccc3c(c2)CN(C(=O)C(NC(=O)C(C)NC)C(C)(C)C)C(C(=O)NC2CCCc4ccccc42)C3)c(F)c1)[100C:0](=O)N1CCCC(n2nc(-c3ccc(Oc4ccc(F)cc4F)cc3)c(C(N)=O)c2N)C1

> <Shape>
0.215

> <Color>
0.089

> <Negative vol penalty>
0.000

$$$$

  -OEChem-04052301403D

 81 89  0     1  0  0  0  0  0999 V2000
  -32.3002  -12.8344   21.3404 C   0  0  0  0  0  0  0  0  0  0  0  0
  -32.1794  -14.1900   21.0522 C   0  0  0  0  0  0  0  0  0  0  0  0
  -19.7451  -28.6163   23.3691 C   0  0  0  0  0  0  0  0  0  0  0  0
  -20.8873  -26.6485   22.5567 C   0  0  0  0  0  0  0  0  0  0  0  0
  -31.2966  -11.9480   20.9516 C   0  0  0  0  0  0  0  0  0  0  0  0
  -31.0553  -14.6599   20.3739 C   0  0  0  0  0  0  0  0  0  0  0  0
  -29.1650  -18.8808   22.4370 C   0  0  0  0  0  0  0  0  0  0  0  0
  -18.5663  -28.1825   22.7626 C   0  0  0  0  0  0  0  0  0  0  0  0
  -19.7085  -26.2146   21.9501 C   0  0  0  0  0  0  0  0  0  0  0  0
  -29.8248  -20.0768   22.1575 C   0  0  0  0  0  0  0  0  0  0  0  0
  -16.9092  -24.4102   20.4920 C   0  0  0  0  0  0  0  0  0  0  0  0
  -16.5560  -23.0695   20.6444 C   0  0  0  0  0  0  0  0  0  0  0  0
  -28.1658  -20.5938   20.4842 C   0  0  0  0  0  0  0  0  0  0  0  0
  -16.4799  -23.3620   23.0414 C   0  0  0  0  0  0  0  0  0  0  0  0
  -31.0344  -27.6173   19.6460 C   0  0  0  0  0  0  0  0  0  0  0  0
  -20.9057  -27.8493   23.2661 C   0  0  0  0  0  0  0  0  0  0  0  0
  -22.5627  -28.0121   25.1988 C   0  0  0  0  0  0  0  0  0  0  0  0
  -30.1551  -12.4087   20.2768 C   0  0  0  0  0  0  0  0  0  0  0  0
  -28.0049  -18.5266   21.7334 C   0  0  0  0  0  0  0  0  0  0  0  0
  -30.0361  -13.7787   19.9745 C   0  0  0  0  0  0  0  0  0  0  0  0
  -27.4918  -19.3939   20.7585 C   0  0  0  0  0  0  0  0  0  0  0  0
  -18.5480  -26.9817   22.0531 C   0  0  0  0  0  0  0  0  0  0  0  0
  -29.3268  -20.9321   21.1789 C   0  0  0  0  0  0  0  0  0  0  0  0
  -17.0479  -25.2269   21.6143 C   0  0  0  0  0  0  0  0  0  0  0  0
  -16.3413  -22.5454   21.9190 C   0  0  0  0  0  0  0  0  0  0  0  0
  -16.8332  -24.7027   22.8890 C   0  0  0  0  0  0  0  0  0  0  0  0
  -30.2359  -28.7045   20.1049 C   0  0  0  0  0  0  0  0  0  0  0  0
  -22.1238  -28.2971   23.8919 C   0  0  0  0  0  0  0  0  0  0  0  0
  -30.3854  -26.4089   19.7730 C   0  0  0  0  0  0  0  0  0  0  0  0
  -23.7662  -28.6651   25.3069 C   0  0  0  0  0  0  0  0  0  0  0  0
  -29.0068  -28.2855   20.5650 C   0  0  0  0  0  0  0  0  0  0  0  0
  -31.4773  -24.4891   20.3622 C   0  0  0  0  0  0  0  0  0  0  0  0
  -21.9383  -27.2272   26.2234 C   0  0  0  0  0  0  0  0  0  0  0  0
  -27.1938  -16.1336   19.8049 C   0  0  0  0  0  0  0  0  0  0  0  0
  -24.2592  -17.5049   19.9774 C   0  0  0  0  0  0  0  0  0  0  0  0
  -22.0377  -20.3465   20.0672 C   0  0  0  0  0  0  0  0  0  0  0  0
  -27.8451  -30.3971   21.2984 C   0  0  0  0  0  0  0  0  0  0  0  0
  -29.1189  -11.4059   19.8349 C   0  0  0  0  0  0  0  0  0  0  0  0
  -27.2900  -17.2455   22.0655 C   0  0  0  0  0  0  0  0  0  0  0  0
  -26.2384  -19.0695   19.9889 C   0  0  0  0  0  0  0  0  0  0  0  0
  -27.7839  -12.0387   19.4508 C   0  0  0  0  0  0  0  0  0  0  0  0
  -26.1233  -32.4769   23.6194 C   0  0  0  0  0  0  0  0  0  0  0  0
  -28.0062  -13.2462   18.5457 C   0  0  0  0  0  0  0  0  0  0  0  0
  -24.9457  -31.6129   24.0762 C   0  0  0  0  0  0  0  0  0  0  0  0
  -26.4409  -32.2666   22.1400 C   0  0  0  0  0  0  0  0  0  0  0  0
  -25.4680  -30.0040   22.1985 C   0  0  0  0  0  0  0  0  0  0  0  0
  -28.8202  -14.3304   19.2624 C   0  0  1  0  0  0  0  0  0  0  0  0
  -26.4049  -16.7433   20.9289 C   0  0  1  0  0  0  0  0  0  0  0  0
  -25.1521  -30.1332   23.6976 C   0  0  2  0  0  0  0  0  0  0  0  0
  -19.5438  -20.4603   20.3220 C   0  0  0  0  0  0  0  0  0  0  0  0
  -24.2402  -17.5531   16.9266 C   0  0  0  0  0  0  0  0  0  0  0  0
  -22.3537  -19.1957   17.0337 C   0  0  0  0  0  0  0  0  0  0  0  0
  -22.0638  -16.9032   17.9733 C   0  0  0  0  0  0  0  0  0  0  0  0
  -22.2423  -22.1575   22.3990 C   0  0  0  0  0  0  0  0  0  0  0  0
  -32.0075  -23.1018   20.1170 C   0  0  0  0  0  0  0  0  0  0  0  0
  -31.3825  -22.1253   21.0991 C   0  0  0  0  0  0  0  0  0  1  0  0
  -23.5272  -18.5661   19.1919 C   0  0  1  0  0  0  0  0  0  0  0  0
  -20.8853  -20.5690   21.0300 C   0  0  2  0  0  0  0  0  0  0  0  0
  -23.0709  -18.0600   17.7943 C   0  0  0  0  0  0  0  0  0  0  0  0
  -22.9788  -29.0710   23.2181 N   0  0  0  0  0  0  0  0  0  0  0  0
  -30.8485  -25.1275   19.4300 N   0  0  0  0  0  0  0  0  0  0  0  0
  -23.9670  -29.2779   24.1051 N   0  0  0  0  0  0  0  0  0  0  0  0
  -25.5790  -17.8024   20.3455 N   0  0  0  0  0  0  0  0  0  0  0  0
  -26.6279  -30.8420   21.8564 N   0  0  0  0  0  0  0  0  0  0  0  0
  -24.6616  -28.7691   26.3118 N   0  0  0  0  0  0  0  0  0  0  0  0
  -20.7032  -26.6261   25.9452 N   0  0  0  0  0  0  0  0  0  0  0  0
  -27.9200  -29.0184   21.1032 N   0  0  0  0  0  0  0  0  0  0  0  0
  -27.9817  -15.0643   20.1859 N   0  0  0  0  0  0  0  0  0  0  0  0
  -22.4375  -19.0271   20.0455 N   0  0  0  0  0  0  0  0  0  0  0  0
  -20.9816  -21.9210   21.6495 N   0  3  0  0  0  0  0  0  0  0  0  0
  -22.4524  -27.0774   27.3578 O   0  0  0  0  0  0  0  0  0  0  0  0
  -27.0938  -16.5979   18.6752 O   0  0  0  0  0  0  0  0  0  0  0  0
  -23.6789  -16.4538   20.2603 O   0  0  0  0  0  0  0  0  0  0  0  0
  -22.5312  -21.2518   19.3984 O   0  0  0  0  0  0  0  0  0  0  0  0
  -28.7644  -31.1782   21.0400 O   0  0  0  0  0  0  0  0  0  0  0  0
  -17.3979  -26.5579   21.4613 O   0  0  0  0  0  0  0  0  0  0  0  0
  -29.9692  -22.0998   20.9037 O   0  0  0  0  0  0  0  0  0  1  0  0
  -16.0005  -21.2582   22.0651 F   0  0  0  0  0  0  0  0  0  0  0  0
  -16.9637  -25.4827   23.9709 F   0  0  0  0  0  0  0  0  0  0  0  0
  -30.6360  -29.9775   20.0888 F   0  0  0  0  0  0  0  0  0  0  0  0
  -28.8197  -26.5877   20.4430 S   0  0  0  0  0  0  0  0  0  0  0  0
  1  2  1  0  0  0  0
  1  5  2  0  0  0  0
  2  6  2  0  0  0  0
  3  8  2  0  0  0  0
  3 16  1  0  0  0  0
  4  9  1  0  0  0  0
  4 16  2  0  0  0  0
  5 18  1  0  0  0  0
  6 20  1  0  0  0  0
  7 10  2  0  0  0  0
  7 19  1  0  0  0  0
  8 22  1  0  0  0  0
  9 22  2  0  0  0  0
 10 23  1  0  0  0  0
 11 12  2  0  0  0  0
 11 24  1  0  0  0  0
 12 25  1  0  0  0  0
 13 21  1  0  0  0  0
 13 23  2  0  0  0  0
 14 25  2  0  0  0  0
 14 26  1  0  0  0  0
 15 27  1  0  0  0  0
 15 29  2  0  0  0  0
 16 28  1  0  0  0  0
 17 28  1  0  0  0  0
 17 30  2  0  0  0  0
 17 33  1  0  0  0  0
 18 20  2  0  0  0  0
 18 38  1  0  0  0  0
 19 21  2  0  0  0  0
 19 39  1  0  0  0  0
 20 47  1  0  0  0  0
 21 40  1  0  0  0  0
 22 76  1  0  0  0  0
 23 77  1  0  0  0  0
 24 26  2  0  0  0  0
 24 76  1  0  0  0  0
 25 78  1  0  0  0  0
 26 79  1  0  0  0  0
 27 31  2  0  0  0  0
 27 80  1  0  0  0  0
 28 60  2  0  0  0  0
 29 61  1  0  0  0  0
 29 81  1  0  0  0  0
 30 62  1  0  0  0  0
 30 65  1  0  0  0  0
 31 67  1  0  0  0  0
 31 81  1  0  0  0  0
 32 55  1  0  0  0  0
 32 61  2  0  0  0  0
 33 66  1  0  0  0  0
 33 71  2  0  0  0  0
 34 48  1  0  0  0  0
 34 68  1  0  0  0  0
 34 72  2  0  0  0  0
 35 57  1  0  0  0  0
 35 63  1  0  0  0  0
 35 73  2  0  0  0  0
 36 58  1  0  0  0  0
 36 69  1  0  0  0  0
 36 74  2  0  0  0  0
 37 64  1  0  0  0  0
 37 67  1  0  0  0  0
 37 75  2  0  0  0  0
 38 41  1  0  0  0  0
 39 48  1  0  0  0  0
 40 63  1  0  0  0  0
 41 43  1  0  0  0  0
 42 44  1  0  0  0  0
 42 45  1  0  0  0  0
 43 47  1  0  0  0  0
 44 49  1  0  0  0  0
 45 64  1  0  0  0  0
 46 49  1  0  0  0  0
 46 64  1  0  0  0  0
 47 68  1  0  0  0  0
 48 63  1  0  0  0  0
 49 62  1  0  0  0  0
 50 58  1  0  0  0  0
 51 59  1  0  0  0  0
 52 59  1  0  0  0  0
 53 59  1  0  0  0  0
 54 70  1  0  0  0  0
 55 56  1  0  0  0  0
 56 77  1  0  0  0  0
 57 59  1  0  0  0  0
 57 69  1  0  0  0  0
 58 70  1  0  0  0  0
 60 62  1  0  0  0  0
M  CHG  1  70   1
M  ISO  4  37 100  56 101  67 100  77 101
M  END
> <Batch ID>
0115

> <Smiles>
CNC(C)C(=O)NC(C(=O)N1Cc2cc([101O:1][101CH2:1]C=CNc3cc(F)c([100NH:0][100C:0](=O)N4CCCC(n5nc(-c6ccc(Oc7ccc(F)cc7F)cc6)c(C(N)=O)c5N)C4)s3)ccc2CC1C(=O)NC1CCCc2ccccc21)C(C)(C)C

> <Shape>
0.226

> <Color>
0.069

> <Negative vol penalty>
0.000

$$$$

  -OEChem-04052301403D

 86 94  0     1  0  0  0  0  0999 V2000
  -28.2160  -30.5160   26.8113 C   0  0  0  0  0  0  0  0  0  0  0  0
  -28.1892  -29.2850   26.1639 C   0  0  0  0  0  0  0  0  0  0  0  0
  -22.7610  -10.5607   21.6863 C   0  0  0  0  0  0  0  0  0  0  0  0
  -24.4783   -8.9472   21.1531 C   0  0  0  0  0  0  0  0  0  0  0  0
  -27.1788  -31.4273   26.6170 C   0  0  0  0  0  0  0  0  0  0  0  0
  -27.1245  -28.9640   25.3226 C   0  0  0  0  0  0  0  0  0  0  0  0
  -28.6497  -26.8684   20.9720 C   0  0  0  0  0  0  0  0  0  0  0  0
  -21.8221   -9.5328   21.7730 C   0  0  0  0  0  0  0  0  0  0  0  0
  -23.5395   -7.9193   21.2399 C   0  0  0  0  0  0  0  0  0  0  0  0
  -29.0176  -25.5241   21.0073 C   0  0  0  0  0  0  0  0  0  0  0  0
  -22.0050   -6.1487   23.6752 C   0  0  0  0  0  0  0  0  0  0  0  0
  -22.3692   -4.9977   24.3740 C   0  0  0  0  0  0  0  0  0  0  0  0
  -30.6790  -16.3582   19.5799 C   0  0  0  0  0  0  0  0  0  0  0  0
  -26.8604  -24.9165   20.1149 C   0  0  0  0  0  0  0  0  0  0  0  0
  -31.3938  -15.2323   22.0302 C   0  0  0  0  0  0  0  0  0  0  0  0
  -22.0356   -3.6796   22.3769 C   0  0  0  0  0  0  0  0  0  0  0  0
  -24.0891  -10.2679   21.3762 C   0  0  0  0  0  0  0  0  0  0  0  0
  -30.8729  -14.9809   19.6844 C   0  0  0  0  0  0  0  0  0  0  0  0
  -25.8609  -11.8390   22.3248 C   0  0  0  0  0  0  0  0  0  0  0  0
  -26.1057  -31.1211   25.7654 C   0  0  0  0  0  0  0  0  0  0  0  0
  -27.3782  -27.2467   20.5173 C   0  0  0  0  0  0  0  0  0  0  0  0
  -26.0713  -29.8714   25.1177 C   0  0  0  0  0  0  0  0  0  0  0  0
  -26.4797  -26.2664   20.0724 C   0  0  0  0  0  0  0  0  0  0  0  0
  -31.2302  -14.4179   20.9096 C   0  0  0  0  0  0  0  0  0  0  0  0
  -22.2113   -8.2121   21.5498 C   0  0  0  0  0  0  0  0  0  0  0  0
  -28.1219  -24.5477   20.5815 C   0  0  0  0  0  0  0  0  0  0  0  0
  -21.6561   -6.0651   22.3273 C   0  0  0  0  0  0  0  0  0  0  0  0
  -30.8426  -17.1726   20.7005 C   0  0  0  0  0  0  0  0  0  0  0  0
  -22.3845   -3.7632   23.7249 C   0  0  0  0  0  0  0  0  0  0  0  0
  -31.2000  -16.6096   21.9256 C   0  0  0  0  0  0  0  0  0  0  0  0
  -21.6714   -4.8306   21.6781 C   0  0  0  0  0  0  0  0  0  0  0  0
  -25.0593  -11.3294   21.2859 C   0  0  0  0  0  0  0  0  0  0  0  0
  -26.6062  -12.8276   21.7300 C   0  0  0  0  0  0  0  0  0  0  0  0
  -30.6955  -14.1576   18.4951 C   0  0  0  0  0  0  0  0  0  0  0  0
  -25.9261  -11.4533   23.7042 C   0  0  0  0  0  0  0  0  0  0  0  0
  -29.7435  -14.5430   17.4281 C   0  0  0  0  0  0  0  0  0  0  0  0
  -24.8797  -28.7230   21.8141 C   0  0  0  0  0  0  0  0  0  0  0  0
  -29.0591  -20.3348   20.7417 C   0  0  0  0  0  0  0  0  0  0  0  0
  -23.7197  -28.5819   18.7881 C   0  0  0  0  0  0  0  0  0  0  0  0
  -23.7567  -27.0480   15.7397 C   0  0  0  0  0  0  0  0  0  0  0  0
  -24.9839  -32.1192   25.6236 C   0  0  0  0  0  0  0  0  0  0  0  0
  -27.0064  -28.7030   20.4603 C   0  0  0  0  0  0  0  0  0  0  0  0
  -25.1101  -26.6218   19.5562 C   0  0  0  0  0  0  0  0  0  0  0  0
  -24.0794  -31.8525   24.4232 C   0  0  0  0  0  0  0  0  0  0  0  0
  -26.1946  -14.9952   17.1877 C   0  0  0  0  0  0  0  0  0  0  0  0
  -23.7024  -30.3759   24.3565 C   0  0  0  0  0  0  0  0  0  0  0  0
  -25.6480  -14.0926   18.2932 C   0  0  0  0  0  0  0  0  0  0  0  0
  -27.4463  -14.4012   16.5498 C   0  0  0  0  0  0  0  0  0  0  0  0
  -27.9881  -13.1823   18.6401 C   0  0  0  0  0  0  0  0  0  0  0  0
  -24.9459  -29.4966   24.1780 C   0  0  1  0  0  0  0  0  0  0  0  0
  -25.4986  -28.9352   20.4614 C   0  0  1  0  0  0  0  0  0  0  0  0
  -26.7395  -13.7627   19.3268 C   0  0  2  0  0  0  0  0  0  0  0  0
  -22.6711  -27.1323   13.4788 C   0  0  0  0  0  0  0  0  0  0  0  0
  -21.2224  -27.2608   19.9406 C   0  0  0  0  0  0  0  0  0  0  0  0
  -20.6275  -26.5237   17.6231 C   0  0  0  0  0  0  0  0  0  0  0  0
  -20.7770  -28.9559   18.1567 C   0  0  0  0  0  0  0  0  0  0  0  0
  -26.3341  -27.6013   14.3944 C   0  0  0  0  0  0  0  0  0  0  0  0
  -27.9701  -21.0492   21.5283 C   0  0  0  0  0  0  0  0  0  0  0  0
  -29.6450  -19.1031   21.4040 C   0  0  0  0  0  0  0  0  0  0  0  0
  -27.4340  -22.2834   20.8174 C   0  0  0  0  0  0  0  0  0  1  0  0
  -22.8977  -27.5880   18.0035 C   0  0  1  0  0  0  0  0  0  0  0  0
  -23.8372  -27.6082   14.3311 C   0  0  2  0  0  0  0  0  0  0  0  0
  -21.4062  -27.5750   18.4425 C   0  0  0  0  0  0  0  0  0  0  0  0
  -25.2749  -11.9436   20.1195 N   0  0  0  0  0  0  0  0  0  0  0  0
  -31.3503  -13.0485   18.2907 N   0  0  0  0  0  0  0  0  0  0  0  0
  -26.2204  -12.8494   20.4220 N   0  0  0  0  0  0  0  0  0  0  0  0
  -28.4469  -14.0663   17.5612 N   0  0  0  0  0  0  0  0  0  0  0  0
  -24.7910  -28.0587   19.5259 N   0  0  0  0  0  0  0  0  0  0  0  0
  -31.4325  -13.0257   21.0364 N   0  0  0  0  0  0  0  0  0  0  0  0
  -27.5473  -13.6717   22.2035 N   0  0  0  0  0  0  0  0  0  0  0  0
  -25.0914  -10.4190   24.1489 N   0  0  0  0  0  0  0  0  0  0  0  0
  -25.3992  -29.5351   22.8041 N   0  0  0  0  0  0  0  0  0  0  0  0
  -23.1033  -27.9095   16.5954 N   0  0  0  0  0  0  0  0  0  0  0  0
  -25.1047  -27.1797   13.6748 N   0  3  0  0  0  0  0  0  0  0  0  0
  -26.6898  -12.0204   24.5219 O   0  0  0  0  0  0  0  0  0  0  0  0
  -30.2052  -15.2446   16.5376 O   0  0  0  0  0  0  0  0  0  0  0  0
  -23.9953  -27.8856   21.9492 O   0  0  0  0  0  0  0  0  0  0  0  0
  -29.4437  -20.7216   19.6393 O   0  0  0  0  0  0  0  0  0  0  0  0
  -23.4266  -29.7792   18.7421 O   0  0  0  0  0  0  0  0  0  0  0  0
  -24.2232  -25.9538   16.0490 O   0  0  0  0  0  0  0  0  0  0  0  0
  -21.2955   -7.2088   21.6347 O   0  0  0  0  0  0  0  0  0  0  0  0
  -30.6509  -18.5300   20.5958 O   0  0  0  0  0  0  0  0  0  0  0  0
  -28.4782  -23.2348   20.6155 O   0  0  0  0  0  0  0  0  0  1  0  0
  -22.7357   -2.6583   24.3957 F   0  0  0  0  0  0  0  0  0  0  0  0
  -31.3581  -17.3872   23.0056 F   0  0  0  0  0  0  0  0  0  0  0  0
  -21.3383   -4.7442   20.3830 F   0  0  0  0  0  0  0  0  0  0  0  0
  1  2  1  0  0  0  0
  1  5  2  0  0  0  0
  2  6  2  0  0  0  0
  3  8  2  0  0  0  0
  3 17  1  0  0  0  0
  4  9  1  0  0  0  0
  4 17  2  0  0  0  0
  5 20  1  0  0  0  0
  6 22  1  0  0  0  0
  7 10  2  0  0  0  0
  7 21  1  0  0  0  0
  8 25  1  0  0  0  0
  9 25  2  0  0  0  0
 10 26  1  0  0  0  0
 11 12  2  0  0  0  0
 11 27  1  0  0  0  0
 12 29  1  0  0  0  0
 13 18  2  0  0  0  0
 13 28  1  0  0  0  0
 14 23  1  0  0  0  0
 14 26  2  0  0  0  0
 15 24  2  0  0  0  0
 15 30  1  0  0  0  0
 16 29  2  0  0  0  0
 16 31  1  0  0  0  0
 17 32  1  0  0  0  0
 18 24  1  0  0  0  0
 18 34  1  0  0  0  0
 19 32  1  0  0  0  0
 19 33  2  0  0  0  0
 19 35  1  0  0  0  0
 20 22  2  0  0  0  0
 20 41  1  0  0  0  0
 21 23  2  0  0  0  0
 21 42  1  0  0  0  0
 22 50  1  0  0  0  0
 23 43  1  0  0  0  0
 24 69  1  0  0  0  0
 25 81  1  0  0  0  0
 26 83  1  0  0  0  0
 27 31  2  0  0  0  0
 27 81  1  0  0  0  0
 28 30  2  0  0  0  0
 28 82  1  0  0  0  0
 29 84  1  0  0  0  0
 30 85  1  0  0  0  0
 31 86  1  0  0  0  0
 32 64  2  0  0  0  0
 33 66  1  0  0  0  0
 33 70  1  0  0  0  0
 34 36  1  0  0  0  0
 34 65  2  0  0  0  0
 35 71  1  0  0  0  0
 35 75  2  0  0  0  0
 36 67  1  0  0  0  0
 36 76  2  0  0  0  0
 37 51  1  0  0  0  0
 37 72  1  0  0  0  0
 37 77  2  0  0  0  0
 38 58  1  0  0  0  0
 38 59  1  0  0  0  0
 38 78  2  0  0  0  0
 39 61  1  0  0  0  0
 39 68  1  0  0  0  0
 39 79  2  0  0  0  0
 40 62  1  0  0  0  0
 40 73  1  0  0  0  0
 40 80  2  0  0  0  0
 41 44  1  0  0  0  0
 42 51  1  0  0  0  0
 43 68  1  0  0  0  0
 44 46  1  0  0  0  0
 45 47  1  0  0  0  0
 45 48  1  0  0  0  0
 46 50  1  0  0  0  0
 47 52  1  0  0  0  0
 48 67  1  0  0  0  0
 49 52  1  0  0  0  0
 49 67  1  0  0  0  0
 50 72  1  0  0  0  0
 51 68  1  0  0  0  0
 52 66  1  0  0  0  0
 53 62  1  0  0  0  0
 54 63  1  0  0  0  0
 55 63  1  0  0  0  0
 56 63  1  0  0  0  0
 57 74  1  0  0  0  0
 58 60  1  0  0  0  0
 59 82  1  0  0  0  0
 60 83  1  0  0  0  0
 61 63  1  0  0  0  0
 61 73  1  0  0  0  0
 62 74  1  0  0  0  0
 64 66  1  0  0  0  0
M  CHG  1  74   1
M  ISO  4  34 100  36 100  60 101  83 101
M  END
> <Batch ID>
0115

> <Smiles>
CNC(C)C(=O)NC(C(=O)N1Cc2cc([101O:1][101CH2:1]CC(=O)COc3cc([100C:0](=N)[100C:0](=O)N4CCCC(n5nc(-c6ccc(Oc7ccc(F)cc7F)cc6)c(C(N)=O)c5N)C4)c(N)cc3F)ccc2CC1C(=O)NC1CCCc2ccccc21)C(C)(C)C

> <Shape>
0.295

> <Color>
0.095

> <Negative vol penalty>
0.000

$$$$

  -OEChem-04052301403D

 89 98  0     1  0  0  0  0  0999 V2000
  -27.2787  -33.6285   20.3231 C   0  0  0  0  0  0  0  0  0  0  0  0
  -27.6681  -32.3473   20.7005 C   0  0  0  0  0  0  0  0  0  0  0  0
  -22.8084  -10.0282   20.1976 C   0  0  0  0  0  0  0  0  0  0  0  0
  -24.2956   -9.6190   22.0570 C   0  0  0  0  0  0  0  0  0  0  0  0
  -26.0292  -34.1164   20.7032 C   0  0  0  0  0  0  0  0  0  0  0  0
  -26.8085  -31.5537   21.4593 C   0  0  0  0  0  0  0  0  0  0  0  0
  -26.5483  -26.7922   19.7547 C   0  0  0  0  0  0  0  0  0  0  0  0
  -22.1221   -8.8489   20.4869 C   0  0  0  0  0  0  0  0  0  0  0  0
  -23.6093   -8.4396   22.3464 C   0  0  0  0  0  0  0  0  0  0  0  0
  -27.6055  -25.9421   20.0765 C   0  0  0  0  0  0  0  0  0  0  0  0
  -20.7301   -7.5458   23.8734 C   0  0  0  0  0  0  0  0  0  0  0  0
  -20.4111   -7.2941   25.2078 C   0  0  0  0  0  0  0  0  0  0  0  0
  -26.2868  -24.9855   21.8555 C   0  0  0  0  0  0  0  0  0  0  0  0
  -31.3751  -17.9095   21.6323 C   0  0  0  0  0  0  0  0  0  0  0  0
  -29.1884  -18.2577   22.5988 C   0  0  0  0  0  0  0  0  0  0  0  0
  -21.7051   -5.2552   25.1325 C   0  0  0  0  0  0  0  0  0  0  0  0
  -23.8952  -10.4133   20.9826 C   0  0  0  0  0  0  0  0  0  0  0  0
  -24.0802  -12.9373   20.6623 C   0  0  0  0  0  0  0  0  0  0  0  0
  -25.1499  -33.3248   21.4588 C   0  0  0  0  0  0  0  0  0  0  0  0
  -25.3544  -26.7528   20.4892 C   0  0  0  0  0  0  0  0  0  0  0  0
  -25.5465  -32.0321   21.8510 C   0  0  0  0  0  0  0  0  0  0  0  0
  -25.2151  -25.8343   21.5395 C   0  0  0  0  0  0  0  0  0  0  0  0
  -31.7473  -19.1997   22.0095 C   0  0  0  0  0  0  0  0  0  0  0  0
  -30.8401  -20.0190   22.6814 C   0  0  0  0  0  0  0  0  0  0  0  0
  -30.0956  -17.4384   21.9269 C   0  0  0  0  0  0  0  0  0  0  0  0
  -29.5606  -19.5480   22.9760 C   0  0  0  0  0  0  0  0  0  0  0  0
  -22.5225   -8.0546   21.5613 C   0  0  0  0  0  0  0  0  0  0  0  0
  -27.4759  -25.0406   21.1288 C   0  0  0  0  0  0  0  0  0  0  0  0
  -21.5365   -6.6521   23.1685 C   0  0  0  0  0  0  0  0  0  0  0  0
  -20.8986   -6.1488   25.8373 C   0  0  0  0  0  0  0  0  0  0  0  0
  -22.0240   -5.5069   23.7981 C   0  0  0  0  0  0  0  0  0  0  0  0
  -24.6049  -11.6311   20.6839 C   0  0  0  0  0  0  0  0  0  0  0  0
  -25.1496  -13.7313   20.3267 C   0  0  0  0  0  0  0  0  0  0  0  0
  -30.6732  -24.2327   24.1095 C   0  0  0  0  0  0  0  0  0  0  0  0
  -30.0706  -23.5263   23.1385 C   0  0  0  0  0  0  0  0  0  0  0  0
  -32.0746  -24.0548   24.5573 C   0  0  0  0  0  0  0  0  0  0  0  0
  -22.7457  -13.3922   20.9223 C   0  0  0  0  0  0  0  0  0  0  0  0
  -23.7663  -28.8257   22.3015 C   0  0  0  0  0  0  0  0  0  0  0  0
  -21.5332  -26.4735   22.3542 C   0  0  0  0  0  0  0  0  0  0  0  0
  -21.5014  -22.8793   22.6675 C   0  0  0  0  0  0  0  0  0  0  0  0
  -30.4964  -15.1864   20.8714 C   0  0  0  0  0  0  0  0  0  0  0  0
  -23.8286  -33.9131   21.8862 C   0  0  0  0  0  0  0  0  0  0  0  0
  -24.2137  -27.6580   20.1125 C   0  0  0  0  0  0  0  0  0  0  0  0
  -23.9467  -25.7384   22.3460 C   0  0  0  0  0  0  0  0  0  0  0  0
  -32.7588  -22.7088   24.4606 C   0  0  0  0  0  0  0  0  0  0  0  0
  -22.8259  -32.8695   22.3719 C   0  0  0  0  0  0  0  0  0  0  0  0
  -29.7642  -12.5046   18.6468 C   0  0  0  0  0  0  0  0  0  0  0  0
  -23.4937  -31.8969   23.3387 C   0  0  0  0  0  0  0  0  0  0  0  0
  -28.3135  -12.1457   18.9767 C   0  0  0  0  0  0  0  0  0  0  0  0
  -31.8340  -21.5034   24.3810 C   0  0  0  0  0  0  0  0  0  0  0  0
  -30.5485  -12.9014   19.8963 C   0  0  0  0  0  0  0  0  0  0  0  0
  -28.4797  -13.5988   21.0378 C   0  0  0  0  0  0  0  0  0  0  0  0
  -24.6320  -31.1317   22.6530 C   0  0  1  0  0  0  0  0  0  0  0  0
  -30.7192  -22.4615   22.2681 C   0  0  1  0  0  0  0  0  0  0  0  0
  -23.2309  -27.8884   21.2563 C   0  0  1  0  0  0  0  0  0  0  0  0
  -27.6322  -13.2550   19.8019 C   0  0  2  0  0  0  0  0  0  0  0  0
  -33.1248  -19.6765   21.6800 C   0  0  0  0  0  0  0  0  0  0  0  0
  -31.7896  -23.0319   21.3308 C   0  0  0  0  0  0  0  0  0  0  0  0
  -19.8470  -21.1840   21.8391 C   0  0  0  0  0  0  0  0  0  0  0  0
  -20.2954  -26.7528   25.1290 C   0  0  0  0  0  0  0  0  0  0  0  0
  -19.8598  -24.2874   25.1065 C   0  0  0  0  0  0  0  0  0  0  0  0
  -18.7798  -25.7585   23.4059 C   0  0  0  0  0  0  0  0  0  0  0  0
  -23.5964  -21.3709   21.2203 C   0  0  0  0  0  0  0  0  0  0  0  0
  -28.6260  -23.8149   22.8113 C   0  0  0  0  0  0  0  0  0  1  0  0
  -21.2569  -25.2812   23.2380 C   0  0  1  0  0  0  0  0  0  0  0  0
  -21.1762  -21.8748   21.5768 C   0  0  2  0  0  0  0  0  0  0  0  0
  -20.0744  -25.5301   24.2163 C   0  0  0  0  0  0  0  0  0  0  0  0
  -25.9063  -11.5932   20.3856 N   0  0  0  0  0  0  0  0  0  0  0  0
  -26.2084  -12.8854   20.1734 N   0  0  0  0  0  0  0  0  0  0  0  0
  -31.2190  -21.3199   23.0603 N   0  0  3  0  0  0  0  0  0  0  0  0
  -22.8621  -26.6488   21.9430 N   0  0  0  0  0  0  0  0  0  0  0  0
  -29.8451  -13.9593   20.6250 N   0  0  0  0  0  0  0  0  0  0  0  0
  -28.6250  -20.3600   23.6558 N   0  0  0  0  0  0  0  0  0  0  0  0
  -25.2780  -15.0636   20.1507 N   0  0  0  0  0  0  0  0  0  0  0  0
  -21.7689  -12.4432   21.2535 N   0  0  0  0  0  0  0  0  0  0  0  0
  -29.7176  -16.1277   21.5437 N   0  0  0  0  0  0  0  0  0  0  0  0
  -24.1003  -30.0763   21.8178 N   0  0  0  0  0  0  0  0  0  0  0  0
  -21.0631  -24.1457   22.3428 N   0  0  0  0  0  0  0  0  0  0  0  0
  -22.2395  -20.8336   21.4977 N   0  3  0  0  0  0  0  0  0  0  0  0
  -32.6716  -25.0269   25.0242 O   0  0  0  0  0  0  0  0  0  0  0  0
  -22.4250  -14.6026   20.8467 O   0  0  0  0  0  0  0  0  0  0  0  0
  -23.8673  -28.4432   23.4614 O   0  0  0  0  0  0  0  0  0  0  0  0
  -20.6029  -27.2177   22.0343 O   0  0  0  0  0  0  0  0  0  0  0  0
  -22.0826  -22.5706   23.7056 O   0  0  0  0  0  0  0  0  0  0  0  0
  -31.6501  -15.3972   20.4885 O   0  0  0  0  0  0  0  0  0  0  0  0
  -21.8529   -6.9038   21.8441 O   0  0  0  0  0  0  0  0  0  0  0  0
  -28.5064  -24.2101   21.4454 O   0  0  0  0  0  0  0  0  0  1  0  0
  -20.5935   -5.9080   27.1191 F   0  0  0  0  0  0  0  0  0  0  0  0
  -22.8001   -4.6453   23.1264 F   0  0  0  0  0  0  0  0  0  0  0  0
  1  2  1  0  0  0  0
  1  5  2  0  0  0  0
  2  6  2  0  0  0  0
  3  8  2  0  0  0  0
  3 17  1  0  0  0  0
  4  9  1  0  0  0  0
  4 17  2  0  0  0  0
  5 19  1  0  0  0  0
  6 21  1  0  0  0  0
  7 10  2  0  0  0  0
  7 20  1  0  0  0  0
  8 27  1  0  0  0  0
  9 27  2  0  0  0  0
 10 28  1  0  0  0  0
 11 12  2  0  0  0  0
 11 29  1  0  0  0  0
 12 30  1  0  0  0  0
 13 22  1  0  0  0  0
 13 28  2  0  0  0  0
 14 23  2  0  0  0  0
 14 25  1  0  0  0  0
 15 25  2  0  0  0  0
 15 26  1  0  0  0  0
 16 30  2  0  0  0  0
 16 31  1  0  0  0  0
 17 32  1  0  0  0  0
 18 32  1  0  0  0  0
 18 33  2  0  0  0  0
 18 37  1  0  0  0  0
 19 21  2  0  0  0  0
 19 42  1  0  0  0  0
 20 22  2  0  0  0  0
 20 43  1  0  0  0  0
 21 53  1  0  0  0  0
 22 44  1  0  0  0  0
 23 24  1  0  0  0  0
 23 57  1  0  0  0  0
 24 26  2  0  0  0  0
 24 70  1  0  0  0  0
 25 76  1  0  0  0  0
 26 73  1  0  0  0  0
 27 86  1  0  0  0  0
 28 87  1  0  0  0  0
 29 31  2  0  0  0  0
 29 86  1  0  0  0  0
 30 88  1  0  0  0  0
 31 89  1  0  0  0  0
 32 68  2  0  0  0  0
 33 69  1  0  0  0  0
 33 74  1  0  0  0  0
 34 35  2  0  0  0  0
 34 36  1  0  0  0  0
 35 54  1  0  0  0  0
 35 64  1  0  0  0  0
 36 45  1  0  0  0  0
 36 80  2  0  0  0  0
 37 75  1  0  0  0  0
 37 81  2  0  0  0  0
 38 55  1  0  0  0  0
 38 77  1  0  0  0  0
 38 82  2  0  0  0  0
 39 65  1  0  0  0  0
 39 71  1  0  0  0  0
 39 83  2  0  0  0  0
 40 66  1  0  0  0  0
 40 78  1  0  0  0  0
 40 84  2  0  0  0  0
 41 72  1  0  0  0  0
 41 76  1  0  0  0  0
 41 85  2  0  0  0  0
 42 46  1  0  0  0  0
 43 55  1  0  0  0  0
 44 71  1  0  0  0  0
 45 50  1  0  0  0  0
 46 48  1  0  0  0  0
 47 49  1  0  0  0  0
 47 51  1  0  0  0  0
 48 53  1  0  0  0  0
 49 56  1  0  0  0  0
 50 70  1  0  0  0  0
 51 72  1  0  0  0  0
 52 56  1  0  0  0  0
 52 72  1  0  0  0  0
 53 77  1  0  0  0  0
 54 58  1  0  0  0  0
 54 70  1  0  0  0  0
 55 71  1  0  0  0  0
 56 69  1  0  0  0  0
 59 66  1  0  0  0  0
 60 67  1  0  0  0  0
 61 67  1  0  0  0  0
 62 67  1  0  0  0  0
 63 79  1  0  0  0  0
 64 87  1  0  0  0  0
 65 67  1  0  0  0  0
 65 78  1  0  0  0  0
 66 79  1  0  0  0  0
 68 69  1  0  0  0  0
M  CHG  1  79   1
M  ISO  4  41 100  64 101  76 100  87 101
M  END
> <Batch ID>
0115

> <Smiles>
CNC(C)C(=O)NC(C(=O)N1Cc2cc([101O:1][101CH2:1]C3=C(C)N(c4c(C)cc([100NH:0][100C:0](=O)N5CCCC(n6nc(-c7ccc(Oc8ccc(F)cc8F)cc7)c(C(N)=O)c6N)C5)cc4N)CCC(=O)C3)ccc2CC1C(=O)NC1CCCc2ccccc21)C(C)(C)C

> <Shape>
0.282

> <Color>
0.186

> <Negative vol penalty>
0.000

$$$$

  -OEChem-04052301403D

 90 98  0     1  0  0  0  0  0999 V2000
  -27.3261  -37.0896   23.8601 C   0  0  0  0  0  0  0  0  0  0  0  0
  -27.9189  -35.9082   23.4261 C   0  0  0  0  0  0  0  0  0  0  0  0
  -24.3372   -9.3040   22.4048 C   0  0  0  0  0  0  0  0  0  0  0  0
  -24.4642   -8.8982   20.0265 C   0  0  0  0  0  0  0  0  0  0  0  0
  -26.0799  -37.0545   24.4842 C   0  0  0  0  0  0  0  0  0  0  0  0
  -27.2662  -34.6908   23.6170 C   0  0  0  0  0  0  0  0  0  0  0  0
  -27.3706  -29.8331   19.8890 C   0  0  0  0  0  0  0  0  0  0  0  0
  -23.2193   -8.4739   22.4867 C   0  0  0  0  0  0  0  0  0  0  0  0
  -23.3463   -8.0681   20.1084 C   0  0  0  0  0  0  0  0  0  0  0  0
  -28.1112  -28.6521   19.9078 C   0  0  0  0  0  0  0  0  0  0  0  0
  -20.5493   -6.1753   23.3825 C   0  0  0  0  0  0  0  0  0  0  0  0
  -20.5031   -5.2508   24.4260 C   0  0  0  0  0  0  0  0  0  0  0  0
  -28.0107  -19.8904   18.3728 C   0  0  0  0  0  0  0  0  0  0  0  0
  -30.1229  -21.6203   18.9461 C   0  0  0  0  0  0  0  0  0  0  0  0
  -26.2859  -27.5322   21.0184 C   0  0  0  0  0  0  0  0  0  0  0  0
  -22.5349   -4.2290   23.6106 C   0  0  0  0  0  0  0  0  0  0  0  0
  -24.9597   -9.5162   21.1746 C   0  0  0  0  0  0  0  0  0  0  0  0
  -29.2288  -19.3793   18.8206 C   0  0  0  0  0  0  0  0  0  0  0  0
  -30.2849  -20.2442   19.1073 C   0  0  0  0  0  0  0  0  0  0  0  0
  -27.4641   -9.9986   21.2252 C   0  0  0  0  0  0  0  0  0  0  0  0
  -25.4072  -35.8371   24.6743 C   0  0  0  0  0  0  0  0  0  0  0  0
  -26.0841  -29.8755   20.4455 C   0  0  0  0  0  0  0  0  0  0  0  0
  -26.0104  -34.6393   24.2455 C   0  0  0  0  0  0  0  0  0  0  0  0
  -25.5300  -28.7144   21.0031 C   0  0  0  0  0  0  0  0  0  0  0  0
  -27.8487  -21.2664   18.2116 C   0  0  0  0  0  0  0  0  0  0  0  0
  -22.7238   -7.8559   21.3385 C   0  0  0  0  0  0  0  0  0  0  0  0
  -27.5701  -27.5021   20.4751 C   0  0  0  0  0  0  0  0  0  0  0  0
  -21.5882   -6.1266   22.4531 C   0  0  0  0  0  0  0  0  0  0  0  0
  -28.9048  -22.1313   18.4982 C   0  0  0  0  0  0  0  0  0  0  0  0
  -21.4959   -4.2777   24.5401 C   0  0  0  0  0  0  0  0  0  0  0  0
  -22.5810   -5.1535   22.5671 C   0  0  0  0  0  0  0  0  0  0  0  0
  -26.1142  -10.3741   21.0893 C   0  0  0  0  0  0  0  0  0  0  0  0
  -28.1641  -11.1691   21.0621 C   0  0  0  0  0  0  0  0  0  0  0  0
  -33.2389  -19.7466   21.3948 C   0  0  0  0  0  0  0  0  0  0  0  0
  -28.9094  -17.2734   15.4722 C   0  0  0  0  0  0  0  0  0  0  0  0
  -32.0748  -20.1926   20.9125 C   0  0  0  0  0  0  0  0  0  0  0  0
  -29.5190  -17.6273   16.6057 C   0  0  0  0  0  0  0  0  0  0  0  0
  -31.5702  -19.7413   19.5752 C   0  0  0  0  0  0  0  0  0  0  0  0
  -29.3717  -17.9113   18.9801 C   0  0  0  0  0  0  0  0  0  0  0  0
  -28.0344   -8.7074   21.4764 C   0  0  0  0  0  0  0  0  0  0  0  0
  -24.7224  -31.4794   22.8281 C   0  0  0  0  0  0  0  0  0  0  0  0
  -22.0230  -30.0604   21.7227 C   0  0  0  0  0  0  0  0  0  0  0  0
  -20.6040  -27.4770   20.0024 C   0  0  0  0  0  0  0  0  0  0  0  0
  -28.1027  -25.5301   19.3663 C   0  0  0  0  0  0  0  0  0  1  0  0
  -28.7966  -15.7263   17.8436 C   0  0  0  0  0  0  0  0  0  0  0  0
  -24.0832  -35.8443   25.3965 C   0  0  0  0  0  0  0  0  0  0  0  0
  -25.2877  -31.1504   20.3933 C   0  0  0  0  0  0  0  0  0  0  0  0
  -24.1453  -28.7020   21.5955 C   0  0  0  0  0  0  0  0  0  0  0  0
  -23.2885  -34.5524   25.2244 C   0  0  0  0  0  0  0  0  0  0  0  0
  -26.6279  -15.9621   20.9288 C   0  0  0  0  0  0  0  0  0  0  0  0
  -24.1874  -33.3395   25.4427 C   0  0  0  0  0  0  0  0  0  0  0  0
  -26.3384  -14.4838   21.1693 C   0  0  0  0  0  0  0  0  0  0  0  0
  -26.9198  -16.2546   19.4606 C   0  0  0  0  0  0  0  0  0  0  0  0
  -27.7012  -13.9195   19.1198 C   0  0  0  0  0  0  0  0  0  0  0  0
  -25.3226  -33.3017   24.4124 C   0  0  1  0  0  0  0  0  0  0  0  0
  -24.1884  -31.2118   21.4494 C   0  0  1  0  0  0  0  0  0  0  0  0
  -27.4728  -13.6147   20.6073 C   0  0  2  0  0  0  0  0  0  0  0  0
  -18.3731  -26.5685   19.2990 C   0  0  0  0  0  0  0  0  0  0  0  0
  -21.5445  -29.0452   24.5600 C   0  0  0  0  0  0  0  0  0  0  0  0
  -19.8950  -27.4116   23.6227 C   0  0  0  0  0  0  0  0  0  0  0  0
  -19.4938  -29.8621   23.3846 C   0  0  0  0  0  0  0  0  0  0  0  0
  -21.2795  -27.7219   17.1314 C   0  0  0  0  0  0  0  0  0  0  0  0
  -28.9463  -24.2884   19.4989 C   0  0  0  0  0  0  0  0  0  0  0  0
  -21.3049  -28.7628   22.0048 C   0  0  1  0  0  0  0  0  0  0  0  0
  -19.5484  -27.4524   18.9117 C   0  0  2  0  0  0  0  0  0  0  0  0
  -20.5864  -28.7709   23.3837 C   0  0  0  0  0  0  0  0  0  0  0  0
  -25.9632  -11.6808   20.8578 N   0  0  0  0  0  0  0  0  0  0  0  0
  -27.2274  -12.1367   20.8471 N   0  0  0  0  0  0  0  0  0  0  0  0
  -23.4086  -29.9748   21.5261 N   0  0  0  0  0  0  0  0  0  0  0  0
  -27.9250  -15.3481   18.8873 N   0  0  0  0  0  0  0  0  0  0  0  0
  -26.6099  -21.7705   17.7583 N   0  0  0  0  0  0  0  0  0  0  0  0
  -29.4834  -11.4546   21.0831 N   0  0  0  0  0  0  0  0  0  0  0  0
  -27.1716   -7.6120   21.6180 N   0  0  0  0  0  0  0  0  0  0  0  0
  -24.8328  -32.8215   23.1381 N   0  0  0  0  0  0  0  0  0  0  0  0
  -20.4175  -28.5323   20.8700 N   0  0  0  0  0  0  0  0  0  0  0  0
  -29.1905  -17.0891   17.8366 N   0  0  0  0  0  0  0  0  0  0  0  0
  -20.1285  -26.9329   17.6410 N   0  3  0  0  0  0  0  0  0  0  0  0
  -32.2223  -18.9369   18.8948 O   0  0  0  0  0  0  0  0  0  0  0  0
  -29.6411  -17.4944   20.1073 O   0  0  0  0  0  0  0  0  0  0  0  0
  -29.2715   -8.5329   21.5888 O   0  0  0  0  0  0  0  0  0  0  0  0
  -25.0115  -30.5379   23.5573 O   0  0  0  0  0  0  0  0  0  0  0  0
  -21.3773  -31.1102   21.6712 O   0  0  0  0  0  0  0  0  0  0  0  0
  -21.5019  -26.6413   20.0793 O   0  0  0  0  0  0  0  0  0  0  0  0
  -27.3679  -25.7847   18.4214 O   0  0  0  0  0  0  0  0  0  0  0  0
  -29.2358  -14.9228   17.0123 O   0  0  0  0  0  0  0  0  0  0  0  0
  -21.6331   -7.0456   21.4182 O   0  0  0  0  0  0  0  0  0  0  0  0
  -28.2911  -26.3482   20.4954 O   0  0  0  0  0  0  0  0  0  1  0  0
  -28.7644  -23.4897   18.3465 O   0  0  0  0  0  0  0  0  0  0  0  0
  -21.4522   -3.3909   25.5430 F   0  0  0  0  0  0  0  0  0  0  0  0
  -23.5823   -5.1024   21.6779 F   0  0  0  0  0  0  0  0  0  0  0  0
  1  2  1  0  0  0  0
  1  5  2  0  0  0  0
  2  6  2  0  0  0  0
  3  8  2  0  0  0  0
  3 17  1  0  0  0  0
  4  9  1  0  0  0  0
  4 17  2  0  0  0  0
  5 21  1  0  0  0  0
  6 23  1  0  0  0  0
  7 10  2  0  0  0  0
  7 22  1  0  0  0  0
  8 26  1  0  0  0  0
  9 26  2  0  0  0  0
 10 27  1  0  0  0  0
 11 12  2  0  0  0  0
 11 28  1  0  0  0  0
 12 30  1  0  0  0  0
 13 18  1  0  0  0  0
 13 25  2  0  0  0  0
 14 19  1  0  0  0  0
 14 29  2  0  0  0  0
 15 24  1  0  0  0  0
 15 27  2  0  0  0  0
 16 30  2  0  0  0  0
 16 31  1  0  0  0  0
 17 32  1  0  0  0  0
 18 19  2  0  0  0  0
 18 39  1  0  0  0  0
 19 38  1  0  0  0  0
 20 32  1  0  0  0  0
 20 33  2  0  0  0  0
 20 40  1  0  0  0  0
 21 23  2  0  0  0  0
 21 46  1  0  0  0  0
 22 24  2  0  0  0  0
 22 47  1  0  0  0  0
 23 55  1  0  0  0  0
 24 48  1  0  0  0  0
 25 29  1  0  0  0  0
 25 71  1  0  0  0  0
 26 86  1  0  0  0  0
 27 87  1  0  0  0  0
 28 31  2  0  0  0  0
 28 86  1  0  0  0  0
 29 88  1  0  0  0  0
 30 89  1  0  0  0  0
 31 90  1  0  0  0  0
 32 67  2  0  0  0  0
 33 68  1  0  0  0  0
 33 72  1  0  0  0  0
 34 36  2  0  0  0  0
 35 37  2  0  0  0  0
 36 38  1  0  0  0  0
 37 76  1  0  0  0  0
 38 78  2  0  0  0  0
 39 76  1  0  0  0  0
 39 79  2  0  0  0  0
 40 73  1  0  0  0  0
 40 80  2  0  0  0  0
 41 56  1  0  0  0  0
 41 74  1  0  0  0  0
 41 81  2  0  0  0  0
 42 64  1  0  0  0  0
 42 69  1  0  0  0  0
 42 82  2  0  0  0  0
 43 65  1  0  0  0  0
 43 75  1  0  0  0  0
 43 83  2  0  0  0  0
 44 63  1  0  0  0  0
 44 84  2  0  0  0  0
 44 87  1  0  0  0  0
 45 70  1  0  0  0  0
 45 76  1  0  0  0  0
 45 85  2  0  0  0  0
 46 49  1  0  0  0  0
 47 56  1  0  0  0  0
 48 69  1  0  0  0  0
 49 51  1  0  0  0  0
 50 52  1  0  0  0  0
 50 53  1  0  0  0  0
 51 55  1  0  0  0  0
 52 57  1  0  0  0  0
 53 70  1  0  0  0  0
 54 57  1  0  0  0  0
 54 70  1  0  0  0  0
 55 74  1  0  0  0  0
 56 69  1  0  0  0  0
 57 68  1  0  0  0  0
 58 65  1  0  0  0  0
 59 66  1  0  0  0  0
 60 66  1  0  0  0  0
 61 66  1  0  0  0  0
 62 77  1  0  0  0  0
 63 88  1  0  0  0  0
 64 66  1  0  0  0  0
 64 75  1  0  0  0  0
 65 77  1  0  0  0  0
 67 68  1  0  0  0  0
M  CHG  1  77   1
M  ISO  4  44 101  45 100  76 100  87 101
M  END
> <Batch ID>
0115

> <Smiles>
C=CC(=O)c1cc(OC[101C:1](=O)[101O:1]c2ccc3c(c2)CN(C(=O)C(NC(=O)C(C)NC)C(C)(C)C)C(C(=O)NC2CCCc4ccccc42)C3)c(N)cc1C(=O)[100N:0](C=C)[100C:0](=O)N1CCCC(n2nc(-c3ccc(Oc4ccc(F)cc4F)cc3)c(C(N)=O)c2N)C1

> <Shape>
0.334

> <Color>
0.113

> <Negative vol penalty>
0.000

$$$$

  -OEChem-04052301403D

 88 96  0     1  0  0  0  0  0999 V2000
  -22.3431  -25.7139   22.8755 C   0  0  0  0  0  0  0  0  0  0  0  0
  -21.3891  -26.3147   23.2888 C   0  0  0  0  0  0  0  0  0  0  0  0
  -17.3365  -11.5329   21.7081 C   0  0  0  0  0  0  0  0  0  0  0  0
  -17.9141  -12.6096   22.3734 C   0  0  0  0  0  0  0  0  0  0  0  0
  -23.2996  -23.8377   21.6324 C   0  0  0  0  0  0  0  0  0  0  0  0
  -28.1348  -29.5507   21.2303 C   0  0  0  0  0  0  0  0  0  0  0  0
  -26.9855  -27.8522   19.9530 C   0  0  0  0  0  0  0  0  0  0  0  0
  -18.1053  -10.4112   21.4006 C   0  0  0  0  0  0  0  0  0  0  0  0
  -19.2608  -12.5646   22.7325 C   0  0  0  0  0  0  0  0  0  0  0  0
  -23.9006  -17.5357   20.3551 C   0  0  0  0  0  0  0  0  0  0  0  0
  -24.4079  -23.1402   21.1521 C   0  0  0  0  0  0  0  0  0  0  0  0
  -29.3304  -28.8458   21.0920 C   0  0  0  0  0  0  0  0  0  0  0  0
  -28.1812  -27.1473   19.8146 C   0  0  0  0  0  0  0  0  0  0  0  0
  -24.8074  -18.5678   20.1132 C   0  0  0  0  0  0  0  0  0  0  0  0
  -30.9695  -27.3244   17.9134 C   0  0  0  0  0  0  0  0  0  0  0  0
  -31.2810  -26.8214   16.6502 C   0  0  0  0  0  0  0  0  0  0  0  0
  -24.7656  -25.4638   22.6541 C   0  0  0  0  0  0  0  0  0  0  0  0
  -26.5421  -17.3247   21.2506 C   0  0  0  0  0  0  0  0  0  0  0  0
  -31.3138  -24.5798   17.5510 C   0  0  0  0  0  0  0  0  0  0  0  0
  -23.4784  -24.9995   22.3834 C   0  0  0  0  0  0  0  0  0  0  0  0
  -26.9623  -29.0539   20.6609 C   0  0  0  0  0  0  0  0  0  0  0  0
  -25.2191  -30.7724   19.9426 C   0  0  0  0  0  0  0  0  0  0  0  0
  -19.4644  -10.3565   21.7476 C   0  0  0  0  0  0  0  0  0  0  0  0
  -24.3156  -16.3861   21.0330 C   0  0  0  0  0  0  0  0  0  0  0  0
  -20.0481  -11.4405   22.4305 C   0  0  0  0  0  0  0  0  0  0  0  0
  -25.6415  -16.2822   21.4848 C   0  0  0  0  0  0  0  0  0  0  0  0
  -25.6951  -23.6045   21.4227 C   0  0  0  0  0  0  0  0  0  0  0  0
  -29.3536  -27.6441   20.3841 C   0  0  0  0  0  0  0  0  0  0  0  0
  -26.1248  -18.4626   20.5600 C   0  0  0  0  0  0  0  0  0  0  0  0
  -30.8302  -26.4552   18.9954 C   0  0  0  0  0  0  0  0  0  0  0  0
  -25.8739  -24.7663   22.1738 C   0  0  0  0  0  0  0  0  0  0  0  0
  -31.4531  -25.4491   16.4691 C   0  0  0  0  0  0  0  0  0  0  0  0
  -31.0024  -25.0829   18.8142 C   0  0  0  0  0  0  0  0  0  0  0  0
  -25.7268  -29.7813   20.8039 C   0  0  0  0  0  0  0  0  0  0  0  0
  -24.0279  -31.1470   20.5145 C   0  0  0  0  0  0  0  0  0  0  0  0
  -19.1879  -24.8970   23.5677 C   0  0  0  0  0  0  0  0  0  0  0  0
  -19.1894  -26.1949   23.8795 C   0  0  0  0  0  0  0  0  0  0  0  0
  -27.2682  -21.9722   21.7155 C   0  0  0  0  0  0  0  0  0  0  0  0
  -25.7746  -31.3064   18.7335 C   0  0  0  0  0  0  0  0  0  0  0  0
  -23.3942  -13.0071   22.3782 C   0  0  0  0  0  0  0  0  0  0  0  0
  -26.1976  -12.7470   21.1600 C   0  0  0  0  0  0  0  0  0  0  0  0
  -29.0842  -12.7792   19.3425 C   0  0  0  0  0  0  0  0  0  0  0  0
  -20.2344  -28.3316   24.2212 C   0  0  0  0  0  0  0  0  0  0  0  0
  -20.2432   -9.1031   21.4360 C   0  0  0  0  0  0  0  0  0  0  0  0
  -23.3573  -15.2761   21.3697 C   0  0  0  0  0  0  0  0  0  0  0  0
  -26.0344  -15.0420   22.2402 C   0  0  0  0  0  0  0  0  0  0  0  0
  -21.7561   -9.2896   21.5188 C   0  0  0  0  0  0  0  0  0  0  0  0
  -21.8176  -31.4605   24.7264 C   0  0  0  0  0  0  0  0  0  0  0  0
  -22.1327  -10.0376   22.7938 C   0  0  0  0  0  0  0  0  0  0  0  0
  -22.9709  -31.4723   23.7271 C   0  0  0  0  0  0  0  0  0  0  0  0
  -21.6212  -30.0676   25.3098 C   0  0  0  0  0  0  0  0  0  0  0  0
  -22.5004  -29.0147   23.2447 C   0  0  0  0  0  0  0  0  0  0  0  0
  -21.5119  -11.4396   22.8147 C   0  0  1  0  0  0  0  0  0  0  0  0
  -24.0088  -13.8822   21.3257 C   0  0  1  0  0  0  0  0  0  0  0  0
  -22.7558  -30.4101   22.6378 C   0  0  2  0  0  0  0  0  0  0  0  0
  -28.9804  -25.1220   23.9568 C   0  0  0  0  0  0  0  0  0  0  0  0
  -30.9730  -11.2938   18.6189 C   0  0  0  0  0  0  0  0  0  0  0  0
  -27.4055  -12.9277   23.9551 C   0  0  0  0  0  0  0  0  0  0  0  0
  -29.6175  -12.3035   22.9623 C   0  0  0  0  0  0  0  0  0  0  0  0
  -27.7004  -10.7128   22.8319 C   0  0  0  0  0  0  0  0  0  0  0  0
  -28.4376  -13.1565   16.4792 C   0  0  0  0  0  0  0  0  0  0  0  0
  -28.4438  -21.1318   21.2941 C   0  0  0  0  0  0  0  0  0  0  0  0
  -27.4883  -25.3401   23.8231 C   0  0  0  0  0  0  0  0  0  0  0  0
  -28.0513  -19.6642   21.2688 C   0  0  0  0  0  0  0  0  0  1  0  0
  -27.6867  -12.7910   21.3922 C   0  0  1  0  0  0  0  0  0  0  0  0
  -29.6038  -11.8501   18.2603 C   0  0  2  0  0  0  0  0  0  0  0  0
  -28.0883  -12.2064   22.7758 C   0  0  0  0  0  0  0  0  0  0  0  0
  -24.9239  -29.5417   21.8441 N   0  0  0  0  0  0  0  0  0  0  0  0
  -26.8023  -22.8909   20.9341 N   0  0  0  0  0  0  0  0  0  0  0  0
  -23.8997  -30.3875   21.6401 N   0  0  0  0  0  0  0  0  0  0  0  0
  -25.4572  -13.8545   21.5912 N   0  0  0  0  0  0  0  0  0  0  0  0
  -21.4377  -29.0610   24.2616 N   0  0  0  0  0  0  0  0  0  0  0  0
  -23.0882  -32.0489   20.1595 N   0  0  0  0  0  0  0  0  0  0  0  0
  -27.0068  -30.8091   18.2876 N   0  0  0  0  0  0  0  0  0  0  0  0
  -22.2604  -12.3366   21.9606 N   0  0  0  0  0  0  0  0  0  0  0  0
  -28.2973  -12.1098   20.2557 N   0  0  0  0  0  0  0  0  0  0  0  0
  -20.3078  -26.9959   23.7572 N   0  0  0  0  0  0  0  0  0  0  0  0
  -29.7166  -12.5768   16.9640 N   0  3  0  0  0  0  0  0  0  0  0  0
  -25.2034  -32.2099   18.0770 O   0  0  0  0  0  0  0  0  0  0  0  0
  -23.9106  -12.9428   23.4876 O   0  0  0  0  0  0  0  0  0  0  0  0
  -25.7008  -11.7565   20.6165 O   0  0  0  0  0  0  0  0  0  0  0  0
  -29.3528  -13.9780   19.3766 O   0  0  0  0  0  0  0  0  0  0  0  0
  -19.1738  -28.8290   24.6233 O   0  0  0  0  0  0  0  0  0  0  0  0
  -30.5202  -26.9561   20.2486 O   0  0  0  0  0  0  0  0  0  0  0  0
  -27.0061  -19.4720   20.3165 O   0  0  0  0  0  0  0  0  0  1  0  0
  -27.1246  -25.2330   22.4484 O   0  0  0  0  0  0  0  0  0  0  0  0
  -31.7507  -24.9661   15.2557 F   0  0  0  0  0  0  0  0  0  0  0  0
  -30.8687  -24.2428   19.8496 F   0  0  0  0  0  0  0  0  0  0  0  0
  1  2  3  0  0  0  0
  1 20  1  0  0  0  0
  2 77  1  0  0  0  0
  3  4  1  0  0  0  0
  3  8  2  0  0  0  0
  4  9  2  0  0  0  0
  5 11  2  0  0  0  0
  5 20  1  0  0  0  0
  6 12  2  0  0  0  0
  6 21  1  0  0  0  0
  7 13  1  0  0  0  0
  7 21  2  0  0  0  0
  8 23  1  0  0  0  0
  9 25  1  0  0  0  0
 10 14  2  0  0  0  0
 10 24  1  0  0  0  0
 11 27  1  0  0  0  0
 12 28  1  0  0  0  0
 13 28  2  0  0  0  0
 14 29  1  0  0  0  0
 15 16  2  0  0  0  0
 15 30  1  0  0  0  0
 16 32  1  0  0  0  0
 17 20  2  0  0  0  0
 17 31  1  0  0  0  0
 18 26  1  0  0  0  0
 18 29  2  0  0  0  0
 19 32  2  0  0  0  0
 19 33  1  0  0  0  0
 21 34  1  0  0  0  0
 22 34  1  0  0  0  0
 22 35  2  0  0  0  0
 22 39  1  0  0  0  0
 23 25  2  0  0  0  0
 23 44  1  0  0  0  0
 24 26  2  0  0  0  0
 24 45  1  0  0  0  0
 25 53  1  0  0  0  0
 26 46  1  0  0  0  0
 27 31  2  0  0  0  0
 27 69  1  0  0  0  0
 28 84  1  0  0  0  0
 29 85  1  0  0  0  0
 30 33  2  0  0  0  0
 30 84  1  0  0  0  0
 31 86  1  0  0  0  0
 32 87  1  0  0  0  0
 33 88  1  0  0  0  0
 34 68  2  0  0  0  0
 35 70  1  0  0  0  0
 35 73  1  0  0  0  0
 36 37  2  0  0  0  0
 37 77  1  0  0  0  0
 38 62  1  0  0  0  0
 38 69  2  0  0  0  0
 39 74  1  0  0  0  0
 39 79  2  0  0  0  0
 40 54  1  0  0  0  0
 40 75  1  0  0  0  0
 40 80  2  0  0  0  0
 41 65  1  0  0  0  0
 41 71  1  0  0  0  0
 41 81  2  0  0  0  0
 42 66  1  0  0  0  0
 42 76  1  0  0  0  0
 42 82  2  0  0  0  0
 43 72  1  0  0  0  0
 43 77  1  0  0  0  0
 43 83  2  0  0  0  0
 44 47  1  0  0  0  0
 45 54  1  0  0  0  0
 46 71  1  0  0  0  0
 47 49  1  0  0  0  0
 48 50  1  0  0  0  0
 48 51  1  0  0  0  0
 49 53  1  0  0  0  0
 50 55  1  0  0  0  0
 51 72  1  0  0  0  0
 52 55  1  0  0  0  0
 52 72  1  0  0  0  0
 53 75  1  0  0  0  0
 54 71  1  0  0  0  0
 55 70  1  0  0  0  0
 56 63  1  0  0  0  0
 57 66  1  0  0  0  0
 58 67  1  0  0  0  0
 59 67  1  0  0  0  0
 60 67  1  0  0  0  0
 61 78  1  0  0  0  0
 62 64  1  0  0  0  0
 63 86  1  0  0  0  0
 64 85  1  0  0  0  0
 65 67  1  0  0  0  0
 65 76  1  0  0  0  0
 66 78  1  0  0  0  0
 68 70  1  0  0  0  0
M  CHG  1  78   1
M  ISO  4  43 100  64 101  77 100  85 101
M  END
> <Batch ID>
0115

> <Smiles>
C=C[100N:0](C#Cc1ccc(NC=C[101CH2:1][101O:1]c2ccc3c(c2)CN(C(=O)C(NC(=O)C(C)NC)C(C)(C)C)C(C(=O)NC2CCCc4ccccc42)C3)c(OCC)c1)[100C:0](=O)N1CCCC(n2nc(-c3ccc(Oc4ccc(F)cc4F)cc3)c(C(N)=O)c2N)C1

> <Shape>
0.247

> <Color>
0.053

> <Negative vol penalty>
0.000

$$$$

  -OEChem-04052301403D

 84 92  0     1  0  0  0  0  0999 V2000
  -18.2437  -14.9439   20.4598 C   0  0  0  0  0  0  0  0  0  0  0  0
  -19.1930  -15.9230   20.1852 C   0  0  0  0  0  0  0  0  0  0  0  0
  -23.4668  -24.1189   21.3939 C   0  0  0  0  0  0  0  0  0  0  0  0
  -22.9225  -25.8736   19.8248 C   0  0  0  0  0  0  0  0  0  0  0  0
  -18.5773  -13.8586   21.2691 C   0  0  0  0  0  0  0  0  0  0  0  0
  -20.4762  -15.8181   20.7206 C   0  0  0  0  0  0  0  0  0  0  0  0
  -25.7192  -17.5725   18.0864 C   0  0  0  0  0  0  0  0  0  0  0  0
  -22.2043  -24.2454   21.9733 C   0  0  0  0  0  0  0  0  0  0  0  0
  -21.6599  -26.0001   20.4042 C   0  0  0  0  0  0  0  0  0  0  0  0
  -26.5014  -18.7182   18.2256 C   0  0  0  0  0  0  0  0  0  0  0  0
  -18.4255  -27.0336   21.7002 C   0  0  0  0  0  0  0  0  0  0  0  0
  -17.9560  -28.3218   21.9568 C   0  0  0  0  0  0  0  0  0  0  0  0
  -27.8989  -17.5636   19.8171 C   0  0  0  0  0  0  0  0  0  0  0  0
  -31.6040  -25.3950   22.1873 C   0  0  0  0  0  0  0  0  0  0  0  0
  -19.8428  -28.7195   23.4125 C   0  0  0  0  0  0  0  0  0  0  0  0
  -23.8259  -24.9331   20.3196 C   0  0  0  0  0  0  0  0  0  0  0  0
  -25.6762  -23.6569   19.1132 C   0  0  0  0  0  0  0  0  0  0  0  0
  -19.8681  -13.7354   21.8069 C   0  0  0  0  0  0  0  0  0  0  0  0
  -26.0150  -16.4152   18.8210 C   0  0  0  0  0  0  0  0  0  0  0  0
  -20.8270  -14.7309   21.5390 C   0  0  0  0  0  0  0  0  0  0  0  0
  -27.1205  -16.4037   19.6835 C   0  0  0  0  0  0  0  0  0  0  0  0
  -30.6863  -26.2516   21.5895 C   0  0  0  0  0  0  0  0  0  0  0  0
  -21.3009  -25.1860   21.4785 C   0  0  0  0  0  0  0  0  0  0  0  0
  -27.5897  -18.7148   19.0931 C   0  0  0  0  0  0  0  0  0  0  0  0
  -19.6036  -26.5884   22.2998 C   0  0  0  0  0  0  0  0  0  0  0  0
  -31.4960  -24.0228   21.9908 C   0  0  0  0  0  0  0  0  0  0  0  0
  -18.6646  -29.1647   22.8129 C   0  0  0  0  0  0  0  0  0  0  0  0
  -20.3122  -27.4313   23.1559 C   0  0  0  0  0  0  0  0  0  0  0  0
  -25.1301  -24.8033   19.7210 C   0  0  0  0  0  0  0  0  0  0  0  0
  -30.4606  -23.5612   21.1942 C   0  0  0  0  0  0  0  0  0  0  0  0
  -29.6873  -25.6903   20.8106 C   0  0  0  0  0  0  0  0  0  0  0  0
  -26.9287  -24.0475   18.7066 C   0  0  0  0  0  0  0  0  0  0  0  0
  -30.2854  -22.1209   20.9429 C   0  0  0  0  0  0  0  0  0  0  0  0
  -29.1093  -21.5088   20.7348 C   0  0  0  0  0  0  0  0  0  0  0  0
  -25.1026  -22.3554   18.9322 C   0  0  0  0  0  0  0  0  0  0  0  0
  -24.4846  -14.6990   21.0156 C   0  0  0  0  0  0  0  0  0  0  0  0
  -27.0221  -12.7087   20.6664 C   0  0  0  0  0  0  0  0  0  0  0  0
  -30.2864  -12.3086   19.7545 C   0  0  0  0  0  0  0  0  0  0  0  0
  -30.3850  -28.6267   20.8416 C   0  0  0  0  0  0  0  0  0  0  0  0
  -20.1679  -12.5689   22.7147 C   0  0  0  0  0  0  0  0  0  0  0  0
  -25.1775  -15.1791   18.6396 C   0  0  0  0  0  0  0  0  0  0  0  0
  -27.4925  -15.1804   20.4796 C   0  0  0  0  0  0  0  0  0  0  0  0
  -21.6604  -12.3382   22.9372 C   0  0  0  0  0  0  0  0  0  0  0  0
  -29.4199  -27.8931   17.3454 C   0  0  0  0  0  0  0  0  0  0  0  0
  -22.3634  -13.6553   23.2502 C   0  0  0  0  0  0  0  0  0  0  0  0
  -28.2024  -26.9858   17.5128 C   0  0  0  0  0  0  0  0  0  0  0  0
  -29.5719  -28.8588   18.5167 C   0  0  0  0  0  0  0  0  0  0  0  0
  -28.4009  -27.2698   20.0151 C   0  0  0  0  0  0  0  0  0  0  0  0
  -22.2369  -14.6395   22.0811 C   0  0  1  0  0  0  0  0  0  0  0  0
  -25.2633  -14.2202   19.8230 C   0  0  1  0  0  0  0  0  0  0  0  0
  -28.2489  -26.2601   18.8675 C   0  0  1  0  0  0  0  0  0  0  0  0
  -32.0944  -10.5739   19.6155 C   0  0  0  0  0  0  0  0  0  0  0  0
  -27.4021  -12.8658   23.6898 C   0  0  0  0  0  0  0  0  0  0  0  0
  -29.7049  -11.9338   23.3788 C   0  0  0  0  0  0  0  0  0  0  0  0
  -27.7148  -10.5835   22.7163 C   0  0  0  0  0  0  0  0  0  0  0  0
  -31.6073  -28.1442   22.9165 C   0  0  0  0  0  0  0  0  0  0  0  0
  -30.5329  -12.6333   16.8232 C   0  0  0  0  0  0  0  0  0  0  0  0
  -33.4154  -23.7779   23.3735 C   0  0  0  0  0  0  0  0  0  0  0  0
  -28.9799  -20.0383   20.4971 C   0  0  0  0  0  0  0  0  0  1  0  0
  -28.3786  -12.5816   21.3166 C   0  0  1  0  0  0  0  0  0  0  0  0
  -30.9670  -11.2758   18.8744 C   0  0  2  0  0  0  0  0  0  0  0  0
  -28.2922  -12.0150   22.7620 C   0  0  0  0  0  0  0  0  0  0  0  0
  -25.9671  -25.8440   19.7045 N   0  0  0  0  0  0  0  0  0  0  0  0
  -29.5502  -24.3624   20.5969 N   0  0  0  0  0  0  0  0  0  0  0  0
  -27.0519  -25.3531   19.0814 N   0  0  0  0  0  0  0  0  0  0  0  0
  -26.6392  -13.9987   20.2724 N   0  0  0  0  0  0  0  0  0  0  0  0
  -29.5541  -28.1596   19.8026 N   0  0  0  0  0  0  0  0  0  0  0  0
  -28.7470  -26.5560   20.1969 N   0  0  0  0  0  0  0  0  0  0  0  0
  -27.9256  -23.3980   18.0688 N   0  0  0  0  0  0  0  0  0  0  0  0
  -24.3725  -22.1038   17.7626 N   0  0  0  0  0  0  0  0  0  0  0  0
  -23.1640  -14.2922   21.0254 N   0  0  0  0  0  0  0  0  0  0  0  0
  -29.1932  -11.7812   20.4088 N   0  0  0  0  0  0  0  0  0  0  0  0
  -30.7985  -27.6752   21.7934 N   0  0  0  0  0  0  0  0  0  0  0  0
  -31.5358  -11.9247   17.6594 N   0  3  0  0  0  0  0  0  0  0  0  0
  -25.2198  -21.4477   19.7899 O   0  0  0  0  0  0  0  0  0  0  0  0
  -25.0411  -15.3853   21.8647 O   0  0  0  0  0  0  0  0  0  0  0  0
  -26.3309  -11.6995   20.5071 O   0  0  0  0  0  0  0  0  0  0  0  0
  -30.6868  -13.4662   19.8547 O   0  0  0  0  0  0  0  0  0  0  0  0
  -30.6927  -29.8204   20.9470 O   0  0  0  0  0  0  0  0  0  0  0  0
  -20.0688  -25.3095   22.0435 O   0  0  0  0  0  0  0  0  0  0  0  0
  -32.3918  -23.1844   22.5742 O   0  0  0  0  0  0  0  0  0  0  0  0
  -28.3544  -19.8319   19.2313 O   0  0  0  0  0  0  0  0  0  1  0  0
  -18.2145  -30.4023   23.0580 F   0  0  0  0  0  0  0  0  0  0  0  0
  -21.4453  -27.0096   23.7339 F   0  0  0  0  0  0  0  0  0  0  0  0
  1  2  1  0  0  0  0
  1  5  2  0  0  0  0
  2  6  2  0  0  0  0
  3  8  2  0  0  0  0
  3 16  1  0  0  0  0
  4  9  1  0  0  0  0
  4 16  2  0  0  0  0
  5 18  1  0  0  0  0
  6 20  1  0  0  0  0
  7 10  2  0  0  0  0
  7 19  1  0  0  0  0
  8 23  1  0  0  0  0
  9 23  2  0  0  0  0
 10 24  1  0  0  0  0
 11 12  2  0  0  0  0
 11 25  1  0  0  0  0
 12 27  1  0  0  0  0
 13 21  1  0  0  0  0
 13 24  2  0  0  0  0
 14 22  2  0  0  0  0
 14 26  1  0  0  0  0
 15 27  2  0  0  0  0
 15 28  1  0  0  0  0
 16 29  1  0  0  0  0
 17 29  1  0  0  0  0
 17 32  2  0  0  0  0
 17 35  1  0  0  0  0
 18 20  2  0  0  0  0
 18 40  1  0  0  0  0
 19 21  2  0  0  0  0
 19 41  1  0  0  0  0
 20 49  1  0  0  0  0
 21 42  1  0  0  0  0
 22 31  1  0  0  0  0
 22 73  1  0  0  0  0
 23 80  1  0  0  0  0
 24 82  1  0  0  0  0
 25 28  2  0  0  0  0
 25 80  1  0  0  0  0
 26 30  2  0  0  0  0
 26 81  1  0  0  0  0
 27 83  1  0  0  0  0
 28 84  1  0  0  0  0
 29 63  2  0  0  0  0
 30 33  1  0  0  0  0
 30 64  1  0  0  0  0
 31 64  2  0  0  0  0
 31 68  1  0  0  0  0
 32 65  1  0  0  0  0
 32 69  1  0  0  0  0
 33 34  2  0  0  0  0
 34 59  1  0  0  0  0
 35 70  1  0  0  0  0
 35 75  2  0  0  0  0
 36 50  1  0  0  0  0
 36 71  1  0  0  0  0
 36 76  2  0  0  0  0
 37 60  1  0  0  0  0
 37 66  1  0  0  0  0
 37 77  2  0  0  0  0
 38 61  1  0  0  0  0
 38 72  1  0  0  0  0
 38 78  2  0  0  0  0
 39 67  1  0  0  0  0
 39 73  1  0  0  0  0
 39 79  2  0  0  0  0
 40 43  1  0  0  0  0
 41 50  1  0  0  0  0
 42 66  1  0  0  0  0
 43 45  1  0  0  0  0
 44 46  1  0  0  0  0
 44 47  1  0  0  0  0
 45 49  1  0  0  0  0
 46 51  1  0  0  0  0
 47 67  1  0  0  0  0
 48 51  1  0  0  0  0
 48 67  1  0  0  0  0
 49 71  1  0  0  0  0
 50 66  1  0  0  0  0
 51 65  1  0  0  0  0
 52 61  1  0  0  0  0
 53 62  1  0  0  0  0
 54 62  1  0  0  0  0
 55 62  1  0  0  0  0
 56 73  1  0  0  0  0
 57 74  1  0  0  0  0
 58 81  1  0  0  0  0
 59 82  1  0  0  0  0
 60 62  1  0  0  0  0
 60 72  1  0  0  0  0
 61 74  1  0  0  0  0
 63 65  1  0  0  0  0
M  CHG  1  74   1
M  ISO  4  39 100  59 101  73 100  82 101
M  END
> <Batch ID>
0115

> <Smiles>
CNC(C)C(=O)NC(C(=O)N1Cc2cc([101O:1][101CH2:1]C=Cc3nc(N)c([100N:0](C)[100C:0](=O)N4CCCC(n5nc(-c6ccc(Oc7ccc(F)cc7F)cc6)c(C(N)=O)c5N)C4)cc3OC)ccc2CC1C(=O)NC1CCCc2ccccc21)C(C)(C)C

> <Shape>
0.228

> <Color>
0.057

> <Negative vol penalty>
0.000

$$$$

  -OEChem-04052301403D

 81 89  0     1  0  0  0  0  0999 V2000
  -29.5981  -12.1577   21.4030 C   0  0  0  0  0  0  0  0  0  0  0  0
  -29.4290  -13.3579   22.0858 C   0  0  0  0  0  0  0  0  0  0  0  0
  -29.0789  -23.3149   21.6772 C   0  0  0  0  0  0  0  0  0  0  0  0
  -27.2634  -23.3663   20.0840 C   0  0  0  0  0  0  0  0  0  0  0  0
  -28.9390  -11.9468   20.1926 C   0  0  0  0  0  0  0  0  0  0  0  0
  -28.6016  -14.3485   21.5580 C   0  0  0  0  0  0  0  0  0  0  0  0
  -24.1444  -19.5719   23.5990 C   0  0  0  0  0  0  0  0  0  0  0  0
  -29.4480  -22.0514   21.2159 C   0  0  0  0  0  0  0  0  0  0  0  0
  -27.6325  -22.1028   19.6226 C   0  0  0  0  0  0  0  0  0  0  0  0
  -23.9148  -20.9321   23.3968 C   0  0  0  0  0  0  0  0  0  0  0  0
  -30.6483  -18.6575   20.7018 C   0  0  0  0  0  0  0  0  0  0  0  0
  -30.9497  -17.6813   21.6513 C   0  0  0  0  0  0  0  0  0  0  0  0
  -22.7646  -20.4257   21.3377 C   0  0  0  0  0  0  0  0  0  0  0  0
  -28.7202  -17.8778   22.5610 C   0  0  0  0  0  0  0  0  0  0  0  0
  -19.3510  -27.9314   23.8392 C   0  0  0  0  0  0  0  0  0  0  0  0
  -27.9865  -23.9724   21.1113 C   0  0  0  0  0  0  0  0  0  0  0  0
  -28.0572  -26.5224   21.1117 C   0  0  0  0  0  0  0  0  0  0  0  0
  -28.0955  -12.9315   19.6545 C   0  0  0  0  0  0  0  0  0  0  0  0
  -23.6946  -18.6276   22.6650 C   0  0  0  0  0  0  0  0  0  0  0  0
  -27.9317  -14.1511   20.3386 C   0  0  0  0  0  0  0  0  0  0  0  0
  -22.9875  -19.0539   21.5317 C   0  0  0  0  0  0  0  0  0  0  0  0
  -28.7249  -21.4453   20.1886 C   0  0  0  0  0  0  0  0  0  0  0  0
  -23.2273  -21.3594   22.2646 C   0  0  0  0  0  0  0  0  0  0  0  0
  -29.3829  -19.2440   20.6818 C   0  0  0  0  0  0  0  0  0  0  0  0
  -29.9857  -17.2914   22.5809 C   0  0  0  0  0  0  0  0  0  0  0  0
  -28.4188  -18.8541   21.6114 C   0  0  0  0  0  0  0  0  0  0  0  0
  -27.6044  -25.2774   21.5878 C   0  0  0  0  0  0  0  0  0  0  0  0
  -18.3403  -27.9947   22.8612 C   0  0  0  0  0  0  0  0  0  0  0  0
  -20.4412  -27.4259   23.1741 C   0  0  0  0  0  0  0  0  0  0  0  0
  -27.4010  -27.4461   21.8879 C   0  0  0  0  0  0  0  0  0  0  0  0
  -20.9865  -25.1856   20.8000 C   0  0  0  0  0  0  0  0  0  0  0  0
  -22.1621  -24.5413   20.8439 C   0  0  0  0  0  0  0  0  0  0  0  0
  -28.9877  -26.8176   20.0615 C   0  0  0  0  0  0  0  0  0  0  0  0
  -25.1020  -16.4846   20.7860 C   0  0  0  0  0  0  0  0  0  0  0  0
  -22.0434  -15.6192   20.1389 C   0  0  0  0  0  0  0  0  0  0  0  0
  -18.7463  -16.4933   20.0306 C   0  0  0  0  0  0  0  0  0  0  0  0
  -22.2537  -27.3112   24.9199 C   0  0  0  0  0  0  0  0  0  0  0  0
  -27.4414  -12.6766   18.3196 C   0  0  0  0  0  0  0  0  0  0  0  0
  -23.9269  -17.1620   22.9112 C   0  0  0  0  0  0  0  0  0  0  0  0
  -22.4660  -18.0788   20.5091 C   0  0  0  0  0  0  0  0  0  0  0  0
  -26.2879  -13.6288   18.0148 C   0  0  0  0  0  0  0  0  0  0  0  0
  -25.4876  -27.9946   26.2437 C   0  0  0  0  0  0  0  0  0  0  0  0
  -26.6878  -15.0680   18.3242 C   0  0  0  0  0  0  0  0  0  0  0  0
  -26.4385  -27.4942   25.1540 C   0  0  0  0  0  0  0  0  0  0  0  0
  -24.2561  -27.1003   26.3762 C   0  0  0  0  0  0  0  0  0  0  0  0
  -24.4749  -26.3623   24.0360 C   0  0  0  0  0  0  0  0  0  0  0  0
  -27.0230  -15.2400   19.8106 C   0  0  1  0  0  0  0  0  0  0  0  0
  -23.8732  -16.3261   21.6361 C   0  0  1  0  0  0  0  0  0  0  0  0
  -25.6987  -27.2676   23.8209 C   0  0  2  0  0  0  0  0  0  0  0  0
  -16.9550  -28.4642   23.0325 C   0  0  0  0  0  0  0  0  0  0  0  0
  -16.4868  -15.5860   19.4235 C   0  0  0  0  0  0  0  0  0  0  0  0
  -22.7078  -15.9515   17.1794 C   0  0  0  0  0  0  0  0  0  0  0  0
  -20.2502  -15.9730   16.7017 C   0  0  0  0  0  0  0  0  0  0  0  0
  -21.3043  -13.9521   17.7155 C   0  0  0  0  0  0  0  0  0  0  0  0
  -17.7344  -16.8480   22.7891 C   0  0  0  0  0  0  0  0  0  0  0  0
  -20.8567  -26.6803   20.7482 C   0  0  0  0  0  0  0  0  0  0  0  0
  -22.2916  -23.0539   20.8830 C   0  0  0  0  0  0  0  0  0  1  0  0
  -21.0080  -16.0326   19.1211 C   0  0  1  0  0  0  0  0  0  0  0  0
  -17.5006  -15.7900   20.5385 C   0  0  2  0  0  0  0  0  0  0  0  0
  -21.3290  -15.4961   17.6975 C   0  0  0  0  0  0  0  0  0  0  0  0
  -26.7284  -25.3958   22.5891 N   0  0  0  0  0  0  0  0  0  0  0  0
  -18.7519  -27.5641   21.6658 N   0  0  0  0  0  0  0  0  0  0  0  0
  -26.6255  -26.7263   22.7485 N   0  0  0  0  0  0  0  0  0  0  0  0
  -20.0333  -27.2253   21.8882 N   0  0  0  0  0  0  0  0  0  0  0  0
  -22.7239  -16.6571   20.7913 N   0  0  0  0  0  0  0  0  0  0  0  0
  -23.6044  -26.9342   25.0752 N   0  0  0  0  0  0  0  0  0  0  0  0
  -27.4174  -28.7958   21.9116 N   0  0  0  0  0  0  0  0  0  0  0  0
  -29.5697  -25.7497   19.3650 N   0  0  0  0  0  0  0  0  0  0  0  0
  -21.7513  -27.1380   23.6307 N   0  0  0  0  0  0  0  0  0  0  0  0
  -25.8103  -15.3133   20.5970 N   0  0  0  0  0  0  0  0  0  0  0  0
  -19.7200  -15.5949   19.6483 N   0  0  0  0  0  0  0  0  0  0  0  0
  -16.8572  -16.5912   21.6179 N   0  3  0  0  0  0  0  0  0  0  0  0
  -29.3063  -27.9930   19.7611 O   0  0  0  0  0  0  0  0  0  0  0  0
  -25.3856  -17.5877   20.3337 O   0  0  0  0  0  0  0  0  0  0  0  0
  -22.2362  -14.4197   20.3525 O   0  0  0  0  0  0  0  0  0  0  0  0
  -18.8444  -17.7172   19.9748 O   0  0  0  0  0  0  0  0  0  0  0  0
  -21.5994  -27.7806   25.8546 O   0  0  0  0  0  0  0  0  0  0  0  0
  -29.0849  -20.2125   19.7380 O   0  0  0  0  0  0  0  0  0  0  0  0
  -23.0025  -22.6865   22.0645 O   0  0  0  0  0  0  0  0  0  1  0  0
  -30.2747  -16.3528   23.4917 F   0  0  0  0  0  0  0  0  0  0  0  0
  -27.2009  -19.4130   21.5965 F   0  0  0  0  0  0  0  0  0  0  0  0
  1  2  1  0  0  0  0
  1  5  2  0  0  0  0
  2  6  2  0  0  0  0
  3  8  2  0  0  0  0
  3 16  1  0  0  0  0
  4  9  1  0  0  0  0
  4 16  2  0  0  0  0
  5 18  1  0  0  0  0
  6 20  1  0  0  0  0
  7 10  2  0  0  0  0
  7 19  1  0  0  0  0
  8 22  1  0  0  0  0
  9 22  2  0  0  0  0
 10 23  1  0  0  0  0
 11 12  2  0  0  0  0
 11 24  1  0  0  0  0
 12 25  1  0  0  0  0
 13 21  1  0  0  0  0
 13 23  2  0  0  0  0
 14 25  2  0  0  0  0
 14 26  1  0  0  0  0
 15 28  1  0  0  0  0
 15 29  2  0  0  0  0
 16 27  1  0  0  0  0
 17 27  1  0  0  0  0
 17 30  2  0  0  0  0
 17 33  1  0  0  0  0
 18 20  2  0  0  0  0
 18 38  1  0  0  0  0
 19 21  2  0  0  0  0
 19 39  1  0  0  0  0
 20 47  1  0  0  0  0
 21 40  1  0  0  0  0
 22 78  1  0  0  0  0
 23 79  1  0  0  0  0
 24 26  2  0  0  0  0
 24 78  1  0  0  0  0
 25 80  1  0  0  0  0
 26 81  1  0  0  0  0
 27 61  2  0  0  0  0
 28 50  1  0  0  0  0
 28 62  2  0  0  0  0
 29 64  1  0  0  0  0
 29 69  1  0  0  0  0
 30 63  1  0  0  0  0
 30 67  1  0  0  0  0
 31 32  2  0  0  0  0
 31 56  1  0  0  0  0
 32 57  1  0  0  0  0
 33 68  1  0  0  0  0
 33 73  2  0  0  0  0
 34 48  1  0  0  0  0
 34 70  1  0  0  0  0
 34 74  2  0  0  0  0
 35 58  1  0  0  0  0
 35 65  1  0  0  0  0
 35 75  2  0  0  0  0
 36 59  1  0  0  0  0
 36 71  1  0  0  0  0
 36 76  2  0  0  0  0
 37 66  1  0  0  0  0
 37 69  1  0  0  0  0
 37 77  2  0  0  0  0
 38 41  1  0  0  0  0
 39 48  1  0  0  0  0
 40 65  1  0  0  0  0
 41 43  1  0  0  0  0
 42 44  1  0  0  0  0
 42 45  1  0  0  0  0
 43 47  1  0  0  0  0
 44 49  1  0  0  0  0
 45 66  1  0  0  0  0
 46 49  1  0  0  0  0
 46 66  1  0  0  0  0
 47 70  1  0  0  0  0
 48 65  1  0  0  0  0
 49 63  1  0  0  0  0
 51 59  1  0  0  0  0
 52 60  1  0  0  0  0
 53 60  1  0  0  0  0
 54 60  1  0  0  0  0
 55 72  1  0  0  0  0
 56 64  1  0  0  0  0
 57 79  1  0  0  0  0
 58 60  1  0  0  0  0
 58 71  1  0  0  0  0
 59 72  1  0  0  0  0
 61 63  1  0  0  0  0
 62 64  1  0  0  0  0
M  CHG  1  72   1
M  ISO  4  37 100  57 101  69 100  79 101
M  END
> <Batch ID>
0115

> <Smiles>
CNC(C)C(=O)NC(C(=O)N1Cc2cc([101O:1][101CH2:1]C=CCn3nc(C)cc3[100NH:0][100C:0](=O)N3CCCC(n4nc(-c5ccc(Oc6ccc(F)cc6F)cc5)c(C(N)=O)c4N)C3)ccc2CC1C(=O)NC1CCCc2ccccc21)C(C)(C)C

> <Shape>
0.190

> <Color>
0.074

> <Negative vol penalty>
0.000

$$$$

  -OEChem-04052301403D

 86 94  0     1  0  0  0  0  0999 V2000
  -21.8301  -29.1190   22.7549 C   0  0  0  0  0  0  0  0  0  0  0  0
  -21.9372  -28.1788   21.7351 C   0  0  0  0  0  0  0  0  0  0  0  0
  -23.3842   -9.5998   21.0657 C   0  0  0  0  0  0  0  0  0  0  0  0
  -24.0556  -10.4226   23.2358 C   0  0  0  0  0  0  0  0  0  0  0  0
  -22.8163  -30.0921   22.9107 C   0  0  0  0  0  0  0  0  0  0  0  0
  -23.0301  -28.2119   20.8697 C   0  0  0  0  0  0  0  0  0  0  0  0
  -25.0059  -23.6202   20.0588 C   0  0  0  0  0  0  0  0  0  0  0  0
  -22.7478   -8.5173   21.6729 C   0  0  0  0  0  0  0  0  0  0  0  0
  -23.4191   -9.3401   23.8431 C   0  0  0  0  0  0  0  0  0  0  0  0
  -24.3336  -22.7864   19.1663 C   0  0  0  0  0  0  0  0  0  0  0  0
  -20.2644   -8.4467   24.6616 C   0  0  0  0  0  0  0  0  0  0  0  0
  -19.4727   -8.7066   25.7802 C   0  0  0  0  0  0  0  0  0  0  0  0
  -29.3273  -17.3525   18.7606 C   0  0  0  0  0  0  0  0  0  0  0  0
  -27.0560  -18.6218   19.7669 C   0  0  0  0  0  0  0  0  0  0  0  0
  -25.9172  -23.3661   17.4413 C   0  0  0  0  0  0  0  0  0  0  0  0
  -20.8695   -7.2490   27.1074 C   0  0  0  0  0  0  0  0  0  0  0  0
  -24.0382  -10.5524   21.8471 C   0  0  0  0  0  0  0  0  0  0  0  0
  -28.9598  -17.1707   20.0938 C   0  0  0  0  0  0  0  0  0  0  0  0
  -27.8241  -17.8053   20.5969 C   0  0  0  0  0  0  0  0  0  0  0  0
  -24.1362  -12.9261   20.9178 C   0  0  0  0  0  0  0  0  0  0  0  0
  -23.9268  -30.1312   22.0528 C   0  0  0  0  0  0  0  0  0  0  0  0
  -26.1343  -24.3429   19.6455 C   0  0  0  0  0  0  0  0  0  0  0  0
  -24.0314  -29.1873   21.0133 C   0  0  0  0  0  0  0  0  0  0  0  0
  -26.6035  -24.2064   18.3312 C   0  0  0  0  0  0  0  0  0  0  0  0
  -28.5593  -18.1691   17.9305 C   0  0  0  0  0  0  0  0  0  0  0  0
  -22.7652   -8.3875   23.0616 C   0  0  0  0  0  0  0  0  0  0  0  0
  -24.7876  -22.6614   17.8565 C   0  0  0  0  0  0  0  0  0  0  0  0
  -21.3586   -7.5879   24.7658 C   0  0  0  0  0  0  0  0  0  0  0  0
  -27.4236  -18.8037   18.4337 C   0  0  0  0  0  0  0  0  0  0  0  0
  -19.7753   -8.1078   27.0031 C   0  0  0  0  0  0  0  0  0  0  0  0
  -21.6612   -6.9890   25.9887 C   0  0  0  0  0  0  0  0  0  0  0  0
  -24.6963  -11.6705   21.2203 C   0  0  0  0  0  0  0  0  0  0  0  0
  -25.1625  -13.6285   20.3349 C   0  0  0  0  0  0  0  0  0  0  0  0
  -27.2710  -18.6429   22.8347 C   0  0  0  0  0  0  0  0  0  0  0  0
  -27.4103  -17.6373   21.9844 C   0  0  0  0  0  0  0  0  0  0  0  0
  -29.7899  -16.3099   20.9288 C   0  0  0  0  0  0  0  0  0  0  0  0
  -22.8070  -13.4139   21.1436 C   0  0  0  0  0  0  0  0  0  0  0  0
  -30.5395  -15.1709   20.3509 C   0  0  0  0  0  0  0  0  0  0  0  0
  -26.8618  -27.4287   19.4168 C   0  0  0  0  0  0  0  0  0  0  0  0
  -29.8002  -26.2801   18.6623 C   0  0  0  0  0  0  0  0  0  0  0  0
  -31.6797  -23.7022   17.4503 C   0  0  0  0  0  0  0  0  0  0  0  0
  -24.9434  -31.2310   22.2310 C   0  0  0  0  0  0  0  0  0  0  0  0
  -26.8640  -25.2175   20.6279 C   0  0  0  0  0  0  0  0  0  0  0  0
  -27.8222  -24.9449   17.8435 C   0  0  0  0  0  0  0  0  0  0  0  0
  -26.2598  -30.9671   21.5047 C   0  0  0  0  0  0  0  0  0  0  0  0
  -29.6887  -12.1096   18.6892 C   0  0  0  0  0  0  0  0  0  0  0  0
  -25.9972  -30.4941   20.0784 C   0  0  0  0  0  0  0  0  0  0  0  0
  -28.2827  -11.8063   19.2060 C   0  0  0  0  0  0  0  0  0  0  0  0
  -30.5444  -12.7795   19.7594 C   0  0  0  0  0  0  0  0  0  0  0  0
  -28.5257  -13.7221   20.8480 C   0  0  0  0  0  0  0  0  0  0  0  0
  -25.2146  -29.1754   20.0699 C   0  0  1  0  0  0  0  0  0  0  0  0
  -27.6988  -26.3033   19.9559 C   0  0  1  0  0  0  0  0  0  0  0  0
  -27.6231  -13.0701   19.7861 C   0  0  2  0  0  0  0  0  0  0  0  0
  -28.9671  -18.3525   16.5058 C   0  0  0  0  0  0  0  0  0  0  0  0
  -34.0497  -23.0731   16.9170 C   0  0  0  0  0  0  0  0  0  0  0  0
  -24.3851  -21.7026   14.6010 C   0  0  0  0  0  0  0  0  0  0  0  0
  -29.6854  -27.9946   16.1410 C   0  0  0  0  0  0  0  0  0  0  0  0
  -31.5735  -26.6359   15.2151 C   0  0  0  0  0  0  0  0  0  0  0  0
  -31.9060  -27.9782   17.2912 C   0  0  0  0  0  0  0  0  0  0  0  0
  -31.6449  -21.4666   19.3893 C   0  0  0  0  0  0  0  0  0  0  0  0
  -24.8256  -19.7207   16.0913 C   0  0  0  0  0  0  0  0  0  0  0  0
  -25.2983  -19.2330   17.4566 C   0  0  0  0  0  0  0  0  0  0  0  0
  -30.4962  -25.8815   17.3834 C   0  0  1  0  0  0  0  0  0  0  0  0
  -32.9502  -23.0519   17.9674 C   0  0  2  0  0  0  0  0  0  0  0  0
  -24.9114  -21.2409   15.9532 C   0  0  2  0  0  0  0  0  0  1  0  0
  -30.8911  -27.1100   16.5160 C   0  0  0  0  0  0  0  0  0  0  0  0
  -25.9789  -11.5776   20.8593 N   0  0  0  0  0  0  0  0  0  0  0  0
  -29.9277  -16.4819   22.2135 N   0  0  0  0  0  0  0  0  0  0  0  0
  -26.2332  -12.7837   20.3239 N   0  0  0  0  0  0  0  0  0  0  0  0
  -29.8738  -13.9537   20.3140 N   0  0  0  0  0  0  0  0  0  0  0  0
  -28.4976  -25.7927   18.8399 N   0  0  0  0  0  0  0  0  0  0  0  0
  -25.2445  -14.8801   19.8358 N   0  0  0  0  0  0  0  0  0  0  0  0
  -21.8770  -12.5612   21.7537 N   0  0  0  0  0  0  0  0  0  0  0  0
  -26.0922  -28.0649   20.3719 N   0  0  0  0  0  0  0  0  0  0  0  0
  -31.6219  -25.0408   17.7762 N   0  0  0  0  0  0  0  0  0  0  0  0
  -32.6893  -21.6344   18.3462 N   0  3  0  0  0  0  0  0  0  0  0  0
  -22.4499  -14.5660   20.7991 O   0  0  0  0  0  0  0  0  0  0  0  0
  -31.6730  -15.4265   19.9659 O   0  0  0  0  0  0  0  0  0  0  0  0
  -26.9118  -27.7006   18.2230 O   0  0  0  0  0  0  0  0  0  0  0  0
  -30.3931  -26.9915   19.4772 O   0  0  0  0  0  0  0  0  0  0  0  0
  -30.8258  -23.0854   16.8171 O   0  0  0  0  0  0  0  0  0  0  0  0
  -22.1441   -7.3314   23.6545 O   0  0  0  0  0  0  0  0  0  0  0  0
  -26.6579  -19.6091   17.6316 O   0  0  0  0  0  0  0  0  0  0  0  0
  -24.1329  -21.8487   16.9832 O   0  0  0  0  0  0  0  0  0  1  0  0
  -19.0159   -8.3587   28.0776 F   0  0  0  0  0  0  0  0  0  0  0  0
  -22.7118   -6.1640   26.0953 F   0  0  0  0  0  0  0  0  0  0  0  0
  1  2  1  0  0  0  0
  1  5  2  0  0  0  0
  2  6  2  0  0  0  0
  3  8  2  0  0  0  0
  3 17  1  0  0  0  0
  4  9  1  0  0  0  0
  4 17  2  0  0  0  0
  5 21  1  0  0  0  0
  6 23  1  0  0  0  0
  7 10  2  0  0  0  0
  7 22  1  0  0  0  0
  8 26  1  0  0  0  0
  9 26  2  0  0  0  0
 10 27  1  0  0  0  0
 11 12  2  0  0  0  0
 11 28  1  0  0  0  0
 12 30  1  0  0  0  0
 13 18  1  0  0  0  0
 13 25  2  0  0  0  0
 14 19  1  0  0  0  0
 14 29  2  0  0  0  0
 15 24  1  0  0  0  0
 15 27  2  0  0  0  0
 16 30  2  0  0  0  0
 16 31  1  0  0  0  0
 17 32  1  0  0  0  0
 18 19  2  0  0  0  0
 18 36  1  0  0  0  0
 19 35  1  0  0  0  0
 20 32  1  0  0  0  0
 20 33  2  0  0  0  0
 20 37  1  0  0  0  0
 21 23  2  0  0  0  0
 21 42  1  0  0  0  0
 22 24  2  0  0  0  0
 22 43  1  0  0  0  0
 23 51  1  0  0  0  0
 24 44  1  0  0  0  0
 25 29  1  0  0  0  0
 25 54  1  0  0  0  0
 26 82  1  0  0  0  0
 27 84  1  0  0  0  0
 28 31  2  0  0  0  0
 28 82  1  0  0  0  0
 29 83  1  0  0  0  0
 30 85  1  0  0  0  0
 31 86  1  0  0  0  0
 32 67  2  0  0  0  0
 33 69  1  0  0  0  0
 33 72  1  0  0  0  0
 34 35  2  0  0  0  0
 36 38  1  0  0  0  0
 36 68  2  0  0  0  0
 37 73  1  0  0  0  0
 37 77  2  0  0  0  0
 38 70  1  0  0  0  0
 38 78  2  0  0  0  0
 39 52  1  0  0  0  0
 39 74  1  0  0  0  0
 39 79  2  0  0  0  0
 40 63  1  0  0  0  0
 40 71  1  0  0  0  0
 40 80  2  0  0  0  0
 41 64  1  0  0  0  0
 41 75  1  0  0  0  0
 41 81  2  0  0  0  0
 42 45  1  0  0  0  0
 43 52  1  0  0  0  0
 44 71  1  0  0  0  0
 45 47  1  0  0  0  0
 46 48  1  0  0  0  0
 46 49  1  0  0  0  0
 47 51  1  0  0  0  0
 48 53  1  0  0  0  0
 49 70  1  0  0  0  0
 50 53  1  0  0  0  0
 50 70  1  0  0  0  0
 51 74  1  0  0  0  0
 52 71  1  0  0  0  0
 53 69  1  0  0  0  0
 55 64  1  0  0  0  0
 56 65  1  0  0  0  0
 57 66  1  0  0  0  0
 58 66  1  0  0  0  0
 59 66  1  0  0  0  0
 60 76  1  0  0  0  0
 61 62  1  0  0  0  0
 61 65  1  0  0  0  0
 62 83  1  0  0  0  0
 63 66  1  0  0  0  0
 63 75  1  0  0  0  0
 64 76  1  0  0  0  0
 65 84  1  0  0  0  0
 67 69  1  0  0  0  0
M  CHG  1  76   1
M  ISO  4  36 100  38 100  65 101  84 101
M  END
> <Batch ID>
0115

> <Smiles>
C=Cc1cc(OCC[101CH:1](C)[101O:1]c2ccc3c(c2)CN(C(=O)C(NC(=O)C(C)NC)C(C)(C)C)C(C(=O)NC2CCCc4ccccc42)C3)c(C)cc1[100C:0](=N)[100C:0](=O)N1CCCC(n2nc(-c3ccc(Oc4ccc(F)cc4F)cc3)c(C(N)=O)c2N)C1

> <Shape>
0.287

> <Color>
0.155

> <Negative vol penalty>
0.000

$$$$

  -OEChem-04052301403D

 83 91  0     1  0  0  0  0  0999 V2000
  -30.0093  -32.0802   23.6059 C   0  0  0  0  0  0  0  0  0  0  0  0
  -29.9327  -30.6922   23.5511 C   0  0  0  0  0  0  0  0  0  0  0  0
  -22.4310  -10.5221   22.0131 C   0  0  0  0  0  0  0  0  0  0  0  0
  -23.0773   -9.9864   19.7477 C   0  0  0  0  0  0  0  0  0  0  0  0
  -25.1489  -19.4433   18.3072 C   0  0  0  0  0  0  0  0  0  0  0  0
  -28.8441  -32.8441   23.5533 C   0  0  0  0  0  0  0  0  0  0  0  0
  -28.6908  -30.0672   23.4447 C   0  0  0  0  0  0  0  0  0  0  0  0
  -28.6767  -26.3452   20.0109 C   0  0  0  0  0  0  0  0  0  0  0  0
  -21.9933   -9.2108   22.1984 C   0  0  0  0  0  0  0  0  0  0  0  0
  -22.6397   -8.6750   19.9330 C   0  0  0  0  0  0  0  0  0  0  0  0
  -29.2479  -25.1301   20.3866 C   0  0  0  0  0  0  0  0  0  0  0  0
  -23.3743   -6.1895   22.8291 C   0  0  0  0  0  0  0  0  0  0  0  0
  -23.7347   -5.5471   24.0136 C   0  0  0  0  0  0  0  0  0  0  0  0
  -26.1266  -19.9074   19.1802 C   0  0  0  0  0  0  0  0  0  0  0  0
  -27.0492  -24.2374   20.8199 C   0  0  0  0  0  0  0  0  0  0  0  0
  -21.4008   -5.2657   24.5711 C   0  0  0  0  0  0  0  0  0  0  0  0
  -22.9730  -10.9100   20.7877 C   0  0  0  0  0  0  0  0  0  0  0  0
  -25.3900  -18.3072   17.5427 C   0  0  0  0  0  0  0  0  0  0  0  0
  -24.7137  -12.7740   20.8425 C   0  0  0  0  0  0  0  0  0  0  0  0
  -27.5879  -32.2285   23.4366 C   0  0  0  0  0  0  0  0  0  0  0  0
  -27.2857  -26.5193   20.0474 C   0  0  0  0  0  0  0  0  0  0  0  0
  -27.5076  -30.8235   23.3919 C   0  0  0  0  0  0  0  0  0  0  0  0
  -26.4626  -25.4548   20.4417 C   0  0  0  0  0  0  0  0  0  0  0  0
  -22.0977   -8.2872   21.1584 C   0  0  0  0  0  0  0  0  0  0  0  0
  -28.4343  -24.0769   20.7939 C   0  0  0  0  0  0  0  0  0  0  0  0
  -22.0271   -6.3701   22.5156 C   0  0  0  0  0  0  0  0  0  0  0  0
  -22.7479   -5.0851   24.8845 C   0  0  0  0  0  0  0  0  0  0  0  0
  -21.0404   -5.9082   23.3866 C   0  0  0  0  0  0  0  0  0  0  0  0
  -23.4247  -12.2646   20.5955 C   0  0  0  0  0  0  0  0  0  0  0  0
  -27.3188  -19.2050   19.2513 C   0  0  0  0  0  0  0  0  0  0  0  0
  -26.6153  -17.6766   17.6870 C   0  0  0  0  0  0  0  0  0  0  0  0
  -24.6287  -14.1022   20.5033 C   0  0  0  0  0  0  0  0  0  0  0  0
  -29.1866  -20.4708   19.6175 C   0  0  0  0  0  0  0  0  0  0  0  0
  -24.3597  -17.8291   16.6312 C   0  0  0  0  0  0  0  0  0  0  0  0
  -25.8831  -12.1063   21.3346 C   0  0  0  0  0  0  0  0  0  0  0  0
  -22.9218  -18.0404   16.9161 C   0  0  0  0  0  0  0  0  0  0  0  0
  -25.3054  -28.4317   21.6362 C   0  0  0  0  0  0  0  0  0  0  0  0
  -23.0736  -27.0717   19.7148 C   0  0  0  0  0  0  0  0  0  0  0  0
  -22.1451  -24.4176   17.7807 C   0  0  0  0  0  0  0  0  0  0  0  0
  -26.3529  -33.0942   23.4309 C   0  0  0  0  0  0  0  0  0  0  0  0
  -26.6835  -27.8275   19.6134 C   0  0  0  0  0  0  0  0  0  0  0  0
  -24.9625  -25.5840   20.4790 C   0  0  0  0  0  0  0  0  0  0  0  0
  -25.1026  -32.3686   22.9407 C   0  0  0  0  0  0  0  0  0  0  0  0
  -20.6238  -16.9969   19.4630 C   0  0  0  0  0  0  0  0  0  0  0  0
  -24.9840  -31.0008   23.6056 C   0  0  0  0  0  0  0  0  0  0  0  0
  -21.2345  -15.6937   19.9772 C   0  0  0  0  0  0  0  0  0  0  0  0
  -20.8687  -17.1767   17.9683 C   0  0  0  0  0  0  0  0  0  0  0  0
  -22.9281  -15.8013   18.0942 C   0  0  0  0  0  0  0  0  0  0  0  0
  -26.1806  -30.1097   23.2515 C   0  0  1  0  0  0  0  0  0  0  0  0
  -25.2864  -28.0595   20.1806 C   0  0  1  0  0  0  0  0  0  0  0  0
  -22.7251  -15.5982   19.6058 C   0  0  2  0  0  0  0  0  0  0  0  0
  -20.2486  -23.5772   16.3685 C   0  0  0  0  0  0  0  0  0  0  0  0
  -21.5060  -26.3761   22.2384 C   0  0  0  0  0  0  0  0  0  0  0  0
  -20.1668  -24.7575   20.8765 C   0  0  0  0  0  0  0  0  0  0  0  0
  -20.1067  -27.1913   20.3326 C   0  0  0  0  0  0  0  0  0  0  0  0
  -23.8367  -24.3332   15.3536 C   0  0  0  0  0  0  0  0  0  0  0  0
  -30.3136  -21.0127   20.4555 C   0  0  0  0  0  0  0  0  0  0  0  0
  -30.2196  -22.5270   20.5366 C   0  0  0  0  0  0  0  0  0  1  0  0
  -22.1859  -25.8538   19.8031 C   0  0  1  0  0  0  0  0  0  0  0  0
  -21.5603  -24.3465   16.3816 C   0  0  2  0  0  0  0  0  0  0  0  0
  -21.0197  -26.0425   20.8139 C   0  0  0  0  0  0  0  0  0  0  0  0
  -22.5827  -13.1936   20.1351 N   0  0  0  0  0  0  0  0  0  0  0  0
  -27.5894  -18.0977   18.5246 N   0  0  0  0  0  0  0  0  0  0  0  0
  -24.6249  -17.1961   15.5217 N   0  0  0  0  0  0  0  0  0  0  0  0
  -28.3372  -19.6345   20.1186 N   0  0  0  0  0  0  0  0  0  0  0  0
  -23.3441  -14.3001   20.0902 N   0  0  0  0  0  0  0  0  0  0  0  0
  -22.2880  -17.0443   17.6455 N   0  0  0  0  0  0  0  0  0  0  0  0
  -24.4218  -26.8848   20.0515 N   0  0  0  0  0  0  0  0  0  0  0  0
  -26.8685  -16.5178   16.9107 N   0  0  0  0  0  0  0  0  0  0  0  0
  -25.5284  -15.1086   20.5212 N   0  0  0  0  0  0  0  0  0  0  0  0
  -25.7962  -10.7398   21.6337 N   0  0  0  0  0  0  0  0  0  0  0  0
  -26.0331  -29.5727   21.9157 N   0  0  0  0  0  0  0  0  0  0  0  0
  -21.7541  -25.5637   18.4400 N   0  0  0  0  0  0  0  0  0  0  0  0
  -22.5119  -23.6689   15.4562 N   0  3  0  0  0  0  0  0  0  0  0  0
  -26.9685  -12.7073   21.5195 O   0  0  0  0  0  0  0  0  0  0  0  0
  -22.4435  -19.0771   16.4746 O   0  0  0  0  0  0  0  0  0  0  0  0
  -24.7030  -27.7362   22.4456 O   0  0  0  0  0  0  0  0  0  0  0  0
  -22.5902  -28.1475   19.3533 O   0  0  0  0  0  0  0  0  0  0  0  0
  -22.8728  -23.5421   18.2437 O   0  0  0  0  0  0  0  0  0  0  0  0
  -21.6709   -7.0074   21.3389 O   0  0  0  0  0  0  0  0  0  0  0  0
  -28.9893  -22.8901   21.1618 O   0  0  0  0  0  0  0  0  0  1  0  0
  -23.0942   -4.4669   26.0212 F   0  0  0  0  0  0  0  0  0  0  0  0
  -19.7445   -6.0777   23.0903 F   0  0  0  0  0  0  0  0  0  0  0  0
  1  2  1  0  0  0  0
  1  6  2  0  0  0  0
  2  7  2  0  0  0  0
  3  9  2  0  0  0  0
  3 17  1  0  0  0  0
  4 10  1  0  0  0  0
  4 17  2  0  0  0  0
  5 14  2  0  0  0  0
  5 18  1  0  0  0  0
  6 20  1  0  0  0  0
  7 22  1  0  0  0  0
  8 11  2  0  0  0  0
  8 21  1  0  0  0  0
  9 24  1  0  0  0  0
 10 24  2  0  0  0  0
 11 25  1  0  0  0  0
 12 13  2  0  0  0  0
 12 26  1  0  0  0  0
 13 27  1  0  0  0  0
 14 30  1  0  0  0  0
 15 23  1  0  0  0  0
 15 25  2  0  0  0  0
 16 27  2  0  0  0  0
 16 28  1  0  0  0  0
 17 29  1  0  0  0  0
 18 31  2  0  0  0  0
 18 34  1  0  0  0  0
 19 29  1  0  0  0  0
 19 32  2  0  0  0  0
 19 35  1  0  0  0  0
 20 22  2  0  0  0  0
 20 40  1  0  0  0  0
 21 23  2  0  0  0  0
 21 41  1  0  0  0  0
 22 49  1  0  0  0  0
 23 42  1  0  0  0  0
 24 80  1  0  0  0  0
 25 81  1  0  0  0  0
 26 28  2  0  0  0  0
 26 80  1  0  0  0  0
 27 82  1  0  0  0  0
 28 83  1  0  0  0  0
 29 62  2  0  0  0  0
 30 63  2  0  0  0  0
 30 65  1  0  0  0  0
 31 63  1  0  0  0  0
 31 69  1  0  0  0  0
 32 66  1  0  0  0  0
 32 70  1  0  0  0  0
 33 57  1  0  0  0  0
 33 65  2  0  0  0  0
 34 36  1  0  0  0  0
 34 64  2  0  0  0  0
 35 71  1  0  0  0  0
 35 75  2  0  0  0  0
 36 67  1  0  0  0  0
 36 76  2  0  0  0  0
 37 50  1  0  0  0  0
 37 72  1  0  0  0  0
 37 77  2  0  0  0  0
 38 59  1  0  0  0  0
 38 68  1  0  0  0  0
 38 78  2  0  0  0  0
 39 60  1  0  0  0  0
 39 73  1  0  0  0  0
 39 79  2  0  0  0  0
 40 43  1  0  0  0  0
 41 50  1  0  0  0  0
 42 68  1  0  0  0  0
 43 45  1  0  0  0  0
 44 46  1  0  0  0  0
 44 47  1  0  0  0  0
 45 49  1  0  0  0  0
 46 51  1  0  0  0  0
 47 67  1  0  0  0  0
 48 51  1  0  0  0  0
 48 67  1  0  0  0  0
 49 72  1  0  0  0  0
 50 68  1  0  0  0  0
 51 66  1  0  0  0  0
 52 60  1  0  0  0  0
 53 61  1  0  0  0  0
 54 61  1  0  0  0  0
 55 61  1  0  0  0  0
 56 74  1  0  0  0  0
 57 58  1  0  0  0  0
 58 81  1  0  0  0  0
 59 61  1  0  0  0  0
 59 73  1  0  0  0  0
 60 74  1  0  0  0  0
 62 66  1  0  0  0  0
M  CHG  1  74   1
M  ISO  4  34 100  36 100  58 101  81 101
M  END
> <Batch ID>
0115

> <Smiles>
CNC(C)C(=O)NC(C(=O)N1Cc2cc([101O:1][101CH2:1]C=CNc3ccc([100C:0](=N)[100C:0](=O)N4CCCC(n5nc(-c6ccc(Oc7ccc(F)cc7F)cc6)c(C(N)=O)c5N)C4)c(N)n3)ccc2CC1C(=O)NC1CCCc2ccccc21)C(C)(C)C

> <Shape>
0.233

> <Color>
0.081

> <Negative vol penalty>
0.000

$$$$

  -OEChem-04052301403D

 86 95  0     1  0  0  0  0  0999 V2000
  -16.2107  -28.0651   24.3827 C   0  0  0  0  0  0  0  0  0  0  0  0
  -16.9147  -27.0379   25.0029 C   0  0  0  0  0  0  0  0  0  0  0  0
  -23.0635   -9.8663   19.9155 C   0  0  0  0  0  0  0  0  0  0  0  0
  -23.9123   -9.7492   22.1745 C   0  0  0  0  0  0  0  0  0  0  0  0
  -16.7750  -28.7421   23.3023 C   0  0  0  0  0  0  0  0  0  0  0  0
  -18.1831  -26.6864   24.5423 C   0  0  0  0  0  0  0  0  0  0  0  0
  -24.4916  -24.2317   26.8862 C   0  0  0  0  0  0  0  0  0  0  0  0
  -22.3333   -8.6972   20.1293 C   0  0  0  0  0  0  0  0  0  0  0  0
  -23.1821   -8.5802   22.3883 C   0  0  0  0  0  0  0  0  0  0  0  0
  -25.4147  -23.2183   26.6321 C   0  0  0  0  0  0  0  0  0  0  0  0
  -19.9822   -7.7336   23.0701 C   0  0  0  0  0  0  0  0  0  0  0  0
  -19.2717   -7.6246   24.2654 C   0  0  0  0  0  0  0  0  0  0  0  0
  -31.9347  -18.7056   22.4961 C   0  0  0  0  0  0  0  0  0  0  0  0
  -31.8243  -17.4850   21.7695 C   0  0  0  0  0  0  0  0  0  0  0  0
  -26.3222  -24.5103   24.8084 C   0  0  0  0  0  0  0  0  0  0  0  0
  -20.5465   -5.6555   24.8436 C   0  0  0  0  0  0  0  0  0  0  0  0
  -23.8531  -10.3923   20.9381 C   0  0  0  0  0  0  0  0  0  0  0  0
  -24.1826  -12.9219   20.9463 C   0  0  0  0  0  0  0  0  0  0  0  0
  -18.0549  -28.4052   22.8344 C   0  0  0  0  0  0  0  0  0  0  0  0
  -24.4697  -25.3893   26.0950 C   0  0  0  0  0  0  0  0  0  0  0  0
  -18.7645  -27.3587   23.4538 C   0  0  0  0  0  0  0  0  0  0  0  0
  -25.3995  -25.5381   25.0561 C   0  0  0  0  0  0  0  0  0  0  0  0
  -22.3926   -8.0542   21.3657 C   0  0  0  0  0  0  0  0  0  0  0  0
  -26.3283  -23.3562   25.5913 C   0  0  0  0  0  0  0  0  0  0  0  0
  -20.9749   -6.8035   22.7615 C   0  0  0  0  0  0  0  0  0  0  0  0
  -19.5538   -6.5856   25.1522 C   0  0  0  0  0  0  0  0  0  0  0  0
  -21.2571   -5.7644   23.6483 C   0  0  0  0  0  0  0  0  0  0  0  0
  -24.6080  -11.5996   20.7177 C   0  0  0  0  0  0  0  0  0  0  0  0
  -25.2575  -13.6960   20.5834 C   0  0  0  0  0  0  0  0  0  0  0  0
  -30.8148  -18.9576   23.2576 C   0  0  0  0  0  0  0  0  0  0  0  0
  -30.6242  -16.8503   22.0036 C   0  0  0  0  0  0  0  0  0  0  0  0
  -29.5315  -21.7841   25.1939 C   0  0  0  0  0  0  0  0  0  0  0  0
  -28.5593  -22.6751   25.4197 C   0  0  0  0  0  0  0  0  0  1  0  0
  -22.9279  -13.4071   21.4423 C   0  0  0  0  0  0  0  0  0  0  0  0
  -29.1126  -19.5162   25.9059 C   0  0  0  0  0  0  0  0  0  0  0  0
  -22.3380  -26.7504   24.1696 C   0  0  0  0  0  0  0  0  0  0  0  0
  -24.5422  -29.1273   24.0506 C   0  0  0  0  0  0  0  0  0  0  0  0
  -27.8042  -30.0730   24.3848 C   0  0  0  0  0  0  0  0  0  0  0  0
  -30.7234  -14.7579   20.6041 C   0  0  0  0  0  0  0  0  0  0  0  0
  -18.6038  -29.1338   21.6334 C   0  0  0  0  0  0  0  0  0  0  0  0
  -23.4852  -26.4851   26.3989 C   0  0  0  0  0  0  0  0  0  0  0  0
  -25.4309  -26.7702   24.1903 C   0  0  0  0  0  0  0  0  0  0  0  0
  -30.9971  -22.0792   25.2699 C   0  0  0  0  0  0  0  0  0  0  0  0
  -20.1075  -28.9506   21.4446 C   0  0  0  0  0  0  0  0  0  0  0  0
  -29.5244  -12.4744   18.1495 C   0  0  0  0  0  0  0  0  0  0  0  0
  -20.4892  -27.4814   21.5948 C   0  0  0  0  0  0  0  0  0  0  0  0
  -28.1034  -12.1520   18.6176 C   0  0  0  0  0  0  0  0  0  0  0  0
  -31.5913  -21.1253   24.2368 C   0  0  0  0  0  0  0  0  0  0  0  0
  -30.4850  -12.6405   19.3256 C   0  0  0  0  0  0  0  0  0  0  0  0
  -28.6313  -13.2770   20.8182 C   0  0  0  0  0  0  0  0  0  0  0  0
  -20.1530  -26.9648   22.9989 C   0  0  1  0  0  0  0  0  0  0  0  0
  -29.3276  -20.3808   24.7041 C   0  0  2  0  0  0  0  0  0  0  0  0
  -23.2164  -27.3951   25.2043 C   0  0  1  0  0  0  0  0  0  0  0  0
  -27.6138  -13.1648   19.6712 C   0  0  2  0  0  0  0  0  0  0  0  0
  -27.4437  -17.9455   26.9686 C   0  0  0  0  0  0  0  0  0  0  0  0
  -29.3052  -32.0743   24.1873 C   0  0  0  0  0  0  0  0  0  0  0  0
  -24.4340  -28.9053   21.0094 C   0  0  0  0  0  0  0  0  0  0  0  0
  -26.5748  -30.1995   20.9083 C   0  0  0  0  0  0  0  0  0  0  0  0
  -24.5308  -31.2471   21.8816 C   0  0  0  0  0  0  0  0  0  0  0  0
  -28.5845  -29.9142   27.2353 C   0  0  0  0  0  0  0  0  0  0  0  0
  -27.6700  -19.3017   26.3254 C   0  0  0  0  0  0  0  0  0  0  0  0
  -25.7328  -29.4385   23.1761 C   0  0  1  0  0  0  0  0  0  0  0  0
  -28.4456  -31.2358   25.1204 C   0  0  2  0  0  0  0  0  0  0  0  0
  -25.3165  -29.9234   21.7588 C   0  0  0  0  0  0  0  0  0  0  0  0
  -25.8559  -11.5336   20.2460 N   0  0  0  0  0  0  0  0  0  0  0  0
  -26.2237  -12.8243   20.1751 N   0  0  0  0  0  0  0  0  0  0  0  0
  -30.6056  -20.0544   24.0753 N   0  0  3  0  0  0  0  0  0  0  0  0
  -24.4441  -27.8109   24.5230 N   0  0  0  0  0  0  0  0  0  0  0  0
  -29.9577  -13.6179   20.2804 N   0  0  0  0  0  0  0  0  0  0  0  0
  -25.4610  -15.0305   20.5768 N   0  0  0  0  0  0  0  0  0  0  0  0
  -21.9326  -12.4754   21.7673 N   0  0  0  0  0  0  0  0  0  0  0  0
  -30.1057  -15.6326   21.4975 N   0  0  0  0  0  0  0  0  0  0  0  0
  -21.1447  -27.4126   23.9531 N   0  0  0  0  0  0  0  0  0  0  0  0
  -26.5466  -30.3942   23.9196 N   0  0  0  0  0  0  0  0  0  0  0  0
  -29.3061  -30.7357   26.2297 N   0  3  0  0  0  0  0  0  0  0  0  0
  -22.6905  -14.6314   21.5775 O   0  0  0  0  0  0  0  0  0  0  0  0
  -30.0632  -19.0169   26.5060 O   0  0  0  0  0  0  0  0  0  0  0  0
  -22.7157  -25.7287   23.6082 O   0  0  0  0  0  0  0  0  0  0  0  0
  -23.7330  -30.0213   24.3109 O   0  0  0  0  0  0  0  0  0  0  0  0
  -28.3644  -28.9894   24.2346 O   0  0  0  0  0  0  0  0  0  0  0  0
  -31.8328  -14.9582   20.1032 O   0  0  0  0  0  0  0  0  0  0  0  0
  -21.6800   -6.9135   21.5747 O   0  0  0  0  0  0  0  0  0  0  0  0
  -27.2299  -22.3682   25.3407 O   0  0  0  0  0  0  0  0  0  1  0  0
  -18.8724   -6.4819   26.3007 F   0  0  0  0  0  0  0  0  0  0  0  0
  -22.2104   -4.8686   23.3578 F   0  0  0  0  0  0  0  0  0  0  0  0
  -29.6368  -17.7255   23.0951 S   0  0  0  0  0  0  0  0  0  0  0  0
  1  2  1  0  0  0  0
  1  5  2  0  0  0  0
  2  6  2  0  0  0  0
  3  8  2  0  0  0  0
  3 17  1  0  0  0  0
  4  9  1  0  0  0  0
  4 17  2  0  0  0  0
  5 19  1  0  0  0  0
  6 21  1  0  0  0  0
  7 10  2  0  0  0  0
  7 20  1  0  0  0  0
  8 23  1  0  0  0  0
  9 23  2  0  0  0  0
 10 24  1  0  0  0  0
 11 12  2  0  0  0  0
 11 25  1  0  0  0  0
 12 26  1  0  0  0  0
 13 14  1  0  0  0  0
 13 30  2  0  0  0  0
 14 31  2  0  0  0  0
 15 22  1  0  0  0  0
 15 24  2  0  0  0  0
 16 26  2  0  0  0  0
 16 27  1  0  0  0  0
 17 28  1  0  0  0  0
 18 28  1  0  0  0  0
 18 29  2  0  0  0  0
 18 34  1  0  0  0  0
 19 21  2  0  0  0  0
 19 40  1  0  0  0  0
 20 22  2  0  0  0  0
 20 41  1  0  0  0  0
 21 51  1  0  0  0  0
 22 42  1  0  0  0  0
 23 82  1  0  0  0  0
 24 83  1  0  0  0  0
 25 27  2  0  0  0  0
 25 82  1  0  0  0  0
 26 84  1  0  0  0  0
 27 85  1  0  0  0  0
 28 65  2  0  0  0  0
 29 66  1  0  0  0  0
 29 70  1  0  0  0  0
 30 67  1  0  0  0  0
 30 86  1  0  0  0  0
 31 72  1  0  0  0  0
 31 86  1  0  0  0  0
 32 33  2  0  0  0  0
 32 43  1  0  0  0  0
 32 52  1  0  0  0  0
 33 83  1  0  0  0  0
 34 71  1  0  0  0  0
 34 76  2  0  0  0  0
 35 52  1  0  0  0  0
 35 61  1  0  0  0  0
 35 77  2  0  0  0  0
 36 53  1  0  0  0  0
 36 73  1  0  0  0  0
 36 78  2  0  0  0  0
 37 62  1  0  0  0  0
 37 68  1  0  0  0  0
 37 79  2  0  0  0  0
 38 63  1  0  0  0  0
 38 74  1  0  0  0  0
 38 80  2  0  0  0  0
 39 69  1  0  0  0  0
 39 72  1  0  0  0  0
 39 81  2  0  0  0  0
 40 44  1  0  0  0  0
 41 53  1  0  0  0  0
 42 68  1  0  0  0  0
 43 48  1  0  0  0  0
 44 46  1  0  0  0  0
 45 47  1  0  0  0  0
 45 49  1  0  0  0  0
 46 51  1  0  0  0  0
 47 54  1  0  0  0  0
 48 67  1  0  0  0  0
 49 69  1  0  0  0  0
 50 54  1  0  0  0  0
 50 69  1  0  0  0  0
 51 73  1  0  0  0  0
 52 67  1  0  0  0  0
 53 68  1  0  0  0  0
 54 66  1  0  0  0  0
 55 61  1  0  0  0  0
 56 63  1  0  0  0  0
 57 64  1  0  0  0  0
 58 64  1  0  0  0  0
 59 64  1  0  0  0  0
 60 75  1  0  0  0  0
 62 64  1  0  0  0  0
 62 74  1  0  0  0  0
 63 75  1  0  0  0  0
 65 66  1  0  0  0  0
M  CHG  1  75   1
M  ISO  4  33 101  39 100  72 100  83 101
M  END
> <Batch ID>
0115

> <Smiles>
CCC(=O)C1C(=[101CH:1][101O:1]c2ccc3c(c2)CN(C(=O)C(NC(=O)C(C)NC)C(C)(C)C)C(C(=O)NC2CCCc4ccccc42)C3)CCN1c1ccc([100NH:0][100C:0](=O)N2CCCC(n3nc(-c4ccc(Oc5ccc(F)cc5F)cc4)c(C(N)=O)c3N)C2)s1

> <Shape>
0.289

> <Color>
0.207

> <Negative vol penalty>
0.000

$$$$

  -OEChem-04052301403D

 84 92  0     1  0  0  0  0  0999 V2000
  -16.8036  -28.6471   27.1088 C   0  0  0  0  0  0  0  0  0  0  0  0
  -17.5405  -27.4720   27.0011 C   0  0  0  0  0  0  0  0  0  0  0  0
  -23.1472   -9.8114   21.1047 C   0  0  0  0  0  0  0  0  0  0  0  0
  -23.7718  -10.6550   23.2808 C   0  0  0  0  0  0  0  0  0  0  0  0
  -16.7917  -29.5602   26.0552 C   0  0  0  0  0  0  0  0  0  0  0  0
  -18.2651  -27.2089   25.8391 C   0  0  0  0  0  0  0  0  0  0  0  0
  -23.6414  -24.3045   25.4318 C   0  0  0  0  0  0  0  0  0  0  0  0
  -22.4101   -8.7940   21.7107 C   0  0  0  0  0  0  0  0  0  0  0  0
  -23.0347   -9.6376   23.8868 C   0  0  0  0  0  0  0  0  0  0  0  0
  -23.9750  -22.9888   25.1134 C   0  0  0  0  0  0  0  0  0  0  0  0
  -19.3964   -8.4527   23.2055 C   0  0  0  0  0  0  0  0  0  0  0  0
  -18.1211   -8.1901   22.7055 C   0  0  0  0  0  0  0  0  0  0  0  0
  -24.3638  -23.6475   22.8256 C   0  0  0  0  0  0  0  0  0  0  0  0
  -18.7905   -5.9275   22.1862 C   0  0  0  0  0  0  0  0  0  0  0  0
  -30.5402  -19.6323   21.0643 C   0  0  0  0  0  0  0  0  0  0  0  0
  -31.6584  -17.8023   20.4198 C   0  0  0  0  0  0  0  0  0  0  0  0
  -23.8281  -10.7419   21.8898 C   0  0  0  0  0  0  0  0  0  0  0  0
  -29.6968  -18.5558   21.2288 C   0  0  0  0  0  0  0  0  0  0  0  0
  -24.1326  -13.0730   20.8996 C   0  0  0  0  0  0  0  0  0  0  0  0
  -17.5244  -29.3126   24.8836 C   0  0  0  0  0  0  0  0  0  0  0  0
  -23.6560  -25.3011   24.4455 C   0  0  0  0  0  0  0  0  0  0  0  0
  -18.2620  -28.1189   24.7684 C   0  0  0  0  0  0  0  0  0  0  0  0
  -24.0325  -24.9755   23.1346 C   0  0  0  0  0  0  0  0  0  0  0  0
  -30.4042  -17.3980   20.8209 C   0  0  0  0  0  0  0  0  0  0  0  0
  -22.3538   -8.7071   23.1017 C   0  0  0  0  0  0  0  0  0  0  0  0
  -24.3335  -22.6595   23.8095 C   0  0  0  0  0  0  0  0  0  0  0  0
  -20.3689   -7.4527   23.1958 C   0  0  0  0  0  0  0  0  0  0  0  0
  -17.8181   -6.9275   22.1958 C   0  0  0  0  0  0  0  0  0  0  0  0
  -20.0659   -6.1901   22.6862 C   0  0  0  0  0  0  0  0  0  0  0  0
  -24.5902  -11.7927   21.2644 C   0  0  0  0  0  0  0  0  0  0  0  0
  -25.2309  -13.6858   20.3476 C   0  0  0  0  0  0  0  0  0  0  0  0
  -32.7559  -22.0055   18.8037 C   0  0  0  0  0  0  0  0  0  0  0  0
  -28.3176  -18.6475   21.7401 C   0  0  0  0  0  0  0  0  0  0  0  0
  -27.7231  -19.7876   22.1308 C   0  0  0  0  0  0  0  0  0  0  0  0
  -32.7247  -20.6759   18.9477 C   0  0  0  0  0  0  0  0  0  0  0  0
  -25.9089  -21.1318   23.0002 C   0  0  0  0  0  0  0  0  0  1  0  0
  -22.8311  -13.6563   21.0465 C   0  0  0  0  0  0  0  0  0  0  0  0
  -26.3635  -19.9168   22.6496 C   0  0  0  0  0  0  0  0  0  0  0  0
  -21.4728  -27.2283   23.1714 C   0  0  0  0  0  0  0  0  0  0  0  0
  -24.0456  -28.5066   21.6650 C   0  0  0  0  0  0  0  0  0  0  0  0
  -27.2367  -28.0954   20.5274 C   0  0  0  0  0  0  0  0  0  0  0  0
  -30.6587  -14.9265   20.4048 C   0  0  0  0  0  0  0  0  0  0  0  0
  -17.4429  -30.3072   23.7527 C   0  0  0  0  0  0  0  0  0  0  0  0
  -23.3195  -26.7208   24.8110 C   0  0  0  0  0  0  0  0  0  0  0  0
  -24.0836  -26.0125   22.0435 C   0  0  0  0  0  0  0  0  0  0  0  0
  -18.5383  -30.1287   22.7046 C   0  0  0  0  0  0  0  0  0  0  0  0
  -29.7263  -11.7929   18.9947 C   0  0  0  0  0  0  0  0  0  0  0  0
  -18.6771  -28.6585   22.3225 C   0  0  0  0  0  0  0  0  0  0  0  0
  -28.2693  -11.6188   19.4294 C   0  0  0  0  0  0  0  0  0  0  0  0
  -30.5656  -12.4646   20.0800 C   0  0  0  0  0  0  0  0  0  0  0  0
  -28.5691  -13.5591   21.0209 C   0  0  0  0  0  0  0  0  0  0  0  0
  -19.0808  -27.8094   23.5339 C   0  0  1  0  0  0  0  0  0  0  0  0
  -22.8705  -27.5553   23.6153 C   0  0  1  0  0  0  0  0  0  0  0  0
  -27.6698  -12.9456   19.9353 C   0  0  2  0  0  0  0  0  0  0  0  0
  -25.5106  -18.6826   22.7748 C   0  0  0  0  0  0  0  0  0  0  0  0
  -29.0627  -29.3051   19.3028 C   0  0  0  0  0  0  0  0  0  0  0  0
  -22.5583  -28.0838   19.0346 C   0  0  0  0  0  0  0  0  0  0  0  0
  -24.7327  -28.4010   17.8347 C   0  0  0  0  0  0  0  0  0  0  0  0
  -23.7828  -30.2580   19.2029 C   0  0  0  0  0  0  0  0  0  0  0  0
  -29.0806  -27.8855   22.8328 C   0  0  0  0  0  0  0  0  0  0  0  0
  -32.8828  -19.9761   20.2616 C   0  0  0  0  0  0  0  0  0  0  0  0
  -24.7654  -28.2392   20.3653 C   0  0  1  0  0  0  0  0  0  0  0  0
  -28.4742  -28.9640   20.6630 C   0  0  2  0  0  0  0  0  0  0  0  0
  -23.9571  -28.7254   19.1293 C   0  0  0  0  0  0  0  0  0  0  0  0
  -25.8787  -11.6021   20.9689 N   0  0  0  0  0  0  0  0  0  0  0  0
  -31.7299  -19.1623   20.5724 N   0  0  0  0  0  0  0  0  0  0  0  0
  -26.2402  -12.7708   20.4126 N   0  0  0  0  0  0  0  0  0  0  0  0
  -23.7397  -27.3853   22.4492 N   0  0  0  0  0  0  0  0  0  0  0  0
  -29.9387  -13.7174   20.5070 N   0  0  0  0  0  0  0  0  0  0  0  0
  -25.4222  -14.9127   19.8179 N   0  0  0  0  0  0  0  0  0  0  0  0
  -21.8171  -12.8880   21.6346 N   0  0  0  0  0  0  0  0  0  0  0  0
  -29.9487  -16.0563   20.8099 N   0  0  0  0  0  0  0  0  0  0  0  0
  -20.4929  -27.9632   23.8109 N   0  0  0  0  0  0  0  0  0  0  0  0
  -26.0836  -28.8507   20.4954 N   0  0  0  0  0  0  0  0  0  0  0  0
  -29.5162  -28.2599   21.4627 N   0  3  0  0  0  0  0  0  0  0  0  0
  -22.5707  -14.8184   20.6526 O   0  0  0  0  0  0  0  0  0  0  0  0
  -21.2965  -26.3735   22.3111 O   0  0  0  0  0  0  0  0  0  0  0  0
  -23.7713  -29.6682   21.9765 O   0  0  0  0  0  0  0  0  0  0  0  0
  -27.2881  -26.8696   20.4532 O   0  0  0  0  0  0  0  0  0  0  0  0
  -31.8100  -14.9608   19.9630 O   0  0  0  0  0  0  0  0  0  0  0  0
  -21.6344   -7.7147   23.6934 O   0  0  0  0  0  0  0  0  0  0  0  0
  -24.6589  -21.3759   23.4958 O   0  0  0  0  0  0  0  0  0  1  0  0
  -16.5928   -6.6751   21.7171 F   0  0  0  0  0  0  0  0  0  0  0  0
  -20.9956   -5.2250   22.6753 F   0  0  0  0  0  0  0  0  0  0  0  0
  1  2  1  0  0  0  0
  1  5  2  0  0  0  0
  2  6  2  0  0  0  0
  3  8  2  0  0  0  0
  3 17  1  0  0  0  0
  4  9  1  0  0  0  0
  4 17  2  0  0  0  0
  5 20  1  0  0  0  0
  6 22  1  0  0  0  0
  7 10  2  0  0  0  0
  7 21  1  0  0  0  0
  8 25  1  0  0  0  0
  9 25  2  0  0  0  0
 10 26  1  0  0  0  0
 11 12  2  0  0  0  0
 11 27  1  0  0  0  0
 12 28  1  0  0  0  0
 13 23  1  0  0  0  0
 13 26  2  0  0  0  0
 14 28  2  0  0  0  0
 14 29  1  0  0  0  0
 15 18  2  0  0  0  0
 15 66  1  0  0  0  0
 16 24  2  0  0  0  0
 16 66  1  0  0  0  0
 17 30  1  0  0  0  0
 18 24  1  0  0  0  0
 18 33  1  0  0  0  0
 19 30  1  0  0  0  0
 19 31  2  0  0  0  0
 19 37  1  0  0  0  0
 20 22  2  0  0  0  0
 20 43  1  0  0  0  0
 21 23  2  0  0  0  0
 21 44  1  0  0  0  0
 22 52  1  0  0  0  0
 23 45  1  0  0  0  0
 24 72  1  0  0  0  0
 25 81  1  0  0  0  0
 26 82  1  0  0  0  0
 27 29  2  0  0  0  0
 27 81  1  0  0  0  0
 28 83  1  0  0  0  0
 29 84  1  0  0  0  0
 30 65  2  0  0  0  0
 31 67  1  0  0  0  0
 31 70  1  0  0  0  0
 32 35  2  0  0  0  0
 33 34  2  0  0  0  0
 34 38  1  0  0  0  0
 35 61  1  0  0  0  0
 36 38  2  0  0  0  0
 36 82  1  0  0  0  0
 37 71  1  0  0  0  0
 37 76  2  0  0  0  0
 38 55  1  0  0  0  0
 39 53  1  0  0  0  0
 39 73  1  0  0  0  0
 39 77  2  0  0  0  0
 40 62  1  0  0  0  0
 40 68  1  0  0  0  0
 40 78  2  0  0  0  0
 41 63  1  0  0  0  0
 41 74  1  0  0  0  0
 41 79  2  0  0  0  0
 42 69  1  0  0  0  0
 42 72  1  0  0  0  0
 42 80  2  0  0  0  0
 43 46  1  0  0  0  0
 44 53  1  0  0  0  0
 45 68  1  0  0  0  0
 46 48  1  0  0  0  0
 47 49  1  0  0  0  0
 47 50  1  0  0  0  0
 48 52  1  0  0  0  0
 49 54  1  0  0  0  0
 50 69  1  0  0  0  0
 51 54  1  0  0  0  0
 51 69  1  0  0  0  0
 52 73  1  0  0  0  0
 53 68  1  0  0  0  0
 54 67  1  0  0  0  0
 56 63  1  0  0  0  0
 57 64  1  0  0  0  0
 58 64  1  0  0  0  0
 59 64  1  0  0  0  0
 60 75  1  0  0  0  0
 61 66  1  0  0  0  0
 62 64  1  0  0  0  0
 62 74  1  0  0  0  0
 63 75  1  0  0  0  0
 65 67  1  0  0  0  0
M  CHG  1  75   1
M  ISO  4  36 101  42 100  72 100  82 101
M  END
> <Batch ID>
0115

> <Smiles>
C=CCn1cc(C=CC(C)=[101CH:1][101O:1]c2ccc3c(c2)CN(C(=O)C(NC(=O)C(C)NC)C(C)(C)C)C(C(=O)NC2CCCc4ccccc42)C3)c([100NH:0][100C:0](=O)N2CCCC(n3nc(-c4ccc(Oc5ccc(F)cc5F)cc4)c(C(N)=O)c3N)C2)c1

> <Shape>
0.262

> <Color>
0.162

> <Negative vol penalty>
0.000

$$$$

  -OEChem-04052301403D

 88 96  0     1  0  0  0  0  0999 V2000
  -26.6132  -35.1151   24.1284 C   0  0  0  0  0  0  0  0  0  0  0  0
  -27.0825  -33.8695   23.7238 C   0  0  0  0  0  0  0  0  0  0  0  0
  -25.7479  -17.0634   15.0482 C   0  0  0  0  0  0  0  0  0  0  0  0
  -25.0195  -14.8038   14.6002 C   0  0  0  0  0  0  0  0  0  0  0  0
  -25.3323  -35.2353   24.6657 C   0  0  0  0  0  0  0  0  0  0  0  0
  -26.2713  -32.7431   23.8573 C   0  0  0  0  0  0  0  0  0  0  0  0
  -26.3312  -29.8060   19.7324 C   0  0  0  0  0  0  0  0  0  0  0  0
  -25.5095  -17.4043   13.7169 C   0  0  0  0  0  0  0  0  0  0  0  0
  -24.7810  -15.1447   13.2688 C   0  0  0  0  0  0  0  0  0  0  0  0
  -27.4392  -28.9783   19.5562 C   0  0  0  0  0  0  0  0  0  0  0  0
  -24.3210  -15.3252    9.6680 C   0  0  0  0  0  0  0  0  0  0  0  0
  -24.7643  -14.4424    8.6833 C   0  0  0  0  0  0  0  0  0  0  0  0
  -30.1030  -20.4984   20.7522 C   0  0  0  0  0  0  0  0  0  0  0  0
  -26.1741  -27.1122   20.4142 C   0  0  0  0  0  0  0  0  0  0  0  0
  -27.0349  -14.7122    9.4635 C   0  0  0  0  0  0  0  0  0  0  0  0
  -25.5030  -15.7632   15.4899 C   0  0  0  0  0  0  0  0  0  0  0  0
  -30.3779  -19.1581   20.9996 C   0  0  0  0  0  0  0  0  0  0  0  0
  -31.6397  -18.6488   20.7137 C   0  0  0  0  0  0  0  0  0  0  0  0
  -24.8428  -15.4895   17.9387 C   0  0  0  0  0  0  0  0  0  0  0  0
  -24.5015  -34.1114   24.7969 C   0  0  0  0  0  0  0  0  0  0  0  0
  -25.1378  -29.2945   20.2620 C   0  0  0  0  0  0  0  0  0  0  0  0
  -24.9786  -32.8482   24.3981 C   0  0  0  0  0  0  0  0  0  0  0  0
  -25.0516  -27.9349   20.5938 C   0  0  0  0  0  0  0  0  0  0  0  0
  -25.0260  -16.4450   12.8272 C   0  0  0  0  0  0  0  0  0  0  0  0
  -27.3617  -27.6318   19.8998 C   0  0  0  0  0  0  0  0  0  0  0  0
  -25.2347  -15.9016   10.5504 C   0  0  0  0  0  0  0  0  0  0  0  0
  -26.1212  -14.1358    8.5810 C   0  0  0  0  0  0  0  0  0  0  0  0
  -26.5916  -15.5951   10.4482 C   0  0  0  0  0  0  0  0  0  0  0  0
  -25.7497  -15.4103   16.8649 C   0  0  0  0  0  0  0  0  0  0  0  0
  -31.1160  -21.2812   20.2224 C   0  0  0  0  0  0  0  0  0  0  0  0
  -32.5839  -19.5143   20.1855 C   0  0  0  0  0  0  0  0  0  0  0  0
  -25.5563  -15.0433   19.0243 C   0  0  0  0  0  0  0  0  0  0  0  0
  -28.1730  -18.0857   20.9422 C   0  0  0  0  0  0  0  0  0  0  0  0
  -29.3219  -18.3220   21.5567 C   0  0  0  0  0  0  0  0  0  0  0  0
  -31.9636  -17.2215   20.9683 C   0  0  0  0  0  0  0  0  0  0  0  0
  -23.4776  -15.9271   17.9536 C   0  0  0  0  0  0  0  0  0  0  0  0
  -23.4071  -29.8768   22.8638 C   0  0  0  0  0  0  0  0  0  0  0  0
  -29.5825  -24.6887   19.8764 C   0  0  0  0  0  0  0  0  0  0  0  0
  -21.3310  -27.8098   21.4711 C   0  0  0  0  0  0  0  0  0  0  0  0
  -20.8337  -25.2306   19.2924 C   0  0  0  0  0  0  0  0  0  0  0  0
  -31.3504  -14.9068   20.3440 C   0  0  0  0  0  0  0  0  0  0  0  0
  -23.1421  -34.2832   25.4272 C   0  0  0  0  0  0  0  0  0  0  0  0
  -23.9432  -30.1946   20.4210 C   0  0  0  0  0  0  0  0  0  0  0  0
  -23.7871  -27.3322   21.1471 C   0  0  0  0  0  0  0  0  0  0  0  0
  -22.2061  -33.1013   25.1881 C   0  0  0  0  0  0  0  0  0  0  0  0
  -29.1766  -12.1235   20.1845 C   0  0  0  0  0  0  0  0  0  0  0  0
  -22.9295  -31.7850   25.4547 C   0  0  0  0  0  0  0  0  0  0  0  0
  -27.9591  -12.6593   19.4263 C   0  0  0  0  0  0  0  0  0  0  0  0
  -30.4833  -12.6949   19.6358 C   0  0  0  0  0  0  0  0  0  0  0  0
  -29.3191  -14.6904   18.7869 C   0  0  0  0  0  0  0  0  0  0  0  0
  -24.1194  -31.6070   24.5039 C   0  0  1  0  0  0  0  0  0  0  0  0
  -22.9403  -29.6804   21.4492 C   0  0  1  0  0  0  0  0  0  0  0  0
  -27.9746  -14.1991   19.3471 C   0  0  1  0  0  0  0  0  0  0  0  0
  -19.0345  -23.7290   18.3950 C   0  0  0  0  0  0  0  0  0  0  0  0
  -21.3656  -26.2172   24.0735 C   0  0  0  0  0  0  0  0  0  0  0  0
  -20.3542  -24.2946   22.8290 C   0  0  0  0  0  0  0  0  0  0  0  0
  -19.1086  -26.4473   23.0212 C   0  0  0  0  0  0  0  0  0  0  0  0
  -34.9125  -19.8153   19.3412 C   0  0  0  0  0  0  0  0  0  0  0  0
  -21.2521  -26.1904   16.5242 C   0  0  0  0  0  0  0  0  0  0  0  0
  -29.5485  -23.2223   20.2511 C   0  0  0  0  0  0  0  0  0  0  0  0
  -28.2924  -25.4527   20.1025 C   0  0  0  0  0  0  0  0  0  1  0  0
  -21.1270  -26.3144   21.5045 C   0  0  1  0  0  0  0  0  0  0  0  0
  -19.8066  -25.0237   18.1939 C   0  0  2  0  0  0  0  0  0  0  0  0
  -20.5135  -25.8299   22.8485 C   0  0  0  0  0  0  0  0  0  0  0  0
  -26.9479  -14.9502   17.2347 N   0  0  0  0  0  0  0  0  0  0  0  0
  -32.3538  -20.8221   19.9316 N   0  0  0  0  0  0  0  0  0  0  0  0
  -26.7988  -14.7363   18.5531 N   0  0  0  0  0  0  0  0  0  0  0  0
  -22.6484  -28.2544   21.2900 N   0  0  0  0  0  0  0  0  0  0  0  0
  -30.4207  -14.1572   19.6023 N   0  0  0  0  0  0  0  0  0  0  0  0
  -25.2357  -14.8877   20.3264 N   0  0  0  0  0  0  0  0  0  0  0  0
  -22.8993  -16.3530   16.7500 N   0  0  0  0  0  0  0  0  0  0  0  0
  -33.8735  -19.0059   19.8885 N   0  0  0  0  0  0  0  0  0  0  0  0
  -30.8277  -22.6170   19.9821 N   0  0  0  0  0  0  0  0  0  0  0  0
  -31.1804  -16.2943   20.2803 N   0  0  0  0  0  0  0  0  0  0  0  0
  -23.6625  -31.1940   23.1943 N   0  0  0  0  0  0  0  0  0  0  0  0
  -20.3275  -25.9851   20.3295 N   0  0  0  0  0  0  0  0  0  0  0  0
  -20.4750  -24.9704   16.8630 N   0  3  0  0  0  0  0  0  0  0  0  0
  -32.8984  -16.9443   21.7148 O   0  0  0  0  0  0  0  0  0  0  0  0
  -22.7958  -15.9556   19.0062 O   0  0  0  0  0  0  0  0  0  0  0  0
  -23.5254  -28.9053   23.6014 O   0  0  0  0  0  0  0  0  0  0  0  0
  -30.5849  -25.2350   19.4175 O   0  0  0  0  0  0  0  0  0  0  0  0
  -20.3564  -28.5560   21.5938 O   0  0  0  0  0  0  0  0  0  0  0  0
  -21.9703  -24.7659   19.2376 O   0  0  0  0  0  0  0  0  0  0  0  0
  -32.2320  -14.3853   21.0341 O   0  0  0  0  0  0  0  0  0  0  0  0
  -24.7929  -16.7774   11.5280 O   0  0  0  0  0  0  0  0  0  0  0  0
  -28.4419  -26.8219   19.7294 O   0  0  0  0  0  0  0  0  0  1  0  0
  -26.5465  -13.2868    7.6364 F   0  0  0  0  0  0  0  0  0  0  0  0
  -27.4739  -16.1448   11.2938 F   0  0  0  0  0  0  0  0  0  0  0  0
  1  2  1  0  0  0  0
  1  5  2  0  0  0  0
  2  6  2  0  0  0  0
  3  8  2  0  0  0  0
  3 16  1  0  0  0  0
  4  9  1  0  0  0  0
  4 16  2  0  0  0  0
  5 20  1  0  0  0  0
  6 22  1  0  0  0  0
  7 10  2  0  0  0  0
  7 21  1  0  0  0  0
  8 24  1  0  0  0  0
  9 24  2  0  0  0  0
 10 25  1  0  0  0  0
 11 12  2  0  0  0  0
 11 26  1  0  0  0  0
 12 27  1  0  0  0  0
 13 17  1  0  0  0  0
 13 30  2  0  0  0  0
 14 23  1  0  0  0  0
 14 25  2  0  0  0  0
 15 27  2  0  0  0  0
 15 28  1  0  0  0  0
 16 29  1  0  0  0  0
 17 18  2  0  0  0  0
 17 34  1  0  0  0  0
 18 31  1  0  0  0  0
 18 35  1  0  0  0  0
 19 29  1  0  0  0  0
 19 32  2  0  0  0  0
 19 36  1  0  0  0  0
 20 22  2  0  0  0  0
 20 42  1  0  0  0  0
 21 23  2  0  0  0  0
 21 43  1  0  0  0  0
 22 51  1  0  0  0  0
 23 44  1  0  0  0  0
 24 85  1  0  0  0  0
 25 86  1  0  0  0  0
 26 28  2  0  0  0  0
 26 85  1  0  0  0  0
 27 87  1  0  0  0  0
 28 88  1  0  0  0  0
 29 65  2  0  0  0  0
 30 66  1  0  0  0  0
 30 73  1  0  0  0  0
 31 66  2  0  0  0  0
 31 72  1  0  0  0  0
 32 67  1  0  0  0  0
 32 70  1  0  0  0  0
 33 34  2  0  0  0  0
 35 74  1  0  0  0  0
 35 78  2  0  0  0  0
 36 71  1  0  0  0  0
 36 79  2  0  0  0  0
 37 52  1  0  0  0  0
 37 75  1  0  0  0  0
 37 80  2  0  0  0  0
 38 60  1  0  0  0  0
 38 61  1  0  0  0  0
 38 81  2  0  0  0  0
 39 62  1  0  0  0  0
 39 68  1  0  0  0  0
 39 82  2  0  0  0  0
 40 63  1  0  0  0  0
 40 76  1  0  0  0  0
 40 83  2  0  0  0  0
 41 69  1  0  0  0  0
 41 74  1  0  0  0  0
 41 84  2  0  0  0  0
 42 45  1  0  0  0  0
 43 52  1  0  0  0  0
 44 68  1  0  0  0  0
 45 47  1  0  0  0  0
 46 48  1  0  0  0  0
 46 49  1  0  0  0  0
 47 51  1  0  0  0  0
 48 53  1  0  0  0  0
 49 69  1  0  0  0  0
 50 53  1  0  0  0  0
 50 69  1  0  0  0  0
 51 75  1  0  0  0  0
 52 68  1  0  0  0  0
 53 67  1  0  0  0  0
 54 63  1  0  0  0  0
 55 64  1  0  0  0  0
 56 64  1  0  0  0  0
 57 64  1  0  0  0  0
 58 72  1  0  0  0  0
 59 77  1  0  0  0  0
 60 73  1  0  0  0  0
 61 86  1  0  0  0  0
 62 64  1  0  0  0  0
 62 76  1  0  0  0  0
 63 77  1  0  0  0  0
 65 67  1  0  0  0  0
M  CHG  1  77   1
M  ISO  4  41 100  61 101  74 100  86 101
M  END
> <Batch ID>
0115

> <Smiles>
C=Cc1cc(NCC(=O)[101CH2:1][101O:1]c2ccc3c(c2)CN(C(=O)C(NC(=O)C(C)NC)C(C)(C)C)C(C(=O)NC2CCCc4ccccc42)C3)nc(NC)c1C(=O)[100NH:0][100C:0](=O)N1CCCC(n2nc(-c3ccc(Oc4ccc(F)cc4F)cc3)c(C(N)=O)c2N)C1

> <Shape>
0.236

> <Color>
0.121

> <Negative vol penalty>
0.000

$$$$

  -OEChem-04052301403D

 82 90  0     1  0  0  0  0  0999 V2000
  -24.3546  -21.3181   18.5020 C   0  0  0  0  0  0  0  0  0  0  0  0
  -25.4885  -21.3797   19.3056 C   0  0  0  0  0  0  0  0  0  0  0  0
  -23.0748   -9.7791   20.0677 C   0  0  0  0  0  0  0  0  0  0  0  0
  -23.7153  -10.0401   22.3825 C   0  0  0  0  0  0  0  0  0  0  0  0
  -23.9567  -22.4379   17.7728 C   0  0  0  0  0  0  0  0  0  0  0  0
  -26.2259  -22.5610   19.3797 C   0  0  0  0  0  0  0  0  0  0  0  0
  -27.5181  -23.7500   24.1295 C   0  0  0  0  0  0  0  0  0  0  0  0
  -32.4042  -17.8504   23.2117 C   0  0  0  0  0  0  0  0  0  0  0  0
  -31.8539  -16.8755   22.3797 C   0  0  0  0  0  0  0  0  0  0  0  0
  -22.3299   -8.6480   20.4013 C   0  0  0  0  0  0  0  0  0  0  0  0
  -22.9705   -8.9090   22.7162 C   0  0  0  0  0  0  0  0  0  0  0  0
  -28.5884  -23.0551   24.6911 C   0  0  0  0  0  0  0  0  0  0  0  0
  -23.3211   -5.5513   22.5310 C   0  0  0  0  0  0  0  0  0  0  0  0
  -23.9084   -4.6171   23.3841 C   0  0  0  0  0  0  0  0  0  0  0  0
  -30.0401  -24.9236   24.2213 C   0  0  0  0  0  0  0  0  0  0  0  0
  -30.1983  -18.7475   23.6195 C   0  0  0  0  0  0  0  0  0  0  0  0
  -22.1197   -4.9450   24.9747 C   0  0  0  0  0  0  0  0  0  0  0  0
  -23.7675  -10.4752   21.0583 C   0  0  0  0  0  0  0  0  0  0  0  0
  -24.0912  -12.9783   20.6875 C   0  0  0  0  0  0  0  0  0  0  0  0
  -24.6840  -23.6364   17.8455 C   0  0  0  0  0  0  0  0  0  0  0  0
  -27.7034  -25.0347   23.5989 C   0  0  0  0  0  0  0  0  0  0  0  0
  -25.8381  -23.6974   18.6497 C   0  0  0  0  0  0  0  0  0  0  0  0
  -28.9699  -25.6336   23.6558 C   0  0  0  0  0  0  0  0  0  0  0  0
  -29.6480  -17.7727   22.7873 C   0  0  0  0  0  0  0  0  0  0  0  0
  -31.5764  -18.7864   23.8317 C   0  0  0  0  0  0  0  0  0  0  0  0
  -30.4759  -16.8366   22.1674 C   0  0  0  0  0  0  0  0  0  0  0  0
  -22.2777   -8.2129   21.7255 C   0  0  0  0  0  0  0  0  0  0  0  0
  -29.8502  -23.6408   24.7345 C   0  0  0  0  0  0  0  0  0  0  0  0
  -22.1331   -6.1826   22.8998 C   0  0  0  0  0  0  0  0  0  0  0  0
  -23.3077   -4.3139   24.6059 C   0  0  0  0  0  0  0  0  0  0  0  0
  -21.5324   -5.8794   24.1217 C   0  0  0  0  0  0  0  0  0  0  0  0
  -24.5376  -11.6434   20.7142 C   0  0  0  0  0  0  0  0  0  0  0  0
  -25.1935  -13.7012   20.3018 C   0  0  0  0  0  0  0  0  0  0  0  0
  -32.4731  -20.8730   24.0908 C   0  0  0  0  0  0  0  0  0  0  0  0
  -22.7960  -13.5166   20.9847 C   0  0  0  0  0  0  0  0  0  0  0  0
  -27.3913  -26.3374   20.7163 C   0  0  0  0  0  0  0  0  0  0  0  0
  -28.0138  -29.0875   22.3199 C   0  0  0  0  0  0  0  0  0  0  0  0
  -29.4069  -30.6019   25.0425 C   0  0  0  0  0  0  0  0  0  0  0  0
  -30.6333  -14.8406   20.6386 C   0  0  0  0  0  0  0  0  0  0  0  0
  -24.2420  -24.8061   17.0023 C   0  0  0  0  0  0  0  0  0  0  0  0
  -26.5329  -25.7816   23.0207 C   0  0  0  0  0  0  0  0  0  0  0  0
  -29.2171  -27.0187   23.1182 C   0  0  0  0  0  0  0  0  0  0  0  0
  -24.8650  -26.1333   17.4272 C   0  0  0  0  0  0  0  0  0  0  0  0
  -29.6653  -12.1734   18.4878 C   0  0  0  0  0  0  0  0  0  0  0  0
  -26.3652  -25.9713   17.6512 C   0  0  0  0  0  0  0  0  0  0  0  0
  -28.2082  -11.9075   18.8731 C   0  0  0  0  0  0  0  0  0  0  0  0
  -30.5151  -12.5416   19.7027 C   0  0  0  0  0  0  0  0  0  0  0  0
  -28.5327  -13.3798   20.9014 C   0  0  0  0  0  0  0  0  0  0  0  0
  -26.6500  -24.9682   18.7755 C   0  0  1  0  0  0  0  0  0  0  0  0
  -26.9472  -26.8793   22.0455 C   0  0  1  0  0  0  0  0  0  0  0  0
  -27.6235  -13.0684   19.7013 C   0  0  2  0  0  0  0  0  0  0  0  0
  -28.1683  -17.7540   22.5789 C   0  0  0  0  0  0  0  0  0  0  0  0
  -29.7902  -32.8650   26.0568 C   0  0  0  0  0  0  0  0  0  0  0  0
  -30.2470  -29.6087   20.3072 C   0  0  0  0  0  0  0  0  0  0  0  0
  -31.1743  -31.3182   21.8839 C   0  0  0  0  0  0  0  0  0  0  0  0
  -28.8971  -31.6249   20.9129 C   0  0  0  0  0  0  0  0  0  0  0  0
  -27.8398  -29.9135   27.4569 C   0  0  0  0  0  0  0  0  0  0  0  0
  -33.0649  -22.0042   24.8882 C   0  0  0  0  0  0  0  0  0  0  0  0
  -32.1948  -23.2430   24.7581 C   0  0  0  0  0  0  0  0  0  1  0  0
  -29.2624  -29.8553   22.6812 C   0  0  1  0  0  0  0  0  0  0  0  0
  -28.8697  -31.6561   25.9937 C   0  0  2  0  0  0  0  0  0  0  0  0
  -29.8913  -30.5749   21.4548 C   0  0  0  0  0  0  0  0  0  0  0  0
  -25.8232  -11.5226   20.3726 N   0  0  0  0  0  0  0  0  0  0  0  0
  -32.1309  -19.7685   24.6695 N   0  0  0  0  0  0  0  0  0  0  0  0
  -26.1941  -12.7909   20.1274 N   0  0  0  0  0  0  0  0  0  0  0  0
  -28.0422  -27.7060   22.5571 N   0  0  0  0  0  0  0  0  0  0  0  0
  -29.9019  -13.6511   20.4361 N   0  0  0  0  0  0  0  0  0  0  0  0
  -25.3948  -15.0205   20.0981 N   0  0  0  0  0  0  0  0  0  0  0  0
  -21.7767  -12.6333   21.3656 N   0  0  0  0  0  0  0  0  0  0  0  0
  -29.9359  -15.8373   21.3203 N   0  0  0  0  0  0  0  0  0  0  0  0
  -26.4327  -25.5824   20.0678 N   0  0  0  0  0  0  0  0  0  0  0  0
  -28.8905  -30.7492   23.7725 N   0  0  0  0  0  0  0  0  0  0  0  0
  -28.7365  -31.0945   27.3676 N   0  3  0  0  0  0  0  0  0  0  0  0
  -22.5455  -14.7427   20.8988 O   0  0  0  0  0  0  0  0  0  0  0  0
  -28.5196  -26.5871   20.3085 O   0  0  0  0  0  0  0  0  0  0  0  0
  -27.0462  -29.6925   21.8515 O   0  0  0  0  0  0  0  0  0  0  0  0
  -30.2076  -29.7368   25.3905 O   0  0  0  0  0  0  0  0  0  0  0  0
  -31.7834  -14.9756   20.2130 O   0  0  0  0  0  0  0  0  0  0  0  0
  -21.5508   -7.1093   22.0515 O   0  0  0  0  0  0  0  0  0  0  0  0
  -30.8968  -22.9645   25.2815 O   0  0  0  0  0  0  0  0  0  1  0  0
  -23.8710   -3.4155   25.4243 F   0  0  0  0  0  0  0  0  0  0  0  0
  -20.3905   -6.4816   24.4809 F   0  0  0  0  0  0  0  0  0  0  0  0
  1  2  1  0  0  0  0
  1  5  2  0  0  0  0
  2  6  2  0  0  0  0
  3 10  2  0  0  0  0
  3 18  1  0  0  0  0
  4 11  1  0  0  0  0
  4 18  2  0  0  0  0
  5 20  1  0  0  0  0
  6 22  1  0  0  0  0
  7 12  2  0  0  0  0
  7 21  1  0  0  0  0
  8  9  2  0  0  0  0
  8 25  1  0  0  0  0
  9 26  1  0  0  0  0
 10 27  1  0  0  0  0
 11 27  2  0  0  0  0
 12 28  1  0  0  0  0
 13 14  2  0  0  0  0
 13 29  1  0  0  0  0
 14 30  1  0  0  0  0
 15 23  1  0  0  0  0
 15 28  2  0  0  0  0
 16 24  1  0  0  0  0
 16 25  2  0  0  0  0
 17 30  2  0  0  0  0
 17 31  1  0  0  0  0
 18 32  1  0  0  0  0
 19 32  1  0  0  0  0
 19 33  2  0  0  0  0
 19 35  1  0  0  0  0
 20 22  2  0  0  0  0
 20 40  1  0  0  0  0
 21 23  2  0  0  0  0
 21 41  1  0  0  0  0
 22 49  1  0  0  0  0
 23 42  1  0  0  0  0
 24 26  2  0  0  0  0
 24 52  1  0  0  0  0
 25 64  1  0  0  0  0
 26 70  1  0  0  0  0
 27 79  1  0  0  0  0
 28 80  1  0  0  0  0
 29 31  2  0  0  0  0
 29 79  1  0  0  0  0
 30 81  1  0  0  0  0
 31 82  1  0  0  0  0
 32 63  2  0  0  0  0
 33 65  1  0  0  0  0
 33 68  1  0  0  0  0
 34 58  1  0  0  0  0
 34 64  2  0  0  0  0
 35 69  1  0  0  0  0
 35 74  2  0  0  0  0
 36 50  1  0  0  0  0
 36 71  1  0  0  0  0
 36 75  2  0  0  0  0
 37 60  1  0  0  0  0
 37 66  1  0  0  0  0
 37 76  2  0  0  0  0
 38 61  1  0  0  0  0
 38 72  1  0  0  0  0
 38 77  2  0  0  0  0
 39 67  1  0  0  0  0
 39 70  1  0  0  0  0
 39 78  2  0  0  0  0
 40 43  1  0  0  0  0
 41 50  1  0  0  0  0
 42 66  1  0  0  0  0
 43 45  1  0  0  0  0
 44 46  1  0  0  0  0
 44 47  1  0  0  0  0
 45 49  1  0  0  0  0
 46 51  1  0  0  0  0
 47 67  1  0  0  0  0
 48 51  1  0  0  0  0
 48 67  1  0  0  0  0
 49 71  1  0  0  0  0
 50 66  1  0  0  0  0
 51 65  1  0  0  0  0
 53 61  1  0  0  0  0
 54 62  1  0  0  0  0
 55 62  1  0  0  0  0
 56 62  1  0  0  0  0
 57 73  1  0  0  0  0
 58 59  1  0  0  0  0
 59 80  1  0  0  0  0
 60 62  1  0  0  0  0
 60 72  1  0  0  0  0
 61 73  1  0  0  0  0
 63 65  1  0  0  0  0
M  CHG  1  73   1
M  ISO  4  39 100  59 101  70 100  80 101
M  END
> <Batch ID>
0115

> <Smiles>
CNC(C)C(=O)NC(C(=O)N1Cc2cc([101O:1][101CH2:1]C=CNc3ccc([100NH:0][100C:0](=O)N4CCCC(n5nc(-c6ccc(Oc7ccc(F)cc7F)cc6)c(C(N)=O)c5N)C4)c(C)c3)ccc2CC1C(=O)NC1CCCc2ccccc21)C(C)(C)C

> <Shape>
0.222

> <Color>
0.216

> <Negative vol penalty>
0.000

$$$$

  -OEChem-04052301403D

 84 92  0     1  0  0  0  0  0999 V2000
  -28.5561  -24.3115   17.6833 C   0  0  0  0  0  0  0  0  0  0  0  0
  -27.3222  -24.5639   18.2744 C   0  0  0  0  0  0  0  0  0  0  0  0
  -27.8099  -19.0048   22.7903 C   0  0  0  0  0  0  0  0  0  0  0  0
  -26.6907  -20.9991   22.0112 C   0  0  0  0  0  0  0  0  0  0  0  0
  -29.7151  -24.8606   18.2302 C   0  0  0  0  0  0  0  0  0  0  0  0
  -27.2469  -25.3645   19.4136 C   0  0  0  0  0  0  0  0  0  0  0  0
  -23.4798  -28.7401   19.1698 C   0  0  0  0  0  0  0  0  0  0  0  0
  -28.6686  -19.0577   21.6924 C   0  0  0  0  0  0  0  0  0  0  0  0
  -27.5494  -21.0521   20.9132 C   0  0  0  0  0  0  0  0  0  0  0  0
  -22.1900  -28.2741   19.4209 C   0  0  0  0  0  0  0  0  0  0  0  0
  -30.9240  -18.4641   18.9023 C   0  0  0  0  0  0  0  0  0  0  0  0
  -31.1730  -17.2768   18.2139 C   0  0  0  0  0  0  0  0  0  0  0  0
  -16.1666  -22.5084   23.2604 C   0  0  0  0  0  0  0  0  0  0  0  0
  -18.5531  -22.1321   23.2516 C   0  0  0  0  0  0  0  0  0  0  0  0
  -17.0578  -20.3872   23.9976 C   0  0  0  0  0  0  0  0  0  0  0  0
  -22.3225  -29.1370   21.6697 C   0  0  0  0  0  0  0  0  0  0  0  0
  -28.8172  -17.0695   17.7195 C   0  0  0  0  0  0  0  0  0  0  0  0
  -26.8209  -19.9754   22.9497 C   0  0  0  0  0  0  0  0  0  0  0  0
  -17.4605  -22.9645   23.0088 C   0  0  0  0  0  0  0  0  0  0  0  0
  -15.9652  -21.2197   23.7549 C   0  0  0  0  0  0  0  0  0  0  0  0
  -26.1247  -20.5206   25.3425 C   0  0  0  0  0  0  0  0  0  0  0  0
  -29.6528  -25.6763   19.3710 C   0  0  0  0  0  0  0  0  0  0  0  0
  -24.2060  -29.3996   20.1719 C   0  0  0  0  0  0  0  0  0  0  0  0
  -28.4064  -25.9239   19.9771 C   0  0  0  0  0  0  0  0  0  0  0  0
  -23.6203  -29.6127   21.4280 C   0  0  0  0  0  0  0  0  0  0  0  0
  -18.3517  -20.8434   23.7460 C   0  0  0  0  0  0  0  0  0  0  0  0
  -28.5383  -20.0813   20.7538 C   0  0  0  0  0  0  0  0  0  0  0  0
  -21.6122  -28.4699   20.6719 C   0  0  0  0  0  0  0  0  0  0  0  0
  -29.6216  -18.9541   18.9994 C   0  0  0  0  0  0  0  0  0  0  0  0
  -30.1196  -16.5795   17.6225 C   0  0  0  0  0  0  0  0  0  0  0  0
  -28.5683  -18.2569   18.4079 C   0  0  0  0  0  0  0  0  0  0  0  0
  -25.9333  -19.9210   24.0833 C   0  0  0  0  0  0  0  0  0  0  0  0
  -25.0065  -20.1748   26.0611 C   0  0  0  0  0  0  0  0  0  0  0  0
  -17.6733  -24.3253   22.4860 C   0  0  0  0  0  0  0  0  0  0  0  0
  -18.8708  -24.8653   22.2091 C   0  0  0  0  0  0  0  0  0  0  0  0
  -19.0231  -26.2057   21.6888 C   0  0  0  0  0  0  0  0  0  0  0  0
  -20.2125  -26.7481   21.4114 C   0  0  0  0  0  0  0  0  0  1  0  0
  -14.6161  -20.7436   24.0168 C   0  0  0  0  0  0  0  0  0  0  0  0
  -27.2158  -21.3189   25.8199 C   0  0  0  0  0  0  0  0  0  0  0  0
  -26.9273  -28.8311   21.7130 C   0  0  0  0  0  0  0  0  0  0  0  0
  -26.3765  -31.7706   22.9692 C   0  0  0  0  0  0  0  0  0  0  0  0
  -24.1224  -34.2096   23.7548 C   0  0  0  0  0  0  0  0  0  0  0  0
  -19.4370  -18.6928   24.4832 C   0  0  0  0  0  0  0  0  0  0  0  0
  -30.9380  -26.2088   19.9536 C   0  0  0  0  0  0  0  0  0  0  0  0
  -25.5860  -29.9199   19.8768 C   0  0  0  0  0  0  0  0  0  0  0  0
  -24.3501  -30.3327   22.5314 C   0  0  0  0  0  0  0  0  0  0  0  0
  -30.7303  -27.3525   20.9431 C   0  0  0  0  0  0  0  0  0  0  0  0
  -21.6973  -16.7308   26.4116 C   0  0  0  0  0  0  0  0  0  0  0  0
  -29.6153  -27.0115   21.9267 C   0  0  0  0  0  0  0  0  0  0  0  0
  -23.0566  -17.3845   26.1528 C   0  0  0  0  0  0  0  0  0  0  0  0
  -20.8163  -16.7409   25.1636 C   0  0  0  0  0  0  0  0  0  0  0  0
  -22.0009  -18.7116   24.2790 C   0  0  0  0  0  0  0  0  0  0  0  0
  -28.2810  -26.8077   21.1991 C   0  0  1  0  0  0  0  0  0  0  0  0
  -26.4287  -30.1240   21.1320 C   0  0  1  0  0  0  0  0  0  0  0  0
  -22.8989  -18.7832   25.5248 C   0  0  2  0  0  0  0  0  0  0  0  0
  -23.9658  -36.4820   24.8079 C   0  0  0  0  0  0  0  0  0  0  0  0
  -26.6741  -30.5085   25.7312 C   0  0  0  0  0  0  0  0  0  0  0  0
  -25.5917  -32.5465   26.7024 C   0  0  0  0  0  0  0  0  0  0  0  0
  -27.7597  -32.7480   25.4851 C   0  0  0  0  0  0  0  0  0  0  0  0
  -23.0785  -35.4198   21.2638 C   0  0  0  0  0  0  0  0  0  0  0  0
  -25.6425  -32.2957   24.1794 C   0  0  1  0  0  0  0  0  0  0  0  0
  -24.1329  -35.7077   23.5097 C   0  0  2  0  0  0  0  0  0  0  0  0
  -26.4037  -32.0093   25.5046 C   0  0  0  0  0  0  0  0  0  0  0  0
  -24.7839  -19.2453   24.0034 N   0  0  0  0  0  0  0  0  0  0  0  0
  -24.2431  -19.4182   25.2215 N   0  0  0  0  0  0  0  0  0  0  0  0
  -25.6993  -30.8170   22.1959 N   0  0  0  0  0  0  0  0  0  0  0  0
  -20.7090  -18.0992   24.6266 N   0  0  0  0  0  0  0  0  0  0  0  0
  -24.6116  -20.4470   27.3230 N   0  0  0  0  0  0  0  0  0  0  0  0
  -14.4702  -19.4502   24.5096 N   0  0  0  0  0  0  0  0  0  0  0  0
  -28.2844  -21.5782   24.9509 N   0  0  0  0  0  0  0  0  0  0  0  0
  -19.4618  -19.9982   23.9935 N   0  0  0  0  0  0  0  0  0  0  0  0
  -27.6990  -28.0842   20.8435 N   0  0  0  0  0  0  0  0  0  0  0  0
  -25.3966  -33.7111   23.9254 N   0  0  0  0  0  0  0  0  0  0  0  0
  -23.0253  -36.0897   22.5887 N   0  3  0  0  0  0  0  0  0  0  0  0
  -13.6223  -21.4571   23.7939 O   0  0  0  0  0  0  0  0  0  0  0  0
  -27.2501  -21.7747   26.9881 O   0  0  0  0  0  0  0  0  0  0  0  0
  -26.6347  -28.5339   22.8653 O   0  0  0  0  0  0  0  0  0  0  0  0
  -27.5060  -32.1964   22.7152 O   0  0  0  0  0  0  0  0  0  0  0  0
  -23.0871  -33.5485   23.7948 O   0  0  0  0  0  0  0  0  0  0  0  0
  -18.4037  -18.0974   24.7992 O   0  0  0  0  0  0  0  0  0  0  0  0
  -29.3762  -20.1335   19.6825 O   0  0  0  0  0  0  0  0  0  0  0  0
  -20.3537  -28.0155   20.9198 O   0  0  0  0  0  0  0  0  0  1  0  0
  -30.3590  -15.4402   16.9601 F   0  0  0  0  0  0  0  0  0  0  0  0
  -27.3151  -18.7233   18.4968 F   0  0  0  0  0  0  0  0  0  0  0  0
  1  2  1  0  0  0  0
  1  5  2  0  0  0  0
  2  6  2  0  0  0  0
  3  8  2  0  0  0  0
  3 18  1  0  0  0  0
  4  9  1  0  0  0  0
  4 18  2  0  0  0  0
  5 22  1  0  0  0  0
  6 24  1  0  0  0  0
  7 10  2  0  0  0  0
  7 23  1  0  0  0  0
  8 27  1  0  0  0  0
  9 27  2  0  0  0  0
 10 28  1  0  0  0  0
 11 12  2  0  0  0  0
 11 29  1  0  0  0  0
 12 30  1  0  0  0  0
 13 19  2  0  0  0  0
 13 20  1  0  0  0  0
 14 19  1  0  0  0  0
 14 26  2  0  0  0  0
 15 20  2  0  0  0  0
 15 26  1  0  0  0  0
 16 25  1  0  0  0  0
 16 28  2  0  0  0  0
 17 30  2  0  0  0  0
 17 31  1  0  0  0  0
 18 32  1  0  0  0  0
 19 34  1  0  0  0  0
 20 38  1  0  0  0  0
 21 32  1  0  0  0  0
 21 33  2  0  0  0  0
 21 39  1  0  0  0  0
 22 24  2  0  0  0  0
 22 44  1  0  0  0  0
 23 25  2  0  0  0  0
 23 45  1  0  0  0  0
 24 53  1  0  0  0  0
 25 46  1  0  0  0  0
 26 71  1  0  0  0  0
 27 81  1  0  0  0  0
 28 82  1  0  0  0  0
 29 31  2  0  0  0  0
 29 81  1  0  0  0  0
 30 83  1  0  0  0  0
 31 84  1  0  0  0  0
 32 64  2  0  0  0  0
 33 65  1  0  0  0  0
 33 68  1  0  0  0  0
 34 35  2  0  0  0  0
 35 36  1  0  0  0  0
 36 37  2  0  0  0  0
 37 82  1  0  0  0  0
 38 69  1  0  0  0  0
 38 75  2  0  0  0  0
 39 70  1  0  0  0  0
 39 76  2  0  0  0  0
 40 54  1  0  0  0  0
 40 72  1  0  0  0  0
 40 77  2  0  0  0  0
 41 61  1  0  0  0  0
 41 66  1  0  0  0  0
 41 78  2  0  0  0  0
 42 62  1  0  0  0  0
 42 73  1  0  0  0  0
 42 79  2  0  0  0  0
 43 67  1  0  0  0  0
 43 71  1  0  0  0  0
 43 80  2  0  0  0  0
 44 47  1  0  0  0  0
 45 54  1  0  0  0  0
 46 66  1  0  0  0  0
 47 49  1  0  0  0  0
 48 50  1  0  0  0  0
 48 51  1  0  0  0  0
 49 53  1  0  0  0  0
 50 55  1  0  0  0  0
 51 67  1  0  0  0  0
 52 55  1  0  0  0  0
 52 67  1  0  0  0  0
 53 72  1  0  0  0  0
 54 66  1  0  0  0  0
 55 65  1  0  0  0  0
 56 62  1  0  0  0  0
 57 63  1  0  0  0  0
 58 63  1  0  0  0  0
 59 63  1  0  0  0  0
 60 74  1  0  0  0  0
 61 63  1  0  0  0  0
 61 73  1  0  0  0  0
 62 74  1  0  0  0  0
 64 65  1  0  0  0  0
M  CHG  1  74   1
M  ISO  4  37 101  43 100  71 100  82 101
M  END
> <Batch ID>
0115

> <Smiles>
CNC(C)C(=O)NC(C(=O)N1Cc2cc([101O:1][101CH:1]=CC=Cc3cc([100NH:0][100C:0](=O)N4CCCC(n5nc(-c6ccc(Oc7ccc(F)cc7F)cc6)c(C(N)=O)c5N)C4)cc(C(N)=O)c3)ccc2CC1C(=O)NC1CCCc2ccccc21)C(C)(C)C

> <Shape>
0.233

> <Color>
0.063

> <Negative vol penalty>
0.000

$$$$

  -OEChem-04052301403D

 87 95  0     1  0  0  0  0  0999 V2000
  -19.0745  -24.0698   22.9247 C   0  0  0  0  0  0  0  0  0  0  0  0
  -20.3929  -24.1942   22.4983 C   0  0  0  0  0  0  0  0  0  0  0  0
  -20.8873  -17.4334   22.6605 C   0  0  0  0  0  0  0  0  0  0  0  0
  -19.6937  -15.3366   22.7867 C   0  0  0  0  0  0  0  0  0  0  0  0
  -18.2557  -25.1963   22.9921 C   0  0  0  0  0  0  0  0  0  0  0  0
  -20.8929  -25.4450   22.1381 C   0  0  0  0  0  0  0  0  0  0  0  0
  -25.4941  -26.3253   24.0615 C   0  0  0  0  0  0  0  0  0  0  0  0
  -19.6836  -18.1059   22.4495 C   0  0  0  0  0  0  0  0  0  0  0  0
  -18.4900  -16.0091   22.5757 C   0  0  0  0  0  0  0  0  0  0  0  0
  -26.5765  -25.7177   23.4266 C   0  0  0  0  0  0  0  0  0  0  0  0
  -17.5517  -18.6505   19.8837 C   0  0  0  0  0  0  0  0  0  0  0  0
  -17.5172  -19.6154   18.8771 C   0  0  0  0  0  0  0  0  0  0  0  0
  -27.0623  -27.7877   22.2872 C   0  0  0  0  0  0  0  0  0  0  0  0
  -29.5259  -19.6488   20.8820 C   0  0  0  0  0  0  0  0  0  0  0  0
  -27.5618  -19.9827   19.5154 C   0  0  0  0  0  0  0  0  0  0  0  0
  -16.9287  -21.2969   20.5091 C   0  0  0  0  0  0  0  0  0  0  0  0
  -20.8923  -16.0487   22.8290 C   0  0  0  0  0  0  0  0  0  0  0  0
  -28.6208  -17.8128   19.5989 C   0  0  0  0  0  0  0  0  0  0  0  0
  -22.7503  -15.0776   24.2825 C   0  0  0  0  0  0  0  0  0  0  0  0
  -18.7488  -26.4631   22.6417 C   0  0  0  0  0  0  0  0  0  0  0  0
  -25.1806  -27.6678   23.8052 C   0  0  0  0  0  0  0  0  0  0  0  0
  -20.0796  -26.5893   22.1996 C   0  0  0  0  0  0  0  0  0  0  0  0
  -25.9769  -28.4107   22.9220 C   0  0  0  0  0  0  0  0  0  0  0  0
  -29.5772  -18.3135   20.4822 C   0  0  0  0  0  0  0  0  0  0  0  0
  -28.5182  -20.4834   20.3987 C   0  0  0  0  0  0  0  0  0  0  0  0
  -18.4850  -17.3938   22.4071 C   0  0  0  0  0  0  0  0  0  0  0  0
  -27.3590  -26.4481   22.5371 C   0  0  0  0  0  0  0  0  0  0  0  0
  -17.2747  -19.0087   21.2031 C   0  0  0  0  0  0  0  0  0  0  0  0
  -17.2057  -20.9386   19.1898 C   0  0  0  0  0  0  0  0  0  0  0  0
  -27.6131  -18.6474   19.1155 C   0  0  0  0  0  0  0  0  0  0  0  0
  -16.9633  -20.3319   21.5158 C   0  0  0  0  0  0  0  0  0  0  0  0
  -22.1354  -15.3534   23.0465 C   0  0  0  0  0  0  0  0  0  0  0  0
  -23.8996  -14.4025   23.9512 C   0  0  0  0  0  0  0  0  0  0  0  0
  -29.1204  -22.6552   20.0625 C   0  0  0  0  0  0  0  0  0  0  0  0
  -28.6561  -16.3949   19.1570 C   0  0  0  0  0  0  0  0  0  0  0  0
  -22.3209  -15.4025   25.6113 C   0  0  0  0  0  0  0  0  0  0  0  0
  -29.1114  -24.1025   20.4334 C   0  0  0  0  0  0  0  0  0  0  0  0
  -22.6754  -29.1915   22.5778 C   0  0  0  0  0  0  0  0  0  0  0  0
  -24.3485  -31.8315   23.4458 C   0  0  0  0  0  0  0  0  0  0  0  0
  -27.3746  -33.2394   24.1582 C   0  0  0  0  0  0  0  0  0  0  0  0
  -27.3388  -14.3007   19.1042 C   0  0  0  0  0  0  0  0  0  0  0  0
  -17.8120  -27.6443   22.6856 C   0  0  0  0  0  0  0  0  0  0  0  0
  -24.0258  -28.3160   24.5185 C   0  0  0  0  0  0  0  0  0  0  0  0
  -25.6947  -29.8606   22.6280 C   0  0  0  0  0  0  0  0  0  0  0  0
  -18.5284  -28.9916   22.6438 C   0  0  0  0  0  0  0  0  0  0  0  0
  -25.7126  -11.5262   20.5721 C   0  0  0  0  0  0  0  0  0  0  0  0
  -19.5944  -28.9959   21.5527 C   0  0  0  0  0  0  0  0  0  0  0  0
  -24.6752  -12.1649   21.4995 C   0  0  0  0  0  0  0  0  0  0  0  0
  -25.8694  -12.3110   19.2703 C   0  0  0  0  0  0  0  0  0  0  0  0
  -25.0993  -14.3795   20.3595 C   0  0  0  0  0  0  0  0  0  0  0  0
  -20.6658  -27.9329   21.8240 C   0  0  1  0  0  0  0  0  0  0  0  0
  -23.4880  -29.5446   23.7913 C   0  0  1  0  0  0  0  0  0  0  0  0
  -24.9557  -13.6659   21.7135 C   0  0  1  0  0  0  0  0  0  0  0  0
  -30.1754  -16.5096   22.1176 C   0  0  0  0  0  0  0  0  0  0  0  0
  -28.4288  -35.4251   24.7973 C   0  0  0  0  0  0  0  0  0  0  0  0
  -24.0452  -32.8149   20.5734 C   0  0  0  0  0  0  0  0  0  0  0  0
  -25.8722  -34.4674   21.0199 C   0  0  0  0  0  0  0  0  0  0  0  0
  -23.7451  -34.5815   22.3180 C   0  0  0  0  0  0  0  0  0  0  0  0
  -28.3947  -32.1347   26.7073 C   0  0  0  0  0  0  0  0  0  0  0  0
  -30.6673  -17.4414   21.0145 C   0  0  0  0  0  0  0  0  0  0  0  0
  -28.3200  -24.4562   21.6625 C   0  0  0  0  0  0  0  0  0  1  0  0
  -25.3805  -32.7098   22.7806 C   0  0  1  0  0  0  0  0  0  0  0  0
  -27.8292  -34.1232   25.3056 C   0  0  2  0  0  0  0  0  0  0  0  0
  -24.7652  -33.6155   21.6768 C   0  0  0  0  0  0  0  0  0  0  0  0
  -22.8362  -14.8914   22.0075 N   0  0  0  0  0  0  0  0  0  0  0  0
  -28.4658  -21.8284   20.8015 N   0  0  0  0  0  0  0  0  0  0  0  0
  -23.9033  -14.3185   22.5899 N   0  0  0  0  0  0  0  0  0  0  0  0
  -24.5509  -30.4478   23.3454 N   0  0  0  0  0  0  0  0  0  0  0  0
  -26.1423  -13.7199   19.5595 N   0  0  0  0  0  0  0  0  0  0  0  0
  -24.8973  -13.8784   24.6944 N   0  0  0  0  0  0  0  0  0  0  0  0
  -21.1155  -16.0992   25.7723 N   0  0  0  0  0  0  0  0  0  0  0  0
  -27.5256  -15.6388   19.4682 N   0  0  0  0  0  0  0  0  0  0  0  0
  -21.5829  -28.3891   22.8463 N   0  0  0  0  0  0  0  0  0  0  0  0
  -26.0453  -33.4423   23.8528 N   0  0  0  0  0  0  0  0  0  0  0  0
  -28.8570  -33.4207   26.1247 N   0  3  0  0  0  0  0  0  0  0  0  0
  -29.6289  -15.9887   18.5273 O   0  0  0  0  0  0  0  0  0  0  0  0
  -22.9946  -15.0989   26.6249 O   0  0  0  0  0  0  0  0  0  0  0  0
  -29.7440  -24.8812   19.7377 O   0  0  0  0  0  0  0  0  0  0  0  0
  -23.0137  -29.6167   21.4794 O   0  0  0  0  0  0  0  0  0  0  0  0
  -23.4015  -32.3541   24.0389 O   0  0  0  0  0  0  0  0  0  0  0  0
  -28.1246  -32.4507   23.5872 O   0  0  0  0  0  0  0  0  0  0  0  0
  -28.1857  -13.6717   18.4618 O   0  0  0  0  0  0  0  0  0  0  0  0
  -17.3102  -18.0497   22.2014 O   0  0  0  0  0  0  0  0  0  0  0  0
  -28.4157  -25.8573   21.9156 O   0  0  0  0  0  0  0  0  0  1  0  0
  -17.1741  -21.8654   18.2233 F   0  0  0  0  0  0  0  0  0  0  0  0
  -26.6895  -18.1786   18.2641 F   0  0  0  0  0  0  0  0  0  0  0  0
  -16.6974  -20.6823   22.7816 F   0  0  0  0  0  0  0  0  0  0  0  0
  1  2  1  0  0  0  0
  1  5  2  0  0  0  0
  2  6  2  0  0  0  0
  3  8  2  0  0  0  0
  3 17  1  0  0  0  0
  4  9  1  0  0  0  0
  4 17  2  0  0  0  0
  5 20  1  0  0  0  0
  6 22  1  0  0  0  0
  7 10  2  0  0  0  0
  7 21  1  0  0  0  0
  8 26  1  0  0  0  0
  9 26  2  0  0  0  0
 10 27  1  0  0  0  0
 11 12  2  0  0  0  0
 11 28  1  0  0  0  0
 12 29  1  0  0  0  0
 13 23  1  0  0  0  0
 13 27  2  0  0  0  0
 14 24  1  0  0  0  0
 14 25  2  0  0  0  0
 15 25  1  0  0  0  0
 15 30  2  0  0  0  0
 16 29  2  0  0  0  0
 16 31  1  0  0  0  0
 17 32  1  0  0  0  0
 18 24  2  0  0  0  0
 18 30  1  0  0  0  0
 18 35  1  0  0  0  0
 19 32  1  0  0  0  0
 19 33  2  0  0  0  0
 19 36  1  0  0  0  0
 20 22  2  0  0  0  0
 20 42  1  0  0  0  0
 21 23  2  0  0  0  0
 21 43  1  0  0  0  0
 22 51  1  0  0  0  0
 23 44  1  0  0  0  0
 24 60  1  0  0  0  0
 25 66  1  0  0  0  0
 26 83  1  0  0  0  0
 27 84  1  0  0  0  0
 28 31  2  0  0  0  0
 28 83  1  0  0  0  0
 29 85  1  0  0  0  0
 30 86  1  0  0  0  0
 31 87  1  0  0  0  0
 32 65  2  0  0  0  0
 33 67  1  0  0  0  0
 33 70  1  0  0  0  0
 34 37  1  0  0  0  0
 34 66  2  0  0  0  0
 35 72  1  0  0  0  0
 35 76  2  0  0  0  0
 36 71  1  0  0  0  0
 36 77  2  0  0  0  0
 37 61  1  0  0  0  0
 37 78  2  0  0  0  0
 38 52  1  0  0  0  0
 38 73  1  0  0  0  0
 38 79  2  0  0  0  0
 39 62  1  0  0  0  0
 39 68  1  0  0  0  0
 39 80  2  0  0  0  0
 40 63  1  0  0  0  0
 40 74  1  0  0  0  0
 40 81  2  0  0  0  0
 41 69  1  0  0  0  0
 41 72  1  0  0  0  0
 41 82  2  0  0  0  0
 42 45  1  0  0  0  0
 43 52  1  0  0  0  0
 44 68  1  0  0  0  0
 45 47  1  0  0  0  0
 46 48  1  0  0  0  0
 46 49  1  0  0  0  0
 47 51  1  0  0  0  0
 48 53  1  0  0  0  0
 49 69  1  0  0  0  0
 50 53  1  0  0  0  0
 50 69  1  0  0  0  0
 51 73  1  0  0  0  0
 52 68  1  0  0  0  0
 53 67  1  0  0  0  0
 54 60  1  0  0  0  0
 55 63  1  0  0  0  0
 56 64  1  0  0  0  0
 57 64  1  0  0  0  0
 58 64  1  0  0  0  0
 59 75  1  0  0  0  0
 61 84  1  0  0  0  0
 62 64  1  0  0  0  0
 62 74  1  0  0  0  0
 63 75  1  0  0  0  0
 65 67  1  0  0  0  0
M  CHG  1  75   1
M  ISO  4  41 100  61 101  72 100  84 101
M  END
> <Batch ID>
0115

> <Smiles>
C=Cc1cc(NCC(=O)[101CH2:1][101O:1]c2ccc3c(c2)CN(C(=O)C(NC(=O)C(C)NC)C(C)(C)C)C(C(=O)NC2CCCc4ccccc42)C3)cc(F)c1C(=O)[100NH:0][100C:0](=O)N1CCCC(n2nc(-c3ccc(Oc4ccc(F)cc4F)cc3)c(C(N)=O)c2N)C1

> <Shape>
0.242

> <Color>
0.073

> <Negative vol penalty>
0.000

$$$$

  -OEChem-04052301403D

 89 98  0     1  0  0  0  0  0999 V2000
  -24.9632   -4.1261   19.8970 C   0  0  0  0  0  0  0  0  0  0  0  0
  -25.3228   -5.1654   19.0450 C   0  0  0  0  0  0  0  0  0  0  0  0
  -24.2927  -32.6928   23.5193 C   0  0  0  0  0  0  0  0  0  0  0  0
  -26.4578  -31.6251   23.6178 C   0  0  0  0  0  0  0  0  0  0  0  0
  -23.9106   -4.2953   20.7955 C   0  0  0  0  0  0  0  0  0  0  0  0
  -24.6293   -6.3742   19.0902 C   0  0  0  0  0  0  0  0  0  0  0  0
  -28.0435  -12.5579   20.5031 C   0  0  0  0  0  0  0  0  0  0  0  0
  -24.6352  -33.4882   24.6127 C   0  0  0  0  0  0  0  0  0  0  0  0
  -26.8003  -32.4205   24.7112 C   0  0  0  0  0  0  0  0  0  0  0  0
  -28.6587  -13.8088   20.5584 C   0  0  0  0  0  0  0  0  0  0  0  0
  -26.4772  -36.2633   25.1946 C   0  0  0  0  0  0  0  0  0  0  0  0
  -26.1785  -37.6240   25.1252 C   0  0  0  0  0  0  0  0  0  0  0  0
  -31.1954  -23.4293   20.4714 C   0  0  0  0  0  0  0  0  0  0  0  0
  -28.7947  -23.2745   20.6938 C   0  0  0  0  0  0  0  0  0  0  0  0
  -26.4965  -14.8880   20.4690 C   0  0  0  0  0  0  0  0  0  0  0  0
  -24.7765  -37.4160   27.0818 C   0  0  0  0  0  0  0  0  0  0  0  0
  -25.2040  -31.7612   23.0218 C   0  0  0  0  0  0  0  0  0  0  0  0
  -30.0548  -22.6798   20.7590 C   0  0  0  0  0  0  0  0  0  0  0  0
  -31.0761  -24.7735   20.1186 C   0  0  0  0  0  0  0  0  0  0  0  0
  -24.4982  -31.3741   20.6012 C   0  0  0  0  0  0  0  0  0  0  0  0
  -23.2100   -5.5102   20.8585 C   0  0  0  0  0  0  0  0  0  0  0  0
  -26.6500  -12.4670   20.4460 C   0  0  0  0  0  0  0  0  0  0  0  0
  -23.5654   -6.5594   19.9894 C   0  0  0  0  0  0  0  0  0  0  0  0
  -25.8741  -13.6376   20.4260 C   0  0  0  0  0  0  0  0  0  0  0  0
  -28.6753  -24.6188   20.3409 C   0  0  0  0  0  0  0  0  0  0  0  0
  -25.8890  -33.3521   25.2087 C   0  0  0  0  0  0  0  0  0  0  0  0
  -27.8871  -14.9709   20.5411 C   0  0  0  0  0  0  0  0  0  0  0  0
  -25.9255  -35.4789   26.2075 C   0  0  0  0  0  0  0  0  0  0  0  0
  -29.8160  -25.3683   20.0533 C   0  0  0  0  0  0  0  0  0  0  0  0
  -25.3282  -38.2004   26.0688 C   0  0  0  0  0  0  0  0  0  0  0  0
  -25.0752  -36.0553   27.1511 C   0  0  0  0  0  0  0  0  0  0  0  0
  -24.8506  -30.9388   21.8927 C   0  0  0  0  0  0  0  0  0  0  0  0
  -24.2553  -30.2165   19.9030 C   0  0  0  0  0  0  0  0  0  0  0  0
  -28.8434  -18.2749   19.5128 C   0  0  0  0  0  0  0  0  0  0  0  0
  -33.2816  -25.6874   20.6807 C   0  0  0  0  0  0  0  0  0  0  0  0
  -32.2839  -25.5333   19.8232 C   0  0  0  0  0  0  0  0  0  0  0  0
  -28.2980  -17.0551   19.5614 C   0  0  0  0  0  0  0  0  0  1  0  0
  -30.1805  -21.2620   21.1309 C   0  0  0  0  0  0  0  0  0  0  0  0
  -24.3993  -32.7059   20.0792 C   0  0  0  0  0  0  0  0  0  0  0  0
  -23.6337  -10.2406   20.3014 C   0  0  0  0  0  0  0  0  0  0  0  0
  -22.9484  -12.5469   22.2045 C   0  0  0  0  0  0  0  0  0  0  0  0
  -21.6977  -14.5289   24.6832 C   0  0  0  0  0  0  0  0  0  0  0  0
  -26.1640  -24.5899   20.5377 C   0  0  0  0  0  0  0  0  0  0  0  0
  -22.0487   -5.6298   21.8133 C   0  0  0  0  0  0  0  0  0  0  0  0
  -25.9474  -11.1422   20.3230 C   0  0  0  0  0  0  0  0  0  0  0  0
  -24.3800  -13.4922   20.3290 C   0  0  0  0  0  0  0  0  0  0  0  0
  -28.6581  -19.2589   18.3974 C   0  0  0  0  0  0  0  0  0  0  0  0
  -29.6323  -18.9039   20.6170 C   0  0  0  0  0  0  0  0  0  0  0  0
  -21.6077   -7.0705   22.0585 C   0  0  0  0  0  0  0  0  0  0  0  0
  -22.7821  -25.7034   20.5316 C   0  0  0  0  0  0  0  0  0  0  0  0
  -21.4971   -7.8269   20.7385 C   0  0  0  0  0  0  0  0  0  0  0  0
  -22.8970  -27.2128   20.7563 C   0  0  0  0  0  0  0  0  0  0  0  0
  -28.7589  -20.5910   19.1222 C   0  0  0  0  0  0  0  0  0  0  0  0
  -23.8324  -24.9300   21.3269 C   0  0  0  0  0  0  0  0  0  0  0  0
  -25.3318  -26.8846   21.3486 C   0  0  0  0  0  0  0  0  0  0  0  0
  -22.8532   -7.8942   20.0258 C   0  0  1  0  0  0  0  0  0  0  0  0
  -24.5972  -11.1044   21.0609 C   0  0  1  0  0  0  0  0  0  0  0  0
  -24.3361  -27.7102   20.5175 C   0  0  2  0  0  0  0  0  0  0  0  0
  -19.5290  -15.3233   25.6646 C   0  0  0  0  0  0  0  0  0  0  0  0
  -22.5894  -14.4582   19.8546 C   0  0  0  0  0  0  0  0  0  0  0  0
  -21.0501  -15.8173   21.2870 C   0  0  0  0  0  0  0  0  0  0  0  0
  -20.4667  -13.4590   20.7208 C   0  0  0  0  0  0  0  0  0  0  0  0
  -22.3098  -13.3167   27.3128 C   0  0  0  0  0  0  0  0  0  0  0  0
  -29.7274  -27.6344   20.7693 C   0  0  0  0  0  0  0  0  0  0  0  0
  -22.3325  -13.9137   22.3653 C   0  0  1  0  0  0  0  0  0  0  0  0
  -20.6303  -14.2768   25.7328 C   0  0  2  0  0  0  0  0  0  0  0  0
  -21.6363  -14.4066   21.0654 C   0  0  0  0  0  0  0  0  0  0  0  0
  -24.8341  -29.6085   22.0108 N   0  0  0  0  0  0  0  0  0  0  0  0
  -24.4684  -29.1979   20.7845 N   0  0  0  0  0  0  0  0  0  0  0  0
  -29.5469  -20.3264   20.3243 N   0  0  0  0  0  0  0  0  0  0  0  0
  -23.9228  -12.4053   21.2090 N   0  0  0  0  0  0  0  0  0  0  0  0
  -25.1712  -25.4535   21.0470 N   0  0  0  0  0  0  0  0  0  0  0  0
  -23.8824  -29.9808   18.6271 N   0  0  0  0  0  0  0  0  0  0  0  0
  -24.6834  -33.7808   20.9325 N   0  0  0  0  0  0  0  0  0  0  0  0
  -27.3876  -25.2068   20.2796 N   0  0  0  0  0  0  0  0  0  0  0  0
  -23.6951   -8.9011   20.6354 N   0  0  0  0  0  0  0  0  0  0  0  0
  -21.4474  -13.8290   23.5219 N   0  0  0  0  0  0  0  0  0  0  0  0
  -21.2277  -14.3116   27.0977 N   0  3  0  0  0  0  0  0  0  0  0  0
  -30.8480  -20.9982   22.1292 O   0  0  0  0  0  0  0  0  0  0  0  0
  -24.0528  -32.9364   18.8958 O   0  0  0  0  0  0  0  0  0  0  0  0
  -22.8877  -10.7508   19.4738 O   0  0  0  0  0  0  0  0  0  0  0  0
  -22.5736  -11.6265   22.9364 O   0  0  0  0  0  0  0  0  0  0  0  0
  -22.6555  -15.2753   24.8731 O   0  0  0  0  0  0  0  0  0  0  0  0
  -25.9367  -23.3972   20.3192 O   0  0  0  0  0  0  0  0  0  0  0  0
  -26.2236  -34.1283   26.2755 O   0  0  0  0  0  0  0  0  0  0  0  0
  -28.4939  -16.1887   20.5999 O   0  0  0  0  0  0  0  0  0  1  0  0
  -29.6933  -26.6840   19.7085 O   0  0  0  0  0  0  0  0  0  0  0  0
  -25.0427  -39.5074   26.0030 F   0  0  0  0  0  0  0  0  0  0  0  0
  -24.5430  -35.3070   28.1272 F   0  0  0  0  0  0  0  0  0  0  0  0
  1  2  1  0  0  0  0
  1  5  2  0  0  0  0
  2  6  2  0  0  0  0
  3  8  2  0  0  0  0
  3 17  1  0  0  0  0
  4  9  1  0  0  0  0
  4 17  2  0  0  0  0
  5 21  1  0  0  0  0
  6 23  1  0  0  0  0
  7 10  2  0  0  0  0
  7 22  1  0  0  0  0
  8 26  1  0  0  0  0
  9 26  2  0  0  0  0
 10 27  1  0  0  0  0
 11 12  2  0  0  0  0
 11 28  1  0  0  0  0
 12 30  1  0  0  0  0
 13 18  2  0  0  0  0
 13 19  1  0  0  0  0
 14 18  1  0  0  0  0
 14 25  2  0  0  0  0
 15 24  1  0  0  0  0
 15 27  2  0  0  0  0
 16 30  2  0  0  0  0
 16 31  1  0  0  0  0
 17 32  1  0  0  0  0
 18 38  1  0  0  0  0
 19 29  2  0  0  0  0
 19 36  1  0  0  0  0
 20 32  1  0  0  0  0
 20 33  2  0  0  0  0
 20 39  1  0  0  0  0
 21 23  2  0  0  0  0
 21 44  1  0  0  0  0
 22 24  2  0  0  0  0
 22 45  1  0  0  0  0
 23 56  1  0  0  0  0
 24 46  1  0  0  0  0
 25 29  1  0  0  0  0
 25 75  1  0  0  0  0
 26 85  1  0  0  0  0
 27 86  1  0  0  0  0
 28 31  2  0  0  0  0
 28 85  1  0  0  0  0
 29 87  1  0  0  0  0
 30 88  1  0  0  0  0
 31 89  1  0  0  0  0
 32 68  2  0  0  0  0
 33 69  1  0  0  0  0
 33 73  1  0  0  0  0
 34 37  2  0  0  0  0
 34 47  1  0  0  0  0
 34 48  1  0  0  0  0
 35 36  2  0  0  0  0
 37 86  1  0  0  0  0
 38 70  1  0  0  0  0
 38 79  2  0  0  0  0
 39 74  1  0  0  0  0
 39 80  2  0  0  0  0
 40 57  1  0  0  0  0
 40 76  1  0  0  0  0
 40 81  2  0  0  0  0
 41 65  1  0  0  0  0
 41 71  1  0  0  0  0
 41 82  2  0  0  0  0
 42 66  1  0  0  0  0
 42 77  1  0  0  0  0
 42 83  2  0  0  0  0
 43 72  1  0  0  0  0
 43 75  1  0  0  0  0
 43 84  2  0  0  0  0
 44 49  1  0  0  0  0
 45 57  1  0  0  0  0
 46 71  1  0  0  0  0
 47 53  1  0  0  0  0
 48 70  1  0  0  0  0
 49 51  1  0  0  0  0
 50 52  1  0  0  0  0
 50 54  1  0  0  0  0
 51 56  1  0  0  0  0
 52 58  1  0  0  0  0
 53 70  1  0  0  0  0
 54 72  1  0  0  0  0
 55 58  1  0  0  0  0
 55 72  1  0  0  0  0
 56 76  1  0  0  0  0
 57 71  1  0  0  0  0
 58 69  1  0  0  0  0
 59 66  1  0  0  0  0
 60 67  1  0  0  0  0
 61 67  1  0  0  0  0
 62 67  1  0  0  0  0
 63 78  1  0  0  0  0
 64 87  1  0  0  0  0
 65 67  1  0  0  0  0
 65 77  1  0  0  0  0
 66 78  1  0  0  0  0
 68 69  1  0  0  0  0
M  CHG  1  78   1
M  ISO  4  37 101  43 100  75 100  86 101
M  END
> <Batch ID>
0115

> <Smiles>
C=Cc1cc(C(=O)N2CCC(=[101CH:1][101O:1]c3ccc4c(c3)CN(C(=O)C(NC(=O)C(C)NC)C(C)(C)C)C(C(=O)NC3CCCc5ccccc53)C4)C2)cc([100NH:0][100C:0](=O)N2CCCC(n3nc(-c4ccc(Oc5ccc(F)cc5F)cc4)c(C(N)=O)c3N)C2)c1OC

> <Shape>
0.288

> <Color>
0.039

> <Negative vol penalty>
0.000

$$$$

  -OEChem-04052301403D

 84 92  0     1  0  0  0  0  0999 V2000
  -30.9158  -32.8159   24.7267 C   0  0  0  0  0  0  0  0  0  0  0  0
  -31.0340  -31.5405   24.1837 C   0  0  0  0  0  0  0  0  0  0  0  0
  -23.0204   -9.9192   19.9317 C   0  0  0  0  0  0  0  0  0  0  0  0
  -23.8713   -9.8268   22.1911 C   0  0  0  0  0  0  0  0  0  0  0  0
  -29.6541  -33.3381   25.0084 C   0  0  0  0  0  0  0  0  0  0  0  0
  -29.8906  -30.7861   23.9231 C   0  0  0  0  0  0  0  0  0  0  0  0
  -29.0453  -26.8592   19.3003 C   0  0  0  0  0  0  0  0  0  0  0  0
  -22.2830   -8.7578   20.1619 C   0  0  0  0  0  0  0  0  0  0  0  0
  -23.1338   -8.6654   22.4213 C   0  0  0  0  0  0  0  0  0  0  0  0
  -29.1420  -25.4707   19.2194 C   0  0  0  0  0  0  0  0  0  0  0  0
  -23.3904   -5.3697   21.7117 C   0  0  0  0  0  0  0  0  0  0  0  0
  -24.0304   -4.3135   22.3601 C   0  0  0  0  0  0  0  0  0  0  0  0
  -27.6944  -18.3872   21.6528 C   0  0  0  0  0  0  0  0  0  0  0  0
  -26.7618  -25.2907   19.5676 C   0  0  0  0  0  0  0  0  0  0  0  0
  -29.0564  -18.4959   19.6603 C   0  0  0  0  0  0  0  0  0  0  0  0
  -22.3991   -4.4173   24.1392 C   0  0  0  0  0  0  0  0  0  0  0  0
  -23.8146  -10.4537   20.9463 C   0  0  0  0  0  0  0  0  0  0  0  0
  -28.3927  -17.2536   22.0684 C   0  0  0  0  0  0  0  0  0  0  0  0
  -29.4230  -16.7411   21.2800 C   0  0  0  0  0  0  0  0  0  0  0  0
  -24.1604  -12.9810   20.9204 C   0  0  0  0  0  0  0  0  0  0  0  0
  -28.4942  -32.5935   24.7422 C   0  0  0  0  0  0  0  0  0  0  0  0
  -27.8057  -27.4744   19.5266 C   0  0  0  0  0  0  0  0  0  0  0  0
  -28.6123  -31.2983   24.2028 C   0  0  0  0  0  0  0  0  0  0  0  0
  -26.6516  -26.6873   19.6483 C   0  0  0  0  0  0  0  0  0  0  0  0
  -28.0261  -19.0083   20.4487 C   0  0  0  0  0  0  0  0  0  0  0  0
  -22.3397   -8.1309   21.4067 C   0  0  0  0  0  0  0  0  0  0  0  0
  -28.0006  -24.6861   19.3560 C   0  0  0  0  0  0  0  0  0  0  0  0
  -22.2548   -5.9498   22.2771 C   0  0  0  0  0  0  0  0  0  0  0  0
  -23.5347   -3.8373   23.5738 C   0  0  0  0  0  0  0  0  0  0  0  0
  -29.7548  -17.3622   20.0759 C   0  0  0  0  0  0  0  0  0  0  0  0
  -21.7591   -5.4735   23.4908 C   0  0  0  0  0  0  0  0  0  0  0  0
  -24.5771  -11.6530   20.7089 C   0  0  0  0  0  0  0  0  0  0  0  0
  -25.2399  -13.7433   20.5459 C   0  0  0  0  0  0  0  0  0  0  0  0
  -28.0369  -17.2637   24.4950 C   0  0  0  0  0  0  0  0  0  0  0  0
  -28.0194  -16.6304   23.3322 C   0  0  0  0  0  0  0  0  0  0  0  0
  -27.8061  -21.2835   20.4218 C   0  0  0  0  0  0  0  0  0  0  0  0
  -30.1760  -15.5590   21.6832 C   0  0  0  0  0  0  0  0  0  0  0  0
  -22.9095  -13.4808   21.4114 C   0  0  0  0  0  0  0  0  0  0  0  0
  -30.7597  -14.6406   20.6787 C   0  0  0  0  0  0  0  0  0  0  0  0
  -26.6007  -29.3153   21.8207 C   0  0  0  0  0  0  0  0  0  0  0  0
  -24.0692  -29.5044   19.8013 C   0  0  0  0  0  0  0  0  0  0  0  0
  -22.2984  -28.1131   17.2371 C   0  0  0  0  0  0  0  0  0  0  0  0
  -27.1543  -33.1815   25.1076 C   0  0  0  0  0  0  0  0  0  0  0  0
  -27.7141  -28.9746   19.5846 C   0  0  0  0  0  0  0  0  0  0  0  0
  -25.2940  -27.2998   19.8722 C   0  0  0  0  0  0  0  0  0  0  0  0
  -25.9758  -32.4649   24.4535 C   0  0  0  0  0  0  0  0  0  0  0  0
  -29.4818  -12.4919   18.1084 C   0  0  0  0  0  0  0  0  0  0  0  0
  -26.1271  -30.9533   24.5911 C   0  0  0  0  0  0  0  0  0  0  0  0
  -28.0711  -12.1605   18.5942 C   0  0  0  0  0  0  0  0  0  0  0  0
  -30.4536  -12.6397   19.2746 C   0  0  0  0  0  0  0  0  0  0  0  0
  -28.6076  -13.3145   20.7864 C   0  0  0  0  0  0  0  0  0  0  0  0
  -27.3943  -30.4590   23.8830 C   0  0  1  0  0  0  0  0  0  0  0  0
  -26.4791  -29.4695   20.3310 C   0  0  1  0  0  0  0  0  0  0  0  0
  -27.5918  -13.1849   19.6381 C   0  0  2  0  0  0  0  0  0  0  0  0
  -20.2545  -28.4797   15.8280 C   0  0  0  0  0  0  0  0  0  0  0  0
  -22.3089  -28.6000   22.1237 C   0  0  0  0  0  0  0  0  0  0  0  0
  -20.5096  -28.0744   20.4640 C   0  0  0  0  0  0  0  0  0  0  0  0
  -21.3256  -30.4182   20.7158 C   0  0  0  0  0  0  0  0  0  0  0  0
  -23.8966  -28.2561   14.7503 C   0  0  0  0  0  0  0  0  0  0  0  0
  -27.1460  -22.5714   20.0296 C   0  0  0  0  0  0  0  0  0  1  0  0
  -22.8063  -28.7042   19.5923 C   0  0  1  0  0  0  0  0  0  0  0  0
  -21.7532  -28.7070   15.9508 C   0  0  2  0  0  0  0  0  0  0  0  0
  -21.7633  -28.9373   20.7217 C   0  0  0  0  0  0  0  0  0  0  0  0
  -25.8239  -11.5728   20.2367 N   0  0  0  0  0  0  0  0  0  0  0  0
  -30.3843  -15.2376   22.9291 N   0  0  0  0  0  0  0  0  0  0  0  0
  -27.3227  -20.1503   20.0297 N   0  0  0  0  0  0  0  0  0  0  0  0
  -26.1999  -12.8599   20.1481 N   0  0  0  0  0  0  0  0  0  0  0  0
  -29.9515  -13.5915   20.2636 N   0  0  0  0  0  0  0  0  0  0  0  0
  -25.2572  -28.7706   19.9278 N   0  0  0  0  0  0  0  0  0  0  0  0
  -25.4520  -15.0762   20.5213 N   0  0  0  0  0  0  0  0  0  0  0  0
  -21.9086  -12.5600   21.7499 N   0  0  0  0  0  0  0  0  0  0  0  0
  -27.1828  -30.3976   22.4526 N   0  0  0  0  0  0  0  0  0  0  0  0
  -22.3260  -29.0411   18.2566 N   0  0  0  0  0  0  0  0  0  0  0  0
  -22.4207  -28.0881   14.7708 N   0  3  0  0  0  0  0  0  0  0  0  0
  -22.6802  -14.7083   21.5306 O   0  0  0  0  0  0  0  0  0  0  0  0
  -31.8995  -14.9065   20.3204 O   0  0  0  0  0  0  0  0  0  0  0  0
  -26.1951  -28.2910   22.3572 O   0  0  0  0  0  0  0  0  0  0  0  0
  -24.0050  -30.7356   19.8434 O   0  0  0  0  0  0  0  0  0  0  0  0
  -22.6599  -26.9421   17.3294 O   0  0  0  0  0  0  0  0  0  0  0  0
  -21.6201   -6.9978   21.6317 O   0  0  0  0  0  0  0  0  0  0  0  0
  -28.0923  -23.3306   19.2782 O   0  0  0  0  0  0  0  0  0  1  0  0
  -24.1485   -2.8220   24.1956 F   0  0  0  0  0  0  0  0  0  0  0  0
  -30.7434  -16.8804   19.3090 F   0  0  0  0  0  0  0  0  0  0  0  0
  -20.6678   -6.0259   24.0383 F   0  0  0  0  0  0  0  0  0  0  0  0
  1  2  1  0  0  0  0
  1  5  2  0  0  0  0
  2  6  2  0  0  0  0
  3  8  2  0  0  0  0
  3 17  1  0  0  0  0
  4  9  1  0  0  0  0
  4 17  2  0  0  0  0
  5 21  1  0  0  0  0
  6 23  1  0  0  0  0
  7 10  2  0  0  0  0
  7 22  1  0  0  0  0
  8 26  1  0  0  0  0
  9 26  2  0  0  0  0
 10 27  1  0  0  0  0
 11 12  2  0  0  0  0
 11 28  1  0  0  0  0
 12 29  1  0  0  0  0
 13 18  1  0  0  0  0
 13 25  2  0  0  0  0
 14 24  1  0  0  0  0
 14 27  2  0  0  0  0
 15 25  1  0  0  0  0
 15 30  2  0  0  0  0
 16 29  2  0  0  0  0
 16 31  1  0  0  0  0
 17 32  1  0  0  0  0
 18 19  2  0  0  0  0
 18 35  1  0  0  0  0
 19 30  1  0  0  0  0
 19 37  1  0  0  0  0
 20 32  1  0  0  0  0
 20 33  2  0  0  0  0
 20 38  1  0  0  0  0
 21 23  2  0  0  0  0
 21 43  1  0  0  0  0
 22 24  2  0  0  0  0
 22 44  1  0  0  0  0
 23 52  1  0  0  0  0
 24 45  1  0  0  0  0
 25 66  1  0  0  0  0
 26 80  1  0  0  0  0
 27 81  1  0  0  0  0
 28 31  2  0  0  0  0
 28 80  1  0  0  0  0
 29 82  1  0  0  0  0
 30 83  1  0  0  0  0
 31 84  1  0  0  0  0
 32 64  2  0  0  0  0
 33 67  1  0  0  0  0
 33 70  1  0  0  0  0
 34 35  2  0  0  0  0
 36 60  1  0  0  0  0
 36 66  2  0  0  0  0
 37 39  1  0  0  0  0
 37 65  2  0  0  0  0
 38 71  1  0  0  0  0
 38 75  2  0  0  0  0
 39 68  1  0  0  0  0
 39 76  2  0  0  0  0
 40 53  1  0  0  0  0
 40 72  1  0  0  0  0
 40 77  2  0  0  0  0
 41 61  1  0  0  0  0
 41 69  1  0  0  0  0
 41 78  2  0  0  0  0
 42 62  1  0  0  0  0
 42 73  1  0  0  0  0
 42 79  2  0  0  0  0
 43 46  1  0  0  0  0
 44 53  1  0  0  0  0
 45 69  1  0  0  0  0
 46 48  1  0  0  0  0
 47 49  1  0  0  0  0
 47 50  1  0  0  0  0
 48 52  1  0  0  0  0
 49 54  1  0  0  0  0
 50 68  1  0  0  0  0
 51 54  1  0  0  0  0
 51 68  1  0  0  0  0
 52 72  1  0  0  0  0
 53 69  1  0  0  0  0
 54 67  1  0  0  0  0
 55 62  1  0  0  0  0
 56 63  1  0  0  0  0
 57 63  1  0  0  0  0
 58 63  1  0  0  0  0
 59 74  1  0  0  0  0
 60 81  1  0  0  0  0
 61 63  1  0  0  0  0
 61 73  1  0  0  0  0
 62 74  1  0  0  0  0
 64 67  1  0  0  0  0
M  CHG  1  74   1
M  ISO  4  37 100  39 100  60 101  81 101
M  END
> <Batch ID>
0115

> <Smiles>
C=Cc1cc(NC=[101CH:1][101O:1]c2ccc3c(c2)CN(C(=O)C(NC(=O)C(C)NC)C(C)(C)C)C(C(=O)NC2CCCc4ccccc42)C3)cc(F)c1[100C:0](=N)[100C:0](=O)N1CCCC(n2nc(-c3ccc(Oc4ccc(F)cc4F)cc3)c(C(N)=O)c2N)C1

> <Shape>
0.377

> <Color>
0.213

> <Negative vol penalty>
0.000

$$$$

  -OEChem-04052301403D

 88 96  0     1  0  0  0  0  0999 V2000
  -26.3725  -33.9280   25.8566 C   0  0  0  0  0  0  0  0  0  0  0  0
  -26.8345  -32.7351   25.3099 C   0  0  0  0  0  0  0  0  0  0  0  0
  -23.9063  -10.3806   20.0986 C   0  0  0  0  0  0  0  0  0  0  0  0
  -23.9845  -10.1754   22.5046 C   0  0  0  0  0  0  0  0  0  0  0  0
  -25.0063  -34.1166   26.0616 C   0  0  0  0  0  0  0  0  0  0  0  0
  -25.9306  -31.7296   24.9688 C   0  0  0  0  0  0  0  0  0  0  0  0
  -26.9065  -29.6962   20.4347 C   0  0  0  0  0  0  0  0  0  0  0  0
  -23.4997   -9.0501   19.9983 C   0  0  0  0  0  0  0  0  0  0  0  0
  -23.5779   -8.8449   22.4043 C   0  0  0  0  0  0  0  0  0  0  0  0
  -27.9492  -28.7736   20.3617 C   0  0  0  0  0  0  0  0  0  0  0  0
  -20.6946   -7.1540   21.9063 C   0  0  0  0  0  0  0  0  0  0  0  0
  -19.6983   -6.7150   22.7781 C   0  0  0  0  0  0  0  0  0  0  0  0
  -25.7642  -18.9921   17.9990 C   0  0  0  0  0  0  0  0  0  0  0  0
  -26.3487  -26.9696   20.4148 C   0  0  0  0  0  0  0  0  0  0  0  0
  -26.0718  -21.5446   16.9160 C   0  0  0  0  0  0  0  0  0  0  0  0
  -21.2130   -5.0609   23.6763 C   0  0  0  0  0  0  0  0  0  0  0  0
  -24.1487  -10.9433   21.3517 C   0  0  0  0  0  0  0  0  0  0  0  0
  -27.0126  -19.6140   18.0226 C   0  0  0  0  0  0  0  0  0  0  0  0
  -23.7447  -13.4518   21.5796 C   0  0  0  0  0  0  0  0  0  0  0  0
  -24.0844  -33.1167   25.7139 C   0  0  0  0  0  0  0  0  0  0  0  0
  -25.5754  -29.2615   20.5093 C   0  0  0  0  0  0  0  0  0  0  0  0
  -24.5509  -31.9045   25.1705 C   0  0  0  0  0  0  0  0  0  0  0  0
  -25.2907  -27.8887   20.4860 C   0  0  0  0  0  0  0  0  0  0  0  0
  -24.8235  -20.9228   16.8923 C   0  0  0  0  0  0  0  0  0  0  0  0
  -24.6697  -19.6465   17.4338 C   0  0  0  0  0  0  0  0  0  0  0  0
  -23.3355   -8.2823   21.1512 C   0  0  0  0  0  0  0  0  0  0  0  0
  -27.6706  -27.4100   20.3547 C   0  0  0  0  0  0  0  0  0  0  0  0
  -21.9502   -6.5465   21.9193 C   0  0  0  0  0  0  0  0  0  0  0  0
  -27.1664  -20.8902   17.4812 C   0  0  0  0  0  0  0  0  0  0  0  0
  -19.9575   -5.6685   23.6631 C   0  0  0  0  0  0  0  0  0  0  0  0
  -22.2094   -5.5000   22.8044 C   0  0  0  0  0  0  0  0  0  0  0  0
  -24.5693  -12.3175   21.4559 C   0  0  0  0  0  0  0  0  0  0  0  0
  -24.6207  -14.5078   21.6421 C   0  0  0  0  0  0  0  0  0  0  0  0
  -28.1559  -18.9056   18.6248 C   0  0  0  0  0  0  0  0  0  0  0  0
  -28.4656  -22.7134   18.1588 C   0  0  0  0  0  0  0  0  0  0  0  0
  -22.3149  -13.5427   21.6334 C   0  0  0  0  0  0  0  0  0  0  0  0
  -29.5965  -23.4234   18.2440 C   0  0  0  0  0  0  0  0  0  0  0  0
  -29.6591  -24.7260   18.9755 C   0  0  0  0  0  0  0  0  0  0  0  0
  -23.2382  -29.5490   22.6444 C   0  0  0  0  0  0  0  0  0  0  0  0
  -21.4758  -28.1130   20.3305 C   0  0  0  0  0  0  0  0  0  0  0  0
  -21.4026  -26.1162   17.5639 C   0  0  0  0  0  0  0  0  0  0  0  0
  -29.1475  -17.1203   19.6835 C   0  0  0  0  0  0  0  0  0  0  0  0
  -22.6214  -33.3477   25.9980 C   0  0  0  0  0  0  0  0  0  0  0  0
  -24.4605  -30.2698   20.5606 C   0  0  0  0  0  0  0  0  0  0  0  0
  -23.8776  -27.3707   20.5438 C   0  0  0  0  0  0  0  0  0  0  0  0
  -21.6978  -32.3802   25.2623 C   0  0  0  0  0  0  0  0  0  0  0  0
  -29.6368  -14.6113   22.2272 C   0  0  0  0  0  0  0  0  0  0  0  0
  -22.2093  -30.9492   25.3945 C   0  0  0  0  0  0  0  0  0  0  0  0
  -28.3042  -13.8624   22.2369 C   0  0  0  0  0  0  0  0  0  0  0  0
  -30.0087  -15.0743   20.8219 C   0  0  0  0  0  0  0  0  0  0  0  0
  -27.6181  -15.1549   20.1684 C   0  0  0  0  0  0  0  0  0  0  0  0
  -23.5995  -30.7998   24.7647 C   0  0  1  0  0  0  0  0  0  0  0  0
  -23.1719  -29.7063   21.1516 C   0  0  1  0  0  0  0  0  0  0  0  0
  -27.1948  -14.6994   21.5754 C   0  0  1  0  0  0  0  0  0  0  0  0
  -23.3312  -21.1248   14.8876 C   0  0  0  0  0  0  0  0  0  0  0  0
  -19.8118  -25.0909   15.9160 C   0  0  0  0  0  0  0  0  0  0  0  0
  -20.6522  -26.0441   22.4165 C   0  0  0  0  0  0  0  0  0  0  0  0
  -19.8785  -24.5695   20.5469 C   0  0  0  0  0  0  0  0  0  0  0  0
  -18.8062  -26.7932   20.9047 C   0  0  0  0  0  0  0  0  0  0  0  0
  -22.6550  -27.5411   15.2923 C   0  0  0  0  0  0  0  0  0  0  0  0
  -23.6680  -21.6464   16.2810 C   0  0  0  0  0  0  0  0  0  0  0  0
  -28.4069  -25.2636   19.6428 C   0  0  0  0  0  0  0  0  0  1  0  0
  -21.1510  -26.6846   19.9656 C   0  0  1  0  0  0  0  0  0  0  0  0
  -20.7109  -26.2786   16.2224 C   0  0  2  0  0  0  0  0  0  0  0  0
  -20.1488  -26.0322   20.9593 C   0  0  0  0  0  0  0  0  0  0  0  0
  -25.8692  -12.6241   21.4403 N   0  0  0  0  0  0  0  0  0  0  0  0
  -28.0324  -17.7239   19.1345 N   0  0  0  0  0  0  0  0  0  0  0  0
  -25.8681  -13.9631   21.5550 N   0  0  0  0  0  0  0  0  0  0  0  0
  -22.8225  -28.3959   20.5993 N   0  0  0  0  0  0  0  0  0  0  0  0
  -28.9180  -15.8373   20.2136 N   0  0  0  0  0  0  0  0  0  0  0  0
  -23.4129  -19.0023   17.4183 N   0  0  0  0  0  0  0  0  0  0  0  0
  -24.4380  -15.8400   21.7623 N   0  0  0  0  0  0  0  0  0  0  0  0
  -21.5668  -12.3600   21.5561 N   0  0  0  0  0  0  0  0  0  0  0  0
  -23.4959  -30.7247   23.3232 N   0  0  0  0  0  0  0  0  0  0  0  0
  -20.6887  -26.7117   18.5821 N   0  0  0  0  0  0  0  0  0  0  0  0
  -21.7187  -26.3991   15.1312 N   0  3  0  0  0  0  0  0  0  0  0  0
  -21.7177  -14.6416   21.7301 O   0  0  0  0  0  0  0  0  0  0  0  0
  -30.7268  -25.3384   19.0226 O   0  0  0  0  0  0  0  0  0  0  0  0
  -23.0667  -28.4430   23.1436 O   0  0  0  0  0  0  0  0  0  0  0  0
  -20.5691  -28.9485   20.3685 O   0  0  0  0  0  0  0  0  0  0  0  0
  -22.4678  -25.5174   17.6959 O   0  0  0  0  0  0  0  0  0  0  0  0
  -30.2657  -17.6398   19.7138 O   0  0  0  0  0  0  0  0  0  0  0  0
  -30.7747  -22.9971   17.6621 O   0  0  0  0  0  0  0  0  0  0  0  0
  -22.9385   -6.9840   21.0537 O   0  0  0  0  0  0  0  0  0  0  0  0
  -28.3840  -21.5180   17.4943 O   0  0  0  0  0  0  0  0  0  0  0  0
  -28.6865  -26.5074   20.2842 O   0  0  0  0  0  0  0  0  0  1  0  0
  -19.0010   -5.2480   24.5014 F   0  0  0  0  0  0  0  0  0  0  0  0
  -23.4140   -4.9132   22.8224 F   0  0  0  0  0  0  0  0  0  0  0  0
  1  2  1  0  0  0  0
  1  5  2  0  0  0  0
  2  6  2  0  0  0  0
  3  8  2  0  0  0  0
  3 17  1  0  0  0  0
  4  9  1  0  0  0  0
  4 17  2  0  0  0  0
  5 20  1  0  0  0  0
  6 22  1  0  0  0  0
  7 10  2  0  0  0  0
  7 21  1  0  0  0  0
  8 26  1  0  0  0  0
  9 26  2  0  0  0  0
 10 27  1  0  0  0  0
 11 12  2  0  0  0  0
 11 28  1  0  0  0  0
 12 30  1  0  0  0  0
 13 18  2  0  0  0  0
 13 25  1  0  0  0  0
 14 23  1  0  0  0  0
 14 27  2  0  0  0  0
 15 24  1  0  0  0  0
 15 29  2  0  0  0  0
 16 30  2  0  0  0  0
 16 31  1  0  0  0  0
 17 32  1  0  0  0  0
 18 29  1  0  0  0  0
 18 34  1  0  0  0  0
 19 32  1  0  0  0  0
 19 33  2  0  0  0  0
 19 36  1  0  0  0  0
 20 22  2  0  0  0  0
 20 43  1  0  0  0  0
 21 23  2  0  0  0  0
 21 44  1  0  0  0  0
 22 52  1  0  0  0  0
 23 45  1  0  0  0  0
 24 25  2  0  0  0  0
 24 61  1  0  0  0  0
 25 71  1  0  0  0  0
 26 84  1  0  0  0  0
 27 86  1  0  0  0  0
 28 31  2  0  0  0  0
 28 84  1  0  0  0  0
 29 85  1  0  0  0  0
 30 87  1  0  0  0  0
 31 88  1  0  0  0  0
 32 66  2  0  0  0  0
 33 68  1  0  0  0  0
 33 72  1  0  0  0  0
 34 67  2  0  0  0  0
 35 37  2  0  0  0  0
 35 85  1  0  0  0  0
 36 73  1  0  0  0  0
 36 77  2  0  0  0  0
 37 38  1  0  0  0  0
 37 83  1  0  0  0  0
 38 62  1  0  0  0  0
 38 78  2  0  0  0  0
 39 53  1  0  0  0  0
 39 74  1  0  0  0  0
 39 79  2  0  0  0  0
 40 63  1  0  0  0  0
 40 69  1  0  0  0  0
 40 80  2  0  0  0  0
 41 64  1  0  0  0  0
 41 75  1  0  0  0  0
 41 81  2  0  0  0  0
 42 67  1  0  0  0  0
 42 70  1  0  0  0  0
 42 82  2  0  0  0  0
 43 46  1  0  0  0  0
 44 53  1  0  0  0  0
 45 69  1  0  0  0  0
 46 48  1  0  0  0  0
 47 49  1  0  0  0  0
 47 50  1  0  0  0  0
 48 52  1  0  0  0  0
 49 54  1  0  0  0  0
 50 70  1  0  0  0  0
 51 54  1  0  0  0  0
 51 70  1  0  0  0  0
 52 74  1  0  0  0  0
 53 69  1  0  0  0  0
 54 68  1  0  0  0  0
 55 61  1  0  0  0  0
 56 64  1  0  0  0  0
 57 65  1  0  0  0  0
 58 65  1  0  0  0  0
 59 65  1  0  0  0  0
 60 76  1  0  0  0  0
 62 86  1  0  0  0  0
 63 65  1  0  0  0  0
 63 75  1  0  0  0  0
 64 76  1  0  0  0  0
 66 68  1  0  0  0  0
M  CHG  1  76   1
M  ISO  4  42 100  62 101  67 100  86 101
M  END
> <Batch ID>
0115

> <Smiles>
CCc1cc(OCC(=O)C(=O)[101CH2:1][101O:1]c2ccc3c(c2)CN(C(=O)C(NC(=O)C(C)NC)C(C)(C)C)C(C(=O)NC2CCCc4ccccc42)C3)c(C=[100N:0][100C:0](=O)N2CCCC(n3nc(-c4ccc(Oc5ccc(F)cc5F)cc4)c(C(N)=O)c3N)C2)cc1N

> <Shape>
0.305

> <Color>
0.115

> <Negative vol penalty>
0.000

$$$$

  -OEChem-04052301403D

 89 97  0     1  0  0  0  0  0999 V2000
  -29.4821  -28.0035   29.5990 C   0  0  0  0  0  0  0  0  0  0  0  0
  -29.3021  -27.5713   28.2889 C   0  0  0  0  0  0  0  0  0  0  0  0
  -23.1443   -9.6013   21.5513 C   0  0  0  0  0  0  0  0  0  0  0  0
  -23.7792  -10.8831   23.4983 C   0  0  0  0  0  0  0  0  0  0  0  0
  -28.4885  -28.7532   30.2272 C   0  0  0  0  0  0  0  0  0  0  0  0
  -28.1279  -27.8878   27.6066 C   0  0  0  0  0  0  0  0  0  0  0  0
  -28.9968  -29.4733   22.8763 C   0  0  0  0  0  0  0  0  0  0  0  0
  -22.4184   -8.7289   22.3622 C   0  0  0  0  0  0  0  0  0  0  0  0
  -23.0532  -10.0107   24.3093 C   0  0  0  0  0  0  0  0  0  0  0  0
  -29.2811  -28.4991   21.9203 C   0  0  0  0  0  0  0  0  0  0  0  0
  -23.0606   -6.1260   24.4206 C   0  0  0  0  0  0  0  0  0  0  0  0
  -23.2048   -4.7577   24.1912 C   0  0  0  0  0  0  0  0  0  0  0  0
  -27.0001  -28.6052   21.1425 C   0  0  0  0  0  0  0  0  0  0  0  0
  -20.8391   -4.5856   23.7315 C   0  0  0  0  0  0  0  0  0  0  0  0
  -23.8247  -10.6783   22.1193 C   0  0  0  0  0  0  0  0  0  0  0  0
  -31.1751  -21.7266   19.6710 C   0  0  0  0  0  0  0  0  0  0  0  0
  -24.1065  -12.7534   20.6625 C   0  0  0  0  0  0  0  0  0  0  0  0
  -27.3057  -29.0873   29.5490 C   0  0  0  0  0  0  0  0  0  0  0  0
  -27.7070  -30.0139   22.9799 C   0  0  0  0  0  0  0  0  0  0  0  0
  -27.1170  -28.6416   28.2268 C   0  0  0  0  0  0  0  0  0  0  0  0
  -26.7027  -29.5880   22.0989 C   0  0  0  0  0  0  0  0  0  0  0  0
  -30.6174  -22.9879   19.8474 C   0  0  0  0  0  0  0  0  0  0  0  0
  -22.3728   -8.9337   23.7412 C   0  0  0  0  0  0  0  0  0  0  0  0
  -28.2820  -28.0628   21.0551 C   0  0  0  0  0  0  0  0  0  0  0  0
  -21.8057   -6.7241   24.3055 C   0  0  0  0  0  0  0  0  0  0  0  0
  -29.3015  -23.1057   20.2809 C   0  0  0  0  0  0  0  0  0  0  0  0
  -22.0940   -3.9875   23.8466 C   0  0  0  0  0  0  0  0  0  0  0  0
  -20.6950   -5.9539   23.9610 C   0  0  0  0  0  0  0  0  0  0  0  0
  -24.5752  -11.5795   21.2822 C   0  0  0  0  0  0  0  0  0  0  0  0
  -30.3813  -20.6231   19.9396 C   0  0  0  0  0  0  0  0  0  0  0  0
  -28.5915  -21.9406   20.5219 C   0  0  0  0  0  0  0  0  0  0  0  0
  -25.1967  -13.2431   19.9856 C   0  0  0  0  0  0  0  0  0  0  0  0
  -30.8872  -19.2665   19.7829 C   0  0  0  0  0  0  0  0  0  0  0  0
  -32.5523  -21.5728   19.2177 C   0  0  0  0  0  0  0  0  0  0  0  0
  -22.8023  -13.3480   20.6957 C   0  0  0  0  0  0  0  0  0  0  0  0
  -25.4759  -30.0756   25.2430 C   0  0  0  0  0  0  0  0  0  0  0  0
  -30.6513  -14.4788   19.8815 C   0  0  0  0  0  0  0  0  0  0  0  0
  -23.9618  -32.0392   23.1515 C   0  0  0  0  0  0  0  0  0  0  0  0
  -23.5440  -33.0649   19.9235 C   0  0  0  0  0  0  0  0  0  0  0  0
  -26.2399  -29.8595   30.2855 C   0  0  0  0  0  0  0  0  0  0  0  0
  -27.4233  -31.0833   23.9988 C   0  0  0  0  0  0  0  0  0  0  0  0
  -25.3070  -30.1513   22.1556 C   0  0  0  0  0  0  0  0  0  0  0  0
  -25.1857  -30.4709   29.3663 C   0  0  0  0  0  0  0  0  0  0  0  0
  -29.6826  -11.1449   18.9943 C   0  0  0  0  0  0  0  0  0  0  0  0
  -24.7115  -29.4454   28.3415 C   0  0  0  0  0  0  0  0  0  0  0  0
  -28.2393  -11.0474   19.4867 C   0  0  0  0  0  0  0  0  0  0  0  0
  -30.5316  -12.0093   19.9212 C   0  0  0  0  0  0  0  0  0  0  0  0
  -28.5371  -13.2846   20.6404 C   0  0  0  0  0  0  0  0  0  0  0  0
  -25.8677  -28.9858   27.4452 C   0  0  1  0  0  0  0  0  0  0  0  0
  -25.9437  -31.1929   24.3538 C   0  0  1  0  0  0  0  0  0  0  0  0
  -27.6377  -12.4453   19.7157 C   0  0  2  0  0  0  0  0  0  0  0  0
  -31.4210  -24.2196   19.5748 C   0  0  0  0  0  0  0  0  0  0  0  0
  -32.7868  -21.4925   17.7389 C   0  0  0  0  0  0  0  0  0  0  0  0
  -22.2078  -34.6598   18.5206 C   0  0  0  0  0  0  0  0  0  0  0  0
  -21.5392  -30.1971   23.3690 C   0  0  0  0  0  0  0  0  0  0  0  0
  -20.6311  -31.2611   21.2927 C   0  0  0  0  0  0  0  0  0  0  0  0
  -20.9947  -32.6378   23.3409 C   0  0  0  0  0  0  0  0  0  0  0  0
  -25.9752  -34.4941   19.0259 C   0  0  0  0  0  0  0  0  0  0  0  0
  -26.6192  -20.7858   21.1792 C   0  0  0  0  0  0  0  0  0  0  0  0
  -29.9476  -15.7915   20.1172 C   0  0  0  0  0  0  0  0  0  0  0  0
  -30.8721  -16.9557   19.8037 C   0  0  0  0  0  0  0  0  0  0  0  0
  -27.4857  -26.2505   19.7372 C   0  0  0  0  0  0  0  0  0  1  0  0
  -28.0527  -24.9000   19.3444 C   0  0  0  0  0  0  0  0  0  0  0  0
  -22.9925  -31.8431   22.0109 C   0  0  1  0  0  0  0  0  0  0  0  0
  -23.4935  -34.4504   19.3053 C   0  0  2  0  0  0  0  0  0  0  0  0
  -21.5651  -31.4725   22.5033 C   0  0  0  0  0  0  0  0  0  0  0  0
  -25.8629  -11.3379   21.0220 N   0  0  0  0  0  0  0  0  0  0  0  0
  -29.0993  -20.6979   20.3620 N   0  0  0  0  0  0  0  0  0  0  0  0
  -30.1660  -18.2145   20.0255 N   0  0  0  0  0  0  0  0  0  0  0  0
  -26.2125  -12.3667   20.2313 N   0  0  0  0  0  0  0  0  0  0  0  0
  -25.0774  -31.1902   23.1732 N   0  0  0  0  0  0  0  0  0  0  0  0
  -29.9152  -13.3204   20.1314 N   0  0  0  0  0  0  0  0  0  0  0  0
  -25.3760  -14.3335   19.2102 N   0  0  0  0  0  0  0  0  0  0  0  0
  -21.7978  -12.7141   21.4396 N   0  0  0  0  0  0  0  0  0  0  0  0
  -26.1580  -29.9872   26.4415 N   0  0  0  0  0  0  0  0  0  0  0  0
  -23.0512  -33.0619   21.2112 N   0  0  0  0  0  0  0  0  0  0  0  0
  -24.6458  -34.6476   18.3809 N   0  3  0  0  0  0  0  0  0  0  0  0
  -33.5322  -21.4997   19.9588 O   0  0  0  0  0  0  0  0  0  0  0  0
  -22.5313  -14.4012   20.0705 O   0  0  0  0  0  0  0  0  0  0  0  0
  -24.5626  -29.3486   24.8700 O   0  0  0  0  0  0  0  0  0  0  0  0
  -31.8193  -14.4847   19.4842 O   0  0  0  0  0  0  0  0  0  0  0  0
  -23.7411  -32.9183   23.9883 O   0  0  0  0  0  0  0  0  0  0  0  0
  -23.9740  -32.0827   19.3226 O   0  0  0  0  0  0  0  0  0  0  0  0
  -21.6644   -8.0828   24.5328 O   0  0  0  0  0  0  0  0  0  0  0  0
  -28.5567  -27.1116   20.1216 O   0  0  0  0  0  0  0  0  0  1  0  0
  -28.7217  -24.3334   20.4645 O   0  0  0  0  0  0  0  0  0  0  0  0
  -27.2918  -22.0180   20.9501 O   0  0  0  0  0  0  0  0  0  0  0  0
  -22.2329   -2.6739   23.6248 F   0  0  0  0  0  0  0  0  0  0  0  0
  -19.4871   -6.5230   23.8478 F   0  0  0  0  0  0  0  0  0  0  0  0
  1  2  1  0  0  0  0
  1  5  2  0  0  0  0
  2  6  2  0  0  0  0
  3  8  2  0  0  0  0
  3 15  1  0  0  0  0
  4  9  1  0  0  0  0
  4 15  2  0  0  0  0
  5 18  1  0  0  0  0
  6 20  1  0  0  0  0
  7 10  2  0  0  0  0
  7 19  1  0  0  0  0
  8 23  1  0  0  0  0
  9 23  2  0  0  0  0
 10 24  1  0  0  0  0
 11 12  2  0  0  0  0
 11 25  1  0  0  0  0
 12 27  1  0  0  0  0
 13 21  1  0  0  0  0
 13 24  2  0  0  0  0
 14 27  2  0  0  0  0
 14 28  1  0  0  0  0
 15 29  1  0  0  0  0
 16 22  1  0  0  0  0
 16 30  2  0  0  0  0
 16 34  1  0  0  0  0
 17 29  1  0  0  0  0
 17 32  2  0  0  0  0
 17 35  1  0  0  0  0
 18 20  2  0  0  0  0
 18 40  1  0  0  0  0
 19 21  2  0  0  0  0
 19 41  1  0  0  0  0
 20 49  1  0  0  0  0
 21 42  1  0  0  0  0
 22 26  2  0  0  0  0
 22 52  1  0  0  0  0
 23 84  1  0  0  0  0
 24 85  1  0  0  0  0
 25 28  2  0  0  0  0
 25 84  1  0  0  0  0
 26 31  1  0  0  0  0
 26 86  1  0  0  0  0
 27 88  1  0  0  0  0
 28 89  1  0  0  0  0
 29 67  2  0  0  0  0
 30 33  1  0  0  0  0
 30 68  1  0  0  0  0
 31 68  2  0  0  0  0
 31 87  1  0  0  0  0
 32 70  1  0  0  0  0
 32 73  1  0  0  0  0
 33 69  2  0  0  0  0
 34 53  1  0  0  0  0
 34 78  2  0  0  0  0
 35 74  1  0  0  0  0
 35 79  2  0  0  0  0
 36 50  1  0  0  0  0
 36 75  1  0  0  0  0
 36 80  2  0  0  0  0
 37 60  1  0  0  0  0
 37 72  1  0  0  0  0
 37 81  2  0  0  0  0
 38 64  1  0  0  0  0
 38 71  1  0  0  0  0
 38 82  2  0  0  0  0
 39 65  1  0  0  0  0
 39 76  1  0  0  0  0
 39 83  2  0  0  0  0
 40 43  1  0  0  0  0
 41 50  1  0  0  0  0
 42 71  1  0  0  0  0
 43 45  1  0  0  0  0
 44 46  1  0  0  0  0
 44 47  1  0  0  0  0
 45 49  1  0  0  0  0
 46 51  1  0  0  0  0
 47 72  1  0  0  0  0
 48 51  1  0  0  0  0
 48 72  1  0  0  0  0
 49 75  1  0  0  0  0
 50 71  1  0  0  0  0
 51 70  1  0  0  0  0
 54 65  1  0  0  0  0
 55 66  1  0  0  0  0
 56 66  1  0  0  0  0
 57 66  1  0  0  0  0
 58 77  1  0  0  0  0
 59 87  1  0  0  0  0
 60 61  1  0  0  0  0
 61 69  1  0  0  0  0
 62 63  1  0  0  0  0
 62 85  1  0  0  0  0
 63 86  1  0  0  0  0
 64 66  1  0  0  0  0
 64 76  1  0  0  0  0
 65 77  1  0  0  0  0
 67 70  1  0  0  0  0
M  CHG  1  77   1
M  ISO  4  37 100  60 100  62 101  85 101
M  END
> <Batch ID>
0115

> <Smiles>
CNC(C)C(=O)NC(C(=O)N1Cc2cc([101O:1][101CH2:1]COc3c(OC)nc(CNC=[100CH:0][100C:0](=O)N4CCCC(n5nc(-c6ccc(Oc7ccc(F)cc7F)cc6)c(C(N)=O)c5N)C4)c(C(C)=O)c3C)ccc2CC1C(=O)NC1CCCc2ccccc21)C(C)(C)C

> <Shape>
0.293

> <Color>
0.164

> <Negative vol penalty>
0.000

$$$$

  -OEChem-04052301403D

 86 94  0     1  0  0  0  0  0999 V2000
  -26.3095  -34.9674   24.1083 C   0  0  0  0  0  0  0  0  0  0  0  0
  -26.8172  -33.7197   23.7605 C   0  0  0  0  0  0  0  0  0  0  0  0
  -24.6804  -14.3279   22.6642 C   0  0  0  0  0  0  0  0  0  0  0  0
  -25.3037  -13.4700   20.4934 C   0  0  0  0  0  0  0  0  0  0  0  0
  -24.9833  -35.0888   24.5209 C   0  0  0  0  0  0  0  0  0  0  0  0
  -25.9990  -32.5924   23.8262 C   0  0  0  0  0  0  0  0  0  0  0  0
  -26.4544  -29.6213   19.7506 C   0  0  0  0  0  0  0  0  0  0  0  0
  -24.5076  -13.0245   23.1298 C   0  0  0  0  0  0  0  0  0  0  0  0
  -25.1310  -12.1665   20.9589 C   0  0  0  0  0  0  0  0  0  0  0  0
  -27.5755  -28.7951   19.6870 C   0  0  0  0  0  0  0  0  0  0  0  0
  -22.5593  -10.0537   21.5532 C   0  0  0  0  0  0  0  0  0  0  0  0
  -21.8660   -9.1604   20.7366 C   0  0  0  0  0  0  0  0  0  0  0  0
  -26.2382  -26.9329   20.4373 C   0  0  0  0  0  0  0  0  0  0  0  0
  -28.1302  -21.8563   17.3928 C   0  0  0  0  0  0  0  0  0  0  0  0
  -26.3807  -23.4693   17.8107 C   0  0  0  0  0  0  0  0  0  0  0  0
  -23.8099   -7.7281   20.6529 C   0  0  0  0  0  0  0  0  0  0  0  0
  -25.0785  -14.5507   21.3460 C   0  0  0  0  0  0  0  0  0  0  0  0
  -25.8940  -21.4528   16.5723 C   0  0  0  0  0  0  0  0  0  0  0  0
  -26.4368  -16.6634   20.9001 C   0  0  0  0  0  0  0  0  0  0  0  0
  -24.1458  -33.9639   24.5825 C   0  0  0  0  0  0  0  0  0  0  0  0
  -25.2170  -29.1112   20.1691 C   0  0  0  0  0  0  0  0  0  0  0  0
  -24.6607  -32.6986   24.2413 C   0  0  0  0  0  0  0  0  0  0  0  0
  -25.1023  -27.7542   20.5029 C   0  0  0  0  0  0  0  0  0  0  0  0
  -27.2225  -21.0496   16.7065 C   0  0  0  0  0  0  0  0  0  0  0  0
  -27.7093  -23.0662   17.9450 C   0  0  0  0  0  0  0  0  0  0  0  0
  -24.7329  -11.9438   22.2772 C   0  0  0  0  0  0  0  0  0  0  0  0
  -27.4682  -27.4513   20.0332 C   0  0  0  0  0  0  0  0  0  0  0  0
  -23.8779   -9.7842   21.9197 C   0  0  0  0  0  0  0  0  0  0  0  0
  -22.4913   -7.9976   20.2864 C   0  0  0  0  0  0  0  0  0  0  0  0
  -25.4730  -22.6626   17.1244 C   0  0  0  0  0  0  0  0  0  0  0  0
  -24.5032   -8.6215   21.4696 C   0  0  0  0  0  0  0  0  0  0  0  0
  -25.2566  -15.8969   20.8643 C   0  0  0  0  0  0  0  0  0  0  0  0
  -26.0863  -17.8606   20.3253 C   0  0  0  0  0  0  0  0  0  0  0  0
  -29.2549  -24.7500   17.9201 C   0  0  0  0  0  0  0  0  0  0  0  0
  -24.9286  -20.6281   15.8581 C   0  0  0  0  0  0  0  0  0  0  0  0
  -27.7341  -16.3236   21.4073 C   0  0  0  0  0  0  0  0  0  0  0  0
  -23.4925  -20.6369   16.2198 C   0  0  0  0  0  0  0  0  0  0  0  0
  -23.2468  -29.7106   22.5904 C   0  0  0  0  0  0  0  0  0  0  0  0
  -21.3155  -27.6269   21.0250 C   0  0  0  0  0  0  0  0  0  0  0  0
  -21.0313  -25.0284   18.8309 C   0  0  0  0  0  0  0  0  0  0  0  0
  -22.7325  -34.1374   25.0797 C   0  0  0  0  0  0  0  0  0  0  0  0
  -24.0112  -30.0095   20.2067 C   0  0  0  0  0  0  0  0  0  0  0  0
  -23.7921  -27.1529   20.9390 C   0  0  0  0  0  0  0  0  0  0  0  0
  -21.8254  -32.9511   24.7631 C   0  0  0  0  0  0  0  0  0  0  0  0
  -21.5609  -19.7398   19.1043 C   0  0  0  0  0  0  0  0  0  0  0  0
  -22.5226  -31.6390   25.1082 C   0  0  0  0  0  0  0  0  0  0  0  0
  -22.4311  -18.6940   19.8006 C   0  0  0  0  0  0  0  0  0  0  0  0
  -21.6936  -19.6559   17.5872 C   0  0  0  0  0  0  0  0  0  0  0  0
  -23.9791  -18.7165   17.7935 C   0  0  0  0  0  0  0  0  0  0  0  0
  -23.7975  -31.4561   24.2759 C   0  0  1  0  0  0  0  0  0  0  0  0
  -22.9164  -29.5013   21.1397 C   0  0  1  0  0  0  0  0  0  0  0  0
  -23.8927  -18.7886   19.3280 C   0  0  2  0  0  0  0  0  0  0  0  0
  -29.0098  -18.6603   14.2567 C   0  0  0  0  0  0  0  0  0  0  0  0
  -19.3277  -23.5149   17.7801 C   0  0  0  0  0  0  0  0  0  0  0  0
  -21.1064  -26.0559   23.6324 C   0  0  0  0  0  0  0  0  0  0  0  0
  -20.2208  -24.1205   22.3141 C   0  0  0  0  0  0  0  0  0  0  0  0
  -18.9587  -26.2715   22.3692 C   0  0  0  0  0  0  0  0  0  0  0  0
  -21.7082  -25.9663   16.1067 C   0  0  0  0  0  0  0  0  0  0  0  0
  -27.6997  -19.7591   16.1244 C   0  0  0  0  0  0  0  0  0  0  0  0
  -30.2488  -25.6867   18.5531 C   0  0  0  0  0  0  0  0  0  0  0  0
  -28.4966  -19.9719   14.8295 C   0  0  0  0  0  0  0  0  0  0  0  0
  -29.5520  -26.9619   18.9966 C   0  0  0  0  0  0  0  0  0  1  0  0
  -21.1119  -26.1313   21.0517 C   0  0  1  0  0  0  0  0  0  0  0  0
  -20.1131  -24.8098   17.6420 C   0  0  2  0  0  0  0  0  0  0  0  0
  -20.3747  -25.6563   22.3355 C   0  0  0  0  0  0  0  0  0  0  0  0
  -24.2327  -16.5522   20.3108 N   0  0  0  0  0  0  0  0  0  0  0  0
  -25.2539  -19.8420   14.8693 N   0  0  0  0  0  0  0  0  0  0  0  0
  -28.6229  -23.8788   18.6368 N   0  0  0  0  0  0  0  0  0  0  0  0
  -24.7686  -17.7431   19.9935 N   0  0  0  0  0  0  0  0  0  0  0  0
  -23.0947  -19.7122   17.1751 N   0  0  0  0  0  0  0  0  0  0  0  0
  -22.6433  -28.0733   20.9656 N   0  0  0  0  0  0  0  0  0  0  0  0
  -26.7797  -18.9918   20.0765 N   0  0  0  0  0  0  0  0  0  0  0  0
  -27.9213  -15.0513   21.9647 N   0  0  0  0  0  0  0  0  0  0  0  0
  -23.4674  -31.0311   22.9324 N   0  0  0  0  0  0  0  0  0  0  0  0
  -20.4278  -25.7902   19.8090 N   0  0  0  0  0  0  0  0  0  0  0  0
  -20.9046  -24.7472   16.3808 N   0  3  0  0  0  0  0  0  0  0  0  0
  -28.6944  -17.1302   21.3824 O   0  0  0  0  0  0  0  0  0  0  0  0
  -22.8061  -21.4636   15.6334 O   0  0  0  0  0  0  0  0  0  0  0  0
  -23.2965  -28.7456   23.3441 O   0  0  0  0  0  0  0  0  0  0  0  0
  -20.3324  -28.3715   21.0486 O   0  0  0  0  0  0  0  0  0  0  0  0
  -22.1687  -24.5662   18.8880 O   0  0  0  0  0  0  0  0  0  0  0  0
  -24.5646  -10.6717   22.7312 O   0  0  0  0  0  0  0  0  0  0  0  0
  -28.5611  -26.6427   19.9727 O   0  0  0  0  0  0  0  0  0  1  0  0
  -21.8249   -7.1391   19.5035 F   0  0  0  0  0  0  0  0  0  0  0  0
  -24.1993  -23.0624   17.0000 F   0  0  0  0  0  0  0  0  0  0  0  0
  -25.7695   -8.3567   21.8193 F   0  0  0  0  0  0  0  0  0  0  0  0
  1  2  1  0  0  0  0
  1  5  2  0  0  0  0
  2  6  2  0  0  0  0
  3  8  2  0  0  0  0
  3 17  1  0  0  0  0
  4  9  1  0  0  0  0
  4 17  2  0  0  0  0
  5 20  1  0  0  0  0
  6 22  1  0  0  0  0
  7 10  2  0  0  0  0
  7 21  1  0  0  0  0
  8 26  1  0  0  0  0
  9 26  2  0  0  0  0
 10 27  1  0  0  0  0
 11 12  2  0  0  0  0
 11 28  1  0  0  0  0
 12 29  1  0  0  0  0
 13 23  1  0  0  0  0
 13 27  2  0  0  0  0
 14 24  1  0  0  0  0
 14 25  2  0  0  0  0
 15 25  1  0  0  0  0
 15 30  2  0  0  0  0
 16 29  2  0  0  0  0
 16 31  1  0  0  0  0
 17 32  1  0  0  0  0
 18 24  2  0  0  0  0
 18 30  1  0  0  0  0
 18 35  1  0  0  0  0
 19 32  1  0  0  0  0
 19 33  2  0  0  0  0
 19 36  1  0  0  0  0
 20 22  2  0  0  0  0
 20 41  1  0  0  0  0
 21 23  2  0  0  0  0
 21 42  1  0  0  0  0
 22 50  1  0  0  0  0
 23 43  1  0  0  0  0
 24 59  1  0  0  0  0
 25 68  1  0  0  0  0
 26 82  1  0  0  0  0
 27 83  1  0  0  0  0
 28 31  2  0  0  0  0
 28 82  1  0  0  0  0
 29 84  1  0  0  0  0
 30 85  1  0  0  0  0
 31 86  1  0  0  0  0
 32 66  2  0  0  0  0
 33 69  1  0  0  0  0
 33 72  1  0  0  0  0
 34 60  1  0  0  0  0
 34 68  2  0  0  0  0
 35 37  1  0  0  0  0
 35 67  2  0  0  0  0
 36 73  1  0  0  0  0
 36 77  2  0  0  0  0
 37 70  1  0  0  0  0
 37 78  2  0  0  0  0
 38 51  1  0  0  0  0
 38 74  1  0  0  0  0
 38 79  2  0  0  0  0
 39 63  1  0  0  0  0
 39 71  1  0  0  0  0
 39 80  2  0  0  0  0
 40 64  1  0  0  0  0
 40 75  1  0  0  0  0
 40 81  2  0  0  0  0
 41 44  1  0  0  0  0
 42 51  1  0  0  0  0
 43 71  1  0  0  0  0
 44 46  1  0  0  0  0
 45 47  1  0  0  0  0
 45 48  1  0  0  0  0
 46 50  1  0  0  0  0
 47 52  1  0  0  0  0
 48 70  1  0  0  0  0
 49 52  1  0  0  0  0
 49 70  1  0  0  0  0
 50 74  1  0  0  0  0
 51 71  1  0  0  0  0
 52 69  1  0  0  0  0
 53 61  1  0  0  0  0
 54 64  1  0  0  0  0
 55 65  1  0  0  0  0
 56 65  1  0  0  0  0
 57 65  1  0  0  0  0
 58 76  1  0  0  0  0
 59 61  1  0  0  0  0
 60 62  1  0  0  0  0
 62 83  1  0  0  0  0
 63 65  1  0  0  0  0
 63 75  1  0  0  0  0
 64 76  1  0  0  0  0
 66 69  1  0  0  0  0
M  CHG  1  76   1
M  ISO  4  35 100  37 100  62 101  83 101
M  END
> <Batch ID>
0115

> <Smiles>
CCCc1cc(NC=C[101CH2:1][101O:1]c2ccc3c(c2)CN(C(=O)C(NC(=O)C(C)NC)C(C)(C)C)C(C(=O)NC2CCCc4ccccc42)C3)cc(F)c1[100C:0](=N)[100C:0](=O)N1CCCC(n2nc(-c3ccc(Oc4ccc(F)cc4F)cc3)c(C(N)=O)c2N)C1

> <Shape>
0.228

> <Color>
0.083

> <Negative vol penalty>
0.000

$$$$

  -OEChem-04052301403D

 84 92  0     1  0  0  0  0  0999 V2000
  -28.4977  -26.1337   27.2782 C   0  0  0  0  0  0  0  0  0  0  0  0
  -29.5633  -25.2935   26.9716 C   0  0  0  0  0  0  0  0  0  0  0  0
  -22.9836   -9.8980   19.9845 C   0  0  0  0  0  0  0  0  0  0  0  0
  -23.7085   -9.9439   22.2887 C   0  0  0  0  0  0  0  0  0  0  0  0
  -27.3564  -26.1310   26.4773 C   0  0  0  0  0  0  0  0  0  0  0  0
  -29.4877  -24.4492   25.8644 C   0  0  0  0  0  0  0  0  0  0  0  0
  -34.0867  -22.8000   22.1717 C   0  0  0  0  0  0  0  0  0  0  0  0
  -22.2096   -8.7684   20.2505 C   0  0  0  0  0  0  0  0  0  0  0  0
  -22.9345   -8.8144   22.5547 C   0  0  0  0  0  0  0  0  0  0  0  0
  -34.8866  -21.6592   22.1219 C   0  0  0  0  0  0  0  0  0  0  0  0
  -21.4326   -5.7309   23.7573 C   0  0  0  0  0  0  0  0  0  0  0  0
  -22.0118   -4.7112   24.5125 C   0  0  0  0  0  0  0  0  0  0  0  0
  -33.4379  -20.7245   20.4346 C   0  0  0  0  0  0  0  0  0  0  0  0
  -31.9497  -18.2638   24.1604 C   0  0  0  0  0  0  0  0  0  0  0  0
  -32.0853  -16.4701   22.5477 C   0  0  0  0  0  0  0  0  0  0  0  0
  -23.7369   -4.4530   22.8409 C   0  0  0  0  0  0  0  0  0  0  0  0
  -23.7331  -10.4857   21.0036 C   0  0  0  0  0  0  0  0  0  0  0  0
  -29.9390  -17.4203   23.1200 C   0  0  0  0  0  0  0  0  0  0  0  0
  -24.1348  -12.9987   20.8280 C   0  0  0  0  0  0  0  0  0  0  0  0
  -27.2708  -25.2932   25.3542 C   0  0  0  0  0  0  0  0  0  0  0  0
  -32.9483  -22.9072   21.3599 C   0  0  0  0  0  0  0  0  0  0  0  0
  -28.3437  -24.4343   25.0485 C   0  0  0  0  0  0  0  0  0  0  0  0
  -32.6266  -21.8688   20.4742 C   0  0  0  0  0  0  0  0  0  0  0  0
  -30.5641  -18.2994   24.0044 C   0  0  0  0  0  0  0  0  0  0  0  0
  -30.6997  -16.5056   22.3916 C   0  0  0  0  0  0  0  0  0  0  0  0
  -22.1850   -8.2267   21.5356 C   0  0  0  0  0  0  0  0  0  0  0  0
  -34.5607  -20.6200   21.2553 C   0  0  0  0  0  0  0  0  0  0  0  0
  -22.0055   -6.1116   22.5438 C   0  0  0  0  0  0  0  0  0  0  0  0
  -32.7104  -17.3492   23.4320 C   0  0  0  0  0  0  0  0  0  0  0  0
  -23.1640   -4.0723   24.0544 C   0  0  0  0  0  0  0  0  0  0  0  0
  -23.1577   -5.4727   22.0856 C   0  0  0  0  0  0  0  0  0  0  0  0
  -24.5332  -11.6521   20.7293 C   0  0  0  0  0  0  0  0  0  0  0  0
  -25.2493  -13.7141   20.4640 C   0  0  0  0  0  0  0  0  0  0  0  0
  -27.8758  -18.1978   22.0458 C   0  0  0  0  0  0  0  0  0  0  0  0
  -28.4875  -17.4635   22.9598 C   0  0  0  0  0  0  0  0  0  0  0  0
  -22.8703  -13.5533   21.2143 C   0  0  0  0  0  0  0  0  0  0  0  0
  -29.8294  -23.2020   21.8978 C   0  0  0  0  0  0  0  0  0  0  0  0
  -29.7030  -23.5558   18.6758 C   0  0  0  0  0  0  0  0  0  0  0  0
  -31.1477  -22.9767   15.6386 C   0  0  0  0  0  0  0  0  0  0  0  0
  -30.7348  -14.6396   20.6996 C   0  0  0  0  0  0  0  0  0  0  0  0
  -25.9976  -25.2910   24.5456 C   0  0  0  0  0  0  0  0  0  0  0  0
  -32.1108  -24.1557   21.4063 C   0  0  0  0  0  0  0  0  0  0  0  0
  -31.4265  -21.9434   19.5672 C   0  0  0  0  0  0  0  0  0  0  0  0
  -26.1483  -24.6379   23.1741 C   0  0  0  0  0  0  0  0  0  0  0  0
  -29.6013  -12.1943   18.3730 C   0  0  0  0  0  0  0  0  0  0  0  0
  -26.8929  -23.3119   23.2931 C   0  0  0  0  0  0  0  0  0  0  0  0
  -28.1489  -11.9460   18.7868 C   0  0  0  0  0  0  0  0  0  0  0  0
  -30.5030  -12.4317   19.5831 C   0  0  0  0  0  0  0  0  0  0  0  0
  -28.5925  -13.2328   20.9162 C   0  0  0  0  0  0  0  0  0  0  0  0
  -28.3095  -23.5220   23.8415 C   0  0  1  0  0  0  0  0  0  0  0  0
  -30.6858  -23.9382   20.9067 C   0  0  1  0  0  0  0  0  0  0  0  0
  -27.6339  -13.0528   19.7277 C   0  0  2  0  0  0  0  0  0  0  0  0
  -29.7854  -19.2958   24.8025 C   0  0  0  0  0  0  0  0  0  0  0  0
  -30.7904  -23.3530   13.1834 C   0  0  0  0  0  0  0  0  0  0  0  0
  -27.6302  -21.3171   18.6368 C   0  0  0  0  0  0  0  0  0  0  0  0
  -28.0203  -21.0934   16.1738 C   0  0  0  0  0  0  0  0  0  0  0  0
  -27.1293  -23.2293   17.1048 C   0  0  0  0  0  0  0  0  0  0  0  0
  -33.6218  -24.5841   15.4068 C   0  0  0  0  0  0  0  0  0  0  0  0
  -36.1776  -17.6216   22.4587 C   0  0  0  0  0  0  0  0  0  0  0  0
  -36.0188  -19.1329   22.4035 C   0  0  0  0  0  0  0  0  0  1  0  0
  -34.8347  -16.9081   22.4582 C   0  0  0  0  0  0  0  0  0  0  0  0
  -29.5501  -22.6183   17.5025 C   0  0  1  0  0  0  0  0  0  0  0  0
  -31.4160  -23.8943   14.4595 C   0  0  2  0  0  0  0  0  0  0  0  0
  -28.1041  -22.0620   17.3728 C   0  0  0  0  0  0  0  0  0  0  0  0
  -25.8017  -11.5174   20.3335 N   0  0  0  0  0  0  0  0  0  0  0  0
  -26.2100  -12.7886   20.1802 N   0  0  0  0  0  0  0  0  0  0  0  0
  -30.6354  -23.1819   19.6539 N   0  0  0  0  0  0  0  0  0  0  0  0
  -29.9547  -13.4961   20.4264 N   0  0  0  0  0  0  0  0  0  0  0  0
  -25.4914  -15.0383   20.3622 N   0  0  0  0  0  0  0  0  0  0  0  0
  -21.8327  -12.6759   21.5574 N   0  0  0  0  0  0  0  0  0  0  0  0
  -30.0966  -15.5988   21.4851 N   0  0  0  0  0  0  0  0  0  0  0  0
  -29.1843  -24.0228   22.8031 N   0  0  0  0  0  0  0  0  0  0  0  0
  -30.0155  -23.3519   16.3304 N   0  0  0  0  0  0  0  0  0  0  0  0
  -32.8828  -24.0389   14.2390 N   0  3  0  0  0  0  0  0  0  0  0  0
  -22.6616  -14.7900   21.2382 O   0  0  0  0  0  0  0  0  0  0  0  0
  -29.7579  -21.9798   21.8440 O   0  0  0  0  0  0  0  0  0  0  0  0
  -29.0253  -24.5857   18.7192 O   0  0  0  0  0  0  0  0  0  0  0  0
  -31.8681  -22.0203   15.9159 O   0  0  0  0  0  0  0  0  0  0  0  0
  -31.8745  -14.7711   20.2459 O   0  0  0  0  0  0  0  0  0  0  0  0
  -21.4297   -7.1246   21.7955 O   0  0  0  0  0  0  0  0  0  0  0  0
  -35.3394  -19.5051   21.2051 O   0  0  0  0  0  0  0  0  0  1  0  0
  -34.0719  -17.3151   23.5862 O   0  0  0  0  0  0  0  0  0  0  0  0
  -23.7210   -3.0942   24.7805 F   0  0  0  0  0  0  0  0  0  0  0  0
  -23.7133   -5.8349   20.9212 F   0  0  0  0  0  0  0  0  0  0  0  0
  1  2  1  0  0  0  0
  1  5  2  0  0  0  0
  2  6  2  0  0  0  0
  3  8  2  0  0  0  0
  3 17  1  0  0  0  0
  4  9  1  0  0  0  0
  4 17  2  0  0  0  0
  5 20  1  0  0  0  0
  6 22  1  0  0  0  0
  7 10  2  0  0  0  0
  7 21  1  0  0  0  0
  8 26  1  0  0  0  0
  9 26  2  0  0  0  0
 10 27  1  0  0  0  0
 11 12  2  0  0  0  0
 11 28  1  0  0  0  0
 12 30  1  0  0  0  0
 13 23  1  0  0  0  0
 13 27  2  0  0  0  0
 14 24  2  0  0  0  0
 14 29  1  0  0  0  0
 15 25  1  0  0  0  0
 15 29  2  0  0  0  0
 16 30  2  0  0  0  0
 16 31  1  0  0  0  0
 17 32  1  0  0  0  0
 18 24  1  0  0  0  0
 18 25  2  0  0  0  0
 18 35  1  0  0  0  0
 19 32  1  0  0  0  0
 19 33  2  0  0  0  0
 19 36  1  0  0  0  0
 20 22  2  0  0  0  0
 20 41  1  0  0  0  0
 21 23  2  0  0  0  0
 21 42  1  0  0  0  0
 22 50  1  0  0  0  0
 23 43  1  0  0  0  0
 24 53  1  0  0  0  0
 25 71  1  0  0  0  0
 26 80  1  0  0  0  0
 27 81  1  0  0  0  0
 28 31  2  0  0  0  0
 28 80  1  0  0  0  0
 29 82  1  0  0  0  0
 30 83  1  0  0  0  0
 31 84  1  0  0  0  0
 32 65  2  0  0  0  0
 33 66  1  0  0  0  0
 33 69  1  0  0  0  0
 34 35  2  0  0  0  0
 36 70  1  0  0  0  0
 36 75  2  0  0  0  0
 37 51  1  0  0  0  0
 37 72  1  0  0  0  0
 37 76  2  0  0  0  0
 38 62  1  0  0  0  0
 38 67  1  0  0  0  0
 38 77  2  0  0  0  0
 39 63  1  0  0  0  0
 39 73  1  0  0  0  0
 39 78  2  0  0  0  0
 40 68  1  0  0  0  0
 40 71  1  0  0  0  0
 40 79  2  0  0  0  0
 41 44  1  0  0  0  0
 42 51  1  0  0  0  0
 43 67  1  0  0  0  0
 44 46  1  0  0  0  0
 45 47  1  0  0  0  0
 45 48  1  0  0  0  0
 46 50  1  0  0  0  0
 47 52  1  0  0  0  0
 48 68  1  0  0  0  0
 49 52  1  0  0  0  0
 49 68  1  0  0  0  0
 50 72  1  0  0  0  0
 51 67  1  0  0  0  0
 52 66  1  0  0  0  0
 54 63  1  0  0  0  0
 55 64  1  0  0  0  0
 56 64  1  0  0  0  0
 57 64  1  0  0  0  0
 58 74  1  0  0  0  0
 59 60  1  0  0  0  0
 59 61  1  0  0  0  0
 60 81  1  0  0  0  0
 61 82  1  0  0  0  0
 62 64  1  0  0  0  0
 62 73  1  0  0  0  0
 63 74  1  0  0  0  0
 65 66  1  0  0  0  0
M  CHG  1  74   1
M  ISO  4  40 100  60 101  71 100  81 101
M  END
> <Batch ID>
0115

> <Smiles>
C=Cc1c(C)cc(OCC[101CH2:1][101O:1]c2ccc3c(c2)CN(C(=O)C(NC(=O)C(C)NC)C(C)(C)C)C(C(=O)NC2CCCc4ccccc42)C3)cc1[100NH:0][100C:0](=O)N1CCCC(n2nc(-c3ccc(Oc4ccc(F)cc4F)cc3)c(C(N)=O)c2N)C1

> <Shape>
0.220

> <Color>
0.200

> <Negative vol penalty>
0.000

$$$$

  -OEChem-04052301403D

 84 92  0     1  0  0  0  0  0999 V2000
  -31.4281  -32.1794   24.4535 C   0  0  0  0  0  0  0  0  0  0  0  0
  -31.5527  -30.8529   24.8540 C   0  0  0  0  0  0  0  0  0  0  0  0
  -23.0752   -9.8704   19.9429 C   0  0  0  0  0  0  0  0  0  0  0  0
  -23.8335   -9.8802   22.2368 C   0  0  0  0  0  0  0  0  0  0  0  0
  -30.2480  -32.6174   23.8539 C   0  0  0  0  0  0  0  0  0  0  0  0
  -30.4968  -29.9639   24.6560 C   0  0  0  0  0  0  0  0  0  0  0  0
  -32.0302  -25.5095   22.7978 C   0  0  0  0  0  0  0  0  0  0  0  0
  -22.3293   -8.7190   20.1944 C   0  0  0  0  0  0  0  0  0  0  0  0
  -23.0875   -8.7287   22.4883 C   0  0  0  0  0  0  0  0  0  0  0  0
  -32.6090  -24.6113   23.6934 C   0  0  0  0  0  0  0  0  0  0  0  0
  -19.8576   -7.9374   23.0900 C   0  0  0  0  0  0  0  0  0  0  0  0
  -19.0998   -7.9008   24.2604 C   0  0  0  0  0  0  0  0  0  0  0  0
  -30.5193  -23.4144   23.8341 C   0  0  0  0  0  0  0  0  0  0  0  0
  -32.0738  -16.5819   22.5275 C   0  0  0  0  0  0  0  0  0  0  0  0
  -20.3374   -5.9626   25.0011 C   0  0  0  0  0  0  0  0  0  0  0  0
  -23.8274  -10.4510   20.9641 C   0  0  0  0  0  0  0  0  0  0  0  0
  -24.1736  -12.9754   20.8399 C   0  0  0  0  0  0  0  0  0  0  0  0
  -29.1808  -31.7310   23.6396 C   0  0  0  0  0  0  0  0  0  0  0  0
  -30.6863  -25.3731   22.4215 C   0  0  0  0  0  0  0  0  0  0  0  0
  -29.3009  -30.3907   24.0541 C   0  0  0  0  0  0  0  0  0  0  0  0
  -29.9266  -24.3107   22.9317 C   0  0  0  0  0  0  0  0  0  0  0  0
  -30.5234  -18.3389   24.0415 C   0  0  0  0  0  0  0  0  0  0  0  0
  -31.9112  -18.3351   24.1819 C   0  0  0  0  0  0  0  0  0  0  0  0
  -30.6861  -16.5856   22.3871 C   0  0  0  0  0  0  0  0  0  0  0  0
  -29.9109  -17.4641   23.1440 C   0  0  0  0  0  0  0  0  0  0  0  0
  -22.3354   -8.1481   21.4671 C   0  0  0  0  0  0  0  0  0  0  0  0
  -31.8528  -23.5653   24.2139 C   0  0  0  0  0  0  0  0  0  0  0  0
  -20.8553   -6.9865   22.8751 C   0  0  0  0  0  0  0  0  0  0  0  0
  -19.3397   -6.9134   25.2160 C   0  0  0  0  0  0  0  0  0  0  0  0
  -32.6864  -17.4566   23.4249 C   0  0  0  0  0  0  0  0  0  0  0  0
  -21.0952   -5.9991   23.8307 C   0  0  0  0  0  0  0  0  0  0  0  0
  -24.5987  -11.6401   20.7048 C   0  0  0  0  0  0  0  0  0  0  0  0
  -25.2672  -13.7224   20.4761 C   0  0  0  0  0  0  0  0  0  0  0  0
  -33.3930  -20.0348   24.5565 C   0  0  0  0  0  0  0  0  0  0  0  0
  -22.9037  -13.4941   21.2570 C   0  0  0  0  0  0  0  0  0  0  0  0
  -28.0808  -27.1698   22.7162 C   0  0  0  0  0  0  0  0  0  0  0  0
  -26.7506  -24.8567   20.8716 C   0  0  0  0  0  0  0  0  0  0  0  0
  -26.8195  -21.6234   19.7816 C   0  0  0  0  0  0  0  0  0  0  0  0
  -30.7350  -14.7591   20.6528 C   0  0  0  0  0  0  0  0  0  0  0  0
  -27.9073  -32.2619   23.0305 C   0  0  0  0  0  0  0  0  0  0  0  0
  -30.0843  -26.3346   21.4338 C   0  0  0  0  0  0  0  0  0  0  0  0
  -28.4854  -24.1083   22.5438 C   0  0  0  0  0  0  0  0  0  0  0  0
  -26.9756  -31.1674   22.5163 C   0  0  0  0  0  0  0  0  0  0  0  0
  -29.6183  -12.3430   18.2880 C   0  0  0  0  0  0  0  0  0  0  0  0
  -26.8348  -30.0562   23.5519 C   0  0  0  0  0  0  0  0  0  0  0  0
  -28.1778  -12.0546   18.7171 C   0  0  0  0  0  0  0  0  0  0  0  0
  -30.5329  -12.5724   19.4899 C   0  0  0  0  0  0  0  0  0  0  0  0
  -28.6262  -13.3025   20.8685 C   0  0  0  0  0  0  0  0  0  0  0  0
  -28.1870  -29.3903   23.8338 C   0  0  1  0  0  0  0  0  0  0  0  0
  -28.5625  -26.4025   21.5175 C   0  0  1  0  0  0  0  0  0  0  0  0
  -27.6539  -13.1288   19.6903 C   0  0  2  0  0  0  0  0  0  0  0  0
  -29.6966  -19.2837   24.8569 C   0  0  0  0  0  0  0  0  0  0  0  0
  -25.5799  -20.0147   18.3076 C   0  0  0  0  0  0  0  0  0  0  0  0
  -24.5817  -24.5815   23.0000 C   0  0  0  0  0  0  0  0  0  0  0  0
  -23.9522  -22.3857   21.9751 C   0  0  0  0  0  0  0  0  0  0  0  0
  -23.7492  -24.4854   20.6437 C   0  0  0  0  0  0  0  0  0  0  0  0
  -29.1762  -21.2267   18.0359 C   0  0  0  0  0  0  0  0  0  0  0  0
  -34.1245  -21.0299   25.4170 C   0  0  0  0  0  0  0  0  0  0  0  0
  -33.8147  -22.4438   24.9548 C   0  0  0  0  0  0  0  0  0  1  0  0
  -26.0448  -23.5494   21.1399 C   0  0  1  0  0  0  0  0  0  0  0  0
  -26.7117  -21.0271   18.3898 C   0  0  2  0  0  0  0  0  0  0  0  0
  -24.6086  -23.7552   21.6987 C   0  0  0  0  0  0  0  0  0  0  0  0
  -25.8637  -11.5414   20.2876 N   0  0  0  0  0  0  0  0  0  0  0  0
  -32.5459  -19.2098   25.0797 N   0  0  0  0  0  0  0  0  0  0  0  0
  -26.2428  -12.8242   20.1573 N   0  0  0  0  0  0  0  0  0  0  0  0
  -27.9402  -25.0784   21.5798 N   0  0  0  0  0  0  0  0  0  0  0  0
  -29.9750  -13.6057   20.3650 N   0  0  0  0  0  0  0  0  0  0  0  0
  -28.5029  -17.4709   23.0019 N   0  0  0  0  0  0  0  0  0  0  0  0
  -25.4799  -15.0534   20.4008 N   0  0  0  0  0  0  0  0  0  0  0  0
  -21.8900  -12.5872   21.5952 N   0  0  0  0  0  0  0  0  0  0  0  0
  -30.0886  -15.6867   21.4691 N   0  0  0  0  0  0  0  0  0  0  0  0
  -28.5318  -28.4750   22.7671 N   0  0  0  0  0  0  0  0  0  0  0  0
  -26.0984  -22.7934   19.8933 N   0  0  0  0  0  0  0  0  0  0  0  0
  -27.9826  -20.3424   18.0198 N   0  3  0  0  0  0  0  0  0  0  0  0
  -22.6694  -14.7252   21.3120 O   0  0  0  0  0  0  0  0  0  0  0  0
  -27.3525  -26.6191   23.5335 O   0  0  0  0  0  0  0  0  0  0  0  0
  -26.2681  -25.6486   20.0582 O   0  0  0  0  0  0  0  0  0  0  0  0
  -27.4746  -21.1014   20.6810 O   0  0  0  0  0  0  0  0  0  0  0  0
  -31.8647  -14.9251   20.1857 O   0  0  0  0  0  0  0  0  0  0  0  0
  -21.6074   -7.0247   21.7129 O   0  0  0  0  0  0  0  0  0  0  0  0
  -32.4151  -22.6875   25.0887 O   0  0  0  0  0  0  0  0  0  1  0  0
  -18.6129   -6.8793   26.3406 F   0  0  0  0  0  0  0  0  0  0  0  0
  -34.0208  -17.4453   23.5528 F   0  0  0  0  0  0  0  0  0  0  0  0
  -22.0532   -5.0837   23.6303 F   0  0  0  0  0  0  0  0  0  0  0  0
  1  2  1  0  0  0  0
  1  5  2  0  0  0  0
  2  6  2  0  0  0  0
  3  8  2  0  0  0  0
  3 16  1  0  0  0  0
  4  9  1  0  0  0  0
  4 16  2  0  0  0  0
  5 18  1  0  0  0  0
  6 20  1  0  0  0  0
  7 10  2  0  0  0  0
  7 19  1  0  0  0  0
  8 26  1  0  0  0  0
  9 26  2  0  0  0  0
 10 27  1  0  0  0  0
 11 12  2  0  0  0  0
 11 28  1  0  0  0  0
 12 29  1  0  0  0  0
 13 21  1  0  0  0  0
 13 27  2  0  0  0  0
 14 24  1  0  0  0  0
 14 30  2  0  0  0  0
 15 29  2  0  0  0  0
 15 31  1  0  0  0  0
 16 32  1  0  0  0  0
 17 32  1  0  0  0  0
 17 33  2  0  0  0  0
 17 35  1  0  0  0  0
 18 20  2  0  0  0  0
 18 40  1  0  0  0  0
 19 21  2  0  0  0  0
 19 41  1  0  0  0  0
 20 49  1  0  0  0  0
 21 42  1  0  0  0  0
 22 23  2  0  0  0  0
 22 25  1  0  0  0  0
 22 52  1  0  0  0  0
 23 30  1  0  0  0  0
 23 64  1  0  0  0  0
 24 25  2  0  0  0  0
 24 71  1  0  0  0  0
 25 68  1  0  0  0  0
 26 80  1  0  0  0  0
 27 81  1  0  0  0  0
 28 31  2  0  0  0  0
 28 80  1  0  0  0  0
 29 82  1  0  0  0  0
 30 83  1  0  0  0  0
 31 84  1  0  0  0  0
 32 63  2  0  0  0  0
 33 65  1  0  0  0  0
 33 69  1  0  0  0  0
 34 58  1  0  0  0  0
 34 64  2  0  0  0  0
 35 70  1  0  0  0  0
 35 75  2  0  0  0  0
 36 50  1  0  0  0  0
 36 72  1  0  0  0  0
 36 76  2  0  0  0  0
 37 60  1  0  0  0  0
 37 66  1  0  0  0  0
 37 77  2  0  0  0  0
 38 61  1  0  0  0  0
 38 73  1  0  0  0  0
 38 78  2  0  0  0  0
 39 67  1  0  0  0  0
 39 71  1  0  0  0  0
 39 79  2  0  0  0  0
 40 43  1  0  0  0  0
 41 50  1  0  0  0  0
 42 66  1  0  0  0  0
 43 45  1  0  0  0  0
 44 46  1  0  0  0  0
 44 47  1  0  0  0  0
 45 49  1  0  0  0  0
 46 51  1  0  0  0  0
 47 67  1  0  0  0  0
 48 51  1  0  0  0  0
 48 67  1  0  0  0  0
 49 72  1  0  0  0  0
 50 66  1  0  0  0  0
 51 65  1  0  0  0  0
 53 61  1  0  0  0  0
 54 62  1  0  0  0  0
 55 62  1  0  0  0  0
 56 62  1  0  0  0  0
 57 74  1  0  0  0  0
 58 59  1  0  0  0  0
 59 81  1  0  0  0  0
 60 62  1  0  0  0  0
 60 73  1  0  0  0  0
 61 74  1  0  0  0  0
 63 65  1  0  0  0  0
M  CHG  1  74   1
M  ISO  4  39 100  59 101  71 100  81 101
M  END
> <Batch ID>
0115

> <Smiles>
CNC(C)C(=O)NC(C(=O)N1Cc2cc([101O:1][101CH2:1]C=CNc3c(F)cc([100NH:0][100C:0](=O)N4CCCC(n5nc(-c6ccc(Oc7ccc(F)cc7F)cc6)c(C(N)=O)c5N)C4)c(N)c3C)ccc2CC1C(=O)NC1CCCc2ccccc21)C(C)(C)C

> <Shape>
0.226

> <Color>
0.188

> <Negative vol penalty>
0.000

$$$$

  -OEChem-04052301403D

 88 96  0     1  0  0  0  0  0999 V2000
  -16.9230  -29.4521   23.8353 C   0  0  0  0  0  0  0  0  0  0  0  0
  -17.2119  -28.1733   24.3007 C   0  0  0  0  0  0  0  0  0  0  0  0
  -31.1059  -20.8329   19.5701 C   0  0  0  0  0  0  0  0  0  0  0  0
  -28.9142  -20.3626   20.4714 C   0  0  0  0  0  0  0  0  0  0  0  0
  -17.8009  -30.0885   22.9588 C   0  0  0  0  0  0  0  0  0  0  0  0
  -18.3783  -27.5296   23.8890 C   0  0  0  0  0  0  0  0  0  0  0  0
  -23.3366  -22.9212   26.2328 C   0  0  0  0  0  0  0  0  0  0  0  0
  -30.6063  -21.9801   18.9538 C   0  0  0  0  0  0  0  0  0  0  0  0
  -28.4146  -21.5099   19.8551 C   0  0  0  0  0  0  0  0  0  0  0  0
  -23.9582  -21.7286   25.8650 C   0  0  0  0  0  0  0  0  0  0  0  0
  -29.8027  -25.1400   19.8495 C   0  0  0  0  0  0  0  0  0  0  0  0
  -30.5546  -26.3104   19.9516 C   0  0  0  0  0  0  0  0  0  0  0  0
  -23.8280  -12.6184   19.7326 C   0  0  0  0  0  0  0  0  0  0  0  0
  -25.4401  -22.9567   24.4106 C   0  0  0  0  0  0  0  0  0  0  0  0
  -25.7343  -13.4304   21.6005 C   0  0  0  0  0  0  0  0  0  0  0  0
  -30.7411  -26.4005   17.5444 C   0  0  0  0  0  0  0  0  0  0  0  0
  -30.2598  -20.0241   20.3289 C   0  0  0  0  0  0  0  0  0  0  0  0
  -25.0905  -12.0257   19.7432 C   0  0  0  0  0  0  0  0  0  0  0  0
  -31.3273  -18.7386   22.2565 C   0  0  0  0  0  0  0  0  0  0  0  0
  -18.9835  -29.4562   22.5437 C   0  0  0  0  0  0  0  0  0  0  0  0
  -23.7556  -24.1413   25.6831 C   0  0  0  0  0  0  0  0  0  0  0  0
  -19.2722  -28.1576   23.0050 C   0  0  0  0  0  0  0  0  0  0  0  0
  -24.8238  -24.1636   24.7750 C   0  0  0  0  0  0  0  0  0  0  0  0
  -26.0437  -12.4316   20.6772 C   0  0  0  0  0  0  0  0  0  0  0  0
  -29.2607  -22.3186   19.0963 C   0  0  0  0  0  0  0  0  0  0  0  0
  -25.0082  -21.7460   24.9515 C   0  0  0  0  0  0  0  0  0  0  0  0
  -29.5201  -24.5998   18.5949 C   0  0  0  0  0  0  0  0  0  0  0  0
  -23.5186  -13.6172   20.6558 C   0  0  0  0  0  0  0  0  0  0  0  0
  -24.4717  -14.0232   21.5898 C   0  0  0  0  0  0  0  0  0  0  0  0
  -31.0238  -26.9407   18.7990 C   0  0  0  0  0  0  0  0  0  0  0  0
  -29.9893  -25.2300   17.4424 C   0  0  0  0  0  0  0  0  0  0  0  0
  -30.7751  -18.8386   20.9654 C   0  0  0  0  0  0  0  0  0  0  0  0
  -31.6634  -17.4130   22.3844 C   0  0  0  0  0  0  0  0  0  0  0  0
  -25.3709  -11.1841   17.4567 C   0  0  0  0  0  0  0  0  0  0  0  0
  -25.3835  -10.9852   18.7662 C   0  0  0  0  0  0  0  0  0  0  0  0
  -31.5192  -19.7531   23.2512 C   0  0  0  0  0  0  0  0  0  0  0  0
  -22.3888  -26.3795   23.8870 C   0  0  0  0  0  0  0  0  0  0  0  0
  -25.1736  -27.9556   24.4189 C   0  0  0  0  0  0  0  0  0  0  0  0
  -28.4907  -27.7922   25.2042 C   0  0  0  0  0  0  0  0  0  0  0  0
  -29.6252  -12.4203   19.7825 C   0  0  0  0  0  0  0  0  0  0  0  0
  -19.8782  -30.1651   21.5580 C   0  0  0  0  0  0  0  0  0  0  0  0
  -23.0923  -25.4218   26.1105 C   0  0  0  0  0  0  0  0  0  0  0  0
  -25.3248  -25.4493   24.1714 C   0  0  0  0  0  0  0  0  0  0  0  0
  -21.2782  -29.5637   21.4644 C   0  0  0  0  0  0  0  0  0  0  0  0
  -32.9788  -13.6161   19.7874 C   0  0  0  0  0  0  0  0  0  0  0  0
  -21.2004  -28.0441   21.3574 C   0  0  0  0  0  0  0  0  0  0  0  0
  -32.8442  -15.0811   20.2064 C   0  0  0  0  0  0  0  0  0  0  0  0
  -31.8154  -13.1728   18.9032 C   0  0  0  0  0  0  0  0  0  0  0  0
  -30.3422  -14.8842   19.8902 C   0  0  0  0  0  0  0  0  0  0  0  0
  -20.5398  -27.4366   22.6007 C   0  0  1  0  0  0  0  0  0  0  0  0
  -23.2624  -26.5498   25.0976 C   0  0  1  0  0  0  0  0  0  0  0  0
  -31.4633  -15.3616   20.8291 C   0  0  2  0  0  0  0  0  0  0  0  0
  -27.7092  -11.1344   22.0574 C   0  0  0  0  0  0  0  0  0  0  0  0
  -30.5124  -29.2434   25.5271 C   0  0  0  0  0  0  0  0  0  0  0  0
  -25.4289  -28.2686   21.3945 C   0  0  0  0  0  0  0  0  0  0  0  0
  -27.8423  -28.8451   21.7279 C   0  0  0  0  0  0  0  0  0  0  0  0
  -26.0677  -30.2968   22.7109 C   0  0  0  0  0  0  0  0  0  0  0  0
  -28.7906  -26.9469   28.0246 C   0  0  0  0  0  0  0  0  0  0  0  0
  -22.1146  -15.3421   19.8134 C   0  0  0  0  0  0  0  0  0  0  0  0
  -25.3362  -18.4134   23.5688 C   0  0  0  0  0  0  0  0  0  0  0  0
  -24.4983  -17.1400   23.5365 C   0  0  0  0  0  0  0  0  0  0  0  0
  -24.8179  -19.4007   24.6061 C   0  0  0  0  0  0  0  0  0  1  0  0
  -24.9895  -16.1707   22.4705 C   0  0  0  0  0  0  0  0  0  0  0  0
  -27.4067  -11.8186   20.7180 C   0  0  2  0  0  0  0  0  0  0  0  0
  -26.5126  -28.0241   23.7251 C   0  0  1  0  0  0  0  0  0  0  0  0
  -29.3288  -28.5693   26.2034 C   0  0  2  0  0  0  0  0  0  0  0  0
  -26.4524  -28.8341   22.3993 C   0  0  0  0  0  0  0  0  0  0  0  0
  -30.7597  -17.6697   20.3192 N   0  0  0  0  0  0  0  0  0  0  0  0
  -31.3064  -16.8227   21.2079 N   0  0  0  0  0  0  0  0  0  0  0  0
  -24.6397  -26.6742   24.6161 N   0  0  0  0  0  0  0  0  0  0  0  0
  -30.5350  -13.4653   19.5520 N   0  0  0  0  0  0  0  0  0  0  0  0
  -32.2267  -16.7064   23.3874 N   0  0  0  0  0  0  0  0  0  0  0  0
  -31.1175  -21.0630   22.9558 N   0  0  0  0  0  0  0  0  0  0  0  0
  -21.4758  -27.4005   23.7039 N   0  0  0  0  0  0  0  0  0  0  0  0
  -27.4541  -28.5529   24.7062 N   0  0  0  0  0  0  0  0  0  0  0  0
  -28.4386  -12.7829   20.4079 N   0  0  0  0  0  0  0  0  0  0  0  0
  -29.8486  -27.6589   27.2625 N   0  3  0  0  0  0  0  0  0  0  0  0
  -32.0467  -19.5088   24.3627 O   0  0  0  0  0  0  0  0  0  0  0  0
  -22.5333  -25.3954   23.1713 O   0  0  0  0  0  0  0  0  0  0  0  0
  -24.6251  -29.0000   24.7792 O   0  0  0  0  0  0  0  0  0  0  0  0
  -28.7338  -26.6282   24.8937 O   0  0  0  0  0  0  0  0  0  0  0  0
  -29.8558  -11.2499   19.4600 O   0  0  0  0  0  0  0  0  0  0  0  0
  -28.7729  -23.4382   18.4952 O   0  0  0  0  0  0  0  0  0  0  0  0
  -22.2821  -14.1888   20.6356 O   0  0  0  0  0  0  0  0  0  0  0  0
  -25.6162  -20.5834   24.5903 O   0  0  0  0  0  0  0  0  0  1  0  0
  -24.1796  -15.0036   22.5022 O   0  0  0  0  0  0  0  0  0  0  0  0
  -31.7445  -28.0655   18.8971 F   0  0  0  0  0  0  0  0  0  0  0  0
  -29.7200  -24.7164   16.2343 F   0  0  0  0  0  0  0  0  0  0  0  0
  1  2  1  0  0  0  0
  1  5  2  0  0  0  0
  2  6  2  0  0  0  0
  3  8  2  0  0  0  0
  3 17  1  0  0  0  0
  4  9  1  0  0  0  0
  4 17  2  0  0  0  0
  5 20  1  0  0  0  0
  6 22  1  0  0  0  0
  7 10  2  0  0  0  0
  7 21  1  0  0  0  0
  8 25  1  0  0  0  0
  9 25  2  0  0  0  0
 10 26  1  0  0  0  0
 11 12  2  0  0  0  0
 11 27  1  0  0  0  0
 12 30  1  0  0  0  0
 13 18  1  0  0  0  0
 13 28  2  0  0  0  0
 14 23  1  0  0  0  0
 14 26  2  0  0  0  0
 15 24  1  0  0  0  0
 15 29  2  0  0  0  0
 16 30  2  0  0  0  0
 16 31  1  0  0  0  0
 17 32  1  0  0  0  0
 18 24  2  0  0  0  0
 18 35  1  0  0  0  0
 19 32  1  0  0  0  0
 19 33  2  0  0  0  0
 19 36  1  0  0  0  0
 20 22  2  0  0  0  0
 20 41  1  0  0  0  0
 21 23  2  0  0  0  0
 21 42  1  0  0  0  0
 22 50  1  0  0  0  0
 23 43  1  0  0  0  0
 24 64  1  0  0  0  0
 25 83  1  0  0  0  0
 26 85  1  0  0  0  0
 27 31  2  0  0  0  0
 27 83  1  0  0  0  0
 28 29  1  0  0  0  0
 28 84  1  0  0  0  0
 29 86  1  0  0  0  0
 30 87  1  0  0  0  0
 31 88  1  0  0  0  0
 32 68  2  0  0  0  0
 33 69  1  0  0  0  0
 33 72  1  0  0  0  0
 34 35  2  0  0  0  0
 36 73  1  0  0  0  0
 36 78  2  0  0  0  0
 37 51  1  0  0  0  0
 37 74  1  0  0  0  0
 37 79  2  0  0  0  0
 38 65  1  0  0  0  0
 38 70  1  0  0  0  0
 38 80  2  0  0  0  0
 39 66  1  0  0  0  0
 39 75  1  0  0  0  0
 39 81  2  0  0  0  0
 40 71  1  0  0  0  0
 40 76  1  0  0  0  0
 40 82  2  0  0  0  0
 41 44  1  0  0  0  0
 42 51  1  0  0  0  0
 43 70  1  0  0  0  0
 44 46  1  0  0  0  0
 45 47  1  0  0  0  0
 45 48  1  0  0  0  0
 46 50  1  0  0  0  0
 47 52  1  0  0  0  0
 48 71  1  0  0  0  0
 49 52  1  0  0  0  0
 49 71  1  0  0  0  0
 50 74  1  0  0  0  0
 51 70  1  0  0  0  0
 52 69  1  0  0  0  0
 53 64  1  0  0  0  0
 54 66  1  0  0  0  0
 55 67  1  0  0  0  0
 56 67  1  0  0  0  0
 57 67  1  0  0  0  0
 58 77  1  0  0  0  0
 59 84  1  0  0  0  0
 60 61  1  0  0  0  0
 60 62  1  0  0  0  0
 61 63  1  0  0  0  0
 62 85  1  0  0  0  0
 63 86  1  0  0  0  0
 64 76  1  0  0  0  0
 65 67  1  0  0  0  0
 65 75  1  0  0  0  0
 66 77  1  0  0  0  0
 68 69  1  0  0  0  0
M  CHG  1  77   1
M  ISO  4  40 100  62 101  76 100  85 101
M  END
> <Batch ID>
0115

> <Smiles>
C=Cc1cc(OC)c(OCCC[101CH2:1][101O:1]c2ccc3c(c2)CN(C(=O)C(NC(=O)C(C)NC)C(C)(C)C)C(C(=O)NC2CCCc4ccccc42)C3)cc1C(C)[100NH:0][100C:0](=O)N1CCCC(n2nc(-c3ccc(Oc4ccc(F)cc4F)cc3)c(C(N)=O)c2N)C1

> <Shape>
0.244

> <Color>
0.071

> <Negative vol penalty>
0.000

$$$$

  -OEChem-04052301403D

 84 92  0     1  0  0  0  0  0999 V2000
  -22.5114  -11.2319   18.6147 C   0  0  0  0  0  0  0  0  0  0  0  0
  -22.0427  -12.4967   18.9553 C   0  0  0  0  0  0  0  0  0  0  0  0
  -29.2930  -25.8282   21.2162 C   0  0  0  0  0  0  0  0  0  0  0  0
  -27.6860  -24.8412   22.7262 C   0  0  0  0  0  0  0  0  0  0  0  0
  -23.7596  -10.8070   19.0679 C   0  0  0  0  0  0  0  0  0  0  0  0
  -22.8215  -13.3369   19.7503 C   0  0  0  0  0  0  0  0  0  0  0  0
  -23.1980  -19.4389   19.3900 C   0  0  0  0  0  0  0  0  0  0  0  0
  -30.3288  -25.2014   21.9087 C   0  0  0  0  0  0  0  0  0  0  0  0
  -28.7218  -24.2143   23.4188 C   0  0  0  0  0  0  0  0  0  0  0  0
  -22.5860  -20.4608   20.1145 C   0  0  0  0  0  0  0  0  0  0  0  0
  -32.0561  -25.6802   24.7743 C   0  0  0  0  0  0  0  0  0  0  0  0
  -33.1857  -26.4405   25.0768 C   0  0  0  0  0  0  0  0  0  0  0  0
  -24.5282  -20.6068   21.5377 C   0  0  0  0  0  0  0  0  0  0  0  0
  -19.4618  -30.4584   23.5717 C   0  0  0  0  0  0  0  0  0  0  0  0
  -34.5557  -24.9120   23.8025 C   0  0  0  0  0  0  0  0  0  0  0  0
  -27.9715  -25.6482   21.6249 C   0  0  0  0  0  0  0  0  0  0  0  0
  -26.1818  -25.7869   19.8124 C   0  0  0  0  0  0  0  0  0  0  0  0
  -24.5582  -11.6460   19.8609 C   0  0  0  0  0  0  0  0  0  0  0  0
  -24.4774  -18.9850   19.7413 C   0  0  0  0  0  0  0  0  0  0  0  0
  -24.0809  -12.9222   20.2157 C   0  0  0  0  0  0  0  0  0  0  0  0
  -25.1553  -19.5807   20.8145 C   0  0  0  0  0  0  0  0  0  0  0  0
  -20.0164  -29.3945   22.8689 C   0  0  0  0  0  0  0  0  0  0  0  0
  -30.0433  -24.3944   23.0100 C   0  0  0  0  0  0  0  0  0  0  0  0
  -23.2499  -21.0430   21.1903 C   0  0  0  0  0  0  0  0  0  0  0  0
  -32.1763  -24.5357   23.9860 C   0  0  0  0  0  0  0  0  0  0  0  0
  -19.3845  -28.1560   22.8805 C   0  0  0  0  0  0  0  0  0  0  0  0
  -34.4355  -26.0564   24.5909 C   0  0  0  0  0  0  0  0  0  0  0  0
  -33.4261  -24.1516   23.5000 C   0  0  0  0  0  0  0  0  0  0  0  0
  -26.9011  -26.2959   20.9102 C   0  0  0  0  0  0  0  0  0  0  0  0
  -18.2833  -30.2337   24.2648 C   0  0  0  0  0  0  0  0  0  0  0  0
  -18.2095  -28.0344   23.6047 C   0  0  0  0  0  0  0  0  0  0  0  0
  -25.2816  -26.7771   19.5029 C   0  0  0  0  0  0  0  0  0  0  0  0
  -21.8063  -24.2549   21.7801 C   0  0  0  0  0  0  0  0  0  0  0  0
  -20.7558  -24.8803   22.3310 C   0  0  0  0  0  0  0  0  0  0  0  0
  -26.3154  -24.5314   19.1331 C   0  0  0  0  0  0  0  0  0  0  0  0
  -25.6825  -16.2129   20.7246 C   0  0  0  0  0  0  0  0  0  0  0  0
  -28.5070  -17.7798   20.4254 C   0  0  0  0  0  0  0  0  0  0  0  0
  -30.1757  -20.7559   20.3532 C   0  0  0  0  0  0  0  0  0  0  0  0
  -21.9639  -30.7636   22.0447 C   0  0  0  0  0  0  0  0  0  0  0  0
  -25.8801  -11.1247   20.3664 C   0  0  0  0  0  0  0  0  0  0  0  0
  -25.1348  -17.9000   18.9331 C   0  0  0  0  0  0  0  0  0  0  0  0
  -26.5385  -19.1436   21.2196 C   0  0  0  0  0  0  0  0  0  0  0  0
  -26.8050  -12.2187   20.8935 C   0  0  0  0  0  0  0  0  0  0  0  0
  -24.9992  -31.6349   20.4000 C   0  0  0  0  0  0  0  0  0  0  0  0
  -26.0405  -13.1677   21.8111 C   0  0  0  0  0  0  0  0  0  0  0  0
  -25.7300  -30.2981   20.2557 C   0  0  0  0  0  0  0  0  0  0  0  0
  -24.2329  -31.7229   21.7186 C   0  0  0  0  0  0  0  0  0  0  0  0
  -24.0468  -29.2692   21.8352 C   0  0  0  0  0  0  0  0  0  0  0  0
  -24.9071  -13.8720   21.0556 C   0  0  1  0  0  0  0  0  0  0  0  0
  -26.2302  -17.1648   19.6991 C   0  0  1  0  0  0  0  0  0  0  0  0
  -24.7801  -29.1079   20.4936 C   0  0  2  0  0  0  0  0  0  0  0  0
  -17.6596  -31.3527   25.0302 C   0  0  0  0  0  0  0  0  0  0  0  0
  -17.4901  -26.7262   23.6509 C   0  0  0  0  0  0  0  0  0  0  0  0
  -32.1027  -22.3387   20.0727 C   0  0  0  0  0  0  0  0  0  0  0  0
  -29.1134  -16.9790   23.3065 C   0  0  0  0  0  0  0  0  0  0  0  0
  -30.9179  -18.7143   23.3356 C   0  0  0  0  0  0  0  0  0  0  0  0
  -31.0568  -16.7995   21.7428 C   0  0  0  0  0  0  0  0  0  0  0  0
  -29.6779  -21.0306   17.4488 C   0  0  0  0  0  0  0  0  0  0  0  0
  -21.7413  -22.8815   21.1963 C   0  0  0  0  0  0  0  0  0  1  0  0
  -20.8176  -26.2583   22.9043 C   0  0  0  0  0  0  0  0  0  0  0  0
  -29.3601  -18.6292   21.3363 C   0  0  1  0  0  0  0  0  0  0  0  0
  -31.2189  -21.3029   19.3955 C   0  0  2  0  0  0  0  0  0  0  0  0
  -30.0852  -17.7877   22.4241 C   0  0  0  0  0  0  0  0  0  0  0  0
  -26.4932  -27.5148   21.2736 N   0  0  0  0  0  0  0  0  0  0  0  0
  -17.6406  -29.0449   24.2996 N   0  0  0  0  0  0  0  0  0  0  0  0
  -25.5079  -27.7800   20.3990 N   0  0  0  0  0  0  0  0  0  0  0  0
  -27.1365  -18.0749   20.4023 N   0  0  0  0  0  0  0  0  0  0  0  0
  -23.3502  -30.5646   21.8735 N   0  0  0  0  0  0  0  0  0  0  0  0
  -24.3266  -26.8790   18.5542 N   0  0  0  0  0  0  0  0  0  0  0  0
  -27.2908  -23.6300   19.5808 N   0  0  0  0  0  0  0  0  0  0  0  0
  -21.2212  -29.5879   22.1486 N   0  0  0  0  0  0  0  0  0  0  0  0
  -25.4341  -14.9436   20.2382 N   0  0  0  0  0  0  0  0  0  0  0  0
  -30.2573  -19.3843   20.4684 N   0  0  0  0  0  0  0  0  0  0  0  0
  -30.5598  -21.9424   18.2218 N   0  3  0  0  0  0  0  0  0  0  0  0
  -25.6022  -24.2249   18.1477 O   0  0  0  0  0  0  0  0  0  0  0  0
  -25.5003  -16.6009   21.8727 O   0  0  0  0  0  0  0  0  0  0  0  0
  -29.0381  -16.8921   19.7535 O   0  0  0  0  0  0  0  0  0  0  0  0
  -29.3714  -21.4740   20.9431 O   0  0  0  0  0  0  0  0  0  0  0  0
  -21.4684  -31.8932   22.0681 O   0  0  0  0  0  0  0  0  0  0  0  0
  -31.0537  -23.7823   23.6859 O   0  0  0  0  0  0  0  0  0  0  0  0
  -22.6546  -22.0402   21.8996 O   0  0  0  0  0  0  0  0  0  1  0  0
  -19.9067  -27.0883   22.1975 O   0  0  0  0  0  0  0  0  0  0  0  0
  -35.5199  -26.7875   24.8801 F   0  0  0  0  0  0  0  0  0  0  0  0
  -33.5476  -23.0538   22.7412 F   0  0  0  0  0  0  0  0  0  0  0  0
  1  2  1  0  0  0  0
  1  5  2  0  0  0  0
  2  6  2  0  0  0  0
  3  8  2  0  0  0  0
  3 16  1  0  0  0  0
  4  9  1  0  0  0  0
  4 16  2  0  0  0  0
  5 18  1  0  0  0  0
  6 20  1  0  0  0  0
  7 10  2  0  0  0  0
  7 19  1  0  0  0  0
  8 23  1  0  0  0  0
  9 23  2  0  0  0  0
 10 24  1  0  0  0  0
 11 12  2  0  0  0  0
 11 25  1  0  0  0  0
 12 27  1  0  0  0  0
 13 21  1  0  0  0  0
 13 24  2  0  0  0  0
 14 22  2  0  0  0  0
 14 30  1  0  0  0  0
 15 27  2  0  0  0  0
 15 28  1  0  0  0  0
 16 29  1  0  0  0  0
 17 29  1  0  0  0  0
 17 32  2  0  0  0  0
 17 35  1  0  0  0  0
 18 20  2  0  0  0  0
 18 40  1  0  0  0  0
 19 21  2  0  0  0  0
 19 41  1  0  0  0  0
 20 49  1  0  0  0  0
 21 42  1  0  0  0  0
 22 26  1  0  0  0  0
 22 71  1  0  0  0  0
 23 80  1  0  0  0  0
 24 81  1  0  0  0  0
 25 28  2  0  0  0  0
 25 80  1  0  0  0  0
 26 31  2  0  0  0  0
 26 82  1  0  0  0  0
 27 83  1  0  0  0  0
 28 84  1  0  0  0  0
 29 64  2  0  0  0  0
 30 52  1  0  0  0  0
 30 65  2  0  0  0  0
 31 53  1  0  0  0  0
 31 65  1  0  0  0  0
 32 66  1  0  0  0  0
 32 69  1  0  0  0  0
 33 34  2  0  0  0  0
 33 59  1  0  0  0  0
 34 60  1  0  0  0  0
 35 70  1  0  0  0  0
 35 75  2  0  0  0  0
 36 50  1  0  0  0  0
 36 72  1  0  0  0  0
 36 76  2  0  0  0  0
 37 61  1  0  0  0  0
 37 67  1  0  0  0  0
 37 77  2  0  0  0  0
 38 62  1  0  0  0  0
 38 73  1  0  0  0  0
 38 78  2  0  0  0  0
 39 68  1  0  0  0  0
 39 71  1  0  0  0  0
 39 79  2  0  0  0  0
 40 43  1  0  0  0  0
 41 50  1  0  0  0  0
 42 67  1  0  0  0  0
 43 45  1  0  0  0  0
 44 46  1  0  0  0  0
 44 47  1  0  0  0  0
 45 49  1  0  0  0  0
 46 51  1  0  0  0  0
 47 68  1  0  0  0  0
 48 51  1  0  0  0  0
 48 68  1  0  0  0  0
 49 72  1  0  0  0  0
 50 67  1  0  0  0  0
 51 66  1  0  0  0  0
 54 62  1  0  0  0  0
 55 63  1  0  0  0  0
 56 63  1  0  0  0  0
 57 63  1  0  0  0  0
 58 74  1  0  0  0  0
 59 81  1  0  0  0  0
 60 82  1  0  0  0  0
 61 63  1  0  0  0  0
 61 73  1  0  0  0  0
 62 74  1  0  0  0  0
 64 66  1  0  0  0  0
M  CHG  1  74   1
M  ISO  4  39 100  59 101  71 100  81 101
M  END
> <Batch ID>
0115

> <Smiles>
CNC(C)C(=O)NC(C(=O)N1Cc2cc([101O:1][101CH2:1]C=CCOc3c([100NH:0][100C:0](=O)N4CCCC(n5nc(-c6ccc(Oc7ccc(F)cc7F)cc6)c(C(N)=O)c5N)C4)cc(C)nc3C)ccc2CC1C(=O)NC1CCCc2ccccc21)C(C)(C)C

> <Shape>
0.229

> <Color>
0.084

> <Negative vol penalty>
0.000

$$$$

  -OEChem-04052301403D

 85 93  0     1  0  0  0  0  0999 V2000
  -29.5499  -32.3562   25.6424 C   0  0  0  0  0  0  0  0  0  0  0  0
  -29.3584  -31.2341   24.8426 C   0  0  0  0  0  0  0  0  0  0  0  0
  -23.2702   -9.9847   22.2276 C   0  0  0  0  0  0  0  0  0  0  0  0
  -23.8569  -11.5155   24.0022 C   0  0  0  0  0  0  0  0  0  0  0  0
  -28.4779  -32.8966   26.3515 C   0  0  0  0  0  0  0  0  0  0  0  0
  -28.0949  -30.6510   24.7524 C   0  0  0  0  0  0  0  0  0  0  0  0
  -26.8271  -29.4894   19.9892 C   0  0  0  0  0  0  0  0  0  0  0  0
  -22.5743   -9.1927   23.1408 C   0  0  0  0  0  0  0  0  0  0  0  0
  -23.1609  -10.7235   24.9155 C   0  0  0  0  0  0  0  0  0  0  0  0
  -27.3902  -28.3365   19.4435 C   0  0  0  0  0  0  0  0  0  0  0  0
  -23.3048   -6.8839   25.4988 C   0  0  0  0  0  0  0  0  0  0  0  0
  -23.4973   -5.5038   25.4372 C   0  0  0  0  0  0  0  0  0  0  0  0
  -25.3464  -27.1348   19.8889 C   0  0  0  0  0  0  0  0  0  0  0  0
  -31.0303  -19.8588   18.5209 C   0  0  0  0  0  0  0  0  0  0  0  0
  -31.1426  -17.4503   18.3667 C   0  0  0  0  0  0  0  0  0  0  0  0
  -21.1398   -5.1940   25.0089 C   0  0  0  0  0  0  0  0  0  0  0  0
  -23.9116  -11.1461   22.6583 C   0  0  0  0  0  0  0  0  0  0  0  0
  -24.1222  -13.0369   20.9589 C   0  0  0  0  0  0  0  0  0  0  0  0
  -27.1986  -32.3256   26.2623 C   0  0  0  0  0  0  0  0  0  0  0  0
  -25.5211  -29.4707   20.4996 C   0  0  0  0  0  0  0  0  0  0  0  0
  -27.0052  -31.1834   25.4620 C   0  0  0  0  0  0  0  0  0  0  0  0
  -24.7682  -28.2894   20.4381 C   0  0  0  0  0  0  0  0  0  0  0  0
  -29.6914  -18.4903   19.9944 C   0  0  0  0  0  0  0  0  0  0  0  0
  -30.1002  -19.7492   19.5546 C   0  0  0  0  0  0  0  0  0  0  0  0
  -31.5514  -18.7093   17.9269 C   0  0  0  0  0  0  0  0  0  0  0  0
  -30.2126  -17.3408   19.4005 C   0  0  0  0  0  0  0  0  0  0  0  0
  -22.5196   -9.5621   24.4847 C   0  0  0  0  0  0  0  0  0  0  0  0
  -26.6509  -27.1583   19.3959 C   0  0  0  0  0  0  0  0  0  0  0  0
  -22.0298   -7.4191   25.3155 C   0  0  0  0  0  0  0  0  0  0  0  0
  -22.4149   -4.6588   25.1922 C   0  0  0  0  0  0  0  0  0  0  0  0
  -20.9473   -6.5742   25.0705 C   0  0  0  0  0  0  0  0  0  0  0  0
  -24.6311  -11.9644   21.7155 C   0  0  0  0  0  0  0  0  0  0  0  0
  -25.1954  -13.4786   20.2243 C   0  0  0  0  0  0  0  0  0  0  0  0
  -27.8336  -23.7794   19.2410 C   0  0  0  0  0  0  0  0  0  0  0  0
  -27.3116  -24.9310   19.6669 C   0  0  0  0  0  0  0  0  0  1  0  0
  -28.5207  -21.3908   19.5945 C   0  0  0  0  0  0  0  0  0  0  0  0
  -22.7978  -13.5851   20.9232 C   0  0  0  0  0  0  0  0  0  0  0  0
  -27.9220  -22.6321   20.1661 C   0  0  0  0  0  0  0  0  0  0  0  0
  -24.2231  -29.9624   23.3591 C   0  0  0  0  0  0  0  0  0  0  0  0
  -21.4419  -29.6814   21.7134 C   0  0  0  0  0  0  0  0  0  0  0  0
  -19.8068  -28.4733   18.9723 C   0  0  0  0  0  0  0  0  0  0  0  0
  -30.5681  -14.8805   19.8094 C   0  0  0  0  0  0  0  0  0  0  0  0
  -26.0809  -32.9167   27.0845 C   0  0  0  0  0  0  0  0  0  0  0  0
  -24.9188  -30.7296   21.0606 C   0  0  0  0  0  0  0  0  0  0  0  0
  -23.3548  -28.2221   20.9542 C   0  0  0  0  0  0  0  0  0  0  0  0
  -24.6926  -32.4633   26.6405 C   0  0  0  0  0  0  0  0  0  0  0  0
  -29.7661  -11.4246   19.5084 C   0  0  0  0  0  0  0  0  0  0  0  0
  -24.6675  -30.9533   26.4255 C   0  0  0  0  0  0  0  0  0  0  0  0
  -28.3168  -11.3452   19.9935 C   0  0  0  0  0  0  0  0  0  0  0  0
  -30.5759  -12.4456   20.3056 C   0  0  0  0  0  0  0  0  0  0  0  0
  -28.5351  -13.7084   20.8622 C   0  0  0  0  0  0  0  0  0  0  0  0
  -25.6442  -30.5373   25.3189 C   0  0  1  0  0  0  0  0  0  0  0  0
  -23.7625  -30.4630   22.0194 C   0  0  1  0  0  0  0  0  0  0  0  0
  -27.6630  -12.7400   20.0466 C   0  0  2  0  0  0  0  0  0  0  0  0
  -28.6937  -18.3773   21.1049 C   0  0  0  0  0  0  0  0  0  0  0  0
  -17.5296  -28.3719   17.9228 C   0  0  0  0  0  0  0  0  0  0  0  0
  -20.6119  -27.5442   23.7267 C   0  0  0  0  0  0  0  0  0  0  0  0
  -18.8240  -26.8300   22.1262 C   0  0  0  0  0  0  0  0  0  0  0  0
  -18.7917  -29.1337   23.0825 C   0  0  0  0  0  0  0  0  0  0  0  0
  -20.7252  -29.9261   16.5629 C   0  0  0  0  0  0  0  0  0  0  0  0
  -20.5286  -28.5373   21.3449 C   0  0  1  0  0  0  0  0  0  0  0  0
  -18.8438  -29.1331   18.0018 C   0  0  2  0  0  0  0  0  0  0  0  0
  -19.7163  -28.0117   22.5620 C   0  0  0  0  0  0  0  0  0  0  0  0
  -25.9267  -11.7383   21.4830 N   0  0  0  0  0  0  0  0  0  0  0  0
  -29.5877  -20.9190   20.1402 N   0  0  0  0  0  0  0  0  0  0  0  0
  -26.2411  -12.6748   20.5718 N   0  0  0  0  0  0  0  0  0  0  0  0
  -22.8124  -29.4777   21.4990 N   0  0  0  0  0  0  0  0  0  0  0  0
  -29.8978  -13.7437   20.3085 N   0  0  0  0  0  0  0  0  0  0  0  0
  -32.4914  -18.8201   16.8811 N   0  0  0  0  0  0  0  0  0  0  0  0
  -25.3373  -14.4721   19.3214 N   0  0  0  0  0  0  0  0  0  0  0  0
  -21.8152  -13.0116   21.7417 N   0  0  0  0  0  0  0  0  0  0  0  0
  -29.8122  -16.0521   19.8327 N   0  0  0  0  0  0  0  0  0  0  0  0
  -25.0827  -30.8222   24.0159 N   0  0  0  0  0  0  0  0  0  0  0  0
  -19.7060  -29.0120   20.2376 N   0  0  0  0  0  0  0  0  0  0  0  0
  -19.4392  -29.1859   16.6367 N   0  3  0  0  0  0  0  0  0  0  0  0
  -22.4908  -14.5441   20.1753 O   0  0  0  0  0  0  0  0  0  0  0  0
  -27.5635  -22.6225   21.3315 O   0  0  0  0  0  0  0  0  0  0  0  0
  -23.8267  -28.8771   23.7675 O   0  0  0  0  0  0  0  0  0  0  0  0
  -20.9565  -30.7204   22.1679 O   0  0  0  0  0  0  0  0  0  0  0  0
  -20.5695  -27.5679   18.6419 O   0  0  0  0  0  0  0  0  0  0  0  0
  -31.7177  -14.8138   19.3667 O   0  0  0  0  0  0  0  0  0  0  0  0
  -21.8404   -8.7896   25.3761 O   0  0  0  0  0  0  0  0  0  0  0  0
  -27.1983  -26.0315   18.8644 O   0  0  0  0  0  0  0  0  0  1  0  0
  -22.6001   -3.3336   25.1316 F   0  0  0  0  0  0  0  0  0  0  0  0
  -19.7203   -7.0826   24.8923 F   0  0  0  0  0  0  0  0  0  0  0  0
  1  2  1  0  0  0  0
  1  5  2  0  0  0  0
  2  6  2  0  0  0  0
  3  8  2  0  0  0  0
  3 17  1  0  0  0  0
  4  9  1  0  0  0  0
  4 17  2  0  0  0  0
  5 19  1  0  0  0  0
  6 21  1  0  0  0  0
  7 10  2  0  0  0  0
  7 20  1  0  0  0  0
  8 27  1  0  0  0  0
  9 27  2  0  0  0  0
 10 28  1  0  0  0  0
 11 12  2  0  0  0  0
 11 29  1  0  0  0  0
 12 30  1  0  0  0  0
 13 22  1  0  0  0  0
 13 28  2  0  0  0  0
 14 24  1  0  0  0  0
 14 25  2  0  0  0  0
 15 25  1  0  0  0  0
 15 26  2  0  0  0  0
 16 30  2  0  0  0  0
 16 31  1  0  0  0  0
 17 32  1  0  0  0  0
 18 32  1  0  0  0  0
 18 33  2  0  0  0  0
 18 37  1  0  0  0  0
 19 21  2  0  0  0  0
 19 43  1  0  0  0  0
 20 22  2  0  0  0  0
 20 44  1  0  0  0  0
 21 52  1  0  0  0  0
 22 45  1  0  0  0  0
 23 24  2  0  0  0  0
 23 26  1  0  0  0  0
 23 55  1  0  0  0  0
 24 65  1  0  0  0  0
 25 69  1  0  0  0  0
 26 72  1  0  0  0  0
 27 82  1  0  0  0  0
 28 83  1  0  0  0  0
 29 31  2  0  0  0  0
 29 82  1  0  0  0  0
 30 84  1  0  0  0  0
 31 85  1  0  0  0  0
 32 64  2  0  0  0  0
 33 66  1  0  0  0  0
 33 70  1  0  0  0  0
 34 35  2  0  0  0  0
 34 38  1  0  0  0  0
 35 83  1  0  0  0  0
 36 38  1  0  0  0  0
 36 65  2  0  0  0  0
 37 71  1  0  0  0  0
 37 76  2  0  0  0  0
 38 77  2  0  0  0  0
 39 53  1  0  0  0  0
 39 73  1  0  0  0  0
 39 78  2  0  0  0  0
 40 61  1  0  0  0  0
 40 67  1  0  0  0  0
 40 79  2  0  0  0  0
 41 62  1  0  0  0  0
 41 74  1  0  0  0  0
 41 80  2  0  0  0  0
 42 68  1  0  0  0  0
 42 72  1  0  0  0  0
 42 81  2  0  0  0  0
 43 46  1  0  0  0  0
 44 53  1  0  0  0  0
 45 67  1  0  0  0  0
 46 48  1  0  0  0  0
 47 49  1  0  0  0  0
 47 50  1  0  0  0  0
 48 52  1  0  0  0  0
 49 54  1  0  0  0  0
 50 68  1  0  0  0  0
 51 54  1  0  0  0  0
 51 68  1  0  0  0  0
 52 73  1  0  0  0  0
 53 67  1  0  0  0  0
 54 66  1  0  0  0  0
 56 62  1  0  0  0  0
 57 63  1  0  0  0  0
 58 63  1  0  0  0  0
 59 63  1  0  0  0  0
 60 75  1  0  0  0  0
 61 63  1  0  0  0  0
 61 74  1  0  0  0  0
 62 75  1  0  0  0  0
 64 66  1  0  0  0  0
M  CHG  1  75   1
M  ISO  4  35 101  42 100  72 100  83 101
M  END
> <Batch ID>
0115

> <Smiles>
CNC(C)C(=O)NC(C(=O)N1Cc2cc([101O:1][101CH:1]=CC(=O)C=Nc3cc(N)cc([100NH:0][100C:0](=O)N4CCCC(n5nc(-c6ccc(Oc7ccc(F)cc7F)cc6)c(C(N)=O)c5N)C4)c3C)ccc2CC1C(=O)NC1CCCc2ccccc21)C(C)(C)C

> <Shape>
0.345

> <Color>
0.149

> <Negative vol penalty>
0.000

$$$$

  -OEChem-04052301403D

 86 94  0     1  0  0  0  0  0999 V2000
  -21.0478  -34.3322   18.5932 C   0  0  0  0  0  0  0  0  0  0  0  0
  -21.4264  -33.1251   18.0145 C   0  0  0  0  0  0  0  0  0  0  0  0
  -23.1626   -9.7197   20.0176 C   0  0  0  0  0  0  0  0  0  0  0  0
  -23.8785   -9.8955   22.3183 C   0  0  0  0  0  0  0  0  0  0  0  0
  -21.9787  -35.0823   19.3105 C   0  0  0  0  0  0  0  0  0  0  0  0
  -22.7365  -32.6679   18.1519 C   0  0  0  0  0  0  0  0  0  0  0  0
  -24.5691  -26.8475   18.6724 C   0  0  0  0  0  0  0  0  0  0  0  0
  -22.4631   -8.5526   20.3244 C   0  0  0  0  0  0  0  0  0  0  0  0
  -23.1789   -8.7285   22.6252 C   0  0  0  0  0  0  0  0  0  0  0  0
  -25.0803  -25.9387   17.7469 C   0  0  0  0  0  0  0  0  0  0  0  0
  -19.9762   -7.8304   23.2224 C   0  0  0  0  0  0  0  0  0  0  0  0
  -19.1998   -7.8277   24.3812 C   0  0  0  0  0  0  0  0  0  0  0  0
  -27.3215  -26.5148   18.4281 C   0  0  0  0  0  0  0  0  0  0  0  0
  -28.9008  -20.3990   20.7498 C   0  0  0  0  0  0  0  0  0  0  0  0
  -28.3499  -20.3207   18.0162 C   0  0  0  0  0  0  0  0  0  0  0  0
  -20.5071   -5.9924   25.2529 C   0  0  0  0  0  0  0  0  0  0  0  0
  -23.8704  -10.3911   21.0145 C   0  0  0  0  0  0  0  0  0  0  0  0
  -24.1087  -12.9170   20.7483 C   0  0  0  0  0  0  0  0  0  0  0  0
  -23.2984  -34.6294   19.4650 C   0  0  0  0  0  0  0  0  0  0  0  0
  -25.4321  -27.6060   19.4765 C   0  0  0  0  0  0  0  0  0  0  0  0
  -23.6863  -33.4133   18.8708 C   0  0  0  0  0  0  0  0  0  0  0  0
  -26.8188  -27.4306   19.3648 C   0  0  0  0  0  0  0  0  0  0  0  0
  -28.2144  -21.4526   20.1463 C   0  0  0  0  0  0  0  0  0  0  0  0
  -29.3119  -19.3062   19.9865 C   0  0  0  0  0  0  0  0  0  0  0  0
  -27.9389  -21.4135   18.7795 C   0  0  0  0  0  0  0  0  0  0  0  0
  -22.4711   -8.0570   21.6282 C   0  0  0  0  0  0  0  0  0  0  0  0
  -26.4567  -25.7743   17.6226 C   0  0  0  0  0  0  0  0  0  0  0  0
  -21.0180   -6.9140   23.0788 C   0  0  0  0  0  0  0  0  0  0  0  0
  -19.4653   -6.9088   25.3964 C   0  0  0  0  0  0  0  0  0  0  0  0
  -29.0364  -19.2670   18.6197 C   0  0  0  0  0  0  0  0  0  0  0  0
  -21.2835   -5.9951   24.0940 C   0  0  0  0  0  0  0  0  0  0  0  0
  -24.5938  -11.5964   20.6981 C   0  0  0  0  0  0  0  0  0  0  0  0
  -25.1752  -13.6896   20.3583 C   0  0  0  0  0  0  0  0  0  0  0  0
  -22.8101  -13.4019   21.1148 C   0  0  0  0  0  0  0  0  0  0  0  0
  -29.9512  -15.8485   21.5765 C   0  0  0  0  0  0  0  0  0  0  0  0
  -30.6334  -14.8636   20.7059 C   0  0  0  0  0  0  0  0  0  0  0  0
  -26.0129  -30.7102   19.8371 C   0  0  0  0  0  0  0  0  0  0  0  0
  -27.9000  -29.6776   22.2650 C   0  0  0  0  0  0  0  0  0  0  0  0
  -29.7284  -27.1435   23.6368 C   0  0  0  0  0  0  0  0  0  0  0  0
  -24.2816  -35.4979   20.2092 C   0  0  0  0  0  0  0  0  0  0  0  0
  -24.8643  -28.5627   20.4888 C   0  0  0  0  0  0  0  0  0  0  0  0
  -27.7874  -28.2059   20.2188 C   0  0  0  0  0  0  0  0  0  0  0  0
  -25.5520  -34.7609   20.6253 C   0  0  0  0  0  0  0  0  0  0  0  0
  -29.6063  -12.4087   18.3027 C   0  0  0  0  0  0  0  0  0  0  0  0
  -26.0986  -33.9403   19.4614 C   0  0  0  0  0  0  0  0  0  0  0  0
  -28.1844  -12.0592   18.7406 C   0  0  0  0  0  0  0  0  0  0  0  0
  -30.4986  -12.7197   19.5000 C   0  0  0  0  0  0  0  0  0  0  0  0
  -28.5374  -13.4517   20.8291 C   0  0  0  0  0  0  0  0  0  0  0  0
  -25.0917  -32.8719   19.0187 C   0  0  1  0  0  0  0  0  0  0  0  0
  -25.8477  -29.6560   20.8949 C   0  0  1  0  0  0  0  0  0  0  0  0
  -27.5994  -13.1584   19.6452 C   0  0  2  0  0  0  0  0  0  0  0  0
  -27.7858  -22.6106   20.9877 C   0  0  0  0  0  0  0  0  0  0  0  0
  -31.1889  -26.6108   25.6067 C   0  0  0  0  0  0  0  0  0  0  0  0
  -25.8077  -23.8015   14.9410 C   0  0  0  0  0  0  0  0  0  0  0  0
  -30.1805  -31.2611   20.9994 C   0  0  0  0  0  0  0  0  0  0  0  0
  -31.7798  -29.9573   22.4173 C   0  0  0  0  0  0  0  0  0  0  0  0
  -30.0631  -31.4129   23.4929 C   0  0  0  0  0  0  0  0  0  0  0  0
  -27.9027  -25.0045   24.5592 C   0  0  0  0  0  0  0  0  0  0  0  0
  -30.0459  -18.1812   20.6346 C   0  0  0  0  0  0  0  0  0  0  0  0
  -29.1678  -16.9535   20.9193 C   0  0  0  0  0  0  0  0  0  0  0  0
  -26.9402  -22.4744   16.7540 C   0  0  0  0  0  0  0  0  0  0  0  0
  -29.3435  -29.2541   22.3912 C   0  0  1  0  0  0  0  0  0  0  0  0
  -29.7750  -26.5841   25.0473 C   0  0  2  0  0  0  0  0  0  0  0  0
  -26.1602  -23.7439   16.4203 C   0  0  1  0  0  0  0  0  0  1  0  0
  -30.3238  -30.4580   22.3076 C   0  0  0  0  0  0  0  0  0  0  0  0
  -25.8691  -11.5301   20.3068 N   0  0  0  0  0  0  0  0  0  0  0  0
  -30.0464  -15.6941   22.8536 N   0  0  0  0  0  0  0  0  0  0  0  0
  -26.1944  -12.8188   20.1076 N   0  0  0  0  0  0  0  0  0  0  0  0
  -29.8974  -13.7401   20.3564 N   0  0  0  0  0  0  0  0  0  0  0  0
  -27.1836  -29.1337   21.1894 N   0  0  0  0  0  0  0  0  0  0  0  0
  -25.3311  -15.0222   20.2087 N   0  0  0  0  0  0  0  0  0  0  0  0
  -21.8309  -12.4719   21.4898 N   0  0  0  0  0  0  0  0  0  0  0  0
  -27.2584  -22.4505   18.1637 N   0  0  0  0  0  0  0  0  0  0  0  0
  -25.1090  -31.7510   19.9340 N   0  0  0  0  0  0  0  0  0  0  0  0
  -29.4382  -28.4914   23.6313 N   0  0  0  0  0  0  0  0  0  0  0  0
  -29.2902  -25.1750   25.0620 N   0  3  0  0  0  0  0  0  0  0  0  0
  -22.5216  -14.6225   21.0942 O   0  0  0  0  0  0  0  0  0  0  0  0
  -31.7804  -15.1475   20.3863 O   0  0  0  0  0  0  0  0  0  0  0  0
  -26.8959  -30.5892   18.9961 O   0  0  0  0  0  0  0  0  0  0  0  0
  -27.4236  -30.4565   23.0943 O   0  0  0  0  0  0  0  0  0  0  0  0
  -29.9329  -26.4544   22.6399 O   0  0  0  0  0  0  0  0  0  0  0  0
  -21.7884   -6.9184   21.9281 O   0  0  0  0  0  0  0  0  0  0  0  0
  -26.9583  -24.8884   16.7195 O   0  0  0  0  0  0  0  0  0  1  0  0
  -18.7206   -6.9074   26.5098 F   0  0  0  0  0  0  0  0  0  0  0  0
  -29.4275  -18.2212   17.8781 F   0  0  0  0  0  0  0  0  0  0  0  0
  -22.2837   -5.1131   23.9623 F   0  0  0  0  0  0  0  0  0  0  0  0
  1  2  1  0  0  0  0
  1  5  2  0  0  0  0
  2  6  2  0  0  0  0
  3  8  2  0  0  0  0
  3 17  1  0  0  0  0
  4  9  1  0  0  0  0
  4 17  2  0  0  0  0
  5 19  1  0  0  0  0
  6 21  1  0  0  0  0
  7 10  2  0  0  0  0
  7 20  1  0  0  0  0
  8 26  1  0  0  0  0
  9 26  2  0  0  0  0
 10 27  1  0  0  0  0
 11 12  2  0  0  0  0
 11 28  1  0  0  0  0
 12 29  1  0  0  0  0
 13 22  1  0  0  0  0
 13 27  2  0  0  0  0
 14 23  1  0  0  0  0
 14 24  2  0  0  0  0
 15 25  1  0  0  0  0
 15 30  2  0  0  0  0
 16 29  2  0  0  0  0
 16 31  1  0  0  0  0
 17 32  1  0  0  0  0
 18 32  1  0  0  0  0
 18 33  2  0  0  0  0
 18 34  1  0  0  0  0
 19 21  2  0  0  0  0
 19 40  1  0  0  0  0
 20 22  2  0  0  0  0
 20 41  1  0  0  0  0
 21 49  1  0  0  0  0
 22 42  1  0  0  0  0
 23 25  2  0  0  0  0
 23 52  1  0  0  0  0
 24 30  1  0  0  0  0
 24 59  1  0  0  0  0
 25 73  1  0  0  0  0
 26 82  1  0  0  0  0
 27 83  1  0  0  0  0
 28 31  2  0  0  0  0
 28 82  1  0  0  0  0
 29 84  1  0  0  0  0
 30 85  1  0  0  0  0
 31 86  1  0  0  0  0
 32 66  2  0  0  0  0
 33 68  1  0  0  0  0
 33 71  1  0  0  0  0
 34 72  1  0  0  0  0
 34 77  2  0  0  0  0
 35 36  1  0  0  0  0
 35 60  1  0  0  0  0
 35 67  2  0  0  0  0
 36 69  1  0  0  0  0
 36 78  2  0  0  0  0
 37 50  1  0  0  0  0
 37 74  1  0  0  0  0
 37 79  2  0  0  0  0
 38 62  1  0  0  0  0
 38 70  1  0  0  0  0
 38 80  2  0  0  0  0
 39 63  1  0  0  0  0
 39 75  1  0  0  0  0
 39 81  2  0  0  0  0
 40 43  1  0  0  0  0
 41 50  1  0  0  0  0
 42 70  1  0  0  0  0
 43 45  1  0  0  0  0
 44 46  1  0  0  0  0
 44 47  1  0  0  0  0
 45 49  1  0  0  0  0
 46 51  1  0  0  0  0
 47 69  1  0  0  0  0
 48 51  1  0  0  0  0
 48 69  1  0  0  0  0
 49 74  1  0  0  0  0
 50 70  1  0  0  0  0
 51 68  1  0  0  0  0
 53 63  1  0  0  0  0
 54 64  1  0  0  0  0
 55 65  1  0  0  0  0
 56 65  1  0  0  0  0
 57 65  1  0  0  0  0
 58 76  1  0  0  0  0
 59 60  1  0  0  0  0
 61 64  1  0  0  0  0
 61 73  1  0  0  0  0
 62 65  1  0  0  0  0
 62 75  1  0  0  0  0
 63 76  1  0  0  0  0
 64 83  1  0  0  0  0
 66 68  1  0  0  0  0
M  CHG  1  76   1
M  ISO  4  35 100  36 100  64 101  83 101
M  END
> <Batch ID>
0115

> <Smiles>
CNC(C)C(=O)NC(C(=O)N1Cc2cc([101O:1][101CH:1](C)CNc3cc(F)c(CC[100C:0](=N)[100C:0](=O)N4CCCC(n5nc(-c6ccc(Oc7ccc(F)cc7F)cc6)c(C(N)=O)c5N)C4)cc3C)ccc2CC1C(=O)NC1CCCc2ccccc21)C(C)(C)C

> <Shape>
0.290

> <Color>
0.204

> <Negative vol penalty>
0.000

$$$$

  -OEChem-04052301403D

 83 91  0     1  0  0  0  0  0999 V2000
  -18.0471  -24.4948   23.9546 C   0  0  0  0  0  0  0  0  0  0  0  0
  -19.4206  -24.3254   24.0968 C   0  0  0  0  0  0  0  0  0  0  0  0
  -24.5155   -9.4488   22.0889 C   0  0  0  0  0  0  0  0  0  0  0  0
  -22.8350  -11.0991   22.6271 C   0  0  0  0  0  0  0  0  0  0  0  0
  -17.5472  -25.6433   23.3423 C   0  0  0  0  0  0  0  0  0  0  0  0
  -20.2951  -25.3040   23.6257 C   0  0  0  0  0  0  0  0  0  0  0  0
  -23.9833  -26.3664   26.9292 C   0  0  0  0  0  0  0  0  0  0  0  0
  -24.6382  -19.0147   23.1239 C   0  0  0  0  0  0  0  0  0  0  0  0
  -24.1631  -20.0648   23.9094 C   0  0  0  0  0  0  0  0  0  0  0  0
  -23.9210   -8.5534   22.9779 C   0  0  0  0  0  0  0  0  0  0  0  0
  -22.2404  -10.2036   23.5161 C   0  0  0  0  0  0  0  0  0  0  0  0
  -25.0451  -25.4663   27.0093 C   0  0  0  0  0  0  0  0  0  0  0  0
  -21.2508   -6.4792   23.0113 C   0  0  0  0  0  0  0  0  0  0  0  0
  -21.0750   -5.1629   22.5848 C   0  0  0  0  0  0  0  0  0  0  0  0
  -26.3759  -26.9220   25.6203 C   0  0  0  0  0  0  0  0  0  0  0  0
  -26.9055  -19.5838   23.7344 C   0  0  0  0  0  0  0  0  0  0  0  0
  -22.4571   -4.3875   24.4085 C   0  0  0  0  0  0  0  0  0  0  0  0
  -23.9725  -10.7217   21.9135 C   0  0  0  0  0  0  0  0  0  0  0  0
  -24.3002  -11.8027   19.6262 C   0  0  0  0  0  0  0  0  0  0  0  0
  -18.4157  -26.6410   22.8721 C   0  0  0  0  0  0  0  0  0  0  0  0
  -24.1064  -27.5477   26.1838 C   0  0  0  0  0  0  0  0  0  0  0  0
  -19.8064  -26.4664   23.0053 C   0  0  0  0  0  0  0  0  0  0  0  0
  -25.3151  -27.8365   25.5344 C   0  0  0  0  0  0  0  0  0  0  0  0
  -26.4303  -20.6339   24.5200 C   0  0  0  0  0  0  0  0  0  0  0  0
  -26.0095  -18.7741   23.0364 C   0  0  0  0  0  0  0  0  0  0  0  0
  -25.0591  -20.8744   24.6074 C   0  0  0  0  0  0  0  0  0  0  0  0
  -22.7834   -8.9308   23.6914 C   0  0  0  0  0  0  0  0  0  0  0  0
  -26.2406  -25.7427   26.3524 C   0  0  0  0  0  0  0  0  0  0  0  0
  -22.0299   -6.7498   24.1363 C   0  0  0  0  0  0  0  0  0  0  0  0
  -21.6781   -4.1170   23.2835 C   0  0  0  0  0  0  0  0  0  0  0  0
  -22.6329   -5.7039   24.8349 C   0  0  0  0  0  0  0  0  0  0  0  0
  -24.5866  -11.6473   20.9958 C   0  0  0  0  0  0  0  0  0  0  0  0
  -25.1463  -12.8013   19.2097 C   0  0  0  0  0  0  0  0  0  0  0  0
  -27.7849  -22.4742   24.5761 C   0  0  0  0  0  0  0  0  0  0  0  0
  -23.3541  -11.1066   18.8041 C   0  0  0  0  0  0  0  0  0  0  0  0
  -22.6333  -28.7593   23.6410 C   0  0  0  0  0  0  0  0  0  0  0  0
  -24.4604  -31.3560   24.3052 C   0  0  0  0  0  0  0  0  0  0  0  0
  -27.2771  -32.6218   25.7580 C   0  0  0  0  0  0  0  0  0  0  0  0
  -27.8204  -17.3321   22.0428 C   0  0  0  0  0  0  0  0  0  0  0  0
  -17.8304  -27.8433   22.1747 C   0  0  0  0  0  0  0  0  0  0  0  0
  -22.9609  -28.5210   26.1294 C   0  0  0  0  0  0  0  0  0  0  0  0
  -25.5050  -29.1006   24.7379 C   0  0  0  0  0  0  0  0  0  0  0  0
  -18.8104  -29.0059   22.0391 C   0  0  0  0  0  0  0  0  0  0  0  0
  -29.4129  -14.7446   20.1864 C   0  0  0  0  0  0  0  0  0  0  0  0
  -20.1630  -28.5084   21.5394 C   0  0  0  0  0  0  0  0  0  0  0  0
  -28.3280  -13.6734   20.0534 C   0  0  0  0  0  0  0  0  0  0  0  0
  -29.3564  -15.4436   21.5436 C   0  0  0  0  0  0  0  0  0  0  0  0
  -26.9590  -14.9238   21.7708 C   0  0  0  0  0  0  0  0  0  0  0  0
  -20.7862  -27.5169   22.5294 C   0  0  1  0  0  0  0  0  0  0  0  0
  -23.0213  -29.4477   24.9190 C   0  0  1  0  0  0  0  0  0  0  0  0
  -26.9348  -14.2369   20.3956 C   0  0  2  0  0  0  0  0  0  0  0  0
  -30.0505  -23.4224   24.3884 C   0  0  0  0  0  0  0  0  0  0  0  0
  -28.5185  -34.7753   26.1024 C   0  0  0  0  0  0  0  0  0  0  0  0
  -25.4363  -31.2527   21.4161 C   0  0  0  0  0  0  0  0  0  0  0  0
  -27.3198  -32.7663   22.0714 C   0  0  0  0  0  0  0  0  0  0  0  0
  -24.9613  -33.5529   22.2751 C   0  0  0  0  0  0  0  0  0  0  0  0
  -27.0361  -32.4248   28.7012 C   0  0  0  0  0  0  0  0  0  0  0  0
  -28.1650  -24.8102   25.3117 C   0  0  0  0  0  0  0  0  0  1  0  0
  -28.7765  -23.4143   25.2241 C   0  0  1  0  0  0  0  0  0  0  0  0
  -25.8369  -31.8264   23.9013 C   0  0  1  0  0  0  0  0  0  0  0  0
  -27.4894  -33.8130   26.6748 C   0  0  2  0  0  0  0  0  0  0  0  0
  -25.8846  -32.3247   22.4293 C   0  0  0  0  0  0  0  0  0  0  0  0
  -25.5401  -12.4804   21.4210 N   0  0  0  0  0  0  0  0  0  0  0  0
  -27.3499  -21.4371   25.2148 N   0  0  0  0  0  0  0  0  0  0  0  0
  -25.8603  -13.1688   20.3121 N   0  0  0  0  0  0  0  0  0  0  0  0
  -24.3537  -30.0178   24.7095 N   0  0  0  0  0  0  0  0  0  0  0  0
  -28.0079  -15.9553   21.7977 N   0  0  0  0  0  0  0  0  0  0  0  0
  -24.5594  -21.9337   25.3971 N   0  0  0  0  0  0  0  0  0  0  0  0
  -25.3416  -13.3920   18.0117 N   0  0  0  0  0  0  0  0  0  0  0  0
  -22.5642  -10.1093   19.3923 N   0  0  0  0  0  0  0  0  0  0  0  0
  -26.4916  -17.7071   22.2384 N   0  0  0  0  0  0  0  0  0  0  0  0
  -21.3607  -28.2211   23.6558 N   0  0  0  0  0  0  0  0  0  0  0  0
  -26.2304  -32.8295   24.8849 N   0  0  0  0  0  0  0  0  0  0  0  0
  -27.9636  -33.3589   28.0127 N   0  3  0  0  0  0  0  0  0  0  0  0
  -23.2247  -11.3501   17.5804 O   0  0  0  0  0  0  0  0  0  0  0  0
  -23.4291  -28.7207   22.7099 O   0  0  0  0  0  0  0  0  0  0  0  0
  -23.5160  -32.1489   24.2703 O   0  0  0  0  0  0  0  0  0  0  0  0
  -27.9728  -31.6098   25.8088 O   0  0  0  0  0  0  0  0  0  0  0  0
  -28.7658  -18.1247   22.0496 O   0  0  0  0  0  0  0  0  0  0  0  0
  -22.2028   -8.0572   24.5588 O   0  0  0  0  0  0  0  0  0  0  0  0
  -27.2783  -24.8656   26.4284 O   0  0  0  0  0  0  0  0  0  1  0  0
  -21.5079   -2.8528   22.8748 F   0  0  0  0  0  0  0  0  0  0  0  0
  -23.3815   -5.9575   25.9171 F   0  0  0  0  0  0  0  0  0  0  0  0
  1  2  1  0  0  0  0
  1  5  2  0  0  0  0
  2  6  2  0  0  0  0
  3 10  2  0  0  0  0
  3 18  1  0  0  0  0
  4 11  1  0  0  0  0
  4 18  2  0  0  0  0
  5 20  1  0  0  0  0
  6 22  1  0  0  0  0
  7 12  2  0  0  0  0
  7 21  1  0  0  0  0
  8  9  2  0  0  0  0
  8 25  1  0  0  0  0
  9 26  1  0  0  0  0
 10 27  1  0  0  0  0
 11 27  2  0  0  0  0
 12 28  1  0  0  0  0
 13 14  2  0  0  0  0
 13 29  1  0  0  0  0
 14 30  1  0  0  0  0
 15 23  1  0  0  0  0
 15 28  2  0  0  0  0
 16 24  1  0  0  0  0
 16 25  2  0  0  0  0
 17 30  2  0  0  0  0
 17 31  1  0  0  0  0
 18 32  1  0  0  0  0
 19 32  1  0  0  0  0
 19 33  2  0  0  0  0
 19 35  1  0  0  0  0
 20 22  2  0  0  0  0
 20 40  1  0  0  0  0
 21 23  2  0  0  0  0
 21 41  1  0  0  0  0
 22 49  1  0  0  0  0
 23 42  1  0  0  0  0
 24 26  2  0  0  0  0
 24 64  1  0  0  0  0
 25 71  1  0  0  0  0
 26 68  1  0  0  0  0
 27 80  1  0  0  0  0
 28 81  1  0  0  0  0
 29 31  2  0  0  0  0
 29 80  1  0  0  0  0
 30 82  1  0  0  0  0
 31 83  1  0  0  0  0
 32 63  2  0  0  0  0
 33 65  1  0  0  0  0
 33 69  1  0  0  0  0
 34 59  1  0  0  0  0
 34 64  2  0  0  0  0
 35 70  1  0  0  0  0
 35 75  2  0  0  0  0
 36 50  1  0  0  0  0
 36 72  1  0  0  0  0
 36 76  2  0  0  0  0
 37 60  1  0  0  0  0
 37 66  1  0  0  0  0
 37 77  2  0  0  0  0
 38 61  1  0  0  0  0
 38 73  1  0  0  0  0
 38 78  2  0  0  0  0
 39 67  1  0  0  0  0
 39 71  1  0  0  0  0
 39 79  2  0  0  0  0
 40 43  1  0  0  0  0
 41 50  1  0  0  0  0
 42 66  1  0  0  0  0
 43 45  1  0  0  0  0
 44 46  1  0  0  0  0
 44 47  1  0  0  0  0
 45 49  1  0  0  0  0
 46 51  1  0  0  0  0
 47 67  1  0  0  0  0
 48 51  1  0  0  0  0
 48 67  1  0  0  0  0
 49 72  1  0  0  0  0
 50 66  1  0  0  0  0
 51 65  1  0  0  0  0
 52 59  1  0  0  0  0
 53 61  1  0  0  0  0
 54 62  1  0  0  0  0
 55 62  1  0  0  0  0
 56 62  1  0  0  0  0
 57 74  1  0  0  0  0
 58 59  1  0  0  0  0
 58 81  1  0  0  0  0
 60 62  1  0  0  0  0
 60 73  1  0  0  0  0
 61 74  1  0  0  0  0
 63 65  1  0  0  0  0
M  CHG  1  74   1
M  ISO  4  39 100  58 101  71 100  81 101
M  END
> <Batch ID>
0115

> <Smiles>
CNC(C)C(=O)NC(C(=O)N1Cc2cc([101O:1][101CH2:1]C(C)=CNc3cc([100NH:0][100C:0](=O)N4CCCC(n5nc(-c6ccc(Oc7ccc(F)cc7F)cc6)c(C(N)=O)c5N)C4)ccc3N)ccc2CC1C(=O)NC1CCCc2ccccc21)C(C)(C)C

> <Shape>
0.231

> <Color>
0.086

> <Negative vol penalty>
0.000

$$$$

  -OEChem-04052301403D

 86 95  0     1  0  0  0  0  0999 V2000
  -25.4866  -38.7653   23.3536 C   0  0  0  0  0  0  0  0  0  0  0  0
  -26.5034  -37.9607   22.8495 C   0  0  0  0  0  0  0  0  0  0  0  0
  -24.6401   -8.8461   21.2845 C   0  0  0  0  0  0  0  0  0  0  0  0
  -22.8415  -10.1083   20.2801 C   0  0  0  0  0  0  0  0  0  0  0  0
  -24.6460  -38.2793   24.3542 C   0  0  0  0  0  0  0  0  0  0  0  0
  -26.6809  -36.6700   23.3465 C   0  0  0  0  0  0  0  0  0  0  0  0
  -26.7910  -29.8296   19.5751 C   0  0  0  0  0  0  0  0  0  0  0  0
  -23.7553   -7.8030   21.5580 C   0  0  0  0  0  0  0  0  0  0  0  0
  -21.9567   -9.0652   20.5536 C   0  0  0  0  0  0  0  0  0  0  0  0
  -26.6727  -28.5464   19.0406 C   0  0  0  0  0  0  0  0  0  0  0  0
  -21.3761   -7.0921   23.8511 C   0  0  0  0  0  0  0  0  0  0  0  0
  -21.4331   -6.5102   25.1174 C   0  0  0  0  0  0  0  0  0  0  0  0
  -25.9414  -27.7078   21.1876 C   0  0  0  0  0  0  0  0  0  0  0  0
  -21.9507   -4.3748   24.1128 C   0  0  0  0  0  0  0  0  0  0  0  0
  -22.9225  -19.5649   18.5034 C   0  0  0  0  0  0  0  0  0  0  0  0
  -24.1831   -9.9988   20.6456 C   0  0  0  0  0  0  0  0  0  0  0  0
  -26.2561  -11.0221   19.5671 C   0  0  0  0  0  0  0  0  0  0  0  0
  -24.8071  -36.9785   24.8569 C   0  0  0  0  0  0  0  0  0  0  0  0
  -26.4697  -30.0599   20.9157 C   0  0  0  0  0  0  0  0  0  0  0  0
  -25.8425  -36.1666   24.3556 C   0  0  0  0  0  0  0  0  0  0  0  0
  -26.0459  -28.9933   21.7254 C   0  0  0  0  0  0  0  0  0  0  0  0
  -22.4137   -7.9125   21.1926 C   0  0  0  0  0  0  0  0  0  0  0  0
  -26.2492  -27.4882   19.8449 C   0  0  0  0  0  0  0  0  0  0  0  0
  -21.6063   -6.3154   22.7156 C   0  0  0  0  0  0  0  0  0  0  0  0
  -21.7204   -5.1515   25.2483 C   0  0  0  0  0  0  0  0  0  0  0  0
  -21.8937   -4.9567   22.8465 C   0  0  0  0  0  0  0  0  0  0  0  0
  -25.0965  -11.0769   20.3633 C   0  0  0  0  0  0  0  0  0  0  0  0
  -22.2060  -19.8673   17.3300 C   0  0  0  0  0  0  0  0  0  0  0  0
  -23.0152  -18.1945   18.5055 C   0  0  0  0  0  0  0  0  0  0  0  0
  -26.7665  -12.2963   19.6157 C   0  0  0  0  0  0  0  0  0  0  0  0
  -24.6824  -24.4222   18.8533 C   0  0  0  0  0  0  0  0  0  0  0  0
  -24.9028  -25.6416   19.3447 C   0  0  0  0  0  0  0  0  0  1  0  0
  -26.8213   -9.9182   18.8476 C   0  0  0  0  0  0  0  0  0  0  0  0
  -23.3100  -23.8648   18.9357 C   0  0  0  0  0  0  0  0  0  0  0  0
  -26.1827  -32.5440   23.7127 C   0  0  0  0  0  0  0  0  0  0  0  0
  -23.7589  -30.6761   23.9277 C   0  0  0  0  0  0  0  0  0  0  0  0
  -21.0229  -28.6713   23.5635 C   0  0  0  0  0  0  0  0  0  0  0  0
  -24.2979  -17.6476   20.6036 C   0  0  0  0  0  0  0  0  0  0  0  0
  -23.9038  -36.5140   25.9717 C   0  0  0  0  0  0  0  0  0  0  0  0
  -26.6412  -31.4137   21.5496 C   0  0  0  0  0  0  0  0  0  0  0  0
  -25.7444  -29.2813   23.1708 C   0  0  0  0  0  0  0  0  0  0  0  0
  -23.9219  -35.0019   26.1803 C   0  0  0  0  0  0  0  0  0  0  0  0
  -26.9487  -16.1516   22.4509 C   0  0  0  0  0  0  0  0  0  0  0  0
  -25.3558  -34.4817   26.1913 C   0  0  0  0  0  0  0  0  0  0  0  0
  -26.8839  -14.6765   22.0481 C   0  0  0  0  0  0  0  0  0  0  0  0
  -22.8775  -21.8260   15.8808 C   0  0  0  0  0  0  0  0  0  0  0  0
  -25.5567  -16.7716   22.5589 C   0  0  0  0  0  0  0  0  0  0  0  0
  -23.8150  -22.5803   16.8159 C   0  0  0  0  0  0  0  0  0  0  0  0
  -21.6619  -22.3494   17.8676 C   0  0  0  0  0  0  0  0  0  0  0  0
  -24.6423  -15.1252   20.9707 C   0  0  0  0  0  0  0  0  0  0  0  0
  -26.0511  -34.7522   24.8516 C   0  0  1  0  0  0  0  0  0  0  0  0
  -21.8082  -21.2407   16.8174 C   0  0  2  0  0  0  0  0  0  0  0  0
  -25.5744  -31.7201   22.6160 C   0  0  1  0  0  0  0  0  0  0  0  0
  -26.0228  -14.4744   20.7859 C   0  0  2  0  0  0  0  0  0  0  0  0
  -18.7996  -28.1635   24.6106 C   0  0  0  0  0  0  0  0  0  0  0  0
  -25.1641  -29.1445   26.1600 C   0  0  0  0  0  0  0  0  0  0  0  0
  -23.0194  -27.9212   26.5744 C   0  0  0  0  0  0  0  0  0  0  0  0
  -23.1209  -30.3951   26.8783 C   0  0  0  0  0  0  0  0  0  0  0  0
  -22.1985  -16.4128   16.9301 C   0  0  0  0  0  0  0  0  0  0  0  0
  -19.5603  -29.4423   21.1089 C   0  0  0  0  0  0  0  0  0  0  0  0
  -23.1726  -29.4301   24.5420 C   0  0  1  0  0  0  0  0  0  0  0  0
  -19.5374  -28.9840   23.5641 C   0  0  2  0  0  0  0  0  0  0  0  0
  -23.6314  -29.2223   26.0129 C   0  0  0  0  0  0  0  0  0  0  0  0
  -24.8826  -12.2898   20.8802 N   0  0  0  0  0  0  0  0  0  0  0  0
  -21.8676  -18.7768   16.6369 N   0  0  0  0  0  0  0  0  0  0  0  0
  -25.9149  -13.0090   20.4077 N   0  0  0  0  0  0  0  0  0  0  0  0
  -22.3739  -17.7758   17.3770 N   0  0  0  0  0  0  0  0  0  0  0  0
  -22.9684  -22.9897   17.9299 N   0  0  0  0  0  0  0  0  0  0  0  0
  -24.9963  -30.5429   23.2862 N   0  0  0  0  0  0  0  0  0  0  0  0
  -24.8004  -16.5444   21.3255 N   0  0  0  0  0  0  0  0  0  0  0  0
  -27.8562  -12.8655   19.0581 N   0  0  0  0  0  0  0  0  0  0  0  0
  -26.1690   -8.6790   18.9050 N   0  0  0  0  0  0  0  0  0  0  0  0
  -23.6237  -17.3102   19.4305 N   0  0  0  0  0  0  0  0  0  0  0  0
  -25.6173  -33.7967   23.8550 N   0  0  0  0  0  0  0  0  0  0  0  0
  -21.7269  -29.5346   24.3760 N   0  0  0  0  0  0  0  0  0  0  0  0
  -18.9448  -28.6859   22.2296 N   0  3  0  0  0  0  0  0  0  0  0  0
  -27.8826  -10.0233   18.1872 O   0  0  0  0  0  0  0  0  0  0  0  0
  -22.6267  -24.2290   19.8820 O   0  0  0  0  0  0  0  0  0  0  0  0
  -27.0970  -32.0778   24.3823 O   0  0  0  0  0  0  0  0  0  0  0  0
  -23.1413  -31.7409   24.0175 O   0  0  0  0  0  0  0  0  0  0  0  0
  -21.5096  -27.7507   22.9107 O   0  0  0  0  0  0  0  0  0  0  0  0
  -24.4778  -18.8077   20.9828 O   0  0  0  0  0  0  0  0  0  0  0  0
  -21.5501   -6.8948   21.4590 O   0  0  0  0  0  0  0  0  0  0  0  0
  -26.1316  -26.2389   19.3155 O   0  0  0  0  0  0  0  0  0  1  0  0
  -21.7766   -4.5932   26.4646 F   0  0  0  0  0  0  0  0  0  0  0  0
  -22.1169   -4.2057   21.7593 F   0  0  0  0  0  0  0  0  0  0  0  0
  1  2  1  0  0  0  0
  1  5  2  0  0  0  0
  2  6  2  0  0  0  0
  3  8  2  0  0  0  0
  3 16  1  0  0  0  0
  4  9  1  0  0  0  0
  4 16  2  0  0  0  0
  5 18  1  0  0  0  0
  6 20  1  0  0  0  0
  7 10  2  0  0  0  0
  7 19  1  0  0  0  0
  8 22  1  0  0  0  0
  9 22  2  0  0  0  0
 10 23  1  0  0  0  0
 11 12  2  0  0  0  0
 11 24  1  0  0  0  0
 12 25  1  0  0  0  0
 13 21  1  0  0  0  0
 13 23  2  0  0  0  0
 14 25  2  0  0  0  0
 14 26  1  0  0  0  0
 15 28  1  0  0  0  0
 15 29  2  0  0  0  0
 16 27  1  0  0  0  0
 17 27  1  0  0  0  0
 17 30  2  0  0  0  0
 17 33  1  0  0  0  0
 18 20  2  0  0  0  0
 18 39  1  0  0  0  0
 19 21  2  0  0  0  0
 19 40  1  0  0  0  0
 20 51  1  0  0  0  0
 21 41  1  0  0  0  0
 22 83  1  0  0  0  0
 23 84  1  0  0  0  0
 24 26  2  0  0  0  0
 24 83  1  0  0  0  0
 25 85  1  0  0  0  0
 26 86  1  0  0  0  0
 27 64  2  0  0  0  0
 28 52  1  0  0  0  0
 28 65  2  0  0  0  0
 29 67  1  0  0  0  0
 29 73  1  0  0  0  0
 30 66  1  0  0  0  0
 30 71  1  0  0  0  0
 31 32  2  0  0  0  0
 31 34  1  0  0  0  0
 32 84  1  0  0  0  0
 33 72  1  0  0  0  0
 33 77  2  0  0  0  0
 34 68  1  0  0  0  0
 34 78  2  0  0  0  0
 35 53  1  0  0  0  0
 35 74  1  0  0  0  0
 35 79  2  0  0  0  0
 36 61  1  0  0  0  0
 36 69  1  0  0  0  0
 36 80  2  0  0  0  0
 37 62  1  0  0  0  0
 37 75  1  0  0  0  0
 37 81  2  0  0  0  0
 38 70  1  0  0  0  0
 38 73  1  0  0  0  0
 38 82  2  0  0  0  0
 39 42  1  0  0  0  0
 40 53  1  0  0  0  0
 41 69  1  0  0  0  0
 42 44  1  0  0  0  0
 43 45  1  0  0  0  0
 43 47  1  0  0  0  0
 44 51  1  0  0  0  0
 45 54  1  0  0  0  0
 46 48  1  0  0  0  0
 46 52  1  0  0  0  0
 47 70  1  0  0  0  0
 48 68  1  0  0  0  0
 49 52  1  0  0  0  0
 49 68  1  0  0  0  0
 50 54  1  0  0  0  0
 50 70  1  0  0  0  0
 51 74  1  0  0  0  0
 53 69  1  0  0  0  0
 54 66  1  0  0  0  0
 55 62  1  0  0  0  0
 56 63  1  0  0  0  0
 57 63  1  0  0  0  0
 58 63  1  0  0  0  0
 59 67  1  0  0  0  0
 60 76  1  0  0  0  0
 61 63  1  0  0  0  0
 61 75  1  0  0  0  0
 62 76  1  0  0  0  0
 64 66  1  0  0  0  0
 65 67  1  0  0  0  0
M  CHG  1  76   1
M  ISO  4  32 101  38 100  73 100  84 101
M  END
> <Batch ID>
0115

> <Smiles>
CNC(C)C(=O)NC(C(=O)N1Cc2cc([101O:1][101CH:1]=CC(=O)N3CCC(c4cc([100NH:0][100C:0](=O)N5CCCC(n6nc(-c7ccc(Oc8ccc(F)cc8F)cc7)c(C(N)=O)c6N)C5)n(C)n4)C3)ccc2CC1C(=O)NC1CCCc2ccccc21)C(C)(C)C

> <Shape>
0.280

> <Color>
0.104

> <Negative vol penalty>
0.000

$$$$

  -OEChem-04052301403D

 87 95  0     1  0  0  0  0  0999 V2000
  -22.1787   -8.1047   20.5222 C   0  0  0  0  0  0  0  0  0  0  0  0
  -22.0324   -9.4866   20.5885 C   0  0  0  0  0  0  0  0  0  0  0  0
  -22.9751  -28.9528   23.5655 C   0  0  0  0  0  0  0  0  0  0  0  0
  -24.0307  -31.0725   24.0446 C   0  0  0  0  0  0  0  0  0  0  0  0
  -23.2825   -7.4926   21.1146 C   0  0  0  0  0  0  0  0  0  0  0  0
  -22.9893  -10.2571   21.2481 C   0  0  0  0  0  0  0  0  0  0  0  0
  -24.2893  -14.3956   18.6351 C   0  0  0  0  0  0  0  0  0  0  0  0
  -22.2847  -29.0230   24.7754 C   0  0  0  0  0  0  0  0  0  0  0  0
  -23.3403  -31.1428   25.2546 C   0  0  0  0  0  0  0  0  0  0  0  0
  -23.4068  -15.4743   18.6705 C   0  0  0  0  0  0  0  0  0  0  0  0
  -19.9707  -28.8182   27.5715 C   0  0  0  0  0  0  0  0  0  0  0  0
  -18.6127  -28.4999   27.5627 C   0  0  0  0  0  0  0  0  0  0  0  0
  -24.7883  -16.5421   20.3350 C   0  0  0  0  0  0  0  0  0  0  0  0
  -25.6225  -21.1484   19.9183 C   0  0  0  0  0  0  0  0  0  0  0  0
  -24.5808  -22.9254   18.6558 C   0  0  0  0  0  0  0  0  0  0  0  0
  -18.2031  -30.2908   25.9936 C   0  0  0  0  0  0  0  0  0  0  0  0
  -23.8482  -29.9775   23.2001 C   0  0  0  0  0  0  0  0  0  0  0  0
  -26.9276  -23.0559   19.2147 C   0  0  0  0  0  0  0  0  0  0  0  0
  -24.1406  -30.3978   20.7010 C   0  0  0  0  0  0  0  0  0  0  0  0
  -24.2584   -8.2569   21.7735 C   0  0  0  0  0  0  0  0  0  0  0  0
  -25.4241  -14.3770   19.4587 C   0  0  0  0  0  0  0  0  0  0  0  0
  -24.1065   -9.6545   21.8510 C   0  0  0  0  0  0  0  0  0  0  0  0
  -25.6851  -15.4631   20.3062 C   0  0  0  0  0  0  0  0  0  0  0  0
  -26.8398  -21.8277   19.8701 C   0  0  0  0  0  0  0  0  0  0  0  0
  -24.4930  -21.6972   19.3112 C   0  0  0  0  0  0  0  0  0  0  0  0
  -25.7981  -23.6047   18.6076 C   0  0  0  0  0  0  0  0  0  0  0  0
  -22.4673  -30.1181   25.6200 C   0  0  0  0  0  0  0  0  0  0  0  0
  -23.6547  -16.5464   19.5226 C   0  0  0  0  0  0  0  0  0  0  0  0
  -20.4449  -29.8728   26.7914 C   0  0  0  0  0  0  0  0  0  0  0  0
  -17.7289  -29.2362   26.7738 C   0  0  0  0  0  0  0  0  0  0  0  0
  -19.5611  -30.6091   26.0024 C   0  0  0  0  0  0  0  0  0  0  0  0
  -24.5621  -29.9052   21.9506 C   0  0  0  0  0  0  0  0  0  0  0  0
  -25.1662  -30.0818   19.8438 C   0  0  0  0  0  0  0  0  0  0  0  0
  -23.0446  -20.1907   18.3853 C   0  0  0  0  0  0  0  0  0  0  0  0
  -28.2259  -23.7763   19.1676 C   0  0  0  0  0  0  0  0  0  0  0  0
  -22.9303  -31.0800   20.3468 C   0  0  0  0  0  0  0  0  0  0  0  0
  -26.4628  -12.5002   21.8044 C   0  0  0  0  0  0  0  0  0  0  0  0
  -29.1139  -14.3572   21.5901 C   0  0  0  0  0  0  0  0  0  0  0  0
  -30.4948  -17.3412   20.6761 C   0  0  0  0  0  0  0  0  0  0  0  0
  -29.3589  -25.8684   19.8482 C   0  0  0  0  0  0  0  0  0  0  0  0
  -25.4098   -7.5459   22.4394 C   0  0  0  0  0  0  0  0  0  0  0  0
  -26.3805  -13.2181   19.3891 C   0  0  0  0  0  0  0  0  0  0  0  0
  -26.9000  -15.5010   21.1956 C   0  0  0  0  0  0  0  0  0  0  0  0
  -26.5718   -8.4694   22.7957 C   0  0  0  0  0  0  0  0  0  0  0  0
  -29.9046  -29.3604   19.7766 C   0  0  0  0  0  0  0  0  0  0  0  0
  -26.0586   -9.7366   23.4722 C   0  0  0  0  0  0  0  0  0  0  0  0
  -28.5537  -29.9457   20.1970 C   0  0  0  0  0  0  0  0  0  0  0  0
  -30.2327  -28.0812   20.5453 C   0  0  0  0  0  0  0  0  0  0  0  0
  -27.8434  -27.6355   20.9337 C   0  0  0  0  0  0  0  0  0  0  0  0
  -25.1360  -10.5267   22.5362 C   0  0  1  0  0  0  0  0  0  0  0  0
  -27.2320  -13.0699   20.6462 C   0  0  1  0  0  0  0  0  0  0  0  0
  -27.4352  -28.8860   20.1382 C   0  0  1  0  0  0  0  0  0  0  0  0
  -28.0322  -21.2134   20.5288 C   0  0  0  0  0  0  0  0  0  0  0  0
  -21.0121  -19.7720   17.0582 C   0  0  0  0  0  0  0  0  0  0  0  0
  -32.6780  -18.5784   20.6587 C   0  0  0  0  0  0  0  0  0  0  0  0
  -28.8441  -14.8703   24.5858 C   0  0  0  0  0  0  0  0  0  0  0  0
  -30.4141  -16.8030   24.3254 C   0  0  0  0  0  0  0  0  0  0  0  0
  -31.1875  -14.4905   23.7993 C   0  0  0  0  0  0  0  0  0  0  0  0
  -24.7500  -25.7379   17.8481 C   0  0  0  0  0  0  0  0  0  0  0  0
  -30.4757  -17.5680   17.7253 C   0  0  0  0  0  0  0  0  0  0  0  0
  -22.0880  -17.9045   18.3578 C   0  0  0  0  0  0  0  0  0  1  0  0
  -21.7596  -19.3950   18.3313 C   0  0  1  0  0  0  0  0  0  0  0  0
  -29.5727  -15.6438   22.2327 C   0  0  1  0  0  0  0  0  0  0  0  0
  -31.7420  -17.6709   19.8758 C   0  0  2  0  0  0  0  0  0  0  0  0
  -29.9806  -15.4506   23.7206 C   0  0  0  0  0  0  0  0  0  0  0  0
  -25.7618  -29.3206   21.8964 N   0  0  0  0  0  0  0  0  0  0  0  0
  -23.2673  -21.0124   19.3589 N   0  0  0  0  0  0  0  0  0  0  0  0
  -26.1029  -29.4437   20.6024 N   0  0  0  0  0  0  0  0  0  0  0  0
  -27.8018  -14.3415   21.0961 N   0  0  0  0  0  0  0  0  0  0  0  0
  -29.1287  -27.1264   20.4320 N   0  0  0  0  0  0  0  0  0  0  0  0
  -25.3490  -30.2902   18.5226 N   0  0  0  0  0  0  0  0  0  0  0  0
  -21.9828  -31.3242   21.3503 N   0  0  0  0  0  0  0  0  0  0  0  0
  -25.8635  -24.8470   17.9376 N   0  0  0  0  0  0  0  0  0  0  0  0
  -28.2318  -25.0453   19.7474 N   0  0  0  0  0  0  0  0  0  0  0  0
  -25.9135  -11.2565   21.5578 N   0  0  0  0  0  0  0  0  0  0  0  0
  -30.6380  -16.1667   21.3841 N   0  0  0  0  0  0  0  0  0  0  0  0
  -31.3754  -18.3577   18.6050 N   0  3  0  0  0  0  0  0  0  0  0  0
  -29.2017  -23.2186   18.6731 O   0  0  0  0  0  0  0  0  0  0  0  0
  -22.6888  -31.4473   19.1719 O   0  0  0  0  0  0  0  0  0  0  0  0
  -26.3755  -13.1409   22.8454 O   0  0  0  0  0  0  0  0  0  0  0  0
  -29.8934  -13.4035   21.5224 O   0  0  0  0  0  0  0  0  0  0  0  0
  -29.4951  -18.0560   20.6762 O   0  0  0  0  0  0  0  0  0  0  0  0
  -30.4640  -25.5222   19.4189 O   0  0  0  0  0  0  0  0  0  0  0  0
  -21.7935  -30.1871   26.8006 O   0  0  0  0  0  0  0  0  0  0  0  0
  -22.7946  -17.6003   19.5597 O   0  0  0  0  0  0  0  0  0  1  0  0
  -16.4250  -28.9294   26.7642 F   0  0  0  0  0  0  0  0  0  0  0  0
  -20.0110  -31.6226   25.2499 F   0  0  0  0  0  0  0  0  0  0  0  0
  1  2  1  0  0  0  0
  1  5  2  0  0  0  0
  2  6  2  0  0  0  0
  3  8  2  0  0  0  0
  3 17  1  0  0  0  0
  4  9  1  0  0  0  0
  4 17  2  0  0  0  0
  5 20  1  0  0  0  0
  6 22  1  0  0  0  0
  7 10  2  0  0  0  0
  7 21  1  0  0  0  0
  8 27  1  0  0  0  0
  9 27  2  0  0  0  0
 10 28  1  0  0  0  0
 11 12  2  0  0  0  0
 11 29  1  0  0  0  0
 12 30  1  0  0  0  0
 13 23  1  0  0  0  0
 13 28  2  0  0  0  0
 14 24  2  0  0  0  0
 14 25  1  0  0  0  0
 15 25  2  0  0  0  0
 15 26  1  0  0  0  0
 16 30  2  0  0  0  0
 16 31  1  0  0  0  0
 17 32  1  0  0  0  0
 18 24  1  0  0  0  0
 18 26  2  0  0  0  0
 18 35  1  0  0  0  0
 19 32  1  0  0  0  0
 19 33  2  0  0  0  0
 19 36  1  0  0  0  0
 20 22  2  0  0  0  0
 20 41  1  0  0  0  0
 21 23  2  0  0  0  0
 21 42  1  0  0  0  0
 22 50  1  0  0  0  0
 23 43  1  0  0  0  0
 24 53  1  0  0  0  0
 25 67  1  0  0  0  0
 26 73  1  0  0  0  0
 27 84  1  0  0  0  0
 28 85  1  0  0  0  0
 29 31  2  0  0  0  0
 29 84  1  0  0  0  0
 30 86  1  0  0  0  0
 31 87  1  0  0  0  0
 32 66  2  0  0  0  0
 33 68  1  0  0  0  0
 33 71  1  0  0  0  0
 34 62  1  0  0  0  0
 34 67  2  0  0  0  0
 35 74  1  0  0  0  0
 35 78  2  0  0  0  0
 36 72  1  0  0  0  0
 36 79  2  0  0  0  0
 37 51  1  0  0  0  0
 37 75  1  0  0  0  0
 37 80  2  0  0  0  0
 38 63  1  0  0  0  0
 38 69  1  0  0  0  0
 38 81  2  0  0  0  0
 39 64  1  0  0  0  0
 39 76  1  0  0  0  0
 39 82  2  0  0  0  0
 40 70  1  0  0  0  0
 40 74  1  0  0  0  0
 40 83  2  0  0  0  0
 41 44  1  0  0  0  0
 42 51  1  0  0  0  0
 43 69  1  0  0  0  0
 44 46  1  0  0  0  0
 45 47  1  0  0  0  0
 45 48  1  0  0  0  0
 46 50  1  0  0  0  0
 47 52  1  0  0  0  0
 48 70  1  0  0  0  0
 49 52  1  0  0  0  0
 49 70  1  0  0  0  0
 50 75  1  0  0  0  0
 51 69  1  0  0  0  0
 52 68  1  0  0  0  0
 54 62  1  0  0  0  0
 55 64  1  0  0  0  0
 56 65  1  0  0  0  0
 57 65  1  0  0  0  0
 58 65  1  0  0  0  0
 59 73  1  0  0  0  0
 60 77  1  0  0  0  0
 61 62  1  0  0  0  0
 61 85  1  0  0  0  0
 63 65  1  0  0  0  0
 63 76  1  0  0  0  0
 64 77  1  0  0  0  0
 66 68  1  0  0  0  0
M  CHG  1  77   1
M  ISO  4  40 100  61 101  74 100  85 101
M  END
> <Batch ID>
0115

> <Smiles>
CNc1cc(NC=C(C)[101CH2:1][101O:1]c2ccc3c(c2)CN(C(=O)C(NC(=O)C(C)NC)C(C)(C)C)C(C(=O)NC2CCCc4ccccc42)C3)cc(C)c1C(=O)[100NH:0][100C:0](=O)N1CCCC(n2nc(-c3ccc(Oc4ccc(F)cc4F)cc3)c(C(N)=O)c2N)C1

> <Shape>
0.238

> <Color>
0.068

> <Negative vol penalty>
0.000

$$$$

  -OEChem-04052301403D

 90 99  0     1  0  0  0  0  0999 V2000
  -15.5752  -25.9833   22.7032 C   0  0  0  0  0  0  0  0  0  0  0  0
  -16.1961  -26.0083   21.4585 C   0  0  0  0  0  0  0  0  0  0  0  0
  -22.5208  -13.2490   22.6932 C   0  0  0  0  0  0  0  0  0  0  0  0
  -23.9717  -11.5198   23.5545 C   0  0  0  0  0  0  0  0  0  0  0  0
  -16.0457  -26.7982   23.7321 C   0  0  0  0  0  0  0  0  0  0  0  0
  -17.2873  -26.8490   21.2417 C   0  0  0  0  0  0  0  0  0  0  0  0
  -23.6612  -24.1963   19.1856 C   0  0  0  0  0  0  0  0  0  0  0  0
  -21.7798  -13.2157   23.8745 C   0  0  0  0  0  0  0  0  0  0  0  0
  -23.2307  -11.4865   24.7359 C   0  0  0  0  0  0  0  0  0  0  0  0
  -24.8539  -23.7882   18.5880 C   0  0  0  0  0  0  0  0  0  0  0  0
  -20.2991  -10.1826   25.8019 C   0  0  0  0  0  0  0  0  0  0  0  0
  -19.9559   -8.9325   26.3166 C   0  0  0  0  0  0  0  0  0  0  0  0
  -25.7059  -26.0475   18.7206 C   0  0  0  0  0  0  0  0  0  0  0  0
  -28.6965  -20.0055   18.5662 C   0  0  0  0  0  0  0  0  0  0  0  0
  -21.1598   -9.4387   28.3492 C   0  0  0  0  0  0  0  0  0  0  0  0
  -23.6167  -12.4010   22.5332 C   0  0  0  0  0  0  0  0  0  0  0  0
  -23.9162  -12.1775   20.0097 C   0  0  0  0  0  0  0  0  0  0  0  0
  -17.1492  -27.6422   23.5306 C   0  0  0  0  0  0  0  0  0  0  0  0
  -23.4921  -25.5301   19.5674 C   0  0  0  0  0  0  0  0  0  0  0  0
  -17.7721  -27.6768   22.2684 C   0  0  0  0  0  0  0  0  0  0  0  0
  -24.5183  -26.4596   19.3309 C   0  0  0  0  0  0  0  0  0  0  0  0
  -28.4172  -18.6829   18.8916 C   0  0  0  0  0  0  0  0  0  0  0  0
  -29.4084  -17.8872   19.4551 C   0  0  0  0  0  0  0  0  0  0  0  0
  -22.1348  -12.3345   24.8958 C   0  0  0  0  0  0  0  0  0  0  0  0
  -25.8736  -24.7115   18.3559 C   0  0  0  0  0  0  0  0  0  0  0  0
  -21.0728  -11.0608   26.5608 C   0  0  0  0  0  0  0  0  0  0  0  0
  -20.3862   -8.5605   27.5902 C   0  0  0  0  0  0  0  0  0  0  0  0
  -21.5031  -10.6889   27.8344 C   0  0  0  0  0  0  0  0  0  0  0  0
  -24.3822  -12.4346   21.3130 C   0  0  0  0  0  0  0  0  0  0  0  0
  -29.9726  -20.4808   18.8222 C   0  0  0  0  0  0  0  0  0  0  0  0
  -30.6526  -18.4572   19.6712 C   0  0  0  0  0  0  0  0  0  0  0  0
  -25.0224  -12.3377   19.2116 C   0  0  0  0  0  0  0  0  0  0  0  0
  -30.4421  -24.3456   17.2822 C   0  0  0  0  0  0  0  0  0  0  0  0
  -29.4069  -24.0908   18.0936 C   0  0  0  0  0  0  0  0  0  0  0  0
  -31.6068  -23.4378   17.2576 C   0  0  0  0  0  0  0  0  0  0  0  0
  -22.6008  -11.8253   19.5607 C   0  0  0  0  0  0  0  0  0  0  0  0
  -21.2638  -28.1071   21.1389 C   0  0  0  0  0  0  0  0  0  0  0  0
  -24.1093  -28.6572   22.1443 C   0  0  0  0  0  0  0  0  0  0  0  0
  -26.8660  -29.5580   23.9406 C   0  0  0  0  0  0  0  0  0  0  0  0
  -30.0680  -15.4821   19.8115 C   0  0  0  0  0  0  0  0  0  0  0  0
  -17.5923  -28.5397   24.6588 C   0  0  0  0  0  0  0  0  0  0  0  0
  -22.2006  -26.0269   20.1580 C   0  0  0  0  0  0  0  0  0  0  0  0
  -24.2787  -27.8910   19.7267 C   0  0  0  0  0  0  0  0  0  0  0  0
  -31.5989  -22.1893   18.1039 C   0  0  0  0  0  0  0  0  0  0  0  0
  -18.9875  -29.1258   24.4589 C   0  0  0  0  0  0  0  0  0  0  0  0
  -29.7961  -11.9677   19.3096 C   0  0  0  0  0  0  0  0  0  0  0  0
  -19.1395  -29.6711   23.0424 C   0  0  0  0  0  0  0  0  0  0  0  0
  -28.3329  -11.6662   19.6419 C   0  0  0  0  0  0  0  0  0  0  0  0
  -30.3731  -13.0501   20.2202 C   0  0  0  0  0  0  0  0  0  0  0  0
  -28.1302  -13.9915   20.6106 C   0  0  0  0  0  0  0  0  0  0  0  0
  -18.9739  -28.5571   22.0017 C   0  0  1  0  0  0  0  0  0  0  0  0
  -29.3370  -22.8716   18.9897 C   0  0  2  0  0  0  0  0  0  0  0  0
  -22.4036  -27.1337   21.2083 C   0  0  1  0  0  0  0  0  0  0  0  0
  -27.4862  -12.9535   19.6771 C   0  0  2  0  0  0  0  0  0  0  0  0
  -29.6855  -23.2249   20.4397 C   0  0  0  0  0  0  0  0  0  0  0  0
  -27.0048  -17.2623   17.3837 C   0  0  0  0  0  0  0  0  0  0  0  0
  -27.8906  -31.5181   25.1260 C   0  0  0  0  0  0  0  0  0  0  0  0
  -24.8883  -29.8708   19.4565 C   0  0  0  0  0  0  0  0  0  0  0  0
  -26.6397  -31.2061   20.6472 C   0  0  0  0  0  0  0  0  0  0  0  0
  -24.2302  -31.5364   21.2021 C   0  0  0  0  0  0  0  0  0  0  0  0
  -26.8501  -28.1425   26.5396 C   0  0  0  0  0  0  0  0  0  0  0  0
  -32.9095  -18.3603   20.4149 C   0  0  0  0  0  0  0  0  0  0  0  0
  -27.0486  -18.1458   18.6267 C   0  0  0  0  0  0  0  0  0  0  0  0
  -28.2219  -25.0168   18.1322 C   0  0  0  0  0  0  0  0  0  1  0  0
  -25.3950  -29.4199   21.9477 C   0  0  1  0  0  0  0  0  0  0  0  0
  -27.0121  -30.2846   25.2654 C   0  0  2  0  0  0  0  0  0  0  0  0
  -25.2880  -30.4799   20.8152 C   0  0  0  0  0  0  0  0  0  0  0  0
  -25.6833  -12.7352   21.3454 N   0  0  0  0  0  0  0  0  0  0  0  0
  -30.9614  -19.7380   19.3683 N   0  0  0  0  0  0  0  0  0  0  0  0
  -26.0441  -12.6679   20.0526 N   0  0  0  0  0  0  0  0  0  0  0  0
  -30.2388  -21.8168   18.4901 N   0  0  2  0  0  0  0  0  0  0  0  0
  -23.6213  -27.9452   21.0418 N   0  0  0  0  0  0  0  0  0  0  0  0
  -29.5208  -14.2409   20.1998 N   0  0  0  0  0  0  0  0  0  0  0  0
  -25.2112  -12.2269   17.8795 N   0  0  0  0  0  0  0  0  0  0  0  0
  -22.2603  -10.4677   19.4895 N   0  0  0  0  0  0  0  0  0  0  0  0
  -29.1550  -16.5361   19.7990 N   0  0  0  0  0  0  0  0  0  0  0  0
  -20.1782  -27.7588   21.9197 N   0  0  0  0  0  0  0  0  0  0  0  0
  -25.7456  -29.9721   23.2518 N   0  0  0  0  0  0  0  0  0  0  0  0
  -27.6229  -29.3853   26.2848 N   0  3  0  0  0  0  0  0  0  0  0  0
  -32.5854  -23.7345   16.5720 O   0  0  0  0  0  0  0  0  0  0  0  0
  -21.7581  -12.6885   19.2167 O   0  0  0  0  0  0  0  0  0  0  0  0
  -21.3614  -29.1023   20.4305 O   0  0  0  0  0  0  0  0  0  0  0  0
  -23.5478  -28.6946   23.2428 O   0  0  0  0  0  0  0  0  0  0  0  0
  -27.6678  -28.7106   23.5536 O   0  0  0  0  0  0  0  0  0  0  0  0
  -31.2525  -15.5958   19.4859 O   0  0  0  0  0  0  0  0  0  0  0  0
  -21.4121  -12.3019   26.0487 O   0  0  0  0  0  0  0  0  0  0  0  0
  -27.0371  -24.3054   17.7763 O   0  0  0  0  0  0  0  0  0  1  0  0
  -31.6601  -17.7084   20.2227 O   0  0  0  0  0  0  0  0  0  0  0  0
  -20.0552   -7.3606   28.0850 F   0  0  0  0  0  0  0  0  0  0  0  0
  -22.2456  -11.5288   28.5687 F   0  0  0  0  0  0  0  0  0  0  0  0
  1  2  1  0  0  0  0
  1  5  2  0  0  0  0
  2  6  2  0  0  0  0
  3  8  2  0  0  0  0
  3 16  1  0  0  0  0
  4  9  1  0  0  0  0
  4 16  2  0  0  0  0
  5 18  1  0  0  0  0
  6 20  1  0  0  0  0
  7 10  2  0  0  0  0
  7 19  1  0  0  0  0
  8 24  1  0  0  0  0
  9 24  2  0  0  0  0
 10 25  1  0  0  0  0
 11 12  2  0  0  0  0
 11 26  1  0  0  0  0
 12 27  1  0  0  0  0
 13 21  1  0  0  0  0
 13 25  2  0  0  0  0
 14 22  1  0  0  0  0
 14 30  2  0  0  0  0
 15 27  2  0  0  0  0
 15 28  1  0  0  0  0
 16 29  1  0  0  0  0
 17 29  1  0  0  0  0
 17 32  2  0  0  0  0
 17 36  1  0  0  0  0
 18 20  2  0  0  0  0
 18 41  1  0  0  0  0
 19 21  2  0  0  0  0
 19 42  1  0  0  0  0
 20 51  1  0  0  0  0
 21 43  1  0  0  0  0
 22 23  2  0  0  0  0
 22 63  1  0  0  0  0
 23 31  1  0  0  0  0
 23 76  1  0  0  0  0
 24 86  1  0  0  0  0
 25 87  1  0  0  0  0
 26 28  2  0  0  0  0
 26 86  1  0  0  0  0
 27 89  1  0  0  0  0
 28 90  1  0  0  0  0
 29 68  2  0  0  0  0
 30 69  1  0  0  0  0
 30 71  1  0  0  0  0
 31 69  2  0  0  0  0
 31 88  1  0  0  0  0
 32 70  1  0  0  0  0
 32 74  1  0  0  0  0
 33 34  2  0  0  0  0
 33 35  1  0  0  0  0
 34 52  1  0  0  0  0
 34 64  1  0  0  0  0
 35 44  1  0  0  0  0
 35 80  2  0  0  0  0
 36 75  1  0  0  0  0
 36 81  2  0  0  0  0
 37 53  1  0  0  0  0
 37 77  1  0  0  0  0
 37 82  2  0  0  0  0
 38 65  1  0  0  0  0
 38 72  1  0  0  0  0
 38 83  2  0  0  0  0
 39 66  1  0  0  0  0
 39 78  1  0  0  0  0
 39 84  2  0  0  0  0
 40 73  1  0  0  0  0
 40 76  1  0  0  0  0
 40 85  2  0  0  0  0
 41 45  1  0  0  0  0
 42 53  1  0  0  0  0
 43 72  1  0  0  0  0
 44 71  1  0  0  0  0
 45 47  1  0  0  0  0
 46 48  1  0  0  0  0
 46 49  1  0  0  0  0
 47 51  1  0  0  0  0
 48 54  1  0  0  0  0
 49 73  1  0  0  0  0
 50 54  1  0  0  0  0
 50 73  1  0  0  0  0
 51 77  1  0  0  0  0
 52 55  1  0  0  0  0
 52 71  1  0  0  0  0
 53 72  1  0  0  0  0
 54 70  1  0  0  0  0
 56 63  1  0  0  0  0
 57 66  1  0  0  0  0
 58 67  1  0  0  0  0
 59 67  1  0  0  0  0
 60 67  1  0  0  0  0
 61 79  1  0  0  0  0
 62 88  1  0  0  0  0
 64 87  1  0  0  0  0
 65 67  1  0  0  0  0
 65 78  1  0  0  0  0
 66 79  1  0  0  0  0
 68 70  1  0  0  0  0
M  CHG  1  79   1
M  ISO  4  40 100  64 101  76 100  87 101
M  END
> <Batch ID>
0115

> <Smiles>
CCc1cc(N2CC(=O)CC([101CH2:1][101O:1]c3ccc4c(c3)CN(C(=O)C(NC(=O)C(C)NC)C(C)(C)C)C(C(=O)NC3CCCc5ccccc53)C4)=C2C)nc(OC)c1[100NH:0][100C:0](=O)N1CCCC(n2nc(-c3ccc(Oc4ccc(F)cc4F)cc3)c(C(N)=O)c2N)C1

> <Shape>
0.284

> <Color>
0.068

> <Negative vol penalty>
0.000

$$$$

  -OEChem-04052301403D

 84 92  0     1  0  0  0  0  0999 V2000
  -27.6818  -23.5939   17.9278 C   0  0  0  0  0  0  0  0  0  0  0  0
  -26.6085  -24.4564   18.1203 C   0  0  0  0  0  0  0  0  0  0  0  0
  -26.5975  -12.5449   20.8110 C   0  0  0  0  0  0  0  0  0  0  0  0
  -24.6100  -13.5355   19.8594 C   0  0  0  0  0  0  0  0  0  0  0  0
  -28.7662  -23.6308   18.8017 C   0  0  0  0  0  0  0  0  0  0  0  0
  -26.6246  -25.3643   19.1797 C   0  0  0  0  0  0  0  0  0  0  0  0
  -22.9767  -28.6607   19.3537 C   0  0  0  0  0  0  0  0  0  0  0  0
  -25.8316  -11.4950   21.3177 C   0  0  0  0  0  0  0  0  0  0  0  0
  -23.8441  -12.4855   20.3660 C   0  0  0  0  0  0  0  0  0  0  0  0
  -21.6681  -28.3195   19.6927 C   0  0  0  0  0  0  0  0  0  0  0  0
  -23.1749   -9.2744   19.5527 C   0  0  0  0  0  0  0  0  0  0  0  0
  -22.2306   -8.6953   18.7051 C   0  0  0  0  0  0  0  0  0  0  0  0
  -21.9973  -29.2632   21.8882 C   0  0  0  0  0  0  0  0  0  0  0  0
  -22.7103  -23.0687   20.1073 C   0  0  0  0  0  0  0  0  0  0  0  0
  -20.4738   -9.2985   20.2501 C   0  0  0  0  0  0  0  0  0  0  0  0
  -25.9866  -13.5652   20.0819 C   0  0  0  0  0  0  0  0  0  0  0  0
  -27.4095  -14.7128   18.3026 C   0  0  0  0  0  0  0  0  0  0  0  0
  -28.7892  -24.5313   19.8795 C   0  0  0  0  0  0  0  0  0  0  0  0
  -23.8104  -29.2969   20.2847 C   0  0  0  0  0  0  0  0  0  0  0  0
  -27.7207  -25.4333   20.0586 C   0  0  0  0  0  0  0  0  0  0  0  0
  -23.3153  -29.6137   21.5577 C   0  0  0  0  0  0  0  0  0  0  0  0
  -23.6986  -22.1979   19.5641 C   0  0  0  0  0  0  0  0  0  0  0  0
  -24.4550  -11.4652   21.0951 C   0  0  0  0  0  0  0  0  0  0  0  0
  -21.1791  -28.6182   20.9611 C   0  0  0  0  0  0  0  0  0  0  0  0
  -22.7687   -9.8655   20.7491 C   0  0  0  0  0  0  0  0  0  0  0  0
  -20.8800   -8.7074   19.0537 C   0  0  0  0  0  0  0  0  0  0  0  0
  -21.4182   -9.8776   21.0977 C   0  0  0  0  0  0  0  0  0  0  0  0
  -26.7771  -14.6503   19.5588 C   0  0  0  0  0  0  0  0  0  0  0  0
  -22.9275  -23.3291   21.4424 C   0  0  0  0  0  0  0  0  0  0  0  0
  -28.0264  -15.9399   18.2894 C   0  0  0  0  0  0  0  0  0  0  0  0
  -24.6338  -21.8260   20.5048 C   0  0  0  0  0  0  0  0  0  0  0  0
  -20.0145  -25.0268   22.5694 C   0  0  0  0  0  0  0  0  0  0  0  0
  -27.4369  -13.7480   17.2424 C   0  0  0  0  0  0  0  0  0  0  0  0
  -22.1312  -24.1831   22.3707 C   0  0  0  0  0  0  0  0  0  0  0  0
  -26.5552  -28.5609   21.7087 C   0  0  0  0  0  0  0  0  0  0  0  0
  -26.3248  -31.5882   22.8509 C   0  0  0  0  0  0  0  0  0  0  0  0
  -24.3315  -34.2451   23.6350 C   0  0  0  0  0  0  0  0  0  0  0  0
  -26.9535  -21.0791   21.1431 C   0  0  0  0  0  0  0  0  0  0  0  0
  -29.9916  -24.5342   20.7903 C   0  0  0  0  0  0  0  0  0  0  0  0
  -25.2109  -29.6823   19.8945 C   0  0  0  0  0  0  0  0  0  0  0  0
  -24.1632  -30.3142   22.5866 C   0  0  0  0  0  0  0  0  0  0  0  0
  -29.7214  -25.2126   22.1293 C   0  0  0  0  0  0  0  0  0  0  0  0
  -29.9684  -19.1868   21.2256 C   0  0  0  0  0  0  0  0  0  0  0  0
  -29.0677  -26.5676   21.9030 C   0  0  0  0  0  0  0  0  0  0  0  0
  -29.5510  -17.8162   20.6875 C   0  0  0  0  0  0  0  0  0  0  0  0
  -28.8740  -19.8153   22.0864 C   0  0  0  0  0  0  0  0  0  0  0  0
  -27.1353  -18.5238   20.9125 C   0  0  0  0  0  0  0  0  0  0  0  0
  -27.7024  -26.4083   21.2220 C   0  0  1  0  0  0  0  0  0  0  0  0
  -26.1361  -29.8661   21.0935 C   0  0  1  0  0  0  0  0  0  0  0  0
  -28.1799  -17.8798   19.9864 C   0  0  2  0  0  0  0  0  0  0  0  0
  -23.7089  -21.7524   18.1498 C   0  0  0  0  0  0  0  0  0  0  0  0
  -24.4258  -36.5655   24.5859 C   0  0  0  0  0  0  0  0  0  0  0  0
  -26.6674  -30.4244   25.6506 C   0  0  0  0  0  0  0  0  0  0  0  0
  -25.8163  -32.5884   26.5786 C   0  0  0  0  0  0  0  0  0  0  0  0
  -27.9228  -32.5486   25.2430 C   0  0  0  0  0  0  0  0  0  0  0  0
  -23.2571  -35.4334   21.1466 C   0  0  0  0  0  0  0  0  0  0  0  0
  -18.7864  -25.6948   22.0120 C   0  0  0  0  0  0  0  0  0  0  0  0
  -18.4933  -26.9967   22.7478 C   0  0  0  0  0  0  0  0  0  0  0  0
  -19.6456  -27.9910   22.6672 C   0  0  0  0  0  0  0  0  0  1  0  0
  -25.7059  -32.2263   24.0710 C   0  0  1  0  0  0  0  0  0  0  0  0
  -24.4548  -35.7247   23.3190 C   0  0  2  0  0  0  0  0  0  0  0  0
  -26.5125  -31.9320   25.3673 C   0  0  0  0  0  0  0  0  0  0  0  0
  -26.9743  -15.7502   20.2906 N   0  0  0  0  0  0  0  0  0  0  0  0
  -21.0298  -24.7908   21.8076 N   0  0  0  0  0  0  0  0  0  0  0  0
  -27.7376  -16.5153   19.4918 N   0  0  0  0  0  0  0  0  0  0  0  0
  -25.5278  -30.6648   22.1596 N   0  0  0  0  0  0  0  0  0  0  0  0
  -27.6052  -19.8458   21.3556 N   0  0  0  0  0  0  0  0  0  0  0  0
  -28.7824  -16.5721   17.3668 N   0  0  0  0  0  0  0  0  0  0  0  0
  -26.7499  -12.5395   17.4210 N   0  0  0  0  0  0  0  0  0  0  0  0
  -25.7721  -20.9878   20.4079 N   0  0  0  0  0  0  0  0  0  0  0  0
  -27.2118  -27.7132   20.8370 N   0  0  0  0  0  0  0  0  0  0  0  0
  -25.5666  -33.6455   23.7632 N   0  0  0  0  0  0  0  0  0  0  0  0
  -23.3341  -36.1616   22.4392 N   0  3  0  0  0  0  0  0  0  0  0  0
  -28.0658  -13.9447   16.1751 O   0  0  0  0  0  0  0  0  0  0  0  0
  -22.4934  -24.2821   23.5398 O   0  0  0  0  0  0  0  0  0  0  0  0
  -26.3029  -28.3398   22.8873 O   0  0  0  0  0  0  0  0  0  0  0  0
  -27.4704  -31.9030   22.5191 O   0  0  0  0  0  0  0  0  0  0  0  0
  -23.2480  -33.6786   23.7596 O   0  0  0  0  0  0  0  0  0  0  0  0
  -27.4239  -22.1415   21.5578 O   0  0  0  0  0  0  0  0  0  0  0  0
  -23.7074  -10.4407   21.5892 O   0  0  0  0  0  0  0  0  0  0  0  0
  -19.9024  -28.2857   21.2948 O   0  0  0  0  0  0  0  0  0  1  0  0
  -19.9731   -8.1526   18.2389 F   0  0  0  0  0  0  0  0  0  0  0  0
  -21.0218  -10.4451   22.2452 F   0  0  0  0  0  0  0  0  0  0  0  0
  -24.3184  -22.5254   22.0357 S   0  0  0  0  0  0  0  0  0  0  0  0
  1  2  1  0  0  0  0
  1  5  2  0  0  0  0
  2  6  2  0  0  0  0
  3  8  2  0  0  0  0
  3 16  1  0  0  0  0
  4  9  1  0  0  0  0
  4 16  2  0  0  0  0
  5 18  1  0  0  0  0
  6 20  1  0  0  0  0
  7 10  2  0  0  0  0
  7 19  1  0  0  0  0
  8 23  1  0  0  0  0
  9 23  2  0  0  0  0
 10 24  1  0  0  0  0
 11 12  2  0  0  0  0
 11 25  1  0  0  0  0
 12 26  1  0  0  0  0
 13 21  1  0  0  0  0
 13 24  2  0  0  0  0
 14 22  1  0  0  0  0
 14 29  2  0  0  0  0
 15 26  2  0  0  0  0
 15 27  1  0  0  0  0
 16 28  1  0  0  0  0
 17 28  1  0  0  0  0
 17 30  2  0  0  0  0
 17 33  1  0  0  0  0
 18 20  2  0  0  0  0
 18 39  1  0  0  0  0
 19 21  2  0  0  0  0
 19 40  1  0  0  0  0
 20 48  1  0  0  0  0
 21 41  1  0  0  0  0
 22 31  2  0  0  0  0
 22 51  1  0  0  0  0
 23 80  1  0  0  0  0
 24 81  1  0  0  0  0
 25 27  2  0  0  0  0
 25 80  1  0  0  0  0
 26 82  1  0  0  0  0
 27 83  1  0  0  0  0
 28 63  2  0  0  0  0
 29 34  1  0  0  0  0
 29 84  1  0  0  0  0
 30 65  1  0  0  0  0
 30 68  1  0  0  0  0
 31 70  1  0  0  0  0
 31 84  1  0  0  0  0
 32 57  1  0  0  0  0
 32 64  2  0  0  0  0
 33 69  1  0  0  0  0
 33 74  2  0  0  0  0
 34 64  1  0  0  0  0
 34 75  2  0  0  0  0
 35 49  1  0  0  0  0
 35 71  1  0  0  0  0
 35 76  2  0  0  0  0
 36 60  1  0  0  0  0
 36 66  1  0  0  0  0
 36 77  2  0  0  0  0
 37 61  1  0  0  0  0
 37 72  1  0  0  0  0
 37 78  2  0  0  0  0
 38 67  1  0  0  0  0
 38 70  1  0  0  0  0
 38 79  2  0  0  0  0
 39 42  1  0  0  0  0
 40 49  1  0  0  0  0
 41 66  1  0  0  0  0
 42 44  1  0  0  0  0
 43 45  1  0  0  0  0
 43 46  1  0  0  0  0
 44 48  1  0  0  0  0
 45 50  1  0  0  0  0
 46 67  1  0  0  0  0
 47 50  1  0  0  0  0
 47 67  1  0  0  0  0
 48 71  1  0  0  0  0
 49 66  1  0  0  0  0
 50 65  1  0  0  0  0
 52 61  1  0  0  0  0
 53 62  1  0  0  0  0
 54 62  1  0  0  0  0
 55 62  1  0  0  0  0
 56 73  1  0  0  0  0
 57 58  1  0  0  0  0
 58 59  1  0  0  0  0
 59 81  1  0  0  0  0
 60 62  1  0  0  0  0
 60 72  1  0  0  0  0
 61 73  1  0  0  0  0
 63 65  1  0  0  0  0
M  CHG  1  73   1
M  ISO  4  38 100  59 101  70 100  81 101
M  END
> <Batch ID>
0115

> <Smiles>
CNC(C)C(=O)NC(C(=O)N1Cc2cc([101O:1][101CH2:1]CCC=NC(=O)c3cc(C)c([100NH:0][100C:0](=O)N4CCCC(n5nc(-c6ccc(Oc7ccc(F)cc7F)cc6)c(C(N)=O)c5N)C4)s3)ccc2CC1C(=O)NC1CCCc2ccccc21)C(C)(C)C

> <Shape>
0.305

> <Color>
0.066

> <Negative vol penalty>
0.000

$$$$

  -OEChem-04052301403D

 84 92  0     1  0  0  0  0  0999 V2000
  -16.8237  -31.7217   20.7883 C   0  0  0  0  0  0  0  0  0  0  0  0
  -18.0508  -32.3508   20.9724 C   0  0  0  0  0  0  0  0  0  0  0  0
  -27.4836  -11.1409   20.5125 C   0  0  0  0  0  0  0  0  0  0  0  0
  -26.8219  -12.5423   18.6591 C   0  0  0  0  0  0  0  0  0  0  0  0
  -16.5688  -30.4987   21.4072 C   0  0  0  0  0  0  0  0  0  0  0  0
  -19.0234  -31.7577   21.7766 C   0  0  0  0  0  0  0  0  0  0  0  0
  -25.5201  -30.1121   19.1354 C   0  0  0  0  0  0  0  0  0  0  0  0
  -26.3545  -10.3462   20.3148 C   0  0  0  0  0  0  0  0  0  0  0  0
  -25.6927  -11.7476   18.4613 C   0  0  0  0  0  0  0  0  0  0  0  0
  -26.8554  -29.9602   18.7613 C   0  0  0  0  0  0  0  0  0  0  0  0
  -23.4563   -8.1597   20.5242 C   0  0  0  0  0  0  0  0  0  0  0  0
  -22.7166   -7.7903   21.6475 C   0  0  0  0  0  0  0  0  0  0  0  0
  -28.5811  -23.1255   18.6018 C   0  0  0  0  0  0  0  0  0  0  0  0
  -29.7027  -21.7899   20.2736 C   0  0  0  0  0  0  0  0  0  0  0  0
  -27.3637  -29.0040   20.9235 C   0  0  0  0  0  0  0  0  0  0  0  0
  -22.3105  -10.1192   22.1460 C   0  0  0  0  0  0  0  0  0  0  0  0
  -27.7173  -12.2390   19.6847 C   0  0  0  0  0  0  0  0  0  0  0  0
  -29.5507  -22.9999   19.5967 C   0  0  0  0  0  0  0  0  0  0  0  0
  -30.1542  -12.8924   19.3075 C   0  0  0  0  0  0  0  0  0  0  0  0
  -17.5423  -29.8856   22.2116 C   0  0  0  0  0  0  0  0  0  0  0  0
  -25.0979  -29.6958   20.4011 C   0  0  0  0  0  0  0  0  0  0  0  0
  -18.7808  -30.5259   22.4079 C   0  0  0  0  0  0  0  0  0  0  0  0
  -26.0249  -29.1421   21.2993 C   0  0  0  0  0  0  0  0  0  0  0  0
  -27.9155  -20.8309   18.9608 C   0  0  0  0  0  0  0  0  0  0  0  0
  -27.7635  -22.0410   18.2839 C   0  0  0  0  0  0  0  0  0  0  0  0
  -28.8851  -20.7053   19.9557 C   0  0  0  0  0  0  0  0  0  0  0  0
  -25.4591  -10.6495   19.2892 C   0  0  0  0  0  0  0  0  0  0  0  0
  -27.7750  -29.4078   19.6532 C   0  0  0  0  0  0  0  0  0  0  0  0
  -23.6233   -9.5089   20.2118 C   0  0  0  0  0  0  0  0  0  0  0  0
  -22.1436   -8.7700   22.4584 C   0  0  0  0  0  0  0  0  0  0  0  0
  -23.0503  -10.4886   21.0226 C   0  0  0  0  0  0  0  0  0  0  0  0
  -28.8831  -13.0607   19.8889 C   0  0  0  0  0  0  0  0  0  0  0  0
  -30.9045  -13.9233   19.8180 C   0  0  0  0  0  0  0  0  0  0  0  0
  -30.4123  -24.1451   19.9331 C   0  0  0  0  0  0  0  0  0  0  0  0
  -30.6336  -25.2037   19.1376 C   0  0  0  0  0  0  0  0  0  0  0  0
  -30.8903  -27.7083   19.5012 C   0  0  0  0  0  0  0  0  0  0  0  0
  -29.6023  -27.9970   19.2746 C   0  0  0  0  0  0  0  0  0  1  0  0
  -30.6153  -11.8935   18.3882 C   0  0  0  0  0  0  0  0  0  0  0  0
  -22.2529  -29.3309   22.8195 C   0  0  0  0  0  0  0  0  0  0  0  0
  -23.9526  -26.7880   23.0531 C   0  0  0  0  0  0  0  0  0  0  0  0
  -25.8493  -23.9741   22.7041 C   0  0  0  0  0  0  0  0  0  0  0  0
  -29.5007  -19.3192   21.9671 C   0  0  0  0  0  0  0  0  0  0  0  0
  -17.2034  -28.5862   22.8981 C   0  0  0  0  0  0  0  0  0  0  0  0
  -23.6821  -29.8967   20.8691 C   0  0  0  0  0  0  0  0  0  0  0  0
  -25.5327  -28.7403   22.6629 C   0  0  0  0  0  0  0  0  0  0  0  0
  -18.4251  -27.8428   23.4322 C   0  0  0  0  0  0  0  0  0  0  0  0
  -31.2651  -16.7404   23.6740 C   0  0  0  0  0  0  0  0  0  0  0  0
  -19.3469  -28.7997   24.1815 C   0  0  0  0  0  0  0  0  0  0  0  0
  -30.9752  -15.4899   22.8407 C   0  0  0  0  0  0  0  0  0  0  0  0
  -30.0549  -17.6701   23.7415 C   0  0  0  0  0  0  0  0  0  0  0  0
  -29.1940  -16.7910   21.6072 C   0  0  0  0  0  0  0  0  0  0  0  0
  -19.8703  -29.9021   23.2529 C   0  0  1  0  0  0  0  0  0  0  0  0
  -23.1839  -28.7661   21.7872 C   0  0  1  0  0  0  0  0  0  0  0  0
  -30.4043  -15.8551   21.4564 C   0  0  2  0  0  0  0  0  0  0  0  0
  -27.0371  -19.6669   18.6201 C   0  0  0  0  0  0  0  0  0  0  0  0
  -26.5628  -21.5911   23.0355 C   0  0  0  0  0  0  0  0  0  0  0  0
  -25.2418  -27.9076   25.5806 C   0  0  0  0  0  0  0  0  0  0  0  0
  -26.2909  -25.6651   25.9535 C   0  0  0  0  0  0  0  0  0  0  0  0
  -23.8067  -25.8922   25.9459 C   0  0  0  0  0  0  0  0  0  0  0  0
  -24.1475  -23.0325   20.4734 C   0  0  0  0  0  0  0  0  0  0  0  0
  -31.5337  -26.3475   19.5130 C   0  0  0  0  0  0  0  0  0  0  0  0
  -25.0751  -26.0778   23.7667 C   0  0  1  0  0  0  0  0  0  0  0  0
  -25.4657  -22.5155   22.5310 C   0  0  2  0  0  0  0  0  0  0  0  0
  -25.1080  -26.3999   25.2874 C   0  0  0  0  0  0  0  0  0  0  0  0
  -28.8256  -14.1155   20.7063 N   0  0  0  0  0  0  0  0  0  0  0  0
  -30.0699  -14.6192   20.6423 N   0  0  0  0  0  0  0  0  0  0  0  0
  -24.2313  -28.0637   22.5479 N   0  0  0  0  0  0  0  0  0  0  0  0
  -29.5714  -17.9761   22.3934 N   0  0  0  0  0  0  0  0  0  0  0  0
  -26.7874  -22.1879   17.2734 N   0  0  0  0  0  0  0  0  0  0  0  0
  -32.1902  -14.2934   19.6379 N   0  0  0  0  0  0  0  0  0  0  0  0
  -29.7136  -10.9073   17.9654 N   0  0  0  0  0  0  0  0  0  0  0  0
  -29.0572  -19.4854   20.6556 N   0  0  0  0  0  0  0  0  0  0  0  0
  -20.9335  -29.3931   22.4133 N   0  0  0  0  0  0  0  0  0  0  0  0
  -24.9217  -24.6599   23.4593 N   0  0  0  0  0  0  0  0  0  0  0  0
  -25.2197  -22.2118   21.0928 N   0  3  0  0  0  0  0  0  0  0  0  0
  -31.7966  -11.8663   17.9672 O   0  0  0  0  0  0  0  0  0  0  0  0
  -22.6973  -29.6834   23.9057 O   0  0  0  0  0  0  0  0  0  0  0  0
  -22.8559  -26.2313   22.9498 O   0  0  0  0  0  0  0  0  0  0  0  0
  -26.8716  -24.4558   22.2210 O   0  0  0  0  0  0  0  0  0  0  0  0
  -29.8367  -20.2517   22.7017 O   0  0  0  0  0  0  0  0  0  0  0  0
  -24.3573   -9.8740   19.0957 O   0  0  0  0  0  0  0  0  0  0  0  0
  -29.0761  -29.2582   19.2798 O   0  0  0  0  0  0  0  0  0  1  0  0
  -21.4320   -8.4151   23.5362 F   0  0  0  0  0  0  0  0  0  0  0  0
  -23.2062  -11.7864   20.7269 F   0  0  0  0  0  0  0  0  0  0  0  0
  1  2  1  0  0  0  0
  1  5  2  0  0  0  0
  2  6  2  0  0  0  0
  3  8  2  0  0  0  0
  3 17  1  0  0  0  0
  4  9  1  0  0  0  0
  4 17  2  0  0  0  0
  5 20  1  0  0  0  0
  6 22  1  0  0  0  0
  7 10  2  0  0  0  0
  7 21  1  0  0  0  0
  8 27  1  0  0  0  0
  9 27  2  0  0  0  0
 10 28  1  0  0  0  0
 11 12  2  0  0  0  0
 11 29  1  0  0  0  0
 12 30  1  0  0  0  0
 13 18  1  0  0  0  0
 13 25  2  0  0  0  0
 14 18  2  0  0  0  0
 14 26  1  0  0  0  0
 15 23  1  0  0  0  0
 15 28  2  0  0  0  0
 16 30  2  0  0  0  0
 16 31  1  0  0  0  0
 17 32  1  0  0  0  0
 18 34  1  0  0  0  0
 19 32  1  0  0  0  0
 19 33  2  0  0  0  0
 19 38  1  0  0  0  0
 20 22  2  0  0  0  0
 20 43  1  0  0  0  0
 21 23  2  0  0  0  0
 21 44  1  0  0  0  0
 22 52  1  0  0  0  0
 23 45  1  0  0  0  0
 24 25  1  0  0  0  0
 24 26  2  0  0  0  0
 24 55  1  0  0  0  0
 25 69  1  0  0  0  0
 26 72  1  0  0  0  0
 27 81  1  0  0  0  0
 28 82  1  0  0  0  0
 29 31  2  0  0  0  0
 29 81  1  0  0  0  0
 30 83  1  0  0  0  0
 31 84  1  0  0  0  0
 32 65  2  0  0  0  0
 33 66  1  0  0  0  0
 33 70  1  0  0  0  0
 34 35  2  0  0  0  0
 35 61  1  0  0  0  0
 36 37  2  0  0  0  0
 36 61  1  0  0  0  0
 37 82  1  0  0  0  0
 38 71  1  0  0  0  0
 38 76  2  0  0  0  0
 39 53  1  0  0  0  0
 39 73  1  0  0  0  0
 39 77  2  0  0  0  0
 40 62  1  0  0  0  0
 40 67  1  0  0  0  0
 40 78  2  0  0  0  0
 41 63  1  0  0  0  0
 41 74  1  0  0  0  0
 41 79  2  0  0  0  0
 42 68  1  0  0  0  0
 42 72  1  0  0  0  0
 42 80  2  0  0  0  0
 43 46  1  0  0  0  0
 44 53  1  0  0  0  0
 45 67  1  0  0  0  0
 46 48  1  0  0  0  0
 47 49  1  0  0  0  0
 47 50  1  0  0  0  0
 48 52  1  0  0  0  0
 49 54  1  0  0  0  0
 50 68  1  0  0  0  0
 51 54  1  0  0  0  0
 51 68  1  0  0  0  0
 52 73  1  0  0  0  0
 53 67  1  0  0  0  0
 54 66  1  0  0  0  0
 56 63  1  0  0  0  0
 57 64  1  0  0  0  0
 58 64  1  0  0  0  0
 59 64  1  0  0  0  0
 60 75  1  0  0  0  0
 62 64  1  0  0  0  0
 62 74  1  0  0  0  0
 63 75  1  0  0  0  0
 65 66  1  0  0  0  0
M  CHG  1  75   1
M  ISO  4  37 101  42 100  72 100  82 101
M  END
> <Batch ID>
0115

> <Smiles>
CNC(C)C(=O)NC(C(=O)N1Cc2cc([101O:1][101CH:1]=CCC=Cc3cc(N)c(C)c([100NH:0][100C:0](=O)N4CCCC(n5nc(-c6ccc(Oc7ccc(F)cc7F)cc6)c(C(N)=O)c5N)C4)c3)ccc2CC1C(=O)NC1CCCc2ccccc21)C(C)(C)C

> <Shape>
0.282

> <Color>
0.070

> <Negative vol penalty>
0.000

$$$$

  -OEChem-04052301403D

 82 90  0     1  0  0  0  0  0999 V2000
  -24.3546  -21.3181   18.5020 C   0  0  0  0  0  0  0  0  0  0  0  0
  -25.4885  -21.3797   19.3056 C   0  0  0  0  0  0  0  0  0  0  0  0
  -23.0748   -9.7791   20.0677 C   0  0  0  0  0  0  0  0  0  0  0  0
  -23.7153  -10.0401   22.3825 C   0  0  0  0  0  0  0  0  0  0  0  0
  -23.9567  -22.4379   17.7728 C   0  0  0  0  0  0  0  0  0  0  0  0
  -26.2259  -22.5610   19.3797 C   0  0  0  0  0  0  0  0  0  0  0  0
  -27.5181  -23.7500   24.1295 C   0  0  0  0  0  0  0  0  0  0  0  0
  -32.4042  -17.8504   23.2117 C   0  0  0  0  0  0  0  0  0  0  0  0
  -31.8539  -16.8755   22.3797 C   0  0  0  0  0  0  0  0  0  0  0  0
  -22.3299   -8.6480   20.4013 C   0  0  0  0  0  0  0  0  0  0  0  0
  -22.9705   -8.9090   22.7162 C   0  0  0  0  0  0  0  0  0  0  0  0
  -28.5884  -23.0551   24.6911 C   0  0  0  0  0  0  0  0  0  0  0  0
  -23.3211   -5.5513   22.5310 C   0  0  0  0  0  0  0  0  0  0  0  0
  -23.9084   -4.6171   23.3841 C   0  0  0  0  0  0  0  0  0  0  0  0
  -30.0401  -24.9236   24.2213 C   0  0  0  0  0  0  0  0  0  0  0  0
  -30.1983  -18.7475   23.6195 C   0  0  0  0  0  0  0  0  0  0  0  0
  -22.1197   -4.9450   24.9747 C   0  0  0  0  0  0  0  0  0  0  0  0
  -23.7675  -10.4752   21.0583 C   0  0  0  0  0  0  0  0  0  0  0  0
  -24.0912  -12.9783   20.6875 C   0  0  0  0  0  0  0  0  0  0  0  0
  -24.6840  -23.6364   17.8455 C   0  0  0  0  0  0  0  0  0  0  0  0
  -27.7034  -25.0347   23.5989 C   0  0  0  0  0  0  0  0  0  0  0  0
  -25.8381  -23.6974   18.6497 C   0  0  0  0  0  0  0  0  0  0  0  0
  -28.9699  -25.6336   23.6558 C   0  0  0  0  0  0  0  0  0  0  0  0
  -29.6480  -17.7727   22.7873 C   0  0  0  0  0  0  0  0  0  0  0  0
  -31.5764  -18.7864   23.8317 C   0  0  0  0  0  0  0  0  0  0  0  0
  -30.4759  -16.8366   22.1674 C   0  0  0  0  0  0  0  0  0  0  0  0
  -22.2777   -8.2129   21.7255 C   0  0  0  0  0  0  0  0  0  0  0  0
  -29.8502  -23.6408   24.7345 C   0  0  0  0  0  0  0  0  0  0  0  0
  -22.1331   -6.1826   22.8998 C   0  0  0  0  0  0  0  0  0  0  0  0
  -23.3077   -4.3139   24.6059 C   0  0  0  0  0  0  0  0  0  0  0  0
  -21.5324   -5.8794   24.1217 C   0  0  0  0  0  0  0  0  0  0  0  0
  -24.5376  -11.6434   20.7142 C   0  0  0  0  0  0  0  0  0  0  0  0
  -25.1935  -13.7012   20.3018 C   0  0  0  0  0  0  0  0  0  0  0  0
  -32.4731  -20.8730   24.0908 C   0  0  0  0  0  0  0  0  0  0  0  0
  -22.7960  -13.5166   20.9847 C   0  0  0  0  0  0  0  0  0  0  0  0
  -27.3913  -26.3374   20.7163 C   0  0  0  0  0  0  0  0  0  0  0  0
  -28.0138  -29.0875   22.3199 C   0  0  0  0  0  0  0  0  0  0  0  0
  -29.4069  -30.6019   25.0425 C   0  0  0  0  0  0  0  0  0  0  0  0
  -30.6333  -14.8406   20.6386 C   0  0  0  0  0  0  0  0  0  0  0  0
  -24.2420  -24.8061   17.0023 C   0  0  0  0  0  0  0  0  0  0  0  0
  -26.5329  -25.7816   23.0207 C   0  0  0  0  0  0  0  0  0  0  0  0
  -29.2171  -27.0187   23.1182 C   0  0  0  0  0  0  0  0  0  0  0  0
  -24.8650  -26.1333   17.4272 C   0  0  0  0  0  0  0  0  0  0  0  0
  -29.6653  -12.1734   18.4878 C   0  0  0  0  0  0  0  0  0  0  0  0
  -26.3652  -25.9713   17.6512 C   0  0  0  0  0  0  0  0  0  0  0  0
  -28.2082  -11.9075   18.8731 C   0  0  0  0  0  0  0  0  0  0  0  0
  -30.5151  -12.5416   19.7027 C   0  0  0  0  0  0  0  0  0  0  0  0
  -28.5327  -13.3798   20.9014 C   0  0  0  0  0  0  0  0  0  0  0  0
  -26.6500  -24.9682   18.7755 C   0  0  1  0  0  0  0  0  0  0  0  0
  -26.9472  -26.8793   22.0455 C   0  0  1  0  0  0  0  0  0  0  0  0
  -27.6235  -13.0684   19.7013 C   0  0  2  0  0  0  0  0  0  0  0  0
  -28.1683  -17.7540   22.5789 C   0  0  0  0  0  0  0  0  0  0  0  0
  -29.7902  -32.8650   26.0568 C   0  0  0  0  0  0  0  0  0  0  0  0
  -30.2470  -29.6087   20.3072 C   0  0  0  0  0  0  0  0  0  0  0  0
  -31.1743  -31.3182   21.8839 C   0  0  0  0  0  0  0  0  0  0  0  0
  -28.8971  -31.6249   20.9129 C   0  0  0  0  0  0  0  0  0  0  0  0
  -27.8398  -29.9135   27.4569 C   0  0  0  0  0  0  0  0  0  0  0  0
  -33.0649  -22.0042   24.8882 C   0  0  0  0  0  0  0  0  0  0  0  0
  -32.1948  -23.2430   24.7581 C   0  0  0  0  0  0  0  0  0  1  0  0
  -29.2624  -29.8553   22.6812 C   0  0  1  0  0  0  0  0  0  0  0  0
  -28.8697  -31.6561   25.9937 C   0  0  2  0  0  0  0  0  0  0  0  0
  -29.8913  -30.5749   21.4548 C   0  0  0  0  0  0  0  0  0  0  0  0
  -25.8232  -11.5226   20.3726 N   0  0  0  0  0  0  0  0  0  0  0  0
  -32.1309  -19.7685   24.6695 N   0  0  0  0  0  0  0  0  0  0  0  0
  -26.1941  -12.7909   20.1274 N   0  0  0  0  0  0  0  0  0  0  0  0
  -28.0422  -27.7060   22.5571 N   0  0  0  0  0  0  0  0  0  0  0  0
  -29.9019  -13.6511   20.4361 N   0  0  0  0  0  0  0  0  0  0  0  0
  -25.3948  -15.0205   20.0981 N   0  0  0  0  0  0  0  0  0  0  0  0
  -21.7767  -12.6333   21.3656 N   0  0  0  0  0  0  0  0  0  0  0  0
  -29.9359  -15.8373   21.3203 N   0  0  0  0  0  0  0  0  0  0  0  0
  -26.4327  -25.5824   20.0678 N   0  0  0  0  0  0  0  0  0  0  0  0
  -28.8905  -30.7492   23.7725 N   0  0  0  0  0  0  0  0  0  0  0  0
  -28.7365  -31.0945   27.3676 N   0  3  0  0  0  0  0  0  0  0  0  0
  -22.5455  -14.7427   20.8988 O   0  0  0  0  0  0  0  0  0  0  0  0
  -28.5196  -26.5871   20.3085 O   0  0  0  0  0  0  0  0  0  0  0  0
  -27.0462  -29.6925   21.8515 O   0  0  0  0  0  0  0  0  0  0  0  0
  -30.2076  -29.7368   25.3905 O   0  0  0  0  0  0  0  0  0  0  0  0
  -31.7834  -14.9756   20.2130 O   0  0  0  0  0  0  0  0  0  0  0  0
  -21.5508   -7.1093   22.0515 O   0  0  0  0  0  0  0  0  0  0  0  0
  -30.8968  -22.9645   25.2815 O   0  0  0  0  0  0  0  0  0  1  0  0
  -23.8710   -3.4155   25.4243 F   0  0  0  0  0  0  0  0  0  0  0  0
  -20.3905   -6.4816   24.4809 F   0  0  0  0  0  0  0  0  0  0  0  0
  1  2  1  0  0  0  0
  1  5  2  0  0  0  0
  2  6  2  0  0  0  0
  3 10  2  0  0  0  0
  3 18  1  0  0  0  0
  4 11  1  0  0  0  0
  4 18  2  0  0  0  0
  5 20  1  0  0  0  0
  6 22  1  0  0  0  0
  7 12  2  0  0  0  0
  7 21  1  0  0  0  0
  8  9  2  0  0  0  0
  8 25  1  0  0  0  0
  9 26  1  0  0  0  0
 10 27  1  0  0  0  0
 11 27  2  0  0  0  0
 12 28  1  0  0  0  0
 13 14  2  0  0  0  0
 13 29  1  0  0  0  0
 14 30  1  0  0  0  0
 15 23  1  0  0  0  0
 15 28  2  0  0  0  0
 16 24  1  0  0  0  0
 16 25  2  0  0  0  0
 17 30  2  0  0  0  0
 17 31  1  0  0  0  0
 18 32  1  0  0  0  0
 19 32  1  0  0  0  0
 19 33  2  0  0  0  0
 19 35  1  0  0  0  0
 20 22  2  0  0  0  0
 20 40  1  0  0  0  0
 21 23  2  0  0  0  0
 21 41  1  0  0  0  0
 22 49  1  0  0  0  0
 23 42  1  0  0  0  0
 24 26  2  0  0  0  0
 24 52  1  0  0  0  0
 25 64  1  0  0  0  0
 26 70  1  0  0  0  0
 27 79  1  0  0  0  0
 28 80  1  0  0  0  0
 29 31  2  0  0  0  0
 29 79  1  0  0  0  0
 30 81  1  0  0  0  0
 31 82  1  0  0  0  0
 32 63  2  0  0  0  0
 33 65  1  0  0  0  0
 33 68  1  0  0  0  0
 34 58  1  0  0  0  0
 34 64  2  0  0  0  0
 35 69  1  0  0  0  0
 35 74  2  0  0  0  0
 36 50  1  0  0  0  0
 36 71  1  0  0  0  0
 36 75  2  0  0  0  0
 37 60  1  0  0  0  0
 37 66  1  0  0  0  0
 37 76  2  0  0  0  0
 38 61  1  0  0  0  0
 38 72  1  0  0  0  0
 38 77  2  0  0  0  0
 39 67  1  0  0  0  0
 39 70  1  0  0  0  0
 39 78  2  0  0  0  0
 40 43  1  0  0  0  0
 41 50  1  0  0  0  0
 42 66  1  0  0  0  0
 43 45  1  0  0  0  0
 44 46  1  0  0  0  0
 44 47  1  0  0  0  0
 45 49  1  0  0  0  0
 46 51  1  0  0  0  0
 47 67  1  0  0  0  0
 48 51  1  0  0  0  0
 48 67  1  0  0  0  0
 49 71  1  0  0  0  0
 50 66  1  0  0  0  0
 51 65  1  0  0  0  0
 53 61  1  0  0  0  0
 54 62  1  0  0  0  0
 55 62  1  0  0  0  0
 56 62  1  0  0  0  0
 57 73  1  0  0  0  0
 58 59  1  0  0  0  0
 59 80  1  0  0  0  0
 60 62  1  0  0  0  0
 60 72  1  0  0  0  0
 61 73  1  0  0  0  0
 63 65  1  0  0  0  0
M  CHG  1  73   1
M  ISO  4  39 100  59 101  70 100  80 101
M  END
> <Batch ID>
0115

> <Smiles>
CNC(C)C(=O)NC(C(=O)N1Cc2cc([101O:1][101CH2:1]C=CNc3ccc([100NH:0][100C:0](=O)N4CCCC(n5nc(-c6ccc(Oc7ccc(F)cc7F)cc6)c(C(N)=O)c5N)C4)c(C)c3)ccc2CC1C(=O)NC1CCCc2ccccc21)C(C)(C)C

> <Shape>
0.222

> <Color>
0.216

> <Negative vol penalty>
0.000

$$$$

  -OEChem-04052301403D

 82 90  0     1  0  0  0  0  0999 V2000
  -18.0338  -32.8653   23.6521 C   0  0  0  0  0  0  0  0  0  0  0  0
  -19.1775  -32.9949   22.8707 C   0  0  0  0  0  0  0  0  0  0  0  0
  -22.5660  -10.5927   20.8945 C   0  0  0  0  0  0  0  0  0  0  0  0
  -23.7741   -9.8872   22.8643 C   0  0  0  0  0  0  0  0  0  0  0  0
  -17.9330  -31.8210   24.5704 C   0  0  0  0  0  0  0  0  0  0  0  0
  -20.2216  -32.0809   23.0081 C   0  0  0  0  0  0  0  0  0  0  0  0
  -25.3382  -28.8347   19.1872 C   0  0  0  0  0  0  0  0  0  0  0  0
  -22.2264   -9.2664   20.6278 C   0  0  0  0  0  0  0  0  0  0  0  0
  -23.4344   -8.5609   22.5976 C   0  0  0  0  0  0  0  0  0  0  0  0
  -26.7141  -28.6098   19.2014 C   0  0  0  0  0  0  0  0  0  0  0  0
  -22.5829   -5.0265   22.6348 C   0  0  0  0  0  0  0  0  0  0  0  0
  -22.1369   -4.2438   23.6997 C   0  0  0  0  0  0  0  0  0  0  0  0
  -29.8345  -20.9536   18.9427 C   0  0  0  0  0  0  0  0  0  0  0  0
  -30.6127  -22.1432   18.8454 C   0  0  0  0  0  0  0  0  0  0  0  0
  -26.3960  -26.7996   20.7639 C   0  0  0  0  0  0  0  0  0  0  0  0
  -20.2962   -5.7689   24.0499 C   0  0  0  0  0  0  0  0  0  0  0  0
  -23.3400  -10.9031   22.0128 C   0  0  0  0  0  0  0  0  0  0  0  0
  -22.9665  -13.1970   23.0644 C   0  0  0  0  0  0  0  0  0  0  0  0
  -18.9723  -30.8881   24.7122 C   0  0  0  0  0  0  0  0  0  0  0  0
  -24.4805  -28.0494   19.9709 C   0  0  0  0  0  0  0  0  0  0  0  0
  -20.1352  -31.0240   23.9301 C   0  0  0  0  0  0  0  0  0  0  0  0
  -25.0094  -27.0149   20.7559 C   0  0  0  0  0  0  0  0  0  0  0  0
  -22.6606   -8.2505   21.4793 C   0  0  0  0  0  0  0  0  0  0  0  0
  -27.2435  -27.5940   19.9920 C   0  0  0  0  0  0  0  0  0  0  0  0
  -21.8855   -6.1805   22.2775 C   0  0  0  0  0  0  0  0  0  0  0  0
  -20.9936   -4.6150   24.4072 C   0  0  0  0  0  0  0  0  0  0  0  0
  -20.7422   -6.5517   22.9850 C   0  0  0  0  0  0  0  0  0  0  0  0
  -23.6916  -12.2729   22.2885 C   0  0  0  0  0  0  0  0  0  0  0  0
  -28.6824  -21.1472   19.6727 C   0  0  0  0  0  0  0  0  0  0  0  0
  -30.0256  -23.2008   19.5047 C   0  0  0  0  0  0  0  0  0  0  0  0
  -23.7159  -14.3472   23.0178 C   0  0  0  0  0  0  0  0  0  0  0  0
  -27.6705  -20.2143   19.9845 C   0  0  0  0  0  0  0  0  0  0  0  0
  -27.6355  -18.8846   19.6336 C   0  0  0  0  0  0  0  0  0  0  0  0
  -30.1076  -25.3397   18.7029 C   0  0  0  0  0  0  0  0  0  0  0  0
  -21.7266  -13.0307   23.7648 C   0  0  0  0  0  0  0  0  0  0  0  0
  -26.5044  -18.0298   20.0467 C   0  0  0  0  0  0  0  0  0  0  0  0
  -22.4730  -28.6275   22.3667 C   0  0  0  0  0  0  0  0  0  0  0  0
  -21.7155  -25.4982   21.9717 C   0  0  0  0  0  0  0  0  0  0  0  0
  -22.6519  -22.4075   20.8682 C   0  0  0  0  0  0  0  0  0  0  0  0
  -18.8377  -29.8037   25.7517 C   0  0  0  0  0  0  0  0  0  0  0  0
  -22.9961  -28.2874   19.9240 C   0  0  0  0  0  0  0  0  0  0  0  0
  -24.1294  -26.1306   21.5998 C   0  0  0  0  0  0  0  0  0  0  0  0
  -19.8311  -28.6590   25.5700 C   0  0  0  0  0  0  0  0  0  0  0  0
  -28.4006  -15.1748   21.3449 C   0  0  0  0  0  0  0  0  0  0  0  0
  -21.2334  -29.2041   25.3185 C   0  0  0  0  0  0  0  0  0  0  0  0
  -27.2714  -14.2211   21.7257 C   0  0  0  0  0  0  0  0  0  0  0  0
  -28.0562  -16.0039   20.1085 C   0  0  0  0  0  0  0  0  0  0  0  0
  -25.6387  -15.7923   20.6097 C   0  0  0  0  0  0  0  0  0  0  0  0
  -21.2787  -30.0381   24.0324 C   0  0  1  0  0  0  0  0  0  0  0  0
  -22.2673  -27.7610   21.1565 C   0  0  1  0  0  0  0  0  0  0  0  0
  -25.9448  -14.9818   21.8789 C   0  0  1  0  0  0  0  0  0  0  0  0
  -31.3453  -27.0753   17.4687 C   0  0  0  0  0  0  0  0  0  0  0  0
  -21.8356  -20.0394   20.7159 C   0  0  0  0  0  0  0  0  0  0  0  0
  -22.2749  -25.1165   24.9468 C   0  0  0  0  0  0  0  0  0  0  0  0
  -22.3772  -22.6483   24.5398 C   0  0  0  0  0  0  0  0  0  0  0  0
  -20.2631  -23.8968   24.0988 C   0  0  0  0  0  0  0  0  0  0  0  0
  -22.7993  -22.4244   17.9124 C   0  0  0  0  0  0  0  0  0  0  0  0
  -29.3099  -27.6835   18.8184 C   0  0  0  0  0  0  0  0  0  1  0  0
  -30.5430  -26.7878   18.7317 C   0  0  1  0  0  0  0  0  0  0  0  0
  -22.2277  -24.1948   22.5356 C   0  0  1  0  0  0  0  0  0  0  0  0
  -21.9313  -21.3832   20.0103 C   0  0  2  0  0  0  0  0  0  0  0  0
  -21.8028  -23.9818   24.0159 C   0  0  0  0  0  0  0  0  0  0  0  0
  -24.8152  -12.7912   21.7857 N   0  0  0  0  0  0  0  0  0  0  0  0
  -30.4906  -24.5207   19.6277 N   0  0  0  0  0  0  0  0  0  0  0  0
  -24.8018  -14.0536   22.2465 N   0  0  0  0  0  0  0  0  0  0  0  0
  -26.7559  -16.6749   20.2555 N   0  0  0  0  0  0  0  0  0  0  0  0
  -22.6853  -26.4068   21.5248 N   0  0  0  0  0  0  0  0  0  0  0  0
  -23.5452  -15.5709   23.5616 N   0  0  0  0  0  0  0  0  0  0  0  0
  -21.0893  -11.7837   23.7081 N   0  0  0  0  0  0  0  0  0  0  0  0
  -21.3089  -29.1750   22.8711 N   0  0  0  0  0  0  0  0  0  0  0  0
  -21.7709  -23.1492   21.6264 N   0  0  0  0  0  0  0  0  0  0  0  0
  -22.6533  -21.1870   18.7215 N   0  3  0  0  0  0  0  0  0  0  0  0
  -21.1911  -13.9651   24.4079 O   0  0  0  0  0  0  0  0  0  0  0  0
  -25.4033  -18.5675   20.1771 O   0  0  0  0  0  0  0  0  0  0  0  0
  -23.6040  -28.7863   22.8108 O   0  0  0  0  0  0  0  0  0  0  0  0
  -20.4995  -25.6996   21.9228 O   0  0  0  0  0  0  0  0  0  0  0  0
  -23.8744  -22.5343   20.8687 O   0  0  0  0  0  0  0  0  0  0  0  0
  -22.3291   -6.9562   21.2195 O   0  0  0  0  0  0  0  0  0  0  0  0
  -28.5861  -27.3727   20.0082 O   0  0  0  0  0  0  0  0  0  1  0  0
  -20.5645   -3.8623   25.4288 F   0  0  0  0  0  0  0  0  0  0  0  0
  -20.0674   -7.6586   22.6456 F   0  0  0  0  0  0  0  0  0  0  0  0
  -28.5425  -22.7578   20.2371 S   0  0  0  0  0  0  0  0  0  0  0  0
  1  2  1  0  0  0  0
  1  5  2  0  0  0  0
  2  6  2  0  0  0  0
  3  8  2  0  0  0  0
  3 17  1  0  0  0  0
  4  9  1  0  0  0  0
  4 17  2  0  0  0  0
  5 19  1  0  0  0  0
  6 21  1  0  0  0  0
  7 10  2  0  0  0  0
  7 20  1  0  0  0  0
  8 23  1  0  0  0  0
  9 23  2  0  0  0  0
 10 24  1  0  0  0  0
 11 12  2  0  0  0  0
 11 25  1  0  0  0  0
 12 26  1  0  0  0  0
 13 14  1  0  0  0  0
 13 29  2  0  0  0  0
 14 30  2  0  0  0  0
 15 22  1  0  0  0  0
 15 24  2  0  0  0  0
 16 26  2  0  0  0  0
 16 27  1  0  0  0  0
 17 28  1  0  0  0  0
 18 28  1  0  0  0  0
 18 31  2  0  0  0  0
 18 35  1  0  0  0  0
 19 21  2  0  0  0  0
 19 40  1  0  0  0  0
 20 22  2  0  0  0  0
 20 41  1  0  0  0  0
 21 49  1  0  0  0  0
 22 42  1  0  0  0  0
 23 78  1  0  0  0  0
 24 79  1  0  0  0  0
 25 27  2  0  0  0  0
 25 78  1  0  0  0  0
 26 80  1  0  0  0  0
 27 81  1  0  0  0  0
 28 63  2  0  0  0  0
 29 32  1  0  0  0  0
 29 82  1  0  0  0  0
 30 64  1  0  0  0  0
 30 82  1  0  0  0  0
 31 65  1  0  0  0  0
 31 68  1  0  0  0  0
 32 33  2  0  0  0  0
 33 36  1  0  0  0  0
 34 59  1  0  0  0  0
 34 64  2  0  0  0  0
 35 69  1  0  0  0  0
 35 73  2  0  0  0  0
 36 66  1  0  0  0  0
 36 74  2  0  0  0  0
 37 50  1  0  0  0  0
 37 70  1  0  0  0  0
 37 75  2  0  0  0  0
 38 60  1  0  0  0  0
 38 67  1  0  0  0  0
 38 76  2  0  0  0  0
 39 61  1  0  0  0  0
 39 71  1  0  0  0  0
 39 77  2  0  0  0  0
 40 43  1  0  0  0  0
 41 50  1  0  0  0  0
 42 67  1  0  0  0  0
 43 45  1  0  0  0  0
 44 46  1  0  0  0  0
 44 47  1  0  0  0  0
 45 49  1  0  0  0  0
 46 51  1  0  0  0  0
 47 66  1  0  0  0  0
 48 51  1  0  0  0  0
 48 66  1  0  0  0  0
 49 70  1  0  0  0  0
 50 67  1  0  0  0  0
 51 65  1  0  0  0  0
 52 59  1  0  0  0  0
 53 61  1  0  0  0  0
 54 62  1  0  0  0  0
 55 62  1  0  0  0  0
 56 62  1  0  0  0  0
 57 72  1  0  0  0  0
 58 59  1  0  0  0  0
 58 79  1  0  0  0  0
 60 62  1  0  0  0  0
 60 71  1  0  0  0  0
 61 72  1  0  0  0  0
 63 65  1  0  0  0  0
M  CHG  1  72   1
M  ISO  4  33 100  36 100  58 101  79 101
M  END
> <Batch ID>
0115

> <Smiles>
CNC(C)C(=O)NC(C(=O)N1Cc2cc([101O:1][101CH2:1]C(C)=CNc3ccc(C=[100CH:0][100C:0](=O)N4CCCC(n5nc(-c6ccc(Oc7ccc(F)cc7F)cc6)c(C(N)=O)c5N)C4)s3)ccc2CC1C(=O)NC1CCCc2ccccc21)C(C)(C)C

> <Shape>
0.246

> <Color>
0.112

> <Negative vol penalty>
0.000

$$$$

  -OEChem-04052301403D

 89 98  0     1  0  0  0  0  0999 V2000
  -28.0292  -15.8595   13.5802 C   0  0  0  0  0  0  0  0  0  0  0  0
  -28.5630  -15.4696   14.8043 C   0  0  0  0  0  0  0  0  0  0  0  0
  -25.7723  -27.4218   19.3754 C   0  0  0  0  0  0  0  0  0  0  0  0
  -25.6467  -26.1839   21.4464 C   0  0  0  0  0  0  0  0  0  0  0  0
  -26.7883  -16.4933   13.5322 C   0  0  0  0  0  0  0  0  0  0  0  0
  -27.8566  -15.7143   15.9814 C   0  0  0  0  0  0  0  0  0  0  0  0
  -27.8295  -11.7219   19.0966 C   0  0  0  0  0  0  0  0  0  0  0  0
  -24.6413  -28.1509   19.7426 C   0  0  0  0  0  0  0  0  0  0  0  0
  -24.5157  -26.9130   21.8136 C   0  0  0  0  0  0  0  0  0  0  0  0
  -28.9827  -11.4906   19.8453 C   0  0  0  0  0  0  0  0  0  0  0  0
  -21.2122  -26.9171   21.0940 C   0  0  0  0  0  0  0  0  0  0  0  0
  -20.1315  -26.2131   21.6251 C   0  0  0  0  0  0  0  0  0  0  0  0
  -31.5481  -17.7145   22.7234 C   0  0  0  0  0  0  0  0  0  0  0  0
  -27.9399  -12.5240   21.7594 C   0  0  0  0  0  0  0  0  0  0  0  0
  -30.7384  -17.2169   20.1006 C   0  0  0  0  0  0  0  0  0  0  0  0
  -20.3007  -27.4937   23.6669 C   0  0  0  0  0  0  0  0  0  0  0  0
  -26.2750  -26.4382   20.2273 C   0  0  0  0  0  0  0  0  0  0  0  0
  -30.8310  -18.6819   22.0196 C   0  0  0  0  0  0  0  0  0  0  0  0
  -28.7865  -26.0040   20.1211 C   0  0  0  0  0  0  0  0  0  0  0  0
  -26.0619  -16.7373   14.7085 C   0  0  0  0  0  0  0  0  0  0  0  0
  -26.7250  -12.3668   19.6716 C   0  0  0  0  0  0  0  0  0  0  0  0
  -26.6054  -16.3532   15.9493 C   0  0  0  0  0  0  0  0  0  0  0  0
  -26.7730  -12.7599   21.0167 C   0  0  0  0  0  0  0  0  0  0  0  0
  -30.4261  -18.4331   20.7082 C   0  0  0  0  0  0  0  0  0  0  0  0
  -31.4556  -16.2495   20.8045 C   0  0  0  0  0  0  0  0  0  0  0  0
  -24.0130  -27.8965   20.9617 C   0  0  0  0  0  0  0  0  0  0  0  0
  -29.0391  -11.8942   21.1760 C   0  0  0  0  0  0  0  0  0  0  0  0
  -21.8372  -27.9094   21.8494 C   0  0  0  0  0  0  0  0  0  0  0  0
  -31.8605  -16.4983   22.1159 C   0  0  0  0  0  0  0  0  0  0  0  0
  -19.6757  -26.5014   22.9115 C   0  0  0  0  0  0  0  0  0  0  0  0
  -21.3814  -28.1977   23.1358 C   0  0  0  0  0  0  0  0  0  0  0  0
  -27.4429  -25.6843   19.8483 C   0  0  0  0  0  0  0  0  0  0  0  0
  -29.5050  -24.9801   19.5537 C   0  0  0  0  0  0  0  0  0  0  0  0
  -30.8930  -21.1846   22.3099 C   0  0  0  0  0  0  0  0  0  0  0  0
  -30.5199  -19.9542   22.6949 C   0  0  0  0  0  0  0  0  0  0  0  0
  -29.3359  -27.1260   20.8246 C   0  0  0  0  0  0  0  0  0  0  0  0
  -25.1605  -15.0741   19.1003 C   0  0  0  0  0  0  0  0  0  0  0  0
  -31.9510  -12.6908   23.1878 C   0  0  0  0  0  0  0  0  0  0  0  0
  -23.1532  -13.9398   21.3821 C   0  0  0  0  0  0  0  0  0  0  0  0
  -22.6948  -11.9159   24.0914 C   0  0  0  0  0  0  0  0  0  0  0  0
  -29.2318  -19.2806   18.6584 C   0  0  0  0  0  0  0  0  0  0  0  0
  -24.7461  -17.4679   14.6108 C   0  0  0  0  0  0  0  0  0  0  0  0
  -25.4787  -12.5849   18.8583 C   0  0  0  0  0  0  0  0  0  0  0  0
  -25.6069  -13.4380   21.6868 C   0  0  0  0  0  0  0  0  0  0  0  0
  -30.4273  -22.2416   23.2556 C   0  0  0  0  0  0  0  0  0  0  0  0
  -29.7484  -20.0192   23.9826 C   0  0  0  0  0  0  0  0  0  0  0  0
  -23.8912  -17.3539   15.8702 C   0  0  0  0  0  0  0  0  0  0  0  0
  -29.4004  -21.5019   24.1046 C   0  0  0  0  0  0  0  0  0  0  0  0
  -28.5966  -21.6127   16.0439 C   0  0  0  0  0  0  0  0  0  0  0  0
  -24.7351  -17.6148   17.1138 C   0  0  0  0  0  0  0  0  0  0  0  0
  -28.3656  -22.9324   16.7835 C   0  0  0  0  0  0  0  0  0  0  0  0
  -28.0228  -20.4237   16.8126 C   0  0  0  0  0  0  0  0  0  0  0  0
  -28.2352  -21.6341   18.9479 C   0  0  0  0  0  0  0  0  0  0  0  0
  -25.8581  -16.5790   17.2457 C   0  0  1  0  0  0  0  0  0  0  0  0
  -24.6025  -13.7112   19.3979 C   0  0  1  0  0  0  0  0  0  0  0  0
  -28.8530  -22.8531   18.2435 C   0  0  2  0  0  0  0  0  0  0  0  0
  -20.9562  -11.2294   25.7657 C   0  0  0  0  0  0  0  0  0  0  0  0
  -23.5156  -16.5939   22.8431 C   0  0  0  0  0  0  0  0  0  0  0  0
  -22.5666  -15.5151   24.8934 C   0  0  0  0  0  0  0  0  0  0  0  0
  -21.1727  -15.7191   22.8347 C   0  0  0  0  0  0  0  0  0  0  0  0
  -22.8199   -9.0860   23.2342 C   0  0  0  0  0  0  0  0  0  0  0  0
  -32.3856  -13.6457   24.2898 C   0  0  0  0  0  0  0  0  0  0  0  0
  -30.4561  -12.6007   22.9506 C   0  0  0  0  0  0  0  0  0  1  0  0
  -31.9726  -15.0866   24.0264 C   0  0  0  0  0  0  0  0  0  0  0  0
  -23.0717  -14.0508   22.8854 C   0  0  1  0  0  0  0  0  0  0  0  0
  -21.6053  -10.9136   24.4271 C   0  0  2  0  0  0  0  0  0  0  0  0
  -22.6045  -15.4587   23.3512 C   0  0  0  0  0  0  0  0  0  0  0  0
  -27.3129  -24.5465   19.1609 N   0  0  0  0  0  0  0  0  0  0  0  0
  -28.5840  -24.1423   18.9969 N   0  0  0  0  0  0  0  0  0  0  0  0
  -24.4131  -13.6346   20.8479 N   0  0  0  0  0  0  0  0  0  0  0  0
  -28.5319  -20.4110   18.1858 N   0  0  0  0  0  0  0  0  0  0  0  0
  -31.7650  -15.0229   20.1774 N   0  0  0  0  0  0  0  0  0  0  0  0
  -30.8285  -24.7238   19.4816 N   0  0  0  0  0  0  0  0  0  0  0  0
  -28.4558  -28.0853   21.3437 N   0  0  0  0  0  0  0  0  0  0  0  0
  -29.6965  -19.3962   19.9681 N   0  0  0  0  0  0  0  0  0  0  0  0
  -25.3354  -15.3286   17.7534 N   0  0  0  0  0  0  0  0  0  0  0  0
  -22.2122  -12.9588   23.3294 N   0  0  0  0  0  0  0  0  0  0  0  0
  -22.1706   -9.5363   24.4922 N   0  3  0  0  0  0  0  0  0  0  0  0
  -30.5716  -27.2820   20.9738 O   0  0  0  0  0  0  0  0  0  0  0  0
  -25.4123  -15.8389   20.0241 O   0  0  0  0  0  0  0  0  0  0  0  0
  -32.7521  -12.0329   22.5258 O   0  0  0  0  0  0  0  0  0  0  0  0
  -22.1350  -14.1104   20.7070 O   0  0  0  0  0  0  0  0  0  0  0  0
  -23.8569  -11.7885   24.4706 O   0  0  0  0  0  0  0  0  0  0  0  0
  -29.4296  -18.2944   17.9441 O   0  0  0  0  0  0  0  0  0  0  0  0
  -22.9095  -28.6080   21.3204 O   0  0  0  0  0  0  0  0  0  0  0  0
  -30.1637  -11.6703   21.9089 O   0  0  0  0  0  0  0  0  0  1  0  0
  -32.5658  -15.5610   22.8240 O   0  0  0  0  0  0  0  0  0  0  0  0
  -18.6369  -25.8263   23.4208 F   0  0  0  0  0  0  0  0  0  0  0  0
  -21.9771  -29.1506   23.8657 F   0  0  0  0  0  0  0  0  0  0  0  0
  1  2  1  0  0  0  0
  1  5  2  0  0  0  0
  2  6  2  0  0  0  0
  3  8  2  0  0  0  0
  3 17  1  0  0  0  0
  4  9  1  0  0  0  0
  4 17  2  0  0  0  0
  5 20  1  0  0  0  0
  6 22  1  0  0  0  0
  7 10  2  0  0  0  0
  7 21  1  0  0  0  0
  8 26  1  0  0  0  0
  9 26  2  0  0  0  0
 10 27  1  0  0  0  0
 11 12  2  0  0  0  0
 11 28  1  0  0  0  0
 12 30  1  0  0  0  0
 13 18  2  0  0  0  0
 13 29  1  0  0  0  0
 14 23  1  0  0  0  0
 14 27  2  0  0  0  0
 15 24  2  0  0  0  0
 15 25  1  0  0  0  0
 16 30  2  0  0  0  0
 16 31  1  0  0  0  0
 17 32  1  0  0  0  0
 18 24  1  0  0  0  0
 18 35  1  0  0  0  0
 19 32  1  0  0  0  0
 19 33  2  0  0  0  0
 19 36  1  0  0  0  0
 20 22  2  0  0  0  0
 20 42  1  0  0  0  0
 21 23  2  0  0  0  0
 21 43  1  0  0  0  0
 22 54  1  0  0  0  0
 23 44  1  0  0  0  0
 24 75  1  0  0  0  0
 25 29  2  0  0  0  0
 25 72  1  0  0  0  0
 26 85  1  0  0  0  0
 27 86  1  0  0  0  0
 28 31  2  0  0  0  0
 28 85  1  0  0  0  0
 29 87  1  0  0  0  0
 30 88  1  0  0  0  0
 31 89  1  0  0  0  0
 32 68  2  0  0  0  0
 33 69  1  0  0  0  0
 33 73  1  0  0  0  0
 34 35  2  0  0  0  0
 34 45  1  0  0  0  0
 35 46  1  0  0  0  0
 36 74  1  0  0  0  0
 36 79  2  0  0  0  0
 37 55  1  0  0  0  0
 37 76  1  0  0  0  0
 37 80  2  0  0  0  0
 38 62  1  0  0  0  0
 38 63  1  0  0  0  0
 38 81  2  0  0  0  0
 39 65  1  0  0  0  0
 39 70  1  0  0  0  0
 39 82  2  0  0  0  0
 40 66  1  0  0  0  0
 40 77  1  0  0  0  0
 40 83  2  0  0  0  0
 41 71  1  0  0  0  0
 41 75  1  0  0  0  0
 41 84  2  0  0  0  0
 42 47  1  0  0  0  0
 43 55  1  0  0  0  0
 44 70  1  0  0  0  0
 45 48  1  0  0  0  0
 46 48  1  0  0  0  0
 47 50  1  0  0  0  0
 49 51  1  0  0  0  0
 49 52  1  0  0  0  0
 50 54  1  0  0  0  0
 51 56  1  0  0  0  0
 52 71  1  0  0  0  0
 53 56  1  0  0  0  0
 53 71  1  0  0  0  0
 54 76  1  0  0  0  0
 55 70  1  0  0  0  0
 56 69  1  0  0  0  0
 57 66  1  0  0  0  0
 58 67  1  0  0  0  0
 59 67  1  0  0  0  0
 60 67  1  0  0  0  0
 61 78  1  0  0  0  0
 62 64  1  0  0  0  0
 63 86  1  0  0  0  0
 64 87  1  0  0  0  0
 65 67  1  0  0  0  0
 65 77  1  0  0  0  0
 66 78  1  0  0  0  0
 68 69  1  0  0  0  0
M  CHG  1  78   1
M  ISO  4  41 100  63 101  75 100  86 101
M  END
> <Batch ID>
0115

> <Smiles>
CNC(C)C(=O)NC(C(=O)N1Cc2cc([101O:1][101CH2:1]C(=O)CCOc3cc(C4=CCCC4)c([100NH:0][100C:0](=O)N4CCCC(n5nc(-c6ccc(Oc7ccc(F)cc7F)cc6)c(C(N)=O)c5N)C4)cc3N)ccc2CC1C(=O)NC1CCCc2ccccc21)C(C)(C)C

> <Shape>
0.235

> <Color>
0.073

> <Negative vol penalty>
0.000

$$$$

  -OEChem-04052301403D

 87 95  0     1  0  0  0  0  0999 V2000
  -22.6908   -7.8064   21.2994 C   0  0  0  0  0  0  0  0  0  0  0  0
  -23.6788   -8.6681   20.8340 C   0  0  0  0  0  0  0  0  0  0  0  0
  -21.3498  -27.1564   19.7865 C   0  0  0  0  0  0  0  0  0  0  0  0
  -21.9598  -26.0647   21.8536 C   0  0  0  0  0  0  0  0  0  0  0  0
  -21.4329   -8.3059   21.6342 C   0  0  0  0  0  0  0  0  0  0  0  0
  -23.4090  -10.0298   20.7019 C   0  0  0  0  0  0  0  0  0  0  0  0
  -27.3097  -14.6614   21.6181 C   0  0  0  0  0  0  0  0  0  0  0  0
  -20.1491  -26.4470   19.7661 C   0  0  0  0  0  0  0  0  0  0  0  0
  -20.7589  -25.3553   21.8333 C   0  0  0  0  0  0  0  0  0  0  0  0
  -28.0738  -15.4314   20.7423 C   0  0  0  0  0  0  0  0  0  0  0  0
  -17.6932  -23.5234   22.5144 C   0  0  0  0  0  0  0  0  0  0  0  0
  -16.9696  -23.4375   23.7038 C   0  0  0  0  0  0  0  0  0  0  0  0
  -29.1207  -22.6842   20.6089 C   0  0  0  0  0  0  0  0  0  0  0  0
  -26.3527  -17.1216   20.7361 C   0  0  0  0  0  0  0  0  0  0  0  0
  -27.7595  -21.0937   21.8150 C   0  0  0  0  0  0  0  0  0  0  0  0
  -16.7874  -25.8459   23.7668 C   0  0  0  0  0  0  0  0  0  0  0  0
  -22.2552  -26.9653   20.8302 C   0  0  0  0  0  0  0  0  0  0  0  0
  -28.8049  -23.6663   21.5475 C   0  0  0  0  0  0  0  0  0  0  0  0
  -27.9665  -23.3622   22.6200 C   0  0  0  0  0  0  0  0  0  0  0  0
  -23.7327  -28.9521   21.4446 C   0  0  0  0  0  0  0  0  0  0  0  0
  -21.1506   -9.6758   21.5153 C   0  0  0  0  0  0  0  0  0  0  0  0
  -26.0543  -15.1116   22.0516 C   0  0  0  0  0  0  0  0  0  0  0  0
  -22.1457  -10.5479   21.0341 C   0  0  0  0  0  0  0  0  0  0  0  0
  -25.5757  -16.3567   21.6194 C   0  0  0  0  0  0  0  0  0  0  0  0
  -28.5980  -21.3978   20.7425 C   0  0  0  0  0  0  0  0  0  0  0  0
  -27.4437  -22.0759   22.7537 C   0  0  0  0  0  0  0  0  0  0  0  0
  -19.8536  -25.5464   20.7895 C   0  0  0  0  0  0  0  0  0  0  0  0
  -27.5941  -16.6604   20.2989 C   0  0  0  0  0  0  0  0  0  0  0  0
  -17.9640  -24.7706   21.9513 C   0  0  0  0  0  0  0  0  0  0  0  0
  -16.5167  -24.5987   24.3299 C   0  0  0  0  0  0  0  0  0  0  0  0
  -17.5110  -25.9317   22.5774 C   0  0  0  0  0  0  0  0  0  0  0  0
  -23.4960  -27.6974   20.8516 C   0  0  0  0  0  0  0  0  0  0  0  0
  -25.0578  -29.2079   21.1896 C   0  0  0  0  0  0  0  0  0  0  0  0
  -26.0715  -26.1871   24.2434 C   0  0  0  0  0  0  0  0  0  0  0  0
  -26.4278  -25.2442   23.3655 C   0  0  0  0  0  0  0  0  0  0  0  0
  -29.9692  -19.7024   20.0566 C   0  0  0  0  0  0  0  0  0  0  0  0
  -29.3685  -24.9995   21.3771 C   0  0  0  0  0  0  0  0  0  0  0  0
  -27.6352  -24.3912   23.6026 C   0  0  0  0  0  0  0  0  0  0  0  0
  -22.8349  -29.8096   22.1618 C   0  0  0  0  0  0  0  0  0  0  0  0
  -29.6762  -25.5380   20.0323 C   0  0  0  0  0  0  0  0  0  0  0  0
  -23.0719  -14.0470   21.7768 C   0  0  0  0  0  0  0  0  0  0  0  0
  -22.4194  -16.5188   23.7735 C   0  0  0  0  0  0  0  0  0  0  0  0
  -23.3334  -19.5677   25.0046 C   0  0  0  0  0  0  0  0  0  0  0  0
  -19.7614  -10.1620   21.8445 C   0  0  0  0  0  0  0  0  0  0  0  0
  -25.2541  -14.2813   23.0174 C   0  0  0  0  0  0  0  0  0  0  0  0
  -24.2433  -16.8943   22.0713 C   0  0  0  0  0  0  0  0  0  0  0  0
  -19.6736  -11.6745   22.0313 C   0  0  0  0  0  0  0  0  0  0  0  0
  -28.5219  -28.2829   18.0348 C   0  0  0  0  0  0  0  0  0  0  0  0
  -20.4086  -12.3949   20.9054 C   0  0  0  0  0  0  0  0  0  0  0  0
  -27.1084  -28.5319   18.5600 C   0  0  0  0  0  0  0  0  0  0  0  0
  -28.8786  -26.8005   18.0730 C   0  0  0  0  0  0  0  0  0  0  0  0
  -27.3077  -26.4244   19.9544 C   0  0  0  0  0  0  0  0  0  0  0  0
  -21.8992  -12.0350   20.9007 C   0  0  1  0  0  0  0  0  0  0  0  0
  -23.7632  -14.6033   22.9894 C   0  0  1  0  0  0  0  0  0  0  0  0
  -26.9217  -27.9139   19.9571 C   0  0  2  0  0  0  0  0  0  0  0  0
  -22.5804  -21.3557   26.5962 C   0  0  0  0  0  0  0  0  0  0  0  0
  -20.3367  -17.4442   21.7448 C   0  0  0  0  0  0  0  0  0  0  0  0
  -20.3108  -19.6699   22.8910 C   0  0  0  0  0  0  0  0  0  0  0  0
  -19.6169  -17.6210   24.1333 C   0  0  0  0  0  0  0  0  0  0  0  0
  -25.7580  -19.2646   26.6744 C   0  0  0  0  0  0  0  0  0  0  0  0
  -30.4022  -18.6025   19.1247 C   0  0  0  0  0  0  0  0  0  0  0  0
  -29.7563  -17.2897   19.5344 C   0  0  0  0  0  0  0  0  0  1  0  0
  -22.0612  -17.9740   23.5918 C   0  0  1  0  0  0  0  0  0  0  0  0
  -23.4162  -20.0968   26.4250 C   0  0  2  0  0  0  0  0  0  0  0  0
  -20.6057  -18.1665   23.0800 C   0  0  0  0  0  0  0  0  0  0  0  0
  -24.5836  -27.1914   20.2640 N   0  0  0  0  0  0  0  0  0  0  0  0
  -29.6337  -25.7951   22.3757 N   0  0  0  0  0  0  0  0  0  0  0  0
  -28.9169  -20.4080   19.7979 N   0  0  0  0  0  0  0  0  0  0  0  0
  -25.5164  -28.1329   20.4865 N   0  0  0  0  0  0  0  0  0  0  0  0
  -28.6557  -26.2373   19.4031 N   0  0  0  0  0  0  0  0  0  0  0  0
  -23.4953  -16.0428   23.0108 N   0  0  0  0  0  0  0  0  0  0  0  0
  -26.5930  -21.7445   23.8322 N   0  0  0  0  0  0  0  0  0  0  0  0
  -25.8639  -30.2452   21.5005 N   0  0  0  0  0  0  0  0  0  0  0  0
  -21.5075  -29.3938   22.3330 N   0  0  0  0  0  0  0  0  0  0  0  0
  -22.5973  -12.7596   21.9409 N   0  0  0  0  0  0  0  0  0  0  0  0
  -22.3367  -18.6247   24.8682 N   0  0  0  0  0  0  0  0  0  0  0  0
  -24.8283  -20.4188   26.7763 N   0  3  0  0  0  0  0  0  0  0  0  0
  -28.3233  -24.5361   24.6206 O   0  0  0  0  0  0  0  0  0  0  0  0
  -23.1949  -30.9194   22.6226 O   0  0  0  0  0  0  0  0  0  0  0  0
  -30.8042  -25.3069   19.6171 O   0  0  0  0  0  0  0  0  0  0  0  0
  -22.9749  -14.7353   20.7676 O   0  0  0  0  0  0  0  0  0  0  0  0
  -21.7732  -15.8316   24.5684 O   0  0  0  0  0  0  0  0  0  0  0  0
  -24.0759  -19.9551   24.1051 O   0  0  0  0  0  0  0  0  0  0  0  0
  -18.6819  -24.8541   20.7700 O   0  0  0  0  0  0  0  0  0  0  0  0
  -28.3376  -17.4136   19.4436 O   0  0  0  0  0  0  0  0  0  1  0  0
  -15.8204  -24.5160   25.4713 F   0  0  0  0  0  0  0  0  0  0  0  0
  -17.7670  -27.1326   22.0406 F   0  0  0  0  0  0  0  0  0  0  0  0
  1  2  1  0  0  0  0
  1  5  2  0  0  0  0
  2  6  2  0  0  0  0
  3  8  2  0  0  0  0
  3 17  1  0  0  0  0
  4  9  1  0  0  0  0
  4 17  2  0  0  0  0
  5 21  1  0  0  0  0
  6 23  1  0  0  0  0
  7 10  2  0  0  0  0
  7 22  1  0  0  0  0
  8 27  1  0  0  0  0
  9 27  2  0  0  0  0
 10 28  1  0  0  0  0
 11 12  2  0  0  0  0
 11 29  1  0  0  0  0
 12 30  1  0  0  0  0
 13 18  1  0  0  0  0
 13 25  2  0  0  0  0
 14 24  1  0  0  0  0
 14 28  2  0  0  0  0
 15 25  1  0  0  0  0
 15 26  2  0  0  0  0
 16 30  2  0  0  0  0
 16 31  1  0  0  0  0
 17 32  1  0  0  0  0
 18 19  2  0  0  0  0
 18 37  1  0  0  0  0
 19 26  1  0  0  0  0
 19 38  1  0  0  0  0
 20 32  1  0  0  0  0
 20 33  2  0  0  0  0
 20 39  1  0  0  0  0
 21 23  2  0  0  0  0
 21 44  1  0  0  0  0
 22 24  2  0  0  0  0
 22 45  1  0  0  0  0
 23 53  1  0  0  0  0
 24 46  1  0  0  0  0
 25 68  1  0  0  0  0
 26 72  1  0  0  0  0
 27 84  1  0  0  0  0
 28 85  1  0  0  0  0
 29 31  2  0  0  0  0
 29 84  1  0  0  0  0
 30 86  1  0  0  0  0
 31 87  1  0  0  0  0
 32 66  2  0  0  0  0
 33 69  1  0  0  0  0
 33 73  1  0  0  0  0
 34 35  2  0  0  0  0
 35 38  1  0  0  0  0
 36 61  1  0  0  0  0
 36 68  2  0  0  0  0
 37 40  1  0  0  0  0
 37 67  2  0  0  0  0
 38 78  2  0  0  0  0
 39 74  1  0  0  0  0
 39 79  2  0  0  0  0
 40 70  1  0  0  0  0
 40 80  2  0  0  0  0
 41 54  1  0  0  0  0
 41 75  1  0  0  0  0
 41 81  2  0  0  0  0
 42 63  1  0  0  0  0
 42 71  1  0  0  0  0
 42 82  2  0  0  0  0
 43 64  1  0  0  0  0
 43 76  1  0  0  0  0
 43 83  2  0  0  0  0
 44 47  1  0  0  0  0
 45 54  1  0  0  0  0
 46 71  1  0  0  0  0
 47 49  1  0  0  0  0
 48 50  1  0  0  0  0
 48 51  1  0  0  0  0
 49 53  1  0  0  0  0
 50 55  1  0  0  0  0
 51 70  1  0  0  0  0
 52 55  1  0  0  0  0
 52 70  1  0  0  0  0
 53 75  1  0  0  0  0
 54 71  1  0  0  0  0
 55 69  1  0  0  0  0
 56 64  1  0  0  0  0
 57 65  1  0  0  0  0
 58 65  1  0  0  0  0
 59 65  1  0  0  0  0
 60 77  1  0  0  0  0
 61 62  1  0  0  0  0
 62 85  1  0  0  0  0
 63 65  1  0  0  0  0
 63 76  1  0  0  0  0
 64 77  1  0  0  0  0
 66 69  1  0  0  0  0
M  CHG  1  77   1
M  ISO  4  37 100  40 100  62 101  85 101
M  END
> <Batch ID>
0115

> <Smiles>
C=CC(=O)c1c(N)cc(NC=C[101CH2:1][101O:1]c2ccc3c(c2)CN(C(=O)C(NC(=O)C(C)NC)C(C)(C)C)C(C(=O)NC2CCCc4ccccc42)C3)cc1[100C:0](=N)[100C:0](=O)N1CCCC(n2nc(-c3ccc(Oc4ccc(F)cc4F)cc3)c(C(N)=O)c2N)C1

> <Shape>
0.214

> <Color>
0.089

> <Negative vol penalty>
0.000

$$$$

  -OEChem-04052301403D

 86 94  0     1  0  0  0  0  0999 V2000
  -28.4824  -32.8530   27.5344 C   0  0  0  0  0  0  0  0  0  0  0  0
  -28.6732  -31.8474   26.5922 C   0  0  0  0  0  0  0  0  0  0  0  0
  -24.7677   -8.4312   21.5413 C   0  0  0  0  0  0  0  0  0  0  0  0
  -23.1173   -9.9665   20.6718 C   0  0  0  0  0  0  0  0  0  0  0  0
  -27.1903  -33.2374   27.8901 C   0  0  0  0  0  0  0  0  0  0  0  0
  -27.5718  -31.2248   26.0059 C   0  0  0  0  0  0  0  0  0  0  0  0
  -27.1423  -29.1500   20.2599 C   0  0  0  0  0  0  0  0  0  0  0  0
  -23.8081   -7.8809   22.3910 C   0  0  0  0  0  0  0  0  0  0  0  0
  -22.1577   -9.4162   21.5215 C   0  0  0  0  0  0  0  0  0  0  0  0
  -27.2852  -27.8773   19.7091 C   0  0  0  0  0  0  0  0  0  0  0  0
  -21.2388   -5.6947   22.1627 C   0  0  0  0  0  0  0  0  0  0  0  0
  -21.1740   -4.3044   22.2531 C   0  0  0  0  0  0  0  0  0  0  0  0
  -24.8939  -27.5742   19.8041 C   0  0  0  0  0  0  0  0  0  0  0  0
  -24.7695  -18.8843   17.7773 C   0  0  0  0  0  0  0  0  0  0  0  0
  -27.3715  -18.6401   18.7534 C   0  0  0  0  0  0  0  0  0  0  0  0
  -21.6377   -4.4367   24.6205 C   0  0  0  0  0  0  0  0  0  0  0  0
  -24.4223   -9.4741   20.6817 C   0  0  0  0  0  0  0  0  0  0  0  0
  -25.7233   -9.6345   18.4933 C   0  0  0  0  0  0  0  0  0  0  0  0
  -26.0725  -32.6259   27.3008 C   0  0  0  0  0  0  0  0  0  0  0  0
  -25.8729  -29.6410   20.5976 C   0  0  0  0  0  0  0  0  0  0  0  0
  -26.2635  -31.6005   26.3550 C   0  0  0  0  0  0  0  0  0  0  0  0
  -24.7374  -28.8545   20.3567 C   0  0  0  0  0  0  0  0  0  0  0  0
  -25.2235  -17.6540   18.2526 C   0  0  0  0  0  0  0  0  0  0  0  0
  -26.5244  -17.5319   18.7407 C   0  0  0  0  0  0  0  0  0  0  0  0
  -22.5031   -8.3734   22.3811 C   0  0  0  0  0  0  0  0  0  0  0  0
  -26.1612  -27.0880   19.4838 C   0  0  0  0  0  0  0  0  0  0  0  0
  -21.5032   -6.4562   23.3012 C   0  0  0  0  0  0  0  0  0  0  0  0
  -25.6166  -19.9925   17.7899 C   0  0  0  0  0  0  0  0  0  0  0  0
  -26.9175  -19.8704   18.2780 C   0  0  0  0  0  0  0  0  0  0  0  0
  -21.3734   -3.6753   23.4820 C   0  0  0  0  0  0  0  0  0  0  0  0
  -21.7026   -5.8271   24.5301 C   0  0  0  0  0  0  0  0  0  0  0  0
  -25.4132  -10.0433   19.8042 C   0  0  0  0  0  0  0  0  0  0  0  0
  -26.7243  -10.4866   18.0955 C   0  0  0  0  0  0  0  0  0  0  0  0
  -25.1569   -8.5788   17.7055 C   0  0  0  0  0  0  0  0  0  0  0  0
  -24.4689  -30.5607   23.2970 C   0  0  0  0  0  0  0  0  0  0  0  0
  -22.0679  -31.4276   21.2956 C   0  0  0  0  0  0  0  0  0  0  0  0
  -20.5075  -31.0072   18.2897 C   0  0  0  0  0  0  0  0  0  0  0  0
  -28.2710  -16.0182   19.7430 C   0  0  0  0  0  0  0  0  0  0  0  0
  -24.6950  -33.0424   27.7521 C   0  0  0  0  0  0  0  0  0  0  0  0
  -25.7333  -31.0265   21.1662 C   0  0  0  0  0  0  0  0  0  0  0  0
  -23.3505  -29.3432   20.6830 C   0  0  0  0  0  0  0  0  0  0  0  0
  -23.5828  -32.5921   26.8084 C   0  0  0  0  0  0  0  0  0  0  0  0
  -30.3248  -13.1118   19.8503 C   0  0  0  0  0  0  0  0  0  0  0  0
  -23.7699  -31.1282   26.4229 C   0  0  0  0  0  0  0  0  0  0  0  0
  -29.3271  -11.9580   19.7252 C   0  0  0  0  0  0  0  0  0  0  0  0
  -29.7595  -14.2630   20.6803 C   0  0  0  0  0  0  0  0  0  0  0  0
  -27.4529  -13.6082   20.1144 C   0  0  0  0  0  0  0  0  0  0  0  0
  -25.0941  -30.9185   25.6786 C   0  0  1  0  0  0  0  0  0  0  0  0
  -24.4387  -31.2235   21.9489 C   0  0  1  0  0  0  0  0  0  0  0  0
  -27.9529  -12.4523   19.2325 C   0  0  2  0  0  0  0  0  0  0  0  0
  -24.6071  -15.5246   17.0811 C   0  0  0  0  0  0  0  0  0  0  0  0
  -18.5484  -31.8305   16.9550 C   0  0  0  0  0  0  0  0  0  0  0  0
  -20.1896  -29.7611   23.0291 C   0  0  0  0  0  0  0  0  0  0  0  0
  -18.5171  -29.8368   21.1676 C   0  0  0  0  0  0  0  0  0  0  0  0
  -19.2453  -31.9504   22.2744 C   0  0  0  0  0  0  0  0  0  0  0  0
  -22.2573  -32.0164   16.1266 C   0  0  0  0  0  0  0  0  0  0  0  0
  -25.3537  -21.4601   15.9371 C   0  0  0  0  0  0  0  0  0  0  0  0
  -24.2950  -16.4835   18.2256 C   0  0  0  0  0  0  0  0  0  0  0  0
  -27.2541  -23.6443   19.2163 C   0  0  0  0  0  0  0  0  0  0  0  0
  -28.5202  -22.8560   19.5332 C   0  0  0  0  0  0  0  0  0  0  0  0
  -27.5094  -25.1456   19.2284 C   0  0  0  0  0  0  0  0  0  1  0  0
  -28.2564  -21.3572   19.5636 C   0  0  0  0  0  0  0  0  0  0  0  0
  -20.8453  -30.7435   20.7332 C   0  0  1  0  0  0  0  0  0  0  0  0
  -20.0287  -32.0090   17.2546 C   0  0  2  0  0  0  0  0  0  0  0  0
  -19.7255  -30.5627   21.7966 C   0  0  0  0  0  0  0  0  0  0  0  0
  -26.1572  -11.0749   20.2121 N   0  0  0  0  0  0  0  0  0  0  0  0
  -26.9447  -11.3214   19.1514 N   0  0  0  0  0  0  0  0  0  0  0  0
  -23.2665  -30.7022   21.2430 N   0  0  0  0  0  0  0  0  0  0  0  0
  -28.4589  -14.6812   20.1525 N   0  0  0  0  0  0  0  0  0  0  0  0
  -27.4288  -10.5958   16.9491 N   0  0  0  0  0  0  0  0  0  0  0  0
  -24.1367   -7.7993   18.2675 N   0  0  0  0  0  0  0  0  0  0  0  0
  -27.0041  -16.2909   19.2280 N   0  0  0  0  0  0  0  0  0  0  0  0
  -24.9767  -31.3582   24.3048 N   0  0  0  0  0  0  0  0  0  0  0  0
  -20.4420  -31.5220   19.5672 N   0  0  0  0  0  0  0  0  0  0  0  0
  -20.7887  -31.8436   15.9833 N   0  3  0  0  0  0  0  0  0  0  0  0
  -25.5554   -8.3236   16.5438 O   0  0  0  0  0  0  0  0  0  0  0  0
  -24.0603  -29.4114   23.4145 O   0  0  0  0  0  0  0  0  0  0  0  0
  -21.9646  -32.5666   21.7579 O   0  0  0  0  0  0  0  0  0  0  0  0
  -20.8970  -29.8794   17.9949 O   0  0  0  0  0  0  0  0  0  0  0  0
  -29.1765  -16.8528   19.8166 O   0  0  0  0  0  0  0  0  0  0  0  0
  -21.5665   -7.8365   23.2099 O   0  0  0  0  0  0  0  0  0  0  0  0
  -25.1612  -21.1889   17.3240 O   0  0  0  0  0  0  0  0  0  0  0  0
  -26.2979  -25.8451   18.9469 O   0  0  0  0  0  0  0  0  0  1  0  0
  -27.7592  -20.9521   18.2956 O   0  0  0  0  0  0  0  0  0  0  0  0
  -21.3095   -2.3402   23.5690 F   0  0  0  0  0  0  0  0  0  0  0  0
  -21.9557   -6.5534   25.6275 F   0  0  0  0  0  0  0  0  0  0  0  0
  1  2  1  0  0  0  0
  1  5  2  0  0  0  0
  2  6  2  0  0  0  0
  3  8  2  0  0  0  0
  3 17  1  0  0  0  0
  4  9  1  0  0  0  0
  4 17  2  0  0  0  0
  5 19  1  0  0  0  0
  6 21  1  0  0  0  0
  7 10  2  0  0  0  0
  7 20  1  0  0  0  0
  8 25  1  0  0  0  0
  9 25  2  0  0  0  0
 10 26  1  0  0  0  0
 11 12  2  0  0  0  0
 11 27  1  0  0  0  0
 12 30  1  0  0  0  0
 13 22  1  0  0  0  0
 13 26  2  0  0  0  0
 14 23  1  0  0  0  0
 14 28  2  0  0  0  0
 15 24  1  0  0  0  0
 15 29  2  0  0  0  0
 16 30  2  0  0  0  0
 16 31  1  0  0  0  0
 17 32  1  0  0  0  0
 18 32  1  0  0  0  0
 18 33  2  0  0  0  0
 18 34  1  0  0  0  0
 19 21  2  0  0  0  0
 19 39  1  0  0  0  0
 20 22  2  0  0  0  0
 20 40  1  0  0  0  0
 21 48  1  0  0  0  0
 22 41  1  0  0  0  0
 23 24  2  0  0  0  0
 23 58  1  0  0  0  0
 24 72  1  0  0  0  0
 25 81  1  0  0  0  0
 26 83  1  0  0  0  0
 27 31  2  0  0  0  0
 27 81  1  0  0  0  0
 28 29  1  0  0  0  0
 28 82  1  0  0  0  0
 29 84  1  0  0  0  0
 30 85  1  0  0  0  0
 31 86  1  0  0  0  0
 32 66  2  0  0  0  0
 33 67  1  0  0  0  0
 33 70  1  0  0  0  0
 34 71  1  0  0  0  0
 34 76  2  0  0  0  0
 35 49  1  0  0  0  0
 35 73  1  0  0  0  0
 35 77  2  0  0  0  0
 36 63  1  0  0  0  0
 36 68  1  0  0  0  0
 36 78  2  0  0  0  0
 37 64  1  0  0  0  0
 37 74  1  0  0  0  0
 37 79  2  0  0  0  0
 38 69  1  0  0  0  0
 38 72  1  0  0  0  0
 38 80  2  0  0  0  0
 39 42  1  0  0  0  0
 40 49  1  0  0  0  0
 41 68  1  0  0  0  0
 42 44  1  0  0  0  0
 43 45  1  0  0  0  0
 43 46  1  0  0  0  0
 44 48  1  0  0  0  0
 45 50  1  0  0  0  0
 46 69  1  0  0  0  0
 47 50  1  0  0  0  0
 47 69  1  0  0  0  0
 48 73  1  0  0  0  0
 49 68  1  0  0  0  0
 50 67  1  0  0  0  0
 51 58  1  0  0  0  0
 52 64  1  0  0  0  0
 53 65  1  0  0  0  0
 54 65  1  0  0  0  0
 55 65  1  0  0  0  0
 56 75  1  0  0  0  0
 57 82  1  0  0  0  0
 59 60  1  0  0  0  0
 59 61  1  0  0  0  0
 60 62  1  0  0  0  0
 61 83  1  0  0  0  0
 62 84  1  0  0  0  0
 63 65  1  0  0  0  0
 63 74  1  0  0  0  0
 64 75  1  0  0  0  0
 66 67  1  0  0  0  0
M  CHG  1  75   1
M  ISO  4  38 100  61 101  72 100  83 101
M  END
> <Batch ID>
0115

> <Smiles>
CCc1cc(OC)c(OCCC[101CH2:1][101O:1]c2ccc3c(c2)CN(C(=O)C(NC(=O)C(C)NC)C(C)(C)C)C(C(=O)NC2CCCc4ccccc42)C3)cc1[100NH:0][100C:0](=O)N1CCCC(n2nc(-c3ccc(Oc4ccc(F)cc4F)cc3)c(C(N)=O)c2N)C1

> <Shape>
0.280

> <Color>
0.105

> <Negative vol penalty>
0.000

$$$$

  -OEChem-04052301403D

 84 92  0     1  0  0  0  0  0999 V2000
  -17.5532  -25.4019   22.9852 C   0  0  0  0  0  0  0  0  0  0  0  0
  -18.7567  -25.3058   22.2939 C   0  0  0  0  0  0  0  0  0  0  0  0
  -22.4657  -12.5669   22.4737 C   0  0  0  0  0  0  0  0  0  0  0  0
  -21.9393  -13.7819   20.4529 C   0  0  0  0  0  0  0  0  0  0  0  0
  -17.0511  -26.6539   23.3377 C   0  0  0  0  0  0  0  0  0  0  0  0
  -19.4582  -26.4619   21.9537 C   0  0  0  0  0  0  0  0  0  0  0  0
  -24.4186  -26.0724   22.8959 C   0  0  0  0  0  0  0  0  0  0  0  0
  -21.1300  -12.6440   22.8681 C   0  0  0  0  0  0  0  0  0  0  0  0
  -20.6035  -13.8590   20.8473 C   0  0  0  0  0  0  0  0  0  0  0  0
  -25.1849  -25.3477   21.9841 C   0  0  0  0  0  0  0  0  0  0  0  0
  -17.7904  -12.2064   24.2357 C   0  0  0  0  0  0  0  0  0  0  0  0
  -17.1956  -11.0503   24.7409 C   0  0  0  0  0  0  0  0  0  0  0  0
  -27.0944  -19.2145   17.2794 C   0  0  0  0  0  0  0  0  0  0  0  0
  -27.5949  -21.5610   16.9961 C   0  0  0  0  0  0  0  0  0  0  0  0
  -25.9159  -27.4102   20.9686 C   0  0  0  0  0  0  0  0  0  0  0  0
  -28.5965  -20.3230   18.8131 C   0  0  0  0  0  0  0  0  0  0  0  0
  -17.6291   -9.9150   22.6528 C   0  0  0  0  0  0  0  0  0  0  0  0
  -22.8704  -13.1359   21.2661 C   0  0  0  0  0  0  0  0  0  0  0  0
  -26.9273  -20.4093   16.5794 C   0  0  0  0  0  0  0  0  0  0  0  0
  -24.8532  -12.0426   20.0911 C   0  0  0  0  0  0  0  0  0  0  0  0
  -17.7516  -27.8254   23.0101 C   0  0  0  0  0  0  0  0  0  0  0  0
  -24.3865  -27.4734   22.8439 C   0  0  0  0  0  0  0  0  0  0  0  0
  -18.9643  -27.7308   22.3010 C   0  0  0  0  0  0  0  0  0  0  0  0
  -25.1504  -28.1503   21.8825 C   0  0  0  0  0  0  0  0  0  0  0  0
  -27.9290  -19.1713   18.3963 C   0  0  0  0  0  0  0  0  0  0  0  0
  -20.1989  -13.2900   22.0549 C   0  0  0  0  0  0  0  0  0  0  0  0
  -25.9314  -26.0165   21.0184 C   0  0  0  0  0  0  0  0  0  0  0  0
  -18.3045  -12.2169   22.9391 C   0  0  0  0  0  0  0  0  0  0  0  0
  -28.4295  -21.5178   18.1130 C   0  0  0  0  0  0  0  0  0  0  0  0
  -17.1149   -9.9046   23.9494 C   0  0  0  0  0  0  0  0  0  0  0  0
  -18.2238  -11.0711   22.1476 C   0  0  0  0  0  0  0  0  0  0  0  0
  -24.2501  -13.0571   20.8585 C   0  0  0  0  0  0  0  0  0  0  0  0
  -26.1663  -12.4300   19.9809 C   0  0  0  0  0  0  0  0  0  0  0  0
  -26.2616  -21.2529   14.3748 C   0  0  0  0  0  0  0  0  0  0  0  0
  -26.0581  -20.4552   15.4144 C   0  0  0  0  0  0  0  0  0  0  0  0
  -28.0287  -25.5299   20.1044 C   0  0  0  0  0  0  0  0  0  1  0  0
  -24.2778  -10.8561   19.5281 C   0  0  0  0  0  0  0  0  0  0  0  0
  -28.8837  -24.9067   19.2795 C   0  0  0  0  0  0  0  0  0  0  0  0
  -22.1224  -29.6484   22.3470 C   0  0  0  0  0  0  0  0  0  0  0  0
  -24.5044  -31.7267   23.0745 C   0  0  0  0  0  0  0  0  0  0  0  0
  -27.8556  -32.3510   23.2366 C   0  0  0  0  0  0  0  0  0  0  0  0
  -28.8901  -17.7424   20.2350 C   0  0  0  0  0  0  0  0  0  0  0  0
  -17.1456  -29.1586   23.3709 C   0  0  0  0  0  0  0  0  0  0  0  0
  -23.5759  -28.2414   23.8516 C   0  0  0  0  0  0  0  0  0  0  0  0
  -25.1661  -29.6540   21.7972 C   0  0  0  0  0  0  0  0  0  0  0  0
  -18.1371  -30.3172   23.3017 C   0  0  0  0  0  0  0  0  0  0  0  0
  -29.5447  -14.9131   22.2950 C   0  0  0  0  0  0  0  0  0  0  0  0
  -18.9440  -30.2527   22.0088 C   0  0  0  0  0  0  0  0  0  0  0  0
  -28.3190  -14.0209   22.0858 C   0  0  0  0  0  0  0  0  0  0  0  0
  -29.1729  -16.3948   22.3036 C   0  0  0  0  0  0  0  0  0  0  0  0
  -27.1753  -15.9558   20.9303 C   0  0  0  0  0  0  0  0  0  0  0  0
  -19.7668  -28.9608   21.9358 C   0  0  1  0  0  0  0  0  0  0  0  0
  -23.2129  -29.6463   23.3807 C   0  0  1  0  0  0  0  0  0  0  0  0
  -27.5088  -14.4572   20.8493 C   0  0  2  0  0  0  0  0  0  0  0  0
  -30.3535  -25.2195   19.3189 C   0  0  0  0  0  0  0  0  0  0  0  0
  -29.4971  -34.1526   23.8344 C   0  0  0  0  0  0  0  0  0  0  0  0
  -23.8949  -33.1509   20.4458 C   0  0  0  0  0  0  0  0  0  0  0  0
  -26.1102  -34.3017   20.6362 C   0  0  0  0  0  0  0  0  0  0  0  0
  -24.3598  -34.6740   22.3741 C   0  0  0  0  0  0  0  0  0  0  0  0
  -29.0574  -30.7050   25.3826 C   0  0  0  0  0  0  0  0  0  0  0  0
  -28.4464  -23.8914   18.2597 C   0  0  0  0  0  0  0  0  0  0  0  0
  -25.5665  -32.4540   22.2860 C   0  0  1  0  0  0  0  0  0  0  0  0
  -28.7172  -32.9469   24.3353 C   0  0  2  0  0  0  0  0  0  0  0  0
  -24.9813  -33.6167   21.4356 C   0  0  0  0  0  0  0  0  0  0  0  0
  -25.1096  -14.0168   21.2110 N   0  0  0  0  0  0  0  0  0  0  0  0
  -26.2661  -13.6070   20.6628 N   0  0  0  0  0  0  0  0  0  0  0  0
  -24.3524  -30.3600   22.8006 N   0  0  0  0  0  0  0  0  0  0  0  0
  -28.4111  -16.7361   21.1003 N   0  0  0  0  0  0  0  0  0  0  0  0
  -27.2337  -11.8753   19.3684 N   0  0  0  0  0  0  0  0  0  0  0  0
  -22.9138  -10.6110   19.7370 N   0  0  0  0  0  0  0  0  0  0  0  0
  -28.0991  -17.9572   19.1068 N   0  0  0  0  0  0  0  0  0  0  0  0
  -20.9443  -29.0637   22.7708 N   0  0  0  0  0  0  0  0  0  0  0  0
  -26.5783  -32.8702   23.2511 N   0  0  0  0  0  0  0  0  0  0  0  0
  -29.6886  -31.9347   24.8382 N   0  3  0  0  0  0  0  0  0  0  0  0
  -24.9569  -10.0292   18.8735 O   0  0  0  0  0  0  0  0  0  0  0  0
  -22.3337  -30.1451   21.2468 O   0  0  0  0  0  0  0  0  0  0  0  0
  -23.8391  -32.3466   23.9080 O   0  0  0  0  0  0  0  0  0  0  0  0
  -28.2749  -31.5119   22.4425 O   0  0  0  0  0  0  0  0  0  0  0  0
  -29.9400  -18.3487   20.4632 O   0  0  0  0  0  0  0  0  0  0  0  0
  -18.8954  -13.3652   22.4393 O   0  0  0  0  0  0  0  0  0  0  0  0
  -26.6797  -25.3116   20.1268 O   0  0  0  0  0  0  0  0  0  1  0  0
  -29.0858  -22.6491   18.5222 O   0  0  0  0  0  0  0  0  0  0  0  0
  -16.5451   -8.7939   24.4352 F   0  0  0  0  0  0  0  0  0  0  0  0
  -18.7170  -11.0747   20.9016 F   0  0  0  0  0  0  0  0  0  0  0  0
  1  2  1  0  0  0  0
  1  5  2  0  0  0  0
  2  6  2  0  0  0  0
  3  8  2  0  0  0  0
  3 18  1  0  0  0  0
  4  9  1  0  0  0  0
  4 18  2  0  0  0  0
  5 21  1  0  0  0  0
  6 23  1  0  0  0  0
  7 10  2  0  0  0  0
  7 22  1  0  0  0  0
  8 26  1  0  0  0  0
  9 26  2  0  0  0  0
 10 27  1  0  0  0  0
 11 12  2  0  0  0  0
 11 28  1  0  0  0  0
 12 30  1  0  0  0  0
 13 19  1  0  0  0  0
 13 25  2  0  0  0  0
 14 19  2  0  0  0  0
 14 29  1  0  0  0  0
 15 24  1  0  0  0  0
 15 27  2  0  0  0  0
 16 25  1  0  0  0  0
 16 29  2  0  0  0  0
 17 30  2  0  0  0  0
 17 31  1  0  0  0  0
 18 32  1  0  0  0  0
 19 35  1  0  0  0  0
 20 32  1  0  0  0  0
 20 33  2  0  0  0  0
 20 37  1  0  0  0  0
 21 23  2  0  0  0  0
 21 43  1  0  0  0  0
 22 24  2  0  0  0  0
 22 44  1  0  0  0  0
 23 52  1  0  0  0  0
 24 45  1  0  0  0  0
 25 71  1  0  0  0  0
 26 80  1  0  0  0  0
 27 81  1  0  0  0  0
 28 31  2  0  0  0  0
 28 80  1  0  0  0  0
 29 82  1  0  0  0  0
 30 83  1  0  0  0  0
 31 84  1  0  0  0  0
 32 65  2  0  0  0  0
 33 66  1  0  0  0  0
 33 69  1  0  0  0  0
 34 35  2  0  0  0  0
 36 38  2  0  0  0  0
 36 81  1  0  0  0  0
 37 70  1  0  0  0  0
 37 75  2  0  0  0  0
 38 55  1  0  0  0  0
 38 61  1  0  0  0  0
 39 53  1  0  0  0  0
 39 72  1  0  0  0  0
 39 76  2  0  0  0  0
 40 62  1  0  0  0  0
 40 67  1  0  0  0  0
 40 77  2  0  0  0  0
 41 63  1  0  0  0  0
 41 73  1  0  0  0  0
 41 78  2  0  0  0  0
 42 68  1  0  0  0  0
 42 71  1  0  0  0  0
 42 79  2  0  0  0  0
 43 46  1  0  0  0  0
 44 53  1  0  0  0  0
 45 67  1  0  0  0  0
 46 48  1  0  0  0  0
 47 49  1  0  0  0  0
 47 50  1  0  0  0  0
 48 52  1  0  0  0  0
 49 54  1  0  0  0  0
 50 68  1  0  0  0  0
 51 54  1  0  0  0  0
 51 68  1  0  0  0  0
 52 72  1  0  0  0  0
 53 67  1  0  0  0  0
 54 66  1  0  0  0  0
 56 63  1  0  0  0  0
 57 64  1  0  0  0  0
 58 64  1  0  0  0  0
 59 64  1  0  0  0  0
 60 74  1  0  0  0  0
 61 82  1  0  0  0  0
 62 64  1  0  0  0  0
 62 73  1  0  0  0  0
 63 74  1  0  0  0  0
 65 66  1  0  0  0  0
M  CHG  1  74   1
M  ISO  4  36 101  42 100  71 100  81 101
M  END
> <Batch ID>
0115

> <Smiles>
C=Cc1cc([100NH:0][100C:0](=O)N2CCCC(n3nc(-c4ccc(Oc5ccc(F)cc5F)cc4)c(C(N)=O)c3N)C2)cc(OCC(C)=[101CH:1][101O:1]c2ccc3c(c2)CN(C(=O)C(NC(=O)C(C)NC)C(C)(C)C)C(C(=O)NC2CCCc4ccccc42)C3)c1

> <Shape>
0.270

> <Color>
0.081

> <Negative vol penalty>
0.000

$$$$

  -OEChem-04052301403D

 83 91  0     1  0  0  0  0  0999 V2000
  -32.4942  -37.1348   21.1756 C   0  0  0  0  0  0  0  0  0  0  0  0
  -32.4055  -35.8429   20.6672 C   0  0  0  0  0  0  0  0  0  0  0  0
  -23.6241   -9.8991   22.4280 C   0  0  0  0  0  0  0  0  0  0  0  0
  -23.3893   -9.8148   20.0249 C   0  0  0  0  0  0  0  0  0  0  0  0
  -31.9463  -37.4309   22.4230 C   0  0  0  0  0  0  0  0  0  0  0  0
  -31.7697  -34.8460   21.4064 C   0  0  0  0  0  0  0  0  0  0  0  0
  -28.4427  -30.1942   19.2162 C   0  0  0  0  0  0  0  0  0  0  0  0
  -22.7299   -8.8359   22.5527 C   0  0  0  0  0  0  0  0  0  0  0  0
  -22.4951   -8.7516   20.1495 C   0  0  0  0  0  0  0  0  0  0  0  0
  -28.7484  -28.8562   18.9707 C   0  0  0  0  0  0  0  0  0  0  0  0
  -22.7963   -5.4724   22.2137 C   0  0  0  0  0  0  0  0  0  0  0  0
  -23.1314   -4.4432   23.0935 C   0  0  0  0  0  0  0  0  0  0  0  0
  -27.8340  -28.2590   21.1216 C   0  0  0  0  0  0  0  0  0  0  0  0
  -21.1233   -4.8764   24.3651 C   0  0  0  0  0  0  0  0  0  0  0  0
  -23.9538  -10.3886   21.1641 C   0  0  0  0  0  0  0  0  0  0  0  0
  -26.2763  -11.4105   20.9004 C   0  0  0  0  0  0  0  0  0  0  0  0
  -31.2950  -36.4394   23.1737 C   0  0  0  0  0  0  0  0  0  0  0  0
  -27.8392  -30.5766   20.4228 C   0  0  0  0  0  0  0  0  0  0  0  0
  -31.2137  -35.1288   22.6656 C   0  0  0  0  0  0  0  0  0  0  0  0
  -27.5193  -29.6021   21.3789 C   0  0  0  0  0  0  0  0  0  0  0  0
  -22.1654   -8.2622   21.4135 C   0  0  0  0  0  0  0  0  0  0  0  0
  -28.4467  -27.8888   19.9247 C   0  0  0  0  0  0  0  0  0  0  0  0
  -21.6247   -6.2036   22.4096 C   0  0  0  0  0  0  0  0  0  0  0  0
  -22.2949   -4.1452   24.1692 C   0  0  0  0  0  0  0  0  0  0  0  0
  -20.7882   -5.9056   23.4852 C   0  0  0  0  0  0  0  0  0  0  0  0
  -24.8771  -11.4872   21.0346 C   0  0  0  0  0  0  0  0  0  0  0  0
  -26.6852  -12.7188   20.8137 C   0  0  0  0  0  0  0  0  0  0  0  0
  -26.4664  -21.4162   18.4439 C   0  0  0  0  0  0  0  0  0  0  0  0
  -27.2563  -22.3276   17.8752 C   0  0  0  0  0  0  0  0  0  0  0  0
  -26.8160  -20.0154   18.1795 C   0  0  0  0  0  0  0  0  0  0  0  0
  -28.4086  -21.9089   17.0343 C   0  0  0  0  0  0  0  0  0  0  0  0
  -27.9952  -24.5166   18.7981 C   0  0  0  0  0  0  0  0  0  0  0  0
  -27.8003  -25.8080   19.0742 C   0  0  0  0  0  0  0  0  0  1  0  0
  -27.1301  -10.2594   20.8578 C   0  0  0  0  0  0  0  0  0  0  0  0
  -26.9247  -23.7401   18.1289 C   0  0  0  0  0  0  0  0  0  0  0  0
  -28.6677  -32.4572   22.8478 C   0  0  0  0  0  0  0  0  0  0  0  0
  -25.6450  -31.8399   23.8503 C   0  0  0  0  0  0  0  0  0  0  0  0
  -22.9380  -29.7628   23.7838 C   0  0  0  0  0  0  0  0  0  0  0  0
  -26.1593  -17.7372   18.7073 C   0  0  0  0  0  0  0  0  0  0  0  0
  -30.7597  -36.7960   24.5378 C   0  0  0  0  0  0  0  0  0  0  0  0
  -27.4916  -32.0205   20.6611 C   0  0  0  0  0  0  0  0  0  0  0  0
  -26.8530  -29.9581   22.6818 C   0  0  0  0  0  0  0  0  0  0  0  0
  -29.7737  -35.7710   25.0923 C   0  0  0  0  0  0  0  0  0  0  0  0
  -24.1541  -17.0235   21.6303 C   0  0  0  0  0  0  0  0  0  0  0  0
  -30.3158  -34.3567   24.9113 C   0  0  0  0  0  0  0  0  0  0  0  0
  -24.2856  -15.5021   21.7250 C   0  0  0  0  0  0  0  0  0  0  0  0
  -24.0669  -17.4805   20.1772 C   0  0  0  0  0  0  0  0  0  0  0  0
  -25.3314  -15.5097   19.4123 C   0  0  0  0  0  0  0  0  0  0  0  0
  -30.5101  -34.0261   23.4266 C   0  0  1  0  0  0  0  0  0  0  0  0
  -27.3454  -32.3637   22.1403 C   0  0  1  0  0  0  0  0  0  0  0  0
  -25.4460  -14.9837   20.8547 C   0  0  2  0  0  0  0  0  0  0  0  0
  -20.6298  -29.5041   24.7337 C   0  0  0  0  0  0  0  0  0  0  0  0
  -26.8428  -30.9541   26.5131 C   0  0  0  0  0  0  0  0  0  0  0  0
  -24.6631  -29.8428   27.0443 C   0  0  0  0  0  0  0  0  0  0  0  0
  -24.7528  -32.3132   26.7100 C   0  0  0  0  0  0  0  0  0  0  0  0
  -29.7143  -20.0901   16.0704 C   0  0  0  0  0  0  0  0  0  0  0  0
  -21.6970  -29.8544   21.0986 C   0  0  0  0  0  0  0  0  0  0  0  0
  -24.9999  -30.7824   24.7131 C   0  0  1  0  0  0  0  0  0  0  0  0
  -21.4599  -30.0408   23.5780 C   0  0  2  0  0  0  0  0  0  0  0  0
  -25.3290  -30.9663   26.2215 C   0  0  0  0  0  0  0  0  0  0  0  0
  -24.4272  -12.7449   21.0340 N   0  0  0  0  0  0  0  0  0  0  0  0
  -27.7995  -19.5951   17.4610 N   0  0  0  0  0  0  0  0  0  0  0  0
  -25.5503  -13.4704   20.8984 N   0  0  0  0  0  0  0  0  0  0  0  0
  -28.6007  -20.5403   16.8844 N   0  0  0  0  0  0  0  0  0  0  0  0
  -26.5387  -31.3840   22.8708 N   0  0  0  0  0  0  0  0  0  0  0  0
  -25.2139  -16.9717   19.4120 N   0  0  0  0  0  0  0  0  0  0  0  0
  -27.9013  -13.2881   20.6742 N   0  0  0  0  0  0  0  0  0  0  0  0
  -26.5455   -8.9897   20.9602 N   0  0  0  0  0  0  0  0  0  0  0  0
  -25.9854  -19.1208   18.7763 N   0  0  0  0  0  0  0  0  0  0  0  0
  -29.2395  -33.7146   22.8077 N   0  0  0  0  0  0  0  0  0  0  0  0
  -23.5745  -30.8171   24.4039 N   0  0  0  0  0  0  0  0  0  0  0  0
  -20.9827  -29.4007   22.3196 N   0  3  0  0  0  0  0  0  0  0  0  0
  -29.1276  -22.7650   16.5184 O   0  0  0  0  0  0  0  0  0  0  0  0
  -28.3761  -10.3546   20.7491 O   0  0  0  0  0  0  0  0  0  0  0  0
  -25.8418  -24.2074   17.8010 O   0  0  0  0  0  0  0  0  0  0  0  0
  -29.1339  -31.4627   23.3913 O   0  0  0  0  0  0  0  0  0  0  0  0
  -25.3610  -33.0262   24.0337 O   0  0  0  0  0  0  0  0  0  0  0  0
  -23.4736  -28.7137   23.4330 O   0  0  0  0  0  0  0  0  0  0  0  0
  -27.0993  -17.2302   18.0858 O   0  0  0  0  0  0  0  0  0  0  0  0
  -21.2929   -7.2245   21.5347 O   0  0  0  0  0  0  0  0  0  0  0  0
  -28.7446  -26.5822   19.6880 O   0  0  0  0  0  0  0  0  0  1  0  0
  -22.6161   -3.1559   25.0131 F   0  0  0  0  0  0  0  0  0  0  0  0
  -19.6607   -6.6038   23.6779 F   0  0  0  0  0  0  0  0  0  0  0  0
  1  2  1  0  0  0  0
  1  5  2  0  0  0  0
  2  6  2  0  0  0  0
  3  8  2  0  0  0  0
  3 15  1  0  0  0  0
  4  9  1  0  0  0  0
  4 15  2  0  0  0  0
  5 17  1  0  0  0  0
  6 19  1  0  0  0  0
  7 10  2  0  0  0  0
  7 18  1  0  0  0  0
  8 21  1  0  0  0  0
  9 21  2  0  0  0  0
 10 22  1  0  0  0  0
 11 12  2  0  0  0  0
 11 23  1  0  0  0  0
 12 24  1  0  0  0  0
 13 20  1  0  0  0  0
 13 22  2  0  0  0  0
 14 24  2  0  0  0  0
 14 25  1  0  0  0  0
 15 26  1  0  0  0  0
 16 26  1  0  0  0  0
 16 27  2  0  0  0  0
 16 34  1  0  0  0  0
 17 19  2  0  0  0  0
 17 40  1  0  0  0  0
 18 20  2  0  0  0  0
 18 41  1  0  0  0  0
 19 49  1  0  0  0  0
 20 42  1  0  0  0  0
 21 80  1  0  0  0  0
 22 81  1  0  0  0  0
 23 25  2  0  0  0  0
 23 80  1  0  0  0  0
 24 82  1  0  0  0  0
 25 83  1  0  0  0  0
 26 61  2  0  0  0  0
 27 63  1  0  0  0  0
 27 67  1  0  0  0  0
 28 29  2  0  0  0  0
 28 30  1  0  0  0  0
 29 31  1  0  0  0  0
 29 35  1  0  0  0  0
 30 62  2  0  0  0  0
 30 69  1  0  0  0  0
 31 64  1  0  0  0  0
 31 73  2  0  0  0  0
 32 33  2  0  0  0  0
 32 35  1  0  0  0  0
 33 81  1  0  0  0  0
 34 68  1  0  0  0  0
 34 74  2  0  0  0  0
 35 75  2  0  0  0  0
 36 50  1  0  0  0  0
 36 70  1  0  0  0  0
 36 76  2  0  0  0  0
 37 58  1  0  0  0  0
 37 65  1  0  0  0  0
 37 77  2  0  0  0  0
 38 59  1  0  0  0  0
 38 71  1  0  0  0  0
 38 78  2  0  0  0  0
 39 66  1  0  0  0  0
 39 69  1  0  0  0  0
 39 79  2  0  0  0  0
 40 43  1  0  0  0  0
 41 50  1  0  0  0  0
 42 65  1  0  0  0  0
 43 45  1  0  0  0  0
 44 46  1  0  0  0  0
 44 47  1  0  0  0  0
 45 49  1  0  0  0  0
 46 51  1  0  0  0  0
 47 66  1  0  0  0  0
 48 51  1  0  0  0  0
 48 66  1  0  0  0  0
 49 70  1  0  0  0  0
 50 65  1  0  0  0  0
 51 63  1  0  0  0  0
 52 59  1  0  0  0  0
 53 60  1  0  0  0  0
 54 60  1  0  0  0  0
 55 60  1  0  0  0  0
 56 64  1  0  0  0  0
 57 72  1  0  0  0  0
 58 60  1  0  0  0  0
 58 71  1  0  0  0  0
 59 72  1  0  0  0  0
 61 63  1  0  0  0  0
 62 64  1  0  0  0  0
M  CHG  1  72   1
M  ISO  4  33 101  39 100  69 100  81 101
M  END
> <Batch ID>
0115

> <Smiles>
CNC(C)C(=O)NC(C(=O)N1Cc2cc([101O:1][101CH:1]=CC(=O)c3cc([100NH:0][100C:0](=O)N4CCCC(n5nc(-c6ccc(Oc7ccc(F)cc7F)cc6)c(C(N)=O)c5N)C4)nn(C)c3=O)ccc2CC1C(=O)NC1CCCc2ccccc21)C(C)(C)C

> <Shape>
0.241

> <Color>
0.118

> <Negative vol penalty>
0.000

$$$$

  -OEChem-04052301403D

 82 90  0     1  0  0  0  0  0999 V2000
  -30.7660  -23.8299   15.6928 C   0  0  0  0  0  0  0  0  0  0  0  0
  -29.4062  -24.1150   15.7646 C   0  0  0  0  0  0  0  0  0  0  0  0
  -26.0497  -14.0804   19.5713 C   0  0  0  0  0  0  0  0  0  0  0  0
  -24.3120  -14.1337   21.2490 C   0  0  0  0  0  0  0  0  0  0  0  0
  -31.5349  -23.8081   16.8557 C   0  0  0  0  0  0  0  0  0  0  0  0
  -28.8143  -24.3774   16.9996 C   0  0  0  0  0  0  0  0  0  0  0  0
  -24.2379  -28.2862   18.1324 C   0  0  0  0  0  0  0  0  0  0  0  0
  -26.2135  -12.7117   19.7843 C   0  0  0  0  0  0  0  0  0  0  0  0
  -24.4757  -12.7649   21.4619 C   0  0  0  0  0  0  0  0  0  0  0  0
  -22.8647  -28.1028   18.2889 C   0  0  0  0  0  0  0  0  0  0  0  0
  -23.5533   -9.8836   19.9560 C   0  0  0  0  0  0  0  0  0  0  0  0
  -22.4022   -9.1011   20.0462 C   0  0  0  0  0  0  0  0  0  0  0  0
  -23.1532  -28.0306   20.6828 C   0  0  0  0  0  0  0  0  0  0  0  0
  -22.8298  -24.4047   23.5735 C   0  0  0  0  0  0  0  0  0  0  0  0
  -21.3877  -23.3990   21.9325 C   0  0  0  0  0  0  0  0  0  0  0  0
  -23.0319   -8.4320   22.2806 C   0  0  0  0  0  0  0  0  0  0  0  0
  -25.0990  -14.7914   20.3037 C   0  0  0  0  0  0  0  0  0  0  0  0
  -24.0617  -16.8254   19.1660 C   0  0  0  0  0  0  0  0  0  0  0  0
  -30.9540  -24.0798   18.1045 C   0  0  0  0  0  0  0  0  0  0  0  0
  -25.0819  -28.3324   19.2513 C   0  0  0  0  0  0  0  0  0  0  0  0
  -29.5758  -24.3578   18.1805 C   0  0  0  0  0  0  0  0  0  0  0  0
  -24.5364  -28.2173   20.5379 C   0  0  0  0  0  0  0  0  0  0  0  0
  -22.6297  -23.4833   22.5517 C   0  0  0  0  0  0  0  0  0  0  0  0
  -25.4265  -12.0539   20.7296 C   0  0  0  0  0  0  0  0  0  0  0  0
  -22.3225  -27.9721   19.5640 C   0  0  0  0  0  0  0  0  0  0  0  0
  -24.4438   -9.9403   21.0282 C   0  0  0  0  0  0  0  0  0  0  0  0
  -22.1415   -8.3753   21.2084 C   0  0  0  0  0  0  0  0  0  0  0  0
  -24.1831   -9.2145   22.1905 C   0  0  0  0  0  0  0  0  0  0  0  0
  -24.9298  -16.2054   20.0845 C   0  0  0  0  0  0  0  0  0  0  0  0
  -21.7641  -25.2126   23.9362 C   0  0  0  0  0  0  0  0  0  0  0  0
  -20.3865  -24.2517   22.3687 C   0  0  0  0  0  0  0  0  0  0  0  0
  -24.2752  -18.1703   19.3457 C   0  0  0  0  0  0  0  0  0  0  0  0
  -19.4142  -26.1572   20.4204 C   0  0  0  0  0  0  0  0  0  0  0  0
  -20.5028  -26.5127   19.7360 C   0  0  0  0  0  0  0  0  0  1  0  0
  -23.1443  -16.2382   18.2337 C   0  0  0  0  0  0  0  0  0  0  0  0
  -27.5169  -26.5779   20.2983 C   0  0  0  0  0  0  0  0  0  0  0  0
  -27.7141  -28.9009   22.5537 C   0  0  0  0  0  0  0  0  0  0  0  0
  -26.1506  -31.3749   24.3092 C   0  0  0  0  0  0  0  0  0  0  0  0
  -24.9829  -22.5900   22.6575 C   0  0  0  0  0  0  0  0  0  0  0  0
  -31.8160  -23.9981   19.3393 C   0  0  0  0  0  0  0  0  0  0  0  0
  -26.5576  -28.5577   19.0669 C   0  0  0  0  0  0  0  0  0  0  0  0
  -25.3968  -28.2803   21.7726 C   0  0  0  0  0  0  0  0  0  0  0  0
  -31.1878  -24.6556   20.5654 C   0  0  0  0  0  0  0  0  0  0  0  0
  -27.8609  -20.6173   21.9489 C   0  0  0  0  0  0  0  0  0  0  0  0
  -29.7302  -24.2300   20.7114 C   0  0  0  0  0  0  0  0  0  0  0  0
  -27.2835  -19.3446   21.3251 C   0  0  0  0  0  0  0  0  0  0  0  0
  -26.9701  -21.1554   23.0671 C   0  0  0  0  0  0  0  0  0  0  0  0
  -24.9860  -20.0851   22.0735 C   0  0  0  0  0  0  0  0  0  0  0  0
  -28.9023  -24.6721   19.4987 C   0  0  1  0  0  0  0  0  0  0  0  0
  -27.3884  -28.0742   20.2515 C   0  0  1  0  0  0  0  0  0  0  0  0
  -25.8156  -19.5420   20.8986 C   0  0  2  0  0  0  0  0  0  0  0  0
  -21.9428  -26.2125   25.0292 C   0  0  0  0  0  0  0  0  0  0  0  0
  -26.5606  -33.0731   26.1107 C   0  0  0  0  0  0  0  0  0  0  0  0
  -27.5948  -26.6942   24.6576 C   0  0  0  0  0  0  0  0  0  0  0  0
  -27.0527  -28.4453   26.3629 C   0  0  0  0  0  0  0  0  0  0  0  0
  -29.2321  -28.5190   25.1515 C   0  0  0  0  0  0  0  0  0  0  0  0
  -25.5284  -33.6252   22.4905 C   0  0  0  0  0  0  0  0  0  0  0  0
  -19.0334  -24.1886   21.7236 C   0  0  0  0  0  0  0  0  0  0  0  0
  -27.1080  -29.1198   23.9189 C   0  0  1  0  0  0  0  0  0  0  0  0
  -26.5573  -32.8054   24.6136 C   0  0  2  0  0  0  0  0  0  0  0  0
  -27.7306  -28.1914   24.9996 C   0  0  0  0  0  0  0  0  0  0  0  0
  -25.6419  -17.0842   20.7949 N   0  0  0  0  0  0  0  0  0  0  0  0
  -20.5432  -25.1596   23.3581 N   0  0  0  0  0  0  0  0  0  0  0  0
  -25.2216  -18.2702   20.3226 N   0  0  0  0  0  0  0  0  0  0  0  0
  -26.8345  -28.4956   21.5399 N   0  0  0  0  0  0  0  0  0  0  0  0
  -25.5958  -21.3210   22.5889 N   0  0  0  0  0  0  0  0  0  0  0  0
  -23.7439  -19.2653   18.7616 N   0  0  0  0  0  0  0  0  0  0  0  0
  -23.0499  -14.8409   18.1792 N   0  0  0  0  0  0  0  0  0  0  0  0
  -23.6873  -22.6331   22.1435 N   0  0  0  0  0  0  0  0  0  0  0  0
  -28.5923  -26.0830   19.5855 N   0  0  0  0  0  0  0  0  0  0  0  0
  -27.2459  -30.5440   24.2032 N   0  0  0  0  0  0  0  0  0  0  0  0
  -19.0030  -24.8076   20.3708 N   0  3  0  0  0  0  0  0  0  0  0  0
  -25.6138  -33.7609   23.9674 N   0  3  0  0  0  0  0  0  0  0  0  0
  -22.4413  -16.9317   17.4600 O   0  0  0  0  0  0  0  0  0  0  0  0
  -26.7016  -25.9211   20.9351 O   0  0  0  0  0  0  0  0  0  0  0  0
  -28.9223  -29.0897   22.3912 O   0  0  0  0  0  0  0  0  0  0  0  0
  -24.9783  -31.0284   24.1820 O   0  0  0  0  0  0  0  0  0  0  0  0
  -25.5744  -23.5727   23.1119 O   0  0  0  0  0  0  0  0  0  0  0  0
  -25.5858  -10.7183   20.9375 O   0  0  0  0  0  0  0  0  0  0  0  0
  -20.9826  -27.7923   19.7196 O   0  0  0  0  0  0  0  0  0  1  0  0
  -21.0352   -7.6251   21.2954 F   0  0  0  0  0  0  0  0  0  0  0  0
  -25.0343   -9.2660   23.2242 F   0  0  0  0  0  0  0  0  0  0  0  0
  1  2  1  0  0  0  0
  1  5  2  0  0  0  0
  2  6  2  0  0  0  0
  3  8  2  0  0  0  0
  3 17  1  0  0  0  0
  4  9  1  0  0  0  0
  4 17  2  0  0  0  0
  5 19  1  0  0  0  0
  6 21  1  0  0  0  0
  7 10  2  0  0  0  0
  7 20  1  0  0  0  0
  8 24  1  0  0  0  0
  9 24  2  0  0  0  0
 10 25  1  0  0  0  0
 11 12  2  0  0  0  0
 11 26  1  0  0  0  0
 12 27  1  0  0  0  0
 13 22  1  0  0  0  0
 13 25  2  0  0  0  0
 14 23  1  0  0  0  0
 14 30  2  0  0  0  0
 15 23  2  0  0  0  0
 15 31  1  0  0  0  0
 16 27  2  0  0  0  0
 16 28  1  0  0  0  0
 17 29  1  0  0  0  0
 18 29  1  0  0  0  0
 18 32  2  0  0  0  0
 18 35  1  0  0  0  0
 19 21  2  0  0  0  0
 19 40  1  0  0  0  0
 20 22  2  0  0  0  0
 20 41  1  0  0  0  0
 21 49  1  0  0  0  0
 22 42  1  0  0  0  0
 23 69  1  0  0  0  0
 24 79  1  0  0  0  0
 25 80  1  0  0  0  0
 26 28  2  0  0  0  0
 26 79  1  0  0  0  0
 27 81  1  0  0  0  0
 28 82  1  0  0  0  0
 29 62  2  0  0  0  0
 30 52  1  0  0  0  0
 30 63  1  0  0  0  0
 31 58  1  0  0  0  0
 31 63  2  0  0  0  0
 32 64  1  0  0  0  0
 32 67  1  0  0  0  0
 33 34  2  0  0  0  0
 33 72  1  0  0  0  0
 34 80  1  0  0  0  0
 35 68  1  0  0  0  0
 35 74  2  0  0  0  0
 36 50  1  0  0  0  0
 36 70  1  0  0  0  0
 36 75  2  0  0  0  0
 37 59  1  0  0  0  0
 37 65  1  0  0  0  0
 37 76  2  0  0  0  0
 38 60  1  0  0  0  0
 38 71  1  0  0  0  0
 38 77  2  0  0  0  0
 39 66  1  0  0  0  0
 39 69  1  0  0  0  0
 39 78  2  0  0  0  0
 40 43  1  0  0  0  0
 41 50  1  0  0  0  0
 42 65  1  0  0  0  0
 43 45  1  0  0  0  0
 44 46  1  0  0  0  0
 44 47  1  0  0  0  0
 45 49  1  0  0  0  0
 46 51  1  0  0  0  0
 47 66  1  0  0  0  0
 48 51  1  0  0  0  0
 48 66  1  0  0  0  0
 49 70  1  0  0  0  0
 50 65  1  0  0  0  0
 51 64  1  0  0  0  0
 53 60  1  0  0  0  0
 54 61  1  0  0  0  0
 55 61  1  0  0  0  0
 56 61  1  0  0  0  0
 57 73  1  0  0  0  0
 58 72  1  0  0  0  0
 59 61  1  0  0  0  0
 59 71  1  0  0  0  0
 60 73  1  0  0  0  0
 62 64  1  0  0  0  0
M  CHG  2  72   1  73   1
M  ISO  4  34 101  39 100  69 100  80 101
M  END
> <Batch ID>
0115

> <Smiles>
CNC(C)C(=O)NC(C(=O)N1Cc2cc([101O:1][101CH:1]=CNCc3cc([100NH:0][100C:0](=O)N4CCCC(n5nc(-c6ccc(Oc7ccc(F)cc7F)cc6)c(C(N)=O)c5N)C4)cc(C)n3)ccc2CC1C(=O)NC1CCCc2ccccc21)C(C)(C)C

> <Shape>
0.231

> <Color>
0.070

> <Negative vol penalty>
0.000

$$$$

  -OEChem-04052301403D

 82 90  0     1  0  0  0  0  0999 V2000
  -25.2872  -11.1230   20.3629 C   0  0  0  0  0  0  0  0  0  0  0  0
  -24.6961  -12.0491   19.5095 C   0  0  0  0  0  0  0  0  0  0  0  0
  -25.7132  -28.4569   21.6430 C   0  0  0  0  0  0  0  0  0  0  0  0
  -25.1101  -27.8965   19.3716 C   0  0  0  0  0  0  0  0  0  0  0  0
  -25.9350  -11.5563   21.5189 C   0  0  0  0  0  0  0  0  0  0  0  0
  -24.7514  -13.4091   19.8124 C   0  0  0  0  0  0  0  0  0  0  0  0
  -25.2040  -18.0497   15.8417 C   0  0  0  0  0  0  0  0  0  0  0  0
  -26.9477  -27.8312   21.4696 C   0  0  0  0  0  0  0  0  0  0  0  0
  -26.3446  -27.2709   19.1981 C   0  0  0  0  0  0  0  0  0  0  0  0
  -24.2553  -18.9140   15.2970 C   0  0  0  0  0  0  0  0  0  0  0  0
  -30.4010  -26.6962   21.5094 C   0  0  0  0  0  0  0  0  0  0  0  0
  -31.5358  -27.3608   21.9741 C   0  0  0  0  0  0  0  0  0  0  0  0
  -18.7882  -24.0342   19.7793 C   0  0  0  0  0  0  0  0  0  0  0  0
  -19.3597  -23.0690   18.9008 C   0  0  0  0  0  0  0  0  0  0  0  0
  -24.7826  -20.5499   16.9896 C   0  0  0  0  0  0  0  0  0  0  0  0
  -31.0584  -29.2103   20.4947 C   0  0  0  0  0  0  0  0  0  0  0  0
  -24.7943  -28.4895   20.5940 C   0  0  0  0  0  0  0  0  0  0  0  0
  -23.2066  -30.4849   20.5225 C   0  0  0  0  0  0  0  0  0  0  0  0
  -26.0067  -12.9230   21.8312 C   0  0  0  0  0  0  0  0  0  0  0  0
  -25.9427  -18.4253   16.9730 C   0  0  0  0  0  0  0  0  0  0  0  0
  -25.3996  -13.8610   20.9745 C   0  0  0  0  0  0  0  0  0  0  0  0
  -25.7419  -19.6895   17.5452 C   0  0  0  0  0  0  0  0  0  0  0  0
  -27.2635  -27.2382   20.2472 C   0  0  0  0  0  0  0  0  0  0  0  0
  -24.0424  -20.1631   15.8727 C   0  0  0  0  0  0  0  0  0  0  0  0
  -29.5949  -27.2886   20.5373 C   0  0  0  0  0  0  0  0  0  0  0  0
  -31.8646  -28.6179   21.4668 C   0  0  0  0  0  0  0  0  0  0  0  0
  -29.9236  -28.5457   20.0300 C   0  0  0  0  0  0  0  0  0  0  0  0
  -23.5187  -29.1352   20.7727 C   0  0  0  0  0  0  0  0  0  0  0  0
  -18.3873  -25.1696   19.1102 C   0  0  0  0  0  0  0  0  0  0  0  0
  -21.8767  -30.5958   20.8473 C   0  0  0  0  0  0  0  0  0  0  0  0
  -19.3737  -23.5034   17.5935 C   0  0  0  0  0  0  0  0  0  0  0  0
  -24.0440  -31.5438   20.0394 C   0  0  0  0  0  0  0  0  0  0  0  0
  -17.7761  -26.3486   19.6330 C   0  0  0  0  0  0  0  0  0  0  0  0
  -17.4735  -26.5095   21.0738 C   0  0  0  0  0  0  0  0  0  0  0  0
  -26.2359  -17.3063   19.9337 C   0  0  0  0  0  0  0  0  0  0  0  0
  -28.5441  -19.5756   20.1459 C   0  0  0  0  0  0  0  0  0  0  0  0
  -20.4244  -21.6173   16.2963 C   0  0  0  0  0  0  0  0  0  0  0  0
  -29.8162  -22.5298   19.0051 C   0  0  0  0  0  0  0  0  0  0  0  0
  -26.6768  -13.3398   23.1165 C   0  0  0  0  0  0  0  0  0  0  0  0
  -26.9812  -17.4921   17.5324 C   0  0  0  0  0  0  0  0  0  0  0  0
  -26.5233  -20.1486   18.7482 C   0  0  0  0  0  0  0  0  0  0  0  0
  -27.0154  -14.8273   23.1722 C   0  0  0  0  0  0  0  0  0  0  0  0
  -18.5368  -28.7130   23.6950 C   0  0  0  0  0  0  0  0  0  0  0  0
  -25.8257  -15.6633   22.7111 C   0  0  0  0  0  0  0  0  0  0  0  0
  -19.9237  -29.1632   23.2370 C   0  0  0  0  0  0  0  0  0  0  0  0
  -18.2530  -27.2723   23.2827 C   0  0  0  0  0  0  0  0  0  0  0  0
  -19.7965  -27.4728   21.3523 C   0  0  0  0  0  0  0  0  0  0  0  0
  -25.4599  -15.3467   21.2560 C   0  0  1  0  0  0  0  0  0  0  0  0
  -27.3119  -17.7738   18.9949 C   0  0  1  0  0  0  0  0  0  0  0  0
  -20.1083  -28.9323   21.7266 C   0  0  2  0  0  0  0  0  0  0  0  0
  -31.6908  -24.1506   19.3999 C   0  0  0  0  0  0  0  0  0  0  0  0
  -27.1171  -20.6162   22.6340 C   0  0  0  0  0  0  0  0  0  0  0  0
  -28.4388  -22.7319   22.4221 C   0  0  0  0  0  0  0  0  0  0  0  0
  -29.6114  -20.5641   22.8071 C   0  0  0  0  0  0  0  0  0  0  0  0
  -30.8760  -22.1497   16.2681 C   0  0  0  0  0  0  0  0  0  0  0  0
  -20.7845  -21.3302   14.8430 C   0  0  0  0  0  0  0  0  0  0  0  0
  -21.9914  -20.4161   14.6958 C   0  0  0  0  0  0  0  0  0  1  0  0
  -28.5792  -21.0306   20.5468 C   0  0  1  0  0  0  0  0  0  0  0  0
  -31.2256  -22.9351   18.6132 C   0  0  2  0  0  0  0  0  0  0  0  0
  -28.4204  -21.2266   22.0810 C   0  0  0  0  0  0  0  0  0  0  0  0
  -22.4714  -28.4385   21.2221 N   0  0  0  0  0  0  0  0  0  0  0  0
  -17.4282  -27.3926   18.9025 N   0  0  0  0  0  0  0  0  0  0  0  0
  -21.4883  -29.3541   21.2569 N   0  0  0  0  0  0  0  0  0  0  0  0
  -18.4725  -27.0792   21.8507 N   0  0  0  0  0  0  0  0  0  0  0  0
  -27.5229  -19.1979   19.2625 N   0  0  0  0  0  0  0  0  0  0  0  0
  -21.0134  -31.6332   20.8199 N   0  0  0  0  0  0  0  0  0  0  0  0
  -25.3860  -31.2572   19.7545 N   0  0  0  0  0  0  0  0  0  0  0  0
  -19.8421  -22.8765   16.4143 N   0  0  0  0  0  0  0  0  0  0  0  0
  -26.3824  -15.9969   20.3500 N   0  0  0  0  0  0  0  0  0  0  0  0
  -29.8173  -21.5749   19.9999 N   0  0  0  0  0  0  0  0  0  0  0  0
  -31.2850  -23.2643   17.1610 N   0  3  0  0  0  0  0  0  0  0  0  0
  -23.6189  -32.7133   19.8811 O   0  0  0  0  0  0  0  0  0  0  0  0
  -16.3682  -26.1200   21.4272 O   0  0  0  0  0  0  0  0  0  0  0  0
  -25.3399  -18.0771   20.2575 O   0  0  0  0  0  0  0  0  0  0  0  0
  -29.3957  -18.8040   20.5942 O   0  0  0  0  0  0  0  0  0  0  0  0
  -20.6427  -20.8112   17.1944 O   0  0  0  0  0  0  0  0  0  0  0  0
  -28.8144  -23.0146   18.4838 O   0  0  0  0  0  0  0  0  0  0  0  0
  -28.4681  -26.6278   20.0775 O   0  0  0  0  0  0  0  0  0  0  0  0
  -23.1166  -21.0084   15.3433 O   0  0  0  0  0  0  0  0  0  1  0  0
  -32.9535  -29.2567   21.9143 F   0  0  0  0  0  0  0  0  0  0  0  0
  -29.1524  -29.1203   19.0969 F   0  0  0  0  0  0  0  0  0  0  0  0
  -18.7000  -25.0691   17.4296 S   0  0  0  0  0  0  0  0  0  0  0  0
  1  2  1  0  0  0  0
  1  5  2  0  0  0  0
  2  6  2  0  0  0  0
  3  8  2  0  0  0  0
  3 17  1  0  0  0  0
  4  9  1  0  0  0  0
  4 17  2  0  0  0  0
  5 19  1  0  0  0  0
  6 21  1  0  0  0  0
  7 10  2  0  0  0  0
  7 20  1  0  0  0  0
  8 23  1  0  0  0  0
  9 23  2  0  0  0  0
 10 24  1  0  0  0  0
 11 12  2  0  0  0  0
 11 25  1  0  0  0  0
 12 26  1  0  0  0  0
 13 14  1  0  0  0  0
 13 29  2  0  0  0  0
 14 31  2  0  0  0  0
 15 22  1  0  0  0  0
 15 24  2  0  0  0  0
 16 26  2  0  0  0  0
 16 27  1  0  0  0  0
 17 28  1  0  0  0  0
 18 28  1  0  0  0  0
 18 30  2  0  0  0  0
 18 32  1  0  0  0  0
 19 21  2  0  0  0  0
 19 39  1  0  0  0  0
 20 22  2  0  0  0  0
 20 40  1  0  0  0  0
 21 48  1  0  0  0  0
 22 41  1  0  0  0  0
 23 78  1  0  0  0  0
 24 79  1  0  0  0  0
 25 27  2  0  0  0  0
 25 78  1  0  0  0  0
 26 80  1  0  0  0  0
 27 81  1  0  0  0  0
 28 61  2  0  0  0  0
 29 33  1  0  0  0  0
 29 82  1  0  0  0  0
 30 63  1  0  0  0  0
 30 66  1  0  0  0  0
 31 68  1  0  0  0  0
 31 82  1  0  0  0  0
 32 67  1  0  0  0  0
 32 72  2  0  0  0  0
 33 34  1  0  0  0  0
 33 62  2  0  0  0  0
 34 64  1  0  0  0  0
 34 73  2  0  0  0  0
 35 49  1  0  0  0  0
 35 69  1  0  0  0  0
 35 74  2  0  0  0  0
 36 58  1  0  0  0  0
 36 65  1  0  0  0  0
 36 75  2  0  0  0  0
 37 56  1  0  0  0  0
 37 68  1  0  0  0  0
 37 76  2  0  0  0  0
 38 59  1  0  0  0  0
 38 70  1  0  0  0  0
 38 77  2  0  0  0  0
 39 42  1  0  0  0  0
 40 49  1  0  0  0  0
 41 65  1  0  0  0  0
 42 44  1  0  0  0  0
 43 45  1  0  0  0  0
 43 46  1  0  0  0  0
 44 48  1  0  0  0  0
 45 50  1  0  0  0  0
 46 64  1  0  0  0  0
 47 50  1  0  0  0  0
 47 64  1  0  0  0  0
 48 69  1  0  0  0  0
 49 65  1  0  0  0  0
 50 63  1  0  0  0  0
 51 59  1  0  0  0  0
 52 60  1  0  0  0  0
 53 60  1  0  0  0  0
 54 60  1  0  0  0  0
 55 71  1  0  0  0  0
 56 57  1  0  0  0  0
 57 79  1  0  0  0  0
 58 60  1  0  0  0  0
 58 70  1  0  0  0  0
 59 71  1  0  0  0  0
 61 63  1  0  0  0  0
M  CHG  1  71   1
M  ISO  4  33 100  34 100  57 101  79 101
M  END
> <Batch ID>
0115

> <Smiles>
CNC(C)C(=O)NC(C(=O)N1Cc2cc([101O:1][101CH2:1]CC(=O)Nc3ccc([100C:0](=N)[100C:0](=O)N4CCCC(n5nc(-c6ccc(Oc7ccc(F)cc7F)cc6)c(C(N)=O)c5N)C4)s3)ccc2CC1C(=O)NC1CCCc2ccccc21)C(C)(C)C

> <Shape>
0.227

> <Color>
0.090

> <Negative vol penalty>
0.000

$$$$

  -OEChem-04052301403D

 86 95  0     1  0  0  0  0  0999 V2000
  -26.5525  -33.4845   13.0471 C   0  0  0  0  0  0  0  0  0  0  0  0
  -26.4651  -32.3437   13.8385 C   0  0  0  0  0  0  0  0  0  0  0  0
  -24.8260   -8.8236   21.1937 C   0  0  0  0  0  0  0  0  0  0  0  0
  -23.1850  -10.1562   20.0239 C   0  0  0  0  0  0  0  0  0  0  0  0
  -27.1349  -34.6434   13.5587 C   0  0  0  0  0  0  0  0  0  0  0  0
  -26.9612  -32.3607   15.1415 C   0  0  0  0  0  0  0  0  0  0  0  0
  -23.7941  -30.2067   18.4544 C   0  0  0  0  0  0  0  0  0  0  0  0
  -23.8572  -24.0132   20.7850 C   0  0  0  0  0  0  0  0  0  0  0  0
  -23.7344  -22.6302   20.6515 C   0  0  0  0  0  0  0  0  0  0  0  0
  -23.8248   -7.9357   21.5869 C   0  0  0  0  0  0  0  0  0  0  0  0
  -22.1837   -9.2682   20.4171 C   0  0  0  0  0  0  0  0  0  0  0  0
  -23.7631  -28.8134   18.4921 C   0  0  0  0  0  0  0  0  0  0  0  0
  -21.3914   -7.8049   23.9291 C   0  0  0  0  0  0  0  0  0  0  0  0
  -21.3861   -7.3827   25.2585 C   0  0  0  0  0  0  0  0  0  0  0  0
  -26.1090  -23.8970   19.9172 C   0  0  0  0  0  0  0  0  0  0  0  0
  -25.1900  -28.8403   20.4370 C   0  0  0  0  0  0  0  0  0  0  0  0
  -21.6391   -5.0924   24.5322 C   0  0  0  0  0  0  0  0  0  0  0  0
  -23.9381  -18.5207   19.4639 C   0  0  0  0  0  0  0  0  0  0  0  0
  -24.5062   -9.9339   20.4122 C   0  0  0  0  0  0  0  0  0  0  0  0
  -25.9862  -22.5140   19.7837 C   0  0  0  0  0  0  0  0  0  0  0  0
  -26.3217  -10.7886   18.8371 C   0  0  0  0  0  0  0  0  0  0  0  0
  -27.6297  -34.6776   14.8719 C   0  0  0  0  0  0  0  0  0  0  0  0
  -24.5334  -30.9282   19.4028 C   0  0  0  0  0  0  0  0  0  0  0  0
  -27.5521  -33.5207   15.6707 C   0  0  0  0  0  0  0  0  0  0  0  0
  -25.2267  -30.2428   20.4106 C   0  0  0  0  0  0  0  0  0  0  0  0
  -25.0445  -24.6466   20.4179 C   0  0  0  0  0  0  0  0  0  0  0  0
  -24.7988  -21.8806   20.1509 C   0  0  0  0  0  0  0  0  0  0  0  0
  -22.5036   -8.1580   21.1986 C   0  0  0  0  0  0  0  0  0  0  0  0
  -24.4635  -28.1299   19.4817 C   0  0  0  0  0  0  0  0  0  0  0  0
  -21.5205   -6.8708   22.9012 C   0  0  0  0  0  0  0  0  0  0  0  0
  -21.5100   -6.0264   25.5601 C   0  0  0  0  0  0  0  0  0  0  0  0
  -21.6444   -5.5146   23.2027 C   0  0  0  0  0  0  0  0  0  0  0  0
  -25.5400  -10.8518   20.0062 C   0  0  0  0  0  0  0  0  0  0  0  0
  -23.7105  -19.8621   19.2758 C   0  0  0  0  0  0  0  0  0  0  0  0
  -25.0312  -18.4700   20.3495 C   0  0  0  0  0  0  0  0  0  0  0  0
  -27.1499  -11.8813   18.9184 C   0  0  0  0  0  0  0  0  0  0  0  0
  -28.3064  -21.7218   19.8482 C   0  0  0  0  0  0  0  0  0  0  0  0
  -27.1237  -21.7685   19.2559 C   0  0  0  0  0  0  0  0  0  0  0  0
  -26.3011   -9.8281   17.7728 C   0  0  0  0  0  0  0  0  0  0  0  0
  -27.0066  -32.9209   19.2756 C   0  0  0  0  0  0  0  0  0  0  0  0
  -26.3913  -33.2673   22.4417 C   0  0  0  0  0  0  0  0  0  0  0  0
  -25.0378  -31.9622   25.2898 C   0  0  0  0  0  0  0  0  0  0  0  0
  -26.6962  -17.1492   21.7021 C   0  0  0  0  0  0  0  0  0  0  0  0
  -28.2935  -35.9389   15.3650 C   0  0  0  0  0  0  0  0  0  0  0  0
  -24.5350  -32.4318   19.3644 C   0  0  0  0  0  0  0  0  0  0  0  0
  -26.0190  -30.9713   21.4642 C   0  0  0  0  0  0  0  0  0  0  0  0
  -28.4568  -35.9883   16.8820 C   0  0  0  0  0  0  0  0  0  0  0  0
  -29.2802  -14.7356   22.1199 C   0  0  0  0  0  0  0  0  0  0  0  0
  -29.0129  -34.6666   17.4023 C   0  0  0  0  0  0  0  0  0  0  0  0
  -28.6877  -13.4615   21.5134 C   0  0  0  0  0  0  0  0  0  0  0  0
  -28.2226  -15.5604   22.8513 C   0  0  0  0  0  0  0  0  0  0  0  0
  -26.4335  -14.6025   21.4546 C   0  0  0  0  0  0  0  0  0  0  0  0
  -28.0564  -33.5075   17.0974 C   0  0  1  0  0  0  0  0  0  0  0  0
  -25.7387  -33.0463   20.0721 C   0  0  1  0  0  0  0  0  0  0  0  0
  -27.4477  -13.7712   20.6521 C   0  0  2  0  0  0  0  0  0  0  0  0
  -22.6999  -20.5585   18.4555 C   0  0  0  0  0  0  0  0  0  0  0  0
  -24.7232  -32.4605   27.7290 C   0  0  0  0  0  0  0  0  0  0  0  0
  -29.3168  -32.5717   22.9586 C   0  0  0  0  0  0  0  0  0  0  0  0
  -28.7219  -32.1546   25.3545 C   0  0  0  0  0  0  0  0  0  0  0  0
  -28.4201  -34.4284   24.3740 C   0  0  0  0  0  0  0  0  0  0  0  0
  -22.0894  -31.9083   25.0394 C   0  0  0  0  0  0  0  0  0  0  0  0
  -25.1758  -26.1344   20.5617 C   0  0  0  0  0  0  0  0  0  1  0  0
  -26.8441  -32.5694   23.7014 C   0  0  1  0  0  0  0  0  0  0  0  0
  -24.1197  -32.5660   26.3371 C   0  0  2  0  0  0  0  0  0  0  0  0
  -28.3125  -32.9169   24.0763 C   0  0  0  0  0  0  0  0  0  0  0  0
  -25.8443  -11.9015   20.7739 N   0  0  0  0  0  0  0  0  0  0  0  0
  -25.4678  -19.6827   20.6996 N   0  0  0  0  0  0  0  0  0  0  0  0
  -24.6450  -20.5081   20.0305 N   0  0  0  0  0  0  0  0  0  0  0  0
  -26.8266  -12.5080   20.0859 N   0  0  0  0  0  0  0  0  0  0  0  0
  -25.9948  -32.4410   21.3806 N   0  0  0  0  0  0  0  0  0  0  0  0
  -27.0799  -15.8186   21.9725 N   0  0  0  0  0  0  0  0  0  0  0  0
  -28.1158  -12.3576   18.1044 N   0  0  0  0  0  0  0  0  0  0  0  0
  -25.3878   -8.7676   17.8475 N   0  0  0  0  0  0  0  0  0  0  0  0
  -25.6170  -17.2716   20.8275 N   0  0  0  0  0  0  0  0  0  0  0  0
  -26.9472  -33.5096   18.0269 N   0  0  0  0  0  0  0  0  0  0  0  0
  -25.8679  -32.9105   24.7305 N   0  0  0  0  0  0  0  0  0  0  0  0
  -22.8052  -31.8638   26.3404 N   0  3  0  0  0  0  0  0  0  0  0  0
  -27.0810   -9.8988   16.7929 O   0  0  0  0  0  0  0  0  0  0  0  0
  -27.9682  -32.3347   19.7589 O   0  0  0  0  0  0  0  0  0  0  0  0
  -26.3827  -34.5002   22.4031 O   0  0  0  0  0  0  0  0  0  0  0  0
  -25.0229  -30.7680   24.9997 O   0  0  0  0  0  0  0  0  0  0  0  0
  -27.2990  -18.1098   22.1876 O   0  0  0  0  0  0  0  0  0  0  0  0
  -21.5264   -7.2916   21.5819 O   0  0  0  0  0  0  0  0  0  0  0  0
  -24.4354  -26.7699   19.5205 O   0  0  0  0  0  0  0  0  0  1  0  0
  -21.5064   -5.6213   26.8368 F   0  0  0  0  0  0  0  0  0  0  0  0
  -21.7699   -4.6127   22.2196 F   0  0  0  0  0  0  0  0  0  0  0  0
  1  2  1  0  0  0  0
  1  5  2  0  0  0  0
  2  6  2  0  0  0  0
  3 10  2  0  0  0  0
  3 19  1  0  0  0  0
  4 11  1  0  0  0  0
  4 19  2  0  0  0  0
  5 22  1  0  0  0  0
  6 24  1  0  0  0  0
  7 12  2  0  0  0  0
  7 23  1  0  0  0  0
  8  9  2  0  0  0  0
  8 26  1  0  0  0  0
  9 27  1  0  0  0  0
 10 28  1  0  0  0  0
 11 28  2  0  0  0  0
 12 29  1  0  0  0  0
 13 14  2  0  0  0  0
 13 30  1  0  0  0  0
 14 31  1  0  0  0  0
 15 20  1  0  0  0  0
 15 26  2  0  0  0  0
 16 25  1  0  0  0  0
 16 29  2  0  0  0  0
 17 31  2  0  0  0  0
 17 32  1  0  0  0  0
 18 34  2  0  0  0  0
 18 35  1  0  0  0  0
 19 33  1  0  0  0  0
 20 27  2  0  0  0  0
 20 38  1  0  0  0  0
 21 33  1  0  0  0  0
 21 36  2  0  0  0  0
 21 39  1  0  0  0  0
 22 24  2  0  0  0  0
 22 44  1  0  0  0  0
 23 25  2  0  0  0  0
 23 45  1  0  0  0  0
 24 53  1  0  0  0  0
 25 46  1  0  0  0  0
 26 62  1  0  0  0  0
 27 68  1  0  0  0  0
 28 83  1  0  0  0  0
 29 84  1  0  0  0  0
 30 32  2  0  0  0  0
 30 83  1  0  0  0  0
 31 85  1  0  0  0  0
 32 86  1  0  0  0  0
 33 66  2  0  0  0  0
 34 56  1  0  0  0  0
 34 68  1  0  0  0  0
 35 67  2  0  0  0  0
 35 74  1  0  0  0  0
 36 69  1  0  0  0  0
 36 72  1  0  0  0  0
 37 38  2  0  0  0  0
 39 73  1  0  0  0  0
 39 78  2  0  0  0  0
 40 54  1  0  0  0  0
 40 75  1  0  0  0  0
 40 79  2  0  0  0  0
 41 63  1  0  0  0  0
 41 70  1  0  0  0  0
 41 80  2  0  0  0  0
 42 64  1  0  0  0  0
 42 76  1  0  0  0  0
 42 81  2  0  0  0  0
 43 71  1  0  0  0  0
 43 74  1  0  0  0  0
 43 82  2  0  0  0  0
 44 47  1  0  0  0  0
 45 54  1  0  0  0  0
 46 70  1  0  0  0  0
 47 49  1  0  0  0  0
 48 50  1  0  0  0  0
 48 51  1  0  0  0  0
 49 53  1  0  0  0  0
 50 55  1  0  0  0  0
 51 71  1  0  0  0  0
 52 55  1  0  0  0  0
 52 71  1  0  0  0  0
 53 75  1  0  0  0  0
 54 70  1  0  0  0  0
 55 69  1  0  0  0  0
 57 64  1  0  0  0  0
 58 65  1  0  0  0  0
 59 65  1  0  0  0  0
 60 65  1  0  0  0  0
 61 77  1  0  0  0  0
 62 84  1  0  0  0  0
 63 65  1  0  0  0  0
 63 76  1  0  0  0  0
 64 77  1  0  0  0  0
 66 69  1  0  0  0  0
 67 68  1  0  0  0  0
M  CHG  1  77   1
M  ISO  4  43 100  62 101  74 100  84 101
M  END
> <Batch ID>
0115

> <Smiles>
C=Cc1cc([101CH2:1][101O:1]c2ccc3c(c2)CN(C(=O)C(NC(=O)C(C)NC)C(C)(C)C)C(C(=O)NC2CCCc4ccccc42)C3)ccc1-n1nc([100NH:0][100C:0](=O)N2CCCC(n3nc(-c4ccc(Oc5ccc(F)cc5F)cc4)c(C(N)=O)c3N)C2)cc1C

> <Shape>
0.220

> <Color>
0.073

> <Negative vol penalty>
0.000

$$$$

  -OEChem-04052301403D

 81 89  0     1  0  0  0  0  0999 V2000
  -31.9867  -33.7371   14.9628 C   0  0  0  0  0  0  0  0  0  0  0  0
  -32.2180  -32.6069   15.7403 C   0  0  0  0  0  0  0  0  0  0  0  0
  -23.0098   -9.8746   19.9952 C   0  0  0  0  0  0  0  0  0  0  0  0
  -23.7243   -9.9616   22.3016 C   0  0  0  0  0  0  0  0  0  0  0  0
  -30.6802  -34.1178   14.6596 C   0  0  0  0  0  0  0  0  0  0  0  0
  -31.1427  -31.8573   16.2160 C   0  0  0  0  0  0  0  0  0  0  0  0
  -30.9439  -25.7855   16.9904 C   0  0  0  0  0  0  0  0  0  0  0  0
  -22.2475   -8.7403   20.2741 C   0  0  0  0  0  0  0  0  0  0  0  0
  -22.9619   -8.8273   22.5805 C   0  0  0  0  0  0  0  0  0  0  0  0
  -31.1135  -24.9771   18.1136 C   0  0  0  0  0  0  0  0  0  0  0  0
  -23.2242   -5.4832   22.1569 C   0  0  0  0  0  0  0  0  0  0  0  0
  -23.8132   -4.4796   22.9259 C   0  0  0  0  0  0  0  0  0  0  0  0
  -28.7216  -24.9118   18.4202 C   0  0  0  0  0  0  0  0  0  0  0  0
  -22.0805   -4.7378   24.5898 C   0  0  0  0  0  0  0  0  0  0  0  0
  -23.7483  -10.4852   21.0090 C   0  0  0  0  0  0  0  0  0  0  0  0
  -24.1224  -12.9999   20.7992 C   0  0  0  0  0  0  0  0  0  0  0  0
  -29.5886  -33.3670   15.1237 C   0  0  0  0  0  0  0  0  0  0  0  0
  -29.6604  -26.1727   16.5794 C   0  0  0  0  0  0  0  0  0  0  0  0
  -29.8203  -32.2291   15.9198 C   0  0  0  0  0  0  0  0  0  0  0  0
  -28.5383  -25.7231   17.2900 C   0  0  0  0  0  0  0  0  0  0  0  0
  -30.6064  -17.9096   20.3698 C   0  0  0  0  0  0  0  0  0  0  0  0
  -22.2235   -8.2166   21.5667 C   0  0  0  0  0  0  0  0  0  0  0  0
  -30.0024  -24.5425   18.8304 C   0  0  0  0  0  0  0  0  0  0  0  0
  -22.0635   -6.1142   22.6043 C   0  0  0  0  0  0  0  0  0  0  0  0
  -23.2413   -4.1068   24.1423 C   0  0  0  0  0  0  0  0  0  0  0  0
  -21.4916   -5.7415   23.8207 C   0  0  0  0  0  0  0  0  0  0  0  0
  -24.5364  -11.6566   20.7214 C   0  0  0  0  0  0  0  0  0  0  0  0
  -30.6205  -19.1962   20.9410 C   0  0  0  0  0  0  0  0  0  0  0  0
  -25.2304  -13.7226   20.4296 C   0  0  0  0  0  0  0  0  0  0  0  0
  -30.2389  -17.0801   21.4010 C   0  0  0  0  0  0  0  0  0  0  0  0
  -30.9612  -20.4275   20.2090 C   0  0  0  0  0  0  0  0  0  0  0  0
  -30.9587  -21.6641   20.7307 C   0  0  0  0  0  0  0  0  0  0  0  0
  -22.8501  -13.5456   21.1722 C   0  0  0  0  0  0  0  0  0  0  0  0
  -28.1495  -28.9513   16.2626 C   0  0  0  0  0  0  0  0  0  0  0  0
  -25.8235  -27.0952   14.9715 C   0  0  0  0  0  0  0  0  0  0  0  0
  -24.3820  -24.0119   14.7220 C   0  0  0  0  0  0  0  0  0  0  0  0
  -30.7041  -14.7132   20.6746 C   0  0  0  0  0  0  0  0  0  0  0  0
  -28.1930  -33.8446   14.8096 C   0  0  0  0  0  0  0  0  0  0  0  0
  -29.4929  -27.0231   15.3500 C   0  0  0  0  0  0  0  0  0  0  0  0
  -27.1379  -26.0940   16.8782 C   0  0  0  0  0  0  0  0  0  0  0  0
  -27.1199  -32.7835   15.0393 C   0  0  0  0  0  0  0  0  0  0  0  0
  -29.6081  -12.2226   18.3784 C   0  0  0  0  0  0  0  0  0  0  0  0
  -27.3280  -32.0965   16.3853 C   0  0  0  0  0  0  0  0  0  0  0  0
  -28.1568  -11.9638   18.7897 C   0  0  0  0  0  0  0  0  0  0  0  0
  -30.5019  -12.4872   19.5887 C   0  0  0  0  0  0  0  0  0  0  0  0
  -28.5768  -13.2856   20.9024 C   0  0  0  0  0  0  0  0  0  0  0  0
  -28.6808  -31.3760   16.4337 C   0  0  1  0  0  0  0  0  0  0  0  0
  -28.1683  -27.7794   15.3225 C   0  0  1  0  0  0  0  0  0  0  0  0
  -27.6255  -13.0779   19.7127 C   0  0  2  0  0  0  0  0  0  0  0  0
  -30.9146  -17.5223   18.9797 C   0  0  0  0  0  0  0  0  0  0  0  0
  -22.4722  -22.8136   13.6201 C   0  0  0  0  0  0  0  0  0  0  0  0
  -23.8871  -28.3513   16.9671 C   0  0  0  0  0  0  0  0  0  0  0  0
  -22.2873  -26.4876   16.4817 C   0  0  0  0  0  0  0  0  0  0  0  0
  -22.9631  -28.0547   14.6622 C   0  0  0  0  0  0  0  0  0  0  0  0
  -29.6691  -17.4880   23.8163 C   0  0  0  0  0  0  0  0  0  0  0  0
  -26.2093  -22.1890   13.2740 C   0  0  0  0  0  0  0  0  0  0  0  0
  -31.2994  -22.8882   19.9426 C   0  0  0  0  0  0  0  0  0  1  0  0
  -24.6265  -26.3508   15.5120 C   0  0  1  0  0  0  0  0  0  0  0  0
  -23.9390  -23.2016   13.5172 C   0  0  2  0  0  0  0  0  0  0  0  0
  -23.4674  -27.3055   15.9149 C   0  0  0  0  0  0  0  0  0  0  0  0
  -25.8081  -11.5307   20.3327 N   0  0  0  0  0  0  0  0  0  0  0  0
  -30.2882  -19.1897   22.2347 N   0  0  0  0  0  0  0  0  0  0  0  0
  -26.2027  -12.8041   20.1629 N   0  0  0  0  0  0  0  0  0  0  0  0
  -30.0618  -17.8888   22.4849 N   0  0  0  0  0  0  0  0  0  0  0  0
  -27.0265  -26.9323   15.6730 N   0  0  0  0  0  0  0  0  0  0  0  0
  -29.9380  -13.5573   20.4145 N   0  0  0  0  0  0  0  0  0  0  0  0
  -25.4580  -15.0479   20.3099 N   0  0  0  0  0  0  0  0  0  0  0  0
  -21.8210  -12.6614   21.5236 N   0  0  0  0  0  0  0  0  0  0  0  0
  -30.0518  -15.6762   21.4438 N   0  0  0  0  0  0  0  0  0  0  0  0
  -28.6146  -30.1271   15.7054 N   0  0  0  0  0  0  0  0  0  0  0  0
  -24.2650  -25.3672   14.4969 N   0  0  0  0  0  0  0  0  0  0  0  0
  -24.7481  -21.9551   13.4054 N   0  3  0  0  0  0  0  0  0  0  0  0
  -22.6274  -14.7801   21.1776 O   0  0  0  0  0  0  0  0  0  0  0  0
  -27.7416  -28.8003   17.4083 O   0  0  0  0  0  0  0  0  0  0  0  0
  -25.6975  -27.7897   13.9598 O   0  0  0  0  0  0  0  0  0  0  0  0
  -24.7874  -23.4943   15.7603 O   0  0  0  0  0  0  0  0  0  0  0  0
  -31.8442  -14.8512   20.2238 O   0  0  0  0  0  0  0  0  0  0  0  0
  -21.4795   -7.1099   21.8393 O   0  0  0  0  0  0  0  0  0  0  0  0
  -30.1651  -23.7539   19.9274 O   0  0  0  0  0  0  0  0  0  1  0  0
  -23.8061   -3.1419   24.8800 F   0  0  0  0  0  0  0  0  0  0  0  0
  -20.3759   -6.3432   24.2552 F   0  0  0  0  0  0  0  0  0  0  0  0
  1  2  1  0  0  0  0
  1  5  2  0  0  0  0
  2  6  2  0  0  0  0
  3  8  2  0  0  0  0
  3 15  1  0  0  0  0
  4  9  1  0  0  0  0
  4 15  2  0  0  0  0
  5 17  1  0  0  0  0
  6 19  1  0  0  0  0
  7 10  2  0  0  0  0
  7 18  1  0  0  0  0
  8 22  1  0  0  0  0
  9 22  2  0  0  0  0
 10 23  1  0  0  0  0
 11 12  2  0  0  0  0
 11 24  1  0  0  0  0
 12 25  1  0  0  0  0
 13 20  1  0  0  0  0
 13 23  2  0  0  0  0
 14 25  2  0  0  0  0
 14 26  1  0  0  0  0
 15 27  1  0  0  0  0
 16 27  1  0  0  0  0
 16 29  2  0  0  0  0
 16 33  1  0  0  0  0
 17 19  2  0  0  0  0
 17 38  1  0  0  0  0
 18 20  2  0  0  0  0
 18 39  1  0  0  0  0
 19 47  1  0  0  0  0
 20 40  1  0  0  0  0
 21 28  1  0  0  0  0
 21 30  2  0  0  0  0
 21 50  1  0  0  0  0
 22 78  1  0  0  0  0
 23 79  1  0  0  0  0
 24 26  2  0  0  0  0
 24 78  1  0  0  0  0
 25 80  1  0  0  0  0
 26 81  1  0  0  0  0
 27 61  2  0  0  0  0
 28 31  1  0  0  0  0
 28 62  2  0  0  0  0
 29 63  1  0  0  0  0
 29 67  1  0  0  0  0
 30 64  1  0  0  0  0
 30 69  1  0  0  0  0
 31 32  2  0  0  0  0
 32 57  1  0  0  0  0
 33 68  1  0  0  0  0
 33 73  2  0  0  0  0
 34 48  1  0  0  0  0
 34 70  1  0  0  0  0
 34 74  2  0  0  0  0
 35 58  1  0  0  0  0
 35 65  1  0  0  0  0
 35 75  2  0  0  0  0
 36 59  1  0  0  0  0
 36 71  1  0  0  0  0
 36 76  2  0  0  0  0
 37 66  1  0  0  0  0
 37 69  1  0  0  0  0
 37 77  2  0  0  0  0
 38 41  1  0  0  0  0
 39 48  1  0  0  0  0
 40 65  1  0  0  0  0
 41 43  1  0  0  0  0
 42 44  1  0  0  0  0
 42 45  1  0  0  0  0
 43 47  1  0  0  0  0
 44 49  1  0  0  0  0
 45 66  1  0  0  0  0
 46 49  1  0  0  0  0
 46 66  1  0  0  0  0
 47 70  1  0  0  0  0
 48 65  1  0  0  0  0
 49 63  1  0  0  0  0
 51 59  1  0  0  0  0
 52 60  1  0  0  0  0
 53 60  1  0  0  0  0
 54 60  1  0  0  0  0
 55 64  1  0  0  0  0
 56 72  1  0  0  0  0
 57 79  1  0  0  0  0
 58 60  1  0  0  0  0
 58 71  1  0  0  0  0
 59 72  1  0  0  0  0
 61 63  1  0  0  0  0
 62 64  1  0  0  0  0
M  CHG  1  72   1
M  ISO  4  37 100  57 101  69 100  79 101
M  END
> <Batch ID>
0115

> <Smiles>
CNC(C)C(=O)NC(C(=O)N1Cc2cc([101O:1][101CH2:1]C=Cc3nn(C)c([100NH:0][100C:0](=O)N4CCCC(n5nc(-c6ccc(Oc7ccc(F)cc7F)cc6)c(C(N)=O)c5N)C4)c3C)ccc2CC1C(=O)NC1CCCc2ccccc21)C(C)(C)C

> <Shape>
0.229

> <Color>
0.204

> <Negative vol penalty>
0.000

$$$$

  -OEChem-04052301403D

 90 98  0     1  0  0  0  0  0999 V2000
  -28.8547  -11.2790   20.0840 C   0  0  0  0  0  0  0  0  0  0  0  0
  -29.0363  -12.6577   20.0441 C   0  0  0  0  0  0  0  0  0  0  0  0
  -28.4065  -23.8802   20.1258 C   0  0  0  0  0  0  0  0  0  0  0  0
  -30.4042  -24.6908   19.0354 C   0  0  0  0  0  0  0  0  0  0  0  0
  -27.5752  -10.7500   20.2482 C   0  0  0  0  0  0  0  0  0  0  0  0
  -27.9382  -13.5083   20.1673 C   0  0  0  0  0  0  0  0  0  0  0  0
  -26.1137  -19.9284   22.7691 C   0  0  0  0  0  0  0  0  0  0  0  0
  -28.5576  -22.6492   19.4876 C   0  0  0  0  0  0  0  0  0  0  0  0
  -30.5554  -23.4598   18.3972 C   0  0  0  0  0  0  0  0  0  0  0  0
  -25.4889  -21.1115   22.3770 C   0  0  0  0  0  0  0  0  0  0  0  0
  -30.4353  -19.8625   19.8634 C   0  0  0  0  0  0  0  0  0  0  0  0
  -30.2675  -18.7097   20.6305 C   0  0  0  0  0  0  0  0  0  0  0  0
  -21.8882  -27.8261   21.2028 C   0  0  0  0  0  0  0  0  0  0  0  0
  -23.3351  -20.0859   22.7359 C   0  0  0  0  0  0  0  0  0  0  0  0
  -21.0098  -26.7707   23.1907 C   0  0  0  0  0  0  0  0  0  0  0  0
  -28.4522  -18.0181   19.1940 C   0  0  0  0  0  0  0  0  0  0  0  0
  -29.3297  -24.9011   19.8997 C   0  0  0  0  0  0  0  0  0  0  0  0
  -22.0941  -29.0048   21.9195 C   0  0  0  0  0  0  0  0  0  0  0  0
  -21.7579  -29.0665   23.2719 C   0  0  0  0  0  0  0  0  0  0  0  0
  -29.7008  -26.5543   21.8067 C   0  0  0  0  0  0  0  0  0  0  0  0
  -26.4621  -11.5946   20.3832 C   0  0  0  0  0  0  0  0  0  0  0  0
  -25.3526  -18.8098   23.1377 C   0  0  0  0  0  0  0  0  0  0  0  0
  -26.6424  -12.9901   20.3321 C   0  0  0  0  0  0  0  0  0  0  0  0
  -23.9527  -18.8906   23.1347 C   0  0  0  0  0  0  0  0  0  0  0  0
  -21.3459  -26.7090   21.8384 C   0  0  0  0  0  0  0  0  0  0  0  0
  -29.6321  -22.4389   18.6233 C   0  0  0  0  0  0  0  0  0  0  0  0
  -24.0994  -21.1895   22.3576 C   0  0  0  0  0  0  0  0  0  0  0  0
  -29.6116  -20.0931   18.7616 C   0  0  0  0  0  0  0  0  0  0  0  0
  -21.2157  -27.9495   23.9075 C   0  0  0  0  0  0  0  0  0  0  0  0
  -29.2759  -17.7875   20.2958 C   0  0  0  0  0  0  0  0  0  0  0  0
  -28.6201  -19.1709   18.4269 C   0  0  0  0  0  0  0  0  0  0  0  0
  -29.1738  -26.1731   20.5582 C   0  0  0  0  0  0  0  0  0  0  0  0
  -29.2718  -27.8475   21.9801 C   0  0  0  0  0  0  0  0  0  0  0  0
  -22.1259  -24.6881   21.1086 C   0  0  0  0  0  0  0  0  0  0  0  0
  -21.9681  -30.2955   24.0305 C   0  0  0  0  0  0  0  0  0  0  0  0
  -22.6715  -30.1761   21.2114 C   0  0  0  0  0  0  0  0  0  0  0  0
  -30.5063  -25.8063   22.7273 C   0  0  0  0  0  0  0  0  0  0  0  0
  -23.3440  -30.8944   24.1784 C   0  0  0  0  0  0  0  0  0  0  0  0
  -25.0264  -15.8517   22.0209 C   0  0  0  0  0  0  0  0  0  0  0  0
  -23.1936  -15.4709   24.6701 C   0  0  0  0  0  0  0  0  0  0  0  0
  -21.2523  -16.9079   27.0811 C   0  0  0  0  0  0  0  0  0  0  0  0
  -24.6347  -30.9380   19.9118 C   0  0  0  0  0  0  0  0  0  0  0  0
  -25.0926  -10.9759   20.5112 C   0  0  0  0  0  0  0  0  0  0  0  0
  -26.0418  -17.5495   23.5837 C   0  0  0  0  0  0  0  0  0  0  0  0
  -23.0902  -17.7246   23.5407 C   0  0  0  0  0  0  0  0  0  0  0  0
  -24.0284  -11.9499   21.0102 C   0  0  0  0  0  0  0  0  0  0  0  0
  -28.0479  -31.7544   19.4870 C   0  0  0  0  0  0  0  0  0  0  0  0
  -24.1205  -13.2731   20.2568 C   0  0  0  0  0  0  0  0  0  0  0  0
  -28.7768  -30.4556   19.8420 C   0  0  0  0  0  0  0  0  0  0  0  0
  -26.7458  -31.4866   18.7336 C   0  0  0  0  0  0  0  0  0  0  0  0
  -26.5603  -29.2471   19.7376 C   0  0  0  0  0  0  0  0  0  0  0  0
  -25.4793  -13.9456   20.4871 C   0  0  1  0  0  0  0  0  0  0  0  0
  -25.1656  -16.3083   23.4456 C   0  0  1  0  0  0  0  0  0  0  0  0
  -27.8423  -29.4603   20.5587 C   0  0  1  0  0  0  0  0  0  0  0  0
  -24.3886  -30.0202   24.8014 C   0  0  0  0  0  0  0  0  0  0  0  0
  -19.8586  -16.3360   29.0881 C   0  0  0  0  0  0  0  0  0  0  0  0
  -20.9770  -14.4519   22.8375 C   0  0  0  0  0  0  0  0  0  0  0  0
  -19.3587  -14.8028   24.7153 C   0  0  0  0  0  0  0  0  0  0  0  0
  -21.2330  -13.1770   24.9738 C   0  0  0  0  0  0  0  0  0  0  0  0
  -22.9566  -18.5343   28.8726 C   0  0  0  0  0  0  0  0  0  0  0  0
  -20.3321  -26.7983   25.7916 C   0  0  0  0  0  0  0  0  0  0  0  0
  -22.0153  -23.3758   20.3797 C   0  0  0  0  0  0  0  0  0  0  0  0
  -22.2092  -22.2236   21.3509 C   0  0  0  0  0  0  0  0  0  1  0  0
  -21.7307  -15.6557   24.9936 C   0  0  1  0  0  0  0  0  0  0  0  0
  -21.2360  -16.7458   28.5904 C   0  0  2  0  0  0  0  0  0  0  0  0
  -20.8408  -14.5434   24.3705 C   0  0  0  0  0  0  0  0  0  0  0  0
  -28.4641  -27.1454   19.9795 N   0  0  0  0  0  0  0  0  0  0  0  0
  -21.1380  -25.5223   21.1157 N   0  0  0  0  0  0  0  0  0  0  0  0
  -28.5420  -28.1504   20.8684 N   0  0  0  0  0  0  0  0  0  0  0  0
  -23.8110  -16.5123   23.9629 N   0  0  0  0  0  0  0  0  0  0  0  0
  -25.9137  -30.5430   19.4822 N   0  0  0  0  0  0  0  0  0  0  0  0
  -29.4513  -28.7437   22.9736 N   0  0  0  0  0  0  0  0  0  0  0  0
  -30.8565  -24.4911   22.3929 N   0  0  0  0  0  0  0  0  0  0  0  0
  -23.9361  -29.9805   20.6556 N   0  0  0  0  0  0  0  0  0  0  0  0
  -25.5150  -14.5805   21.7872 N   0  0  0  0  0  0  0  0  0  0  0  0
  -21.6425  -15.7473   26.4470 N   0  0  0  0  0  0  0  0  0  0  0  0
  -21.6134  -18.0262   29.2530 N   0  3  0  0  0  0  0  0  0  0  0  0
  -21.0686  -30.9119   24.6061 O   0  0  0  0  0  0  0  0  0  0  0  0
  -22.0096  -31.2066   21.1216 O   0  0  0  0  0  0  0  0  0  0  0  0
  -30.8899  -26.2844   23.8217 O   0  0  0  0  0  0  0  0  0  0  0  0
  -23.5237  -32.0309   23.7693 O   0  0  0  0  0  0  0  0  0  0  0  0
  -24.5122  -16.5970   21.1951 O   0  0  0  0  0  0  0  0  0  0  0  0
  -23.7692  -14.4436   25.0377 O   0  0  0  0  0  0  0  0  0  0  0  0
  -20.9457  -17.9578   26.5206 O   0  0  0  0  0  0  0  0  0  0  0  0
  -24.1698  -32.0596   19.6856 O   0  0  0  0  0  0  0  0  0  0  0  0
  -29.7800  -21.2377   18.0006 O   0  0  0  0  0  0  0  0  0  0  0  0
  -20.8796  -27.9881   25.2280 O   0  0  0  0  0  0  0  0  0  0  0  0
  -23.4870  -22.3428   21.9748 O   0  0  0  0  0  0  0  0  0  1  0  0
  -29.1158  -16.6797   21.0316 F   0  0  0  0  0  0  0  0  0  0  0  0
  -27.8264  -19.3865   17.3688 F   0  0  0  0  0  0  0  0  0  0  0  0
  1  2  1  0  0  0  0
  1  5  2  0  0  0  0
  2  6  2  0  0  0  0
  3  8  2  0  0  0  0
  3 17  1  0  0  0  0
  4  9  1  0  0  0  0
  4 17  2  0  0  0  0
  5 21  1  0  0  0  0
  6 23  1  0  0  0  0
  7 10  2  0  0  0  0
  7 22  1  0  0  0  0
  8 26  1  0  0  0  0
  9 26  2  0  0  0  0
 10 27  1  0  0  0  0
 11 12  2  0  0  0  0
 11 28  1  0  0  0  0
 12 30  1  0  0  0  0
 13 18  1  0  0  0  0
 13 25  2  0  0  0  0
 14 24  1  0  0  0  0
 14 27  2  0  0  0  0
 15 25  1  0  0  0  0
 15 29  2  0  0  0  0
 16 30  2  0  0  0  0
 16 31  1  0  0  0  0
 17 32  1  0  0  0  0
 18 19  2  0  0  0  0
 18 36  1  0  0  0  0
 19 29  1  0  0  0  0
 19 35  1  0  0  0  0
 20 32  1  0  0  0  0
 20 33  2  0  0  0  0
 20 37  1  0  0  0  0
 21 23  2  0  0  0  0
 21 43  1  0  0  0  0
 22 24  2  0  0  0  0
 22 44  1  0  0  0  0
 23 52  1  0  0  0  0
 24 45  1  0  0  0  0
 25 68  1  0  0  0  0
 26 86  1  0  0  0  0
 27 88  1  0  0  0  0
 28 31  2  0  0  0  0
 28 86  1  0  0  0  0
 29 87  1  0  0  0  0
 30 89  1  0  0  0  0
 31 90  1  0  0  0  0
 32 67  2  0  0  0  0
 33 69  1  0  0  0  0
 33 72  1  0  0  0  0
 34 62  1  0  0  0  0
 34 68  2  0  0  0  0
 35 38  1  0  0  0  0
 35 78  2  0  0  0  0
 36 74  1  0  0  0  0
 36 79  2  0  0  0  0
 37 73  1  0  0  0  0
 37 80  2  0  0  0  0
 38 55  1  0  0  0  0
 38 81  2  0  0  0  0
 39 53  1  0  0  0  0
 39 75  1  0  0  0  0
 39 82  2  0  0  0  0
 40 64  1  0  0  0  0
 40 70  1  0  0  0  0
 40 83  2  0  0  0  0
 41 65  1  0  0  0  0
 41 76  1  0  0  0  0
 41 84  2  0  0  0  0
 42 71  1  0  0  0  0
 42 74  1  0  0  0  0
 42 85  2  0  0  0  0
 43 46  1  0  0  0  0
 44 53  1  0  0  0  0
 45 70  1  0  0  0  0
 46 48  1  0  0  0  0
 47 49  1  0  0  0  0
 47 50  1  0  0  0  0
 48 52  1  0  0  0  0
 49 54  1  0  0  0  0
 50 71  1  0  0  0  0
 51 54  1  0  0  0  0
 51 71  1  0  0  0  0
 52 75  1  0  0  0  0
 53 70  1  0  0  0  0
 54 69  1  0  0  0  0
 56 65  1  0  0  0  0
 57 66  1  0  0  0  0
 58 66  1  0  0  0  0
 59 66  1  0  0  0  0
 60 77  1  0  0  0  0
 61 87  1  0  0  0  0
 62 63  1  0  0  0  0
 63 88  1  0  0  0  0
 64 66  1  0  0  0  0
 64 76  1  0  0  0  0
 65 77  1  0  0  0  0
 67 69  1  0  0  0  0
M  CHG  1  77   1
M  ISO  4  42 100  63 101  74 100  88 101
M  END
> <Batch ID>
0115

> <Smiles>
CNC(C)C(=O)NC(C(=O)N1Cc2cc([101O:1][101CH2:1]C=CNc3cc(OC)c(C(=O)C(C)=O)c(C(=O)[100NH:0][100C:0](=O)N4CCCC(n5nc(-c6ccc(Oc7ccc(F)cc7F)cc6)c(C(N)=O)c5N)C4)c3)ccc2CC1C(=O)NC1CCCc2ccccc21)C(C)(C)C

> <Shape>
0.236

> <Color>
0.054

> <Negative vol penalty>
0.000

$$$$

  -OEChem-04052301403D

 84 92  0     1  0  0  0  0  0999 V2000
  -28.0082  -24.0880   20.2988 C   0  0  0  0  0  0  0  0  0  0  0  0
  -27.7183  -37.0508   25.2014 C   0  0  0  0  0  0  0  0  0  0  0  0
  -28.3072  -36.1245   24.3465 C   0  0  0  0  0  0  0  0  0  0  0  0
  -24.7481   -8.3802   21.4958 C   0  0  0  0  0  0  0  0  0  0  0  0
  -23.2147   -9.9765   20.5274 C   0  0  0  0  0  0  0  0  0  0  0  0
  -26.6221  -36.6810   25.9795 C   0  0  0  0  0  0  0  0  0  0  0  0
  -27.8008  -34.8275   24.2702 C   0  0  0  0  0  0  0  0  0  0  0  0
  -26.8923  -29.4537   19.6213 C   0  0  0  0  0  0  0  0  0  0  0  0
  -23.7619   -7.9797   22.3972 C   0  0  0  0  0  0  0  0  0  0  0  0
  -22.2285   -9.5759   21.4288 C   0  0  0  0  0  0  0  0  0  0  0  0
  -27.1555  -28.0913   19.4850 C   0  0  0  0  0  0  0  0  0  0  0  0
  -21.0170   -6.0053   22.3711 C   0  0  0  0  0  0  0  0  0  0  0  0
  -20.8392   -4.6364   22.5713 C   0  0  0  0  0  0  0  0  0  0  0  0
  -25.2086  -27.5880   20.8174 C   0  0  0  0  0  0  0  0  0  0  0  0
  -27.6630  -18.2046   19.0322 C   0  0  0  0  0  0  0  0  0  0  0  0
  -21.3550   -4.9122   24.9155 C   0  0  0  0  0  0  0  0  0  0  0  0
  -25.8118  -19.5679   18.4232 C   0  0  0  0  0  0  0  0  0  0  0  0
  -24.4746   -9.3787   20.5609 C   0  0  0  0  0  0  0  0  0  0  0  0
  -25.7445   -9.2598   18.3517 C   0  0  0  0  0  0  0  0  0  0  0  0
  -26.0961  -35.3816   25.9056 C   0  0  0  0  0  0  0  0  0  0  0  0
  -25.7896  -29.8944   20.3671 C   0  0  0  0  0  0  0  0  0  0  0  0
  -26.6974  -34.4396   25.0491 C   0  0  0  0  0  0  0  0  0  0  0  0
  -24.9321  -28.9564   20.9596 C   0  0  0  0  0  0  0  0  0  0  0  0
  -27.0708  -19.4619   18.9921 C   0  0  0  0  0  0  0  0  0  0  0  0
  -26.9877  -17.1071   18.5098 C   0  0  0  0  0  0  0  0  0  0  0  0
  -22.5020   -8.5775   22.3636 C   0  0  0  0  0  0  0  0  0  0  0  0
  -26.3152  -27.1584   20.0855 C   0  0  0  0  0  0  0  0  0  0  0  0
  -21.3639   -6.8277   23.4431 C   0  0  0  0  0  0  0  0  0  0  0  0
  -21.0081   -4.0899   23.8435 C   0  0  0  0  0  0  0  0  0  0  0  0
  -21.5329   -6.2811   24.7153 C   0  0  0  0  0  0  0  0  0  0  0  0
  -25.4931   -9.7934   19.6299 C   0  0  0  0  0  0  0  0  0  0  0  0
  -25.7324  -17.3185   17.9627 C   0  0  0  0  0  0  0  0  0  0  0  0
  -26.8052   -9.9917   17.8767 C   0  0  0  0  0  0  0  0  0  0  0  0
  -28.2585  -22.8179   20.1770 C   0  0  0  0  0  0  0  0  0  0  0  0
  -27.7631  -25.3525   20.4220 C   0  0  0  0  0  0  0  0  0  1  0  0
  -25.0788   -8.1975   17.6560 C   0  0  0  0  0  0  0  0  0  0  0  0
  -27.2671  -21.9057   19.5429 C   0  0  0  0  0  0  0  0  0  0  0  0
  -25.4122  -31.6575   22.9849 C   0  0  0  0  0  0  0  0  0  0  0  0
  -22.2654  -31.3757   22.2496 C   0  0  0  0  0  0  0  0  0  0  0  0
  -19.8055  -29.6139   20.6712 C   0  0  0  0  0  0  0  0  0  0  0  0
  -28.8332  -15.4851   19.0662 C   0  0  0  0  0  0  0  0  0  0  0  0
  -24.9393  -35.0146   26.8011 C   0  0  0  0  0  0  0  0  0  0  0  0
  -25.5042  -31.3667   20.4823 C   0  0  0  0  0  0  0  0  0  0  0  0
  -23.7236  -29.3774   21.7537 C   0  0  0  0  0  0  0  0  0  0  0  0
  -24.2300  -33.7289   26.3839 C   0  0  0  0  0  0  0  0  0  0  0  0
  -30.6414  -12.4338   19.3779 C   0  0  0  0  0  0  0  0  0  0  0  0
  -25.2463  -32.6316   26.0842 C   0  0  0  0  0  0  0  0  0  0  0  0
  -29.5498  -11.3615   19.3554 C   0  0  0  0  0  0  0  0  0  0  0  0
  -30.1883  -13.6891   20.1213 C   0  0  0  0  0  0  0  0  0  0  0  0
  -27.8256  -13.1880   19.6353 C   0  0  0  0  0  0  0  0  0  0  0  0
  -26.1615  -33.0303   24.9201 C   0  0  1  0  0  0  0  0  0  0  0  0
  -24.6456  -31.7159   21.6940 C   0  0  1  0  0  0  0  0  0  0  0  0
  -28.2124  -11.9296   18.8414 C   0  0  2  0  0  0  0  0  0  0  0  0
  -24.9560  -16.1781   17.3884 C   0  0  0  0  0  0  0  0  0  0  0  0
  -17.3266  -29.6091   20.2807 C   0  0  0  0  0  0  0  0  0  0  0  0
  -21.8229  -30.3471   25.0880 C   0  0  0  0  0  0  0  0  0  0  0  0
  -19.5912  -29.4831   24.3523 C   0  0  0  0  0  0  0  0  0  0  0  0
  -20.0693  -31.9298   24.2667 C   0  0  0  0  0  0  0  0  0  0  0  0
  -20.1493  -29.8583   17.7418 C   0  0  0  0  0  0  0  0  0  0  0  0
  -21.1720  -30.3921   22.5899 C   0  0  1  0  0  0  0  0  0  0  0  0
  -18.6808  -30.0562   19.7525 C   0  0  2  0  0  0  0  0  0  0  0  0
  -20.6876  -30.5298   24.0609 C   0  0  0  0  0  0  0  0  0  0  0  0
  -25.1249  -18.5249   17.9057 N   0  0  0  0  0  0  0  0  0  0  0  0
  -26.3270  -10.7874   19.9469 N   0  0  0  0  0  0  0  0  0  0  0  0
  -27.1129  -10.8842   18.8610 N   0  0  0  0  0  0  0  0  0  0  0  0
  -23.4905  -30.8283   21.8428 N   0  0  0  0  0  0  0  0  0  0  0  0
  -28.9174  -14.1727   19.5774 N   0  0  0  0  0  0  0  0  0  0  0  0
  -27.4955   -9.9525   16.7172 N   0  0  0  0  0  0  0  0  0  0  0  0
  -24.0080   -7.5520   18.2893 N   0  0  0  0  0  0  0  0  0  0  0  0
  -27.7337  -20.5992   19.5151 N   0  0  0  0  0  0  0  0  0  0  0  0
  -27.5840  -15.8223   18.5461 N   0  0  0  0  0  0  0  0  0  0  0  0
  -25.4747  -32.8631   23.6572 N   0  0  0  0  0  0  0  0  0  0  0  0
  -20.1232  -30.5872   21.5947 N   0  0  0  0  0  0  0  0  0  0  0  0
  -18.8675  -29.4804   18.3907 N   0  3  0  0  0  0  0  0  0  0  0  0
  -25.4338   -7.8207   16.5134 O   0  0  0  0  0  0  0  0  0  0  0  0
  -26.1981  -22.3351   19.1245 O   0  0  0  0  0  0  0  0  0  0  0  0
  -25.9090  -30.5967   23.3451 O   0  0  0  0  0  0  0  0  0  0  0  0
  -22.0387  -32.5852   22.3346 O   0  0  0  0  0  0  0  0  0  0  0  0
  -20.3455  -28.5136   20.5810 O   0  0  0  0  0  0  0  0  0  0  0  0
  -29.8058  -16.2441   19.0635 O   0  0  0  0  0  0  0  0  0  0  0  0
  -21.5394   -8.1867   23.2429 O   0  0  0  0  0  0  0  0  0  0  0  0
  -26.5702  -25.8280   19.9545 O   0  0  0  0  0  0  0  0  0  1  0  0
  -20.8358   -2.7755   24.0359 F   0  0  0  0  0  0  0  0  0  0  0  0
  -21.8649   -7.0663   25.7492 F   0  0  0  0  0  0  0  0  0  0  0  0
  1 34  2  0  0  0  0
  1 35  2  0  0  0  0
  2  3  1  0  0  0  0
  2  6  2  0  0  0  0
  3  7  2  0  0  0  0
  4  9  2  0  0  0  0
  4 18  1  0  0  0  0
  5 10  1  0  0  0  0
  5 18  2  0  0  0  0
  6 20  1  0  0  0  0
  7 22  1  0  0  0  0
  8 11  2  0  0  0  0
  8 21  1  0  0  0  0
  9 26  1  0  0  0  0
 10 26  2  0  0  0  0
 11 27  1  0  0  0  0
 12 13  2  0  0  0  0
 12 28  1  0  0  0  0
 13 29  1  0  0  0  0
 14 23  1  0  0  0  0
 14 27  2  0  0  0  0
 15 24  2  0  0  0  0
 15 25  1  0  0  0  0
 16 29  2  0  0  0  0
 16 30  1  0  0  0  0
 17 24  1  0  0  0  0
 17 63  2  0  0  0  0
 18 31  1  0  0  0  0
 19 31  1  0  0  0  0
 19 33  2  0  0  0  0
 19 36  1  0  0  0  0
 20 22  2  0  0  0  0
 20 42  1  0  0  0  0
 21 23  2  0  0  0  0
 21 43  1  0  0  0  0
 22 51  1  0  0  0  0
 23 44  1  0  0  0  0
 24 70  1  0  0  0  0
 25 32  2  0  0  0  0
 25 71  1  0  0  0  0
 26 81  1  0  0  0  0
 27 82  1  0  0  0  0
 28 30  2  0  0  0  0
 28 81  1  0  0  0  0
 29 83  1  0  0  0  0
 30 84  1  0  0  0  0
 31 64  2  0  0  0  0
 32 54  1  0  0  0  0
 32 63  1  0  0  0  0
 33 65  1  0  0  0  0
 33 68  1  0  0  0  0
 34 37  1  0  0  0  0
 35 82  1  0  0  0  0
 36 69  1  0  0  0  0
 36 75  2  0  0  0  0
 37 70  1  0  0  0  0
 37 76  2  0  0  0  0
 38 52  1  0  0  0  0
 38 72  1  0  0  0  0
 38 77  2  0  0  0  0
 39 60  1  0  0  0  0
 39 66  1  0  0  0  0
 39 78  2  0  0  0  0
 40 61  1  0  0  0  0
 40 73  1  0  0  0  0
 40 79  2  0  0  0  0
 41 67  1  0  0  0  0
 41 71  1  0  0  0  0
 41 80  2  0  0  0  0
 42 45  1  0  0  0  0
 43 52  1  0  0  0  0
 44 66  1  0  0  0  0
 45 47  1  0  0  0  0
 46 48  1  0  0  0  0
 46 49  1  0  0  0  0
 47 51  1  0  0  0  0
 48 53  1  0  0  0  0
 49 67  1  0  0  0  0
 50 53  1  0  0  0  0
 50 67  1  0  0  0  0
 51 72  1  0  0  0  0
 52 66  1  0  0  0  0
 53 65  1  0  0  0  0
 55 61  1  0  0  0  0
 56 62  1  0  0  0  0
 57 62  1  0  0  0  0
 58 62  1  0  0  0  0
 59 74  1  0  0  0  0
 60 62  1  0  0  0  0
 60 73  1  0  0  0  0
 61 74  1  0  0  0  0
 64 65  1  0  0  0  0
M  CHG  1  74   1
M  ISO  4  35 101  41 100  71 100  82 101
M  END
> <Batch ID>
0115

> <Smiles>
CNC(C)C(=O)NC(C(=O)N1Cc2cc([101O:1][101CH:1]=C=CC(=O)Nc3cnc(C)c([100NH:0][100C:0](=O)N4CCCC(n5nc(-c6ccc(Oc7ccc(F)cc7F)cc6)c(C(N)=O)c5N)C4)c3)ccc2CC1C(=O)NC1CCCc2ccccc21)C(C)(C)C

> <Shape>
0.287

> <Color>
0.095

> <Negative vol penalty>
0.000

$$$$
