
  -OEChem-04052301433D

 81 89  0     1  0  0  0  0  0999 V2000
  -25.5267  -37.5874   19.4669 C   0  0  0  0  0  0  0  0  0  0  0  0
  -26.2533  -36.4171   19.2726 C   0  0  0  0  0  0  0  0  0  0  0  0
  -24.0034   -9.5270   22.1955 C   0  0  0  0  0  0  0  0  0  0  0  0
  -24.6478   -8.4907   20.1103 C   0  0  0  0  0  0  0  0  0  0  0  0
  -24.6687  -37.7005   20.5601 C   0  0  0  0  0  0  0  0  0  0  0  0
  -26.1232  -35.3595   20.1721 C   0  0  0  0  0  0  0  0  0  0  0  0
  -26.3526  -29.3777   18.8791 C   0  0  0  0  0  0  0  0  0  0  0  0
  -22.9366   -8.6356   22.3089 C   0  0  0  0  0  0  0  0  0  0  0  0
  -23.5809   -7.5993   20.2237 C   0  0  0  0  0  0  0  0  0  0  0  0
  -27.3737  -28.4342   18.9825 C   0  0  0  0  0  0  0  0  0  0  0  0
  -22.4658   -5.4200   23.2423 C   0  0  0  0  0  0  0  0  0  0  0  0
  -22.2506   -4.8212   24.4836 C   0  0  0  0  0  0  0  0  0  0  0  0
  -26.5169  -27.7514   21.1316 C   0  0  0  0  0  0  0  0  0  0  0  0
  -30.6987  -22.0165   18.9306 C   0  0  0  0  0  0  0  0  0  0  0  0
  -20.0430   -5.7988   24.5724 C   0  0  0  0  0  0  0  0  0  0  0  0
  -24.8590   -9.4546   21.0962 C   0  0  0  0  0  0  0  0  0  0  0  0
  -27.2693  -10.2028   21.4681 C   0  0  0  0  0  0  0  0  0  0  0  0
  -24.5206  -36.6401   21.4680 C   0  0  0  0  0  0  0  0  0  0  0  0
  -25.4107  -29.5229   19.9078 C   0  0  0  0  0  0  0  0  0  0  0  0
  -25.2633  -35.4590   21.2791 C   0  0  0  0  0  0  0  0  0  0  0  0
  -25.4832  -28.6957   21.0377 C   0  0  0  0  0  0  0  0  0  0  0  0
  -30.8309  -20.6751   19.3925 C   0  0  0  0  0  0  0  0  0  0  0  0
  -22.7254   -7.6717   21.3230 C   0  0  0  0  0  0  0  0  0  0  0  0
  -27.4578  -27.6228   20.1102 C   0  0  0  0  0  0  0  0  0  0  0  0
  -21.4697   -6.2083   22.6662 C   0  0  0  0  0  0  0  0  0  0  0  0
  -21.0392   -5.0105   25.1486 C   0  0  0  0  0  0  0  0  0  0  0  0
  -20.2583   -6.3977   23.3312 C   0  0  0  0  0  0  0  0  0  0  0  0
  -25.9609  -10.3755   20.9782 C   0  0  0  0  0  0  0  0  0  0  0  0
  -29.6320  -20.1589   19.8325 C   0  0  0  0  0  0  0  0  0  0  0  0
  -29.4036  -22.4744   19.0349 C   0  0  0  0  0  0  0  0  0  0  0  0
  -27.9279  -11.3506   21.1002 C   0  0  0  0  0  0  0  0  0  0  0  0
  -29.3528  -18.8781   20.3587 C   0  0  0  0  0  0  0  0  0  0  0  0
  -28.1751  -18.1779   20.2448 C   0  0  0  0  0  0  0  0  0  0  0  0
  -29.4098  -24.7451   19.2981 C   0  0  0  0  0  0  0  0  0  0  0  0
  -27.8385   -9.1032   22.1909 C   0  0  0  0  0  0  0  0  0  0  0  0
  -28.0408  -16.8359   20.8461 C   0  0  0  0  0  0  0  0  0  0  0  0
  -24.5868  -31.8764   21.8791 C   0  0  0  0  0  0  0  0  0  0  0  0
  -22.2474  -29.8044   22.7489 C   0  0  0  0  0  0  0  0  0  0  0  0
  -21.1682  -26.5733   22.9544 C   0  0  0  0  0  0  0  0  0  0  0  0
  -23.6168  -36.8267   22.6609 C   0  0  0  0  0  0  0  0  0  0  0  0
  -24.2995  -30.5270   19.7689 C   0  0  0  0  0  0  0  0  0  0  0  0
  -24.4849  -28.7980   22.1607 C   0  0  0  0  0  0  0  0  0  0  0  0
  -23.2526  -35.5192   23.3595 C   0  0  0  0  0  0  0  0  0  0  0  0
  -26.5846  -15.0771   17.9794 C   0  0  0  0  0  0  0  0  0  0  0  0
  -24.4953  -34.6583   23.5627 C   0  0  0  0  0  0  0  0  0  0  0  0
  -26.3578  -13.6885   18.5712 C   0  0  0  0  0  0  0  0  0  0  0  0
  -26.3849  -16.1805   19.0173 C   0  0  0  0  0  0  0  0  0  0  0  0
  -26.9834  -14.6100   20.8383 C   0  0  0  0  0  0  0  0  0  0  0  0
  -25.1304  -34.2805   22.2190 C   0  0  1  0  0  0  0  0  0  0  0  0
  -23.6980  -30.9417   21.1082 C   0  0  1  0  0  0  0  0  0  0  0  0
  -27.2251  -13.4820   19.8231 C   0  0  1  0  0  0  0  0  0  0  0  0
  -32.1197  -19.9394   19.3910 C   0  0  0  0  0  0  0  0  0  0  0  0
  -19.2299  -25.1905   23.7470 C   0  0  0  0  0  0  0  0  0  0  0  0
  -23.1706  -30.1684   25.6342 C   0  0  0  0  0  0  0  0  0  0  0  0
  -21.8815  -28.1075   26.2333 C   0  0  0  0  0  0  0  0  0  0  0  0
  -20.6887  -30.1049   25.3332 C   0  0  0  0  0  0  0  0  0  0  0  0
  -20.6427  -25.5396   20.2315 C   0  0  0  0  0  0  0  0  0  0  0  0
  -28.9485  -26.1401   18.9989 C   0  0  0  0  0  0  0  0  0  1  0  0
  -22.1174  -28.7109   23.7815 C   0  0  1  0  0  0  0  0  0  0  0  0
  -19.8509  -25.9249   22.5689 C   0  0  2  0  0  0  0  0  0  0  0  0
  -21.9846  -29.2721   25.2254 C   0  0  0  0  0  0  0  0  0  0  0  0
  -25.7961  -11.5413   20.3474 N   0  0  0  0  0  0  0  0  0  0  0  0
  -28.8902  -23.7340   18.6824 N   0  0  0  0  0  0  0  0  0  0  0  0
  -27.0096  -12.1115   20.4384 N   0  0  0  0  0  0  0  0  0  0  0  0
  -27.1800  -15.9301   20.2289 N   0  0  0  0  0  0  0  0  0  0  0  0
  -23.4206  -29.7992   21.9812 N   0  0  0  0  0  0  0  0  0  0  0  0
  -29.1972  -11.7731   21.2816 N   0  0  0  0  0  0  0  0  0  0  0  0
  -27.0216   -8.0032   22.4860 N   0  0  0  0  0  0  0  0  0  0  0  0
  -24.3839  -33.2123   21.5897 N   0  0  0  0  0  0  0  0  0  0  0  0
  -20.9953  -27.8805   23.3577 N   0  0  0  0  0  0  0  0  0  0  0  0
  -20.0585  -24.9480   21.4627 N   0  3  0  0  0  0  0  0  0  0  0  0
  -29.0315   -9.1034   22.5784 O   0  0  0  0  0  0  0  0  0  0  0  0
  -28.6965  -16.6000   21.8626 O   0  0  0  0  0  0  0  0  0  0  0  0
  -25.3956  -31.4195   22.6783 O   0  0  0  0  0  0  0  0  0  0  0  0
  -21.3381  -30.6285   22.6230 O   0  0  0  0  0  0  0  0  0  0  0  0
  -22.2426  -25.9785   22.9064 O   0  0  0  0  0  0  0  0  0  0  0  0
  -21.6846   -6.8016   21.4335 O   0  0  0  0  0  0  0  0  0  0  0  0
  -28.4539  -26.7015   20.2140 O   0  0  0  0  0  0  0  0  0  1  0  0
  -20.8320   -4.4341   26.3398 F   0  0  0  0  0  0  0  0  0  0  0  0
  -19.2971   -7.1529   22.7821 F   0  0  0  0  0  0  0  0  0  0  0  0
  -28.3539  -21.2894   19.6878 S   0  0  0  0  0  0  0  0  0  0  0  0
  1  2  1  0  0  0  0
  1  5  2  0  0  0  0
  2  6  2  0  0  0  0
  3  8  2  0  0  0  0
  3 16  1  0  0  0  0
  4  9  1  0  0  0  0
  4 16  2  0  0  0  0
  5 18  1  0  0  0  0
  6 20  1  0  0  0  0
  7 10  2  0  0  0  0
  7 19  1  0  0  0  0
  8 23  1  0  0  0  0
  9 23  2  0  0  0  0
 10 24  1  0  0  0  0
 11 12  2  0  0  0  0
 11 25  1  0  0  0  0
 12 26  1  0  0  0  0
 13 21  1  0  0  0  0
 13 24  2  0  0  0  0
 14 22  1  0  0  0  0
 14 30  2  0  0  0  0
 15 26  2  0  0  0  0
 15 27  1  0  0  0  0
 16 28  1  0  0  0  0
 17 28  1  0  0  0  0
 17 31  2  0  0  0  0
 17 35  1  0  0  0  0
 18 20  2  0  0  0  0
 18 40  1  0  0  0  0
 19 21  2  0  0  0  0
 19 41  1  0  0  0  0
 20 49  1  0  0  0  0
 21 42  1  0  0  0  0
 22 29  2  0  0  0  0
 22 52  1  0  0  0  0
 23 77  1  0  0  0  0
 24 78  1  0  0  0  0
 25 27  2  0  0  0  0
 25 77  1  0  0  0  0
 26 79  1  0  0  0  0
 27 80  1  0  0  0  0
 28 62  2  0  0  0  0
 29 32  1  0  0  0  0
 29 81  1  0  0  0  0
 30 63  1  0  0  0  0
 30 81  1  0  0  0  0
 31 64  1  0  0  0  0
 31 67  1  0  0  0  0
 32 33  2  0  0  0  0
 33 36  1  0  0  0  0
 34 58  1  0  0  0  0
 34 63  2  0  0  0  0
 35 68  1  0  0  0  0
 35 72  2  0  0  0  0
 36 65  1  0  0  0  0
 36 73  2  0  0  0  0
 37 50  1  0  0  0  0
 37 69  1  0  0  0  0
 37 74  2  0  0  0  0
 38 59  1  0  0  0  0
 38 66  1  0  0  0  0
 38 75  2  0  0  0  0
 39 60  1  0  0  0  0
 39 70  1  0  0  0  0
 39 76  2  0  0  0  0
 40 43  1  0  0  0  0
 41 50  1  0  0  0  0
 42 66  1  0  0  0  0
 43 45  1  0  0  0  0
 44 46  1  0  0  0  0
 44 47  1  0  0  0  0
 45 49  1  0  0  0  0
 46 51  1  0  0  0  0
 47 65  1  0  0  0  0
 48 51  1  0  0  0  0
 48 65  1  0  0  0  0
 49 69  1  0  0  0  0
 50 66  1  0  0  0  0
 51 64  1  0  0  0  0
 53 60  1  0  0  0  0
 54 61  1  0  0  0  0
 55 61  1  0  0  0  0
 56 61  1  0  0  0  0
 57 71  1  0  0  0  0
 58 78  1  0  0  0  0
 59 61  1  0  0  0  0
 59 70  1  0  0  0  0
 60 71  1  0  0  0  0
 62 64  1  0  0  0  0
M  CHG  1  71   1
M  ISO  4  33 100  36 100  58 101  78 101
M  END
> <Batch ID>
0116

> <Smiles>
CNC(C)C(=O)NC(C(=O)N1Cc2cc([101O:1][101CH:1]=CNc3cc(C)c(C=[100CH:0][100C:0](=O)N4CCCC(n5nc(-c6ccc(Oc7ccc(F)cc7F)cc6)c(C(N)=O)c5N)C4)s3)ccc2CC1C(=O)NC1CCCc2ccccc21)C(C)(C)C

> <Shape>
0.295

> <Color>
0.128

> <Negative vol penalty>
0.000

$$$$

  -OEChem-04052301433D

 88 96  0     1  0  0  0  0  0999 V2000
  -21.0832  -27.7131   25.6812 C   0  0  0  0  0  0  0  0  0  0  0  0
  -22.3469  -27.1318   25.7103 C   0  0  0  0  0  0  0  0  0  0  0  0
  -23.0954   -9.8468   19.9473 C   0  0  0  0  0  0  0  0  0  0  0  0
  -23.9063   -9.8522   22.2232 C   0  0  0  0  0  0  0  0  0  0  0  0
  -20.3053  -27.6298   24.5273 C   0  0  0  0  0  0  0  0  0  0  0  0
  -22.8328  -26.4660   24.5856 C   0  0  0  0  0  0  0  0  0  0  0  0
  -28.9479  -25.1065   21.1109 C   0  0  0  0  0  0  0  0  0  0  0  0
  -22.3867   -8.6728   20.2026 C   0  0  0  0  0  0  0  0  0  0  0  0
  -23.1976   -8.6783   22.4785 C   0  0  0  0  0  0  0  0  0  0  0  0
  -29.6811  -24.0367   20.5992 C   0  0  0  0  0  0  0  0  0  0  0  0
  -21.3130   -5.8796   23.8325 C   0  0  0  0  0  0  0  0  0  0  0  0
  -20.5846   -5.8061   25.0198 C   0  0  0  0  0  0  0  0  0  0  0  0
  -27.4956  -18.4963   21.4621 C   0  0  0  0  0  0  0  0  0  0  0  0
  -29.6163  -17.4768   19.9636 C   0  0  0  0  0  0  0  0  0  0  0  0
  -28.2808  -24.0244   18.6350 C   0  0  0  0  0  0  0  0  0  0  0  0
  -19.2754   -7.7176   24.3349 C   0  0  0  0  0  0  0  0  0  0  0  0
  -23.8553  -10.4365   20.9576 C   0  0  0  0  0  0  0  0  0  0  0  0
  -28.2175  -17.3992   21.9319 C   0  0  0  0  0  0  0  0  0  0  0  0
  -29.2779  -16.8895   21.1827 C   0  0  0  0  0  0  0  0  0  0  0  0
  -24.1305  -12.9705   20.8544 C   0  0  0  0  0  0  0  0  0  0  0  0
  -20.7858  -26.9709   23.3846 C   0  0  0  0  0  0  0  0  0  0  0  0
  -27.8670  -25.6371   20.3922 C   0  0  0  0  0  0  0  0  0  0  0  0
  -22.0600  -26.3726   23.4157 C   0  0  0  0  0  0  0  0  0  0  0  0
  -27.5371  -25.1026   19.1385 C   0  0  0  0  0  0  0  0  0  0  0  0
  -22.4378   -8.0886   21.4682 C   0  0  0  0  0  0  0  0  0  0  0  0
  -29.3458  -23.4936   19.3624 C   0  0  0  0  0  0  0  0  0  0  0  0
  -21.0226   -6.8721   22.8964 C   0  0  0  0  0  0  0  0  0  0  0  0
  -27.8339  -19.0836   20.2430 C   0  0  0  0  0  0  0  0  0  0  0  0
  -28.8943  -18.5739   19.4937 C   0  0  0  0  0  0  0  0  0  0  0  0
  -19.5658   -6.7251   25.2710 C   0  0  0  0  0  0  0  0  0  0  0  0
  -20.0038   -7.7911   23.1476 C   0  0  0  0  0  0  0  0  0  0  0  0
  -24.5881  -11.6488   20.6943 C   0  0  0  0  0  0  0  0  0  0  0  0
  -25.1949  -13.7508   20.4741 C   0  0  0  0  0  0  0  0  0  0  0  0
  -27.8120  -17.4860   24.3492 C   0  0  0  0  0  0  0  0  0  0  0  0
  -24.3258  -21.8398   18.7110 C   0  0  0  0  0  0  0  0  0  0  0  0
  -27.8364  -16.8112   23.2099 C   0  0  0  0  0  0  0  0  0  0  0  0
  -25.2644  -20.9058   18.5218 C   0  0  0  0  0  0  0  0  0  0  0  0
  -30.0562  -15.7432   21.6380 C   0  0  0  0  0  0  0  0  0  0  0  0
  -22.8572  -13.4500   21.3064 C   0  0  0  0  0  0  0  0  0  0  0  0
  -30.6840  -14.8096   20.6749 C   0  0  0  0  0  0  0  0  0  0  0  0
  -24.7448  -25.9174   20.9182 C   0  0  0  0  0  0  0  0  0  0  0  0
  -24.8273  -27.6166   18.1563 C   0  0  0  0  0  0  0  0  0  0  0  0
  -26.4100  -28.2735   15.2049 C   0  0  0  0  0  0  0  0  0  0  0  0
  -19.8894  -26.8659   22.1763 C   0  0  0  0  0  0  0  0  0  0  0  0
  -27.1030  -26.8085   20.9458 C   0  0  0  0  0  0  0  0  0  0  0  0
  -26.3984  -25.6492   18.3182 C   0  0  0  0  0  0  0  0  0  0  0  0
  -20.6289  -26.4662   20.9021 C   0  0  0  0  0  0  0  0  0  0  0  0
  -29.5149  -12.5429   18.1546 C   0  0  0  0  0  0  0  0  0  0  0  0
  -21.5628  -25.2910   21.1732 C   0  0  0  0  0  0  0  0  0  0  0  0
  -28.1053  -12.1872   18.6261 C   0  0  0  0  0  0  0  0  0  0  0  0
  -30.4603  -12.7563   19.3323 C   0  0  0  0  0  0  0  0  0  0  0  0
  -28.5683  -13.4267   20.7882 C   0  0  0  0  0  0  0  0  0  0  0  0
  -22.6320  -25.6632   22.2075 C   0  0  1  0  0  0  0  0  0  0  0  0
  -25.6992  -26.9360   20.3621 C   0  0  1  0  0  0  0  0  0  0  0  0
  -27.5781  -13.2308   19.6269 C   0  0  2  0  0  0  0  0  0  0  0  0
  -26.2191  -29.6848   13.1388 C   0  0  0  0  0  0  0  0  0  0  0  0
  -22.6325  -25.7761   17.1048 C   0  0  0  0  0  0  0  0  0  0  0  0
  -23.1517  -26.5915   14.7953 C   0  0  0  0  0  0  0  0  0  0  0  0
  -22.3348  -28.1910   16.5265 C   0  0  0  0  0  0  0  0  0  0  0  0
  -28.9835  -29.6285   15.7524 C   0  0  0  0  0  0  0  0  0  0  0  0
  -25.7245  -19.9596   19.5806 C   0  0  0  0  0  0  0  0  0  0  0  0
  -30.5781  -20.8007   17.1770 C   0  0  0  0  0  0  0  0  0  0  0  0
  -29.6609  -21.9418   17.5880 C   0  0  0  0  0  0  0  0  0  1  0  0
  -30.5547  -19.6613   18.1836 C   0  0  0  0  0  0  0  0  0  0  0  0
  -24.6883  -27.2821   16.6907 C   0  0  1  0  0  0  0  0  0  0  0  0
  -26.8000  -29.5814   14.5404 C   0  0  2  0  0  0  0  0  0  0  0  0
  -23.2221  -26.9484   16.2954 C   0  0  0  0  0  0  0  0  0  0  0  0
  -25.8452  -11.5890   20.2470 N   0  0  0  0  0  0  0  0  0  0  0  0
  -30.2502  -15.4685   22.8974 N   0  0  0  0  0  0  0  0  0  0  0  0
  -26.1866  -12.8829   20.1227 N   0  0  0  0  0  0  0  0  0  0  0  0
  -29.9134  -13.7249   20.2804 N   0  0  0  0  0  0  0  0  0  0  0  0
  -25.6776  -26.7908   18.9052 N   0  0  0  0  0  0  0  0  0  0  0  0
  -25.3700  -15.0878   20.4093 N   0  0  0  0  0  0  0  0  0  0  0  0
  -21.8764  -12.5123   21.6574 N   0  0  0  0  0  0  0  0  0  0  0  0
  -23.6709  -26.4633   21.5951 N   0  0  0  0  0  0  0  0  0  0  0  0
  -25.2634  -28.4058   15.9593 N   0  0  0  0  0  0  0  0  0  0  0  0
  -28.2831  -29.6913   14.4438 N   0  3  0  0  0  0  0  0  0  0  0  0
  -22.5913  -14.6736   21.3809 O   0  0  0  0  0  0  0  0  0  0  0  0
  -31.8224  -15.0963   20.3282 O   0  0  0  0  0  0  0  0  0  0  0  0
  -24.9655  -24.7246   20.7446 O   0  0  0  0  0  0  0  0  0  0  0  0
  -24.2099  -28.5796   18.6179 O   0  0  0  0  0  0  0  0  0  0  0  0
  -27.0557  -27.2370   15.0656 O   0  0  0  0  0  0  0  0  0  0  0  0
  -21.7461   -6.9432   21.7178 O   0  0  0  0  0  0  0  0  0  0  0  0
  -27.1210  -20.1544   19.7940 O   0  0  0  0  0  0  0  0  0  0  0  0
  -30.0593  -22.4490   18.8609 O   0  0  0  0  0  0  0  0  0  1  0  0
  -29.2363  -19.1423   18.2943 O   0  0  0  0  0  0  0  0  0  0  0  0
  -18.8654   -6.6535   26.4105 F   0  0  0  0  0  0  0  0  0  0  0  0
  -19.7195   -8.7461   22.2515 F   0  0  0  0  0  0  0  0  0  0  0  0
  1  2  1  0  0  0  0
  1  5  2  0  0  0  0
  2  6  2  0  0  0  0
  3  8  2  0  0  0  0
  3 17  1  0  0  0  0
  4  9  1  0  0  0  0
  4 17  2  0  0  0  0
  5 21  1  0  0  0  0
  6 23  1  0  0  0  0
  7 10  2  0  0  0  0
  7 22  1  0  0  0  0
  8 25  1  0  0  0  0
  9 25  2  0  0  0  0
 10 26  1  0  0  0  0
 11 12  2  0  0  0  0
 11 27  1  0  0  0  0
 12 30  1  0  0  0  0
 13 18  2  0  0  0  0
 13 28  1  0  0  0  0
 14 19  2  0  0  0  0
 14 29  1  0  0  0  0
 15 24  1  0  0  0  0
 15 26  2  0  0  0  0
 16 30  2  0  0  0  0
 16 31  1  0  0  0  0
 17 32  1  0  0  0  0
 18 19  1  0  0  0  0
 18 36  1  0  0  0  0
 19 38  1  0  0  0  0
 20 32  1  0  0  0  0
 20 33  2  0  0  0  0
 20 39  1  0  0  0  0
 21 23  2  0  0  0  0
 21 44  1  0  0  0  0
 22 24  2  0  0  0  0
 22 45  1  0  0  0  0
 23 53  1  0  0  0  0
 24 46  1  0  0  0  0
 25 83  1  0  0  0  0
 26 85  1  0  0  0  0
 27 31  2  0  0  0  0
 27 83  1  0  0  0  0
 28 29  2  0  0  0  0
 28 84  1  0  0  0  0
 29 86  1  0  0  0  0
 30 87  1  0  0  0  0
 31 88  1  0  0  0  0
 32 68  2  0  0  0  0
 33 70  1  0  0  0  0
 33 73  1  0  0  0  0
 34 36  2  0  0  0  0
 35 37  2  0  0  0  0
 37 61  1  0  0  0  0
 38 40  1  0  0  0  0
 38 69  2  0  0  0  0
 39 74  1  0  0  0  0
 39 78  2  0  0  0  0
 40 71  1  0  0  0  0
 40 79  2  0  0  0  0
 41 54  1  0  0  0  0
 41 75  1  0  0  0  0
 41 80  2  0  0  0  0
 42 65  1  0  0  0  0
 42 72  1  0  0  0  0
 42 81  2  0  0  0  0
 43 66  1  0  0  0  0
 43 76  1  0  0  0  0
 43 82  2  0  0  0  0
 44 47  1  0  0  0  0
 45 54  1  0  0  0  0
 46 72  1  0  0  0  0
 47 49  1  0  0  0  0
 48 50  1  0  0  0  0
 48 51  1  0  0  0  0
 49 53  1  0  0  0  0
 50 55  1  0  0  0  0
 51 71  1  0  0  0  0
 52 55  1  0  0  0  0
 52 71  1  0  0  0  0
 53 75  1  0  0  0  0
 54 72  1  0  0  0  0
 55 70  1  0  0  0  0
 56 66  1  0  0  0  0
 57 67  1  0  0  0  0
 58 67  1  0  0  0  0
 59 67  1  0  0  0  0
 60 77  1  0  0  0  0
 61 84  1  0  0  0  0
 62 63  1  0  0  0  0
 62 64  1  0  0  0  0
 63 85  1  0  0  0  0
 64 86  1  0  0  0  0
 65 67  1  0  0  0  0
 65 76  1  0  0  0  0
 66 77  1  0  0  0  0
 68 70  1  0  0  0  0
M  CHG  1  77   1
M  ISO  4  38 100  40 100  63 101  85 101
M  END
> <Batch ID>
0116

> <Smiles>
C=CCOc1cc(C=C)c([100C:0](=N)[100C:0](=O)N2CCCC(n3nc(-c4ccc(Oc5ccc(F)cc5F)cc4)c(C(N)=O)c3N)C2)cc1OCC[101CH2:1][101O:1]c1ccc2c(c1)CN(C(=O)C(NC(=O)C(C)NC)C(C)(C)C)C(C(=O)NC1CCCc3ccccc31)C2

> <Shape>
0.293

> <Color>
0.182

> <Negative vol penalty>
0.000

$$$$

  -OEChem-04052301433D

 88 97  0     1  0  0  0  0  0999 V2000
  -27.8811  -33.3587   26.3356 C   0  0  0  0  0  0  0  0  0  0  0  0
  -28.0603  -32.1826   25.6144 C   0  0  0  0  0  0  0  0  0  0  0  0
  -22.3324  -12.3510   21.8367 C   0  0  0  0  0  0  0  0  0  0  0  0
  -22.3722  -14.7557   21.6073 C   0  0  0  0  0  0  0  0  0  0  0  0
  -26.5982  -33.7587   26.7072 C   0  0  0  0  0  0  0  0  0  0  0  0
  -26.9566  -31.4052   25.2653 C   0  0  0  0  0  0  0  0  0  0  0  0
  -27.1345  -29.8272   20.4567 C   0  0  0  0  0  0  0  0  0  0  0  0
  -21.0656  -12.4271   22.4155 C   0  0  0  0  0  0  0  0  0  0  0  0
  -21.1054  -14.8319   22.1861 C   0  0  0  0  0  0  0  0  0  0  0  0
  -27.9738  -28.7515   20.1702 C   0  0  0  0  0  0  0  0  0  0  0  0
  -19.7727  -14.7008   25.2905 C   0  0  0  0  0  0  0  0  0  0  0  0
  -19.5642  -15.6737   26.2680 C   0  0  0  0  0  0  0  0  0  0  0  0
  -26.0719  -27.2678   20.1987 C   0  0  0  0  0  0  0  0  0  0  0  0
  -28.5805  -21.6891   19.6622 C   0  0  0  0  0  0  0  0  0  0  0  0
  -30.4365  -20.6705   18.4983 C   0  0  0  0  0  0  0  0  0  0  0  0
  -17.8266  -16.6635   24.9123 C   0  0  0  0  0  0  0  0  0  0  0  0
  -22.9858  -13.5153   21.4327 C   0  0  0  0  0  0  0  0  0  0  0  0
  -24.6519  -12.7555   19.6566 C   0  0  0  0  0  0  0  0  0  0  0  0
  -25.4774  -32.9907   26.3542 C   0  0  0  0  0  0  0  0  0  0  0  0
  -25.7567  -29.6293   20.6274 C   0  0  0  0  0  0  0  0  0  0  0  0
  -25.6576  -31.7945   25.6337 C   0  0  0  0  0  0  0  0  0  0  0  0
  -25.2169  -28.3431   20.4847 C   0  0  0  0  0  0  0  0  0  0  0  0
  -28.2888  -20.4666   20.2671 C   0  0  0  0  0  0  0  0  0  0  0  0
  -30.1449  -19.4479   19.1032 C   0  0  0  0  0  0  0  0  0  0  0  0
  -29.6543  -21.7910   18.7777 C   0  0  0  0  0  0  0  0  0  0  0  0
  -29.0710  -19.3460   19.9877 C   0  0  0  0  0  0  0  0  0  0  0  0
  -20.4521  -13.6676   22.5901 C   0  0  0  0  0  0  0  0  0  0  0  0
  -27.4430  -27.4711   20.0440 C   0  0  0  0  0  0  0  0  0  0  0  0
  -19.0082  -14.7093   24.1238 C   0  0  0  0  0  0  0  0  0  0  0  0
  -18.5911  -16.6551   26.0789 C   0  0  0  0  0  0  0  0  0  0  0  0
  -18.0351  -15.6906   23.9347 C   0  0  0  0  0  0  0  0  0  0  0  0
  -24.2946  -13.4373   20.8353 C   0  0  0  0  0  0  0  0  0  0  0  0
  -25.9989  -12.9870   19.5208 C   0  0  0  0  0  0  0  0  0  0  0  0
  -29.8903  -25.5124   16.8738 C   0  0  0  0  0  0  0  0  0  0  0  0
  -29.8243  -25.4698   18.2112 C   0  0  0  0  0  0  0  0  0  0  0  0
  -30.2886  -24.3115   16.1117 C   0  0  0  0  0  0  0  0  0  0  0  0
  -23.8388  -11.9822   18.7641 C   0  0  0  0  0  0  0  0  0  0  0  0
  -23.7097  -30.0512   23.0222 C   0  0  0  0  0  0  0  0  0  0  0  0
  -21.5142  -29.2579   20.7701 C   0  0  0  0  0  0  0  0  0  0  0  0
  -21.2325  -26.8460   18.1015 C   0  0  0  0  0  0  0  0  0  0  0  0
  -29.6037  -17.3523   21.4325 C   0  0  0  0  0  0  0  0  0  0  0  0
  -24.1145  -33.4391   26.8191 C   0  0  0  0  0  0  0  0  0  0  0  0
  -24.8612  -30.8043   20.9096 C   0  0  0  0  0  0  0  0  0  0  0  0
  -23.7418  -28.0807   20.6385 C   0  0  0  0  0  0  0  0  0  0  0  0
  -30.5604  -23.0198   16.8415 C   0  0  0  0  0  0  0  0  0  0  0  0
  -22.9646  -32.7526   26.0864 C   0  0  0  0  0  0  0  0  0  0  0  0
  -29.9264  -13.8725   22.1140 C   0  0  0  0  0  0  0  0  0  0  0  0
  -23.2060  -31.2486   26.0046 C   0  0  0  0  0  0  0  0  0  0  0  0
  -28.5532  -13.3030   21.7504 C   0  0  0  0  0  0  0  0  0  0  0  0
  -29.8158  -15.2566   22.7510 C   0  0  0  0  0  0  0  0  0  0  0  0
  -27.6694  -15.6667   21.6135 C   0  0  0  0  0  0  0  0  0  0  0  0
  -24.4831  -30.9370   25.2150 C   0  0  1  0  0  0  0  0  0  0  0  0
  -30.1060  -24.2175   19.0153 C   0  0  2  0  0  0  0  0  0  0  0  0
  -23.5454  -30.4072   21.5718 C   0  0  1  0  0  0  0  0  0  0  0  0
  -27.7337  -14.3015   20.9095 C   0  0  2  0  0  0  0  0  0  0  0  0
  -27.1317  -20.3889   21.2097 C   0  0  0  0  0  0  0  0  0  0  0  0
  -31.0003  -18.2648   18.7835 C   0  0  0  0  0  0  0  0  0  0  0  0
  -31.5102  -24.2529   19.6284 C   0  0  0  0  0  0  0  0  0  0  0  0
  -19.9165  -26.9218   15.9661 C   0  0  0  0  0  0  0  0  0  0  0  0
  -19.3816  -27.7750   22.3710 C   0  0  0  0  0  0  0  0  0  0  0  0
  -18.8866  -26.4203   20.3245 C   0  0  0  0  0  0  0  0  0  0  0  0
  -18.5411  -28.8906   20.2965 C   0  0  0  0  0  0  0  0  0  0  0  0
  -23.6449  -26.3470   16.4613 C   0  0  0  0  0  0  0  0  0  0  0  0
  -29.4300  -26.6920   18.9949 C   0  0  0  0  0  0  0  0  0  1  0  0
  -20.8950  -27.9681   20.2882 C   0  0  1  0  0  0  0  0  0  0  0  0
  -21.2779  -27.1304   16.6110 C   0  0  2  0  0  0  0  0  0  0  0  0
  -19.4524  -27.7642   20.8309 C   0  0  0  0  0  0  0  0  0  0  0  0
  -25.3311  -14.0555   21.4077 N   0  0  0  0  0  0  0  0  0  0  0  0
  -26.3529  -13.7629   20.5852 N   0  0  0  0  0  0  0  0  0  0  0  0
  -29.9482  -23.0196   18.1693 N   0  0  2  0  0  0  0  0  0  0  0  0
  -22.9082  -29.2610   20.9203 N   0  0  0  0  0  0  0  0  0  0  0  0
  -29.0300  -16.1496   21.8966 N   0  0  0  0  0  0  0  0  0  0  0  0
  -26.9032  -12.6005   18.5961 N   0  0  0  0  0  0  0  0  0  0  0  0
  -22.4740  -11.8458   19.0524 N   0  0  0  0  0  0  0  0  0  0  0  0
  -28.7738  -18.1039   20.6014 N   0  0  0  0  0  0  0  0  0  0  0  0
  -24.2427  -31.0662   23.7938 N   0  0  0  0  0  0  0  0  0  0  0  0
  -20.9883  -27.9895   18.8324 N   0  0  0  0  0  0  0  0  0  0  0  0
  -22.2582  -26.2295   15.9414 N   0  3  0  0  0  0  0  0  0  0  0  0
  -30.4289  -24.3936   14.8914 O   0  0  0  0  0  0  0  0  0  0  0  0
  -24.3118  -11.4149   17.7502 O   0  0  0  0  0  0  0  0  0  0  0  0
  -23.3763  -28.9386   23.4128 O   0  0  0  0  0  0  0  0  0  0  0  0
  -20.7885  -30.2290   20.9977 O   0  0  0  0  0  0  0  0  0  0  0  0
  -21.3936  -25.7214   18.5703 O   0  0  0  0  0  0  0  0  0  0  0  0
  -30.7568  -17.6773   21.7272 O   0  0  0  0  0  0  0  0  0  0  0  0
  -19.2158  -13.7422   23.1546 O   0  0  0  0  0  0  0  0  0  0  0  0
  -28.2600  -26.4192   19.7650 O   0  0  0  0  0  0  0  0  0  1  0  0
  -18.3900  -17.5884   27.0184 F   0  0  0  0  0  0  0  0  0  0  0  0
  -17.2967  -15.7032   22.8165 F   0  0  0  0  0  0  0  0  0  0  0  0
  1  2  1  0  0  0  0
  1  5  2  0  0  0  0
  2  6  2  0  0  0  0
  3  8  2  0  0  0  0
  3 17  1  0  0  0  0
  4  9  1  0  0  0  0
  4 17  2  0  0  0  0
  5 19  1  0  0  0  0
  6 21  1  0  0  0  0
  7 10  2  0  0  0  0
  7 20  1  0  0  0  0
  8 27  1  0  0  0  0
  9 27  2  0  0  0  0
 10 28  1  0  0  0  0
 11 12  2  0  0  0  0
 11 29  1  0  0  0  0
 12 30  1  0  0  0  0
 13 22  1  0  0  0  0
 13 28  2  0  0  0  0
 14 23  2  0  0  0  0
 14 25  1  0  0  0  0
 15 24  1  0  0  0  0
 15 25  2  0  0  0  0
 16 30  2  0  0  0  0
 16 31  1  0  0  0  0
 17 32  1  0  0  0  0
 18 32  1  0  0  0  0
 18 33  2  0  0  0  0
 18 37  1  0  0  0  0
 19 21  2  0  0  0  0
 19 42  1  0  0  0  0
 20 22  2  0  0  0  0
 20 43  1  0  0  0  0
 21 52  1  0  0  0  0
 22 44  1  0  0  0  0
 23 26  1  0  0  0  0
 23 56  1  0  0  0  0
 24 26  2  0  0  0  0
 24 57  1  0  0  0  0
 25 70  1  0  0  0  0
 26 75  1  0  0  0  0
 27 85  1  0  0  0  0
 28 86  1  0  0  0  0
 29 31  2  0  0  0  0
 29 85  1  0  0  0  0
 30 87  1  0  0  0  0
 31 88  1  0  0  0  0
 32 68  2  0  0  0  0
 33 69  1  0  0  0  0
 33 73  1  0  0  0  0
 34 35  2  0  0  0  0
 34 36  1  0  0  0  0
 35 53  1  0  0  0  0
 35 64  1  0  0  0  0
 36 45  1  0  0  0  0
 36 79  2  0  0  0  0
 37 74  1  0  0  0  0
 37 80  2  0  0  0  0
 38 54  1  0  0  0  0
 38 76  1  0  0  0  0
 38 81  2  0  0  0  0
 39 65  1  0  0  0  0
 39 71  1  0  0  0  0
 39 82  2  0  0  0  0
 40 66  1  0  0  0  0
 40 77  1  0  0  0  0
 40 83  2  0  0  0  0
 41 72  1  0  0  0  0
 41 75  1  0  0  0  0
 41 84  2  0  0  0  0
 42 46  1  0  0  0  0
 43 54  1  0  0  0  0
 44 71  1  0  0  0  0
 45 70  1  0  0  0  0
 46 48  1  0  0  0  0
 47 49  1  0  0  0  0
 47 50  1  0  0  0  0
 48 52  1  0  0  0  0
 49 55  1  0  0  0  0
 50 72  1  0  0  0  0
 51 55  1  0  0  0  0
 51 72  1  0  0  0  0
 52 76  1  0  0  0  0
 53 58  1  0  0  0  0
 53 70  1  0  0  0  0
 54 71  1  0  0  0  0
 55 69  1  0  0  0  0
 59 66  1  0  0  0  0
 60 67  1  0  0  0  0
 61 67  1  0  0  0  0
 62 67  1  0  0  0  0
 63 78  1  0  0  0  0
 64 86  1  0  0  0  0
 65 67  1  0  0  0  0
 65 77  1  0  0  0  0
 66 78  1  0  0  0  0
 68 69  1  0  0  0  0
M  CHG  1  78   1
M  ISO  4  41 100  64 101  75 100  86 101
M  END
> <Batch ID>
0116

> <Smiles>
CNC(C)C(=O)NC(C(=O)N1Cc2cc([101O:1][101CH2:1]C3=C(C)N(c4cc(C)c([100NH:0][100C:0](=O)N5CCCC(n6nc(-c7ccc(Oc8ccc(F)cc8F)cc7)c(C(N)=O)c6N)C5)c(C)c4)CC(=O)C3)ccc2CC1C(=O)NC1CCCc2ccccc21)C(C)(C)C

> <Shape>
0.317

> <Color>
0.069

> <Negative vol penalty>
0.000

$$$$

  -OEChem-04052301433D

 85 93  0     1  0  0  0  0  0999 V2000
  -32.2541  -14.0445   21.2249 C   0  0  0  0  0  0  0  0  0  0  0  0
  -31.4627  -15.1861   21.1466 C   0  0  0  0  0  0  0  0  0  0  0  0
  -21.9030  -25.1097   25.4259 C   0  0  0  0  0  0  0  0  0  0  0  0
  -28.8880  -26.7332   19.4856 C   0  0  0  0  0  0  0  0  0  0  0  0
  -26.8022  -25.6785   18.8740 C   0  0  0  0  0  0  0  0  0  0  0  0
  -21.9230  -26.4840   25.1880 C   0  0  0  0  0  0  0  0  0  0  0  0
  -31.7252  -12.8052   20.8668 C   0  0  0  0  0  0  0  0  0  0  0  0
  -30.1423  -15.0890   20.7090 C   0  0  0  0  0  0  0  0  0  0  0  0
  -25.3724  -18.4133   22.6335 C   0  0  0  0  0  0  0  0  0  0  0  0
  -21.6824  -24.2226   24.3723 C   0  0  0  0  0  0  0  0  0  0  0  0
  -29.5719  -25.5555   19.1844 C   0  0  0  0  0  0  0  0  0  0  0  0
  -27.4861  -24.5007   18.5726 C   0  0  0  0  0  0  0  0  0  0  0  0
  -24.7390  -19.5377   22.1062 C   0  0  0  0  0  0  0  0  0  0  0  0
  -28.6375  -21.1038   17.9850 C   0  0  0  0  0  0  0  0  0  0  0  0
  -28.0961  -19.9038   18.4457 C   0  0  0  0  0  0  0  0  0  0  0  0
  -23.0939  -18.1146   21.0634 C   0  0  0  0  0  0  0  0  0  0  0  0
  -28.2823  -20.6934   20.7214 C   0  0  0  0  0  0  0  0  0  0  0  0
  -27.5031  -26.7947   19.3305 C   0  0  0  0  0  0  0  0  0  0  0  0
  -21.7223  -26.9712   23.8965 C   0  0  0  0  0  0  0  0  0  0  0  0
  -21.5017  -26.0842   22.8429 C   0  0  0  0  0  0  0  0  0  0  0  0
  -26.5128  -29.0774   18.7679 C   0  0  0  0  0  0  0  0  0  0  0  0
  -30.3947  -12.6915   20.4338 C   0  0  0  0  0  0  0  0  0  0  0  0
  -24.8768  -17.1281   22.3703 C   0  0  0  0  0  0  0  0  0  0  0  0
  -29.5955  -13.8471   20.3435 C   0  0  0  0  0  0  0  0  0  0  0  0
  -23.7214  -16.9756   21.5907 C   0  0  0  0  0  0  0  0  0  0  0  0
  -21.4818  -24.7099   23.0808 C   0  0  0  0  0  0  0  0  0  0  0  0
  -28.8710  -24.4392   18.7279 C   0  0  0  0  0  0  0  0  0  0  0  0
  -23.6013  -19.3883   21.3186 C   0  0  0  0  0  0  0  0  0  0  0  0
  -29.0014  -22.0987   18.8925 C   0  0  0  0  0  0  0  0  0  0  0  0
  -27.9184  -19.6985   19.8139 C   0  0  0  0  0  0  0  0  0  0  0  0
  -28.8237  -21.8935   20.2607 C   0  0  0  0  0  0  0  0  0  0  0  0
  -26.7960  -28.0109   19.6421 C   0  0  0  0  0  0  0  0  0  0  0  0
  -25.8275  -29.9824   19.5411 C   0  0  0  0  0  0  0  0  0  0  0  0
  -22.2695  -26.7741   20.6181 C   0  0  0  0  0  0  0  0  0  0  0  0
  -21.2920  -26.5975   21.4904 C   0  0  0  0  0  0  0  0  0  0  0  0
  -21.7520  -28.4160   23.6961 C   0  0  0  0  0  0  0  0  0  0  0  0
  -26.8400  -29.2358   17.3810 C   0  0  0  0  0  0  0  0  0  0  0  0
  -22.5816  -29.2932   24.5536 C   0  0  0  0  0  0  0  0  0  0  0  0
  -26.0112  -14.5416   20.9121 C   0  0  0  0  0  0  0  0  0  0  0  0
  -23.2661  -13.2004   22.0018 C   0  0  0  0  0  0  0  0  0  0  0  0
  -21.2144  -22.3937   22.1281 C   0  0  0  0  0  0  0  0  0  0  0  0
  -20.0499  -13.6340   23.0578 C   0  0  0  0  0  0  0  0  0  0  0  0
  -29.8817  -11.3373   20.0124 C   0  0  0  0  0  0  0  0  0  0  0  0
  -25.5561  -15.9269   22.9687 C   0  0  0  0  0  0  0  0  0  0  0  0
  -23.1374  -15.6190   21.2954 C   0  0  0  0  0  0  0  0  0  0  0  0
  -28.3599  -11.2654   19.9160 C   0  0  0  0  0  0  0  0  0  0  0  0
  -25.3742  -31.4854   24.0515 C   0  0  0  0  0  0  0  0  0  0  0  0
  -27.8150  -12.4751   19.1633 C   0  0  0  0  0  0  0  0  0  0  0  0
  -26.0512  -30.9152   22.8055 C   0  0  0  0  0  0  0  0  0  0  0  0
  -24.7626  -30.3822   24.9089 C   0  0  0  0  0  0  0  0  0  0  0  0
  -24.4782  -28.9306   22.9188 C   0  0  0  0  0  0  0  0  0  0  0  0
  -28.1511  -13.7789   19.8972 C   0  0  1  0  0  0  0  0  0  0  0  0
  -25.2625  -14.6355   22.2114 C   0  0  1  0  0  0  0  0  0  0  0  0
  -25.0839  -30.0175   22.0136 C   0  0  2  0  0  0  0  0  0  0  0  0
  -18.0448  -12.3471   23.8458 C   0  0  0  0  0  0  0  0  0  0  0  0
  -22.6980  -12.3330   19.1321 C   0  0  0  0  0  0  0  0  0  0  0  0
  -20.3207  -11.9213   19.8010 C   0  0  0  0  0  0  0  0  0  0  0  0
  -22.1587  -10.6148   20.8675 C   0  0  0  0  0  0  0  0  0  0  0  0
  -20.0550  -15.0063   25.6800 C   0  0  0  0  0  0  0  0  0  0  0  0
  -20.9511  -21.7760   20.7594 C   0  0  0  0  0  0  0  0  0  0  0  0
  -21.5720  -20.3968   20.5968 C   0  0  0  0  0  0  0  0  0  1  0  0
  -21.8622  -13.0531   21.4665 C   0  0  1  0  0  0  0  0  0  0  0  0
  -19.3037  -13.0913   24.2633 C   0  0  2  0  0  0  0  0  0  0  0  0
  -21.7718  -12.0061   20.3205 C   0  0  0  0  0  0  0  0  0  0  0  0
  -26.3288  -28.2178   20.8762 N   0  0  0  0  0  0  0  0  0  0  0  0
  -21.0663  -29.0202   22.7670 N   0  0  0  0  0  0  0  0  0  0  0  0
  -25.7453  -29.4248   20.7831 N   0  0  0  0  0  0  0  0  0  0  0  0
  -23.8786  -29.5275   24.1188 N   0  0  0  0  0  0  0  0  0  0  0  0
  -23.8412  -14.4748   21.8978 N   0  0  0  0  0  0  0  0  0  0  0  0
  -25.2932  -31.1928   19.2729 N   0  0  0  0  0  0  0  0  0  0  0  0
  -27.5476  -28.2098   16.7400 N   0  0  0  0  0  0  0  0  0  0  0  0
  -21.2603  -23.7821   22.0353 N   0  0  0  0  0  0  0  0  0  0  0  0
  -27.2632  -13.9678   21.0244 N   0  0  0  0  0  0  0  0  0  0  0  0
  -21.0160  -12.7545   22.6167 N   0  0  0  0  0  0  0  0  0  0  0  0
  -18.9117  -14.2040   25.1739 N   0  3  0  0  0  0  0  0  0  0  0  0
  -26.5287  -30.2642   16.7336 O   0  0  0  0  0  0  0  0  0  0  0  0
  -22.0313  -29.7198   25.5604 O   0  0  0  0  0  0  0  0  0  0  0  0
  -25.4909  -14.9576   19.8835 O   0  0  0  0  0  0  0  0  0  0  0  0
  -23.8288  -12.2225   22.5005 O   0  0  0  0  0  0  0  0  0  0  0  0
  -21.3581  -21.7100   23.1361 O   0  0  0  0  0  0  0  0  0  0  0  0
  -19.7983  -14.7270   22.5553 O   0  0  0  0  0  0  0  0  0  0  0  0
  -29.5380  -23.2899   18.4336 O   0  0  0  0  0  0  0  0  0  0  0  0
  -22.9815  -20.4842   20.8021 O   0  0  0  0  0  0  0  0  0  1  0  0
  -27.3970  -18.5466   20.2560 F   0  0  0  0  0  0  0  0  0  0  0  0
  -29.1703  -22.8460   21.1373 F   0  0  0  0  0  0  0  0  0  0  0  0
  1  2  1  0  0  0  0
  1  7  2  0  0  0  0
  2  8  2  0  0  0  0
  3  6  2  0  0  0  0
  3 10  1  0  0  0  0
  4 11  2  0  0  0  0
  4 18  1  0  0  0  0
  5 12  1  0  0  0  0
  5 18  2  0  0  0  0
  6 19  1  0  0  0  0
  7 22  1  0  0  0  0
  8 24  1  0  0  0  0
  9 13  2  0  0  0  0
  9 23  1  0  0  0  0
 10 26  2  0  0  0  0
 11 27  1  0  0  0  0
 12 27  2  0  0  0  0
 13 28  1  0  0  0  0
 14 15  2  0  0  0  0
 14 29  1  0  0  0  0
 15 30  1  0  0  0  0
 16 25  1  0  0  0  0
 16 28  2  0  0  0  0
 17 30  2  0  0  0  0
 17 31  1  0  0  0  0
 18 32  1  0  0  0  0
 19 20  2  0  0  0  0
 19 36  1  0  0  0  0
 20 26  1  0  0  0  0
 20 35  1  0  0  0  0
 21 32  1  0  0  0  0
 21 33  2  0  0  0  0
 21 37  1  0  0  0  0
 22 24  2  0  0  0  0
 22 43  1  0  0  0  0
 23 25  2  0  0  0  0
 23 44  1  0  0  0  0
 24 52  1  0  0  0  0
 25 45  1  0  0  0  0
 26 72  1  0  0  0  0
 27 82  1  0  0  0  0
 28 83  1  0  0  0  0
 29 31  2  0  0  0  0
 29 82  1  0  0  0  0
 30 84  1  0  0  0  0
 31 85  1  0  0  0  0
 32 65  2  0  0  0  0
 33 67  1  0  0  0  0
 33 70  1  0  0  0  0
 34 35  2  0  0  0  0
 36 38  1  0  0  0  0
 36 66  2  0  0  0  0
 37 71  1  0  0  0  0
 37 76  2  0  0  0  0
 38 68  1  0  0  0  0
 38 77  2  0  0  0  0
 39 53  1  0  0  0  0
 39 73  1  0  0  0  0
 39 78  2  0  0  0  0
 40 62  1  0  0  0  0
 40 69  1  0  0  0  0
 40 79  2  0  0  0  0
 41 60  1  0  0  0  0
 41 72  1  0  0  0  0
 41 80  2  0  0  0  0
 42 63  1  0  0  0  0
 42 74  1  0  0  0  0
 42 81  2  0  0  0  0
 43 46  1  0  0  0  0
 44 53  1  0  0  0  0
 45 69  1  0  0  0  0
 46 48  1  0  0  0  0
 47 49  1  0  0  0  0
 47 50  1  0  0  0  0
 48 52  1  0  0  0  0
 49 54  1  0  0  0  0
 50 68  1  0  0  0  0
 51 54  1  0  0  0  0
 51 68  1  0  0  0  0
 52 73  1  0  0  0  0
 53 69  1  0  0  0  0
 54 67  1  0  0  0  0
 55 63  1  0  0  0  0
 56 64  1  0  0  0  0
 57 64  1  0  0  0  0
 58 64  1  0  0  0  0
 59 75  1  0  0  0  0
 60 61  1  0  0  0  0
 61 83  1  0  0  0  0
 62 64  1  0  0  0  0
 62 74  1  0  0  0  0
 63 75  1  0  0  0  0
 65 67  1  0  0  0  0
M  CHG  1  75   1
M  ISO  4  36 100  38 100  61 101  83 101
M  END
> <Batch ID>
0116

> <Smiles>
C=Cc1c(NC(=O)C[101CH2:1][101O:1]c2ccc3c(c2)CN(C(=O)C(NC(=O)C(C)NC)C(C)(C)C)C(C(=O)NC2CCCc4ccccc42)C3)cccc1[100C:0](=N)[100C:0](=O)N1CCCC(n2nc(-c3ccc(Oc4ccc(F)cc4F)cc3)c(C(N)=O)c2N)C1

> <Shape>
0.251

> <Color>
0.066

> <Negative vol penalty>
0.000

$$$$

  -OEChem-04052301433D

 83 91  0     1  0  0  0  0  0999 V2000
  -29.4736  -30.8410   26.6146 C   0  0  0  0  0  0  0  0  0  0  0  0
  -29.2733  -30.0063   25.5198 C   0  0  0  0  0  0  0  0  0  0  0  0
  -22.9116  -10.2847   21.8284 C   0  0  0  0  0  0  0  0  0  0  0  0
  -24.7379   -8.7812   21.3372 C   0  0  0  0  0  0  0  0  0  0  0  0
  -28.3819  -31.2887   27.3573 C   0  0  0  0  0  0  0  0  0  0  0  0
  -27.9812  -29.6180   25.1677 C   0  0  0  0  0  0  0  0  0  0  0  0
  -27.1461  -29.9401   20.1833 C   0  0  0  0  0  0  0  0  0  0  0  0
  -22.0031   -9.2438   21.6371 C   0  0  0  0  0  0  0  0  0  0  0  0
  -23.8294   -7.7402   21.1460 C   0  0  0  0  0  0  0  0  0  0  0  0
  -27.6624  -28.9211   19.3840 C   0  0  0  0  0  0  0  0  0  0  0  0
  -22.0154   -4.6005   20.8815 C   0  0  0  0  0  0  0  0  0  0  0  0
  -22.3109   -3.3663   21.4603 C   0  0  0  0  0  0  0  0  0  0  0  0
  -30.0436  -20.0963   18.0190 C   0  0  0  0  0  0  0  0  0  0  0  0
  -30.4510  -22.4345   17.5669 C   0  0  0  0  0  0  0  0  0  0  0  0
  -25.4848  -27.8860   19.3077 C   0  0  0  0  0  0  0  0  0  0  0  0
  -22.3152   -4.3930   23.6473 C   0  0  0  0  0  0  0  0  0  0  0  0
  -24.2790  -10.0535   21.6784 C   0  0  0  0  0  0  0  0  0  0  0  0
  -29.1860  -20.4473   19.0615 C   0  0  0  0  0  0  0  0  0  0  0  0
  -29.5934  -22.7854   18.6095 C   0  0  0  0  0  0  0  0  0  0  0  0
  -25.8466  -11.4984   23.0794 C   0  0  0  0  0  0  0  0  0  0  0  0
  -27.0750  -30.9135   27.0084 C   0  0  0  0  0  0  0  0  0  0  0  0
  -25.7955  -29.9339   20.5604 C   0  0  0  0  0  0  0  0  0  0  0  0
  -26.8711  -30.0601   25.9072 C   0  0  0  0  0  0  0  0  0  0  0  0
  -24.9533  -28.9075   20.1096 C   0  0  0  0  0  0  0  0  0  0  0  0
  -28.9608  -21.7918   19.3567 C   0  0  0  0  0  0  0  0  0  0  0  0
  -30.6762  -21.0899   17.2717 C   0  0  0  0  0  0  0  0  0  0  0  0
  -22.4620   -7.9715   21.2960 C   0  0  0  0  0  0  0  0  0  0  0  0
  -26.8324  -27.8923   18.9485 C   0  0  0  0  0  0  0  0  0  0  0  0
  -21.8699   -5.7310   21.6856 C   0  0  0  0  0  0  0  0  0  0  0  0
  -22.4607   -3.2625   22.8432 C   0  0  0  0  0  0  0  0  0  0  0  0
  -22.0198   -5.6272   23.0685 C   0  0  0  0  0  0  0  0  0  0  0  0
  -25.2180  -11.1285   21.8753 C   0  0  0  0  0  0  0  0  0  0  0  0
  -26.6374  -12.5686   22.7393 C   0  0  0  0  0  0  0  0  0  0  0  0
  -28.5426  -19.3832   19.8216 C   0  0  0  0  0  0  0  0  0  0  0  0
  -29.3792  -24.2145   18.8927 C   0  0  0  0  0  0  0  0  0  0  0  0
  -27.7340  -18.4352   19.3062 C   0  0  0  0  0  0  0  0  0  0  0  0
  -28.8959  -25.1126   18.0203 C   0  0  0  0  0  0  0  0  0  0  0  0
  -25.7264  -10.9256   24.3883 C   0  0  0  0  0  0  0  0  0  0  0  0
  -27.1640  -17.4146   20.2085 C   0  0  0  0  0  0  0  0  0  0  0  0
  -24.2400  -29.7798   23.3281 C   0  0  0  0  0  0  0  0  0  0  0  0
  -21.6421  -30.2746   21.4497 C   0  0  0  0  0  0  0  0  0  0  0  0
  -20.2178  -30.0478   18.3567 C   0  0  0  0  0  0  0  0  0  0  0  0
  -25.9301  -31.3844   27.8697 C   0  0  0  0  0  0  0  0  0  0  0  0
  -25.2480  -31.0548   21.4008 C   0  0  0  0  0  0  0  0  0  0  0  0
  -23.4914  -28.8656   20.4697 C   0  0  0  0  0  0  0  0  0  0  0  0
  -24.5644  -31.2300   27.2054 C   0  0  0  0  0  0  0  0  0  0  0  0
  -27.9281  -14.4247   18.2315 C   0  0  0  0  0  0  0  0  0  0  0  0
  -24.4308  -29.8475   26.5748 C   0  0  0  0  0  0  0  0  0  0  0  0
  -27.2938  -13.3344   19.0910 C   0  0  0  0  0  0  0  0  0  0  0  0
  -27.1377  -15.7310   18.2899 C   0  0  0  0  0  0  0  0  0  0  0  0
  -26.2776  -15.1388   20.5372 C   0  0  0  0  0  0  0  0  0  0  0  0
  -25.4826  -29.6370   25.4790 C   0  0  1  0  0  0  0  0  0  0  0  0
  -23.9747  -30.6732   22.1495 C   0  0  1  0  0  0  0  0  0  0  0  0
  -27.0826  -13.8299   20.5304 C   0  0  1  0  0  0  0  0  0  0  0  0
  -28.0396  -22.1693   20.4775 C   0  0  0  0  0  0  0  0  0  0  0  0
  -18.0692  -30.4953   17.1397 C   0  0  0  0  0  0  0  0  0  0  0  0
  -20.4123  -27.7825   22.7094 C   0  0  0  0  0  0  0  0  0  0  0  0
  -18.7549  -27.7370   20.8334 C   0  0  0  0  0  0  0  0  0  0  0  0
  -18.8200  -29.6845   22.3909 C   0  0  0  0  0  0  0  0  0  0  0  0
  -21.5184  -31.9825   16.5335 C   0  0  0  0  0  0  0  0  0  0  0  0
  -28.7085  -26.5588   18.3502 C   0  0  0  0  0  0  0  0  0  1  0  0
  -20.6780  -29.3850   20.7026 C   0  0  1  0  0  0  0  0  0  0  0  0
  -19.4285  -31.0511   17.5352 C   0  0  2  0  0  0  0  0  0  0  0  0
  -19.6942  -28.6467   21.6537 C   0  0  0  0  0  0  0  0  0  0  0  0
  -25.5783  -11.9011   20.8470 N   0  0  0  0  0  0  0  0  0  0  0  0
  -26.4417  -12.7672   21.4042 N   0  0  0  0  0  0  0  0  0  0  0  0
  -26.8980  -16.1535   19.6780 N   0  0  0  0  0  0  0  0  0  0  0  0
  -23.0047  -29.9808   21.2986 N   0  0  0  0  0  0  0  0  0  0  0  0
  -31.5432  -20.7348   16.2172 N   0  0  0  0  0  0  0  0  0  0  0  0
  -27.4740  -13.3498   23.4550 N   0  0  0  0  0  0  0  0  0  0  0  0
  -24.8700   -9.8299   24.5621 N   0  0  0  0  0  0  0  0  0  0  0  0
  -25.0945  -30.3258   24.2668 N   0  0  0  0  0  0  0  0  0  0  0  0
  -20.0264  -30.2324   19.7097 N   0  0  0  0  0  0  0  0  0  0  0  0
  -20.1722  -31.4023   16.2924 N   0  3  0  0  0  0  0  0  0  0  0  0
  -26.3472  -11.3826   25.3779 O   0  0  0  0  0  0  0  0  0  0  0  0
  -26.9533  -17.7430   21.3775 O   0  0  0  0  0  0  0  0  0  0  0  0
  -23.7077  -28.6774   23.3825 O   0  0  0  0  0  0  0  0  0  0  0  0
  -21.2028  -31.2006   22.1361 O   0  0  0  0  0  0  0  0  0  0  0  0
  -20.9297  -29.1842   17.8489 O   0  0  0  0  0  0  0  0  0  0  0  0
  -21.5758   -6.9554   21.1095 O   0  0  0  0  0  0  0  0  0  0  0  0
  -27.3339  -26.8960   18.1688 O   0  0  0  0  0  0  0  0  0  1  0  0
  -22.7430   -2.0770   23.3991 F   0  0  0  0  0  0  0  0  0  0  0  0
  -21.8800   -6.7096   23.8462 F   0  0  0  0  0  0  0  0  0  0  0  0
  1  2  1  0  0  0  0
  1  5  2  0  0  0  0
  2  6  2  0  0  0  0
  3  8  2  0  0  0  0
  3 17  1  0  0  0  0
  4  9  1  0  0  0  0
  4 17  2  0  0  0  0
  5 21  1  0  0  0  0
  6 23  1  0  0  0  0
  7 10  2  0  0  0  0
  7 22  1  0  0  0  0
  8 27  1  0  0  0  0
  9 27  2  0  0  0  0
 10 28  1  0  0  0  0
 11 12  2  0  0  0  0
 11 29  1  0  0  0  0
 12 30  1  0  0  0  0
 13 18  2  0  0  0  0
 13 26  1  0  0  0  0
 14 19  1  0  0  0  0
 14 26  2  0  0  0  0
 15 24  1  0  0  0  0
 15 28  2  0  0  0  0
 16 30  2  0  0  0  0
 16 31  1  0  0  0  0
 17 32  1  0  0  0  0
 18 25  1  0  0  0  0
 18 34  1  0  0  0  0
 19 25  2  0  0  0  0
 19 35  1  0  0  0  0
 20 32  1  0  0  0  0
 20 33  2  0  0  0  0
 20 38  1  0  0  0  0
 21 23  2  0  0  0  0
 21 43  1  0  0  0  0
 22 24  2  0  0  0  0
 22 44  1  0  0  0  0
 23 52  1  0  0  0  0
 24 45  1  0  0  0  0
 25 55  1  0  0  0  0
 26 69  1  0  0  0  0
 27 80  1  0  0  0  0
 28 81  1  0  0  0  0
 29 31  2  0  0  0  0
 29 80  1  0  0  0  0
 30 82  1  0  0  0  0
 31 83  1  0  0  0  0
 32 65  2  0  0  0  0
 33 66  1  0  0  0  0
 33 70  1  0  0  0  0
 34 36  2  0  0  0  0
 35 37  2  0  0  0  0
 36 39  1  0  0  0  0
 37 61  1  0  0  0  0
 38 71  1  0  0  0  0
 38 75  2  0  0  0  0
 39 67  1  0  0  0  0
 39 76  2  0  0  0  0
 40 53  1  0  0  0  0
 40 72  1  0  0  0  0
 40 77  2  0  0  0  0
 41 62  1  0  0  0  0
 41 68  1  0  0  0  0
 41 78  2  0  0  0  0
 42 63  1  0  0  0  0
 42 73  1  0  0  0  0
 42 79  2  0  0  0  0
 43 46  1  0  0  0  0
 44 53  1  0  0  0  0
 45 68  1  0  0  0  0
 46 48  1  0  0  0  0
 47 49  1  0  0  0  0
 47 50  1  0  0  0  0
 48 52  1  0  0  0  0
 49 54  1  0  0  0  0
 50 67  1  0  0  0  0
 51 54  1  0  0  0  0
 51 67  1  0  0  0  0
 52 72  1  0  0  0  0
 53 68  1  0  0  0  0
 54 66  1  0  0  0  0
 56 63  1  0  0  0  0
 57 64  1  0  0  0  0
 58 64  1  0  0  0  0
 59 64  1  0  0  0  0
 60 74  1  0  0  0  0
 61 81  1  0  0  0  0
 62 64  1  0  0  0  0
 62 73  1  0  0  0  0
 63 74  1  0  0  0  0
 65 66  1  0  0  0  0
M  CHG  1  74   1
M  ISO  4  36 100  39 100  61 101  81 101
M  END
> <Batch ID>
0116

> <Smiles>
CNC(C)C(=O)NC(C(=O)N1Cc2cc([101O:1][101CH2:1]C=Cc3cc(N)cc(C=[100CH:0][100C:0](=O)N4CCCC(n5nc(-c6ccc(Oc7ccc(F)cc7F)cc6)c(C(N)=O)c5N)C4)c3C)ccc2CC1C(=O)NC1CCCc2ccccc21)C(C)(C)C

> <Shape>
0.299

> <Color>
0.099

> <Negative vol penalty>
0.000

$$$$

  -OEChem-04052301433D

 85 93  0     1  0  0  0  0  0999 V2000
  -16.1912  -23.7081   27.3537 C   0  0  0  0  0  0  0  0  0  0  0  0
  -17.5567  -23.4434   27.3247 C   0  0  0  0  0  0  0  0  0  0  0  0
  -23.0317   -9.9117   19.9714 C   0  0  0  0  0  0  0  0  0  0  0  0
  -23.7470   -9.9639   22.2785 C   0  0  0  0  0  0  0  0  0  0  0  0
  -15.6149  -24.5012   26.3624 C   0  0  0  0  0  0  0  0  0  0  0  0
  -18.3465  -23.9709   26.3037 C   0  0  0  0  0  0  0  0  0  0  0  0
  -24.1551  -25.8606   26.7452 C   0  0  0  0  0  0  0  0  0  0  0  0
  -32.6114  -17.5246   23.4770 C   0  0  0  0  0  0  0  0  0  0  0  0
  -32.0055  -16.6371   22.5877 C   0  0  0  0  0  0  0  0  0  0  0  0
  -22.2769   -8.7679   20.2312 C   0  0  0  0  0  0  0  0  0  0  0  0
  -22.9922   -8.8200   22.5384 C   0  0  0  0  0  0  0  0  0  0  0  0
  -25.3671  -25.2487   26.4284 C   0  0  0  0  0  0  0  0  0  0  0  0
  -23.2760   -5.4855   22.0575 C   0  0  0  0  0  0  0  0  0  0  0  0
  -23.8720   -4.4727   22.8090 C   0  0  0  0  0  0  0  0  0  0  0  0
  -25.3601  -26.3577   24.2862 C   0  0  0  0  0  0  0  0  0  0  0  0
  -22.1387   -4.6912   24.4779 C   0  0  0  0  0  0  0  0  0  0  0  0
  -23.7668  -10.5097   20.9950 C   0  0  0  0  0  0  0  0  0  0  0  0
  -29.8404  -17.5472   23.1546 C   0  0  0  0  0  0  0  0  0  0  0  0
  -24.1244  -13.0300   20.8281 C   0  0  0  0  0  0  0  0  0  0  0  0
  -16.3996  -25.0466   25.3341 C   0  0  0  0  0  0  0  0  0  0  0  0
  -23.5300  -26.7185   25.8289 C   0  0  0  0  0  0  0  0  0  0  0  0
  -17.7798  -24.7710   25.2970 C   0  0  0  0  0  0  0  0  0  0  0  0
  -24.1415  -26.9812   24.5947 C   0  0  0  0  0  0  0  0  0  0  0  0
  -31.8318  -18.4234   24.2052 C   0  0  0  0  0  0  0  0  0  0  0  0
  -30.6200  -16.6484   22.4265 C   0  0  0  0  0  0  0  0  0  0  0  0
  -22.2571   -8.2220   21.5147 C   0  0  0  0  0  0  0  0  0  0  0  0
  -25.9684  -25.4950   25.1976 C   0  0  0  0  0  0  0  0  0  0  0  0
  -22.1115   -6.1012   22.5163 C   0  0  0  0  0  0  0  0  0  0  0  0
  -30.4463  -18.4347   24.0440 C   0  0  0  0  0  0  0  0  0  0  0  0
  -23.3033   -4.0755   24.0191 C   0  0  0  0  0  0  0  0  0  0  0  0
  -21.5428   -5.7040   23.7264 C   0  0  0  0  0  0  0  0  0  0  0  0
  -24.5471  -11.6910   20.7271 C   0  0  0  0  0  0  0  0  0  0  0  0
  -25.2274  -13.7662   20.4703 C   0  0  0  0  0  0  0  0  0  0  0  0
  -27.5611  -16.8594   23.7435 C   0  0  0  0  0  0  0  0  0  0  0  0
  -28.3885  -17.5671   22.9931 C   0  0  0  0  0  0  0  0  0  0  0  0
  -22.8488  -13.5609   21.2111 C   0  0  0  0  0  0  0  0  0  0  0  0
  -20.7580  -26.7038   24.2734 C   0  0  0  0  0  0  0  0  0  0  0  0
  -21.7172  -29.6552   23.3294 C   0  0  0  0  0  0  0  0  0  0  0  0
  -24.2921  -31.8259   22.7770 C   0  0  0  0  0  0  0  0  0  0  0  0
  -30.6947  -14.7882   20.7294 C   0  0  0  0  0  0  0  0  0  0  0  0
  -15.7237  -25.8591   24.2582 C   0  0  0  0  0  0  0  0  0  0  0  0
  -22.2360  -27.3916   26.1965 C   0  0  0  0  0  0  0  0  0  0  0  0
  -23.5214  -27.9101   23.5842 C   0  0  0  0  0  0  0  0  0  0  0  0
  -16.6941  -26.6885   23.4211 C   0  0  0  0  0  0  0  0  0  0  0  0
  -29.6135  -12.3299   18.3916 C   0  0  0  0  0  0  0  0  0  0  0  0
  -17.8916  -25.8433   22.9984 C   0  0  0  0  0  0  0  0  0  0  0  0
  -28.1642  -12.0547   18.7991 C   0  0  0  0  0  0  0  0  0  0  0  0
  -30.5063  -12.5798   19.6057 C   0  0  0  0  0  0  0  0  0  0  0  0
  -28.5769  -13.3430   20.9338 C   0  0  0  0  0  0  0  0  0  0  0  0
  -18.6740  -25.3455   24.2197 C   0  0  1  0  0  0  0  0  0  0  0  0
  -21.4320  -27.8447   24.9817 C   0  0  1  0  0  0  0  0  0  0  0  0
  -27.6261  -13.1495   19.7412 C   0  0  2  0  0  0  0  0  0  0  0  0
  -32.5005  -19.3650   25.1520 C   0  0  0  0  0  0  0  0  0  0  0  0
  -24.7672  -34.1539   21.9694 C   0  0  0  0  0  0  0  0  0  0  0  0
  -21.2495  -28.7504   20.4532 C   0  0  0  0  0  0  0  0  0  0  0  0
  -22.6083  -30.7096   19.6895 C   0  0  0  0  0  0  0  0  0  0  0  0
  -20.4882  -31.0800   20.9508 C   0  0  0  0  0  0  0  0  0  0  0  0
  -25.4918  -32.6045   25.3680 C   0  0  0  0  0  0  0  0  0  0  0  0
  -28.3068  -22.8063   24.5428 C   0  0  0  0  0  0  0  0  0  0  0  0
  -28.5889  -21.4203   25.1121 C   0  0  0  0  0  0  0  0  0  0  0  0
  -27.4054  -23.6187   25.4632 C   0  0  0  0  0  0  0  0  0  1  0  0
  -29.4545  -20.5923   24.1728 C   0  0  0  0  0  0  0  0  0  0  0  0
  -22.5193  -30.1994   22.1720 C   0  0  1  0  0  0  0  0  0  0  0  0
  -24.4913  -33.2758   23.1801 C   0  0  2  0  0  0  0  0  0  0  0  0
  -21.7273  -30.1658   20.8344 C   0  0  0  0  0  0  0  0  0  0  0  0
  -25.8193  -11.5800   20.3357 N   0  0  0  0  0  0  0  0  0  0  0  0
  -26.2055  -12.8587   20.1875 N   0  0  0  0  0  0  0  0  0  0  0  0
  -22.2529  -28.5392   23.9876 N   0  0  0  0  0  0  0  0  0  0  0  0
  -29.9360  -13.6319   20.4500 N   0  0  0  0  0  0  0  0  0  0  0  0
  -25.4463  -15.0947   20.3732 N   0  0  0  0  0  0  0  0  0  0  0  0
  -21.8257  -12.6642   21.5478 N   0  0  0  0  0  0  0  0  0  0  0  0
  -30.0365  -15.7337   21.5152 N   0  0  0  0  0  0  0  0  0  0  0  0
  -19.4988  -26.4058   24.7582 N   0  0  0  0  0  0  0  0  0  0  0  0
  -22.9608  -31.5312   22.5717 N   0  0  0  0  0  0  0  0  0  0  0  0
  -25.6402  -33.3986   24.1213 N   0  3  0  0  0  0  0  0  0  0  0  0
  -22.6181  -14.7937   21.2377 O   0  0  0  0  0  0  0  0  0  0  0  0
  -21.3369  -26.1368   23.3540 O   0  0  0  0  0  0  0  0  0  0  0  0
  -20.6582  -30.2047   23.6426 O   0  0  0  0  0  0  0  0  0  0  0  0
  -25.2245  -31.0349   22.6527 O   0  0  0  0  0  0  0  0  0  0  0  0
  -31.8335  -14.9413   20.2804 O   0  0  0  0  0  0  0  0  0  0  0  0
  -21.5206   -7.1060   21.7687 O   0  0  0  0  0  0  0  0  0  0  0  0
  -27.1512  -24.8986   24.8856 O   0  0  0  0  0  0  0  0  0  1  0  0
  -29.6921  -19.3230   24.7657 O   0  0  0  0  0  0  0  0  0  0  0  0
  -23.8749   -3.1019   24.7399 F   0  0  0  0  0  0  0  0  0  0  0  0
  -20.4234   -6.2910   24.1717 F   0  0  0  0  0  0  0  0  0  0  0  0
  1  2  1  0  0  0  0
  1  5  2  0  0  0  0
  2  6  2  0  0  0  0
  3 10  2  0  0  0  0
  3 17  1  0  0  0  0
  4 11  1  0  0  0  0
  4 17  2  0  0  0  0
  5 20  1  0  0  0  0
  6 22  1  0  0  0  0
  7 12  2  0  0  0  0
  7 21  1  0  0  0  0
  8  9  1  0  0  0  0
  8 24  2  0  0  0  0
  9 25  2  0  0  0  0
 10 26  1  0  0  0  0
 11 26  2  0  0  0  0
 12 27  1  0  0  0  0
 13 14  2  0  0  0  0
 13 28  1  0  0  0  0
 14 30  1  0  0  0  0
 15 23  1  0  0  0  0
 15 27  2  0  0  0  0
 16 30  2  0  0  0  0
 16 31  1  0  0  0  0
 17 32  1  0  0  0  0
 18 25  1  0  0  0  0
 18 29  2  0  0  0  0
 18 35  1  0  0  0  0
 19 32  1  0  0  0  0
 19 33  2  0  0  0  0
 19 36  1  0  0  0  0
 20 22  2  0  0  0  0
 20 41  1  0  0  0  0
 21 23  2  0  0  0  0
 21 42  1  0  0  0  0
 22 50  1  0  0  0  0
 23 43  1  0  0  0  0
 24 29  1  0  0  0  0
 24 53  1  0  0  0  0
 25 72  1  0  0  0  0
 26 81  1  0  0  0  0
 27 82  1  0  0  0  0
 28 31  2  0  0  0  0
 28 81  1  0  0  0  0
 29 83  1  0  0  0  0
 30 84  1  0  0  0  0
 31 85  1  0  0  0  0
 32 66  2  0  0  0  0
 33 67  1  0  0  0  0
 33 70  1  0  0  0  0
 34 35  2  0  0  0  0
 36 71  1  0  0  0  0
 36 76  2  0  0  0  0
 37 51  1  0  0  0  0
 37 73  1  0  0  0  0
 37 77  2  0  0  0  0
 38 63  1  0  0  0  0
 38 68  1  0  0  0  0
 38 78  2  0  0  0  0
 39 64  1  0  0  0  0
 39 74  1  0  0  0  0
 39 79  2  0  0  0  0
 40 69  1  0  0  0  0
 40 72  1  0  0  0  0
 40 80  2  0  0  0  0
 41 44  1  0  0  0  0
 42 51  1  0  0  0  0
 43 68  1  0  0  0  0
 44 46  1  0  0  0  0
 45 47  1  0  0  0  0
 45 48  1  0  0  0  0
 46 50  1  0  0  0  0
 47 52  1  0  0  0  0
 48 69  1  0  0  0  0
 49 52  1  0  0  0  0
 49 69  1  0  0  0  0
 50 73  1  0  0  0  0
 51 68  1  0  0  0  0
 52 67  1  0  0  0  0
 54 64  1  0  0  0  0
 55 65  1  0  0  0  0
 56 65  1  0  0  0  0
 57 65  1  0  0  0  0
 58 75  1  0  0  0  0
 59 60  1  0  0  0  0
 59 61  1  0  0  0  0
 60 62  1  0  0  0  0
 61 82  1  0  0  0  0
 62 83  1  0  0  0  0
 63 65  1  0  0  0  0
 63 74  1  0  0  0  0
 64 75  1  0  0  0  0
 66 67  1  0  0  0  0
M  CHG  1  75   1
M  ISO  4  40 100  61 101  72 100  82 101
M  END
> <Batch ID>
0116

> <Smiles>
C=Cc1c([100NH:0][100C:0](=O)N2CCCC(n3nc(-c4ccc(Oc5ccc(F)cc5F)cc4)c(C(N)=O)c3N)C2)ccc(C)c1OCCC[101CH2:1][101O:1]c1ccc2c(c1)CN(C(=O)C(NC(=O)C(C)NC)C(C)(C)C)C(C(=O)NC1CCCc3ccccc31)C2

> <Shape>
0.275

> <Color>
0.217

> <Negative vol penalty>
0.000

$$$$

  -OEChem-04052301433D

 85 93  0     1  0  0  0  0  0999 V2000
  -31.7288  -31.2545   25.3916 C   0  0  0  0  0  0  0  0  0  0  0  0
  -31.8214  -30.0373   24.7243 C   0  0  0  0  0  0  0  0  0  0  0  0
  -23.3910   -9.7376   19.9582 C   0  0  0  0  0  0  0  0  0  0  0  0
  -23.7061  -10.0231   22.3365 C   0  0  0  0  0  0  0  0  0  0  0  0
  -28.6120  -15.2318   25.3558 C   0  0  0  0  0  0  0  0  0  0  0  0
  -30.6131  -31.5327   26.1803 C   0  0  0  0  0  0  0  0  0  0  0  0
  -30.7989  -29.0971   24.8461 C   0  0  0  0  0  0  0  0  0  0  0  0
  -28.8337  -25.2159   20.5356 C   0  0  0  0  0  0  0  0  0  0  0  0
  -22.6920   -8.5535   20.1929 C   0  0  0  0  0  0  0  0  0  0  0  0
  -23.0071   -8.8390   22.5712 C   0  0  0  0  0  0  0  0  0  0  0  0
  -29.1040  -16.4798   24.9736 C   0  0  0  0  0  0  0  0  0  0  0  0
  -29.1049  -23.8704   20.2908 C   0  0  0  0  0  0  0  0  0  0  0  0
  -19.7837   -7.8285   22.6669 C   0  0  0  0  0  0  0  0  0  0  0  0
  -18.8254   -7.8335   23.6804 C   0  0  0  0  0  0  0  0  0  0  0  0
  -30.5343  -15.4165   23.3425 C   0  0  0  0  0  0  0  0  0  0  0  0
  -27.1090  -23.2548   21.4977 C   0  0  0  0  0  0  0  0  0  0  0  0
  -20.0335   -6.0861   24.8313 C   0  0  0  0  0  0  0  0  0  0  0  0
  -23.8981  -10.4723   21.0299 C   0  0  0  0  0  0  0  0  0  0  0  0
  -29.0813  -14.0761   24.7314 C   0  0  0  0  0  0  0  0  0  0  0  0
  -30.0424  -14.1684   23.7247 C   0  0  0  0  0  0  0  0  0  0  0  0
  -24.0872  -12.9952   20.7029 C   0  0  0  0  0  0  0  0  0  0  0  0
  -29.5720  -30.5993   26.3041 C   0  0  0  0  0  0  0  0  0  0  0  0
  -27.7021  -25.5911   21.2739 C   0  0  0  0  0  0  0  0  0  0  0  0
  -29.6689  -29.3625   25.6382 C   0  0  0  0  0  0  0  0  0  0  0  0
  -26.8243  -24.6059   21.7483 C   0  0  0  0  0  0  0  0  0  0  0  0
  -22.5001   -8.1043   21.4994 C   0  0  0  0  0  0  0  0  0  0  0  0
  -30.0651  -16.5721   23.9669 C   0  0  0  0  0  0  0  0  0  0  0  0
  -28.2441  -22.8895   20.7743 C   0  0  0  0  0  0  0  0  0  0  0  0
  -20.8669   -6.9523   22.7355 C   0  0  0  0  0  0  0  0  0  0  0  0
  -18.9503   -6.9623   24.7626 C   0  0  0  0  0  0  0  0  0  0  0  0
  -20.9918   -6.0811   23.8177 C   0  0  0  0  0  0  0  0  0  0  0  0
  -24.6207  -11.6952   20.7881 C   0  0  0  0  0  0  0  0  0  0  0  0
  -25.1756  -13.7979   20.4631 C   0  0  0  0  0  0  0  0  0  0  0  0
  -28.6211  -12.3396   26.4012 C   0  0  0  0  0  0  0  0  0  0  0  0
  -28.5467  -12.7886   25.1577 C   0  0  0  0  0  0  0  0  0  0  0  0
  -30.8088  -19.3666   21.8337 C   0  0  0  0  0  0  0  0  0  0  0  0
  -30.0247  -19.7722   20.8243 C   0  0  0  0  0  0  0  0  0  0  0  0
  -30.5597  -12.9852   23.0475 C   0  0  0  0  0  0  0  0  0  0  0  0
  -22.7293  -13.4376   20.8293 C   0  0  0  0  0  0  0  0  0  0  0  0
  -31.0220  -13.0452   21.6418 C   0  0  0  0  0  0  0  0  0  0  0  0
  -27.2200  -27.1185   24.0194 C   0  0  0  0  0  0  0  0  0  0  0  0
  -24.1046  -26.9062   23.1411 C   0  0  0  0  0  0  0  0  0  0  0  0
  -21.7113  -25.2926   21.3203 C   0  0  0  0  0  0  0  0  0  0  0  0
  -28.4078  -30.9257   27.2057 C   0  0  0  0  0  0  0  0  0  0  0  0
  -27.4093  -27.0480   21.5065 C   0  0  0  0  0  0  0  0  0  0  0  0
  -25.5851  -24.9572   22.5289 C   0  0  0  0  0  0  0  0  0  0  0  0
  -27.1939  -30.0275   26.9824 C   0  0  0  0  0  0  0  0  0  0  0  0
  -29.5132  -13.7458   18.4654 C   0  0  0  0  0  0  0  0  0  0  0  0
  -27.6191  -28.5645   26.9060 C   0  0  0  0  0  0  0  0  0  0  0  0
  -28.0454  -13.3803   18.6835 C   0  0  0  0  0  0  0  0  0  0  0  0
  -30.4403  -12.8297   19.2577 C   0  0  0  0  0  0  0  0  0  0  0  0
  -28.6703  -12.4233   20.9460 C   0  0  0  0  0  0  0  0  0  0  0  0
  -28.5688  -28.3270   25.7257 C   0  0  1  0  0  0  0  0  0  0  0  0
  -26.5037  -27.2908   22.7099 C   0  0  1  0  0  0  0  0  0  0  0  0
  -27.7022  -13.3446   20.1834 C   0  0  2  0  0  0  0  0  0  0  0  0
  -19.2494  -25.3251   20.8353 C   0  0  0  0  0  0  0  0  0  0  0  0
  -23.5548  -25.6336   25.8592 C   0  0  0  0  0  0  0  0  0  0  0  0
  -21.3551  -24.8401   24.9648 C   0  0  0  0  0  0  0  0  0  0  0  0
  -21.8310  -27.2843   25.1123 C   0  0  0  0  0  0  0  0  0  0  0  0
  -22.1677  -25.7921   18.4391 C   0  0  0  0  0  0  0  0  0  0  0  0
  -30.9648  -17.9377   22.2402 C   0  0  0  0  0  0  0  0  0  0  0  0
  -29.8775  -21.1998   20.4100 C   0  0  0  0  0  0  0  0  0  1  0  0
  -23.0009  -25.8979   23.3513 C   0  0  1  0  0  0  0  0  0  0  0  0
  -20.6220  -25.8150   20.4011 C   0  0  2  0  0  0  0  0  0  0  0  0
  -22.4597  -25.9069   24.8089 C   0  0  0  0  0  0  0  0  0  0  0  0
  -25.9450  -11.6690   20.6162 N   0  0  0  0  0  0  0  0  0  0  0  0
  -30.6509  -11.8182   23.6212 N   0  0  0  0  0  0  0  0  0  0  0  0
  -26.2528  -12.9625   20.4206 N   0  0  0  0  0  0  0  0  0  0  0  0
  -30.0648  -12.7908   20.6696 N   0  0  0  0  0  0  0  0  0  0  0  0
  -25.3456  -26.3950   22.7356 N   0  0  0  0  0  0  0  0  0  0  0  0
  -25.3067  -15.1299   20.2866 N   0  0  0  0  0  0  0  0  0  0  0  0
  -21.7350  -12.4809   21.0751 N   0  0  0  0  0  0  0  0  0  0  0  0
  -27.8275  -28.2694   24.4841 N   0  0  0  0  0  0  0  0  0  0  0  0
  -21.9910  -26.1808   22.3372 N   0  0  0  0  0  0  0  0  0  0  0  0
  -20.8625  -25.3604   19.0023 N   0  3  0  0  0  0  0  0  0  0  0  0
  -22.4050  -14.6436   20.7109 O   0  0  0  0  0  0  0  0  0  0  0  0
  -32.2062  -13.3138   21.4871 O   0  0  0  0  0  0  0  0  0  0  0  0
  -27.2202  -26.0230   24.5685 O   0  0  0  0  0  0  0  0  0  0  0  0
  -23.8722  -28.1040   23.3228 O   0  0  0  0  0  0  0  0  0  0  0  0
  -22.2567  -24.2037   21.1551 O   0  0  0  0  0  0  0  0  0  0  0  0
  -21.8179   -6.9491   21.7289 O   0  0  0  0  0  0  0  0  0  0  0  0
  -30.5480  -17.7989   23.5913 O   0  0  0  0  0  0  0  0  0  0  0  0
  -28.5067  -21.5755   20.5374 O   0  0  0  0  0  0  0  0  0  1  0  0
  -18.0308   -6.9683   25.7366 F   0  0  0  0  0  0  0  0  0  0  0  0
  -22.0308   -5.2378   23.8897 F   0  0  0  0  0  0  0  0  0  0  0  0
  1  2  1  0  0  0  0
  1  6  2  0  0  0  0
  2  7  2  0  0  0  0
  3  9  2  0  0  0  0
  3 18  1  0  0  0  0
  4 10  1  0  0  0  0
  4 18  2  0  0  0  0
  5 11  2  0  0  0  0
  5 19  1  0  0  0  0
  6 22  1  0  0  0  0
  7 24  1  0  0  0  0
  8 12  2  0  0  0  0
  8 23  1  0  0  0  0
  9 26  1  0  0  0  0
 10 26  2  0  0  0  0
 11 27  1  0  0  0  0
 12 28  1  0  0  0  0
 13 14  2  0  0  0  0
 13 29  1  0  0  0  0
 14 30  1  0  0  0  0
 15 20  1  0  0  0  0
 15 27  2  0  0  0  0
 16 25  1  0  0  0  0
 16 28  2  0  0  0  0
 17 30  2  0  0  0  0
 17 31  1  0  0  0  0
 18 32  1  0  0  0  0
 19 20  2  0  0  0  0
 19 35  1  0  0  0  0
 20 38  1  0  0  0  0
 21 32  1  0  0  0  0
 21 33  2  0  0  0  0
 21 39  1  0  0  0  0
 22 24  2  0  0  0  0
 22 44  1  0  0  0  0
 23 25  2  0  0  0  0
 23 45  1  0  0  0  0
 24 53  1  0  0  0  0
 25 46  1  0  0  0  0
 26 81  1  0  0  0  0
 27 82  1  0  0  0  0
 28 83  1  0  0  0  0
 29 31  2  0  0  0  0
 29 81  1  0  0  0  0
 30 84  1  0  0  0  0
 31 85  1  0  0  0  0
 32 66  2  0  0  0  0
 33 68  1  0  0  0  0
 33 71  1  0  0  0  0
 34 35  2  0  0  0  0
 36 37  2  0  0  0  0
 36 61  1  0  0  0  0
 37 62  1  0  0  0  0
 38 40  1  0  0  0  0
 38 67  2  0  0  0  0
 39 72  1  0  0  0  0
 39 76  2  0  0  0  0
 40 69  1  0  0  0  0
 40 77  2  0  0  0  0
 41 54  1  0  0  0  0
 41 73  1  0  0  0  0
 41 78  2  0  0  0  0
 42 63  1  0  0  0  0
 42 70  1  0  0  0  0
 42 79  2  0  0  0  0
 43 64  1  0  0  0  0
 43 74  1  0  0  0  0
 43 80  2  0  0  0  0
 44 47  1  0  0  0  0
 45 54  1  0  0  0  0
 46 70  1  0  0  0  0
 47 49  1  0  0  0  0
 48 50  1  0  0  0  0
 48 51  1  0  0  0  0
 49 53  1  0  0  0  0
 50 55  1  0  0  0  0
 51 69  1  0  0  0  0
 52 55  1  0  0  0  0
 52 69  1  0  0  0  0
 53 73  1  0  0  0  0
 54 70  1  0  0  0  0
 55 68  1  0  0  0  0
 56 64  1  0  0  0  0
 57 65  1  0  0  0  0
 58 65  1  0  0  0  0
 59 65  1  0  0  0  0
 60 75  1  0  0  0  0
 61 82  1  0  0  0  0
 62 83  1  0  0  0  0
 63 65  1  0  0  0  0
 63 74  1  0  0  0  0
 64 75  1  0  0  0  0
 66 68  1  0  0  0  0
M  CHG  1  75   1
M  ISO  4  38 100  40 100  62 101  83 101
M  END
> <Batch ID>
0116

> <Smiles>
C=Cc1ccc(OCC=C[101CH2:1][101O:1]c2ccc3c(c2)CN(C(=O)C(NC(=O)C(C)NC)C(C)(C)C)C(C(=O)NC2CCCc4ccccc42)C3)cc1[100C:0](=N)[100C:0](=O)N1CCCC(n2nc(-c3ccc(Oc4ccc(F)cc4F)cc3)c(C(N)=O)c2N)C1

> <Shape>
0.211

> <Color>
0.179

> <Negative vol penalty>
0.000

$$$$

  -OEChem-04052301433D

 84 92  0     1  0  0  0  0  0999 V2000
  -29.1131  -22.6309   28.5776 C   0  0  0  0  0  0  0  0  0  0  0  0
  -29.1266  -22.8825   27.2094 C   0  0  0  0  0  0  0  0  0  0  0  0
  -24.2727   -9.9459   21.8535 C   0  0  0  0  0  0  0  0  0  0  0  0
  -25.0078  -11.4214   23.6197 C   0  0  0  0  0  0  0  0  0  0  0  0
  -27.8991  -22.4629   29.2423 C   0  0  0  0  0  0  0  0  0  0  0  0
  -27.9261  -22.9650   26.5049 C   0  0  0  0  0  0  0  0  0  0  0  0
  -27.8136  -26.8939   23.3117 C   0  0  0  0  0  0  0  0  0  0  0  0
  -24.0257   -8.9447   22.7926 C   0  0  0  0  0  0  0  0  0  0  0  0
  -24.7608  -10.4202   24.5589 C   0  0  0  0  0  0  0  0  0  0  0  0
  -28.5024  -26.7556   22.1075 C   0  0  0  0  0  0  0  0  0  0  0  0
  -22.8605   -6.1222   24.7652 C   0  0  0  0  0  0  0  0  0  0  0  0
  -21.6633   -5.4143   24.6588 C   0  0  0  0  0  0  0  0  0  0  0  0
  -26.4264  -26.2581   20.9842 C   0  0  0  0  0  0  0  0  0  0  0  0
  -30.0693  -19.4360   18.7936 C   0  0  0  0  0  0  0  0  0  0  0  0
  -27.7360  -19.7342   19.3446 C   0  0  0  0  0  0  0  0  0  0  0  0
  -20.4235   -7.4692   24.9370 C   0  0  0  0  0  0  0  0  0  0  0  0
  -24.7638  -11.1843   22.2670 C   0  0  0  0  0  0  0  0  0  0  0  0
  -24.1204  -13.2045   20.8484 C   0  0  0  0  0  0  0  0  0  0  0  0
  -26.6827  -22.5530   28.5474 C   0  0  0  0  0  0  0  0  0  0  0  0
  -26.4252  -26.7043   23.3634 C   0  0  0  0  0  0  0  0  0  0  0  0
  -26.6947  -22.7967   27.1607 C   0  0  0  0  0  0  0  0  0  0  0  0
  -25.7220  -26.3971   22.1898 C   0  0  0  0  0  0  0  0  0  0  0  0
  -30.2911  -20.7982   18.9952 C   0  0  0  0  0  0  0  0  0  0  0  0
  -28.7918  -18.9040   18.9682 C   0  0  0  0  0  0  0  0  0  0  0  0
  -24.2697   -9.1818   24.1454 C   0  0  0  0  0  0  0  0  0  0  0  0
  -27.8093  -26.4348   20.9440 C   0  0  0  0  0  0  0  0  0  0  0  0
  -22.8392   -7.5036   24.9575 C   0  0  0  0  0  0  0  0  0  0  0  0
  -27.9578  -21.0965   19.5463 C   0  0  0  0  0  0  0  0  0  0  0  0
  -29.2354  -21.6285   19.3716 C   0  0  0  0  0  0  0  0  0  0  0  0
  -20.4449   -6.0878   24.7447 C   0  0  0  0  0  0  0  0  0  0  0  0
  -21.6207   -8.1771   25.0434 C   0  0  0  0  0  0  0  0  0  0  0  0
  -25.0197  -12.2188   21.2972 C   0  0  0  0  0  0  0  0  0  0  0  0
  -24.8410  -13.9374   19.9373 C   0  0  0  0  0  0  0  0  0  0  0  0
  -22.7557  -13.4369   21.2216 C   0  0  0  0  0  0  0  0  0  0  0  0
  -24.4926  -24.6756   24.8643 C   0  0  0  0  0  0  0  0  0  0  0  0
  -22.1733  -26.5628   23.6067 C   0  0  0  0  0  0  0  0  0  0  0  0
  -21.2347  -28.7732   21.1818 C   0  0  0  0  0  0  0  0  0  0  0  0
  -29.5040  -16.5577   18.3902 C   0  0  0  0  0  0  0  0  0  0  0  0
  -25.3973  -22.3173   29.3003 C   0  0  0  0  0  0  0  0  0  0  0  0
  -25.6933  -26.8834   24.6652 C   0  0  0  0  0  0  0  0  0  0  0  0
  -24.2284  -26.2033   22.1880 C   0  0  0  0  0  0  0  0  0  0  0  0
  -24.1558  -22.7920   28.5495 C   0  0  0  0  0  0  0  0  0  0  0  0
  -29.3527  -13.0460   17.8227 C   0  0  0  0  0  0  0  0  0  0  0  0
  -24.2003  -22.3279   27.0971 C   0  0  0  0  0  0  0  0  0  0  0  0
  -28.1379  -12.5988   18.6391 C   0  0  0  0  0  0  0  0  0  0  0  0
  -30.1307  -14.1569   18.5258 C   0  0  0  0  0  0  0  0  0  0  0  0
  -28.1127  -14.8711   19.7450 C   0  0  0  0  0  0  0  0  0  0  0  0
  -25.4124  -22.9180   26.3663 C   0  0  1  0  0  0  0  0  0  0  0  0
  -24.3494  -26.1621   24.6992 C   0  0  1  0  0  0  0  0  0  0  0  0
  -27.2605  -13.7985   19.0472 C   0  0  2  0  0  0  0  0  0  0  0  0
  -31.6655  -21.3497   18.8027 C   0  0  0  0  0  0  0  0  0  0  0  0
  -19.2649  -30.1132   20.3934 C   0  0  0  0  0  0  0  0  0  0  0  0
  -20.9253  -24.0358   22.4376 C   0  0  0  0  0  0  0  0  0  0  0  0
  -19.5671  -25.4923   20.9204 C   0  0  0  0  0  0  0  0  0  0  0  0
  -19.2847  -25.6637   23.3929 C   0  0  0  0  0  0  0  0  0  0  0  0
  -22.6691  -31.3314   21.5781 C   0  0  0  0  0  0  0  0  0  0  0  0
  -26.6835  -22.0530   21.3118 C   0  0  0  0  0  0  0  0  0  0  0  0
  -30.1721  -25.0452   18.5905 C   0  0  0  0  0  0  0  0  0  0  0  0
  -29.8303  -25.8447   19.8381 C   0  0  0  0  0  0  0  0  0  1  0  0
  -29.2881  -23.8169   18.4421 C   0  0  0  0  0  0  0  0  0  0  0  0
  -21.3850  -26.5737   22.3193 C   0  0  1  0  0  0  0  0  0  0  0  0
  -20.5152  -30.1077   21.2591 C   0  0  2  0  0  0  0  0  0  0  0  0
  -20.3189  -25.4431   22.2676 C   0  0  0  0  0  0  0  0  0  0  0  0
  -26.2198  -12.3140   20.7188 N   0  0  0  0  0  0  0  0  0  0  0  0
  -26.0797  -13.3681   19.8971 N   0  0  0  0  0  0  0  0  0  0  0  0
  -23.5586  -26.3829   23.4867 N   0  0  0  0  0  0  0  0  0  0  0  0
  -29.2359  -15.2613   18.8784 N   0  0  0  0  0  0  0  0  0  0  0  0
  -24.5294  -15.0068   19.1746 N   0  0  0  0  0  0  0  0  0  0  0  0
  -22.1695  -12.5899   22.1721 N   0  0  0  0  0  0  0  0  0  0  0  0
  -28.5666  -17.5199   18.7644 N   0  0  0  0  0  0  0  0  0  0  0  0
  -25.1653  -24.2991   26.0111 N   0  0  0  0  0  0  0  0  0  0  0  0
  -20.8360  -27.9190   22.1881 N   0  0  0  0  0  0  0  0  0  0  0  0
  -21.4106  -31.2064   20.7987 N   0  3  0  0  0  0  0  0  0  0  0  0
  -22.0712  -14.3578   20.7149 O   0  0  0  0  0  0  0  0  0  0  0  0
  -24.0259  -23.9256   24.0150 O   0  0  0  0  0  0  0  0  0  0  0  0
  -21.5826  -26.7157   24.6788 O   0  0  0  0  0  0  0  0  0  0  0  0
  -22.0645  -28.5132   20.3133 O   0  0  0  0  0  0  0  0  0  0  0  0
  -30.4775  -16.7912   17.6693 O   0  0  0  0  0  0  0  0  0  0  0  0
  -24.0286   -8.2051   25.0621 O   0  0  0  0  0  0  0  0  0  0  0  0
  -26.9178  -21.8962   19.9138 O   0  0  0  0  0  0  0  0  0  0  0  0
  -28.4792  -26.2985   19.7674 O   0  0  0  0  0  0  0  0  0  1  0  0
  -29.4486  -22.9678   19.5703 O   0  0  0  0  0  0  0  0  0  0  0  0
  -19.2953   -5.4081   24.6410 F   0  0  0  0  0  0  0  0  0  0  0  0
  -21.5939   -9.5043   25.2269 F   0  0  0  0  0  0  0  0  0  0  0  0
  1  2  1  0  0  0  0
  1  5  2  0  0  0  0
  2  6  2  0  0  0  0
  3  8  2  0  0  0  0
  3 17  1  0  0  0  0
  4  9  1  0  0  0  0
  4 17  2  0  0  0  0
  5 19  1  0  0  0  0
  6 21  1  0  0  0  0
  7 10  2  0  0  0  0
  7 20  1  0  0  0  0
  8 25  1  0  0  0  0
  9 25  2  0  0  0  0
 10 26  1  0  0  0  0
 11 12  2  0  0  0  0
 11 27  1  0  0  0  0
 12 30  1  0  0  0  0
 13 22  1  0  0  0  0
 13 26  2  0  0  0  0
 14 23  2  0  0  0  0
 14 24  1  0  0  0  0
 15 24  2  0  0  0  0
 15 28  1  0  0  0  0
 16 30  2  0  0  0  0
 16 31  1  0  0  0  0
 17 32  1  0  0  0  0
 18 32  1  0  0  0  0
 18 33  2  0  0  0  0
 18 34  1  0  0  0  0
 19 21  2  0  0  0  0
 19 39  1  0  0  0  0
 20 22  2  0  0  0  0
 20 40  1  0  0  0  0
 21 48  1  0  0  0  0
 22 41  1  0  0  0  0
 23 29  1  0  0  0  0
 23 51  1  0  0  0  0
 24 70  1  0  0  0  0
 25 79  1  0  0  0  0
 26 81  1  0  0  0  0
 27 31  2  0  0  0  0
 27 79  1  0  0  0  0
 28 29  2  0  0  0  0
 28 80  1  0  0  0  0
 29 82  1  0  0  0  0
 30 83  1  0  0  0  0
 31 84  1  0  0  0  0
 32 64  2  0  0  0  0
 33 65  1  0  0  0  0
 33 68  1  0  0  0  0
 34 69  1  0  0  0  0
 34 74  2  0  0  0  0
 35 49  1  0  0  0  0
 35 71  1  0  0  0  0
 35 75  2  0  0  0  0
 36 61  1  0  0  0  0
 36 66  1  0  0  0  0
 36 76  2  0  0  0  0
 37 62  1  0  0  0  0
 37 72  1  0  0  0  0
 37 77  2  0  0  0  0
 38 67  1  0  0  0  0
 38 70  1  0  0  0  0
 38 78  2  0  0  0  0
 39 42  1  0  0  0  0
 40 49  1  0  0  0  0
 41 66  1  0  0  0  0
 42 44  1  0  0  0  0
 43 45  1  0  0  0  0
 43 46  1  0  0  0  0
 44 48  1  0  0  0  0
 45 50  1  0  0  0  0
 46 67  1  0  0  0  0
 47 50  1  0  0  0  0
 47 67  1  0  0  0  0
 48 71  1  0  0  0  0
 49 66  1  0  0  0  0
 50 65  1  0  0  0  0
 52 62  1  0  0  0  0
 53 63  1  0  0  0  0
 54 63  1  0  0  0  0
 55 63  1  0  0  0  0
 56 73  1  0  0  0  0
 57 80  1  0  0  0  0
 58 59  1  0  0  0  0
 58 60  1  0  0  0  0
 59 81  1  0  0  0  0
 60 82  1  0  0  0  0
 61 63  1  0  0  0  0
 61 72  1  0  0  0  0
 62 73  1  0  0  0  0
 64 65  1  0  0  0  0
M  CHG  1  73   1
M  ISO  4  38 100  59 101  70 100  81 101
M  END
> <Batch ID>
0116

> <Smiles>
CNC(C)C(=O)NC(C(=O)N1Cc2cc([101O:1][101CH2:1]CCOc3c(C)cc([100NH:0][100C:0](=O)N4CCCC(n5nc(-c6ccc(Oc7ccc(F)cc7F)cc6)c(C(N)=O)c5N)C4)cc3OC)ccc2CC1C(=O)NC1CCCc2ccccc21)C(C)(C)C

> <Shape>
0.231

> <Color>
0.096

> <Negative vol penalty>
0.000

$$$$

  -OEChem-04052301433D

 84 92  0     1  0  0  0  0  0999 V2000
  -19.6318  -28.6630   22.6499 C   0  0  0  0  0  0  0  0  0  0  0  0
  -20.6713  -27.7387   22.6246 C   0  0  0  0  0  0  0  0  0  0  0  0
  -23.4961   -9.9597   21.8058 C   0  0  0  0  0  0  0  0  0  0  0  0
  -24.1474  -11.1513   23.8040 C   0  0  0  0  0  0  0  0  0  0  0  0
  -18.3105  -28.2228   22.7159 C   0  0  0  0  0  0  0  0  0  0  0  0
  -20.3901  -26.3736   22.6665 C   0  0  0  0  0  0  0  0  0  0  0  0
  -23.1072  -23.7265   19.3116 C   0  0  0  0  0  0  0  0  0  0  0  0
  -22.8681   -8.9907   22.5884 C   0  0  0  0  0  0  0  0  0  0  0  0
  -23.5194  -10.1824   24.5866 C   0  0  0  0  0  0  0  0  0  0  0  0
  -24.4349  -23.4557   19.6395 C   0  0  0  0  0  0  0  0  0  0  0  0
  -19.9587   -8.6554   24.2784 C   0  0  0  0  0  0  0  0  0  0  0  0
  -18.6872   -8.2332   23.8906 C   0  0  0  0  0  0  0  0  0  0  0  0
  -23.8049  -21.2313   20.3282 C   0  0  0  0  0  0  0  0  0  0  0  0
  -29.8404  -17.2269   23.5383 C   0  0  0  0  0  0  0  0  0  0  0  0
  -19.5082   -5.9727   23.6595 C   0  0  0  0  0  0  0  0  0  0  0  0
  -24.1358  -11.0400   22.4137 C   0  0  0  0  0  0  0  0  0  0  0  0
  -24.2133  -13.2192   21.0899 C   0  0  0  0  0  0  0  0  0  0  0  0
  -18.0126  -26.8513   22.7488 C   0  0  0  0  0  0  0  0  0  0  0  0
  -22.1149  -22.7538   19.5001 C   0  0  0  0  0  0  0  0  0  0  0  0
  -19.0636  -25.9146   22.7344 C   0  0  0  0  0  0  0  0  0  0  0  0
  -22.4657  -21.4914   19.9995 C   0  0  0  0  0  0  0  0  0  0  0  0
  -30.2495  -15.8749   23.7251 C   0  0  0  0  0  0  0  0  0  0  0  0
  -22.8797   -9.1021   23.9787 C   0  0  0  0  0  0  0  0  0  0  0  0
  -24.7835  -22.2090   20.1506 C   0  0  0  0  0  0  0  0  0  0  0  0
  -21.0051   -7.7363   24.3567 C   0  0  0  0  0  0  0  0  0  0  0  0
  -18.4619   -6.8918   23.5812 C   0  0  0  0  0  0  0  0  0  0  0  0
  -20.7798   -6.3950   24.0472 C   0  0  0  0  0  0  0  0  0  0  0  0
  -24.7852  -12.0409   21.6059 C   0  0  0  0  0  0  0  0  0  0  0  0
  -30.5235  -15.2473   22.5299 C   0  0  0  0  0  0  0  0  0  0  0  0
  -29.8176  -17.5812   22.2071 C   0  0  0  0  0  0  0  0  0  0  0  0
  -25.2351  -13.8224   20.3981 C   0  0  0  0  0  0  0  0  0  0  0  0
  -28.2717  -19.2228   21.8790 C   0  0  0  0  0  0  0  0  0  0  0  0
  -22.8778  -13.7235   21.2239 C   0  0  0  0  0  0  0  0  0  0  0  0
  -30.9567  -13.9076   22.2912 C   0  0  0  0  0  0  0  0  0  0  0  0
  -27.8320  -20.5289   21.3018 C   0  0  0  0  0  0  0  0  0  0  0  0
  -31.2075  -13.3901   20.9265 C   0  0  0  0  0  0  0  0  0  0  0  0
  -19.4831  -22.5479   21.2707 C   0  0  0  0  0  0  0  0  0  0  0  0
  -19.0647  -19.7810   19.6301 C   0  0  0  0  0  0  0  0  0  0  0  0
  -20.4653  -17.2274   17.8512 C   0  0  0  0  0  0  0  0  0  0  0  0
  -16.5710  -26.4243   22.8678 C   0  0  0  0  0  0  0  0  0  0  0  0
  -20.6915  -23.0525   19.1163 C   0  0  0  0  0  0  0  0  0  0  0  0
  -21.4414  -20.4059   20.2016 C   0  0  0  0  0  0  0  0  0  0  0  0
  -16.3416  -24.9533   22.5306 C   0  0  0  0  0  0  0  0  0  0  0  0
  -29.2351  -12.8302   17.9849 C   0  0  0  0  0  0  0  0  0  0  0  0
  -17.3805  -24.0783   23.2249 C   0  0  0  0  0  0  0  0  0  0  0  0
  -27.8241  -12.6332   18.5382 C   0  0  0  0  0  0  0  0  0  0  0  0
  -30.2900  -12.2700   18.9335 C   0  0  0  0  0  0  0  0  0  0  0  0
  -28.7955  -12.6278   20.8795 C   0  0  0  0  0  0  0  0  0  0  0  0
  -18.7978  -24.4249   22.7532 C   0  0  1  0  0  0  0  0  0  0  0  0
  -19.6803  -22.1621   19.8319 C   0  0  1  0  0  0  0  0  0  0  0  0
  -27.7043  -13.2059   19.9617 C   0  0  2  0  0  0  0  0  0  0  0  0
  -29.1899  -14.2979   25.3613 C   0  0  0  0  0  0  0  0  0  0  0  0
  -19.8749  -15.0926   16.6717 C   0  0  0  0  0  0  0  0  0  0  0  0
  -18.7887  -18.3724   22.3227 C   0  0  0  0  0  0  0  0  0  0  0  0
  -19.1558  -16.1951   21.1426 C   0  0  0  0  0  0  0  0  0  0  0  0
  -17.1767  -17.6025   20.5725 C   0  0  0  0  0  0  0  0  0  0  0  0
  -21.4358  -18.2590   15.2526 C   0  0  0  0  0  0  0  0  0  0  0  0
  -30.3623  -15.2322   25.0569 C   0  0  0  0  0  0  0  0  0  0  0  0
  -26.3650  -20.6441   20.9909 C   0  0  0  0  0  0  0  0  0  1  0  0
  -19.4786  -18.3437   19.8349 C   0  0  1  0  0  0  0  0  0  0  0  0
  -20.0804  -16.5925   16.5272 C   0  0  2  0  0  0  0  0  0  0  0  0
  -18.6692  -17.6493   20.9663 C   0  0  0  0  0  0  0  0  0  0  0  0
  -26.0705  -11.9018   21.2705 N   0  0  0  0  0  0  0  0  0  0  0  0
  -31.1740  -13.0167   23.2411 N   0  0  0  0  0  0  0  0  0  0  0  0
  -29.4698  -18.8175   21.6374 N   0  0  0  0  0  0  0  0  0  0  0  0
  -26.3147  -13.0006   20.5362 N   0  0  0  0  0  0  0  0  0  0  0  0
  -30.1253  -12.8061   20.2831 N   0  0  0  0  0  0  0  0  0  0  0  0
  -20.0621  -20.7485   19.8174 N   0  0  0  0  0  0  0  0  0  0  0  0
  -25.3063  -14.9703   19.6912 N   0  0  0  0  0  0  0  0  0  0  0  0
  -21.9538  -12.9780   21.9688 N   0  0  0  0  0  0  0  0  0  0  0  0
  -19.0520  -23.8485   21.4504 N   0  0  0  0  0  0  0  0  0  0  0  0
  -19.3621  -17.6960   18.5328 N   0  0  0  0  0  0  0  0  0  0  0  0
  -21.1463  -16.8251   15.5119 N   0  3  0  0  0  0  0  0  0  0  0  0
  -22.5102  -14.7949   20.6851 O   0  0  0  0  0  0  0  0  0  0  0  0
  -28.6715  -21.4000   21.1379 O   0  0  0  0  0  0  0  0  0  0  0  0
  -32.3495  -13.5334   20.5098 O   0  0  0  0  0  0  0  0  0  0  0  0
  -19.7041  -21.7261   22.1523 O   0  0  0  0  0  0  0  0  0  0  0  0
  -17.9013  -20.0354   19.3087 O   0  0  0  0  0  0  0  0  0  0  0  0
  -21.6280  -17.2972   18.2435 O   0  0  0  0  0  0  0  0  0  0  0  0
  -22.2668   -8.1569   24.7426 O   0  0  0  0  0  0  0  0  0  0  0  0
  -26.0786  -21.9423   20.4721 O   0  0  0  0  0  0  0  0  0  1  0  0
  -17.2404   -6.4862   23.2102 F   0  0  0  0  0  0  0  0  0  0  0  0
  -21.7808   -5.5071   24.1218 F   0  0  0  0  0  0  0  0  0  0  0  0
  -30.2877  -16.2866   21.1896 S   0  0  0  0  0  0  0  0  0  0  0  0
  1  2  1  0  0  0  0
  1  5  2  0  0  0  0
  2  6  2  0  0  0  0
  3  8  2  0  0  0  0
  3 16  1  0  0  0  0
  4  9  1  0  0  0  0
  4 16  2  0  0  0  0
  5 18  1  0  0  0  0
  6 20  1  0  0  0  0
  7 10  2  0  0  0  0
  7 19  1  0  0  0  0
  8 23  1  0  0  0  0
  9 23  2  0  0  0  0
 10 24  1  0  0  0  0
 11 12  2  0  0  0  0
 11 25  1  0  0  0  0
 12 26  1  0  0  0  0
 13 21  1  0  0  0  0
 13 24  2  0  0  0  0
 14 22  1  0  0  0  0
 14 30  2  0  0  0  0
 15 26  2  0  0  0  0
 15 27  1  0  0  0  0
 16 28  1  0  0  0  0
 17 28  1  0  0  0  0
 17 31  2  0  0  0  0
 17 33  1  0  0  0  0
 18 20  2  0  0  0  0
 18 40  1  0  0  0  0
 19 21  2  0  0  0  0
 19 41  1  0  0  0  0
 20 49  1  0  0  0  0
 21 42  1  0  0  0  0
 22 29  2  0  0  0  0
 22 58  1  0  0  0  0
 23 80  1  0  0  0  0
 24 81  1  0  0  0  0
 25 27  2  0  0  0  0
 25 80  1  0  0  0  0
 26 82  1  0  0  0  0
 27 83  1  0  0  0  0
 28 63  2  0  0  0  0
 29 34  1  0  0  0  0
 29 84  1  0  0  0  0
 30 65  1  0  0  0  0
 30 84  1  0  0  0  0
 31 66  1  0  0  0  0
 31 69  1  0  0  0  0
 32 35  1  0  0  0  0
 32 65  2  0  0  0  0
 33 70  1  0  0  0  0
 33 74  2  0  0  0  0
 34 36  1  0  0  0  0
 34 64  2  0  0  0  0
 35 59  1  0  0  0  0
 35 75  2  0  0  0  0
 36 67  1  0  0  0  0
 36 76  2  0  0  0  0
 37 50  1  0  0  0  0
 37 71  1  0  0  0  0
 37 77  2  0  0  0  0
 38 60  1  0  0  0  0
 38 68  1  0  0  0  0
 38 78  2  0  0  0  0
 39 61  1  0  0  0  0
 39 72  1  0  0  0  0
 39 79  2  0  0  0  0
 40 43  1  0  0  0  0
 41 50  1  0  0  0  0
 42 68  1  0  0  0  0
 43 45  1  0  0  0  0
 44 46  1  0  0  0  0
 44 47  1  0  0  0  0
 45 49  1  0  0  0  0
 46 51  1  0  0  0  0
 47 67  1  0  0  0  0
 48 51  1  0  0  0  0
 48 67  1  0  0  0  0
 49 71  1  0  0  0  0
 50 68  1  0  0  0  0
 51 66  1  0  0  0  0
 52 58  1  0  0  0  0
 53 61  1  0  0  0  0
 54 62  1  0  0  0  0
 55 62  1  0  0  0  0
 56 62  1  0  0  0  0
 57 73  1  0  0  0  0
 59 81  1  0  0  0  0
 60 62  1  0  0  0  0
 60 72  1  0  0  0  0
 61 73  1  0  0  0  0
 63 66  1  0  0  0  0
M  CHG  1  73   1
M  ISO  4  34 100  36 100  59 101  81 101
M  END
> <Batch ID>
0116

> <Smiles>
C=Cc1cc(NCC(=O)[101CH2:1][101O:1]c2ccc3c(c2)CN(C(=O)C(NC(=O)C(C)NC)C(C)(C)C)C(C(=O)NC2CCCc4ccccc42)C3)sc1[100C:0](=N)[100C:0](=O)N1CCCC(n2nc(-c3ccc(Oc4ccc(F)cc4F)cc3)c(C(N)=O)c2N)C1

> <Shape>
0.205

> <Color>
0.128

> <Negative vol penalty>
0.000

$$$$

  -OEChem-04052301433D

 87 95  0     1  0  0  0  0  0999 V2000
  -32.0107  -32.7056   15.8028 C   0  0  0  0  0  0  0  0  0  0  0  0
  -31.7262  -31.3438   15.7958 C   0  0  0  0  0  0  0  0  0  0  0  0
  -24.1631  -15.4365   23.1617 C   0  0  0  0  0  0  0  0  0  0  0  0
  -23.3680  -15.9282   20.9339 C   0  0  0  0  0  0  0  0  0  0  0  0
  -31.8319  -33.4479   16.9694 C   0  0  0  0  0  0  0  0  0  0  0  0
  -31.2637  -30.7233   16.9557 C   0  0  0  0  0  0  0  0  0  0  0  0
  -26.9407  -25.4349   19.1145 C   0  0  0  0  0  0  0  0  0  0  0  0
  -23.4907  -16.5571   23.6491 C   0  0  0  0  0  0  0  0  0  0  0  0
  -22.6955  -17.0488   21.4213 C   0  0  0  0  0  0  0  0  0  0  0  0
  -26.9469  -24.3034   19.9290 C   0  0  0  0  0  0  0  0  0  0  0  0
  -21.0646  -20.2419   22.0165 C   0  0  0  0  0  0  0  0  0  0  0  0
  -21.1721  -21.4287   21.2916 C   0  0  0  0  0  0  0  0  0  0  0  0
  -32.8549  -18.4925   24.1856 C   0  0  0  0  0  0  0  0  0  0  0  0
  -30.6631  -17.8482   22.5845 C   0  0  0  0  0  0  0  0  0  0  0  0
  -26.6004  -25.7018   21.8639 C   0  0  0  0  0  0  0  0  0  0  0  0
  -23.5677  -21.4024   21.6037 C   0  0  0  0  0  0  0  0  0  0  0  0
  -24.1018  -15.1220   21.8041 C   0  0  0  0  0  0  0  0  0  0  0  0
  -32.9508  -17.4571   23.2559 C   0  0  0  0  0  0  0  0  0  0  0  0
  -31.8549  -17.1350   22.4553 C   0  0  0  0  0  0  0  0  0  0  0  0
  -24.2958  -12.6538   21.1892 C   0  0  0  0  0  0  0  0  0  0  0  0
  -31.3578  -32.8382   18.1416 C   0  0  0  0  0  0  0  0  0  0  0  0
  -26.7750  -26.7114   19.6707 C   0  0  0  0  0  0  0  0  0  0  0  0
  -31.0797  -31.4579   18.1395 C   0  0  0  0  0  0  0  0  0  0  0  0
  -26.5900  -26.8477   21.0539 C   0  0  0  0  0  0  0  0  0  0  0  0
  -22.7568  -17.3633   22.7789 C   0  0  0  0  0  0  0  0  0  0  0  0
  -26.7796  -24.4370   21.3043 C   0  0  0  0  0  0  0  0  0  0  0  0
  -22.2087  -19.6354   22.5352 C   0  0  0  0  0  0  0  0  0  0  0  0
  -31.6631  -19.2058   24.3148 C   0  0  0  0  0  0  0  0  0  0  0  0
  -30.5672  -18.8836   23.5143 C   0  0  0  0  0  0  0  0  0  0  0  0
  -22.4236  -22.0089   21.0851 C   0  0  0  0  0  0  0  0  0  0  0  0
  -23.4602  -20.2156   22.3288 C   0  0  0  0  0  0  0  0  0  0  0  0
  -24.7967  -13.9648   21.2999 C   0  0  0  0  0  0  0  0  0  0  0  0
  -25.3367  -11.9324   20.6575 C   0  0  0  0  0  0  0  0  0  0  0  0
  -35.3695  -17.3238   22.8721 C   0  0  0  0  0  0  0  0  0  0  0  0
  -34.2162  -16.7388   23.1550 C   0  0  0  0  0  0  0  0  0  0  0  0
  -31.9099  -16.0612   21.4697 C   0  0  0  0  0  0  0  0  0  0  0  0
  -31.1042  -14.9811   21.4484 C   0  0  0  0  0  0  0  0  0  0  0  0
  -23.0051  -12.1346   21.5357 C   0  0  0  0  0  0  0  0  0  0  0  0
  -31.2785  -13.9809   20.3738 C   0  0  0  0  0  0  0  0  0  0  0  0
  -28.5483  -29.3459   19.8080 C   0  0  0  0  0  0  0  0  0  0  0  0
  -25.8786  -30.6043   21.1539 C   0  0  0  0  0  0  0  0  0  0  0  0
  -22.9704  -30.0777   22.8603 C   0  0  0  0  0  0  0  0  0  0  0  0
  -31.2254  -33.6722   19.3912 C   0  0  0  0  0  0  0  0  0  0  0  0
  -26.7440  -27.9197   18.7754 C   0  0  0  0  0  0  0  0  0  0  0  0
  -26.3880  -28.1940   21.6982 C   0  0  0  0  0  0  0  0  0  0  0  0
  -30.3751  -33.0146   20.4751 C   0  0  0  0  0  0  0  0  0  0  0  0
  -29.1954  -12.4379   17.8368 C   0  0  0  0  0  0  0  0  0  0  0  0
  -30.7793  -31.5552   20.6586 C   0  0  0  0  0  0  0  0  0  0  0  0
  -27.7903  -12.6669   18.4025 C   0  0  0  0  0  0  0  0  0  0  0  0
  -30.2716  -12.2757   18.9056 C   0  0  0  0  0  0  0  0  0  0  0  0
  -28.8161  -13.4247   20.5785 C   0  0  0  0  0  0  0  0  0  0  0  0
  -30.5526  -30.7539   19.3710 C   0  0  1  0  0  0  0  0  0  0  0  0
  -27.0819  -29.2147   19.5076 C   0  0  1  0  0  0  0  0  0  0  0  0
  -27.7413  -12.5347   19.9316 C   0  0  1  0  0  0  0  0  0  0  0  0
  -31.8382  -22.5679   25.5874 C   0  0  0  0  0  0  0  0  0  0  0  0
  -21.0180  -31.3041   23.8511 C   0  0  0  0  0  0  0  0  0  0  0  0
  -27.6286  -31.5001   23.4873 C   0  0  0  0  0  0  0  0  0  0  0  0
  -25.5429  -31.8445   24.8287 C   0  0  0  0  0  0  0  0  0  0  0  0
  -25.9254  -33.1790   22.7561 C   0  0  0  0  0  0  0  0  0  0  0  0
  -21.0467  -28.6673   21.1084 C   0  0  0  0  0  0  0  0  0  0  0  0
  -28.0976  -21.4637   22.8776 C   0  0  0  0  0  0  0  0  0  0  0  0
  -32.4905  -21.3033   25.0709 C   0  0  0  0  0  0  0  0  0  0  0  0
  -27.5735  -22.2252   21.6703 C   0  0  0  0  0  0  0  0  0  1  0  0
  -28.9292  -20.2569   22.4719 C   0  0  0  0  0  0  0  0  0  0  0  0
  -25.3463  -30.7256   22.5614 C   0  0  1  0  0  0  0  0  0  0  0  0
  -21.5588  -30.5844   22.6254 C   0  0  2  0  0  0  0  0  0  0  0  0
  -26.1165  -31.7870   23.3968 C   0  0  0  0  0  0  0  0  0  0  0  0
  -26.0577  -14.0728   20.8732 N   0  0  0  0  0  0  0  0  0  0  0  0
  -26.3581  -12.8205   20.4891 N   0  0  0  0  0  0  0  0  0  0  0  0
  -30.1457  -13.2749   19.9667 N   0  0  0  0  0  0  0  0  0  0  0  0
  -26.3717  -29.3458   20.7813 N   0  0  0  0  0  0  0  0  0  0  0  0
  -25.4688  -10.6314   20.3225 N   0  0  0  0  0  0  0  0  0  0  0  0
  -22.0530  -13.0133   22.0703 N   0  0  0  0  0  0  0  0  0  0  0  0
  -29.1491  -30.4385   19.2125 N   0  0  0  0  0  0  0  0  0  0  0  0
  -23.9165  -30.9866   22.4360 N   0  0  0  0  0  0  0  0  0  0  0  0
  -20.6473  -29.4492   22.3068 N   0  3  0  0  0  0  0  0  0  0  0  0
  -22.7104  -10.9239   21.3914 O   0  0  0  0  0  0  0  0  0  0  0  0
  -32.4076  -13.8325   19.9047 O   0  0  0  0  0  0  0  0  0  0  0  0
  -29.0939  -28.5179   20.5282 O   0  0  0  0  0  0  0  0  0  0  0  0
  -25.8511  -31.5879   20.4101 O   0  0  0  0  0  0  0  0  0  0  0  0
  -23.2098  -28.9865   23.3726 O   0  0  0  0  0  0  0  0  0  0  0  0
  -22.1004  -18.4568   23.2541 O   0  0  0  0  0  0  0  0  0  0  0  0
  -26.7859  -23.3343   22.1017 O   0  0  0  0  0  0  0  0  0  1  0  0
  -31.5818  -20.2150   25.2262 O   0  0  0  0  0  0  0  0  0  0  0  0
  -29.3911  -19.5775   23.6316 O   0  0  0  0  0  0  0  0  0  0  0  0
  -22.5269  -23.1477   20.3876 F   0  0  0  0  0  0  0  0  0  0  0  0
  -24.5630  -19.6370   22.8236 F   0  0  0  0  0  0  0  0  0  0  0  0
  1  2  1  0  0  0  0
  1  5  2  0  0  0  0
  2  6  2  0  0  0  0
  3  8  2  0  0  0  0
  3 17  1  0  0  0  0
  4  9  1  0  0  0  0
  4 17  2  0  0  0  0
  5 21  1  0  0  0  0
  6 23  1  0  0  0  0
  7 10  2  0  0  0  0
  7 22  1  0  0  0  0
  8 25  1  0  0  0  0
  9 25  2  0  0  0  0
 10 26  1  0  0  0  0
 11 12  2  0  0  0  0
 11 27  1  0  0  0  0
 12 30  1  0  0  0  0
 13 18  1  0  0  0  0
 13 28  2  0  0  0  0
 14 19  1  0  0  0  0
 14 29  2  0  0  0  0
 15 24  1  0  0  0  0
 15 26  2  0  0  0  0
 16 30  2  0  0  0  0
 16 31  1  0  0  0  0
 17 32  1  0  0  0  0
 18 19  2  0  0  0  0
 18 35  1  0  0  0  0
 19 36  1  0  0  0  0
 20 32  1  0  0  0  0
 20 33  2  0  0  0  0
 20 38  1  0  0  0  0
 21 23  2  0  0  0  0
 21 43  1  0  0  0  0
 22 24  2  0  0  0  0
 22 44  1  0  0  0  0
 23 52  1  0  0  0  0
 24 45  1  0  0  0  0
 25 82  1  0  0  0  0
 26 83  1  0  0  0  0
 27 31  2  0  0  0  0
 27 82  1  0  0  0  0
 28 29  1  0  0  0  0
 28 84  1  0  0  0  0
 29 85  1  0  0  0  0
 30 86  1  0  0  0  0
 31 87  1  0  0  0  0
 32 68  2  0  0  0  0
 33 69  1  0  0  0  0
 33 72  1  0  0  0  0
 34 35  2  0  0  0  0
 36 37  2  0  0  0  0
 37 39  1  0  0  0  0
 38 73  1  0  0  0  0
 38 77  2  0  0  0  0
 39 70  1  0  0  0  0
 39 78  2  0  0  0  0
 40 53  1  0  0  0  0
 40 74  1  0  0  0  0
 40 79  2  0  0  0  0
 41 65  1  0  0  0  0
 41 71  1  0  0  0  0
 41 80  2  0  0  0  0
 42 66  1  0  0  0  0
 42 75  1  0  0  0  0
 42 81  2  0  0  0  0
 43 46  1  0  0  0  0
 44 53  1  0  0  0  0
 45 71  1  0  0  0  0
 46 48  1  0  0  0  0
 47 49  1  0  0  0  0
 47 50  1  0  0  0  0
 48 52  1  0  0  0  0
 49 54  1  0  0  0  0
 50 70  1  0  0  0  0
 51 54  1  0  0  0  0
 51 70  1  0  0  0  0
 52 74  1  0  0  0  0
 53 71  1  0  0  0  0
 54 69  1  0  0  0  0
 55 62  1  0  0  0  0
 56 66  1  0  0  0  0
 57 67  1  0  0  0  0
 58 67  1  0  0  0  0
 59 67  1  0  0  0  0
 60 76  1  0  0  0  0
 61 63  1  0  0  0  0
 61 64  1  0  0  0  0
 62 84  1  0  0  0  0
 63 83  1  0  0  0  0
 64 85  1  0  0  0  0
 65 67  1  0  0  0  0
 65 75  1  0  0  0  0
 66 76  1  0  0  0  0
 68 69  1  0  0  0  0
M  CHG  1  76   1
M  ISO  4  37 100  39 100  63 101  83 101
M  END
> <Batch ID>
0116

> <Smiles>
C=Cc1cc(OCC)c(OCC[101CH2:1][101O:1]c2ccc3c(c2)CN(C(=O)C(NC(=O)C(C)NC)C(C)(C)C)C(C(=O)NC2CCCc4ccccc42)C3)cc1C=[100CH:0][100C:0](=O)N1CCCC(n2nc(-c3ccc(Oc4ccc(F)cc4F)cc3)c(C(N)=O)c2N)C1

> <Shape>
0.227

> <Color>
0.109

> <Negative vol penalty>
0.000

$$$$

  -OEChem-04052301433D

 84 92  0     1  0  0  0  0  0999 V2000
  -22.7979  -23.5215   17.9080 C   0  0  0  0  0  0  0  0  0  0  0  0
  -23.9273  -22.8902   18.4192 C   0  0  0  0  0  0  0  0  0  0  0  0
  -22.9637  -29.1290   22.4555 C   0  0  0  0  0  0  0  0  0  0  0  0
  -23.2725  -26.7728   22.8913 C   0  0  0  0  0  0  0  0  0  0  0  0
  -21.5280  -23.0471   18.2337 C   0  0  0  0  0  0  0  0  0  0  0  0
  -23.7873  -21.7847   19.2574 C   0  0  0  0  0  0  0  0  0  0  0  0
  -26.9687  -18.0288   18.0669 C   0  0  0  0  0  0  0  0  0  0  0  0
  -21.5940  -28.9199   22.2955 C   0  0  0  0  0  0  0  0  0  0  0  0
  -21.9027  -26.5637   22.7314 C   0  0  0  0  0  0  0  0  0  0  0  0
  -28.2943  -18.1631   18.4773 C   0  0  0  0  0  0  0  0  0  0  0  0
  -17.9655  -29.0659   22.1283 C   0  0  0  0  0  0  0  0  0  0  0  0
  -17.0958  -29.9631   22.7482 C   0  0  0  0  0  0  0  0  0  0  0  0
  -27.8570  -16.7031   20.3472 C   0  0  0  0  0  0  0  0  0  0  0  0
  -18.0221  -29.3741   24.9004 C   0  0  0  0  0  0  0  0  0  0  0  0
  -32.2481  -22.5586   19.1401 C   0  0  0  0  0  0  0  0  0  0  0  0
  -23.8030  -28.0554   22.7534 C   0  0  0  0  0  0  0  0  0  0  0  0
  -31.4376  -21.8251   19.9750 C   0  0  0  0  0  0  0  0  0  0  0  0
  -25.8976  -28.5802   24.1117 C   0  0  0  0  0  0  0  0  0  0  0  0
  -21.3726  -21.9293   19.0686 C   0  0  0  0  0  0  0  0  0  0  0  0
  -26.0730  -17.2381   18.8009 C   0  0  0  0  0  0  0  0  0  0  0  0
  -22.5141  -21.2957   19.5957 C   0  0  0  0  0  0  0  0  0  0  0  0
  -26.5212  -16.5584   19.9425 C   0  0  0  0  0  0  0  0  0  0  0  0
  -21.0634  -27.6373   22.4334 C   0  0  0  0  0  0  0  0  0  0  0  0
  -28.7379  -17.5025   19.6192 C   0  0  0  0  0  0  0  0  0  0  0  0
  -18.8635  -28.3227   22.8945 C   0  0  0  0  0  0  0  0  0  0  0  0
  -30.4257  -22.7100   20.4177 C   0  0  0  0  0  0  0  0  0  0  0  0
  -17.1241  -30.1172   24.1342 C   0  0  0  0  0  0  0  0  0  0  0  0
  -18.8918  -28.4768   24.2806 C   0  0  0  0  0  0  0  0  0  0  0  0
  -25.2182  -28.2706   22.9182 C   0  0  0  0  0  0  0  0  0  0  0  0
  -27.2157  -28.6832   23.7395 C   0  0  0  0  0  0  0  0  0  0  0  0
  -30.6901  -23.9214   19.8221 C   0  0  0  0  0  0  0  0  0  0  0  0
  -26.6330  -20.5524   21.9993 C   0  0  0  0  0  0  0  0  0  0  0  0
  -31.6261  -20.4038   20.3101 C   0  0  0  0  0  0  0  0  0  0  0  0
  -27.1915  -21.7455   21.7675 C   0  0  0  0  0  0  0  0  0  0  0  0
  -31.2837  -19.8323   21.4753 C   0  0  0  0  0  0  0  0  0  0  0  0
  -25.3833  -28.7586   25.4380 C   0  0  0  0  0  0  0  0  0  0  0  0
  -23.3714  -17.7887   20.3827 C   0  0  0  0  0  0  0  0  0  0  0  0
  -23.3459  -14.5590   20.6834 C   0  0  0  0  0  0  0  0  0  0  0  0
  -25.1124  -11.6394   20.7276 C   0  0  0  0  0  0  0  0  0  0  0  0
  -30.3809  -26.3526   19.2390 C   0  0  0  0  0  0  0  0  0  0  0  0
  -19.9785  -21.4819   19.4307 C   0  0  0  0  0  0  0  0  0  0  0  0
  -24.6530  -17.0821   18.3299 C   0  0  0  0  0  0  0  0  0  0  0  0
  -25.6045  -15.6812   20.7541 C   0  0  0  0  0  0  0  0  0  0  0  0
  -19.9247  -20.0763   20.0237 C   0  0  0  0  0  0  0  0  0  0  0  0
  -29.9706  -29.8092   19.9876 C   0  0  0  0  0  0  0  0  0  0  0  0
  -21.0034  -19.9045   21.0885 C   0  0  0  0  0  0  0  0  0  0  0  0
  -28.7710  -29.8345   20.9375 C   0  0  0  0  0  0  0  0  0  0  0  0
  -29.8112  -28.7476   18.9008 C   0  0  0  0  0  0  0  0  0  0  0  0
  -28.3174  -27.4206   20.3420 C   0  0  0  0  0  0  0  0  0  0  0  0
  -22.4037  -20.0786   20.4883 C   0  0  1  0  0  0  0  0  0  0  0  0
  -23.6971  -16.6629   19.4425 C   0  0  1  0  0  0  0  0  0  0  0  0
  -28.4619  -28.4302   21.4925 C   0  0  2  0  0  0  0  0  0  0  0  0
  -24.8217   -9.1655   21.0322 C   0  0  0  0  0  0  0  0  0  0  0  0
  -23.0502  -14.9667   23.6927 C   0  0  0  0  0  0  0  0  0  0  0  0
  -23.7143  -12.5739   24.0118 C   0  0  0  0  0  0  0  0  0  0  0  0
  -21.6393  -13.1322   22.7449 C   0  0  0  0  0  0  0  0  0  0  0  0
  -26.1308  -11.0676   18.0082 C   0  0  0  0  0  0  0  0  0  0  0  0
  -31.5062  -18.3763   21.7809 C   0  0  0  0  0  0  0  0  0  0  0  0
  -28.1667  -22.0103   20.6689 C   0  0  0  0  0  0  0  0  0  0  0  0
  -30.2880  -17.5333   21.4226 C   0  0  0  0  0  0  0  0  0  1  0  0
  -23.8932  -13.5745   21.6885 C   0  0  1  0  0  0  0  0  0  0  0  0
  -24.8790  -10.3101   20.0326 C   0  0  2  0  0  0  0  0  0  0  0  0
  -23.0913  -13.5798   23.0205 C   0  0  0  0  0  0  0  0  0  0  0  0
  -26.0370  -28.1829   21.8666 N   0  0  0  0  0  0  0  0  0  0  0  0
  -27.2445  -28.4390   22.3980 N   0  0  0  0  0  0  0  0  0  0  0  0
  -24.2237  -15.5655   20.2565 N   0  0  0  0  0  0  0  0  0  0  0  0
  -29.5244  -27.4428   19.5010 N   0  0  0  0  0  0  0  0  0  0  0  0
  -28.3413  -28.9581   24.4322 N   0  0  0  0  0  0  0  0  0  0  0  0
  -24.0043  -28.6169   25.6446 N   0  0  0  0  0  0  0  0  0  0  0  0
  -30.0266  -25.1715   19.8902 N   0  0  0  0  0  0  0  0  0  0  0  0
  -22.7973  -18.8858   19.7693 N   0  0  0  0  0  0  0  0  0  0  0  0
  -23.9261  -12.2803   21.0159 N   0  0  0  0  0  0  0  0  0  0  0  0
  -25.9762  -10.0329   19.0629 N   0  3  0  0  0  0  0  0  0  0  0  0
  -26.1225  -29.0517   26.4082 O   0  0  0  0  0  0  0  0  0  0  0  0
  -23.6211  -17.6703   21.5766 O   0  0  0  0  0  0  0  0  0  0  0  0
  -22.1847  -14.4351   20.2861 O   0  0  0  0  0  0  0  0  0  0  0  0
  -26.2348  -12.0647   20.9920 O   0  0  0  0  0  0  0  0  0  0  0  0
  -31.3724  -26.4659   18.5136 O   0  0  0  0  0  0  0  0  0  0  0  0
  -31.7994  -23.8375   19.0417 O   0  0  0  0  0  0  0  0  0  0  0  0
  -19.7268  -27.4329   22.2776 O   0  0  0  0  0  0  0  0  0  0  0  0
  -29.4009  -22.4635   21.2466 O   0  0  0  0  0  0  0  0  0  0  0  0
  -30.0312  -17.6324   20.0224 O   0  0  0  0  0  0  0  0  0  1  0  0
  -16.2899  -30.9800   24.7291 F   0  0  0  0  0  0  0  0  0  0  0  0
  -19.7530  -27.7665   25.0218 F   0  0  0  0  0  0  0  0  0  0  0  0
  1  2  1  0  0  0  0
  1  5  2  0  0  0  0
  2  6  2  0  0  0  0
  3  8  2  0  0  0  0
  3 16  1  0  0  0  0
  4  9  1  0  0  0  0
  4 16  2  0  0  0  0
  5 19  1  0  0  0  0
  6 21  1  0  0  0  0
  7 10  2  0  0  0  0
  7 20  1  0  0  0  0
  8 23  1  0  0  0  0
  9 23  2  0  0  0  0
 10 24  1  0  0  0  0
 11 12  2  0  0  0  0
 11 25  1  0  0  0  0
 12 27  1  0  0  0  0
 13 22  1  0  0  0  0
 13 24  2  0  0  0  0
 14 27  2  0  0  0  0
 14 28  1  0  0  0  0
 15 17  2  0  0  0  0
 15 79  1  0  0  0  0
 16 29  1  0  0  0  0
 17 26  1  0  0  0  0
 17 33  1  0  0  0  0
 18 29  1  0  0  0  0
 18 30  2  0  0  0  0
 18 36  1  0  0  0  0
 19 21  2  0  0  0  0
 19 41  1  0  0  0  0
 20 22  2  0  0  0  0
 20 42  1  0  0  0  0
 21 50  1  0  0  0  0
 22 43  1  0  0  0  0
 23 80  1  0  0  0  0
 24 82  1  0  0  0  0
 25 28  2  0  0  0  0
 25 80  1  0  0  0  0
 26 31  2  0  0  0  0
 26 81  1  0  0  0  0
 27 83  1  0  0  0  0
 28 84  1  0  0  0  0
 29 64  2  0  0  0  0
 30 65  1  0  0  0  0
 30 68  1  0  0  0  0
 31 70  1  0  0  0  0
 31 79  1  0  0  0  0
 32 34  2  0  0  0  0
 33 35  2  0  0  0  0
 34 59  1  0  0  0  0
 35 58  1  0  0  0  0
 36 69  1  0  0  0  0
 36 74  2  0  0  0  0
 37 51  1  0  0  0  0
 37 71  1  0  0  0  0
 37 75  2  0  0  0  0
 38 61  1  0  0  0  0
 38 66  1  0  0  0  0
 38 76  2  0  0  0  0
 39 62  1  0  0  0  0
 39 72  1  0  0  0  0
 39 77  2  0  0  0  0
 40 67  1  0  0  0  0
 40 70  1  0  0  0  0
 40 78  2  0  0  0  0
 41 44  1  0  0  0  0
 42 51  1  0  0  0  0
 43 66  1  0  0  0  0
 44 46  1  0  0  0  0
 45 47  1  0  0  0  0
 45 48  1  0  0  0  0
 46 50  1  0  0  0  0
 47 52  1  0  0  0  0
 48 67  1  0  0  0  0
 49 52  1  0  0  0  0
 49 67  1  0  0  0  0
 50 71  1  0  0  0  0
 51 66  1  0  0  0  0
 52 65  1  0  0  0  0
 53 62  1  0  0  0  0
 54 63  1  0  0  0  0
 55 63  1  0  0  0  0
 56 63  1  0  0  0  0
 57 73  1  0  0  0  0
 58 60  1  0  0  0  0
 59 81  1  0  0  0  0
 60 82  1  0  0  0  0
 61 63  1  0  0  0  0
 61 72  1  0  0  0  0
 62 73  1  0  0  0  0
 64 65  1  0  0  0  0
M  CHG  1  73   1
M  ISO  4  40 100  60 101  70 100  82 101
M  END
> <Batch ID>
0116

> <Smiles>
C=CCOc1c(C=CC[101CH2:1][101O:1]c2ccc3c(c2)CN(C(=O)C(NC(=O)C(C)NC)C(C)(C)C)C(C(=O)NC2CCCc4ccccc42)C3)coc1[100NH:0][100C:0](=O)N1CCCC(n2nc(-c3ccc(Oc4ccc(F)cc4F)cc3)c(C(N)=O)c2N)C1

> <Shape>
0.233

> <Color>
0.064

> <Negative vol penalty>
0.000

$$$$

  -OEChem-04052301433D

 85 93  0     1  0  0  0  0  0999 V2000
  -25.0081  -34.2455   27.9262 C   0  0  0  0  0  0  0  0  0  0  0  0
  -25.8376  -33.3861   27.2128 C   0  0  0  0  0  0  0  0  0  0  0  0
  -24.3039   -8.9531   21.4392 C   0  0  0  0  0  0  0  0  0  0  0  0
  -24.7801  -10.2477   23.4227 C   0  0  0  0  0  0  0  0  0  0  0  0
  -23.6239  -34.0935   27.8570 C   0  0  0  0  0  0  0  0  0  0  0  0
  -25.2833  -32.3736   26.4306 C   0  0  0  0  0  0  0  0  0  0  0  0
  -27.4360  -30.2345   21.1112 C   0  0  0  0  0  0  0  0  0  0  0  0
  -23.9834   -7.8528   22.2343 C   0  0  0  0  0  0  0  0  0  0  0  0
  -24.4596   -9.1474   24.2178 C   0  0  0  0  0  0  0  0  0  0  0  0
  -28.2033  -29.1151   20.7920 C   0  0  0  0  0  0  0  0  0  0  0  0
  -21.3625   -6.8028   24.0947 C   0  0  0  0  0  0  0  0  0  0  0  0
  -20.2079   -6.0876   23.7768 C   0  0  0  0  0  0  0  0  0  0  0  0
  -27.9057  -20.3838   20.7414 C   0  0  0  0  0  0  0  0  0  0  0  0
  -26.1913  -27.8954   20.2597 C   0  0  0  0  0  0  0  0  0  0  0  0
  -30.1081  -18.8071   20.0733 C   0  0  0  0  0  0  0  0  0  0  0  0
  -21.5345   -4.0974   23.4360 C   0  0  0  0  0  0  0  0  0  0  0  0
  -24.7023  -10.1506   22.0334 C   0  0  0  0  0  0  0  0  0  0  0  0
  -27.7241  -19.0483   20.3824 C   0  0  0  0  0  0  0  0  0  0  0  0
  -24.1603  -12.2961   20.7642 C   0  0  0  0  0  0  0  0  0  0  0  0
  -23.0521  -33.0846   27.0659 C   0  0  0  0  0  0  0  0  0  0  0  0
  -26.0376  -30.1893   21.0174 C   0  0  0  0  0  0  0  0  0  0  0  0
  -23.8902  -32.2071   26.3518 C   0  0  0  0  0  0  0  0  0  0  0  0
  -25.4087  -29.0164   20.5758 C   0  0  0  0  0  0  0  0  0  0  0  0
  -28.8252  -18.2599   20.0484 C   0  0  0  0  0  0  0  0  0  0  0  0
  -24.0613   -7.9499   23.6236 C   0  0  0  0  0  0  0  0  0  0  0  0
  -27.5808  -27.9444   20.3689 C   0  0  0  0  0  0  0  0  0  0  0  0
  -22.6031   -6.1653   24.0831 C   0  0  0  0  0  0  0  0  0  0  0  0
  -29.1886  -20.9311   20.7663 C   0  0  0  0  0  0  0  0  0  0  0  0
  -20.2939   -4.7349   23.4475 C   0  0  0  0  0  0  0  0  0  0  0  0
  -22.6891   -4.8126   23.7538 C   0  0  0  0  0  0  0  0  0  0  0  0
  -30.2897  -20.1427   20.4322 C   0  0  0  0  0  0  0  0  0  0  0  0
  -25.0340  -11.2874   21.2126 C   0  0  0  0  0  0  0  0  0  0  0  0
  -24.9567  -13.1366   20.0254 C   0  0  0  0  0  0  0  0  0  0  0  0
  -25.4073  -18.9694   19.5815 C   0  0  0  0  0  0  0  0  0  0  0  0
  -26.3685  -18.5115   20.3685 C   0  0  0  0  0  0  0  0  0  0  0  0
  -22.7547  -12.4588   20.9950 C   0  0  0  0  0  0  0  0  0  0  0  0
  -23.6395  -30.5109   23.0788 C   0  0  0  0  0  0  0  0  0  0  0  0
  -28.7819  -24.5327   20.5906 C   0  0  0  0  0  0  0  0  0  0  0  0
  -21.8247  -30.3396   20.3956 C   0  0  0  0  0  0  0  0  0  0  0  0
  -21.5329  -29.3054   17.1564 C   0  0  0  0  0  0  0  0  0  0  0  0
  -29.6774  -16.0038   19.3203 C   0  0  0  0  0  0  0  0  0  0  0  0
  -21.5519  -32.9296   27.0599 C   0  0  0  0  0  0  0  0  0  0  0  0
  -25.2258  -31.4138   21.3398 C   0  0  0  0  0  0  0  0  0  0  0  0
  -23.9118  -28.9226   20.4387 C   0  0  0  0  0  0  0  0  0  0  0  0
  -21.0333  -32.0672   25.9120 C   0  0  0  0  0  0  0  0  0  0  0  0
  -29.7099  -12.5698   18.3801 C   0  0  0  0  0  0  0  0  0  0  0  0
  -21.8598  -30.7912   25.7873 C   0  0  0  0  0  0  0  0  0  0  0  0
  -28.4245  -12.0130   18.9963 C   0  0  0  0  0  0  0  0  0  0  0  0
  -30.3639  -13.6159   19.2811 C   0  0  0  0  0  0  0  0  0  0  0  0
  -28.1957  -14.1540   20.3196 C   0  0  0  0  0  0  0  0  0  0  0  0
  -23.3259  -31.1121   25.4727 C   0  0  1  0  0  0  0  0  0  0  0  0
  -23.7787  -31.0934   21.7007 C   0  0  1  0  0  0  0  0  0  0  0  0
  -27.4662  -13.1439   19.4188 C   0  0  2  0  0  0  0  0  0  0  0  0
  -19.9178  -29.2755   15.2360 C   0  0  0  0  0  0  0  0  0  0  0  0
  -20.2687  -28.0869   21.7426 C   0  0  0  0  0  0  0  0  0  0  0  0
  -19.3441  -27.4770   19.4973 C   0  0  0  0  0  0  0  0  0  0  0  0
  -18.8572  -29.7186   20.4777 C   0  0  0  0  0  0  0  0  0  0  0  0
  -23.3522  -30.8987   15.4504 C   0  0  0  0  0  0  0  0  0  0  0  0
  -27.7278  -25.5727   20.2705 C   0  0  0  0  0  0  0  0  0  1  0  0
  -28.2722  -23.1249   20.8211 C   0  0  0  0  0  0  0  0  0  0  0  0
  -21.1798  -29.2229   19.6106 C   0  0  1  0  0  0  0  0  0  0  0  0
  -21.0570  -30.0261   15.9080 C   0  0  2  0  0  0  0  0  0  0  0  0
  -19.9406  -28.6272   20.3364 C   0  0  0  0  0  0  0  0  0  0  0  0
  -26.2892  -11.4687   20.7934 N   0  0  0  0  0  0  0  0  0  0  0  0
  -26.2100  -12.6010   20.0739 N   0  0  0  0  0  0  0  0  0  0  0  0
  -23.1612  -30.1446   20.7718 N   0  0  0  0  0  0  0  0  0  0  0  0
  -29.3980  -14.6575   19.6371 N   0  0  0  0  0  0  0  0  0  0  0  0
  -24.7000  -14.2742   19.3454 N   0  0  0  0  0  0  0  0  0  0  0  0
  -22.0910  -11.5035   21.7769 N   0  0  0  0  0  0  0  0  0  0  0  0
  -28.6715  -16.9009   19.6778 N   0  0  0  0  0  0  0  0  0  0  0  0
  -23.4796  -31.4549   24.0751 N   0  0  0  0  0  0  0  0  0  0  0  0
  -20.8933  -29.7667   18.2875 N   0  0  0  0  0  0  0  0  0  0  0  0
  -22.1734  -30.1597   14.9297 N   0  3  0  0  0  0  0  0  0  0  0  0
  -22.1031  -13.4138   20.5083 O   0  0  0  0  0  0  0  0  0  0  0  0
  -23.6732  -29.2949   23.2270 O   0  0  0  0  0  0  0  0  0  0  0  0
  -29.9774  -24.8143   20.6596 O   0  0  0  0  0  0  0  0  0  0  0  0
  -21.1690  -31.3507   20.6589 O   0  0  0  0  0  0  0  0  0  0  0  0
  -22.3840  -28.4192   17.1304 O   0  0  0  0  0  0  0  0  0  0  0  0
  -30.7194  -16.3329   18.7478 O   0  0  0  0  0  0  0  0  0  0  0  0
  -23.7484   -6.8765   24.3997 O   0  0  0  0  0  0  0  0  0  0  0  0
  -28.3273  -26.8501   20.0573 O   0  0  0  0  0  0  0  0  0  1  0  0
  -29.3388  -22.2503   21.1228 O   0  0  0  0  0  0  0  0  0  0  0  0
  -19.1849   -4.0479   23.1437 F   0  0  0  0  0  0  0  0  0  0  0  0
  -23.8781   -4.1944   23.7422 F   0  0  0  0  0  0  0  0  0  0  0  0
  -31.8867  -20.7948   20.4548 Cl  0  0  0  0  0  0  0  0  0  0  0  0
  1  2  1  0  0  0  0
  1  5  2  0  0  0  0
  2  6  2  0  0  0  0
  3  8  2  0  0  0  0
  3 17  1  0  0  0  0
  4  9  1  0  0  0  0
  4 17  2  0  0  0  0
  5 20  1  0  0  0  0
  6 22  1  0  0  0  0
  7 10  2  0  0  0  0
  7 21  1  0  0  0  0
  8 25  1  0  0  0  0
  9 25  2  0  0  0  0
 10 26  1  0  0  0  0
 11 12  2  0  0  0  0
 11 27  1  0  0  0  0
 12 29  1  0  0  0  0
 13 18  1  0  0  0  0
 13 28  2  0  0  0  0
 14 23  1  0  0  0  0
 14 26  2  0  0  0  0
 15 24  1  0  0  0  0
 15 31  2  0  0  0  0
 16 29  2  0  0  0  0
 16 30  1  0  0  0  0
 17 32  1  0  0  0  0
 18 24  2  0  0  0  0
 18 35  1  0  0  0  0
 19 32  1  0  0  0  0
 19 33  2  0  0  0  0
 19 36  1  0  0  0  0
 20 22  2  0  0  0  0
 20 42  1  0  0  0  0
 21 23  2  0  0  0  0
 21 43  1  0  0  0  0
 22 51  1  0  0  0  0
 23 44  1  0  0  0  0
 24 70  1  0  0  0  0
 25 80  1  0  0  0  0
 26 81  1  0  0  0  0
 27 30  2  0  0  0  0
 27 80  1  0  0  0  0
 28 31  1  0  0  0  0
 28 82  1  0  0  0  0
 29 83  1  0  0  0  0
 30 84  1  0  0  0  0
 31 85  1  0  0  0  0
 32 64  2  0  0  0  0
 33 65  1  0  0  0  0
 33 68  1  0  0  0  0
 34 35  2  0  0  0  0
 36 69  1  0  0  0  0
 36 74  2  0  0  0  0
 37 52  1  0  0  0  0
 37 71  1  0  0  0  0
 37 75  2  0  0  0  0
 38 59  1  0  0  0  0
 38 60  1  0  0  0  0
 38 76  2  0  0  0  0
 39 61  1  0  0  0  0
 39 66  1  0  0  0  0
 39 77  2  0  0  0  0
 40 62  1  0  0  0  0
 40 72  1  0  0  0  0
 40 78  2  0  0  0  0
 41 67  1  0  0  0  0
 41 70  1  0  0  0  0
 41 79  2  0  0  0  0
 42 45  1  0  0  0  0
 43 52  1  0  0  0  0
 44 66  1  0  0  0  0
 45 47  1  0  0  0  0
 46 48  1  0  0  0  0
 46 49  1  0  0  0  0
 47 51  1  0  0  0  0
 48 53  1  0  0  0  0
 49 67  1  0  0  0  0
 50 53  1  0  0  0  0
 50 67  1  0  0  0  0
 51 71  1  0  0  0  0
 52 66  1  0  0  0  0
 53 65  1  0  0  0  0
 54 62  1  0  0  0  0
 55 63  1  0  0  0  0
 56 63  1  0  0  0  0
 57 63  1  0  0  0  0
 58 73  1  0  0  0  0
 59 81  1  0  0  0  0
 60 82  1  0  0  0  0
 61 63  1  0  0  0  0
 61 72  1  0  0  0  0
 62 73  1  0  0  0  0
 64 65  1  0  0  0  0
M  CHG  1  73   1
M  ISO  4  41 100  59 101  70 100  81 101
M  END
> <Batch ID>
0116

> <Smiles>
C=Cc1cc(OCC(=O)[101CH2:1][101O:1]c2ccc3c(c2)CN(C(=O)C(NC(=O)C(C)NC)C(C)(C)C)C(C(=O)NC2CCCc4ccccc42)C3)c(Cl)cc1[100NH:0][100C:0](=O)N1CCCC(n2nc(-c3ccc(Oc4ccc(F)cc4F)cc3)c(C(N)=O)c2N)C1

> <Shape>
0.306

> <Color>
0.135

> <Negative vol penalty>
0.000

$$$$

  -OEChem-04052301433D

 86 94  0     1  0  0  0  0  0999 V2000
  -20.0144   -8.4466   19.6680 C   0  0  0  0  0  0  0  0  0  0  0  0
  -19.8004   -9.7955   19.9327 C   0  0  0  0  0  0  0  0  0  0  0  0
  -28.5272  -26.0985   20.1192 C   0  0  0  0  0  0  0  0  0  0  0  0
  -26.2845  -25.7548   19.2890 C   0  0  0  0  0  0  0  0  0  0  0  0
  -18.3943  -27.9091   22.0049 C   0  0  0  0  0  0  0  0  0  0  0  0
  -21.2313   -7.8557   20.0054 C   0  0  0  0  0  0  0  0  0  0  0  0
  -20.8029  -10.5540   20.5361 C   0  0  0  0  0  0  0  0  0  0  0  0
  -22.0743  -16.4565   19.5114 C   0  0  0  0  0  0  0  0  0  0  0  0
  -28.8701  -24.8041   19.7288 C   0  0  0  0  0  0  0  0  0  0  0  0
  -26.6275  -24.4603   18.8986 C   0  0  0  0  0  0  0  0  0  0  0  0
  -18.7399  -26.7666   21.2833 C   0  0  0  0  0  0  0  0  0  0  0  0
  -21.7352  -17.6219   20.1975 C   0  0  0  0  0  0  0  0  0  0  0  0
  -28.4424  -21.6578   20.8874 C   0  0  0  0  0  0  0  0  0  0  0  0
  -29.1678  -20.8802   21.7900 C   0  0  0  0  0  0  0  0  0  0  0  0
  -20.8450  -26.6576   22.4640 C   0  0  0  0  0  0  0  0  0  0  0  0
  -23.8538  -17.5533   21.3490 C   0  0  0  0  0  0  0  0  0  0  0  0
  -30.9601  -20.6854   20.1816 C   0  0  0  0  0  0  0  0  0  0  0  0
  -27.2344  -26.5738   19.8994 C   0  0  0  0  0  0  0  0  0  0  0  0
  -19.2741  -28.4260   22.9561 C   0  0  0  0  0  0  0  0  0  0  0  0
  -20.4994  -27.8002   23.1856 C   0  0  0  0  0  0  0  0  0  0  0  0
  -26.9831  -29.0862   19.5353 C   0  0  0  0  0  0  0  0  0  0  0  0
  -22.2528   -8.6096   20.6045 C   0  0  0  0  0  0  0  0  0  0  0  0
  -23.3033  -15.8237   19.7474 C   0  0  0  0  0  0  0  0  0  0  0  0
  -22.0341   -9.9723   20.8831 C   0  0  0  0  0  0  0  0  0  0  0  0
  -24.2073  -16.3815   20.6627 C   0  0  0  0  0  0  0  0  0  0  0  0
  -27.9203  -23.9850   19.1185 C   0  0  0  0  0  0  0  0  0  0  0  0
  -19.9652  -26.1408   21.5129 C   0  0  0  0  0  0  0  0  0  0  0  0
  -22.6238  -18.1689   21.1185 C   0  0  0  0  0  0  0  0  0  0  0  0
  -28.9758  -21.9491   19.6319 C   0  0  0  0  0  0  0  0  0  0  0  0
  -30.4267  -20.3940   21.4372 C   0  0  0  0  0  0  0  0  0  0  0  0
  -30.2347  -21.4630   19.2790 C   0  0  0  0  0  0  0  0  0  0  0  0
  -26.8793  -27.9107   20.3029 C   0  0  0  0  0  0  0  0  0  0  0  0
  -26.5229  -30.0796   20.3647 C   0  0  0  0  0  0  0  0  0  0  0  0
  -18.5810  -30.7737   23.1081 C   0  0  0  0  0  0  0  0  0  0  0  0
  -18.8812  -29.6227   23.6900 C   0  0  0  0  0  0  0  0  0  0  0  0
  -21.4665  -28.3186   24.1896 C   0  0  0  0  0  0  0  0  0  0  0  0
  -27.4534  -29.2643   18.1926 C   0  0  0  0  0  0  0  0  0  0  0  0
  -24.1846  -12.9768   20.8529 C   0  0  0  0  0  0  0  0  0  0  0  0
  -27.1506  -14.0170   20.0506 C   0  0  0  0  0  0  0  0  0  0  0  0
  -29.2374  -16.6543   19.4707 C   0  0  0  0  0  0  0  0  0  0  0  0
  -22.7782  -30.0364   24.9931 C   0  0  0  0  0  0  0  0  0  0  0  0
  -23.5339   -7.9158   20.9943 C   0  0  0  0  0  0  0  0  0  0  0  0
  -23.6653  -14.5821   18.9795 C   0  0  0  0  0  0  0  0  0  0  0  0
  -25.5477  -15.7520   20.9373 C   0  0  0  0  0  0  0  0  0  0  0  0
  -24.6820   -8.8776   21.2894 C   0  0  0  0  0  0  0  0  0  0  0  0
  -26.1427  -31.2365   24.9926 C   0  0  0  0  0  0  0  0  0  0  0  0
  -24.2090  -10.0125   22.1923 C   0  0  0  0  0  0  0  0  0  0  0  0
  -26.7322  -30.6124   23.7261 C   0  0  0  0  0  0  0  0  0  0  0  0
  -25.1602  -30.2921   25.6803 C   0  0  0  0  0  0  0  0  0  0  0  0
  -24.6605  -29.1716   23.5303 C   0  0  0  0  0  0  0  0  0  0  0  0
  -23.1063  -10.8341   21.5138 C   0  0  1  0  0  0  0  0  0  0  0  0
  -24.7276  -13.7372   19.6762 C   0  0  1  0  0  0  0  0  0  0  0  0
  -25.6219  -30.1111   22.7837 C   0  0  2  0  0  0  0  0  0  0  0  0
  -21.8618  -27.4071   25.3353 C   0  0  0  0  0  0  0  0  0  0  0  0
  -31.6144  -17.1907   18.8708 C   0  0  0  0  0  0  0  0  0  0  0  0
  -28.0158  -13.3606   22.9020 C   0  0  0  0  0  0  0  0  0  0  0  0
  -30.0556  -14.7642   22.5320 C   0  0  0  0  0  0  0  0  0  0  0  0
  -29.6730  -12.7312   21.1380 C   0  0  0  0  0  0  0  0  0  0  0  0
  -28.4214  -18.0206   16.9754 C   0  0  0  0  0  0  0  0  0  0  0  0
  -20.8713  -22.6788   20.9293 C   0  0  0  0  0  0  0  0  0  0  0  0
  -21.7457  -21.6355   21.6160 C   0  0  0  0  0  0  0  0  0  0  0  0
  -21.1516  -24.0804   21.4548 C   0  0  0  0  0  0  0  0  0  0  0  0
  -21.4362  -20.2294   21.1222 C   0  0  0  0  0  0  0  0  0  1  0  0
  -28.2432  -14.7814   20.7584 C   0  0  1  0  0  0  0  0  0  0  0  0
  -30.2111  -16.9390   18.3413 C   0  0  2  0  0  0  0  0  0  0  0  0
  -28.9709  -13.9204   21.8291 C   0  0  0  0  0  0  0  0  0  0  0  0
  -26.3917  -28.1349   21.5260 N   0  0  0  0  0  0  0  0  0  0  0  0
  -21.9071  -29.5350   24.0512 N   0  0  0  0  0  0  0  0  0  0  0  0
  -26.1850  -29.4628   21.5333 N   0  0  0  0  0  0  0  0  0  0  0  0
  -25.8530  -14.5356   20.1661 N   0  0  0  0  0  0  0  0  0  0  0  0
  -24.1435  -29.8284   24.7369 N   0  0  0  0  0  0  0  0  0  0  0  0
  -26.3785  -31.4118   20.2012 N   0  0  0  0  0  0  0  0  0  0  0  0
  -27.8897  -28.1374   17.4826 N   0  0  0  0  0  0  0  0  0  0  0  0
  -23.6764  -11.7324   20.5328 N   0  0  0  0  0  0  0  0  0  0  0  0
  -29.1190  -15.3023   19.7143 N   0  0  0  0  0  0  0  0  0  0  0  0
  -29.7764  -18.1395   17.5728 N   0  3  0  0  0  0  0  0  0  0  0  0
  -27.5010  -30.3916   17.6446 O   0  0  0  0  0  0  0  0  0  0  0  0
  -24.2252  -13.4812   21.9690 O   0  0  0  0  0  0  0  0  0  0  0  0
  -27.4388  -13.0013   19.4128 O   0  0  0  0  0  0  0  0  0  0  0  0
  -28.6443  -17.5427   20.0785 O   0  0  0  0  0  0  0  0  0  0  0  0
  -22.3757  -30.6093   26.0066 O   0  0  0  0  0  0  0  0  0  0  0  0
  -28.2547  -22.7219   18.7372 O   0  0  0  0  0  0  0  0  0  0  0  0
  -20.3042  -25.0179   20.8039 O   0  0  0  0  0  0  0  0  0  0  0  0
  -22.2950  -19.3059   21.7900 O   0  0  0  0  0  0  0  0  0  1  0  0
  -31.1239  -19.6486   22.3046 F   0  0  0  0  0  0  0  0  0  0  0  0
  -30.7528  -21.7405   18.0747 F   0  0  0  0  0  0  0  0  0  0  0  0
  1  2  1  0  0  0  0
  1  6  2  0  0  0  0
  2  7  2  0  0  0  0
  3  9  2  0  0  0  0
  3 18  1  0  0  0  0
  4 10  1  0  0  0  0
  4 18  2  0  0  0  0
  5 11  2  0  0  0  0
  5 19  1  0  0  0  0
  6 22  1  0  0  0  0
  7 24  1  0  0  0  0
  8 12  2  0  0  0  0
  8 23  1  0  0  0  0
  9 26  1  0  0  0  0
 10 26  2  0  0  0  0
 11 27  1  0  0  0  0
 12 28  1  0  0  0  0
 13 14  2  0  0  0  0
 13 29  1  0  0  0  0
 14 30  1  0  0  0  0
 15 20  1  0  0  0  0
 15 27  2  0  0  0  0
 16 25  1  0  0  0  0
 16 28  2  0  0  0  0
 17 30  2  0  0  0  0
 17 31  1  0  0  0  0
 18 32  1  0  0  0  0
 19 20  2  0  0  0  0
 19 35  1  0  0  0  0
 20 36  1  0  0  0  0
 21 32  1  0  0  0  0
 21 33  2  0  0  0  0
 21 37  1  0  0  0  0
 22 24  2  0  0  0  0
 22 42  1  0  0  0  0
 23 25  2  0  0  0  0
 23 43  1  0  0  0  0
 24 51  1  0  0  0  0
 25 44  1  0  0  0  0
 26 82  1  0  0  0  0
 27 83  1  0  0  0  0
 28 84  1  0  0  0  0
 29 31  2  0  0  0  0
 29 82  1  0  0  0  0
 30 85  1  0  0  0  0
 31 86  1  0  0  0  0
 32 67  2  0  0  0  0
 33 69  1  0  0  0  0
 33 72  1  0  0  0  0
 34 35  2  0  0  0  0
 36 54  1  0  0  0  0
 36 68  2  0  0  0  0
 37 73  1  0  0  0  0
 37 77  2  0  0  0  0
 38 52  1  0  0  0  0
 38 74  1  0  0  0  0
 38 78  2  0  0  0  0
 39 64  1  0  0  0  0
 39 70  1  0  0  0  0
 39 79  2  0  0  0  0
 40 65  1  0  0  0  0
 40 75  1  0  0  0  0
 40 80  2  0  0  0  0
 41 68  1  0  0  0  0
 41 71  1  0  0  0  0
 41 81  2  0  0  0  0
 42 45  1  0  0  0  0
 43 52  1  0  0  0  0
 44 70  1  0  0  0  0
 45 47  1  0  0  0  0
 46 48  1  0  0  0  0
 46 49  1  0  0  0  0
 47 51  1  0  0  0  0
 48 53  1  0  0  0  0
 49 71  1  0  0  0  0
 50 53  1  0  0  0  0
 50 71  1  0  0  0  0
 51 74  1  0  0  0  0
 52 70  1  0  0  0  0
 53 69  1  0  0  0  0
 55 65  1  0  0  0  0
 56 66  1  0  0  0  0
 57 66  1  0  0  0  0
 58 66  1  0  0  0  0
 59 76  1  0  0  0  0
 60 61  1  0  0  0  0
 60 62  1  0  0  0  0
 61 63  1  0  0  0  0
 62 83  1  0  0  0  0
 63 84  1  0  0  0  0
 64 66  1  0  0  0  0
 64 75  1  0  0  0  0
 65 76  1  0  0  0  0
 67 69  1  0  0  0  0
M  CHG  1  76   1
M  ISO  4  41 100  63 101  68 100  84 101
M  END
> <Batch ID>
0116

> <Smiles>
C=Cc1ccc(OCCC[101CH2:1][101O:1]c2ccc3c(c2)CN(C(=O)C(NC(=O)C(C)NC)C(C)(C)C)C(C(=O)NC2CCCc4ccccc42)C3)cc1C(C)=[100N:0][100C:0](=O)N1CCCC(n2nc(-c3ccc(Oc4ccc(F)cc4F)cc3)c(C(N)=O)c2N)C1

> <Shape>
0.303

> <Color>
0.050

> <Negative vol penalty>
0.000

$$$$

  -OEChem-04052301433D

 87 95  0     1  0  0  0  0  0999 V2000
  -29.8459  -36.5568   24.8101 C   0  0  0  0  0  0  0  0  0  0  0  0
  -29.6806  -35.3684   24.1060 C   0  0  0  0  0  0  0  0  0  0  0  0
  -24.4779   -9.5268   21.3857 C   0  0  0  0  0  0  0  0  0  0  0  0
  -24.8095  -10.5203   23.5629 C   0  0  0  0  0  0  0  0  0  0  0  0
  -28.8725  -36.9680   25.7197 C   0  0  0  0  0  0  0  0  0  0  0  0
  -28.5422  -34.5899   24.3119 C   0  0  0  0  0  0  0  0  0  0  0  0
  -25.5730  -31.2337   20.1374 C   0  0  0  0  0  0  0  0  0  0  0  0
  -24.1011   -8.3277   21.9902 C   0  0  0  0  0  0  0  0  0  0  0  0
  -24.4326   -9.3211   24.1675 C   0  0  0  0  0  0  0  0  0  0  0  0
  -25.6060  -29.8740   19.8311 C   0  0  0  0  0  0  0  0  0  0  0  0
  -21.3528   -7.0497   23.4891 C   0  0  0  0  0  0  0  0  0  0  0  0
  -20.2243   -6.3989   22.9904 C   0  0  0  0  0  0  0  0  0  0  0  0
  -28.7437  -19.3146   19.8873 C   0  0  0  0  0  0  0  0  0  0  0  0
  -23.6712  -29.5187   21.2273 C   0  0  0  0  0  0  0  0  0  0  0  0
  -29.5180  -20.0464   22.0557 C   0  0  0  0  0  0  0  0  0  0  0  0
  -21.5724   -4.4643   22.4643 C   0  0  0  0  0  0  0  0  0  0  0  0
  -24.8322  -10.6232   22.1720 C   0  0  0  0  0  0  0  0  0  0  0  0
  -28.5334  -20.6421   19.5144 C   0  0  0  0  0  0  0  0  0  0  0  0
  -24.3830  -12.9332   21.1873 C   0  0  0  0  0  0  0  0  0  0  0  0
  -27.7170  -36.1990   25.9297 C   0  0  0  0  0  0  0  0  0  0  0  0
  -24.5938  -31.7452   21.0011 C   0  0  0  0  0  0  0  0  0  0  0  0
  -27.5531  -34.9905   25.2261 C   0  0  0  0  0  0  0  0  0  0  0  0
  -23.6264  -30.8857   21.5410 C   0  0  0  0  0  0  0  0  0  0  0  0
  -29.2359  -19.0167   21.1580 C   0  0  0  0  0  0  0  0  0  0  0  0
  -24.0783   -8.2248   23.3811 C   0  0  0  0  0  0  0  0  0  0  0  0
  -24.6567  -29.0158   20.3783 C   0  0  0  0  0  0  0  0  0  0  0  0
  -22.5911   -6.4078   23.4753 C   0  0  0  0  0  0  0  0  0  0  0  0
  -28.8155  -21.6718   20.4120 C   0  0  0  0  0  0  0  0  0  0  0  0
  -20.3341   -5.1062   22.4781 C   0  0  0  0  0  0  0  0  0  0  0  0
  -29.3078  -21.3739   21.6827 C   0  0  0  0  0  0  0  0  0  0  0  0
  -22.7009   -5.1151   22.9629 C   0  0  0  0  0  0  0  0  0  0  0  0
  -25.2222  -11.8620   21.5481 C   0  0  0  0  0  0  0  0  0  0  0  0
  -25.2304  -13.8624   20.6351 C   0  0  0  0  0  0  0  0  0  0  0  0
  -26.8372  -20.5118   17.7477 C   0  0  0  0  0  0  0  0  0  0  0  0
  -28.5174  -17.7954   23.7397 C   0  0  0  0  0  0  0  0  0  0  0  0
  -28.0175  -20.9276   18.1823 C   0  0  0  0  0  0  0  0  0  0  0  0
  -29.3405  -17.2186   22.8613 C   0  0  0  0  0  0  0  0  0  0  0  0
  -22.9643  -13.0756   21.3379 C   0  0  0  0  0  0  0  0  0  0  0  0
  -24.6347  -33.2129   23.8203 C   0  0  0  0  0  0  0  0  0  0  0  0
  -21.4514  -33.5121   23.2729 C   0  0  0  0  0  0  0  0  0  0  0  0
  -18.6650  -32.3570   21.6765 C   0  0  0  0  0  0  0  0  0  0  0  0
  -29.9477  -16.7256   20.5779 C   0  0  0  0  0  0  0  0  0  0  0  0
  -26.7148  -36.6605   26.9580 C   0  0  0  0  0  0  0  0  0  0  0  0
  -24.5557  -33.2187   21.3004 C   0  0  0  0  0  0  0  0  0  0  0  0
  -22.5420  -31.3882   22.4575 C   0  0  0  0  0  0  0  0  0  0  0  0
  -25.3599  -35.9668   26.8422 C   0  0  0  0  0  0  0  0  0  0  0  0
  -30.0715  -13.5016   19.2441 C   0  0  0  0  0  0  0  0  0  0  0  0
  -25.5431  -34.4607   26.6838 C   0  0  0  0  0  0  0  0  0  0  0  0
  -28.7574  -12.8648   19.6954 C   0  0  0  0  0  0  0  0  0  0  0  0
  -30.6706  -14.3623   20.3504 C   0  0  0  0  0  0  0  0  0  0  0  0
  -28.4309  -14.8074   21.3040 C   0  0  0  0  0  0  0  0  0  0  0  0
  -26.3202  -34.1311   25.4036 C   0  0  1  0  0  0  0  0  0  0  0  0
  -23.8251  -33.5460   22.5991 C   0  0  1  0  0  0  0  0  0  0  0  0
  -27.7776  -13.9308   20.2168 C   0  0  2  0  0  0  0  0  0  0  0  0
  -16.2017  -32.7826   21.4569 C   0  0  0  0  0  0  0  0  0  0  0  0
  -20.9885  -32.2259   26.0008 C   0  0  0  0  0  0  0  0  0  0  0  0
  -18.6133  -31.8130   25.3255 C   0  0  0  0  0  0  0  0  0  0  0  0
  -19.4751  -34.1486   25.4837 C   0  0  0  0  0  0  0  0  0  0  0  0
  -18.8997  -32.9005   18.7768 C   0  0  0  0  0  0  0  0  0  0  0  0
  -25.9660  -25.6429   20.1915 C   0  0  0  0  0  0  0  0  0  0  0  0
  -27.3194  -24.9930   19.9260 C   0  0  0  0  0  0  0  0  0  0  0  0
  -25.9630  -27.1145   19.7996 C   0  0  0  0  0  0  0  0  0  1  0  0
  -27.3364  -23.5333   20.3572 C   0  0  0  0  0  0  0  0  0  0  0  0
  -20.2316  -32.6750   23.5736 C   0  0  1  0  0  0  0  0  0  0  0  0
  -17.5827  -33.0762   20.8918 C   0  0  2  0  0  0  0  0  0  0  0  0
  -19.8486  -32.7055   25.0802 C   0  0  0  0  0  0  0  0  0  0  0  0
  -26.5043  -12.0885   21.2500 N   0  0  0  0  0  0  0  0  0  0  0  0
  -26.4771  -13.3126   20.6961 N   0  0  0  0  0  0  0  0  0  0  0  0
  -22.5506  -32.8359   22.7250 N   0  0  0  0  0  0  0  0  0  0  0  0
  -29.7079  -15.3586   20.8217 N   0  0  0  0  0  0  0  0  0  0  0  0
  -25.0234  -15.0879   20.1082 N   0  0  0  0  0  0  0  0  0  0  0  0
  -22.2460  -12.0253   21.9256 N   0  0  0  0  0  0  0  0  0  0  0  0
  -25.4572  -34.2381   24.2468 N   0  0  0  0  0  0  0  0  0  0  0  0
  -19.1805  -33.1496   22.6801 N   0  0  0  0  0  0  0  0  0  0  0  0
  -29.4532  -17.6382   21.5457 N   0  0  0  0  0  0  0  0  0  0  0  0
  -17.6071  -32.6488   19.4643 N   0  3  0  0  0  0  0  0  0  0  0  0
  -22.3494  -14.0968   20.9474 O   0  0  0  0  0  0  0  0  0  0  0  0
  -24.5205  -32.1082   24.3382 O   0  0  0  0  0  0  0  0  0  0  0  0
  -21.4272  -34.7227   23.5087 O   0  0  0  0  0  0  0  0  0  0  0  0
  -19.0154  -31.2057   21.4266 O   0  0  0  0  0  0  0  0  0  0  0  0
  -30.5755  -17.1091   19.5823 O   0  0  0  0  0  0  0  0  0  0  0  0
  -23.7104   -7.0549   23.9714 O   0  0  0  0  0  0  0  0  0  0  0  0
  -24.6871  -27.6881   20.0814 O   0  0  0  0  0  0  0  0  0  1  0  0
  -28.6152  -22.9841   20.0705 O   0  0  0  0  0  0  0  0  0  0  0  0
  -19.2500   -4.4809   22.0007 F   0  0  0  0  0  0  0  0  0  0  0  0
  -29.5807  -22.3586   22.5500 F   0  0  0  0  0  0  0  0  0  0  0  0
  -23.8877   -4.4929   22.9480 F   0  0  0  0  0  0  0  0  0  0  0  0
  1  2  1  0  0  0  0
  1  5  2  0  0  0  0
  2  6  2  0  0  0  0
  3  8  2  0  0  0  0
  3 17  1  0  0  0  0
  4  9  1  0  0  0  0
  4 17  2  0  0  0  0
  5 20  1  0  0  0  0
  6 22  1  0  0  0  0
  7 10  2  0  0  0  0
  7 21  1  0  0  0  0
  8 25  1  0  0  0  0
  9 25  2  0  0  0  0
 10 26  1  0  0  0  0
 11 12  2  0  0  0  0
 11 27  1  0  0  0  0
 12 29  1  0  0  0  0
 13 18  1  0  0  0  0
 13 24  2  0  0  0  0
 14 23  1  0  0  0  0
 14 26  2  0  0  0  0
 15 24  1  0  0  0  0
 15 30  2  0  0  0  0
 16 29  2  0  0  0  0
 16 31  1  0  0  0  0
 17 32  1  0  0  0  0
 18 28  2  0  0  0  0
 18 36  1  0  0  0  0
 19 32  1  0  0  0  0
 19 33  2  0  0  0  0
 19 38  1  0  0  0  0
 20 22  2  0  0  0  0
 20 43  1  0  0  0  0
 21 23  2  0  0  0  0
 21 44  1  0  0  0  0
 22 52  1  0  0  0  0
 23 45  1  0  0  0  0
 24 75  1  0  0  0  0
 25 82  1  0  0  0  0
 26 83  1  0  0  0  0
 27 31  2  0  0  0  0
 27 82  1  0  0  0  0
 28 30  1  0  0  0  0
 28 84  1  0  0  0  0
 29 85  1  0  0  0  0
 30 86  1  0  0  0  0
 31 87  1  0  0  0  0
 32 67  2  0  0  0  0
 33 68  1  0  0  0  0
 33 71  1  0  0  0  0
 34 36  2  0  0  0  0
 35 37  2  0  0  0  0
 37 75  1  0  0  0  0
 38 72  1  0  0  0  0
 38 77  2  0  0  0  0
 39 53  1  0  0  0  0
 39 73  1  0  0  0  0
 39 78  2  0  0  0  0
 40 64  1  0  0  0  0
 40 69  1  0  0  0  0
 40 79  2  0  0  0  0
 41 65  1  0  0  0  0
 41 74  1  0  0  0  0
 41 80  2  0  0  0  0
 42 70  1  0  0  0  0
 42 75  1  0  0  0  0
 42 81  2  0  0  0  0
 43 46  1  0  0  0  0
 44 53  1  0  0  0  0
 45 69  1  0  0  0  0
 46 48  1  0  0  0  0
 47 49  1  0  0  0  0
 47 50  1  0  0  0  0
 48 52  1  0  0  0  0
 49 54  1  0  0  0  0
 50 70  1  0  0  0  0
 51 54  1  0  0  0  0
 51 70  1  0  0  0  0
 52 73  1  0  0  0  0
 53 69  1  0  0  0  0
 54 68  1  0  0  0  0
 55 65  1  0  0  0  0
 56 66  1  0  0  0  0
 57 66  1  0  0  0  0
 58 66  1  0  0  0  0
 59 76  1  0  0  0  0
 60 61  1  0  0  0  0
 60 62  1  0  0  0  0
 61 63  1  0  0  0  0
 62 83  1  0  0  0  0
 63 84  1  0  0  0  0
 64 66  1  0  0  0  0
 64 74  1  0  0  0  0
 65 76  1  0  0  0  0
 67 68  1  0  0  0  0
M  CHG  1  76   1
M  ISO  4  42 100  62 101  75 100  83 101
M  END
> <Batch ID>
0116

> <Smiles>
C=Cc1cc([100N:0](C=C)[100C:0](=O)N2CCCC(n3nc(-c4ccc(Oc5ccc(F)cc5F)cc4)c(C(N)=O)c3N)C2)cc(F)c1OCCC[101CH2:1][101O:1]c1ccc2c(c1)CN(C(=O)C(NC(=O)C(C)NC)C(C)(C)C)C(C(=O)NC1CCCc3ccccc31)C2

> <Shape>
0.297

> <Color>
0.153

> <Negative vol penalty>
0.000

$$$$

  -OEChem-04052301433D

 85 93  0     1  0  0  0  0  0999 V2000
  -28.0319  -30.2648   27.9779 C   0  0  0  0  0  0  0  0  0  0  0  0
  -27.9744  -29.3860   26.9010 C   0  0  0  0  0  0  0  0  0  0  0  0
  -24.7238   -8.7410   21.5733 C   0  0  0  0  0  0  0  0  0  0  0  0
  -22.9763  -10.2209   20.8031 C   0  0  0  0  0  0  0  0  0  0  0  0
  -26.9103  -31.0182   28.3221 C   0  0  0  0  0  0  0  0  0  0  0  0
  -26.7948  -29.2593   26.1681 C   0  0  0  0  0  0  0  0  0  0  0  0
  -27.6061  -29.2379   21.1695 C   0  0  0  0  0  0  0  0  0  0  0  0
  -23.8253   -8.1381   22.4535 C   0  0  0  0  0  0  0  0  0  0  0  0
  -22.0778   -9.6179   21.6833 C   0  0  0  0  0  0  0  0  0  0  0  0
  -28.0752  -28.0522   20.6057 C   0  0  0  0  0  0  0  0  0  0  0  0
  -21.3389   -5.8520   22.2969 C   0  0  0  0  0  0  0  0  0  0  0  0
  -21.3343   -4.4588   22.3652 C   0  0  0  0  0  0  0  0  0  0  0  0
  -25.8390  -27.5235   19.8717 C   0  0  0  0  0  0  0  0  0  0  0  0
  -24.4939  -17.9815   18.8990 C   0  0  0  0  0  0  0  0  0  0  0  0
  -26.3494  -19.0409   20.0268 C   0  0  0  0  0  0  0  0  0  0  0  0
  -21.8954   -4.5721   24.7125 C   0  0  0  0  0  0  0  0  0  0  0  0
  -24.2993   -9.7824   20.7481 C   0  0  0  0  0  0  0  0  0  0  0  0
  -24.3165  -20.2809   19.6187 C   0  0  0  0  0  0  0  0  0  0  0  0
  -25.4958  -10.0313   18.5089 C   0  0  0  0  0  0  0  0  0  0  0  0
  -25.7194  -30.9078   27.5871 C   0  0  0  0  0  0  0  0  0  0  0  0
  -26.2457  -29.5705   21.0980 C   0  0  0  0  0  0  0  0  0  0  0  0
  -25.6559  -30.0110   26.5036 C   0  0  0  0  0  0  0  0  0  0  0  0
  -25.3555  -28.7152   20.4332 C   0  0  0  0  0  0  0  0  0  0  0  0
  -23.7571  -19.1613   19.0029 C   0  0  0  0  0  0  0  0  0  0  0  0
  -25.7901  -17.9213   19.4109 C   0  0  0  0  0  0  0  0  0  0  0  0
  -22.5023   -8.5765   22.5085 C   0  0  0  0  0  0  0  0  0  0  0  0
  -27.1912  -27.1934   19.9592 C   0  0  0  0  0  0  0  0  0  0  0  0
  -21.6218   -6.6052   23.4364 C   0  0  0  0  0  0  0  0  0  0  0  0
  -25.6127  -20.2207   20.1307 C   0  0  0  0  0  0  0  0  0  0  0  0
  -21.6125   -3.8189   23.5730 C   0  0  0  0  0  0  0  0  0  0  0  0
  -21.9000   -5.9653   24.6442 C   0  0  0  0  0  0  0  0  0  0  0  0
  -25.2271  -10.4060   19.8390 C   0  0  0  0  0  0  0  0  0  0  0  0
  -26.4433  -10.9302   18.0837 C   0  0  0  0  0  0  0  0  0  0  0  0
  -23.9202  -22.6601   19.1740 C   0  0  0  0  0  0  0  0  0  0  0  0
  -23.5501  -21.5180   19.7304 C   0  0  0  0  0  0  0  0  0  0  0  0
  -24.9387   -8.9661   17.7275 C   0  0  0  0  0  0  0  0  0  0  0  0
  -23.9397  -30.0540   23.2316 C   0  0  0  0  0  0  0  0  0  0  0  0
  -22.2312  -30.9141   20.6117 C   0  0  0  0  0  0  0  0  0  0  0  0
  -21.7955  -30.6880   17.2345 C   0  0  0  0  0  0  0  0  0  0  0  0
  -27.8358  -16.4936   19.7615 C   0  0  0  0  0  0  0  0  0  0  0  0
  -24.5186  -31.7079   28.0261 C   0  0  0  0  0  0  0  0  0  0  0  0
  -25.7600  -30.8661   21.6880 C   0  0  0  0  0  0  0  0  0  0  0  0
  -23.8890  -29.0361   20.3114 C   0  0  0  0  0  0  0  0  0  0  0  0
  -23.4223  -31.7917   26.9672 C   0  0  0  0  0  0  0  0  0  0  0  0
  -30.0081  -13.6727   19.7285 C   0  0  0  0  0  0  0  0  0  0  0  0
  -23.1531  -30.4153   26.3674 C   0  0  0  0  0  0  0  0  0  0  0  0
  -29.0533  -12.4811   19.6259 C   0  0  0  0  0  0  0  0  0  0  0  0
  -29.4335  -14.7862   20.6024 C   0  0  0  0  0  0  0  0  0  0  0  0
  -27.1328  -14.0462   20.1247 C   0  0  0  0  0  0  0  0  0  0  0  0
  -24.4021  -29.8640   25.6690 C   0  0  1  0  0  0  0  0  0  0  0  0
  -24.2676  -30.8563   22.0043 C   0  0  1  0  0  0  0  0  0  0  0  0
  -27.6400  -12.9262   19.2017 C   0  0  2  0  0  0  0  0  0  0  0  0
  -22.3713  -19.1867   18.4417 C   0  0  0  0  0  0  0  0  0  0  0  0
  -20.2904  -31.4715   15.3856 C   0  0  0  0  0  0  0  0  0  0  0  0
  -20.1116  -28.9016   21.4876 C   0  0  0  0  0  0  0  0  0  0  0  0
  -19.1382  -29.0297   19.1845 C   0  0  0  0  0  0  0  0  0  0  0  0
  -19.2021  -31.0655   20.6246 C   0  0  0  0  0  0  0  0  0  0  0  0
  -24.0147  -32.0857   15.8633 C   0  0  0  0  0  0  0  0  0  0  0  0
  -28.7259  -23.9146   19.8189 C   0  0  0  0  0  0  0  0  0  0  0  0
  -27.4554  -23.3088   20.4052 C   0  0  0  0  0  0  0  0  0  0  0  0
  -28.7770  -25.4224   20.0270 C   0  0  0  0  0  0  0  0  0  1  0  0
  -27.3831  -21.8083   20.1600 C   0  0  0  0  0  0  0  0  0  0  0  0
  -21.3513  -30.1876   19.6233 C   0  0  1  0  0  0  0  0  0  0  0  0
  -21.5594  -31.7502   16.1759 C   0  0  2  0  0  0  0  0  0  0  0  0
  -19.9780  -29.7888   20.2338 C   0  0  0  0  0  0  0  0  0  0  0  0
  -25.9460  -11.4606   20.2329 N   0  0  0  0  0  0  0  0  0  0  0  0
  -26.6757  -11.7562   19.1438 N   0  0  0  0  0  0  0  0  0  0  0  0
  -23.4615  -30.3114   20.9099 N   0  0  0  0  0  0  0  0  0  0  0  0
  -28.0953  -15.1589   20.1387 N   0  0  0  0  0  0  0  0  0  0  0  0
  -27.0920  -11.0867   16.9102 N   0  0  0  0  0  0  0  0  0  0  0  0
  -23.9764   -8.1363   18.3188 N   0  0  0  0  0  0  0  0  0  0  0  0
  -26.5376  -16.7221   19.3065 N   0  0  0  0  0  0  0  0  0  0  0  0
  -24.5772  -30.4917   24.3768 N   0  0  0  0  0  0  0  0  0  0  0  0
  -21.2560  -31.0502   18.4506 N   0  0  0  0  0  0  0  0  0  0  0  0
  -22.7052  -31.7965   15.2241 N   0  3  0  0  0  0  0  0  0  0  0  0
  -25.2961   -8.7461   16.5453 O   0  0  0  0  0  0  0  0  0  0  0  0
  -23.1644  -29.1088   23.1462 O   0  0  0  0  0  0  0  0  0  0  0  0
  -21.8444  -31.9807   21.0957 O   0  0  0  0  0  0  0  0  0  0  0  0
  -22.3949  -29.6400   17.0045 O   0  0  0  0  0  0  0  0  0  0  0  0
  -28.7093  -17.3634   19.8110 O   0  0  0  0  0  0  0  0  0  0  0  0
  -21.6252   -7.9883   23.3671 O   0  0  0  0  0  0  0  0  0  0  0  0
  -27.6463  -26.0352   19.4086 O   0  0  0  0  0  0  0  0  0  1  0  0
  -26.1884  -21.3046   20.7412 O   0  0  0  0  0  0  0  0  0  0  0  0
  -21.6065   -2.4810   23.6388 F   0  0  0  0  0  0  0  0  0  0  0  0
  -22.1713   -6.6835   25.7425 F   0  0  0  0  0  0  0  0  0  0  0  0
  1  2  1  0  0  0  0
  1  5  2  0  0  0  0
  2  6  2  0  0  0  0
  3  8  2  0  0  0  0
  3 17  1  0  0  0  0
  4  9  1  0  0  0  0
  4 17  2  0  0  0  0
  5 20  1  0  0  0  0
  6 22  1  0  0  0  0
  7 10  2  0  0  0  0
  7 21  1  0  0  0  0
  8 26  1  0  0  0  0
  9 26  2  0  0  0  0
 10 27  1  0  0  0  0
 11 12  2  0  0  0  0
 11 28  1  0  0  0  0
 12 30  1  0  0  0  0
 13 23  1  0  0  0  0
 13 27  2  0  0  0  0
 14 24  2  0  0  0  0
 14 25  1  0  0  0  0
 15 25  2  0  0  0  0
 15 29  1  0  0  0  0
 16 30  2  0  0  0  0
 16 31  1  0  0  0  0
 17 32  1  0  0  0  0
 18 24  1  0  0  0  0
 18 29  2  0  0  0  0
 18 35  1  0  0  0  0
 19 32  1  0  0  0  0
 19 33  2  0  0  0  0
 19 36  1  0  0  0  0
 20 22  2  0  0  0  0
 20 41  1  0  0  0  0
 21 23  2  0  0  0  0
 21 42  1  0  0  0  0
 22 50  1  0  0  0  0
 23 43  1  0  0  0  0
 24 53  1  0  0  0  0
 25 72  1  0  0  0  0
 26 81  1  0  0  0  0
 27 82  1  0  0  0  0
 28 31  2  0  0  0  0
 28 81  1  0  0  0  0
 29 83  1  0  0  0  0
 30 84  1  0  0  0  0
 31 85  1  0  0  0  0
 32 66  2  0  0  0  0
 33 67  1  0  0  0  0
 33 70  1  0  0  0  0
 34 35  2  0  0  0  0
 36 71  1  0  0  0  0
 36 76  2  0  0  0  0
 37 51  1  0  0  0  0
 37 73  1  0  0  0  0
 37 77  2  0  0  0  0
 38 63  1  0  0  0  0
 38 68  1  0  0  0  0
 38 78  2  0  0  0  0
 39 64  1  0  0  0  0
 39 74  1  0  0  0  0
 39 79  2  0  0  0  0
 40 69  1  0  0  0  0
 40 72  1  0  0  0  0
 40 80  2  0  0  0  0
 41 44  1  0  0  0  0
 42 51  1  0  0  0  0
 43 68  1  0  0  0  0
 44 46  1  0  0  0  0
 45 47  1  0  0  0  0
 45 48  1  0  0  0  0
 46 50  1  0  0  0  0
 47 52  1  0  0  0  0
 48 69  1  0  0  0  0
 49 52  1  0  0  0  0
 49 69  1  0  0  0  0
 50 73  1  0  0  0  0
 51 68  1  0  0  0  0
 52 67  1  0  0  0  0
 54 64  1  0  0  0  0
 55 65  1  0  0  0  0
 56 65  1  0  0  0  0
 57 65  1  0  0  0  0
 58 75  1  0  0  0  0
 59 60  1  0  0  0  0
 59 61  1  0  0  0  0
 60 62  1  0  0  0  0
 61 82  1  0  0  0  0
 62 83  1  0  0  0  0
 63 65  1  0  0  0  0
 63 74  1  0  0  0  0
 64 75  1  0  0  0  0
 66 67  1  0  0  0  0
M  CHG  1  75   1
M  ISO  4  40 100  61 101  72 100  82 101
M  END
> <Batch ID>
0116

> <Smiles>
C=Cc1c(C)cc([100NH:0][100C:0](=O)N2CCCC(n3nc(-c4ccc(Oc5ccc(F)cc5F)cc4)c(C(N)=O)c3N)C2)cc1OCCC[101CH2:1][101O:1]c1ccc2c(c1)CN(C(=O)C(NC(=O)C(C)NC)C(C)(C)C)C(C(=O)NC1CCCc3ccccc31)C2

> <Shape>
0.255

> <Color>
0.108

> <Negative vol penalty>
0.000

$$$$

  -OEChem-04052301433D

 90 99  0     1  0  0  0  0  0999 V2000
  -17.8542  -10.9994   20.8458 C   0  0  0  0  0  0  0  0  0  0  0  0
  -18.1079  -12.3450   21.0915 C   0  0  0  0  0  0  0  0  0  0  0  0
  -23.1239  -30.8187   21.4915 C   0  0  0  0  0  0  0  0  0  0  0  0
  -22.8508  -28.6696   22.5609 C   0  0  0  0  0  0  0  0  0  0  0  0
  -18.7753  -10.0329   21.2473 C   0  0  0  0  0  0  0  0  0  0  0  0
  -19.2825  -12.7248   21.7399 C   0  0  0  0  0  0  0  0  0  0  0  0
  -24.8806  -17.6721   19.4567 C   0  0  0  0  0  0  0  0  0  0  0  0
  -21.7542  -30.8633   21.2313 C   0  0  0  0  0  0  0  0  0  0  0  0
  -21.4812  -28.7142   22.3007 C   0  0  0  0  0  0  0  0  0  0  0  0
  -26.0112  -18.4035   19.0922 C   0  0  0  0  0  0  0  0  0  0  0  0
  -18.7471  -30.2118   23.6055 C   0  0  0  0  0  0  0  0  0  0  0  0
  -17.8808  -29.8542   24.6386 C   0  0  0  0  0  0  0  0  0  0  0  0
  -30.6825  -22.9992   20.6577 C   0  0  0  0  0  0  0  0  0  0  0  0
  -30.2638  -20.9744   21.9074 C   0  0  0  0  0  0  0  0  0  0  0  0
  -27.3800  -17.0266   20.5340 C   0  0  0  0  0  0  0  0  0  0  0  0
  -28.7912  -22.8736   22.1558 C   0  0  0  0  0  0  0  0  0  0  0  0
  -16.9905  -28.0700   23.2744 C   0  0  0  0  0  0  0  0  0  0  0  0
  -23.6722  -29.7219   22.1562 C   0  0  0  0  0  0  0  0  0  0  0  0
  -31.0338  -21.6912   20.9915 C   0  0  0  0  0  0  0  0  0  0  0  0
  -25.7519  -30.1589   23.5674 C   0  0  0  0  0  0  0  0  0  0  0  0
  -19.9664  -10.4017   21.8923 C   0  0  0  0  0  0  0  0  0  0  0  0
  -24.9981  -16.6040   20.3505 C   0  0  0  0  0  0  0  0  0  0  0  0
  -20.2199  -11.7622   22.1516 C   0  0  0  0  0  0  0  0  0  0  0  0
  -26.2531  -16.2824   20.8932 C   0  0  0  0  0  0  0  0  0  0  0  0
  -29.5612  -23.5904   21.2399 C   0  0  0  0  0  0  0  0  0  0  0  0
  -20.9329  -29.8110   21.6359 C   0  0  0  0  0  0  0  0  0  0  0  0
  -27.2577  -18.0817   19.6297 C   0  0  0  0  0  0  0  0  0  0  0  0
  -18.7351  -29.4985   22.4069 C   0  0  0  0  0  0  0  0  0  0  0  0
  -29.1425  -21.5655   22.4895 C   0  0  0  0  0  0  0  0  0  0  0  0
  -17.0025  -28.7833   24.4731 C   0  0  0  0  0  0  0  0  0  0  0  0
  -17.8568  -28.4276   22.2413 C   0  0  0  0  0  0  0  0  0  0  0  0
  -25.0870  -29.6750   22.4247 C   0  0  0  0  0  0  0  0  0  0  0  0
  -27.0765  -29.8762   23.3393 C   0  0  0  0  0  0  0  0  0  0  0  0
  -30.5182  -18.7312   18.2658 C   0  0  0  0  0  0  0  0  0  0  0  0
  -29.3885  -18.1300   18.6651 C   0  0  0  0  0  0  0  0  0  1  0  0
  -32.2131  -21.0681   20.3784 C   0  0  0  0  0  0  0  0  0  0  0  0
  -25.2198  -30.8059   24.7309 C   0  0  0  0  0  0  0  0  0  0  0  0
  -23.2753  -13.8391   22.2115 C   0  0  0  0  0  0  0  0  0  0  0  0
  -25.9567  -12.7173   21.2306 C   0  0  0  0  0  0  0  0  0  0  0  0
  -28.7989  -11.7440   19.6145 C   0  0  0  0  0  0  0  0  0  0  0  0
  -29.8595  -25.7684   20.0096 C   0  0  0  0  0  0  0  0  0  0  0  0
  -20.9098   -9.3177   22.3500 C   0  0  0  0  0  0  0  0  0  0  0  0
  -23.7973  -15.8276   20.8186 C   0  0  0  0  0  0  0  0  0  0  0  0
  -26.3262  -15.1473   21.8776 C   0  0  0  0  0  0  0  0  0  0  0  0
  -31.6459  -17.9802   17.6043 C   0  0  0  0  0  0  0  0  0  0  0  0
  -30.7643  -20.2026   18.4671 C   0  0  0  0  0  0  0  0  0  0  0  0
  -22.3051   -9.8310   22.6966 C   0  0  0  0  0  0  0  0  0  0  0  0
  -32.9666  -18.2497   18.3290 C   0  0  0  0  0  0  0  0  0  0  0  0
  -30.2235  -29.3025   19.7753 C   0  0  0  0  0  0  0  0  0  0  0  0
  -22.2133  -11.0797   23.5679 C   0  0  0  0  0  0  0  0  0  0  0  0
  -29.0114  -29.8431   20.5374 C   0  0  0  0  0  0  0  0  0  0  0  0
  -33.2016  -19.7463   18.5368 C   0  0  0  0  0  0  0  0  0  0  0  0
  -29.8825  -28.0357   18.9927 C   0  0  0  0  0  0  0  0  0  0  0  0
  -28.0427  -27.5089   20.5441 C   0  0  0  0  0  0  0  0  0  0  0  0
  -21.4943  -12.2156   22.8302 C   0  0  1  0  0  0  0  0  0  0  0  0
  -24.0988  -14.3377   21.0605 C   0  0  1  0  0  0  0  0  0  0  0  0
  -28.3534  -28.7480   21.3995 C   0  0  2  0  0  0  0  0  0  0  0  0
  -28.2186  -17.5047   25.0477 C   0  0  0  0  0  0  0  0  0  0  0  0
  -30.2917   -9.7548   19.2799 C   0  0  0  0  0  0  0  0  0  0  0  0
  -27.1244  -13.1294   24.0182 C   0  0  0  0  0  0  0  0  0  0  0  0
  -29.1409  -11.8382   23.2870 C   0  0  0  0  0  0  0  0  0  0  0  0
  -26.9027  -10.7374   23.3228 C   0  0  0  0  0  0  0  0  0  0  0  0
  -28.3103  -11.7225   16.6956 C   0  0  0  0  0  0  0  0  0  0  0  0
  -27.8302  -18.9237   24.6731 C   0  0  0  0  0  0  0  0  0  0  0  0
  -28.8061  -19.5336   23.6786 C   0  0  0  0  0  0  0  0  0  0  0  0
  -27.4092  -12.4584   21.5414 C   0  0  1  0  0  0  0  0  0  0  0  0
  -29.1008  -10.5358   18.7464 C   0  0  2  0  0  0  0  0  0  0  0  0
  -27.6360  -12.0641   23.0281 C   0  0  0  0  0  0  0  0  0  0  0  0
  -25.9205  -29.1266   21.5367 N   0  0  0  0  0  0  0  0  0  0  0  0
  -27.1228  -29.2643   22.1213 N   0  0  0  0  0  0  0  0  0  0  0  0
  -32.0396  -20.3650   19.1827 N   0  0  0  0  0  0  0  0  0  0  0  0
  -25.4940  -14.0260   21.4142 N   0  0  0  0  0  0  0  0  0  0  0  0
  -29.2669  -27.0418   19.8748 N   0  0  0  0  0  0  0  0  0  0  0  0
  -28.1946  -30.0939   24.0638 N   0  0  0  0  0  0  0  0  0  0  0  0
  -23.8363  -31.0185   24.8032 N   0  0  0  0  0  0  0  0  0  0  0  0
  -29.2040  -24.9189   20.9003 N   0  0  0  0  0  0  0  0  0  0  0  0
  -22.3832  -12.8394   21.8736 N   0  0  0  0  0  0  0  0  0  0  0  0
  -27.8595  -11.4559   20.5819 N   0  0  0  0  0  0  0  0  0  0  0  0
  -29.4058  -10.9633   17.3517 N   0  3  0  0  0  0  0  0  0  0  0  0
  -33.2759  -21.2077   20.9817 O   0  0  0  0  0  0  0  0  0  0  0  0
  -25.9513  -31.1991   25.6710 O   0  0  0  0  0  0  0  0  0  0  0  0
  -23.4375  -14.3239   23.3252 O   0  0  0  0  0  0  0  0  0  0  0  0
  -25.2478  -11.7851   20.8411 O   0  0  0  0  0  0  0  0  0  0  0  0
  -29.3447  -12.8333   19.4531 O   0  0  0  0  0  0  0  0  0  0  0  0
  -30.8891  -25.4642   19.4019 O   0  0  0  0  0  0  0  0  0  0  0  0
  -19.5963  -29.8543   21.3825 O   0  0  0  0  0  0  0  0  0  0  0  0
  -28.3581  -18.7971   19.2661 O   0  0  0  0  0  0  0  0  0  1  0  0
  -28.3908  -20.8662   23.3829 O   0  0  0  0  0  0  0  0  0  0  0  0
  -16.1718  -28.4390   25.4658 F   0  0  0  0  0  0  0  0  0  0  0  0
  -17.8415  -27.7379   21.0925 F   0  0  0  0  0  0  0  0  0  0  0  0
  1  2  1  0  0  0  0
  1  5  2  0  0  0  0
  2  6  2  0  0  0  0
  3  8  2  0  0  0  0
  3 18  1  0  0  0  0
  4  9  1  0  0  0  0
  4 18  2  0  0  0  0
  5 21  1  0  0  0  0
  6 23  1  0  0  0  0
  7 10  2  0  0  0  0
  7 22  1  0  0  0  0
  8 26  1  0  0  0  0
  9 26  2  0  0  0  0
 10 27  1  0  0  0  0
 11 12  2  0  0  0  0
 11 28  1  0  0  0  0
 12 30  1  0  0  0  0
 13 19  2  0  0  0  0
 13 25  1  0  0  0  0
 14 19  1  0  0  0  0
 14 29  2  0  0  0  0
 15 24  1  0  0  0  0
 15 27  2  0  0  0  0
 16 25  2  0  0  0  0
 16 29  1  0  0  0  0
 17 30  2  0  0  0  0
 17 31  1  0  0  0  0
 18 32  1  0  0  0  0
 19 36  1  0  0  0  0
 20 32  1  0  0  0  0
 20 33  2  0  0  0  0
 20 37  1  0  0  0  0
 21 23  2  0  0  0  0
 21 42  1  0  0  0  0
 22 24  2  0  0  0  0
 22 43  1  0  0  0  0
 23 55  1  0  0  0  0
 24 44  1  0  0  0  0
 25 76  1  0  0  0  0
 26 86  1  0  0  0  0
 27 87  1  0  0  0  0
 28 31  2  0  0  0  0
 28 86  1  0  0  0  0
 29 88  1  0  0  0  0
 30 89  1  0  0  0  0
 31 90  1  0  0  0  0
 32 69  2  0  0  0  0
 33 70  1  0  0  0  0
 33 74  1  0  0  0  0
 34 35  2  0  0  0  0
 34 45  1  0  0  0  0
 34 46  1  0  0  0  0
 35 87  1  0  0  0  0
 36 71  1  0  0  0  0
 36 80  2  0  0  0  0
 37 75  1  0  0  0  0
 37 81  2  0  0  0  0
 38 56  1  0  0  0  0
 38 77  1  0  0  0  0
 38 82  2  0  0  0  0
 39 66  1  0  0  0  0
 39 72  1  0  0  0  0
 39 83  2  0  0  0  0
 40 67  1  0  0  0  0
 40 78  1  0  0  0  0
 40 84  2  0  0  0  0
 41 73  1  0  0  0  0
 41 76  1  0  0  0  0
 41 85  2  0  0  0  0
 42 47  1  0  0  0  0
 43 56  1  0  0  0  0
 44 72  1  0  0  0  0
 45 48  1  0  0  0  0
 46 71  1  0  0  0  0
 47 50  1  0  0  0  0
 48 52  1  0  0  0  0
 49 51  1  0  0  0  0
 49 53  1  0  0  0  0
 50 55  1  0  0  0  0
 51 57  1  0  0  0  0
 52 71  1  0  0  0  0
 53 73  1  0  0  0  0
 54 57  1  0  0  0  0
 54 73  1  0  0  0  0
 55 77  1  0  0  0  0
 56 72  1  0  0  0  0
 57 70  1  0  0  0  0
 58 64  1  0  0  0  0
 59 67  1  0  0  0  0
 60 68  1  0  0  0  0
 61 68  1  0  0  0  0
 62 68  1  0  0  0  0
 63 79  1  0  0  0  0
 64 65  1  0  0  0  0
 65 88  1  0  0  0  0
 66 68  1  0  0  0  0
 66 78  1  0  0  0  0
 67 79  1  0  0  0  0
 69 70  1  0  0  0  0
M  CHG  1  79   1
M  ISO  4  35 101  41 100  76 100  87 101
M  END
> <Batch ID>
0116

> <Smiles>
CCCOc1cc([100NH:0][100C:0](=O)N2CCCC(n3nc(-c4ccc(Oc5ccc(F)cc5F)cc4)c(C(N)=O)c3N)C2)cc(C(=O)N2CCCC(=[101CH:1][101O:1]c3ccc4c(c3)CN(C(=O)C(NC(=O)C(C)NC)C(C)(C)C)C(C(=O)NC3CCCc5ccccc53)C4)C2)c1

> <Shape>
0.273

> <Color>
0.062

> <Negative vol penalty>
0.000

$$$$

  -OEChem-04052301433D

 85 93  0     1  0  0  0  0  0999 V2000
  -26.5177  -35.2266   15.8488 C   0  0  0  0  0  0  0  0  0  0  0  0
  -26.8474  -33.9019   16.1167 C   0  0  0  0  0  0  0  0  0  0  0  0
  -23.1260   -9.9333   21.5439 C   0  0  0  0  0  0  0  0  0  0  0  0
  -23.8136  -10.9688   23.6156 C   0  0  0  0  0  0  0  0  0  0  0  0
  -26.3228  -36.1216   16.9000 C   0  0  0  0  0  0  0  0  0  0  0  0
  -26.9835  -33.4716   17.4360 C   0  0  0  0  0  0  0  0  0  0  0  0
  -24.7000  -29.0304   18.2764 C   0  0  0  0  0  0  0  0  0  0  0  0
  -22.4107   -8.9742   22.2607 C   0  0  0  0  0  0  0  0  0  0  0  0
  -23.0981  -10.0097   24.3324 C   0  0  0  0  0  0  0  0  0  0  0  0
  -25.3606  -27.8824   17.8414 C   0  0  0  0  0  0  0  0  0  0  0  0
  -23.0757   -6.1396   23.9775 C   0  0  0  0  0  0  0  0  0  0  0  0
  -23.2034   -4.8079   23.5827 C   0  0  0  0  0  0  0  0  0  0  0  0
  -29.1048  -16.5702   18.4798 C   0  0  0  0  0  0  0  0  0  0  0  0
  -27.7433  -18.5072   17.9987 C   0  0  0  0  0  0  0  0  0  0  0  0
  -28.5647  -18.1345   20.2400 C   0  0  0  0  0  0  0  0  0  0  0  0
  -26.1406  -27.4866   20.0896 C   0  0  0  0  0  0  0  0  0  0  0  0
  -20.8270   -4.7055   23.1592 C   0  0  0  0  0  0  0  0  0  0  0  0
  -23.8276  -10.9306   22.2214 C   0  0  0  0  0  0  0  0  0  0  0  0
  -28.3771  -17.3401   17.5723 C   0  0  0  0  0  0  0  0  0  0  0  0
  -29.1985  -16.9674   19.8136 C   0  0  0  0  0  0  0  0  0  0  0  0
  -24.0949  -13.1638   21.0175 C   0  0  0  0  0  0  0  0  0  0  0  0
  -26.4472  -35.6997   18.2331 C   0  0  0  0  0  0  0  0  0  0  0  0
  -24.7637  -29.4218   19.6215 C   0  0  0  0  0  0  0  0  0  0  0  0
  -26.7915  -34.3620   18.5060 C   0  0  0  0  0  0  0  0  0  0  0  0
  -25.4777  -28.6387   20.5397 C   0  0  0  0  0  0  0  0  0  0  0  0
  -22.3967   -9.0123   23.6549 C   0  0  0  0  0  0  0  0  0  0  0  0
  -26.0835  -27.1119   18.7475 C   0  0  0  0  0  0  0  0  0  0  0  0
  -21.8236   -6.7543   23.9632 C   0  0  0  0  0  0  0  0  0  0  0  0
  -27.8371  -18.9044   19.3325 C   0  0  0  0  0  0  0  0  0  0  0  0
  -22.0791   -4.0909   23.1735 C   0  0  0  0  0  0  0  0  0  0  0  0
  -20.6993   -6.0372   23.5540 C   0  0  0  0  0  0  0  0  0  0  0  0
  -24.5672  -11.9214   21.4815 C   0  0  0  0  0  0  0  0  0  0  0  0
  -25.1743  -13.7249   20.3798 C   0  0  0  0  0  0  0  0  0  0  0  0
  -28.2817  -15.6604   15.7877 C   0  0  0  0  0  0  0  0  0  0  0  0
  -28.2796  -16.9266   16.1810 C   0  0  0  0  0  0  0  0  0  0  0  0
  -29.9557  -16.1638   20.7605 C   0  0  0  0  0  0  0  0  0  0  0  0
  -22.7967  -13.7575   21.1510 C   0  0  0  0  0  0  0  0  0  0  0  0
  -30.6391  -14.9186   20.3414 C   0  0  0  0  0  0  0  0  0  0  0  0
  -25.8773  -31.9666   21.1667 C   0  0  0  0  0  0  0  0  0  0  0  0
  -24.5244  -30.5154   23.7330 C   0  0  0  0  0  0  0  0  0  0  0  0
  -23.4405  -27.6257   25.1896 C   0  0  0  0  0  0  0  0  0  0  0  0
  -26.2735  -36.7148   19.3349 C   0  0  0  0  0  0  0  0  0  0  0  0
  -24.0234  -30.6483   20.0800 C   0  0  0  0  0  0  0  0  0  0  0  0
  -25.5605  -29.0045   21.9984 C   0  0  0  0  0  0  0  0  0  0  0  0
  -26.0688  -36.0896   20.7124 C   0  0  0  0  0  0  0  0  0  0  0  0
  -29.6186  -11.7381   19.0376 C   0  0  0  0  0  0  0  0  0  0  0  0
  -27.0866  -34.9788   20.9511 C   0  0  0  0  0  0  0  0  0  0  0  0
  -28.1876  -11.5881   19.5528 C   0  0  0  0  0  0  0  0  0  0  0  0
  -30.4983  -12.4776   20.0404 C   0  0  0  0  0  0  0  0  0  0  0  0
  -28.5275  -13.6693   20.9593 C   0  0  0  0  0  0  0  0  0  0  0  0
  -26.9238  -33.8514   19.9244 C   0  0  1  0  0  0  0  0  0  0  0  0
  -24.5815  -31.2345   21.3731 C   0  0  1  0  0  0  0  0  0  0  0  0
  -27.6021  -12.9515   19.9614 C   0  0  2  0  0  0  0  0  0  0  0  0
  -22.4169  -26.7505   27.3070 C   0  0  0  0  0  0  0  0  0  0  0  0
  -27.2240  -30.7559   25.1346 C   0  0  0  0  0  0  0  0  0  0  0  0
  -26.4301  -29.0659   26.8025 C   0  0  0  0  0  0  0  0  0  0  0  0
  -25.2478  -31.2516   26.5848 C   0  0  0  0  0  0  0  0  0  0  0  0
  -21.0395  -26.6482   23.7618 C   0  0  0  0  0  0  0  0  0  0  0  0
  -26.9265  -23.5943   18.5427 C   0  0  0  0  0  0  0  0  0  0  0  0
  -27.0628  -22.4292   19.5167 C   0  0  0  0  0  0  0  0  0  0  0  0
  -26.8767  -24.9315   19.2699 C   0  0  0  0  0  0  0  0  0  1  0  0
  -27.0694  -21.0898   18.7936 C   0  0  0  0  0  0  0  0  0  0  0  0
  -24.9896  -29.5162   24.7645 C   0  0  1  0  0  0  0  0  0  0  0  0
  -22.1479  -27.2831   25.9082 C   0  0  2  0  0  0  0  0  0  0  0  0
  -25.9731  -30.1413   25.7938 C   0  0  0  0  0  0  0  0  0  0  0  0
  -25.8468  -11.7055   21.1653 N   0  0  0  0  0  0  0  0  0  0  0  0
  -30.0869  -16.4763   22.0214 N   0  0  0  0  0  0  0  0  0  0  0  0
  -26.1878  -12.8197   20.4958 N   0  0  0  0  0  0  0  0  0  0  0  0
  -29.8964  -13.7499   20.4342 N   0  0  0  0  0  0  0  0  0  0  0  0
  -24.8249  -30.2160   22.3966 N   0  0  0  0  0  0  0  0  0  0  0  0
  -25.3457  -14.8994   19.7367 N   0  0  0  0  0  0  0  0  0  0  0  0
  -21.8033  -13.0447   21.8361 N   0  0  0  0  0  0  0  0  0  0  0  0
  -25.7951  -33.0136   20.2686 N   0  0  0  0  0  0  0  0  0  0  0  0
  -23.7830  -28.9506   25.3583 N   0  0  0  0  0  0  0  0  0  0  0  0
  -21.3916  -26.2479   25.1484 N   0  3  0  0  0  0  0  0  0  0  0  0
  -22.5210  -14.8795   20.6627 O   0  0  0  0  0  0  0  0  0  0  0  0
  -31.7930  -15.0544   19.9561 O   0  0  0  0  0  0  0  0  0  0  0  0
  -26.8773  -31.6091   21.7782 O   0  0  0  0  0  0  0  0  0  0  0  0
  -23.9105  -31.5209   24.0989 O   0  0  0  0  0  0  0  0  0  0  0  0
  -24.0840  -26.7996   24.5462 O   0  0  0  0  0  0  0  0  0  0  0  0
  -21.6985   -8.0767   24.3547 O   0  0  0  0  0  0  0  0  0  0  0  0
  -26.7298  -25.9912   18.3254 O   0  0  0  0  0  0  0  0  0  1  0  0
  -27.2134  -20.0507   19.7520 O   0  0  0  0  0  0  0  0  0  0  0  0
  -22.2022   -2.8125   22.7930 F   0  0  0  0  0  0  0  0  0  0  0  0
  -19.4940   -6.6227   23.5370 F   0  0  0  0  0  0  0  0  0  0  0  0
  1  2  1  0  0  0  0
  1  5  2  0  0  0  0
  2  6  2  0  0  0  0
  3  8  2  0  0  0  0
  3 18  1  0  0  0  0
  4  9  1  0  0  0  0
  4 18  2  0  0  0  0
  5 22  1  0  0  0  0
  6 24  1  0  0  0  0
  7 10  2  0  0  0  0
  7 23  1  0  0  0  0
  8 26  1  0  0  0  0
  9 26  2  0  0  0  0
 10 27  1  0  0  0  0
 11 12  2  0  0  0  0
 11 28  1  0  0  0  0
 12 30  1  0  0  0  0
 13 19  2  0  0  0  0
 13 20  1  0  0  0  0
 14 19  1  0  0  0  0
 14 29  2  0  0  0  0
 15 20  2  0  0  0  0
 15 29  1  0  0  0  0
 16 25  1  0  0  0  0
 16 27  2  0  0  0  0
 17 30  2  0  0  0  0
 17 31  1  0  0  0  0
 18 32  1  0  0  0  0
 19 35  1  0  0  0  0
 20 36  1  0  0  0  0
 21 32  1  0  0  0  0
 21 33  2  0  0  0  0
 21 37  1  0  0  0  0
 22 24  2  0  0  0  0
 22 42  1  0  0  0  0
 23 25  2  0  0  0  0
 23 43  1  0  0  0  0
 24 51  1  0  0  0  0
 25 44  1  0  0  0  0
 26 81  1  0  0  0  0
 27 82  1  0  0  0  0
 28 31  2  0  0  0  0
 28 81  1  0  0  0  0
 29 83  1  0  0  0  0
 30 84  1  0  0  0  0
 31 85  1  0  0  0  0
 32 66  2  0  0  0  0
 33 68  1  0  0  0  0
 33 71  1  0  0  0  0
 34 35  2  0  0  0  0
 36 38  1  0  0  0  0
 36 67  2  0  0  0  0
 37 72  1  0  0  0  0
 37 76  2  0  0  0  0
 38 69  1  0  0  0  0
 38 77  2  0  0  0  0
 39 52  1  0  0  0  0
 39 73  1  0  0  0  0
 39 78  2  0  0  0  0
 40 63  1  0  0  0  0
 40 70  1  0  0  0  0
 40 79  2  0  0  0  0
 41 64  1  0  0  0  0
 41 74  1  0  0  0  0
 41 80  2  0  0  0  0
 42 45  1  0  0  0  0
 43 52  1  0  0  0  0
 44 70  1  0  0  0  0
 45 47  1  0  0  0  0
 46 48  1  0  0  0  0
 46 49  1  0  0  0  0
 47 51  1  0  0  0  0
 48 53  1  0  0  0  0
 49 69  1  0  0  0  0
 50 53  1  0  0  0  0
 50 69  1  0  0  0  0
 51 73  1  0  0  0  0
 52 70  1  0  0  0  0
 53 68  1  0  0  0  0
 54 64  1  0  0  0  0
 55 65  1  0  0  0  0
 56 65  1  0  0  0  0
 57 65  1  0  0  0  0
 58 75  1  0  0  0  0
 59 60  1  0  0  0  0
 59 61  1  0  0  0  0
 60 62  1  0  0  0  0
 61 82  1  0  0  0  0
 62 83  1  0  0  0  0
 63 65  1  0  0  0  0
 63 74  1  0  0  0  0
 64 75  1  0  0  0  0
 66 68  1  0  0  0  0
M  CHG  1  75   1
M  ISO  4  36 100  38 100  61 101  82 101
M  END
> <Batch ID>
0116

> <Smiles>
C=Cc1cc(OCCC[101CH2:1][101O:1]c2ccc3c(c2)CN(C(=O)C(NC(=O)C(C)NC)C(C)(C)C)C(C(=O)NC2CCCc4ccccc42)C3)cc([100C:0](=N)[100C:0](=O)N2CCCC(n3nc(-c4ccc(Oc5ccc(F)cc5F)cc4)c(C(N)=O)c3N)C2)c1

> <Shape>
0.295

> <Color>
0.189

> <Negative vol penalty>
0.000

$$$$

  -OEChem-04052301433D

 84 92  0     1  0  0  0  0  0999 V2000
  -28.0355  -30.2899   27.9764 C   0  0  0  0  0  0  0  0  0  0  0  0
  -27.9804  -29.4087   26.9013 C   0  0  0  0  0  0  0  0  0  0  0  0
  -24.7268   -8.7391   21.5716 C   0  0  0  0  0  0  0  0  0  0  0  0
  -22.9816  -10.2256   20.8089 C   0  0  0  0  0  0  0  0  0  0  0  0
  -23.7838  -19.1692   19.0274 C   0  0  0  0  0  0  0  0  0  0  0  0
  -26.9116  -31.0404   28.3194 C   0  0  0  0  0  0  0  0  0  0  0  0
  -26.8009  -29.2766   26.1693 C   0  0  0  0  0  0  0  0  0  0  0  0
  -27.6100  -29.2470   21.1703 C   0  0  0  0  0  0  0  0  0  0  0  0
  -24.5162  -17.9870   18.9207 C   0  0  0  0  0  0  0  0  0  0  0  0
  -23.8286   -8.1364   22.4523 C   0  0  0  0  0  0  0  0  0  0  0  0
  -22.0834   -9.6229   21.6895 C   0  0  0  0  0  0  0  0  0  0  0  0
  -28.0828  -28.0617   20.6089 C   0  0  0  0  0  0  0  0  0  0  0  0
  -21.3356   -5.8575   22.2955 C   0  0  0  0  0  0  0  0  0  0  0  0
  -21.3274   -4.4642   22.3604 C   0  0  0  0  0  0  0  0  0  0  0  0
  -25.8479  -27.5241   19.8771 C   0  0  0  0  0  0  0  0  0  0  0  0
  -26.3780  -19.0389   20.0452 C   0  0  0  0  0  0  0  0  0  0  0  0
  -21.8938   -4.5701   24.7067 C   0  0  0  0  0  0  0  0  0  0  0  0
  -24.3033   -9.7837   20.7499 C   0  0  0  0  0  0  0  0  0  0  0  0
  -24.3485  -20.2864   19.6429 C   0  0  0  0  0  0  0  0  0  0  0  0
  -25.4957  -10.0349   18.5087 C   0  0  0  0  0  0  0  0  0  0  0  0
  -25.7208  -30.9246   27.5852 C   0  0  0  0  0  0  0  0  0  0  0  0
  -26.2485  -29.5751   21.0988 C   0  0  0  0  0  0  0  0  0  0  0  0
  -25.6597  -30.0252   26.5036 C   0  0  0  0  0  0  0  0  0  0  0  0
  -25.3609  -28.7154   20.4362 C   0  0  0  0  0  0  0  0  0  0  0  0
  -25.8133  -17.9218   19.4296 C   0  0  0  0  0  0  0  0  0  0  0  0
  -22.5069   -8.5783   22.5113 C   0  0  0  0  0  0  0  0  0  0  0  0
  -27.2012  -27.1986   19.9646 C   0  0  0  0  0  0  0  0  0  0  0  0
  -21.6230   -6.6072   23.4362 C   0  0  0  0  0  0  0  0  0  0  0  0
  -25.6455  -20.2212   20.1518 C   0  0  0  0  0  0  0  0  0  0  0  0
  -21.6064   -3.8205   23.5660 C   0  0  0  0  0  0  0  0  0  0  0  0
  -21.9021   -5.9635   24.6418 C   0  0  0  0  0  0  0  0  0  0  0  0
  -25.2309  -10.4070   19.8404 C   0  0  0  0  0  0  0  0  0  0  0  0
  -26.4446  -10.9323   18.0837 C   0  0  0  0  0  0  0  0  0  0  0  0
  -23.5666  -21.5106   19.7437 C   0  0  0  0  0  0  0  0  0  0  0  0
  -24.9340   -8.9731   17.7259 C   0  0  0  0  0  0  0  0  0  0  0  0
  -23.9419  -30.0556   23.2324 C   0  0  0  0  0  0  0  0  0  0  0  0
  -22.2295  -30.9045   20.6114 C   0  0  0  0  0  0  0  0  0  0  0  0
  -21.7930  -30.6697   17.2348 C   0  0  0  0  0  0  0  0  0  0  0  0
  -27.8559  -16.4877   19.7722 C   0  0  0  0  0  0  0  0  0  0  0  0
  -24.5176  -31.7217   28.0230 C   0  0  0  0  0  0  0  0  0  0  0  0
  -25.7589  -30.8703   21.6862 C   0  0  0  0  0  0  0  0  0  0  0  0
  -23.8933  -29.0312   20.3144 C   0  0  0  0  0  0  0  0  0  0  0  0
  -23.4205  -31.7996   26.9644 C   0  0  0  0  0  0  0  0  0  0  0  0
  -30.0204  -13.6610   19.7275 C   0  0  0  0  0  0  0  0  0  0  0  0
  -23.1556  -30.4210   26.3677 C   0  0  0  0  0  0  0  0  0  0  0  0
  -29.0622  -12.4722   19.6240 C   0  0  0  0  0  0  0  0  0  0  0  0
  -29.4508  -14.7739   20.6054 C   0  0  0  0  0  0  0  0  0  0  0  0
  -27.1470  -14.0413   20.1309 C   0  0  0  0  0  0  0  0  0  0  0  0
  -24.4060  -29.8723   25.6699 C   0  0  1  0  0  0  0  0  0  0  0  0
  -24.2667  -30.8564   22.0031 C   0  0  1  0  0  0  0  0  0  0  0  0
  -27.6492  -12.9222   19.2040 C   0  0  2  0  0  0  0  0  0  0  0  0
  -20.2845  -31.4443   15.3850 C   0  0  0  0  0  0  0  0  0  0  0  0
  -20.1168  -28.8870   21.4926 C   0  0  0  0  0  0  0  0  0  0  0  0
  -19.1420  -29.0069   19.1896 C   0  0  0  0  0  0  0  0  0  0  0  0
  -19.1999  -31.0461   20.6253 C   0  0  0  0  0  0  0  0  0  0  0  0
  -24.0071  -32.0717   15.8597 C   0  0  0  0  0  0  0  0  0  0  0  0
  -28.7466  -23.9245   19.8307 C   0  0  0  0  0  0  0  0  0  0  0  0
  -27.4784  -23.3158   20.4188 C   0  0  0  0  0  0  0  0  0  0  0  0
  -28.7929  -25.4329   20.0355 C   0  0  0  0  0  0  0  0  0  1  0  0
  -27.4108  -21.8146   20.1769 C   0  0  0  0  0  0  0  0  0  0  0  0
  -21.3515  -30.1730   19.6250 C   0  0  1  0  0  0  0  0  0  0  0  0
  -21.5530  -31.7288   16.1741 C   0  0  2  0  0  0  0  0  0  0  0  0
  -19.9798  -29.7711   20.2369 C   0  0  0  0  0  0  0  0  0  0  0  0
  -25.9534  -11.4587   20.2353 N   0  0  0  0  0  0  0  0  0  0  0  0
  -26.6816  -11.7550   19.1453 N   0  0  0  0  0  0  0  0  0  0  0  0
  -23.4619  -30.3065   20.9104 N   0  0  0  0  0  0  0  0  0  0  0  0
  -28.1126  -15.1514   20.1455 N   0  0  0  0  0  0  0  0  0  0  0  0
  -27.0912  -11.0899   16.9092 N   0  0  0  0  0  0  0  0  0  0  0  0
  -23.9707   -8.1445   18.3173 N   0  0  0  0  0  0  0  0  0  0  0  0
  -26.5574  -16.7208   19.3206 N   0  0  0  0  0  0  0  0  0  0  0  0
  -24.5785  -30.4978   24.3763 N   0  0  0  0  0  0  0  0  0  0  0  0
  -21.2529  -31.0327   18.4505 N   0  0  0  0  0  0  0  0  0  0  0  0
  -22.6982  -31.7768   15.2217 N   0  3  0  0  0  0  0  0  0  0  0  0
  -22.4177  -21.6121   19.3075 O   0  0  0  0  0  0  0  0  0  0  0  0
  -25.2881   -8.7551   16.5425 O   0  0  0  0  0  0  0  0  0  0  0  0
  -23.1697  -29.1077   23.1494 O   0  0  0  0  0  0  0  0  0  0  0  0
  -21.8394  -31.9709   21.0933 O   0  0  0  0  0  0  0  0  0  0  0  0
  -22.3957  -29.6232   17.0068 O   0  0  0  0  0  0  0  0  0  0  0  0
  -28.7318  -17.3550   19.8219 O   0  0  0  0  0  0  0  0  0  0  0  0
  -21.6300   -7.9904   23.3704 O   0  0  0  0  0  0  0  0  0  0  0  0
  -27.6599  -26.0407   19.4163 O   0  0  0  0  0  0  0  0  0  1  0  0
  -26.2180  -21.3082   20.7598 O   0  0  0  0  0  0  0  0  0  0  0  0
  -21.5969   -2.4825   23.6285 F   0  0  0  0  0  0  0  0  0  0  0  0
  -22.1777   -6.6783   25.7413 F   0  0  0  0  0  0  0  0  0  0  0  0
  1  2  1  0  0  0  0
  1  6  2  0  0  0  0
  2  7  2  0  0  0  0
  3 10  2  0  0  0  0
  3 18  1  0  0  0  0
  4 11  1  0  0  0  0
  4 18  2  0  0  0  0
  5  9  2  0  0  0  0
  5 19  1  0  0  0  0
  6 21  1  0  0  0  0
  7 23  1  0  0  0  0
  8 12  2  0  0  0  0
  8 22  1  0  0  0  0
  9 25  1  0  0  0  0
 10 26  1  0  0  0  0
 11 26  2  0  0  0  0
 12 27  1  0  0  0  0
 13 14  2  0  0  0  0
 13 28  1  0  0  0  0
 14 30  1  0  0  0  0
 15 24  1  0  0  0  0
 15 27  2  0  0  0  0
 16 25  2  0  0  0  0
 16 29  1  0  0  0  0
 17 30  2  0  0  0  0
 17 31  1  0  0  0  0
 18 32  1  0  0  0  0
 19 29  2  0  0  0  0
 19 34  1  0  0  0  0
 20 32  1  0  0  0  0
 20 33  2  0  0  0  0
 20 35  1  0  0  0  0
 21 23  2  0  0  0  0
 21 40  1  0  0  0  0
 22 24  2  0  0  0  0
 22 41  1  0  0  0  0
 23 49  1  0  0  0  0
 24 42  1  0  0  0  0
 25 70  1  0  0  0  0
 26 80  1  0  0  0  0
 27 81  1  0  0  0  0
 28 31  2  0  0  0  0
 28 80  1  0  0  0  0
 29 82  1  0  0  0  0
 30 83  1  0  0  0  0
 31 84  1  0  0  0  0
 32 64  2  0  0  0  0
 33 65  1  0  0  0  0
 33 68  1  0  0  0  0
 34 74  2  0  0  0  0
 35 69  1  0  0  0  0
 35 75  2  0  0  0  0
 36 50  1  0  0  0  0
 36 71  1  0  0  0  0
 36 76  2  0  0  0  0
 37 61  1  0  0  0  0
 37 66  1  0  0  0  0
 37 77  2  0  0  0  0
 38 62  1  0  0  0  0
 38 72  1  0  0  0  0
 38 78  2  0  0  0  0
 39 67  1  0  0  0  0
 39 70  1  0  0  0  0
 39 79  2  0  0  0  0
 40 43  1  0  0  0  0
 41 50  1  0  0  0  0
 42 66  1  0  0  0  0
 43 45  1  0  0  0  0
 44 46  1  0  0  0  0
 44 47  1  0  0  0  0
 45 49  1  0  0  0  0
 46 51  1  0  0  0  0
 47 67  1  0  0  0  0
 48 51  1  0  0  0  0
 48 67  1  0  0  0  0
 49 71  1  0  0  0  0
 50 66  1  0  0  0  0
 51 65  1  0  0  0  0
 52 62  1  0  0  0  0
 53 63  1  0  0  0  0
 54 63  1  0  0  0  0
 55 63  1  0  0  0  0
 56 73  1  0  0  0  0
 57 58  1  0  0  0  0
 57 59  1  0  0  0  0
 58 60  1  0  0  0  0
 59 81  1  0  0  0  0
 60 82  1  0  0  0  0
 61 63  1  0  0  0  0
 61 72  1  0  0  0  0
 62 73  1  0  0  0  0
 64 65  1  0  0  0  0
M  CHG  1  73   1
M  ISO  4  39 100  59 101  70 100  81 101
M  END
> <Batch ID>
0116

> <Smiles>
CNC(C)C(=O)NC(C(=O)N1Cc2cc([101O:1][101CH2:1]CCCOc3cc([100NH:0][100C:0](=O)N4CCCC(n5nc(-c6ccc(Oc7ccc(F)cc7F)cc6)c(C(N)=O)c5N)C4)ccc3C=O)ccc2CC1C(=O)NC1CCCc2ccccc21)C(C)(C)C

> <Shape>
0.257

> <Color>
0.109

> <Negative vol penalty>
0.000

$$$$

  -OEChem-04052301433D

 82 90  0     1  0  0  0  0  0999 V2000
  -28.9481  -37.0081   21.4472 C   0  0  0  0  0  0  0  0  0  0  0  0
  -28.9585  -35.9586   20.5340 C   0  0  0  0  0  0  0  0  0  0  0  0
  -24.2237   -9.6019   22.1858 C   0  0  0  0  0  0  0  0  0  0  0  0
  -24.3650   -8.9011   19.8780 C   0  0  0  0  0  0  0  0  0  0  0  0
  -28.6998  -36.7549   22.7956 C   0  0  0  0  0  0  0  0  0  0  0  0
  -28.7217  -34.6551   20.9690 C   0  0  0  0  0  0  0  0  0  0  0  0
  -25.7810  -28.4935   18.8002 C   0  0  0  0  0  0  0  0  0  0  0  0
  -23.1113   -8.7802   22.3673 C   0  0  0  0  0  0  0  0  0  0  0  0
  -23.2527   -8.0793   20.0595 C   0  0  0  0  0  0  0  0  0  0  0  0
  -26.0846  -27.1378   18.6826 C   0  0  0  0  0  0  0  0  0  0  0  0
  -22.4973   -5.4917   22.8593 C   0  0  0  0  0  0  0  0  0  0  0  0
  -22.4546   -4.7030   24.0089 C   0  0  0  0  0  0  0  0  0  0  0  0
  -25.5888  -26.8299   21.0232 C   0  0  0  0  0  0  0  0  0  0  0  0
  -31.3842  -21.9991   19.9878 C   0  0  0  0  0  0  0  0  0  0  0  0
  -20.4115   -5.8004   24.6860 C   0  0  0  0  0  0  0  0  0  0  0  0
  -24.8505   -9.6624   20.9412 C   0  0  0  0  0  0  0  0  0  0  0  0
  -27.3512  -10.1665   20.9404 C   0  0  0  0  0  0  0  0  0  0  0  0
  -28.4503  -35.4489   23.2458 C   0  0  0  0  0  0  0  0  0  0  0  0
  -25.3890  -29.0305   20.0349 C   0  0  0  0  0  0  0  0  0  0  0  0
  -28.4712  -34.3840   22.3249 C   0  0  0  0  0  0  0  0  0  0  0  0
  -25.2784  -28.1921   21.1533 C   0  0  0  0  0  0  0  0  0  0  0  0
  -31.6057  -20.6668   20.4111 C   0  0  0  0  0  0  0  0  0  0  0  0
  -22.6258   -8.0188   21.3041 C   0  0  0  0  0  0  0  0  0  0  0  0
  -25.9913  -26.3063   19.7948 C   0  0  0  0  0  0  0  0  0  0  0  0
  -21.4971   -6.4349   22.6230 C   0  0  0  0  0  0  0  0  0  0  0  0
  -21.4117   -4.8573   24.9222 C   0  0  0  0  0  0  0  0  0  0  0  0
  -20.4542   -6.5892   23.5364 C   0  0  0  0  0  0  0  0  0  0  0  0
  -25.9993  -10.5115   20.7530 C   0  0  0  0  0  0  0  0  0  0  0  0
  -30.0271  -22.1194   19.7993 C   0  0  0  0  0  0  0  0  0  0  0  0
  -30.3680  -20.0680   20.4513 C   0  0  0  0  0  0  0  0  0  0  0  0
  -28.0437  -11.3124   20.6339 C   0  0  0  0  0  0  0  0  0  0  0  0
  -29.2896  -23.3153   19.3586 C   0  0  0  0  0  0  0  0  0  0  0  0
  -30.0616  -18.7353   20.8156 C   0  0  0  0  0  0  0  0  0  0  0  0
  -28.8189  -18.1510   20.8284 C   0  0  0  0  0  0  0  0  0  0  0  0
  -27.9628  -23.3798   19.1670 C   0  0  0  0  0  0  0  0  0  0  0  0
  -27.9294   -8.9215   21.3544 C   0  0  0  0  0  0  0  0  0  0  0  0
  -28.6625  -16.7375   21.2263 C   0  0  0  0  0  0  0  0  0  0  0  0
  -26.5697  -31.2326   21.9996 C   0  0  0  0  0  0  0  0  0  0  0  0
  -23.7970  -30.7263   23.6053 C   0  0  0  0  0  0  0  0  0  0  0  0
  -21.1953  -28.6314   24.3050 C   0  0  0  0  0  0  0  0  0  0  0  0
  -28.2338  -35.2183   24.7204 C   0  0  0  0  0  0  0  0  0  0  0  0
  -25.0392  -30.4897   20.1391 C   0  0  0  0  0  0  0  0  0  0  0  0
  -24.8425  -28.7155   22.4967 C   0  0  0  0  0  0  0  0  0  0  0  0
  -27.6214  -33.8571   25.0406 C   0  0  0  0  0  0  0  0  0  0  0  0
  -26.5332  -15.6075   18.4656 C   0  0  0  0  0  0  0  0  0  0  0  0
  -28.3374  -32.7544   24.2671 C   0  0  0  0  0  0  0  0  0  0  0  0
  -26.2798  -14.1563   18.8652 C   0  0  0  0  0  0  0  0  0  0  0  0
  -26.6406  -16.5252   19.6825 C   0  0  0  0  0  0  0  0  0  0  0  0
  -27.4019  -14.6252   21.0792 C   0  0  0  0  0  0  0  0  0  0  0  0
  -28.1942  -32.9596   22.7542 C   0  0  1  0  0  0  0  0  0  0  0  0
  -25.1467  -31.0297   21.5618 C   0  0  1  0  0  0  0  0  0  0  0  0
  -27.3372  -13.6764   19.8721 C   0  0  1  0  0  0  0  0  0  0  0  0
  -33.1468  -19.9333   22.2478 C   0  0  0  0  0  0  0  0  0  0  0  0
  -19.1033  -28.4806   25.6828 C   0  0  0  0  0  0  0  0  0  0  0  0
  -25.4795  -30.2242   26.1006 C   0  0  0  0  0  0  0  0  0  0  0  0
  -23.4691  -29.1731   27.1598 C   0  0  0  0  0  0  0  0  0  0  0  0
  -23.4118  -31.5756   26.4912 C   0  0  0  0  0  0  0  0  0  0  0  0
  -19.4939  -28.3433   21.9006 C   0  0  0  0  0  0  0  0  0  0  0  0
  -32.9114  -20.0615   20.7390 C   0  0  0  0  0  0  0  0  0  0  0  0
  -27.2593  -24.6153   18.7046 C   0  0  0  0  0  0  0  0  0  1  0  0
  -23.3528  -29.7896   24.7027 C   0  0  1  0  0  0  0  0  0  0  0  0
  -19.6954  -28.8634   24.3353 C   0  0  2  0  0  0  0  0  0  0  0  0
  -23.9384  -30.1808   26.0888 C   0  0  0  0  0  0  0  0  0  0  0  0
  -25.8402  -11.7775   20.3583 N   0  0  0  0  0  0  0  0  0  0  0  0
  -27.1011  -12.2382   20.2952 N   0  0  0  0  0  0  0  0  0  0  0  0
  -27.6156  -16.0142   20.6577 N   0  0  0  0  0  0  0  0  0  0  0  0
  -24.5174  -30.1504   22.5492 N   0  0  0  0  0  0  0  0  0  0  0  0
  -29.3607  -11.6084   20.6240 N   0  0  0  0  0  0  0  0  0  0  0  0
  -27.0737   -7.8461   21.6293 N   0  0  0  0  0  0  0  0  0  0  0  0
  -26.8816  -32.5426   22.3096 N   0  0  0  0  0  0  0  0  0  0  0  0
  -21.8949  -29.7670   24.6548 N   0  0  0  0  0  0  0  0  0  0  0  0
  -19.0245  -28.0529   23.2799 N   0  3  0  0  0  0  0  0  0  0  0  0
  -29.1672   -8.7721   21.4927 O   0  0  0  0  0  0  0  0  0  0  0  0
  -29.4667  -16.2842   22.0427 O   0  0  0  0  0  0  0  0  0  0  0  0
  -27.3281  -30.2716   22.0537 O   0  0  0  0  0  0  0  0  0  0  0  0
  -23.5090  -31.9235   23.6786 O   0  0  0  0  0  0  0  0  0  0  0  0
  -21.6961  -27.5499   24.0049 O   0  0  0  0  0  0  0  0  0  0  0  0
  -29.4003  -20.9468   20.0799 O   0  0  0  0  0  0  0  0  0  0  0  0
  -21.5405   -7.2167   21.4808 O   0  0  0  0  0  0  0  0  0  0  0  0
  -26.2876  -24.9829   19.6829 O   0  0  0  0  0  0  0  0  0  1  0  0
  -21.3701   -4.0987   26.0254 F   0  0  0  0  0  0  0  0  0  0  0  0
  -19.4899   -7.4928   23.3143 F   0  0  0  0  0  0  0  0  0  0  0  0
  1  2  1  0  0  0  0
  1  5  2  0  0  0  0
  2  6  2  0  0  0  0
  3  8  2  0  0  0  0
  3 16  1  0  0  0  0
  4  9  1  0  0  0  0
  4 16  2  0  0  0  0
  5 18  1  0  0  0  0
  6 20  1  0  0  0  0
  7 10  2  0  0  0  0
  7 19  1  0  0  0  0
  8 23  1  0  0  0  0
  9 23  2  0  0  0  0
 10 24  1  0  0  0  0
 11 12  2  0  0  0  0
 11 25  1  0  0  0  0
 12 26  1  0  0  0  0
 13 21  1  0  0  0  0
 13 24  2  0  0  0  0
 14 22  1  0  0  0  0
 14 29  2  0  0  0  0
 15 26  2  0  0  0  0
 15 27  1  0  0  0  0
 16 28  1  0  0  0  0
 17 28  1  0  0  0  0
 17 31  2  0  0  0  0
 17 36  1  0  0  0  0
 18 20  2  0  0  0  0
 18 41  1  0  0  0  0
 19 21  2  0  0  0  0
 19 42  1  0  0  0  0
 20 50  1  0  0  0  0
 21 43  1  0  0  0  0
 22 30  2  0  0  0  0
 22 59  1  0  0  0  0
 23 79  1  0  0  0  0
 24 80  1  0  0  0  0
 25 27  2  0  0  0  0
 25 79  1  0  0  0  0
 26 81  1  0  0  0  0
 27 82  1  0  0  0  0
 28 64  2  0  0  0  0
 29 32  1  0  0  0  0
 29 78  1  0  0  0  0
 30 33  1  0  0  0  0
 30 78  1  0  0  0  0
 31 65  1  0  0  0  0
 31 68  1  0  0  0  0
 32 35  2  0  0  0  0
 33 34  2  0  0  0  0
 34 37  1  0  0  0  0
 35 60  1  0  0  0  0
 36 69  1  0  0  0  0
 36 73  2  0  0  0  0
 37 66  1  0  0  0  0
 37 74  2  0  0  0  0
 38 51  1  0  0  0  0
 38 70  1  0  0  0  0
 38 75  2  0  0  0  0
 39 61  1  0  0  0  0
 39 67  1  0  0  0  0
 39 76  2  0  0  0  0
 40 62  1  0  0  0  0
 40 71  1  0  0  0  0
 40 77  2  0  0  0  0
 41 44  1  0  0  0  0
 42 51  1  0  0  0  0
 43 67  1  0  0  0  0
 44 46  1  0  0  0  0
 45 47  1  0  0  0  0
 45 48  1  0  0  0  0
 46 50  1  0  0  0  0
 47 52  1  0  0  0  0
 48 66  1  0  0  0  0
 49 52  1  0  0  0  0
 49 66  1  0  0  0  0
 50 70  1  0  0  0  0
 51 67  1  0  0  0  0
 52 65  1  0  0  0  0
 53 59  1  0  0  0  0
 54 62  1  0  0  0  0
 55 63  1  0  0  0  0
 56 63  1  0  0  0  0
 57 63  1  0  0  0  0
 58 72  1  0  0  0  0
 60 80  1  0  0  0  0
 61 63  1  0  0  0  0
 61 71  1  0  0  0  0
 62 72  1  0  0  0  0
 64 65  1  0  0  0  0
M  CHG  1  72   1
M  ISO  4  34 100  37 100  60 101  80 101
M  END
> <Batch ID>
0116

> <Smiles>
CCc1cc(C=C[101CH2:1][101O:1]c2ccc3c(c2)CN(C(=O)C(NC(=O)C(C)NC)C(C)(C)C)C(C(=O)NC2CCCc4ccccc42)C3)oc1C=[100CH:0][100C:0](=O)N1CCCC(n2nc(-c3ccc(Oc4ccc(F)cc4F)cc3)c(C(N)=O)c2N)C1

> <Shape>
0.280

> <Color>
0.127

> <Negative vol penalty>
0.000

$$$$

  -OEChem-04052301433D

 84 92  0     1  0  0  0  0  0999 V2000
  -27.2408  -31.7898   30.3760 C   0  0  0  0  0  0  0  0  0  0  0  0
  -27.5622  -30.8137   29.4383 C   0  0  0  0  0  0  0  0  0  0  0  0
  -23.7290   -9.4541   20.3652 C   0  0  0  0  0  0  0  0  0  0  0  0
  -23.1943   -9.6594   22.7123 C   0  0  0  0  0  0  0  0  0  0  0  0
  -26.3260  -32.7911   30.0527 C   0  0  0  0  0  0  0  0  0  0  0  0
  -26.9681  -30.8377   28.1770 C   0  0  0  0  0  0  0  0  0  0  0  0
  -29.5326  -29.1826   22.8675 C   0  0  0  0  0  0  0  0  0  0  0  0
  -23.7675   -8.0659   20.4953 C   0  0  0  0  0  0  0  0  0  0  0  0
  -23.2327   -8.2711   22.8425 C   0  0  0  0  0  0  0  0  0  0  0  0
  -29.4636  -28.0089   22.1182 C   0  0  0  0  0  0  0  0  0  0  0  0
  -21.2147   -5.6495   22.1531 C   0  0  0  0  0  0  0  0  0  0  0  0
  -20.1867   -5.0387   22.8712 C   0  0  0  0  0  0  0  0  0  0  0  0
  -27.7211  -28.9831   20.7639 C   0  0  0  0  0  0  0  0  0  0  0  0
  -27.7167  -22.0972   19.0514 C   0  0  0  0  0  0  0  0  0  0  0  0
  -21.8036   -4.1532   24.4328 C   0  0  0  0  0  0  0  0  0  0  0  0
  -23.4424  -10.2509   21.4737 C   0  0  0  0  0  0  0  0  0  0  0  0
  -29.9277  -22.9239   19.5125 C   0  0  0  0  0  0  0  0  0  0  0  0
  -22.2861  -12.4783   21.0164 C   0  0  0  0  0  0  0  0  0  0  0  0
  -25.7277  -32.8329   28.7835 C   0  0  0  0  0  0  0  0  0  0  0  0
  -28.6873  -30.2632   22.5772 C   0  0  0  0  0  0  0  0  0  0  0  0
  -26.0435  -31.8397   27.8368 C   0  0  0  0  0  0  0  0  0  0  0  0
  -27.7831  -30.1703   21.5095 C   0  0  0  0  0  0  0  0  0  0  0  0
  -23.5194   -7.4744   21.7339 C   0  0  0  0  0  0  0  0  0  0  0  0
  -28.5558  -27.9080   21.0680 C   0  0  0  0  0  0  0  0  0  0  0  0
  -22.5372   -5.5121   22.5748 C   0  0  0  0  0  0  0  0  0  0  0  0
  -28.6083  -23.1602   19.1427 C   0  0  0  0  0  0  0  0  0  0  0  0
  -20.4811   -4.2906   24.0111 C   0  0  0  0  0  0  0  0  0  0  0  0
  -22.8316   -4.7640   23.7146 C   0  0  0  0  0  0  0  0  0  0  0  0
  -23.4031  -11.6850   21.3400 C   0  0  0  0  0  0  0  0  0  0  0  0
  -28.1903  -20.8270   19.3379 C   0  0  0  0  0  0  0  0  0  0  0  0
  -30.3023  -21.6167   19.7786 C   0  0  0  0  0  0  0  0  0  0  0  0
  -22.7674  -13.7646   21.0144 C   0  0  0  0  0  0  0  0  0  0  0  0
  -31.1741  -24.8335   18.6098 C   0  0  0  0  0  0  0  0  0  0  0  0
  -30.8785  -24.0227   19.6148 C   0  0  0  0  0  0  0  0  0  0  0  0
  -27.2968  -19.6829   19.2562 C   0  0  0  0  0  0  0  0  0  0  0  0
  -27.6334  -18.4043   19.5309 C   0  0  0  0  0  0  0  0  0  0  0  0
  -20.9342  -12.0873   20.7421 C   0  0  0  0  0  0  0  0  0  0  0  0
  -26.6059  -17.3505   19.4104 C   0  0  0  0  0  0  0  0  0  0  0  0
  -26.4135  -31.8210   24.1605 C   0  0  0  0  0  0  0  0  0  0  0  0
  -26.4827  -33.7667   21.5659 C   0  0  0  0  0  0  0  0  0  0  0  0
  -27.2228  -34.1589   18.2576 C   0  0  0  0  0  0  0  0  0  0  0  0
  -24.7090  -33.9074   28.4963 C   0  0  0  0  0  0  0  0  0  0  0  0
  -28.7926  -31.5320   23.3780 C   0  0  0  0  0  0  0  0  0  0  0  0
  -26.8677  -31.3092   21.1442 C   0  0  0  0  0  0  0  0  0  0  0  0
  -24.4068  -34.0785   27.0098 C   0  0  0  0  0  0  0  0  0  0  0  0
  -27.1636  -15.6515   22.6095 C   0  0  0  0  0  0  0  0  0  0  0  0
  -24.1832  -32.7211   26.3508 C   0  0  0  0  0  0  0  0  0  0  0  0
  -26.1667  -14.5001   22.5082 C   0  0  0  0  0  0  0  0  0  0  0  0
  -27.7620  -16.0110   21.2504 C   0  0  0  0  0  0  0  0  0  0  0  0
  -25.7402  -15.1503   20.1050 C   0  0  0  0  0  0  0  0  0  0  0  0
  -25.4388  -31.8463   26.4496 C   0  0  1  0  0  0  0  0  0  0  0  0
  -27.5266  -32.3814   23.3211 C   0  0  1  0  0  0  0  0  0  0  0  0
  -25.0906  -14.8030   21.4536 C   0  0  1  0  0  0  0  0  0  0  0  0
  -31.7041  -21.2890   20.1817 C   0  0  0  0  0  0  0  0  0  0  0  0
  -27.1348  -35.8509   16.4065 C   0  0  0  0  0  0  0  0  0  0  0  0
  -23.4721  -33.3364   21.3188 C   0  0  0  0  0  0  0  0  0  0  0  0
  -23.6061  -34.2311   18.9844 C   0  0  0  0  0  0  0  0  0  0  0  0
  -24.2268  -35.6859   20.9133 C   0  0  0  0  0  0  0  0  0  0  0  0
  -30.1589  -34.0849   17.8938 C   0  0  0  0  0  0  0  0  0  0  0  0
  -27.2190  -26.4309   19.7692 C   0  0  0  0  0  0  0  0  0  1  0  0
  -27.1010  -24.9222   19.6710 C   0  0  0  0  0  0  0  0  0  0  0  0
  -25.7693  -33.8008   20.2359 C   0  0  1  0  0  0  0  0  0  0  0  0
  -27.9800  -35.2463   17.5168 C   0  0  2  0  0  0  0  0  0  0  0  0
  -24.2843  -34.2412   20.3710 C   0  0  0  0  0  0  0  0  0  0  0  0
  -24.5107  -12.4070   21.5298 N   0  0  0  0  0  0  0  0  0  0  0  0
  -29.4647  -20.5584   19.7004 N   0  0  0  0  0  0  0  0  0  0  0  0
  -24.0920  -13.6674   21.3246 N   0  0  0  0  0  0  0  0  0  0  0  0
  -26.7140  -16.2389   20.2441 N   0  0  0  0  0  0  0  0  0  0  0  0
  -27.0041  -32.5266   21.9609 N   0  0  0  0  0  0  0  0  0  0  0  0
  -22.1827  -14.9581   20.7776 N   0  0  0  0  0  0  0  0  0  0  0  0
  -20.6106  -10.7243   20.7868 N   0  0  0  0  0  0  0  0  0  0  0  0
  -26.4212  -32.2599   25.4707 N   0  0  0  0  0  0  0  0  0  0  0  0
  -26.5693  -34.6557   19.3655 N   0  0  0  0  0  0  0  0  0  0  0  0
  -29.2236  -34.6911   16.9116 N   0  3  0  0  0  0  0  0  0  0  0  0
  -20.0433  -12.9205   20.4495 O   0  0  0  0  0  0  0  0  0  0  0  0
  -25.7161  -17.5168   18.5742 O   0  0  0  0  0  0  0  0  0  0  0  0
  -25.6065  -31.0488   23.6564 O   0  0  0  0  0  0  0  0  0  0  0  0
  -26.5800  -34.8038   22.2267 O   0  0  0  0  0  0  0  0  0  0  0  0
  -27.2091  -32.9868   17.8881 O   0  0  0  0  0  0  0  0  0  0  0  0
  -23.5566   -6.1198   21.8612 O   0  0  0  0  0  0  0  0  0  0  0  0
  -28.4860  -26.7633   20.3354 O   0  0  0  0  0  0  0  0  0  1  0  0
  -28.1612  -24.4248   18.8636 O   0  0  0  0  0  0  0  0  0  0  0  0
  -19.4936   -3.7053   24.7014 F   0  0  0  0  0  0  0  0  0  0  0  0
  -24.1001   -4.6294   24.1253 F   0  0  0  0  0  0  0  0  0  0  0  0
  1  2  1  0  0  0  0
  1  5  2  0  0  0  0
  2  6  2  0  0  0  0
  3  8  2  0  0  0  0
  3 16  1  0  0  0  0
  4  9  1  0  0  0  0
  4 16  2  0  0  0  0
  5 19  1  0  0  0  0
  6 21  1  0  0  0  0
  7 10  2  0  0  0  0
  7 20  1  0  0  0  0
  8 23  1  0  0  0  0
  9 23  2  0  0  0  0
 10 24  1  0  0  0  0
 11 12  2  0  0  0  0
 11 25  1  0  0  0  0
 12 27  1  0  0  0  0
 13 22  1  0  0  0  0
 13 24  2  0  0  0  0
 14 26  2  0  0  0  0
 14 30  1  0  0  0  0
 15 27  2  0  0  0  0
 15 28  1  0  0  0  0
 16 29  1  0  0  0  0
 17 26  1  0  0  0  0
 17 31  2  0  0  0  0
 17 34  1  0  0  0  0
 18 29  1  0  0  0  0
 18 32  2  0  0  0  0
 18 37  1  0  0  0  0
 19 21  2  0  0  0  0
 19 42  1  0  0  0  0
 20 22  2  0  0  0  0
 20 43  1  0  0  0  0
 21 51  1  0  0  0  0
 22 44  1  0  0  0  0
 23 80  1  0  0  0  0
 24 81  1  0  0  0  0
 25 28  2  0  0  0  0
 25 80  1  0  0  0  0
 26 82  1  0  0  0  0
 27 83  1  0  0  0  0
 28 84  1  0  0  0  0
 29 65  2  0  0  0  0
 30 35  1  0  0  0  0
 30 66  2  0  0  0  0
 31 54  1  0  0  0  0
 31 66  1  0  0  0  0
 32 67  1  0  0  0  0
 32 70  1  0  0  0  0
 33 34  2  0  0  0  0
 35 36  2  0  0  0  0
 36 38  1  0  0  0  0
 37 71  1  0  0  0  0
 37 75  2  0  0  0  0
 38 68  1  0  0  0  0
 38 76  2  0  0  0  0
 39 52  1  0  0  0  0
 39 72  1  0  0  0  0
 39 77  2  0  0  0  0
 40 62  1  0  0  0  0
 40 69  1  0  0  0  0
 40 78  2  0  0  0  0
 41 63  1  0  0  0  0
 41 73  1  0  0  0  0
 41 79  2  0  0  0  0
 42 45  1  0  0  0  0
 43 52  1  0  0  0  0
 44 69  1  0  0  0  0
 45 47  1  0  0  0  0
 46 48  1  0  0  0  0
 46 49  1  0  0  0  0
 47 51  1  0  0  0  0
 48 53  1  0  0  0  0
 49 68  1  0  0  0  0
 50 53  1  0  0  0  0
 50 68  1  0  0  0  0
 51 72  1  0  0  0  0
 52 69  1  0  0  0  0
 53 67  1  0  0  0  0
 55 63  1  0  0  0  0
 56 64  1  0  0  0  0
 57 64  1  0  0  0  0
 58 64  1  0  0  0  0
 59 74  1  0  0  0  0
 60 61  1  0  0  0  0
 60 81  1  0  0  0  0
 61 82  1  0  0  0  0
 62 64  1  0  0  0  0
 62 73  1  0  0  0  0
 63 74  1  0  0  0  0
 65 67  1  0  0  0  0
M  CHG  1  74   1
M  ISO  4  36 100  38 100  60 101  81 101
M  END
> <Batch ID>
0116

> <Smiles>
C=Cc1c(OC[101CH2:1][101O:1]c2ccc3c(c2)CN(C(=O)C(NC(=O)C(C)NC)C(C)(C)C)C(C(=O)NC2CCCc4ccccc42)C3)cc(C=[100CH:0][100C:0](=O)N2CCCC(n3nc(-c4ccc(Oc5ccc(F)cc5F)cc4)c(C(N)=O)c3N)C2)nc1C

> <Shape>
0.241

> <Color>
0.102

> <Negative vol penalty>
0.000

$$$$

  -OEChem-04052301433D

 87 95  0     1  0  0  0  0  0999 V2000
  -18.2687  -20.7543    7.4378 C   0  0  0  0  0  0  0  0  0  0  0  0
  -18.8157  -20.5162    8.6946 C   0  0  0  0  0  0  0  0  0  0  0  0
  -23.0919   -9.8657   19.9405 C   0  0  0  0  0  0  0  0  0  0  0  0
  -23.6883   -9.9621   22.2798 C   0  0  0  0  0  0  0  0  0  0  0  0
  -17.6787  -19.7103    6.7265 C   0  0  0  0  0  0  0  0  0  0  0  0
  -18.7720  -19.2342    9.2413 C   0  0  0  0  0  0  0  0  0  0  0  0
  -23.1782  -17.8594   11.3245 C   0  0  0  0  0  0  0  0  0  0  0  0
  -22.3328   -8.7206   20.1812 C   0  0  0  0  0  0  0  0  0  0  0  0
  -22.9291   -8.8169   22.5205 C   0  0  0  0  0  0  0  0  0  0  0  0
  -23.4766  -18.3784   12.5836 C   0  0  0  0  0  0  0  0  0  0  0  0
  -21.4406   -5.7129   23.6864 C   0  0  0  0  0  0  0  0  0  0  0  0
  -22.0027   -4.7190   24.4874 C   0  0  0  0  0  0  0  0  0  0  0  0
  -22.7738  -16.3056   13.5979 C   0  0  0  0  0  0  0  0  0  0  0  0
  -29.3068  -14.7752   16.7050 C   0  0  0  0  0  0  0  0  0  0  0  0
  -27.5979  -13.7261   15.3576 C   0  0  0  0  0  0  0  0  0  0  0  0
  -23.8226   -4.4819   22.9161 C   0  0  0  0  0  0  0  0  0  0  0  0
  -23.7697  -10.4865   20.9898 C   0  0  0  0  0  0  0  0  0  0  0  0
  -24.1180  -13.0063   20.7981 C   0  0  0  0  0  0  0  0  0  0  0  0
  -17.6364  -18.4128    7.2606 C   0  0  0  0  0  0  0  0  0  0  0  0
  -22.6643  -16.5614   11.1932 C   0  0  0  0  0  0  0  0  0  0  0  0
  -18.1797  -18.1722    8.5370 C   0  0  0  0  0  0  0  0  0  0  0  0
  -22.4721  -15.7716   12.3358 C   0  0  0  0  0  0  0  0  0  0  0  0
  -28.7759  -13.6366   16.0990 C   0  0  0  0  0  0  0  0  0  0  0  0
  -22.2513   -8.1962   21.4712 C   0  0  0  0  0  0  0  0  0  0  0  0
  -23.2717  -17.6025   13.7208 C   0  0  0  0  0  0  0  0  0  0  0  0
  -22.0694   -6.0914   22.5002 C   0  0  0  0  0  0  0  0  0  0  0  0
  -28.6596  -16.0034   16.5697 C   0  0  0  0  0  0  0  0  0  0  0  0
  -27.4816  -16.0930   15.8282 C   0  0  0  0  0  0  0  0  0  0  0  0
  -23.1937   -4.1035   24.1023 C   0  0  0  0  0  0  0  0  0  0  0  0
  -26.9507  -14.9543   15.2221 C   0  0  0  0  0  0  0  0  0  0  0  0
  -23.2604   -5.4759   22.1151 C   0  0  0  0  0  0  0  0  0  0  0  0
  -24.5545  -11.6691   20.7417 C   0  0  0  0  0  0  0  0  0  0  0  0
  -25.2327  -13.7449   20.4843 C   0  0  0  0  0  0  0  0  0  0  0  0
  -22.8209  -13.5337   21.1066 C   0  0  0  0  0  0  0  0  0  0  0  0
  -19.9590  -15.3224   10.0751 C   0  0  0  0  0  0  0  0  0  0  0  0
  -21.4869  -12.5094   10.5992 C   0  0  0  0  0  0  0  0  0  0  0  0
  -23.9027  -10.7966   12.2955 C   0  0  0  0  0  0  0  0  0  0  0  0
  -30.2101  -12.0165   17.3678 C   0  0  0  0  0  0  0  0  0  0  0  0
  -16.9460  -17.3263    6.4746 C   0  0  0  0  0  0  0  0  0  0  0  0
  -22.3726  -16.0066    9.8259 C   0  0  0  0  0  0  0  0  0  0  0  0
  -21.9417  -14.3647   12.2473 C   0  0  0  0  0  0  0  0  0  0  0  0
  -17.2743  -15.9181    6.9640 C   0  0  0  0  0  0  0  0  0  0  0  0
  -30.0070  -13.6340   20.6897 C   0  0  0  0  0  0  0  0  0  0  0  0
  -17.1699  -15.8434    8.4840 C   0  0  0  0  0  0  0  0  0  0  0  0
  -28.5682  -13.3508   21.1176 C   0  0  0  0  0  0  0  0  0  0  0  0
  -30.5450  -12.5506   19.7600 C   0  0  0  0  0  0  0  0  0  0  0  0
  -28.2483  -12.0366   18.9841 C   0  0  0  0  0  0  0  0  0  0  0  0
  -18.1738  -16.7900    9.1531 C   0  0  1  0  0  0  0  0  0  0  0  0
  -21.3697  -14.8573    9.8488 C   0  0  1  0  0  0  0  0  0  0  0  0
  -27.6695  -13.1346   19.8889 C   0  0  1  0  0  0  0  0  0  0  0  0
  -29.3316  -18.5277   20.6395 C   0  0  0  0  0  0  0  0  0  0  0  0
  -24.8891   -8.5018   12.5369 C   0  0  0  0  0  0  0  0  0  0  0  0
  -19.0659  -11.6443   12.2425 C   0  0  0  0  0  0  0  0  0  0  0  0
  -20.4677   -9.8113   13.2139 C   0  0  0  0  0  0  0  0  0  0  0  0
  -20.0117   -9.8644   10.7620 C   0  0  0  0  0  0  0  0  0  0  0  0
  -29.5469  -11.5126   15.0574 C   0  0  0  0  0  0  0  0  0  0  0  0
  -26.5693  -11.7229   11.4065 C   0  0  0  0  0  0  0  0  0  0  0  0
  -29.1768  -18.4848   19.1299 C   0  0  0  0  0  0  0  0  0  0  0  0
  -25.2814  -18.9933   16.3926 C   0  0  0  0  0  0  0  0  0  0  0  0
  -29.3299  -17.0730   18.5852 C   0  0  0  0  0  0  0  0  0  0  0  0
  -24.6147  -19.0667   15.0279 C   0  0  0  0  0  0  0  0  0  1  0  0
  -25.8589  -17.6142   16.6701 C   0  0  0  0  0  0  0  0  0  0  0  0
  -21.6015  -11.5558   11.7639 C   0  0  1  0  0  0  0  0  0  0  0  0
  -24.9812   -9.8399   11.8201 C   0  0  2  0  0  0  0  0  0  0  0  0
  -20.2949  -10.7461   11.9977 C   0  0  0  0  0  0  0  0  0  0  0  0
  -25.8457  -11.5614   20.4174 N   0  0  0  0  0  0  0  0  0  0  0  0
  -26.2302  -12.8404   20.2672 N   0  0  0  0  0  0  0  0  0  0  0  0
  -21.6656  -13.8696   10.8886 N   0  0  0  0  0  0  0  0  0  0  0  0
  -29.6492  -12.3136   18.6269 N   0  0  0  0  0  0  0  0  0  0  0  0
  -25.4472  -15.0732   20.3757 N   0  0  0  0  0  0  0  0  0  0  0  0
  -21.7882  -12.6348   21.4061 N   0  0  0  0  0  0  0  0  0  0  0  0
  -19.5029  -16.2179    9.1267 N   0  0  0  0  0  0  0  0  0  0  0  0
  -22.7765  -10.7315   11.5025 N   0  0  0  0  0  0  0  0  0  0  0  0
  -29.4447  -12.3661   16.2390 N   0  0  0  0  0  0  0  0  0  0  0  0
  -26.3324  -10.4160   12.0719 N   0  3  0  0  0  0  0  0  0  0  0  0
  -22.5807  -14.7648   21.1002 O   0  0  0  0  0  0  0  0  0  0  0  0
  -19.3303  -14.8990   11.0381 O   0  0  0  0  0  0  0  0  0  0  0  0
  -21.2547  -12.0631    9.4729 O   0  0  0  0  0  0  0  0  0  0  0  0
  -24.0437  -11.5259   13.2747 O   0  0  0  0  0  0  0  0  0  0  0  0
  -31.2932  -11.4292   17.2561 O   0  0  0  0  0  0  0  0  0  0  0  0
  -21.5105   -7.0789   21.7064 O   0  0  0  0  0  0  0  0  0  0  0  0
  -23.5615  -18.1069   14.9510 O   0  0  0  0  0  0  0  0  0  1  0  0
  -29.1879  -17.1082   17.1665 O   0  0  0  0  0  0  0  0  0  0  0  0
  -26.8368  -17.2945   15.6896 O   0  0  0  0  0  0  0  0  0  0  0  0
  -23.7342   -3.1500   24.8724 F   0  0  0  0  0  0  0  0  0  0  0  0
  -25.8191  -15.0342   14.5084 F   0  0  0  0  0  0  0  0  0  0  0  0
  -23.8697   -5.8360   20.9772 F   0  0  0  0  0  0  0  0  0  0  0  0
  1  2  1  0  0  0  0
  1  5  2  0  0  0  0
  2  6  2  0  0  0  0
  3  8  2  0  0  0  0
  3 17  1  0  0  0  0
  4  9  1  0  0  0  0
  4 17  2  0  0  0  0
  5 19  1  0  0  0  0
  6 21  1  0  0  0  0
  7 10  2  0  0  0  0
  7 20  1  0  0  0  0
  8 24  1  0  0  0  0
  9 24  2  0  0  0  0
 10 25  1  0  0  0  0
 11 12  2  0  0  0  0
 11 26  1  0  0  0  0
 12 29  1  0  0  0  0
 13 22  1  0  0  0  0
 13 25  2  0  0  0  0
 14 23  2  0  0  0  0
 14 27  1  0  0  0  0
 15 23  1  0  0  0  0
 15 30  2  0  0  0  0
 16 29  2  0  0  0  0
 16 31  1  0  0  0  0
 17 32  1  0  0  0  0
 18 32  1  0  0  0  0
 18 33  2  0  0  0  0
 18 34  1  0  0  0  0
 19 21  2  0  0  0  0
 19 39  1  0  0  0  0
 20 22  2  0  0  0  0
 20 40  1  0  0  0  0
 21 48  1  0  0  0  0
 22 41  1  0  0  0  0
 23 74  1  0  0  0  0
 24 81  1  0  0  0  0
 25 82  1  0  0  0  0
 26 31  2  0  0  0  0
 26 81  1  0  0  0  0
 27 28  2  0  0  0  0
 27 83  1  0  0  0  0
 28 30  1  0  0  0  0
 28 84  1  0  0  0  0
 29 85  1  0  0  0  0
 30 86  1  0  0  0  0
 31 87  1  0  0  0  0
 32 66  2  0  0  0  0
 33 67  1  0  0  0  0
 33 70  1  0  0  0  0
 34 71  1  0  0  0  0
 34 76  2  0  0  0  0
 35 49  1  0  0  0  0
 35 72  1  0  0  0  0
 35 77  2  0  0  0  0
 36 63  1  0  0  0  0
 36 68  1  0  0  0  0
 36 78  2  0  0  0  0
 37 64  1  0  0  0  0
 37 73  1  0  0  0  0
 37 79  2  0  0  0  0
 38 69  1  0  0  0  0
 38 74  1  0  0  0  0
 38 80  2  0  0  0  0
 39 42  1  0  0  0  0
 40 49  1  0  0  0  0
 41 68  1  0  0  0  0
 42 44  1  0  0  0  0
 43 45  1  0  0  0  0
 43 46  1  0  0  0  0
 44 48  1  0  0  0  0
 45 50  1  0  0  0  0
 46 69  1  0  0  0  0
 47 50  1  0  0  0  0
 47 69  1  0  0  0  0
 48 72  1  0  0  0  0
 49 68  1  0  0  0  0
 50 67  1  0  0  0  0
 51 58  1  0  0  0  0
 52 64  1  0  0  0  0
 53 65  1  0  0  0  0
 54 65  1  0  0  0  0
 55 65  1  0  0  0  0
 56 74  1  0  0  0  0
 57 75  1  0  0  0  0
 58 60  1  0  0  0  0
 59 61  1  0  0  0  0
 59 62  1  0  0  0  0
 60 83  1  0  0  0  0
 61 82  1  0  0  0  0
 62 84  1  0  0  0  0
 63 65  1  0  0  0  0
 63 73  1  0  0  0  0
 64 75  1  0  0  0  0
 66 67  1  0  0  0  0
M  CHG  1  75   1
M  ISO  4  38 100  61 101  74 100  82 101
M  END
> <Batch ID>
0116

> <Smiles>
CCCOc1cc([100N:0](C)[100C:0](=O)N2CCCC(n3nc(-c4ccc(Oc5ccc(F)cc5F)cc4)c(C(N)=O)c3N)C2)cc(F)c1OCC[101CH2:1][101O:1]c1ccc2c(c1)CN(C(=O)C(NC(=O)C(C)NC)C(C)(C)C)C(C(=O)NC1CCCc3ccccc31)C2

> <Shape>
0.165

> <Color>
0.176

> <Negative vol penalty>
0.000

$$$$

  -OEChem-04052301433D

 88 96  0     1  0  0  0  0  0999 V2000
  -30.6838  -34.1264   21.9345 C   0  0  0  0  0  0  0  0  0  0  0  0
  -30.5024  -32.7821   22.2434 C   0  0  0  0  0  0  0  0  0  0  0  0
  -22.1737  -10.8220   22.6093 C   0  0  0  0  0  0  0  0  0  0  0  0
  -21.5909  -10.6925   20.2682 C   0  0  0  0  0  0  0  0  0  0  0  0
  -29.5769  -34.9500   21.7343 C   0  0  0  0  0  0  0  0  0  0  0  0
  -29.2137  -32.2609   22.3533 C   0  0  0  0  0  0  0  0  0  0  0  0
  -28.7133  -27.8041   20.0014 C   0  0  0  0  0  0  0  0  0  0  0  0
  -21.5048   -9.6204   22.8423 C   0  0  0  0  0  0  0  0  0  0  0  0
  -20.9221   -9.4908   20.5012 C   0  0  0  0  0  0  0  0  0  0  0  0
  -29.2160  -26.6796   20.6544 C   0  0  0  0  0  0  0  0  0  0  0  0
  -22.0941   -6.3183   22.4159 C   0  0  0  0  0  0  0  0  0  0  0  0
  -22.7317   -5.3649   23.2097 C   0  0  0  0  0  0  0  0  0  0  0  0
  -26.9888  -26.1208   21.3938 C   0  0  0  0  0  0  0  0  0  0  0  0
  -25.4202  -21.5850   18.2881 C   0  0  0  0  0  0  0  0  0  0  0  0
  -20.8982   -5.4469   24.7810 C   0  0  0  0  0  0  0  0  0  0  0  0
  -22.2167  -11.3581   21.3222 C   0  0  0  0  0  0  0  0  0  0  0  0
  -27.7879  -20.1608   18.6728 C   0  0  0  0  0  0  0  0  0  0  0  0
  -24.2612  -12.7660   20.7345 C   0  0  0  0  0  0  0  0  0  0  0  0
  -28.2740  -34.4365   21.8323 C   0  0  0  0  0  0  0  0  0  0  0  0
  -27.3438  -28.1019   20.0488 C   0  0  0  0  0  0  0  0  0  0  0  0
  -28.0882  -33.0788   22.1555 C   0  0  0  0  0  0  0  0  0  0  0  0
  -26.4709  -27.2483   20.7383 C   0  0  0  0  0  0  0  0  0  0  0  0
  -25.5294  -20.2747   17.8223 C   0  0  0  0  0  0  0  0  0  0  0  0
  -26.7133  -19.5626   18.0147 C   0  0  0  0  0  0  0  0  0  0  0  0
  -20.8790   -8.9548   21.7883 C   0  0  0  0  0  0  0  0  0  0  0  0
  -28.3542  -25.8393   21.3532 C   0  0  0  0  0  0  0  0  0  0  0  0
  -20.8586   -6.8361   22.8047 C   0  0  0  0  0  0  0  0  0  0  0  0
  -27.6787  -21.4711   19.1385 C   0  0  0  0  0  0  0  0  0  0  0  0
  -22.1338   -4.9291   24.3922 C   0  0  0  0  0  0  0  0  0  0  0  0
  -26.4948  -22.1832   18.9461 C   0  0  0  0  0  0  0  0  0  0  0  0
  -20.2607   -6.4004   23.9872 C   0  0  0  0  0  0  0  0  0  0  0  0
  -22.9069  -12.5997   21.0810 C   0  0  0  0  0  0  0  0  0  0  0  0
  -24.4215  -14.1251   20.6185 C   0  0  0  0  0  0  0  0  0  0  0  0
  -30.2063  -19.8314   18.4314 C   0  0  0  0  0  0  0  0  0  0  0  0
  -28.7230  -17.2832   16.1273 C   0  0  0  0  0  0  0  0  0  0  0  0
  -29.0304  -19.4228   18.8793 C   0  0  0  0  0  0  0  0  0  0  0  0
  -27.6321  -18.0478   16.2497 C   0  0  0  0  0  0  0  0  0  0  0  0
  -25.2829  -11.7800   20.5351 C   0  0  0  0  0  0  0  0  0  0  0  0
  -25.6116  -30.5200   21.1696 C   0  0  0  0  0  0  0  0  0  0  0  0
  -23.1711  -28.9155   19.7583 C   0  0  0  0  0  0  0  0  0  0  0  0
  -21.9321  -25.9480   18.6155 C   0  0  0  0  0  0  0  0  0  0  0  0
  -22.6433  -19.0993   18.8184 C   0  0  0  0  0  0  0  0  0  0  0  0
  -27.1080  -35.3763   21.6540 C   0  0  0  0  0  0  0  0  0  0  0  0
  -26.8136  -29.3041   19.3167 C   0  0  0  0  0  0  0  0  0  0  0  0
  -24.9895  -27.5126   20.8027 C   0  0  0  0  0  0  0  0  0  0  0  0
  -25.7798  -34.6614   21.4198 C   0  0  0  0  0  0  0  0  0  0  0  0
  -21.3480  -17.9258   21.9203 C   0  0  0  0  0  0  0  0  0  0  0  0
  -25.6026  -33.5232   22.4197 C   0  0  0  0  0  0  0  0  0  0  0  0
  -21.7443  -16.4485   21.9467 C   0  0  0  0  0  0  0  0  0  0  0  0
  -20.9812  -18.3866   20.5113 C   0  0  0  0  0  0  0  0  0  0  0  0
  -22.4013  -16.6381   19.5113 C   0  0  0  0  0  0  0  0  0  0  0  0
  -26.7063  -32.4708   22.2590 C   0  0  1  0  0  0  0  0  0  0  0  0
  -25.4751  -29.7931   19.8616 C   0  0  1  0  0  0  0  0  0  0  0  0
  -22.8336  -16.1414   20.9016 C   0  0  2  0  0  0  0  0  0  0  0  0
  -19.8950  -24.9443   17.5477 C   0  0  0  0  0  0  0  0  0  0  0  0
  -21.7164  -29.0231   22.4382 C   0  0  0  0  0  0  0  0  0  0  0  0
  -20.1800  -27.2342   21.5971 C   0  0  0  0  0  0  0  0  0  0  0  0
  -20.2651  -29.4455   20.4457 C   0  0  0  0  0  0  0  0  0  0  0  0
  -23.4590  -25.1029   16.2253 C   0  0  0  0  0  0  0  0  0  0  0  0
  -26.8154  -18.1567   17.5083 C   0  0  0  0  0  0  0  0  0  0  0  0
  -24.3636  -19.6596   17.1197 C   0  0  0  0  0  0  0  0  0  0  0  0
  -30.0005  -22.6387   21.7493 C   0  0  0  0  0  0  0  0  0  0  0  0
  -30.0015  -24.1258   21.4319 C   0  0  0  0  0  0  0  0  0  1  0  0
  -28.7659  -21.9407   21.2008 C   0  0  0  0  0  0  0  0  0  0  0  0
  -22.2036  -27.8419   20.1947 C   0  0  1  0  0  0  0  0  0  0  0  0
  -21.2580  -25.5748   17.3076 C   0  0  2  0  0  0  0  0  0  0  0  0
  -21.1194  -28.3820   21.1695 C   0  0  0  0  0  0  0  0  0  0  0  0
  -22.2535  -13.7604   21.1789 N   0  0  0  0  0  0  0  0  0  0  0  0
  -23.2012  -14.6691   20.8923 N   0  0  0  0  0  0  0  0  0  0  0  0
  -24.5202  -28.7039   20.0761 N   0  0  0  0  0  0  0  0  0  0  0  0
  -22.0564  -18.0673   19.5690 N   0  0  0  0  0  0  0  0  0  0  0  0
  -25.4860  -14.8960   20.3101 N   0  0  0  0  0  0  0  0  0  0  0  0
  -24.9473  -10.4285   20.6942 N   0  0  0  0  0  0  0  0  0  0  0  0
  -26.4371  -31.6268   21.1146 N   0  0  0  0  0  0  0  0  0  0  0  0
  -21.6680  -27.2536   18.9719 N   0  0  0  0  0  0  0  0  0  0  0  0
  -23.6594  -18.7113   17.9537 N   0  0  0  0  0  0  0  0  0  0  0  0
  -22.0979  -24.6041   16.5504 N   0  3  0  0  0  0  0  0  0  0  0  0
  -26.4625  -12.0892   20.2412 O   0  0  0  0  0  0  0  0  0  0  0  0
  -25.0113  -30.1081   22.1552 O   0  0  0  0  0  0  0  0  0  0  0  0
  -22.7465  -29.9018   19.1514 O   0  0  0  0  0  0  0  0  0  0  0  0
  -22.6209  -25.1591   19.2588 O   0  0  0  0  0  0  0  0  0  0  0  0
  -22.2916  -20.2799   18.9158 O   0  0  0  0  0  0  0  0  0  0  0  0
  -20.2265   -7.7821   22.0152 O   0  0  0  0  0  0  0  0  0  0  0  0
  -28.8423  -24.7414   21.9920 O   0  0  0  0  0  0  0  0  0  1  0  0
  -28.7182  -22.0846   19.7877 O   0  0  0  0  0  0  0  0  0  0  0  0
  -22.7454   -4.0124   25.1535 F   0  0  0  0  0  0  0  0  0  0  0  0
  -26.3834  -23.4427   19.3902 F   0  0  0  0  0  0  0  0  0  0  0  0
  -19.0733   -6.8934   24.3653 F   0  0  0  0  0  0  0  0  0  0  0  0
  1  2  1  0  0  0  0
  1  5  2  0  0  0  0
  2  6  2  0  0  0  0
  3  8  2  0  0  0  0
  3 16  1  0  0  0  0
  4  9  1  0  0  0  0
  4 16  2  0  0  0  0
  5 19  1  0  0  0  0
  6 21  1  0  0  0  0
  7 10  2  0  0  0  0
  7 20  1  0  0  0  0
  8 25  1  0  0  0  0
  9 25  2  0  0  0  0
 10 26  1  0  0  0  0
 11 12  2  0  0  0  0
 11 27  1  0  0  0  0
 12 29  1  0  0  0  0
 13 22  1  0  0  0  0
 13 26  2  0  0  0  0
 14 23  2  0  0  0  0
 14 30  1  0  0  0  0
 15 29  2  0  0  0  0
 15 31  1  0  0  0  0
 16 32  1  0  0  0  0
 17 24  2  0  0  0  0
 17 28  1  0  0  0  0
 17 36  1  0  0  0  0
 18 32  1  0  0  0  0
 18 33  2  0  0  0  0
 18 38  1  0  0  0  0
 19 21  2  0  0  0  0
 19 43  1  0  0  0  0
 20 22  2  0  0  0  0
 20 44  1  0  0  0  0
 21 52  1  0  0  0  0
 22 45  1  0  0  0  0
 23 24  1  0  0  0  0
 23 61  1  0  0  0  0
 24 60  1  0  0  0  0
 25 83  1  0  0  0  0
 26 84  1  0  0  0  0
 27 31  2  0  0  0  0
 27 83  1  0  0  0  0
 28 30  2  0  0  0  0
 28 85  1  0  0  0  0
 29 86  1  0  0  0  0
 30 87  1  0  0  0  0
 31 88  1  0  0  0  0
 32 68  2  0  0  0  0
 33 69  1  0  0  0  0
 33 72  1  0  0  0  0
 34 36  2  0  0  0  0
 35 37  2  0  0  0  0
 37 60  1  0  0  0  0
 38 73  1  0  0  0  0
 38 78  2  0  0  0  0
 39 53  1  0  0  0  0
 39 74  1  0  0  0  0
 39 79  2  0  0  0  0
 40 65  1  0  0  0  0
 40 70  1  0  0  0  0
 40 80  2  0  0  0  0
 41 66  1  0  0  0  0
 41 75  1  0  0  0  0
 41 81  2  0  0  0  0
 42 71  1  0  0  0  0
 42 76  1  0  0  0  0
 42 82  2  0  0  0  0
 43 46  1  0  0  0  0
 44 53  1  0  0  0  0
 45 70  1  0  0  0  0
 46 48  1  0  0  0  0
 47 49  1  0  0  0  0
 47 50  1  0  0  0  0
 48 52  1  0  0  0  0
 49 54  1  0  0  0  0
 50 71  1  0  0  0  0
 51 54  1  0  0  0  0
 51 71  1  0  0  0  0
 52 74  1  0  0  0  0
 53 70  1  0  0  0  0
 54 69  1  0  0  0  0
 55 66  1  0  0  0  0
 56 67  1  0  0  0  0
 57 67  1  0  0  0  0
 58 67  1  0  0  0  0
 59 77  1  0  0  0  0
 61 76  1  0  0  0  0
 62 63  1  0  0  0  0
 62 64  1  0  0  0  0
 63 84  1  0  0  0  0
 64 85  1  0  0  0  0
 65 67  1  0  0  0  0
 65 75  1  0  0  0  0
 66 77  1  0  0  0  0
 68 69  1  0  0  0  0
M  CHG  1  77   1
M  ISO  4  42 100  63 101  76 100  84 101
M  END
> <Batch ID>
0116

> <Smiles>
C=CCc1c(C[100NH:0][100C:0](=O)N2CCCC(n3nc(-c4ccc(Oc5ccc(F)cc5F)cc4)c(C(N)=O)c3N)C2)cc(F)c(OCC[101CH2:1][101O:1]c2ccc3c(c2)CN(C(=O)C(NC(=O)C(C)NC)C(C)(C)C)C(C(=O)NC2CCCc4ccccc42)C3)c1C=C

> <Shape>
0.236

> <Color>
0.088

> <Negative vol penalty>
0.000

$$$$

  -OEChem-04052301433D

 83 91  0     1  0  0  0  0  0999 V2000
  -29.4529  -29.7091   26.8749 C   0  0  0  0  0  0  0  0  0  0  0  0
  -29.0966  -28.9180   25.7873 C   0  0  0  0  0  0  0  0  0  0  0  0
  -24.5047   -8.4127   22.3361 C   0  0  0  0  0  0  0  0  0  0  0  0
  -25.8602   -7.2014   20.7448 C   0  0  0  0  0  0  0  0  0  0  0  0
  -28.4800  -30.4492   27.5455 C   0  0  0  0  0  0  0  0  0  0  0  0
  -27.7670  -28.8657   25.3705 C   0  0  0  0  0  0  0  0  0  0  0  0
  -27.2923  -29.2232   20.3414 C   0  0  0  0  0  0  0  0  0  0  0  0
  -23.4913   -7.4648   22.1945 C   0  0  0  0  0  0  0  0  0  0  0  0
  -24.8468   -6.2534   20.6032 C   0  0  0  0  0  0  0  0  0  0  0  0
  -27.5643  -28.0786   19.5932 C   0  0  0  0  0  0  0  0  0  0  0  0
  -22.8225   -4.3467   23.3183 C   0  0  0  0  0  0  0  0  0  0  0  0
  -22.2095   -3.8748   24.4790 C   0  0  0  0  0  0  0  0  0  0  0  0
  -25.1989  -27.6407   19.4143 C   0  0  0  0  0  0  0  0  0  0  0  0
  -27.8002  -19.5288   18.0600 C   0  0  0  0  0  0  0  0  0  0  0  0
  -20.0793   -4.6946   23.6872 C   0  0  0  0  0  0  0  0  0  0  0  0
  -25.6891   -8.2811   21.6112 C   0  0  0  0  0  0  0  0  0  0  0  0
  -27.7992   -9.2376   22.6791 C   0  0  0  0  0  0  0  0  0  0  0  0
  -27.1394  -30.4135   27.1306 C   0  0  0  0  0  0  0  0  0  0  0  0
  -25.9697  -29.5798   20.6414 C   0  0  0  0  0  0  0  0  0  0  0  0
  -26.7751  -29.6051   26.0370 C   0  0  0  0  0  0  0  0  0  0  0  0
  -24.9127  -28.7917   20.1643 C   0  0  0  0  0  0  0  0  0  0  0  0
  -23.6624   -6.3851   21.3281 C   0  0  0  0  0  0  0  0  0  0  0  0
  -26.5177  -27.2856   19.1320 C   0  0  0  0  0  0  0  0  0  0  0  0
  -22.0639   -4.9926   22.3421 C   0  0  0  0  0  0  0  0  0  0  0  0
  -28.0454  -20.9213   17.8840 C   0  0  0  0  0  0  0  0  0  0  0  0
  -20.8379   -4.0487   24.6634 C   0  0  0  0  0  0  0  0  0  0  0  0
  -20.6923   -5.1665   22.5265 C   0  0  0  0  0  0  0  0  0  0  0  0
  -26.7361   -9.2603   21.7565 C   0  0  0  0  0  0  0  0  0  0  0  0
  -27.4439  -19.2257   19.3556 C   0  0  0  0  0  0  0  0  0  0  0  0
  -27.8670  -21.6296   19.0521 C   0  0  0  0  0  0  0  0  0  0  0  0
  -28.5100  -10.3820   22.4121 C   0  0  0  0  0  0  0  0  0  0  0  0
  -27.1254  -17.9675   19.9101 C   0  0  0  0  0  0  0  0  0  0  0  0
  -28.0185  -23.0741   19.2941 C   0  0  0  0  0  0  0  0  0  0  0  0
  -27.1254  -16.7546   19.2613 C   0  0  0  0  0  0  0  0  0  0  0  0
  -27.8295  -24.0366   18.3780 C   0  0  0  0  0  0  0  0  0  0  0  0
  -28.1159   -8.2685   23.6872 C   0  0  0  0  0  0  0  0  0  0  0  0
  -26.7762  -15.5166   19.9866 C   0  0  0  0  0  0  0  0  0  0  0  0
  -24.2928  -29.9280   23.3191 C   0  0  0  0  0  0  0  0  0  0  0  0
  -22.0096  -31.0143   21.2871 C   0  0  0  0  0  0  0  0  0  0  0  0
  -20.7302  -31.0588   18.1235 C   0  0  0  0  0  0  0  0  0  0  0  0
  -26.1154  -31.1939   27.9162 C   0  0  0  0  0  0  0  0  0  0  0  0
  -25.6920  -30.8321   21.4269 C   0  0  0  0  0  0  0  0  0  0  0  0
  -23.4743  -29.1420   20.4418 C   0  0  0  0  0  0  0  0  0  0  0  0
  -24.7912  -31.3758   27.1788 C   0  0  0  0  0  0  0  0  0  0  0  0
  -29.5630  -13.4096   18.8793 C   0  0  0  0  0  0  0  0  0  0  0  0
  -24.3337  -30.0544   26.5694 C   0  0  0  0  0  0  0  0  0  0  0  0
  -29.2127  -12.0835   19.5491 C   0  0  0  0  0  0  0  0  0  0  0  0
  -28.3155  -14.1803   18.4500 C   0  0  0  0  0  0  0  0  0  0  0  0
  -26.9899  -13.0734   20.2270 C   0  0  0  0  0  0  0  0  0  0  0  0
  -25.3473  -29.5416   25.5393 C   0  0  1  0  0  0  0  0  0  0  0  0
  -24.3279  -30.8189   22.1097 C   0  0  1  0  0  0  0  0  0  0  0  0
  -28.2289  -12.3029   20.7093 C   0  0  1  0  0  0  0  0  0  0  0  0
  -28.9470  -21.4901   14.3836 C   0  0  0  0  0  0  0  0  0  0  0  0
  -18.8352  -32.0057   16.7781 C   0  0  0  0  0  0  0  0  0  0  0  0
  -20.1125  -28.9700   22.5247 C   0  0  0  0  0  0  0  0  0  0  0  0
  -18.5954  -29.2914   20.5592 C   0  0  0  0  0  0  0  0  0  0  0  0
  -19.0882  -31.2074   22.0786 C   0  0  0  0  0  0  0  0  0  0  0  0
  -22.5783  -32.5276   16.3386 C   0  0  0  0  0  0  0  0  0  0  0  0
  -28.0091  -25.4923   18.6678 C   0  0  0  0  0  0  0  0  0  1  0  0
  -28.5549  -20.6458   15.5774 C   0  0  0  0  0  0  0  0  0  0  0  0
  -20.8852  -30.3798   20.5045 C   0  0  1  0  0  0  0  0  0  0  0  0
  -20.2710  -32.2037   17.2387 C   0  0  2  0  0  0  0  0  0  0  0  0
  -19.6974  -29.9542   21.4130 C   0  0  0  0  0  0  0  0  0  0  0  0
  -26.7650  -10.3342   20.9629 N   0  0  0  0  0  0  0  0  0  0  0  0
  -27.8548  -10.9969   21.3860 N   0  0  0  0  0  0  0  0  0  0  0  0
  -27.3639  -14.3264   19.5617 N   0  0  0  0  0  0  0  0  0  0  0  0
  -23.2544  -30.3727   21.2193 N   0  0  0  0  0  0  0  0  0  0  0  0
  -29.6253  -10.9124   22.9573 N   0  0  0  0  0  0  0  0  0  0  0  0
  -27.2803   -7.1519   23.8266 N   0  0  0  0  0  0  0  0  0  0  0  0
  -25.2124  -30.2657   24.2936 N   0  0  0  0  0  0  0  0  0  0  0  0
  -20.5268  -31.3326   19.4595 N   0  0  0  0  0  0  0  0  0  0  0  0
  -21.1411  -32.3079   16.0333 N   0  3  0  0  0  0  0  0  0  0  0  0
  -29.1010   -8.3975   24.4530 O   0  0  0  0  0  0  0  0  0  0  0  0
  -25.9804  -15.6113   20.9228 O   0  0  0  0  0  0  0  0  0  0  0  0
  -23.4897  -29.0035   23.3654 O   0  0  0  0  0  0  0  0  0  0  0  0
  -21.7931  -32.0452   21.9288 O   0  0  0  0  0  0  0  0  0  0  0  0
  -21.2169  -30.0236   17.6742 O   0  0  0  0  0  0  0  0  0  0  0  0
  -22.6738   -5.4598   21.1900 O   0  0  0  0  0  0  0  0  0  0  0  0
  -26.7804  -26.1675   18.4021 O   0  0  0  0  0  0  0  0  0  1  0  0
  -28.4062  -21.4963   16.7224 O   0  0  0  0  0  0  0  0  0  0  0  0
  -20.2491   -3.5942   25.7774 F   0  0  0  0  0  0  0  0  0  0  0  0
  -19.9580   -5.7852   21.5916 F   0  0  0  0  0  0  0  0  0  0  0  0
  -27.4060  -20.6168   20.3536 S   0  0  0  0  0  0  0  0  0  0  0  0
  1  2  1  0  0  0  0
  1  5  2  0  0  0  0
  2  6  2  0  0  0  0
  3  8  2  0  0  0  0
  3 16  1  0  0  0  0
  4  9  1  0  0  0  0
  4 16  2  0  0  0  0
  5 18  1  0  0  0  0
  6 20  1  0  0  0  0
  7 10  2  0  0  0  0
  7 19  1  0  0  0  0
  8 22  1  0  0  0  0
  9 22  2  0  0  0  0
 10 23  1  0  0  0  0
 11 12  2  0  0  0  0
 11 24  1  0  0  0  0
 12 26  1  0  0  0  0
 13 21  1  0  0  0  0
 13 23  2  0  0  0  0
 14 25  1  0  0  0  0
 14 29  2  0  0  0  0
 15 26  2  0  0  0  0
 15 27  1  0  0  0  0
 16 28  1  0  0  0  0
 17 28  1  0  0  0  0
 17 31  2  0  0  0  0
 17 36  1  0  0  0  0
 18 20  2  0  0  0  0
 18 41  1  0  0  0  0
 19 21  2  0  0  0  0
 19 42  1  0  0  0  0
 20 50  1  0  0  0  0
 21 43  1  0  0  0  0
 22 78  1  0  0  0  0
 23 79  1  0  0  0  0
 24 27  2  0  0  0  0
 24 78  1  0  0  0  0
 25 30  2  0  0  0  0
 25 80  1  0  0  0  0
 26 81  1  0  0  0  0
 27 82  1  0  0  0  0
 28 64  2  0  0  0  0
 29 32  1  0  0  0  0
 29 83  1  0  0  0  0
 30 33  1  0  0  0  0
 30 83  1  0  0  0  0
 31 65  1  0  0  0  0
 31 68  1  0  0  0  0
 32 34  2  0  0  0  0
 33 35  2  0  0  0  0
 34 37  1  0  0  0  0
 35 59  1  0  0  0  0
 36 69  1  0  0  0  0
 36 73  2  0  0  0  0
 37 66  1  0  0  0  0
 37 74  2  0  0  0  0
 38 51  1  0  0  0  0
 38 70  1  0  0  0  0
 38 75  2  0  0  0  0
 39 61  1  0  0  0  0
 39 67  1  0  0  0  0
 39 76  2  0  0  0  0
 40 62  1  0  0  0  0
 40 71  1  0  0  0  0
 40 77  2  0  0  0  0
 41 44  1  0  0  0  0
 42 51  1  0  0  0  0
 43 67  1  0  0  0  0
 44 46  1  0  0  0  0
 45 47  1  0  0  0  0
 45 48  1  0  0  0  0
 46 50  1  0  0  0  0
 47 52  1  0  0  0  0
 48 66  1  0  0  0  0
 49 52  1  0  0  0  0
 49 66  1  0  0  0  0
 50 70  1  0  0  0  0
 51 67  1  0  0  0  0
 52 65  1  0  0  0  0
 53 60  1  0  0  0  0
 54 62  1  0  0  0  0
 55 63  1  0  0  0  0
 56 63  1  0  0  0  0
 57 63  1  0  0  0  0
 58 72  1  0  0  0  0
 59 79  1  0  0  0  0
 60 80  1  0  0  0  0
 61 63  1  0  0  0  0
 61 71  1  0  0  0  0
 62 72  1  0  0  0  0
 64 65  1  0  0  0  0
M  CHG  1  72   1
M  ISO  4  34 100  37 100  59 101  79 101
M  END
> <Batch ID>
0116

> <Smiles>
CCOc1cc(C=[100CH:0][100C:0](=O)N2CCCC(n3nc(-c4ccc(Oc5ccc(F)cc5F)cc4)c(C(N)=O)c3N)C2)sc1C=C[101CH2:1][101O:1]c1ccc2c(c1)CN(C(=O)C(NC(=O)C(C)NC)C(C)(C)C)C(C(=O)NC1CCCc3ccccc31)C2

> <Shape>
0.237

> <Color>
0.089

> <Negative vol penalty>
0.000

$$$$

  -OEChem-04052301433D

 87 96  0     1  0  0  0  0  0999 V2000
  -17.2122  -30.3743   23.9458 C   0  0  0  0  0  0  0  0  0  0  0  0
  -18.5504  -30.7541   23.9641 C   0  0  0  0  0  0  0  0  0  0  0  0
  -26.5313  -12.7240   20.6861 C   0  0  0  0  0  0  0  0  0  0  0  0
  -24.1287  -12.9102   20.8595 C   0  0  0  0  0  0  0  0  0  0  0  0
  -16.8552  -29.1047   23.4937 C   0  0  0  0  0  0  0  0  0  0  0  0
  -19.5326  -29.8640   23.5312 C   0  0  0  0  0  0  0  0  0  0  0  0
  -25.9019  -29.7393   20.2551 C   0  0  0  0  0  0  0  0  0  0  0  0
  -29.6904  -24.3132   20.5430 C   0  0  0  0  0  0  0  0  0  0  0  0
  -29.0984  -23.2709   19.8298 C   0  0  0  0  0  0  0  0  0  0  0  0
  -26.4006  -11.3871   20.3104 C   0  0  0  0  0  0  0  0  0  0  0  0
  -23.9980  -11.5732   20.4837 C   0  0  0  0  0  0  0  0  0  0  0  0
  -27.1895  -29.2316   20.4226 C   0  0  0  0  0  0  0  0  0  0  0  0
  -23.0477   -8.1108   19.9196 C   0  0  0  0  0  0  0  0  0  0  0  0
  -22.1590   -7.3173   20.6450 C   0  0  0  0  0  0  0  0  0  0  0  0
  -26.4483  -27.0930   19.5883 C   0  0  0  0  0  0  0  0  0  0  0  0
  -27.9955  -24.1064   22.2523 C   0  0  0  0  0  0  0  0  0  0  0  0
  -23.4248   -7.7408   22.6589 C   0  0  0  0  0  0  0  0  0  0  0  0
  -25.3953  -13.4855   20.9607 C   0  0  0  0  0  0  0  0  0  0  0  0
  -26.2134  -15.3709   22.4719 C   0  0  0  0  0  0  0  0  0  0  0  0
  -17.8326  -28.2020   23.0460 C   0  0  0  0  0  0  0  0  0  0  0  0
  -24.8735  -28.9232   19.7623 C   0  0  0  0  0  0  0  0  0  0  0  0
  -19.1884  -28.5805   23.0740 C   0  0  0  0  0  0  0  0  0  0  0  0
  -25.1491  -27.5935   19.4130 C   0  0  0  0  0  0  0  0  0  0  0  0
  -29.1390  -24.7309   21.7543 C   0  0  0  0  0  0  0  0  0  0  0  0
  -27.9549  -22.6463   20.3278 C   0  0  0  0  0  0  0  0  0  0  0  0
  -25.1340  -10.8117   20.2092 C   0  0  0  0  0  0  0  0  0  0  0  0
  -27.4622  -27.9075   20.0919 C   0  0  0  0  0  0  0  0  0  0  0  0
  -24.1251   -8.7192   20.5638 C   0  0  0  0  0  0  0  0  0  0  0  0
  -22.3475   -7.1324   22.0146 C   0  0  0  0  0  0  0  0  0  0  0  0
  -27.4035  -23.0641   21.5391 C   0  0  0  0  0  0  0  0  0  0  0  0
  -24.3136   -8.5342   21.9334 C   0  0  0  0  0  0  0  0  0  0  0  0
  -25.5297  -14.8664   21.3495 C   0  0  0  0  0  0  0  0  0  0  0  0
  -26.0466  -16.7319   22.3924 C   0  0  0  0  0  0  0  0  0  0  0  0
  -29.7342  -25.9648   23.8880 C   0  0  0  0  0  0  0  0  0  0  0  0
  -27.5373  -19.7153   18.0827 C   0  0  0  0  0  0  0  0  0  0  0  0
  -28.0822  -20.7178   18.7755 C   0  0  0  0  0  0  0  0  0  0  0  0
  -26.9349  -14.6718   23.4949 C   0  0  0  0  0  0  0  0  0  0  0  0
  -22.0950  -27.8819   20.9021 C   0  0  0  0  0  0  0  0  0  0  0  0
  -21.7516  -26.6987   17.9014 C   0  0  0  0  0  0  0  0  0  0  0  0
  -23.2370  -25.6384   15.0176 C   0  0  0  0  0  0  0  0  0  0  0  0
  -25.9265  -21.4673   19.5611 C   0  0  0  0  0  0  0  0  0  0  0  0
  -17.4027  -26.8234   22.6108 C   0  0  0  0  0  0  0  0  0  0  0  0
  -23.4962  -29.4936   19.5623 C   0  0  0  0  0  0  0  0  0  0  0  0
  -24.0849  -26.6817   18.8610 C   0  0  0  0  0  0  0  0  0  0  0  0
  -30.5132  -27.2188   24.2073 C   0  0  0  0  0  0  0  0  0  0  0  0
  -18.4702  -26.0747   21.8170 C   0  0  0  0  0  0  0  0  0  0  0  0
  -31.3369  -27.4513   22.9549 C   0  0  0  0  0  0  0  0  0  0  0  0
  -23.0285  -19.5231   19.4596 C   0  0  0  0  0  0  0  0  0  0  0  0
  -19.8264  -26.1897   22.5058 C   0  0  0  0  0  0  0  0  0  0  0  0
  -23.4690  -18.1742   20.0273 C   0  0  0  0  0  0  0  0  0  0  0  0
  -24.1048  -20.1142   18.5563 C   0  0  0  0  0  0  0  0  0  0  0  0
  -25.8871  -18.9275   19.7968 C   0  0  0  0  0  0  0  0  0  0  0  0
  -20.2806  -27.6520   22.5891 C   0  0  1  0  0  0  0  0  0  0  0  0
  -22.4057  -28.4270   19.5368 C   0  0  1  0  0  0  0  0  0  0  0  0
  -24.8354  -18.2886   20.7259 C   0  0  2  0  0  0  0  0  0  0  0  0
  -30.4604  -26.8974   21.8372 C   0  0  2  0  0  0  0  0  0  0  0  0
  -22.6981  -24.6927   12.7565 C   0  0  0  0  0  0  0  0  0  0  0  0
  -21.2107  -23.9774   19.1711 C   0  0  0  0  0  0  0  0  0  0  0  0
  -21.6245  -22.9298   16.9351 C   0  0  0  0  0  0  0  0  0  0  0  0
  -19.7368  -24.5339   17.2288 C   0  0  0  0  0  0  0  0  0  0  0  0
  -24.4523  -27.9536   13.6314 C   0  0  0  0  0  0  0  0  0  0  0  0
  -29.5080  -27.9696   21.3030 C   0  0  0  0  0  0  0  0  0  1  0  0
  -22.1110  -25.4027   17.2156 C   0  0  1  0  0  0  0  0  0  0  0  0
  -22.9520  -25.9579   13.5612 C   0  0  2  0  0  0  0  0  0  0  0  0
  -21.1906  -24.2273   17.6498 C   0  0  0  0  0  0  0  0  0  0  0  0
  -24.9701  -15.8286   20.6112 N   0  0  0  0  0  0  0  0  0  0  0  0
  -25.3018  -16.9513   21.2711 N   0  0  0  0  0  0  0  0  0  0  0  0
  -29.7463  -25.8015   22.4864 N   0  0  0  0  0  0  0  0  0  0  0  0
  -22.7525  -27.2841   18.6896 N   0  0  0  0  0  0  0  0  0  0  0  0
  -25.3879  -20.2018   19.2544 N   0  0  0  0  0  0  0  0  0  0  0  0
  -26.4657  -17.7504   23.1731 N   0  0  0  0  0  0  0  0  0  0  0  0
  -26.2394  -14.2585   24.6393 N   0  0  0  0  0  0  0  0  0  0  0  0
  -20.7922  -28.0959   21.3102 N   0  0  0  0  0  0  0  0  0  0  0  0
  -22.0911  -25.6796   15.7833 N   0  0  0  0  0  0  0  0  0  0  0  0
  -27.3422  -21.5646   19.5846 N   0  0  0  0  0  0  0  0  0  0  0  0
  -24.1066  -26.6778   12.9533 N   0  3  0  0  0  0  0  0  0  0  0  0
  -29.1979  -25.2930   24.7574 O   0  0  0  0  0  0  0  0  0  0  0  0
  -28.1635  -14.4355   23.4043 O   0  0  0  0  0  0  0  0  0  0  0  0
  -22.9718  -27.3083   21.5376 O   0  0  0  0  0  0  0  0  0  0  0  0
  -20.6267  -27.1777   17.7378 O   0  0  0  0  0  0  0  0  0  0  0  0
  -24.3630  -25.3746   15.4337 O   0  0  0  0  0  0  0  0  0  0  0  0
  -25.2028  -22.4478   19.7779 O   0  0  0  0  0  0  0  0  0  0  0  0
  -25.0060   -9.5072   19.8423 O   0  0  0  0  0  0  0  0  0  0  0  0
  -28.7180  -27.4092   20.2551 O   0  0  0  0  0  0  0  0  0  1  0  0
  -21.4932   -6.3717   22.7114 F   0  0  0  0  0  0  0  0  0  0  0  0
  -26.3037  -22.4720   22.0267 F   0  0  0  0  0  0  0  0  0  0  0  0
  -25.3460   -9.1171   22.5580 F   0  0  0  0  0  0  0  0  0  0  0  0
  1  2  1  0  0  0  0
  1  5  2  0  0  0  0
  2  6  2  0  0  0  0
  3 10  2  0  0  0  0
  3 18  1  0  0  0  0
  4 11  1  0  0  0  0
  4 18  2  0  0  0  0
  5 20  1  0  0  0  0
  6 22  1  0  0  0  0
  7 12  2  0  0  0  0
  7 21  1  0  0  0  0
  8  9  2  0  0  0  0
  8 24  1  0  0  0  0
  9 25  1  0  0  0  0
 10 26  1  0  0  0  0
 11 26  2  0  0  0  0
 12 27  1  0  0  0  0
 13 14  2  0  0  0  0
 13 28  1  0  0  0  0
 14 29  1  0  0  0  0
 15 23  1  0  0  0  0
 15 27  2  0  0  0  0
 16 24  2  0  0  0  0
 16 30  1  0  0  0  0
 17 29  2  0  0  0  0
 17 31  1  0  0  0  0
 18 32  1  0  0  0  0
 19 32  1  0  0  0  0
 19 33  2  0  0  0  0
 19 37  1  0  0  0  0
 20 22  2  0  0  0  0
 20 42  1  0  0  0  0
 21 23  2  0  0  0  0
 21 43  1  0  0  0  0
 22 53  1  0  0  0  0
 23 44  1  0  0  0  0
 24 68  1  0  0  0  0
 25 30  2  0  0  0  0
 25 75  1  0  0  0  0
 26 83  1  0  0  0  0
 27 84  1  0  0  0  0
 28 31  2  0  0  0  0
 28 83  1  0  0  0  0
 29 85  1  0  0  0  0
 30 86  1  0  0  0  0
 31 87  1  0  0  0  0
 32 66  2  0  0  0  0
 33 67  1  0  0  0  0
 33 71  1  0  0  0  0
 34 45  1  0  0  0  0
 34 68  1  0  0  0  0
 34 77  2  0  0  0  0
 35 36  2  0  0  0  0
 36 75  1  0  0  0  0
 37 72  1  0  0  0  0
 37 78  2  0  0  0  0
 38 54  1  0  0  0  0
 38 73  1  0  0  0  0
 38 79  2  0  0  0  0
 39 63  1  0  0  0  0
 39 69  1  0  0  0  0
 39 80  2  0  0  0  0
 40 64  1  0  0  0  0
 40 74  1  0  0  0  0
 40 81  2  0  0  0  0
 41 70  1  0  0  0  0
 41 75  1  0  0  0  0
 41 82  2  0  0  0  0
 42 46  1  0  0  0  0
 43 54  1  0  0  0  0
 44 69  1  0  0  0  0
 45 47  1  0  0  0  0
 46 49  1  0  0  0  0
 47 56  1  0  0  0  0
 48 50  1  0  0  0  0
 48 51  1  0  0  0  0
 49 53  1  0  0  0  0
 50 55  1  0  0  0  0
 51 70  1  0  0  0  0
 52 55  1  0  0  0  0
 52 70  1  0  0  0  0
 53 73  1  0  0  0  0
 54 69  1  0  0  0  0
 55 67  1  0  0  0  0
 56 62  1  0  0  0  0
 56 68  1  0  0  0  0
 57 64  1  0  0  0  0
 58 65  1  0  0  0  0
 59 65  1  0  0  0  0
 60 65  1  0  0  0  0
 61 76  1  0  0  0  0
 62 84  1  0  0  0  0
 63 65  1  0  0  0  0
 63 74  1  0  0  0  0
 64 76  1  0  0  0  0
 66 67  1  0  0  0  0
M  CHG  1  76   1
M  ISO  4  41 100  62 101  75 100  84 101
M  END
> <Batch ID>
0116

> <Smiles>
C=C[100N:0](c1ccc(N2C(=O)CCC2[101CH2:1][101O:1]c2ccc3c(c2)CN(C(=O)C(NC(=O)C(C)NC)C(C)(C)C)C(C(=O)NC2CCCc4ccccc42)C3)cc1F)[100C:0](=O)N1CCCC(n2nc(-c3ccc(Oc4ccc(F)cc4F)cc3)c(C(N)=O)c2N)C1

> <Shape>
0.241

> <Color>
0.090

> <Negative vol penalty>
0.000

$$$$

  -OEChem-04052301433D

 85 93  0     1  0  0  0  0  0999 V2000
  -19.4307  -33.6635   22.5403 C   0  0  0  0  0  0  0  0  0  0  0  0
  -20.7260  -33.3861   22.1152 C   0  0  0  0  0  0  0  0  0  0  0  0
  -22.5780  -10.8958   21.9579 C   0  0  0  0  0  0  0  0  0  0  0  0
  -24.4063   -9.4976   22.6924 C   0  0  0  0  0  0  0  0  0  0  0  0
  -18.7510  -32.7489   23.3436 C   0  0  0  0  0  0  0  0  0  0  0  0
  -21.3427  -32.1943   22.4943 C   0  0  0  0  0  0  0  0  0  0  0  0
  -25.2683  -28.8635   19.1774 C   0  0  0  0  0  0  0  0  0  0  0  0
  -21.8488   -9.7590   21.6092 C   0  0  0  0  0  0  0  0  0  0  0  0
  -23.6771   -8.3608   22.3437 C   0  0  0  0  0  0  0  0  0  0  0  0
  -26.6600  -28.7797   19.1767 C   0  0  0  0  0  0  0  0  0  0  0  0
  -22.1542   -5.0793   21.9819 C   0  0  0  0  0  0  0  0  0  0  0  0
  -22.1337   -4.0182   22.8870 C   0  0  0  0  0  0  0  0  0  0  0  0
  -30.9334  -19.8336   19.3311 C   0  0  0  0  0  0  0  0  0  0  0  0
  -26.5389  -26.8575   20.6292 C   0  0  0  0  0  0  0  0  0  0  0  0
  -31.9734  -22.0021   19.1001 C   0  0  0  0  0  0  0  0  0  0  0  0
  -21.1380   -5.4577   24.5523 C   0  0  0  0  0  0  0  0  0  0  0  0
  -23.8568  -10.7651   22.4995 C   0  0  0  0  0  0  0  0  0  0  0  0
  -30.0455  -20.3594   20.2696 C   0  0  0  0  0  0  0  0  0  0  0  0
  -24.6154  -12.5981   24.1033 C   0  0  0  0  0  0  0  0  0  0  0  0
  -19.3561  -31.5410   23.7247 C   0  0  0  0  0  0  0  0  0  0  0  0
  -24.5006  -27.9501   19.9140 C   0  0  0  0  0  0  0  0  0  0  0  0
  -20.6710  -31.2633   23.3046 C   0  0  0  0  0  0  0  0  0  0  0  0
  -25.1375  -26.9303   20.6355 C   0  0  0  0  0  0  0  0  0  0  0  0
  -30.1214  -21.7065   20.6233 C   0  0  0  0  0  0  0  0  0  0  0  0
  -22.3983   -8.4916   21.8021 C   0  0  0  0  0  0  0  0  0  0  0  0
  -27.2956  -27.7784   19.9050 C   0  0  0  0  0  0  0  0  0  0  0  0
  -21.6666   -6.3298   22.3621 C   0  0  0  0  0  0  0  0  0  0  0  0
  -31.0854  -22.5279   20.0385 C   0  0  0  0  0  0  0  0  0  0  0  0
  -21.6256   -4.2073   24.1721 C   0  0  0  0  0  0  0  0  0  0  0  0
  -31.8974  -20.6549   18.7464 C   0  0  0  0  0  0  0  0  0  0  0  0
  -21.1585   -6.5189   23.6473 C   0  0  0  0  0  0  0  0  0  0  0  0
  -24.6108  -11.9390   22.8594 C   0  0  0  0  0  0  0  0  0  0  0  0
  -25.4864  -13.6463   23.9333 C   0  0  0  0  0  0  0  0  0  0  0  0
  -29.0508  -19.4738   20.8609 C   0  0  0  0  0  0  0  0  0  0  0  0
  -28.1162  -18.7827   20.1772 C   0  0  0  0  0  0  0  0  0  0  0  0
  -30.3984  -26.0509   19.8582 C   0  0  0  0  0  0  0  0  0  0  0  0
  -29.2283  -26.5462   19.4391 C   0  0  0  0  0  0  0  0  0  1  0  0
  -23.8966  -12.2903   25.3051 C   0  0  0  0  0  0  0  0  0  0  0  0
  -27.1814  -17.9155   20.9221 C   0  0  0  0  0  0  0  0  0  0  0  0
  -22.4618  -28.1780   22.3420 C   0  0  0  0  0  0  0  0  0  0  0  0
  -22.0239  -25.0165   21.7627 C   0  0  0  0  0  0  0  0  0  0  0  0
  -23.2621  -22.1080   20.4767 C   0  0  0  0  0  0  0  0  0  0  0  0
  -18.5992  -30.6047   24.6331 C   0  0  0  0  0  0  0  0  0  0  0  0
  -22.9993  -28.0377   19.8828 C   0  0  0  0  0  0  0  0  0  0  0  0
  -24.3582  -25.9127   21.4264 C   0  0  0  0  0  0  0  0  0  0  0  0
  -19.1855  -29.1961   24.6811 C   0  0  0  0  0  0  0  0  0  0  0  0
  -28.7379  -14.6731   20.2179 C   0  0  0  0  0  0  0  0  0  0  0  0
  -20.6997  -29.2538   24.8559 C   0  0  0  0  0  0  0  0  0  0  0  0
  -27.7652  -13.7234   20.9119 C   0  0  0  0  0  0  0  0  0  0  0  0
  -28.0257  -15.8868   19.6228 C   0  0  0  0  0  0  0  0  0  0  0  0
  -26.2167  -15.6802   21.3037 C   0  0  0  0  0  0  0  0  0  0  0  0
  -21.3647  -29.9702   23.6743 C   0  0  1  0  0  0  0  0  0  0  0  0
  -22.3367  -27.3679   21.0827 C   0  0  1  0  0  0  0  0  0  0  0  0
  -26.9179  -14.4755   21.9505 C   0  0  1  0  0  0  0  0  0  0  0  0
  -27.7940  -22.5414   21.0386 C   0  0  0  0  0  0  0  0  0  0  0  0
  -22.6901  -19.6821   20.1848 C   0  0  0  0  0  0  0  0  0  0  0  0
  -22.6405  -24.5191   24.7093 C   0  0  0  0  0  0  0  0  0  0  0  0
  -22.9906  -22.1025   24.1563 C   0  0  0  0  0  0  0  0  0  0  0  0
  -20.7573  -23.1526   23.7925 C   0  0  0  0  0  0  0  0  0  0  0  0
  -23.3860  -22.3140   17.5269 C   0  0  0  0  0  0  0  0  0  0  0  0
  -29.1764  -22.2875   21.6286 C   0  0  0  0  0  0  0  0  0  0  0  0
  -31.0011  -24.7935   19.3203 C   0  0  0  0  0  0  0  0  0  0  0  0
  -22.6701  -23.7412   22.2476 C   0  0  1  0  0  0  0  0  0  0  0  0
  -22.6434  -21.0679   19.5602 C   0  0  2  0  0  0  0  0  0  0  0  0
  -22.2796  -23.3991   23.7132 C   0  0  0  0  0  0  0  0  0  0  0  0
  -25.4150  -12.5199   21.9651 N   0  0  0  0  0  0  0  0  0  0  0  0
  -25.9330  -13.5551   22.6478 N   0  0  0  0  0  0  0  0  0  0  0  0
  -27.1761  -16.5548   20.6202 N   0  0  0  0  0  0  0  0  0  0  0  0
  -22.8929  -26.0441   21.3696 N   0  0  0  0  0  0  0  0  0  0  0  0
  -25.9062  -14.6280   24.7594 N   0  0  0  0  0  0  0  0  0  0  0  0
  -23.0440  -11.1779   25.3074 N   0  0  0  0  0  0  0  0  0  0  0  0
  -21.4407  -29.0903   22.5278 N   0  0  0  0  0  0  0  0  0  0  0  0
  -22.3156  -22.7099   21.2785 N   0  0  0  0  0  0  0  0  0  0  0  0
  -23.3725  -21.0227   18.2612 N   0  3  0  0  0  0  0  0  0  0  0  0
  -23.9945  -12.9908   26.3410 O   0  0  0  0  0  0  0  0  0  0  0  0
  -26.4577  -18.4504   21.7640 O   0  0  0  0  0  0  0  0  0  0  0  0
  -23.4134  -27.9882   23.0904 O   0  0  0  0  0  0  0  0  0  0  0  0
  -20.7934  -25.0953   21.7272 O   0  0  0  0  0  0  0  0  0  0  0  0
  -24.4653  -22.3585   20.4833 O   0  0  0  0  0  0  0  0  0  0  0  0
  -21.6869   -7.3821   21.4622 O   0  0  0  0  0  0  0  0  0  0  0  0
  -28.6538  -27.6947   19.9066 O   0  0  0  0  0  0  0  0  0  1  0  0
  -31.1761  -23.8539   20.3727 O   0  0  0  0  0  0  0  0  0  0  0  0
  -21.6046   -3.1878   25.0406 F   0  0  0  0  0  0  0  0  0  0  0  0
  -32.7510  -20.1498   17.8461 F   0  0  0  0  0  0  0  0  0  0  0  0
  -20.6876   -7.7175   24.0179 F   0  0  0  0  0  0  0  0  0  0  0  0
  1  2  1  0  0  0  0
  1  5  2  0  0  0  0
  2  6  2  0  0  0  0
  3  8  2  0  0  0  0
  3 17  1  0  0  0  0
  4  9  1  0  0  0  0
  4 17  2  0  0  0  0
  5 20  1  0  0  0  0
  6 22  1  0  0  0  0
  7 10  2  0  0  0  0
  7 21  1  0  0  0  0
  8 25  1  0  0  0  0
  9 25  2  0  0  0  0
 10 26  1  0  0  0  0
 11 12  2  0  0  0  0
 11 27  1  0  0  0  0
 12 29  1  0  0  0  0
 13 18  2  0  0  0  0
 13 30  1  0  0  0  0
 14 23  1  0  0  0  0
 14 26  2  0  0  0  0
 15 28  1  0  0  0  0
 15 30  2  0  0  0  0
 16 29  2  0  0  0  0
 16 31  1  0  0  0  0
 17 32  1  0  0  0  0
 18 24  1  0  0  0  0
 18 34  1  0  0  0  0
 19 32  1  0  0  0  0
 19 33  2  0  0  0  0
 19 38  1  0  0  0  0
 20 22  2  0  0  0  0
 20 43  1  0  0  0  0
 21 23  2  0  0  0  0
 21 44  1  0  0  0  0
 22 52  1  0  0  0  0
 23 45  1  0  0  0  0
 24 28  2  0  0  0  0
 24 61  1  0  0  0  0
 25 80  1  0  0  0  0
 26 81  1  0  0  0  0
 27 31  2  0  0  0  0
 27 80  1  0  0  0  0
 28 82  1  0  0  0  0
 29 83  1  0  0  0  0
 30 84  1  0  0  0  0
 31 85  1  0  0  0  0
 32 66  2  0  0  0  0
 33 67  1  0  0  0  0
 33 70  1  0  0  0  0
 34 35  2  0  0  0  0
 35 39  1  0  0  0  0
 36 37  2  0  0  0  0
 36 62  1  0  0  0  0
 37 81  1  0  0  0  0
 38 71  1  0  0  0  0
 38 75  2  0  0  0  0
 39 68  1  0  0  0  0
 39 76  2  0  0  0  0
 40 53  1  0  0  0  0
 40 72  1  0  0  0  0
 40 77  2  0  0  0  0
 41 63  1  0  0  0  0
 41 69  1  0  0  0  0
 41 78  2  0  0  0  0
 42 64  1  0  0  0  0
 42 73  1  0  0  0  0
 42 79  2  0  0  0  0
 43 46  1  0  0  0  0
 44 53  1  0  0  0  0
 45 69  1  0  0  0  0
 46 48  1  0  0  0  0
 47 49  1  0  0  0  0
 47 50  1  0  0  0  0
 48 52  1  0  0  0  0
 49 54  1  0  0  0  0
 50 68  1  0  0  0  0
 51 54  1  0  0  0  0
 51 68  1  0  0  0  0
 52 72  1  0  0  0  0
 53 69  1  0  0  0  0
 54 67  1  0  0  0  0
 55 61  1  0  0  0  0
 56 64  1  0  0  0  0
 57 65  1  0  0  0  0
 58 65  1  0  0  0  0
 59 65  1  0  0  0  0
 60 74  1  0  0  0  0
 62 82  1  0  0  0  0
 63 65  1  0  0  0  0
 63 73  1  0  0  0  0
 64 74  1  0  0  0  0
 66 67  1  0  0  0  0
M  CHG  1  74   1
M  ISO  4  35 100  37 101  39 100  81 101
M  END
> <Batch ID>
0116

> <Smiles>
CCc1c(C=[100CH:0][100C:0](=O)N2CCCC(n3nc(-c4ccc(Oc5ccc(F)cc5F)cc4)c(C(N)=O)c3N)C2)cc(F)cc1OCC=[101CH:1][101O:1]c1ccc2c(c1)CN(C(=O)C(NC(=O)C(C)NC)C(C)(C)C)C(C(=O)NC1CCCc3ccccc31)C2

> <Shape>
0.226

> <Color>
0.093

> <Negative vol penalty>
0.000

$$$$

  -OEChem-04052301433D

 83 91  0     1  0  0  0  0  0999 V2000
  -24.1609  -37.8899   19.7340 C   0  0  0  0  0  0  0  0  0  0  0  0
  -24.9327  -36.9161   19.1084 C   0  0  0  0  0  0  0  0  0  0  0  0
  -24.6901   -9.3122   21.3479 C   0  0  0  0  0  0  0  0  0  0  0  0
  -23.2122  -11.1354   21.9211 C   0  0  0  0  0  0  0  0  0  0  0  0
  -23.7202  -37.6944   21.0422 C   0  0  0  0  0  0  0  0  0  0  0  0
  -25.2653  -35.7466   19.7911 C   0  0  0  0  0  0  0  0  0  0  0  0
  -26.4608  -28.7736   18.6668 C   0  0  0  0  0  0  0  0  0  0  0  0
  -24.1229   -8.5349   22.3576 C   0  0  0  0  0  0  0  0  0  0  0  0
  -22.6449  -10.3580   22.9308 C   0  0  0  0  0  0  0  0  0  0  0  0
  -27.4138  -27.7890   18.9242 C   0  0  0  0  0  0  0  0  0  0  0  0
  -21.3145   -6.7082   22.8148 C   0  0  0  0  0  0  0  0  0  0  0  0
  -20.9906   -5.3861   22.5105 C   0  0  0  0  0  0  0  0  0  0  0  0
  -25.6399  -19.0459   21.1650 C   0  0  0  0  0  0  0  0  0  0  0  0
  -26.2551  -21.3790   21.2877 C   0  0  0  0  0  0  0  0  0  0  0  0
  -26.5302  -27.5249   21.1532 C   0  0  0  0  0  0  0  0  0  0  0  0
  -27.9320  -19.7121   20.7912 C   0  0  0  0  0  0  0  0  0  0  0  0
  -22.4905   -4.6200   24.2427 C   0  0  0  0  0  0  0  0  0  0  0  0
  -24.2348  -10.6125   21.1296 C   0  0  0  0  0  0  0  0  0  0  0  0
  -25.2861  -20.3792   21.3714 C   0  0  0  0  0  0  0  0  0  0  0  0
  -24.4053  -11.5017   18.7447 C   0  0  0  0  0  0  0  0  0  0  0  0
  -24.0394  -36.5177   21.7380 C   0  0  0  0  0  0  0  0  0  0  0  0
  -25.5408  -29.1496   19.6561 C   0  0  0  0  0  0  0  0  0  0  0  0
  -24.8296  -35.5358   21.1104 C   0  0  0  0  0  0  0  0  0  0  0  0
  -25.5649  -28.5127   20.9051 C   0  0  0  0  0  0  0  0  0  0  0  0
  -26.9629  -18.7123   20.8750 C   0  0  0  0  0  0  0  0  0  0  0  0
  -23.1003   -9.0578   23.1491 C   0  0  0  0  0  0  0  0  0  0  0  0
  -27.4504  -27.1665   20.1685 C   0  0  0  0  0  0  0  0  0  0  0  0
  -22.2265   -6.9863   23.8330 C   0  0  0  0  0  0  0  0  0  0  0  0
  -27.5781  -21.0454   20.9976 C   0  0  0  0  0  0  0  0  0  0  0  0
  -21.5786   -4.3419   23.2245 C   0  0  0  0  0  0  0  0  0  0  0  0
  -22.8144   -5.9422   24.5469 C   0  0  0  0  0  0  0  0  0  0  0  0
  -24.8207  -11.4161   20.0871 C   0  0  0  0  0  0  0  0  0  0  0  0
  -25.2797  -12.3920   18.1708 C   0  0  0  0  0  0  0  0  0  0  0  0
  -23.3391  -21.8694   21.3071 C   0  0  0  0  0  0  0  0  0  0  0  0
  -23.9069  -20.7282   21.6731 C   0  0  0  0  0  0  0  0  0  0  0  0
  -23.3256  -10.8360   18.0763 C   0  0  0  0  0  0  0  0  0  0  0  0
  -24.9027  -31.8431   21.2186 C   0  0  0  0  0  0  0  0  0  0  0  0
  -22.4309  -30.1105   22.4061 C   0  0  0  0  0  0  0  0  0  0  0  0
  -21.1283  -27.0400   23.1288 C   0  0  0  0  0  0  0  0  0  0  0  0
  -28.5888  -16.8560   20.3679 C   0  0  0  0  0  0  0  0  0  0  0  0
  -23.5801  -36.3721   23.1671 C   0  0  0  0  0  0  0  0  0  0  0  0
  -24.5020  -30.1945   19.3538 C   0  0  0  0  0  0  0  0  0  0  0  0
  -24.5864  -28.8657   21.9943 C   0  0  0  0  0  0  0  0  0  0  0  0
  -23.6613  -34.9402   23.6901 C   0  0  0  0  0  0  0  0  0  0  0  0
  -29.7664  -14.0188   18.5678 C   0  0  0  0  0  0  0  0  0  0  0  0
  -25.0056  -34.3157   23.3299 C   0  0  0  0  0  0  0  0  0  0  0  0
  -28.5917  -13.0395   18.6258 C   0  0  0  0  0  0  0  0  0  0  0  0
  -29.9086  -14.8112   19.8661 C   0  0  0  0  0  0  0  0  0  0  0  0
  -27.5147  -14.5190   20.3688 C   0  0  0  0  0  0  0  0  0  0  0  0
  -25.1903  -34.2429   21.8094 C   0  0  1  0  0  0  0  0  0  0  0  0
  -23.9434  -30.8617   20.6069 C   0  0  1  0  0  0  0  0  0  0  0  0
  -27.2915  -13.7442   19.0598 C   0  0  2  0  0  0  0  0  0  0  0  0
  -19.1045  -25.9447   24.1297 C   0  0  0  0  0  0  0  0  0  0  0  0
  -23.4033  -30.8692   25.1969 C   0  0  0  0  0  0  0  0  0  0  0  0
  -21.9775  -29.0290   26.1182 C   0  0  0  0  0  0  0  0  0  0  0  0
  -20.9206  -30.9345   24.9038 C   0  0  0  0  0  0  0  0  0  0  0  0
  -20.5067  -25.6200   20.6077 C   0  0  0  0  0  0  0  0  0  0  0  0
  -29.2371  -24.0392   19.7949 C   0  0  0  0  0  0  0  0  0  0  0  0
  -28.8228  -25.4216   19.3155 C   0  0  0  0  0  0  0  0  0  1  0  0
  -28.0936  -23.3091   20.4818 C   0  0  0  0  0  0  0  0  0  0  0  0
  -22.2333  -29.2102   23.6017 C   0  0  1  0  0  0  0  0  0  0  0  0
  -19.7651  -26.4331   22.8499 C   0  0  2  0  0  0  0  0  0  0  0  0
  -22.1535  -30.0052   24.9355 C   0  0  0  0  0  0  0  0  0  0  0  0
  -25.8769  -12.1902   20.3503 N   0  0  0  0  0  0  0  0  0  0  0  0
  -26.1326  -12.7706   19.1655 N   0  0  0  0  0  0  0  0  0  0  0  0
  -23.5938  -29.8979   21.6524 N   0  0  0  0  0  0  0  0  0  0  0  0
  -28.6393  -15.4546   20.2122 N   0  0  0  0  0  0  0  0  0  0  0  0
  -25.3945  -12.8801   16.9174 N   0  0  0  0  0  0  0  0  0  0  0  0
  -22.5251   -9.9538   18.8148 N   0  0  0  0  0  0  0  0  0  0  0  0
  -27.3220  -17.3579   20.6646 N   0  0  0  0  0  0  0  0  0  0  0  0
  -24.4299  -33.1409   21.2601 N   0  0  0  0  0  0  0  0  0  0  0  0
  -21.0517  -28.4041   23.3149 N   0  0  0  0  0  0  0  0  0  0  0  0
  -19.8934  -25.2782   21.9169 N   0  3  0  0  0  0  0  0  0  0  0  0
  -23.0882  -11.0054   16.8563 O   0  0  0  0  0  0  0  0  0  0  0  0
  -25.9907  -31.4516   21.6244 O   0  0  0  0  0  0  0  0  0  0  0  0
  -21.5809  -30.9659   22.1463 O   0  0  0  0  0  0  0  0  0  0  0  0
  -22.1576  -26.3704   23.1804 O   0  0  0  0  0  0  0  0  0  0  0  0
  -29.5897  -17.5619   20.2201 O   0  0  0  0  0  0  0  0  0  0  0  0
  -22.5464   -8.2995   24.1344 O   0  0  0  0  0  0  0  0  0  0  0  0
  -28.3800  -26.2057   20.4225 O   0  0  0  0  0  0  0  0  0  1  0  0
  -28.5304  -22.0278   20.9146 O   0  0  0  0  0  0  0  0  0  0  0  0
  -21.2663   -3.0724   22.9332 F   0  0  0  0  0  0  0  0  0  0  0  0
  -23.6904   -6.2031   25.5270 F   0  0  0  0  0  0  0  0  0  0  0  0
  1  2  1  0  0  0  0
  1  5  2  0  0  0  0
  2  6  2  0  0  0  0
  3  8  2  0  0  0  0
  3 18  1  0  0  0  0
  4  9  1  0  0  0  0
  4 18  2  0  0  0  0
  5 21  1  0  0  0  0
  6 23  1  0  0  0  0
  7 10  2  0  0  0  0
  7 22  1  0  0  0  0
  8 26  1  0  0  0  0
  9 26  2  0  0  0  0
 10 27  1  0  0  0  0
 11 12  2  0  0  0  0
 11 28  1  0  0  0  0
 12 30  1  0  0  0  0
 13 19  1  0  0  0  0
 13 25  2  0  0  0  0
 14 19  2  0  0  0  0
 14 29  1  0  0  0  0
 15 24  1  0  0  0  0
 15 27  2  0  0  0  0
 16 25  1  0  0  0  0
 16 29  2  0  0  0  0
 17 30  2  0  0  0  0
 17 31  1  0  0  0  0
 18 32  1  0  0  0  0
 19 35  1  0  0  0  0
 20 32  1  0  0  0  0
 20 33  2  0  0  0  0
 20 36  1  0  0  0  0
 21 23  2  0  0  0  0
 21 41  1  0  0  0  0
 22 24  2  0  0  0  0
 22 42  1  0  0  0  0
 23 50  1  0  0  0  0
 24 43  1  0  0  0  0
 25 70  1  0  0  0  0
 26 79  1  0  0  0  0
 27 80  1  0  0  0  0
 28 31  2  0  0  0  0
 28 79  1  0  0  0  0
 29 81  1  0  0  0  0
 30 82  1  0  0  0  0
 31 83  1  0  0  0  0
 32 64  2  0  0  0  0
 33 65  1  0  0  0  0
 33 68  1  0  0  0  0
 34 35  2  0  0  0  0
 36 69  1  0  0  0  0
 36 74  2  0  0  0  0
 37 51  1  0  0  0  0
 37 71  1  0  0  0  0
 37 75  2  0  0  0  0
 38 61  1  0  0  0  0
 38 66  1  0  0  0  0
 38 76  2  0  0  0  0
 39 62  1  0  0  0  0
 39 72  1  0  0  0  0
 39 77  2  0  0  0  0
 40 67  1  0  0  0  0
 40 70  1  0  0  0  0
 40 78  2  0  0  0  0
 41 44  1  0  0  0  0
 42 51  1  0  0  0  0
 43 66  1  0  0  0  0
 44 46  1  0  0  0  0
 45 47  1  0  0  0  0
 45 48  1  0  0  0  0
 46 50  1  0  0  0  0
 47 52  1  0  0  0  0
 48 67  1  0  0  0  0
 49 52  1  0  0  0  0
 49 67  1  0  0  0  0
 50 71  1  0  0  0  0
 51 66  1  0  0  0  0
 52 65  1  0  0  0  0
 53 62  1  0  0  0  0
 54 63  1  0  0  0  0
 55 63  1  0  0  0  0
 56 63  1  0  0  0  0
 57 73  1  0  0  0  0
 58 59  1  0  0  0  0
 58 60  1  0  0  0  0
 59 80  1  0  0  0  0
 60 81  1  0  0  0  0
 61 63  1  0  0  0  0
 61 72  1  0  0  0  0
 62 73  1  0  0  0  0
 64 65  1  0  0  0  0
M  CHG  1  73   1
M  ISO  4  40 100  59 101  70 100  80 101
M  END
> <Batch ID>
0116

> <Smiles>
C=Cc1cc([100NH:0][100C:0](=O)N2CCCC(n3nc(-c4ccc(Oc5ccc(F)cc5F)cc4)c(C(N)=O)c3N)C2)cc(OCC[101CH2:1][101O:1]c2ccc3c(c2)CN(C(=O)C(NC(=O)C(C)NC)C(C)(C)C)C(C(=O)NC2CCCc4ccccc42)C3)c1

> <Shape>
0.294

> <Color>
0.091

> <Negative vol penalty>
0.000

$$$$

  -OEChem-04052301433D

 85 93  0     1  0  0  0  0  0999 V2000
  -27.2814  -32.9664   26.5569 C   0  0  0  0  0  0  0  0  0  0  0  0
  -27.5689  -31.8644   25.7579 C   0  0  0  0  0  0  0  0  0  0  0  0
  -24.7495   -8.9467   21.3583 C   0  0  0  0  0  0  0  0  0  0  0  0
  -23.0726  -10.4239   20.4403 C   0  0  0  0  0  0  0  0  0  0  0  0
  -25.9776  -33.1831   27.0007 C   0  0  0  0  0  0  0  0  0  0  0  0
  -26.5527  -30.9778   25.4030 C   0  0  0  0  0  0  0  0  0  0  0  0
  -26.7037  -29.7107   20.5024 C   0  0  0  0  0  0  0  0  0  0  0  0
  -23.7817   -7.9579   21.5351 C   0  0  0  0  0  0  0  0  0  0  0  0
  -22.1048   -9.4352   20.6170 C   0  0  0  0  0  0  0  0  0  0  0  0
  -27.6532  -28.7648   20.1183 C   0  0  0  0  0  0  0  0  0  0  0  0
  -21.3138   -7.2536   23.7346 C   0  0  0  0  0  0  0  0  0  0  0  0
  -21.3028   -6.5685   24.9495 C   0  0  0  0  0  0  0  0  0  0  0  0
  -27.5068  -20.0418   17.6946 C   0  0  0  0  0  0  0  0  0  0  0  0
  -25.9479  -27.0586   20.1262 C   0  0  0  0  0  0  0  0  0  0  0  0
  -27.4270  -20.1143   20.4823 C   0  0  0  0  0  0  0  0  0  0  0  0
  -21.6709   -4.4872   23.7790 C   0  0  0  0  0  0  0  0  0  0  0  0
  -24.3949  -10.1797   20.8109 C   0  0  0  0  0  0  0  0  0  0  0  0
  -27.5688  -18.8552   18.4252 C   0  0  0  0  0  0  0  0  0  0  0  0
  -26.1994  -11.4104   19.4929 C   0  0  0  0  0  0  0  0  0  0  0  0
  -24.9431  -32.3041   26.6431 C   0  0  0  0  0  0  0  0  0  0  0  0
  -25.3691  -29.3349   20.7122 C   0  0  0  0  0  0  0  0  0  0  0  0
  -25.2341  -31.1823   25.8435 C   0  0  0  0  0  0  0  0  0  0  0  0
  -24.9829  -28.0021   20.5104 C   0  0  0  0  0  0  0  0  0  0  0  0
  -27.3651  -21.3010   19.7517 C   0  0  0  0  0  0  0  0  0  0  0  0
  -27.5289  -18.8915   19.8190 C   0  0  0  0  0  0  0  0  0  0  0  0
  -22.4593   -8.2021   21.1644 C   0  0  0  0  0  0  0  0  0  0  0  0
  -27.2760  -27.4380   19.9329 C   0  0  0  0  0  0  0  0  0  0  0  0
  -21.5033   -6.5556   22.5418 C   0  0  0  0  0  0  0  0  0  0  0  0
  -27.4050  -21.2647   18.3579 C   0  0  0  0  0  0  0  0  0  0  0  0
  -21.4813   -5.1853   24.9717 C   0  0  0  0  0  0  0  0  0  0  0  0
  -21.6819   -5.1724   22.5641 C   0  0  0  0  0  0  0  0  0  0  0  0
  -25.3941  -11.2017   20.6286 C   0  0  0  0  0  0  0  0  0  0  0  0
  -26.9763  -12.4954   19.8175 C   0  0  0  0  0  0  0  0  0  0  0  0
  -28.6917  -17.2923   16.9048 C   0  0  0  0  0  0  0  0  0  0  0  0
  -27.6754  -17.5965   17.6967 C   0  0  0  0  0  0  0  0  0  0  0  0
  -28.8258  -24.9141   17.8847 C   0  0  0  0  0  0  0  0  0  0  0  0
  -28.0054  -25.8474   18.3809 C   0  0  0  0  0  0  0  0  0  1  0  0
  -26.2412  -10.6879   18.2551 C   0  0  0  0  0  0  0  0  0  0  0  0
  -23.3959  -29.3637   23.2040 C   0  0  0  0  0  0  0  0  0  0  0  0
  -21.2133  -28.4352   20.9912 C   0  0  0  0  0  0  0  0  0  0  0  0
  -20.5897  -26.9506   17.9822 C   0  0  0  0  0  0  0  0  0  0  0  0
  -27.5646  -17.5935   21.9778 C   0  0  0  0  0  0  0  0  0  0  0  0
  -23.5583  -32.5536   27.1860 C   0  0  0  0  0  0  0  0  0  0  0  0
  -24.3516  -30.3724   21.1004 C   0  0  0  0  0  0  0  0  0  0  0  0
  -23.5588  -27.5513   20.7030 C   0  0  0  0  0  0  0  0  0  0  0  0
  -22.4681  -31.7734   26.4559 C   0  0  0  0  0  0  0  0  0  0  0  0
  -27.6605  -14.8503   24.2456 C   0  0  0  0  0  0  0  0  0  0  0  0
  -22.8856  -30.3178   26.2718 C   0  0  0  0  0  0  0  0  0  0  0  0
  -27.1456  -13.6737   23.4133 C   0  0  0  0  0  0  0  0  0  0  0  0
  -26.9354  -16.1498   23.8999 C   0  0  0  0  0  0  0  0  0  0  0  0
  -26.4123  -15.3188   21.6405 C   0  0  0  0  0  0  0  0  0  0  0  0
  -24.1542  -30.2117   25.4169 C   0  0  1  0  0  0  0  0  0  0  0  0
  -23.1246  -29.7788   21.7857 C   0  0  1  0  0  0  0  0  0  0  0  0
  -27.1576  -14.0008   21.9072 C   0  0  2  0  0  0  0  0  0  0  0  0
  -27.2577  -22.6018   20.4767 C   0  0  0  0  0  0  0  0  0  0  0  0
  -18.7040  -26.3031   16.4583 C   0  0  0  0  0  0  0  0  0  0  0  0
  -20.5511  -26.0805   22.8151 C   0  0  0  0  0  0  0  0  0  0  0  0
  -19.4058  -24.9894   20.8745 C   0  0  0  0  0  0  0  0  0  0  0  0
  -18.5653  -27.1677   21.7526 C   0  0  0  0  0  0  0  0  0  0  0  0
  -21.6001  -28.6828   15.8056 C   0  0  0  0  0  0  0  0  0  0  0  0
  -28.5858  -24.2042   16.5827 C   0  0  0  0  0  0  0  0  0  0  0  0
  -28.4530  -22.6983   16.7760 C   0  0  0  0  0  0  0  0  0  0  0  0
  -20.7337  -27.1085   20.4538 C   0  0  1  0  0  0  0  0  0  0  0  0
  -19.7238  -27.3751   16.8098 C   0  0  2  0  0  0  0  0  0  0  0  0
  -19.8413  -26.3443   21.4722 C   0  0  0  0  0  0  0  0  0  0  0  0
  -25.6372  -12.0834   21.6020 N   0  0  0  0  0  0  0  0  0  0  0  0
  -26.6040  -12.8565   21.0789 N   0  0  0  0  0  0  0  0  0  0  0  0
  -22.6021  -28.6017   21.0888 N   0  0  0  0  0  0  0  0  0  0  0  0
  -26.9916  -16.3967   22.4575 N   0  0  0  0  0  0  0  0  0  0  0  0
  -27.9350  -13.1663   19.1441 N   0  0  0  0  0  0  0  0  0  0  0  0
  -25.3748   -9.5991   18.0874 N   0  0  0  0  0  0  0  0  0  0  0  0
  -27.5921  -17.7029   20.5878 N   0  0  0  0  0  0  0  0  0  0  0  0
  -23.8364  -30.3911   24.0165 N   0  0  0  0  0  0  0  0  0  0  0  0
  -20.0780  -27.3960   19.1827 N   0  0  0  0  0  0  0  0  0  0  0  0
  -20.5680  -27.6326   15.6089 N   0  3  0  0  0  0  0  0  0  0  0  0
  -27.0352  -10.9887   17.3317 O   0  0  0  0  0  0  0  0  0  0  0  0
  -23.2173  -28.1980   23.5371 O   0  0  0  0  0  0  0  0  0  0  0  0
  -20.3865  -29.2948   21.3058 O   0  0  0  0  0  0  0  0  0  0  0  0
  -21.6153  -26.2870   17.8470 O   0  0  0  0  0  0  0  0  0  0  0  0
  -28.0235  -18.4455   22.7429 O   0  0  0  0  0  0  0  0  0  0  0  0
  -21.5147   -7.2374   21.3366 O   0  0  0  0  0  0  0  0  0  0  0  0
  -28.2009  -26.5126   19.5586 O   0  0  0  0  0  0  0  0  0  1  0  0
  -27.3464  -22.4208   17.6244 O   0  0  0  0  0  0  0  0  0  0  0  0
  -21.4723   -4.5276   26.1386 F   0  0  0  0  0  0  0  0  0  0  0  0
  -21.8655   -4.4965   21.4216 F   0  0  0  0  0  0  0  0  0  0  0  0
  1  2  1  0  0  0  0
  1  5  2  0  0  0  0
  2  6  2  0  0  0  0
  3  8  2  0  0  0  0
  3 17  1  0  0  0  0
  4  9  1  0  0  0  0
  4 17  2  0  0  0  0
  5 20  1  0  0  0  0
  6 22  1  0  0  0  0
  7 10  2  0  0  0  0
  7 21  1  0  0  0  0
  8 26  1  0  0  0  0
  9 26  2  0  0  0  0
 10 27  1  0  0  0  0
 11 12  2  0  0  0  0
 11 28  1  0  0  0  0
 12 30  1  0  0  0  0
 13 18  1  0  0  0  0
 13 29  2  0  0  0  0
 14 23  1  0  0  0  0
 14 27  2  0  0  0  0
 15 24  2  0  0  0  0
 15 25  1  0  0  0  0
 16 30  2  0  0  0  0
 16 31  1  0  0  0  0
 17 32  1  0  0  0  0
 18 25  2  0  0  0  0
 18 35  1  0  0  0  0
 19 32  1  0  0  0  0
 19 33  2  0  0  0  0
 19 38  1  0  0  0  0
 20 22  2  0  0  0  0
 20 43  1  0  0  0  0
 21 23  2  0  0  0  0
 21 44  1  0  0  0  0
 22 52  1  0  0  0  0
 23 45  1  0  0  0  0
 24 29  1  0  0  0  0
 24 55  1  0  0  0  0
 25 72  1  0  0  0  0
 26 81  1  0  0  0  0
 27 82  1  0  0  0  0
 28 31  2  0  0  0  0
 28 81  1  0  0  0  0
 29 83  1  0  0  0  0
 30 84  1  0  0  0  0
 31 85  1  0  0  0  0
 32 66  2  0  0  0  0
 33 67  1  0  0  0  0
 33 70  1  0  0  0  0
 34 35  2  0  0  0  0
 36 37  2  0  0  0  0
 36 61  1  0  0  0  0
 37 82  1  0  0  0  0
 38 71  1  0  0  0  0
 38 76  2  0  0  0  0
 39 53  1  0  0  0  0
 39 73  1  0  0  0  0
 39 77  2  0  0  0  0
 40 63  1  0  0  0  0
 40 68  1  0  0  0  0
 40 78  2  0  0  0  0
 41 64  1  0  0  0  0
 41 74  1  0  0  0  0
 41 79  2  0  0  0  0
 42 69  1  0  0  0  0
 42 72  1  0  0  0  0
 42 80  2  0  0  0  0
 43 46  1  0  0  0  0
 44 53  1  0  0  0  0
 45 68  1  0  0  0  0
 46 48  1  0  0  0  0
 47 49  1  0  0  0  0
 47 50  1  0  0  0  0
 48 52  1  0  0  0  0
 49 54  1  0  0  0  0
 50 69  1  0  0  0  0
 51 54  1  0  0  0  0
 51 69  1  0  0  0  0
 52 73  1  0  0  0  0
 53 68  1  0  0  0  0
 54 67  1  0  0  0  0
 56 64  1  0  0  0  0
 57 65  1  0  0  0  0
 58 65  1  0  0  0  0
 59 65  1  0  0  0  0
 60 75  1  0  0  0  0
 61 62  1  0  0  0  0
 62 83  1  0  0  0  0
 63 65  1  0  0  0  0
 63 74  1  0  0  0  0
 64 75  1  0  0  0  0
 66 67  1  0  0  0  0
M  CHG  1  75   1
M  ISO  4  37 101  42 100  72 100  82 101
M  END
> <Batch ID>
0116

> <Smiles>
C=Cc1cc(OCCC=[101CH:1][101O:1]c2ccc3c(c2)CN(C(=O)C(NC(=O)C(C)NC)C(C)(C)C)C(C(=O)NC2CCCc4ccccc42)C3)c(C)cc1[100NH:0][100C:0](=O)N1CCCC(n2nc(-c3ccc(Oc4ccc(F)cc4F)cc3)c(C(N)=O)c2N)C1

> <Shape>
0.311

> <Color>
0.105

> <Negative vol penalty>
0.000

$$$$

  -OEChem-04052301433D

 82 90  0     1  0  0  0  0  0999 V2000
  -21.5993  -12.4908   19.7561 C   0  0  0  0  0  0  0  0  0  0  0  0
  -21.5178  -13.7824   20.2665 C   0  0  0  0  0  0  0  0  0  0  0  0
  -26.0057  -27.5039   15.1213 C   0  0  0  0  0  0  0  0  0  0  0  0
  -28.2605  -27.3275   15.9709 C   0  0  0  0  0  0  0  0  0  0  0  0
  -22.8209  -11.8188   19.7549 C   0  0  0  0  0  0  0  0  0  0  0  0
  -22.6577  -14.4024   20.7769 C   0  0  0  0  0  0  0  0  0  0  0  0
  -23.1270  -19.1961   19.2133 C   0  0  0  0  0  0  0  0  0  0  0  0
  -26.5025  -27.5915   13.8209 C   0  0  0  0  0  0  0  0  0  0  0  0
  -28.7574  -27.4151   14.6705 C   0  0  0  0  0  0  0  0  0  0  0  0
  -22.3330  -20.1525   19.8447 C   0  0  0  0  0  0  0  0  0  0  0  0
  -27.9095  -29.9461   11.8459 C   0  0  0  0  0  0  0  0  0  0  0  0
  -27.3656  -30.9208   11.0094 C   0  0  0  0  0  0  0  0  0  0  0  0
  -24.2125  -20.8030   21.2098 C   0  0  0  0  0  0  0  0  0  0  0  0
  -18.4399  -27.5373   22.9109 C   0  0  0  0  0  0  0  0  0  0  0  0
  -26.6499  -29.2011    9.4708 C   0  0  0  0  0  0  0  0  0  0  0  0
  -26.8847  -27.3719   16.1964 C   0  0  0  0  0  0  0  0  0  0  0  0
  -26.0178  -26.1120   18.2381 C   0  0  0  0  0  0  0  0  0  0  0  0
  -23.9784  -12.4344   20.2567 C   0  0  0  0  0  0  0  0  0  0  0  0
  -24.4691  -19.0283   19.5836 C   0  0  0  0  0  0  0  0  0  0  0  0
  -23.8957  -13.7375   20.7836 C   0  0  0  0  0  0  0  0  0  0  0  0
  -25.0221  -19.8456   20.5798 C   0  0  0  0  0  0  0  0  0  0  0  0
  -27.8783  -27.5471   13.5955 C   0  0  0  0  0  0  0  0  0  0  0  0
  -22.8749  -20.9541   20.8451 C   0  0  0  0  0  0  0  0  0  0  0  0
  -27.8237  -28.5989   11.4948 C   0  0  0  0  0  0  0  0  0  0  0  0
  -18.1889  -26.1801   22.5977 C   0  0  0  0  0  0  0  0  0  0  0  0
  -26.7358  -30.5483    9.8219 C   0  0  0  0  0  0  0  0  0  0  0  0
  -27.1939  -28.2263   10.3072 C   0  0  0  0  0  0  0  0  0  0  0  0
  -26.3722  -27.2820   17.5400 C   0  0  0  0  0  0  0  0  0  0  0  0
  -19.7609  -27.7629   22.6008 C   0  0  0  0  0  0  0  0  0  0  0  0
  -19.3743  -25.6731   22.1184 C   0  0  0  0  0  0  0  0  0  0  0  0
  -25.5916  -26.5597   19.4646 C   0  0  0  0  0  0  0  0  0  0  0  0
  -19.6463  -24.3029   21.6527 C   0  0  0  0  0  0  0  0  0  0  0  0
  -20.5956  -28.9727   22.7071 C   0  0  0  0  0  0  0  0  0  0  0  0
  -20.8216  -23.8674   21.1727 C   0  0  0  0  0  0  0  0  0  0  0  0
  -26.0693  -24.7428   17.8157 C   0  0  0  0  0  0  0  0  0  0  0  0
  -26.1757  -16.6450   20.8129 C   0  0  0  0  0  0  0  0  0  0  0  0
  -28.6536  -18.6765   20.3074 C   0  0  0  0  0  0  0  0  0  0  0  0
  -29.7305  -21.8904   19.9105 C   0  0  0  0  0  0  0  0  0  0  0  0
  -22.5630  -30.1441   22.4864 C   0  0  0  0  0  0  0  0  0  0  0  0
  -25.2667  -11.6506   20.2776 C   0  0  0  0  0  0  0  0  0  0  0  0
  -25.3196  -18.0105   18.8742 C   0  0  0  0  0  0  0  0  0  0  0  0
  -26.4629  -19.7190   21.0000 C   0  0  0  0  0  0  0  0  0  0  0  0
  -26.5041  -12.5181   20.4934 C   0  0  0  0  0  0  0  0  0  0  0  0
  -25.9253  -31.1166   21.6182 C   0  0  0  0  0  0  0  0  0  0  0  0
  -26.2746  -13.5000   21.6380 C   0  0  0  0  0  0  0  0  0  0  0  0
  -26.2972  -30.1297   20.5117 C   0  0  0  0  0  0  0  0  0  0  0  0
  -24.4475  -31.4914   21.5608 C   0  0  0  0  0  0  0  0  0  0  0  0
  -23.8948  -29.3250   20.4883 C   0  0  0  0  0  0  0  0  0  0  0  0
  -25.1151  -14.4529   21.3233 C   0  0  1  0  0  0  0  0  0  0  0  0
  -26.5340  -17.5749   19.6883 C   0  0  1  0  0  0  0  0  0  0  0  0
  -25.3724  -28.8997   20.5341 C   0  0  1  0  0  0  0  0  0  0  0  0
  -31.3241  -23.7707   19.4389 C   0  0  0  0  0  0  0  0  0  0  0  0
  -29.3997  -18.2975   23.2417 C   0  0  0  0  0  0  0  0  0  0  0  0
  -30.8441  -20.3348   23.0654 C   0  0  0  0  0  0  0  0  0  0  0  0
  -31.3424  -18.3300   21.6671 C   0  0  0  0  0  0  0  0  0  0  0  0
  -29.1903  -21.7734   17.0030 C   0  0  0  0  0  0  0  0  0  0  0  0
  -15.9037  -26.2070   23.2557 C   0  0  0  0  0  0  0  0  0  0  0  0
  -21.0463  -22.4676   20.6979 C   0  0  0  0  0  0  0  0  0  1  0  0
  -29.3308  -19.7582   21.1138 C   0  0  1  0  0  0  0  0  0  0  0  0
  -30.6518  -22.5245   18.8841 C   0  0  2  0  0  0  0  0  0  0  0  0
  -30.2016  -19.1814   22.2656 C   0  0  0  0  0  0  0  0  0  0  0  0
  -26.1870  -28.3898   18.2628 N   0  0  0  0  0  0  0  0  0  0  0  0
  -21.8405  -28.9732   22.3583 N   0  0  0  0  0  0  0  0  0  0  0  0
  -25.7116  -27.9178   19.4279 N   0  0  0  0  0  0  0  0  0  0  0  0
  -27.2521  -18.7050   20.2811 N   0  0  0  0  0  0  0  0  0  0  0  0
  -23.6019  -30.2969   21.5501 N   0  0  0  0  0  0  0  0  0  0  0  0
  -25.1296  -25.9203   20.5601 N   0  0  0  0  0  0  0  0  0  0  0  0
  -26.5331  -24.4592   16.5238 N   0  0  0  0  0  0  0  0  0  0  0  0
  -25.5446  -15.4855   20.4048 N   0  0  0  0  0  0  0  0  0  0  0  0
  -30.0696  -20.5772   20.1589 N   0  0  0  0  0  0  0  0  0  0  0  0
  -29.8841  -22.9077   17.6656 N   0  3  0  0  0  0  0  0  0  0  0  0
  -25.6992  -23.8001   18.5558 O   0  0  0  0  0  0  0  0  0  0  0  0
  -26.4526  -16.9559   21.9655 O   0  0  0  0  0  0  0  0  0  0  0  0
  -29.3429  -17.8413   19.7167 O   0  0  0  0  0  0  0  0  0  0  0  0
  -28.8050  -22.5003   20.4416 O   0  0  0  0  0  0  0  0  0  0  0  0
  -22.3325  -31.0042   23.3398 O   0  0  0  0  0  0  0  0  0  0  0  0
  -20.3376  -26.6315   22.1170 O   0  0  0  0  0  0  0  0  0  0  0  0
  -28.3635  -27.6323   12.3267 O   0  0  0  0  0  0  0  0  0  0  0  0
  -17.0409  -25.5014   22.7345 O   0  0  0  0  0  0  0  0  0  0  0  0
  -22.1019  -21.8878   21.4635 O   0  0  0  0  0  0  0  0  0  1  0  0
  -26.2121  -31.4843    9.0195 F   0  0  0  0  0  0  0  0  0  0  0  0
  -27.1073  -26.9335    9.9652 F   0  0  0  0  0  0  0  0  0  0  0  0
  1  2  1  0  0  0  0
  1  5  2  0  0  0  0
  2  6  2  0  0  0  0
  3  8  2  0  0  0  0
  3 16  1  0  0  0  0
  4  9  1  0  0  0  0
  4 16  2  0  0  0  0
  5 18  1  0  0  0  0
  6 20  1  0  0  0  0
  7 10  2  0  0  0  0
  7 19  1  0  0  0  0
  8 22  1  0  0  0  0
  9 22  2  0  0  0  0
 10 23  1  0  0  0  0
 11 12  2  0  0  0  0
 11 24  1  0  0  0  0
 12 26  1  0  0  0  0
 13 21  1  0  0  0  0
 13 23  2  0  0  0  0
 14 25  1  0  0  0  0
 14 29  2  0  0  0  0
 15 26  2  0  0  0  0
 15 27  1  0  0  0  0
 16 28  1  0  0  0  0
 17 28  1  0  0  0  0
 17 31  2  0  0  0  0
 17 35  1  0  0  0  0
 18 20  2  0  0  0  0
 18 40  1  0  0  0  0
 19 21  2  0  0  0  0
 19 41  1  0  0  0  0
 20 49  1  0  0  0  0
 21 42  1  0  0  0  0
 22 78  1  0  0  0  0
 23 80  1  0  0  0  0
 24 27  2  0  0  0  0
 24 78  1  0  0  0  0
 25 30  2  0  0  0  0
 25 79  1  0  0  0  0
 26 81  1  0  0  0  0
 27 82  1  0  0  0  0
 28 62  2  0  0  0  0
 29 33  1  0  0  0  0
 29 77  1  0  0  0  0
 30 32  1  0  0  0  0
 30 77  1  0  0  0  0
 31 64  1  0  0  0  0
 31 67  1  0  0  0  0
 32 34  2  0  0  0  0
 33 63  2  0  0  0  0
 34 58  1  0  0  0  0
 35 68  1  0  0  0  0
 35 72  2  0  0  0  0
 36 50  1  0  0  0  0
 36 69  1  0  0  0  0
 36 73  2  0  0  0  0
 37 59  1  0  0  0  0
 37 65  1  0  0  0  0
 37 74  2  0  0  0  0
 38 60  1  0  0  0  0
 38 70  1  0  0  0  0
 38 75  2  0  0  0  0
 39 63  1  0  0  0  0
 39 66  1  0  0  0  0
 39 76  2  0  0  0  0
 40 43  1  0  0  0  0
 41 50  1  0  0  0  0
 42 65  1  0  0  0  0
 43 45  1  0  0  0  0
 44 46  1  0  0  0  0
 44 47  1  0  0  0  0
 45 49  1  0  0  0  0
 46 51  1  0  0  0  0
 47 66  1  0  0  0  0
 48 51  1  0  0  0  0
 48 66  1  0  0  0  0
 49 69  1  0  0  0  0
 50 65  1  0  0  0  0
 51 64  1  0  0  0  0
 52 60  1  0  0  0  0
 53 61  1  0  0  0  0
 54 61  1  0  0  0  0
 55 61  1  0  0  0  0
 56 71  1  0  0  0  0
 57 79  1  0  0  0  0
 58 80  1  0  0  0  0
 59 61  1  0  0  0  0
 59 70  1  0  0  0  0
 60 71  1  0  0  0  0
 62 64  1  0  0  0  0
M  CHG  1  71   1
M  ISO  4  39 100  58 101  63 100  80 101
M  END
> <Batch ID>
0116

> <Smiles>
CNC(C)C(=O)NC(C(=O)N1Cc2cc([101O:1][101CH2:1]C=Cc3oc(C=[100N:0][100C:0](=O)N4CCCC(n5nc(-c6ccc(Oc7ccc(F)cc7F)cc6)c(C(N)=O)c5N)C4)cc3OC)ccc2CC1C(=O)NC1CCCc2ccccc21)C(C)(C)C

> <Shape>
0.225

> <Color>
0.083

> <Negative vol penalty>
0.000

$$$$

  -OEChem-04052301433D

 86 95  0     1  0  0  0  0  0999 V2000
  -28.8265  -33.7403   25.7294 C   0  0  0  0  0  0  0  0  0  0  0  0
  -28.7523  -32.3739   25.4786 C   0  0  0  0  0  0  0  0  0  0  0  0
  -23.1589   -9.7644   21.4400 C   0  0  0  0  0  0  0  0  0  0  0  0
  -23.8519  -10.6992   23.5574 C   0  0  0  0  0  0  0  0  0  0  0  0
  -27.6952  -34.5395   25.5705 C   0  0  0  0  0  0  0  0  0  0  0  0
  -27.5462  -31.8058   25.0699 C   0  0  0  0  0  0  0  0  0  0  0  0
  -28.1317  -28.5596   21.2274 C   0  0  0  0  0  0  0  0  0  0  0  0
  -22.4569   -8.7636   22.1116 C   0  0  0  0  0  0  0  0  0  0  0  0
  -23.1498   -9.6984   24.2290 C   0  0  0  0  0  0  0  0  0  0  0  0
  -28.6174  -27.2895   21.5352 C   0  0  0  0  0  0  0  0  0  0  0  0
  -23.1583   -5.8514   23.6773 C   0  0  0  0  0  0  0  0  0  0  0  0
  -23.2948   -4.5427   23.2143 C   0  0  0  0  0  0  0  0  0  0  0  0
  -31.4928  -19.6477   22.1472 C   0  0  0  0  0  0  0  0  0  0  0  0
  -26.3708  -26.4154   21.4458 C   0  0  0  0  0  0  0  0  0  0  0  0
  -31.7822  -17.4033   21.3011 C   0  0  0  0  0  0  0  0  0  0  0  0
  -20.9165   -4.4407   22.8016 C   0  0  0  0  0  0  0  0  0  0  0  0
  -28.6853  -20.9465   23.5823 C   0  0  0  0  0  0  0  0  0  0  0  0
  -23.8565  -10.7322   22.1629 C   0  0  0  0  0  0  0  0  0  0  0  0
  -30.1110  -19.5239   22.0030 C   0  0  0  0  0  0  0  0  0  0  0  0
  -24.0961  -13.0261   21.0728 C   0  0  0  0  0  0  0  0  0  0  0  0
  -26.4771  -33.9825   25.1503 C   0  0  0  0  0  0  0  0  0  0  0  0
  -26.7584  -28.7696   21.0369 C   0  0  0  0  0  0  0  0  0  0  0  0
  -26.3972  -32.5981   24.9065 C   0  0  0  0  0  0  0  0  0  0  0  0
  -25.8706  -27.6886   21.1332 C   0  0  0  0  0  0  0  0  0  0  0  0
  -29.5647  -18.3397   21.5080 C   0  0  0  0  0  0  0  0  0  0  0  0
  -30.4004  -17.2794   21.1570 C   0  0  0  0  0  0  0  0  0  0  0  0
  -22.4523   -8.7306   23.5061 C   0  0  0  0  0  0  0  0  0  0  0  0
  -27.7366  -26.2177   21.6473 C   0  0  0  0  0  0  0  0  0  0  0  0
  -21.9009   -6.4547   23.7025 C   0  0  0  0  0  0  0  0  0  0  0  0
  -22.1740   -3.8374   22.7764 C   0  0  0  0  0  0  0  0  0  0  0  0
  -32.3285  -18.5874   21.7962 C   0  0  0  0  0  0  0  0  0  0  0  0
  -20.7800   -5.7493   23.2646 C   0  0  0  0  0  0  0  0  0  0  0  0
  -24.5824  -11.7660   21.4697 C   0  0  0  0  0  0  0  0  0  0  0  0
  -29.2729  -20.6355   22.3739 C   0  0  0  0  0  0  0  0  0  0  0  0
  -25.1661  -13.6287   20.4575 C   0  0  0  0  0  0  0  0  0  0  0  0
  -27.9559  -22.6521   22.4123 C   0  0  0  0  0  0  0  0  0  0  0  0
  -22.7938  -13.6005   21.2449 C   0  0  0  0  0  0  0  0  0  0  0  0
  -24.5349  -30.5204   22.4841 C   0  0  0  0  0  0  0  0  0  0  0  0
  -22.6802  -29.4875   20.0314 C   0  0  0  0  0  0  0  0  0  0  0  0
  -22.1012  -27.1343   17.6285 C   0  0  0  0  0  0  0  0  0  0  0  0
  -30.5768  -14.9293   20.2670 C   0  0  0  0  0  0  0  0  0  0  0  0
  -25.2693  -34.8787   25.0381 C   0  0  0  0  0  0  0  0  0  0  0  0
  -26.2534  -30.1405   20.6790 C   0  0  0  0  0  0  0  0  0  0  0  0
  -24.3894  -27.8572   20.9180 C   0  0  0  0  0  0  0  0  0  0  0  0
  -24.1241  -34.2605   24.2403 C   0  0  0  0  0  0  0  0  0  0  0  0
  -29.6321  -11.7332   19.0140 C   0  0  0  0  0  0  0  0  0  0  0  0
  -23.8779  -32.8227   24.6863 C   0  0  0  0  0  0  0  0  0  0  0  0
  -28.1941  -11.5605   19.5086 C   0  0  0  0  0  0  0  0  0  0  0  0
  -30.5021  -12.4557   20.0410 C   0  0  0  0  0  0  0  0  0  0  0  0
  -28.5279  -13.5644   21.0118 C   0  0  0  0  0  0  0  0  0  0  0  0
  -25.1132  -31.9488   24.4376 C   0  0  1  0  0  0  0  0  0  0  0  0
  -24.7781  -30.3396   21.0124 C   0  0  1  0  0  0  0  0  0  0  0  0
  -27.5972  -12.8994   19.9846 C   0  0  2  0  0  0  0  0  0  0  0  0
  -27.6415  -18.3432   19.8993 C   0  0  0  0  0  0  0  0  0  0  0  0
  -20.4871  -26.5408   15.8010 C   0  0  0  0  0  0  0  0  0  0  0  0
  -20.6762  -28.5202   22.1190 C   0  0  0  0  0  0  0  0  0  0  0  0
  -19.5960  -27.1320   20.3373 C   0  0  0  0  0  0  0  0  0  0  0  0
  -19.6513  -29.6163   20.1182 C   0  0  0  0  0  0  0  0  0  0  0  0
  -24.2046  -27.3123   15.5542 C   0  0  0  0  0  0  0  0  0  0  0  0
  -28.0811  -18.1980   21.3511 C   0  0  0  0  0  0  0  0  0  0  0  0
  -27.2495  -23.9246   22.0477 C   0  0  0  0  0  0  0  0  0  1  0  0
  -21.7834  -28.2959   19.7974 C   0  0  1  0  0  0  0  0  0  0  0  0
  -21.7796  -27.2619   16.1504 C   0  0  2  0  0  0  0  0  0  0  0  0
  -20.4544  -28.3880   20.5990 C   0  0  0  0  0  0  0  0  0  0  0  0
  -27.9301  -22.1027   23.6063 N   0  0  0  0  0  0  0  0  0  0  0  0
  -25.8616  -11.5780   21.1346 N   0  0  0  0  0  0  0  0  0  0  0  0
  -26.1882  -12.7279   20.5206 N   0  0  0  0  0  0  0  0  0  0  0  0
  -23.9437  -29.2181   20.5763 N   0  0  0  0  0  0  0  0  0  0  0  0
  -29.8758  -13.7174   20.4422 N   0  0  0  0  0  0  0  0  0  0  0  0
  -25.3229  -14.8359   19.8741 N   0  0  0  0  0  0  0  0  0  0  0  0
  -21.8114  -12.8448   21.8992 N   0  0  0  0  0  0  0  0  0  0  0  0
  -29.8683  -16.0663   20.6540 N   0  0  0  0  0  0  0  0  0  0  0  0
  -25.2071  -31.5932   23.0379 N   0  0  0  0  0  0  0  0  0  0  0  0
  -21.6044  -28.1972   18.3529 N   0  0  0  0  0  0  0  0  0  0  0  0
  -22.8789  -26.6807   15.3291 N   0  3  0  0  0  0  0  0  0  0  0  0
  -22.5050  -14.7435   20.8162 O   0  0  0  0  0  0  0  0  0  0  0  0
  -23.7912  -29.7448   23.0733 O   0  0  0  0  0  0  0  0  0  0  0  0
  -22.2774  -30.6151   19.7347 O   0  0  0  0  0  0  0  0  0  0  0  0
  -22.7271  -26.1848   18.0945 O   0  0  0  0  0  0  0  0  0  0  0  0
  -31.7108  -14.9588   19.7820 O   0  0  0  0  0  0  0  0  0  0  0  0
  -21.7671   -7.7542   24.1618 O   0  0  0  0  0  0  0  0  0  0  0  0
  -28.2080  -24.9771   21.9484 O   0  0  0  0  0  0  0  0  0  1  0  0
  -22.3054   -2.5812   22.3303 F   0  0  0  0  0  0  0  0  0  0  0  0
  -33.6556  -18.7057   21.9341 F   0  0  0  0  0  0  0  0  0  0  0  0
  -19.5696   -6.3240   23.2854 F   0  0  0  0  0  0  0  0  0  0  0  0
  -28.8686  -21.8313   21.2130 S   0  0  0  0  0  0  0  0  0  0  0  0
  1  2  1  0  0  0  0
  1  5  2  0  0  0  0
  2  6  2  0  0  0  0
  3  8  2  0  0  0  0
  3 18  1  0  0  0  0
  4  9  1  0  0  0  0
  4 18  2  0  0  0  0
  5 21  1  0  0  0  0
  6 23  1  0  0  0  0
  7 10  2  0  0  0  0
  7 22  1  0  0  0  0
  8 27  1  0  0  0  0
  9 27  2  0  0  0  0
 10 28  1  0  0  0  0
 11 12  2  0  0  0  0
 11 29  1  0  0  0  0
 12 30  1  0  0  0  0
 13 19  1  0  0  0  0
 13 31  2  0  0  0  0
 14 24  1  0  0  0  0
 14 28  2  0  0  0  0
 15 26  2  0  0  0  0
 15 31  1  0  0  0  0
 16 30  2  0  0  0  0
 16 32  1  0  0  0  0
 17 34  2  0  0  0  0
 17 65  1  0  0  0  0
 18 33  1  0  0  0  0
 19 25  2  0  0  0  0
 19 34  1  0  0  0  0
 20 33  1  0  0  0  0
 20 35  2  0  0  0  0
 20 37  1  0  0  0  0
 21 23  2  0  0  0  0
 21 42  1  0  0  0  0
 22 24  2  0  0  0  0
 22 43  1  0  0  0  0
 23 51  1  0  0  0  0
 24 44  1  0  0  0  0
 25 26  1  0  0  0  0
 25 60  1  0  0  0  0
 26 72  1  0  0  0  0
 27 81  1  0  0  0  0
 28 82  1  0  0  0  0
 29 32  2  0  0  0  0
 29 81  1  0  0  0  0
 30 83  1  0  0  0  0
 31 84  1  0  0  0  0
 32 85  1  0  0  0  0
 33 66  2  0  0  0  0
 34 86  1  0  0  0  0
 35 67  1  0  0  0  0
 35 70  1  0  0  0  0
 36 61  1  0  0  0  0
 36 65  2  0  0  0  0
 36 86  1  0  0  0  0
 37 71  1  0  0  0  0
 37 76  2  0  0  0  0
 38 52  1  0  0  0  0
 38 73  1  0  0  0  0
 38 77  2  0  0  0  0
 39 62  1  0  0  0  0
 39 68  1  0  0  0  0
 39 78  2  0  0  0  0
 40 63  1  0  0  0  0
 40 74  1  0  0  0  0
 40 79  2  0  0  0  0
 41 69  1  0  0  0  0
 41 72  1  0  0  0  0
 41 80  2  0  0  0  0
 42 45  1  0  0  0  0
 43 52  1  0  0  0  0
 44 68  1  0  0  0  0
 45 47  1  0  0  0  0
 46 48  1  0  0  0  0
 46 49  1  0  0  0  0
 47 51  1  0  0  0  0
 48 53  1  0  0  0  0
 49 69  1  0  0  0  0
 50 53  1  0  0  0  0
 50 69  1  0  0  0  0
 51 73  1  0  0  0  0
 52 68  1  0  0  0  0
 53 67  1  0  0  0  0
 54 60  1  0  0  0  0
 55 63  1  0  0  0  0
 56 64  1  0  0  0  0
 57 64  1  0  0  0  0
 58 64  1  0  0  0  0
 59 75  1  0  0  0  0
 61 82  1  0  0  0  0
 62 64  1  0  0  0  0
 62 74  1  0  0  0  0
 63 75  1  0  0  0  0
 66 67  1  0  0  0  0
M  CHG  1  75   1
M  ISO  4  41 100  61 101  72 100  82 101
M  END
> <Batch ID>
0116

> <Smiles>
CCc1c([100NH:0][100C:0](=O)N2CCCC(n3nc(-c4ccc(Oc5ccc(F)cc5F)cc4)c(C(N)=O)c3N)C2)cc(F)cc1-c1cnc([101CH2:1][101O:1]c2ccc3c(c2)CN(C(=O)C(NC(=O)C(C)NC)C(C)(C)C)C(C(=O)NC2CCCc4ccccc42)C3)s1

> <Shape>
0.341

> <Color>
0.165

> <Negative vol penalty>
0.000

$$$$

  -OEChem-04052301433D

 88 97  0     1  0  0  0  0  0999 V2000
  -20.8679  -16.3834   22.2141 C   0  0  0  0  0  0  0  0  0  0  0  0
  -20.8445  -17.1481   21.0522 C   0  0  0  0  0  0  0  0  0  0  0  0
  -25.2988  -13.3586   21.8170 C   0  0  0  0  0  0  0  0  0  0  0  0
  -25.4051  -13.8393   19.4517 C   0  0  0  0  0  0  0  0  0  0  0  0
  -20.4852  -16.9510   23.4287 C   0  0  0  0  0  0  0  0  0  0  0  0
  -20.4374  -18.4808   21.1040 C   0  0  0  0  0  0  0  0  0  0  0  0
  -24.8152  -23.7818   18.9533 C   0  0  0  0  0  0  0  0  0  0  0  0
  -29.2983  -25.6020   18.7997 C   0  0  0  0  0  0  0  0  0  0  0  0
  -28.8015  -26.8741   18.5157 C   0  0  0  0  0  0  0  0  0  0  0  0
  -24.3152  -12.3990   21.5778 C   0  0  0  0  0  0  0  0  0  0  0  0
  -24.4215  -12.8797   19.2125 C   0  0  0  0  0  0  0  0  0  0  0  0
  -25.5149  -24.8348   18.3636 C   0  0  0  0  0  0  0  0  0  0  0  0
  -24.1650   -9.2096   20.4652 C   0  0  0  0  0  0  0  0  0  0  0  0
  -24.2885   -7.9796   21.1113 C   0  0  0  0  0  0  0  0  0  0  0  0
  -23.7900  -26.3823   19.0551 C   0  0  0  0  0  0  0  0  0  0  0  0
  -22.1591   -8.3353   22.1958 C   0  0  0  0  0  0  0  0  0  0  0  0
  -25.8438  -14.0788   20.7540 C   0  0  0  0  0  0  0  0  0  0  0  0
  -28.4477  -27.2625   20.8739 C   0  0  0  0  0  0  0  0  0  0  0  0
  -28.2531  -14.8728   21.0228 C   0  0  0  0  0  0  0  0  0  0  0  0
  -20.0825  -18.2941   23.4971 C   0  0  0  0  0  0  0  0  0  0  0  0
  -23.6063  -24.0278   19.6103 C   0  0  0  0  0  0  0  0  0  0  0  0
  -20.0478  -19.0666   22.3205 C   0  0  0  0  0  0  0  0  0  0  0  0
  -23.0909  -25.3335   19.6584 C   0  0  0  0  0  0  0  0  0  0  0  0
  -29.3696  -25.1601   20.1209 C   0  0  0  0  0  0  0  0  0  0  0  0
  -28.9444  -25.9904   21.1579 C   0  0  0  0  0  0  0  0  0  0  0  0
  -28.3763  -27.7043   19.5528 C   0  0  0  0  0  0  0  0  0  0  0  0
  -23.8765  -12.1595   20.2756 C   0  0  0  0  0  0  0  0  0  0  0  0
  -25.0034  -26.1318   18.4142 C   0  0  0  0  0  0  0  0  0  0  0  0
  -23.0385  -10.0025   20.6845 C   0  0  0  0  0  0  0  0  0  0  0  0
  -23.2856   -7.5424   21.9765 C   0  0  0  0  0  0  0  0  0  0  0  0
  -22.0356   -9.5653   21.5498 C   0  0  0  0  0  0  0  0  0  0  0  0
  -26.8595  -15.0706   21.0005 C   0  0  0  0  0  0  0  0  0  0  0  0
  -28.7717  -16.1146   21.2976 C   0  0  0  0  0  0  0  0  0  0  0  0
  -28.4409  -30.2023   19.6917 C   0  0  0  0  0  0  0  0  0  0  0  0
  -26.7695  -28.1228   22.4419 C   0  0  0  0  0  0  0  0  0  0  0  0
  -28.0016  -28.1298   21.9621 C   0  0  0  0  0  0  0  0  0  0  0  0
  -29.0110  -13.6739   20.8136 C   0  0  0  0  0  0  0  0  0  0  0  0
  -20.7271  -22.6179   21.5591 C   0  0  0  0  0  0  0  0  0  0  0  0
  -21.4514  -25.3019   22.8558 C   0  0  0  0  0  0  0  0  0  0  0  0
  -22.8326  -28.0959   24.2427 C   0  0  0  0  0  0  0  0  0  0  0  0
  -28.9443  -21.5068   20.3805 C   0  0  0  0  0  0  0  0  0  0  0  0
  -19.6326  -18.8503   24.8248 C   0  0  0  0  0  0  0  0  0  0  0  0
  -22.7883  -22.9146   20.2062 C   0  0  0  0  0  0  0  0  0  0  0  0
  -21.7697  -25.5456   20.3459 C   0  0  0  0  0  0  0  0  0  0  0  0
  -27.8168  -31.3298   18.9105 C   0  0  0  0  0  0  0  0  0  0  0  0
  -19.5722  -20.3753   24.8574 C   0  0  0  0  0  0  0  0  0  0  0  0
  -26.5343  -30.7306   18.3741 C   0  0  0  0  0  0  0  0  0  0  0  0
  -26.4967  -20.3775   22.7953 C   0  0  0  0  0  0  0  0  0  0  0  0
  -18.8709  -20.9085   23.6121 C   0  0  0  0  0  0  0  0  0  0  0  0
  -26.4913  -18.8691   22.5403 C   0  0  0  0  0  0  0  0  0  0  0  0
  -26.6571  -21.1576   21.4939 C   0  0  0  0  0  0  0  0  0  0  0  0
  -27.8578  -19.2801   20.4418 C   0  0  0  0  0  0  0  0  0  0  0  0
  -19.6360  -20.5226   22.3403 C   0  0  1  0  0  0  0  0  0  0  0  0
  -22.0452  -23.3312   21.4882 C   0  0  1  0  0  0  0  0  0  0  0  0
  -27.7213  -18.4349   21.7213 C   0  0  2  0  0  0  0  0  0  0  0  0
  -26.8381  -29.2393   18.2270 C   0  0  2  0  0  0  0  0  0  0  0  0
  -29.0274  -25.4997   22.5709 C   0  0  0  0  0  0  0  0  0  0  0  0
  -23.1991  -29.9238   25.9225 C   0  0  0  0  0  0  0  0  0  0  0  0
  -19.1151  -26.6127   21.3972 C   0  0  0  0  0  0  0  0  0  0  0  0
  -19.4904  -28.6621   22.7856 C   0  0  0  0  0  0  0  0  0  0  0  0
  -18.8679  -26.5105   23.8838 C   0  0  0  0  0  0  0  0  0  0  0  0
  -24.7526  -26.4534   25.7837 C   0  0  0  0  0  0  0  0  0  0  0  0
  -29.9067  -23.7939   20.3961 C   0  0  0  0  0  0  0  0  0  0  0  0
  -25.5439  -28.4481   18.4268 C   0  0  0  0  0  0  0  0  0  1  0  0
  -21.1904  -26.7854   22.9234 C   0  0  1  0  0  0  0  0  0  0  0  0
  -23.2216  -28.4238   25.6729 C   0  0  2  0  0  0  0  0  0  0  0  0
  -19.6869  -27.1320   22.7315 C   0  0  0  0  0  0  0  0  0  0  0  0
  -26.5146  -16.3382   21.2421 N   0  0  0  0  0  0  0  0  0  0  0  0
  -27.6990  -16.9481   21.4189 N   0  0  0  0  0  0  0  0  0  0  0  0
  -27.8736  -28.9991   19.2264 N   0  0  0  0  0  0  0  0  0  0  0  0
  -21.7204  -24.7640   21.5914 N   0  0  0  0  0  0  0  0  0  0  0  0
  -27.8561  -20.7092   20.7718 N   0  0  0  0  0  0  0  0  0  0  0  0
  -30.0362  -16.5639   21.4450 N   0  0  0  0  0  0  0  0  0  0  0  0
  -28.3198  -12.4854   20.5418 N   0  0  0  0  0  0  0  0  0  0  0  0
  -20.7903  -21.3780   22.1658 N   0  0  0  0  0  0  0  0  0  0  0  0
  -21.7517  -27.2413   24.1905 N   0  0  0  0  0  0  0  0  0  0  0  0
  -28.8615  -22.8503   20.7252 N   0  0  0  0  0  0  0  0  0  0  0  0
  -24.5930  -27.9192   25.9654 N   0  3  0  0  0  0  0  0  0  0  0  0
  -29.3462  -30.3802   20.4949 O   0  0  0  0  0  0  0  0  0  0  0  0
  -30.2634  -13.6538   20.8825 O   0  0  0  0  0  0  0  0  0  0  0  0
  -19.7252  -23.1527   21.0988 O   0  0  0  0  0  0  0  0  0  0  0  0
  -21.4129  -24.6348   23.8935 O   0  0  0  0  0  0  0  0  0  0  0  0
  -23.4256  -28.5551   23.2691 O   0  0  0  0  0  0  0  0  0  0  0  0
  -29.9206  -21.0540   19.7733 O   0  0  0  0  0  0  0  0  0  0  0  0
  -22.9169  -11.2230   20.0417 O   0  0  0  0  0  0  0  0  0  0  0  0
  -25.6939  -27.1559   17.8403 O   0  0  0  0  0  0  0  0  0  1  0  0
  -23.4037   -6.3605   22.5957 F   0  0  0  0  0  0  0  0  0  0  0  0
  -20.9505  -10.3221   21.7635 F   0  0  0  0  0  0  0  0  0  0  0  0
  1  2  1  0  0  0  0
  1  5  2  0  0  0  0
  2  6  2  0  0  0  0
  3 10  2  0  0  0  0
  3 17  1  0  0  0  0
  4 11  1  0  0  0  0
  4 17  2  0  0  0  0
  5 20  1  0  0  0  0
  6 22  1  0  0  0  0
  7 12  2  0  0  0  0
  7 21  1  0  0  0  0
  8  9  1  0  0  0  0
  8 24  2  0  0  0  0
  9 26  2  0  0  0  0
 10 27  1  0  0  0  0
 11 27  2  0  0  0  0
 12 28  1  0  0  0  0
 13 14  2  0  0  0  0
 13 29  1  0  0  0  0
 14 30  1  0  0  0  0
 15 23  1  0  0  0  0
 15 28  2  0  0  0  0
 16 30  2  0  0  0  0
 16 31  1  0  0  0  0
 17 32  1  0  0  0  0
 18 25  2  0  0  0  0
 18 26  1  0  0  0  0
 18 36  1  0  0  0  0
 19 32  1  0  0  0  0
 19 33  2  0  0  0  0
 19 37  1  0  0  0  0
 20 22  2  0  0  0  0
 20 42  1  0  0  0  0
 21 23  2  0  0  0  0
 21 43  1  0  0  0  0
 22 53  1  0  0  0  0
 23 44  1  0  0  0  0
 24 25  1  0  0  0  0
 24 63  1  0  0  0  0
 25 57  1  0  0  0  0
 26 70  1  0  0  0  0
 27 85  1  0  0  0  0
 28 86  1  0  0  0  0
 29 31  2  0  0  0  0
 29 85  1  0  0  0  0
 30 87  1  0  0  0  0
 31 88  1  0  0  0  0
 32 68  2  0  0  0  0
 33 69  1  0  0  0  0
 33 73  1  0  0  0  0
 34 45  1  0  0  0  0
 34 70  1  0  0  0  0
 34 79  2  0  0  0  0
 35 36  2  0  0  0  0
 37 74  1  0  0  0  0
 37 80  2  0  0  0  0
 38 54  1  0  0  0  0
 38 75  1  0  0  0  0
 38 81  2  0  0  0  0
 39 65  1  0  0  0  0
 39 71  1  0  0  0  0
 39 82  2  0  0  0  0
 40 66  1  0  0  0  0
 40 76  1  0  0  0  0
 40 83  2  0  0  0  0
 41 72  1  0  0  0  0
 41 77  1  0  0  0  0
 41 84  2  0  0  0  0
 42 46  1  0  0  0  0
 43 54  1  0  0  0  0
 44 71  1  0  0  0  0
 45 47  1  0  0  0  0
 46 49  1  0  0  0  0
 47 56  1  0  0  0  0
 48 50  1  0  0  0  0
 48 51  1  0  0  0  0
 49 53  1  0  0  0  0
 50 55  1  0  0  0  0
 51 72  1  0  0  0  0
 52 55  1  0  0  0  0
 52 72  1  0  0  0  0
 53 75  1  0  0  0  0
 54 71  1  0  0  0  0
 55 69  1  0  0  0  0
 56 64  1  0  0  0  0
 56 70  1  0  0  0  0
 58 66  1  0  0  0  0
 59 67  1  0  0  0  0
 60 67  1  0  0  0  0
 61 67  1  0  0  0  0
 62 78  1  0  0  0  0
 63 77  1  0  0  0  0
 64 86  1  0  0  0  0
 65 67  1  0  0  0  0
 65 76  1  0  0  0  0
 66 78  1  0  0  0  0
 68 69  1  0  0  0  0
M  CHG  1  78   1
M  ISO  4  41 100  64 101  77 100  86 101
M  END
> <Batch ID>
0116

> <Smiles>
C=Cc1c(N2C(=O)CCC2[101CH2:1][101O:1]c2ccc3c(c2)CN(C(=O)C(NC(=O)C(C)NC)C(C)(C)C)C(C(=O)NC2CCCc4ccccc42)C3)ccc(C[100NH:0][100C:0](=O)N2CCCC(n3nc(-c4ccc(Oc5ccc(F)cc5F)cc4)c(C(N)=O)c3N)C2)c1C

> <Shape>
0.224

> <Color>
0.055

> <Negative vol penalty>
0.000

$$$$

  -OEChem-04052301433D

 89 98  0     1  0  0  0  0  0999 V2000
  -17.3377  -25.6779   21.5774 C   0  0  0  0  0  0  0  0  0  0  0  0
  -18.6853  -25.3425   21.6606 C   0  0  0  0  0  0  0  0  0  0  0  0
  -24.2283   -9.4940   22.2015 C   0  0  0  0  0  0  0  0  0  0  0  0
  -24.0686   -9.0608   19.8300 C   0  0  0  0  0  0  0  0  0  0  0  0
  -30.7564  -20.4246   19.1947 C   0  0  0  0  0  0  0  0  0  0  0  0
  -16.9634  -26.9944   21.3117 C   0  0  0  0  0  0  0  0  0  0  0  0
  -19.6594  -26.3232   21.4771 C   0  0  0  0  0  0  0  0  0  0  0  0
  -23.3551  -26.0608   24.9294 C   0  0  0  0  0  0  0  0  0  0  0  0
  -30.9808  -21.7635   18.8744 C   0  0  0  0  0  0  0  0  0  0  0  0
  -23.1511   -8.6380   22.4305 C   0  0  0  0  0  0  0  0  0  0  0  0
  -22.9914   -8.2046   20.0590 C   0  0  0  0  0  0  0  0  0  0  0  0
  -24.3244  -25.0749   24.7507 C   0  0  0  0  0  0  0  0  0  0  0  0
  -22.6146   -5.3049   22.6191 C   0  0  0  0  0  0  0  0  0  0  0  0
  -22.7243   -4.3908   23.6669 C   0  0  0  0  0  0  0  0  0  0  0  0
  -29.2330  -21.0984   20.9447 C   0  0  0  0  0  0  0  0  0  0  0  0
  -25.8189  -26.7220   23.8165 C   0  0  0  0  0  0  0  0  0  0  0  0
  -20.7846   -5.3693   24.7238 C   0  0  0  0  0  0  0  0  0  0  0  0
  -24.6870   -9.7055   20.9013 C   0  0  0  0  0  0  0  0  0  0  0  0
  -29.8825  -20.0920   20.2298 C   0  0  0  0  0  0  0  0  0  0  0  0
  -27.1650  -10.2496   20.6342 C   0  0  0  0  0  0  0  0  0  0  0  0
  -17.9332  -27.9937   21.1344 C   0  0  0  0  0  0  0  0  0  0  0  0
  -23.6068  -27.3849   24.5422 C   0  0  0  0  0  0  0  0  0  0  0  0
  -19.2977  -27.6541   21.2074 C   0  0  0  0  0  0  0  0  0  0  0  0
  -24.8520  -27.7234   23.9937 C   0  0  0  0  0  0  0  0  0  0  0  0
  -30.3313  -22.7699   19.5893 C   0  0  0  0  0  0  0  0  0  0  0  0
  -29.4575  -22.4374   20.6244 C   0  0  0  0  0  0  0  0  0  0  0  0
  -22.5327   -7.9933   21.3592 C   0  0  0  0  0  0  0  0  0  0  0  0
  -25.5555  -25.4048   24.1915 C   0  0  0  0  0  0  0  0  0  0  0  0
  -21.5898   -6.2513   22.6237 C   0  0  0  0  0  0  0  0  0  0  0  0
  -21.8094   -4.4229   24.7192 C   0  0  0  0  0  0  0  0  0  0  0  0
  -20.6748   -6.2834   23.6760 C   0  0  0  0  0  0  0  0  0  0  0  0
  -25.7993  -10.5901   20.6641 C   0  0  0  0  0  0  0  0  0  0  0  0
  -27.8087  -11.4346   20.3735 C   0  0  0  0  0  0  0  0  0  0  0  0
  -28.7825  -25.9193   18.8708 C   0  0  0  0  0  0  0  0  0  0  0  0
  -29.6491  -18.6953   20.5621 C   0  0  0  0  0  0  0  0  0  0  0  0
  -28.5863  -18.2199   21.2455 C   0  0  0  0  0  0  0  0  0  0  0  0
  -27.7953   -8.9760   20.8249 C   0  0  0  0  0  0  0  0  0  0  0  0
  -28.4865  -16.7680   21.4962 C   0  0  0  0  0  0  0  0  0  0  0  0
  -22.3142  -29.3929   22.4444 C   0  0  0  0  0  0  0  0  0  0  0  0
  -24.3638  -31.5117   23.7979 C   0  0  0  0  0  0  0  0  0  0  0  0
  -27.8951  -23.2728   22.4119 C   0  0  0  0  0  0  0  0  0  0  0  0
  -27.2539  -32.0429   25.5334 C   0  0  0  0  0  0  0  0  0  0  0  0
  -17.4809  -29.3936   20.8022 C   0  0  0  0  0  0  0  0  0  0  0  0
  -22.5604  -28.4420   24.7663 C   0  0  0  0  0  0  0  0  0  0  0  0
  -25.1794  -29.1342   23.5802 C   0  0  0  0  0  0  0  0  0  0  0  0
  -27.8228  -26.2361   17.7478 C   0  0  0  0  0  0  0  0  0  0  0  0
  -18.5697  -30.4466   20.9918 C   0  0  0  0  0  0  0  0  0  0  0  0
  -27.7514  -24.9295   16.9667 C   0  0  0  0  0  0  0  0  0  0  0  0
  -26.0176  -15.9202   18.9238 C   0  0  0  0  0  0  0  0  0  0  0  0
  -19.8801  -29.9780   20.3672 C   0  0  0  0  0  0  0  0  0  0  0  0
  -25.8220  -14.4291   19.1845 C   0  0  0  0  0  0  0  0  0  0  0  0
  -29.1133  -24.3009   17.1834 C   0  0  0  0  0  0  0  0  0  0  0  0
  -26.2808  -16.6964   20.2132 C   0  0  0  0  0  0  0  0  0  0  0  0
  -27.2226  -14.6643   21.2734 C   0  0  0  0  0  0  0  0  0  0  0  0
  -20.3835  -28.6946   21.0389 C   0  0  1  0  0  0  0  0  0  0  0  0
  -22.7363  -29.6579   23.8619 C   0  0  1  0  0  0  0  0  0  0  0  0
  -27.0031  -13.8569   19.9845 C   0  0  1  0  0  0  0  0  0  0  0  0
  -28.6859  -33.8841   26.4588 C   0  0  0  0  0  0  0  0  0  0  0  0
  -25.3915  -32.1203   20.9901 C   0  0  0  0  0  0  0  0  0  0  0  0
  -27.3947  -33.2009   22.0330 C   0  0  0  0  0  0  0  0  0  0  0  0
  -25.1176  -34.1262   22.4583 C   0  0  0  0  0  0  0  0  0  0  0  0
  -26.9278  -31.0606   28.3061 C   0  0  0  0  0  0  0  0  0  0  0  0
  -30.5917  -24.1957   19.2253 C   0  0  0  0  0  0  0  0  0  0  0  0
  -27.4061  -24.6150   22.9236 C   0  0  0  0  0  0  0  0  0  1  0  0
  -25.7876  -31.9391   23.5350 C   0  0  1  0  0  0  0  0  0  0  0  0
  -27.5573  -32.9059   26.7449 C   0  0  2  0  0  0  0  0  0  0  0  0
  -25.9163  -32.8196   22.2600 C   0  0  0  0  0  0  0  0  0  0  0  0
  -25.5869  -11.8897   20.4404 N   0  0  0  0  0  0  0  0  0  0  0  0
  -26.8277  -12.3762   20.2676 N   0  0  0  0  0  0  0  0  0  0  0  0
  -29.4922  -24.7827   18.4906 N   0  0  0  0  0  0  0  0  0  0  0  0
  -27.3761  -16.0955   20.9892 N   0  0  0  0  0  0  0  0  0  0  0  0
  -24.1213  -30.1309   23.8136 N   0  0  0  0  0  0  0  0  0  0  0  0
  -29.1124  -11.7525   20.2269 N   0  0  0  0  0  0  0  0  0  0  0  0
  -26.9854   -7.8618   21.0837 N   0  0  0  0  0  0  0  0  0  0  0  0
  -28.7890  -23.4443   21.3605 N   0  0  0  0  0  0  0  0  0  0  0  0
  -20.9962  -28.9986   22.3142 N   0  0  0  0  0  0  0  0  0  0  0  0
  -26.2519  -32.5861   24.7573 N   0  0  0  0  0  0  0  0  0  0  0  0
  -27.9554  -32.0540   27.9011 N   0  3  0  0  0  0  0  0  0  0  0  0
  -28.9124  -26.5890   19.8844 O   0  0  0  0  0  0  0  0  0  0  0  0
  -29.0409   -8.8333   20.7837 O   0  0  0  0  0  0  0  0  0  0  0  0
  -29.3916  -16.2394   22.1444 O   0  0  0  0  0  0  0  0  0  0  0  0
  -23.1238  -29.5370   21.5359 O   0  0  0  0  0  0  0  0  0  0  0  0
  -23.5000  -32.3713   23.9895 O   0  0  0  0  0  0  0  0  0  0  0  0
  -27.5112  -22.2180   22.9065 O   0  0  0  0  0  0  0  0  0  0  0  0
  -27.8490  -30.9938   25.2970 O   0  0  0  0  0  0  0  0  0  0  0  0
  -21.4817   -7.1577   21.5823 O   0  0  0  0  0  0  0  0  0  0  0  0
  -26.5032  -24.4442   24.0154 O   0  0  0  0  0  0  0  0  0  1  0  0
  -21.9140   -3.5440   25.7246 F   0  0  0  0  0  0  0  0  0  0  0  0
  -19.6876   -7.1895   23.6853 F   0  0  0  0  0  0  0  0  0  0  0  0
  1  2  1  0  0  0  0
  1  6  2  0  0  0  0
  2  7  2  0  0  0  0
  3 10  2  0  0  0  0
  3 18  1  0  0  0  0
  4 11  1  0  0  0  0
  4 18  2  0  0  0  0
  5  9  2  0  0  0  0
  5 19  1  0  0  0  0
  6 21  1  0  0  0  0
  7 23  1  0  0  0  0
  8 12  2  0  0  0  0
  8 22  1  0  0  0  0
  9 25  1  0  0  0  0
 10 27  1  0  0  0  0
 11 27  2  0  0  0  0
 12 28  1  0  0  0  0
 13 14  2  0  0  0  0
 13 29  1  0  0  0  0
 14 30  1  0  0  0  0
 15 19  2  0  0  0  0
 15 26  1  0  0  0  0
 16 24  1  0  0  0  0
 16 28  2  0  0  0  0
 17 30  2  0  0  0  0
 17 31  1  0  0  0  0
 18 32  1  0  0  0  0
 19 35  1  0  0  0  0
 20 32  1  0  0  0  0
 20 33  2  0  0  0  0
 20 37  1  0  0  0  0
 21 23  2  0  0  0  0
 21 43  1  0  0  0  0
 22 24  2  0  0  0  0
 22 44  1  0  0  0  0
 23 55  1  0  0  0  0
 24 45  1  0  0  0  0
 25 26  2  0  0  0  0
 25 63  1  0  0  0  0
 26 75  1  0  0  0  0
 27 86  1  0  0  0  0
 28 87  1  0  0  0  0
 29 31  2  0  0  0  0
 29 86  1  0  0  0  0
 30 88  1  0  0  0  0
 31 89  1  0  0  0  0
 32 68  2  0  0  0  0
 33 69  1  0  0  0  0
 33 73  1  0  0  0  0
 34 46  1  0  0  0  0
 34 70  1  0  0  0  0
 34 79  2  0  0  0  0
 35 36  2  0  0  0  0
 36 38  1  0  0  0  0
 37 74  1  0  0  0  0
 37 80  2  0  0  0  0
 38 71  1  0  0  0  0
 38 81  2  0  0  0  0
 39 56  1  0  0  0  0
 39 76  1  0  0  0  0
 39 82  2  0  0  0  0
 40 65  1  0  0  0  0
 40 72  1  0  0  0  0
 40 83  2  0  0  0  0
 41 64  1  0  0  0  0
 41 75  1  0  0  0  0
 41 84  2  0  0  0  0
 42 66  1  0  0  0  0
 42 77  1  0  0  0  0
 42 85  2  0  0  0  0
 43 47  1  0  0  0  0
 44 56  1  0  0  0  0
 45 72  1  0  0  0  0
 46 48  1  0  0  0  0
 47 50  1  0  0  0  0
 48 52  1  0  0  0  0
 49 51  1  0  0  0  0
 49 53  1  0  0  0  0
 50 55  1  0  0  0  0
 51 57  1  0  0  0  0
 52 70  1  0  0  0  0
 53 71  1  0  0  0  0
 54 57  1  0  0  0  0
 54 71  1  0  0  0  0
 55 76  1  0  0  0  0
 56 72  1  0  0  0  0
 57 69  1  0  0  0  0
 58 66  1  0  0  0  0
 59 67  1  0  0  0  0
 60 67  1  0  0  0  0
 61 67  1  0  0  0  0
 62 78  1  0  0  0  0
 63 70  1  0  0  0  0
 64 87  1  0  0  0  0
 65 67  1  0  0  0  0
 65 77  1  0  0  0  0
 66 78  1  0  0  0  0
 68 69  1  0  0  0  0
M  CHG  1  78   1
M  ISO  4  36 100  38 100  64 101  87 101
M  END
> <Batch ID>
0116

> <Smiles>
CNC(C)C(=O)NC(C(=O)N1Cc2cc([101O:1][101CH2:1]C(=O)Nc3cc(C=[100CH:0][100C:0](=O)N4CCCC(n5nc(-c6ccc(Oc7ccc(F)cc7F)cc6)c(C(N)=O)c5N)C4)ccc3CN3CCCC3=O)ccc2CC1C(=O)NC1CCCc2ccccc21)C(C)(C)C

> <Shape>
0.322

> <Color>
0.117

> <Negative vol penalty>
0.000

$$$$

  -OEChem-04052301433D

 86 94  0     1  0  0  0  0  0999 V2000
  -24.8919  -39.6423   20.6894 C   0  0  0  0  0  0  0  0  0  0  0  0
  -25.3401  -38.6561   19.8164 C   0  0  0  0  0  0  0  0  0  0  0  0
  -24.2262   -9.0938   21.4619 C   0  0  0  0  0  0  0  0  0  0  0  0
  -24.7781  -10.2933   23.4852 C   0  0  0  0  0  0  0  0  0  0  0  0
  -24.9965  -39.4524   22.0667 C   0  0  0  0  0  0  0  0  0  0  0  0
  -25.8941  -37.4798   20.3203 C   0  0  0  0  0  0  0  0  0  0  0  0
  -26.4354  -30.4888   18.8546 C   0  0  0  0  0  0  0  0  0  0  0  0
  -23.8600   -7.9822   22.2207 C   0  0  0  0  0  0  0  0  0  0  0  0
  -24.4118   -9.1817   24.2441 C   0  0  0  0  0  0  0  0  0  0  0  0
  -27.3963  -29.4872   18.7228 C   0  0  0  0  0  0  0  0  0  0  0  0
  -21.2063   -6.9912   24.0670 C   0  0  0  0  0  0  0  0  0  0  0  0
  -20.0169   -6.3429   23.7348 C   0  0  0  0  0  0  0  0  0  0  0  0
  -27.4535  -29.2349   21.1212 C   0  0  0  0  0  0  0  0  0  0  0  0
  -30.4770  -18.7135   20.3927 C   0  0  0  0  0  0  0  0  0  0  0  0
  -21.2452   -4.3058   23.3121 C   0  0  0  0  0  0  0  0  0  0  0  0
  -24.6853  -10.2494   22.0941 C   0  0  0  0  0  0  0  0  0  0  0  0
  -24.2359  -12.4617   20.9062 C   0  0  0  0  0  0  0  0  0  0  0  0
  -25.5432  -38.2691   22.5878 C   0  0  0  0  0  0  0  0  0  0  0  0
  -25.9836  -30.8792   20.1234 C   0  0  0  0  0  0  0  0  0  0  0  0
  -26.0073  -37.2745   21.7058 C   0  0  0  0  0  0  0  0  0  0  0  0
  -26.4850  -30.2400   21.2662 C   0  0  0  0  0  0  0  0  0  0  0  0
  -30.7167  -20.0256   20.8009 C   0  0  0  0  0  0  0  0  0  0  0  0
  -28.1074  -19.0411   20.7310 C   0  0  0  0  0  0  0  0  0  0  0  0
  -28.3470  -20.3532   21.1392 C   0  0  0  0  0  0  0  0  0  0  0  0
  -29.1723  -18.2213   20.3578 C   0  0  0  0  0  0  0  0  0  0  0  0
  -23.9528   -8.0262   23.6118 C   0  0  0  0  0  0  0  0  0  0  0  0
  -27.9076  -28.8621   19.8563 C   0  0  0  0  0  0  0  0  0  0  0  0
  -22.4153   -6.2969   24.0217 C   0  0  0  0  0  0  0  0  0  0  0  0
  -29.6517  -20.8454   21.1741 C   0  0  0  0  0  0  0  0  0  0  0  0
  -20.0363   -5.0002   23.3573 C   0  0  0  0  0  0  0  0  0  0  0  0
  -22.4347   -4.9542   23.6443 C   0  0  0  0  0  0  0  0  0  0  0  0
  -25.0643  -11.3978   21.3108 C   0  0  0  0  0  0  0  0  0  0  0  0
  -25.0656  -13.2896   20.1901 C   0  0  0  0  0  0  0  0  0  0  0  0
  -22.8413  -12.6820   21.1555 C   0  0  0  0  0  0  0  0  0  0  0  0
  -26.0549  -33.5809   21.7965 C   0  0  0  0  0  0  0  0  0  0  0  0
  -24.2181  -31.8900   23.8676 C   0  0  0  0  0  0  0  0  0  0  0  0
  -23.2520  -28.8417   25.0597 C   0  0  0  0  0  0  0  0  0  0  0  0
  -29.9113  -15.9549   19.5430 C   0  0  0  0  0  0  0  0  0  0  0  0
  -25.6788  -38.1292   24.0833 C   0  0  0  0  0  0  0  0  0  0  0  0
  -24.9272  -31.9427   20.2471 C   0  0  0  0  0  0  0  0  0  0  0  0
  -26.0182  -30.6083   22.6500 C   0  0  0  0  0  0  0  0  0  0  0  0
  -25.9346  -36.6953   24.5403 C   0  0  0  0  0  0  0  0  0  0  0  0
  -29.7742  -12.5588   18.4824 C   0  0  0  0  0  0  0  0  0  0  0  0
  -27.0191  -36.0479   23.6850 C   0  0  0  0  0  0  0  0  0  0  0  0
  -28.4685  -12.0415   19.0904 C   0  0  0  0  0  0  0  0  0  0  0  0
  -30.4837  -13.5402   19.4136 C   0  0  0  0  0  0  0  0  0  0  0  0
  -28.3512  -14.1425   20.4902 C   0  0  0  0  0  0  0  0  0  0  0  0
  -26.5914  -35.9743   22.2143 C   0  0  1  0  0  0  0  0  0  0  0  0
  -24.9161  -32.6176   21.6153 C   0  0  1  0  0  0  0  0  0  0  0  0
  -27.5681  -13.2005   19.5612 C   0  0  2  0  0  0  0  0  0  0  0  0
  -32.1203  -20.5343   20.8338 C   0  0  0  0  0  0  0  0  0  0  0  0
  -26.7066  -18.5147   20.6952 C   0  0  0  0  0  0  0  0  0  0  0  0
  -27.1060  -21.3870   23.0570 C   0  0  0  0  0  0  0  0  0  0  0  0
  -21.7648  -27.7804   26.7799 C   0  0  0  0  0  0  0  0  0  0  0  0
  -26.2199  -32.6269   26.0493 C   0  0  0  0  0  0  0  0  0  0  0  0
  -25.2389  -30.8105   27.4658 C   0  0  0  0  0  0  0  0  0  0  0  0
  -23.8226  -32.7363   26.7530 C   0  0  0  0  0  0  0  0  0  0  0  0
  -21.6676  -27.4370   22.9919 C   0  0  0  0  0  0  0  0  0  0  0  0
  -27.2105  -21.2378   21.5430 C   0  0  0  0  0  0  0  0  0  0  0  0
  -29.3859  -25.5664   20.1369 C   0  0  0  0  0  0  0  0  0  0  0  0
  -29.4014  -24.4433   21.1680 C   0  0  0  0  0  0  0  0  0  0  0  0
  -28.8621  -26.8672   20.7311 C   0  0  0  0  0  0  0  0  0  1  0  0
  -29.8842  -23.1322   20.5640 C   0  0  0  0  0  0  0  0  0  0  0  0
  -24.4903  -30.9913   25.0497 C   0  0  1  0  0  0  0  0  0  0  0  0
  -21.8786  -28.2593   25.3410 C   0  0  2  0  0  0  0  0  0  0  0  0
  -24.9533  -31.7854   26.3036 C   0  0  0  0  0  0  0  0  0  0  0  0
  -26.3234  -11.5346   20.8868 N   0  0  0  0  0  0  0  0  0  0  0  0
  -26.2925  -12.6943   20.2083 N   0  0  0  0  0  0  0  0  0  0  0  0
  -24.9885  -31.6583   22.7193 N   0  0  0  0  0  0  0  0  0  0  0  0
  -29.5709  -14.6129   19.8148 N   0  0  0  0  0  0  0  0  0  0  0  0
  -24.8580  -14.4615   19.5529 N   0  0  0  0  0  0  0  0  0  0  0  0
  -22.1391  -11.7319   21.9094 N   0  0  0  0  0  0  0  0  0  0  0  0
  -28.9516  -16.8851   19.9410 N   0  0  0  0  0  0  0  0  0  0  0  0
  -25.6581  -34.8867   22.0131 N   0  0  0  0  0  0  0  0  0  0  0  0
  -23.2774  -30.2066   25.2536 N   0  0  0  0  0  0  0  0  0  0  0  0
  -21.6112  -27.1038   24.4386 N   0  3  0  0  0  0  0  0  0  0  0  0
  -22.2320  -13.6833   20.7086 O   0  0  0  0  0  0  0  0  0  0  0  0
  -27.2081  -33.1697   21.7452 O   0  0  0  0  0  0  0  0  0  0  0  0
  -23.3489  -32.7607   23.9573 O   0  0  0  0  0  0  0  0  0  0  0  0
  -24.2077  -28.1540   24.7070 O   0  0  0  0  0  0  0  0  0  0  0  0
  -30.9634  -16.2548   18.9729 O   0  0  0  0  0  0  0  0  0  0  0  0
  -23.5953   -6.9417   24.3526 O   0  0  0  0  0  0  0  0  0  0  0  0
  -28.8460  -27.8846   19.7306 O   0  0  0  0  0  0  0  0  0  1  0  0
  -29.8893  -22.1344   21.5756 O   0  0  0  0  0  0  0  0  0  0  0  0
  -18.8938   -4.3773   23.0398 F   0  0  0  0  0  0  0  0  0  0  0  0
  -23.5930   -4.2816   23.6000 F   0  0  0  0  0  0  0  0  0  0  0  0
  1  2  1  0  0  0  0
  1  5  2  0  0  0  0
  2  6  2  0  0  0  0
  3  8  2  0  0  0  0
  3 16  1  0  0  0  0
  4  9  1  0  0  0  0
  4 16  2  0  0  0  0
  5 18  1  0  0  0  0
  6 20  1  0  0  0  0
  7 10  2  0  0  0  0
  7 19  1  0  0  0  0
  8 26  1  0  0  0  0
  9 26  2  0  0  0  0
 10 27  1  0  0  0  0
 11 12  2  0  0  0  0
 11 28  1  0  0  0  0
 12 30  1  0  0  0  0
 13 21  1  0  0  0  0
 13 27  2  0  0  0  0
 14 22  2  0  0  0  0
 14 25  1  0  0  0  0
 15 30  2  0  0  0  0
 15 31  1  0  0  0  0
 16 32  1  0  0  0  0
 17 32  1  0  0  0  0
 17 33  2  0  0  0  0
 17 34  1  0  0  0  0
 18 20  2  0  0  0  0
 18 39  1  0  0  0  0
 19 21  2  0  0  0  0
 19 40  1  0  0  0  0
 20 48  1  0  0  0  0
 21 41  1  0  0  0  0
 22 29  1  0  0  0  0
 22 51  1  0  0  0  0
 23 24  1  0  0  0  0
 23 25  2  0  0  0  0
 23 52  1  0  0  0  0
 24 29  2  0  0  0  0
 24 59  1  0  0  0  0
 25 73  1  0  0  0  0
 26 82  1  0  0  0  0
 27 83  1  0  0  0  0
 28 31  2  0  0  0  0
 28 82  1  0  0  0  0
 29 84  1  0  0  0  0
 30 85  1  0  0  0  0
 31 86  1  0  0  0  0
 32 67  2  0  0  0  0
 33 68  1  0  0  0  0
 33 71  1  0  0  0  0
 34 72  1  0  0  0  0
 34 77  2  0  0  0  0
 35 49  1  0  0  0  0
 35 74  1  0  0  0  0
 35 78  2  0  0  0  0
 36 64  1  0  0  0  0
 36 69  1  0  0  0  0
 36 79  2  0  0  0  0
 37 65  1  0  0  0  0
 37 75  1  0  0  0  0
 37 80  2  0  0  0  0
 38 70  1  0  0  0  0
 38 73  1  0  0  0  0
 38 81  2  0  0  0  0
 39 42  1  0  0  0  0
 40 49  1  0  0  0  0
 41 69  1  0  0  0  0
 42 44  1  0  0  0  0
 43 45  1  0  0  0  0
 43 46  1  0  0  0  0
 44 48  1  0  0  0  0
 45 50  1  0  0  0  0
 46 70  1  0  0  0  0
 47 50  1  0  0  0  0
 47 70  1  0  0  0  0
 48 74  1  0  0  0  0
 49 69  1  0  0  0  0
 50 68  1  0  0  0  0
 53 59  1  0  0  0  0
 54 65  1  0  0  0  0
 55 66  1  0  0  0  0
 56 66  1  0  0  0  0
 57 66  1  0  0  0  0
 58 76  1  0  0  0  0
 60 61  1  0  0  0  0
 60 62  1  0  0  0  0
 61 63  1  0  0  0  0
 62 83  1  0  0  0  0
 63 84  1  0  0  0  0
 64 66  1  0  0  0  0
 64 75  1  0  0  0  0
 65 76  1  0  0  0  0
 67 68  1  0  0  0  0
M  CHG  1  76   1
M  ISO  4  38 100  62 101  73 100  83 101
M  END
> <Batch ID>
0116

> <Smiles>
CCc1c(C)c([100NH:0][100C:0](=O)N2CCCC(n3nc(-c4ccc(Oc5ccc(F)cc5F)cc4)c(C(N)=O)c3N)C2)cc(C)c1OCCC[101CH2:1][101O:1]c1ccc2c(c1)CN(C(=O)C(NC(=O)C(C)NC)C(C)(C)C)C(C(=O)NC1CCCc3ccccc31)C2

> <Shape>
0.332

> <Color>
0.105

> <Negative vol penalty>
0.000

$$$$

  -OEChem-04052301433D

 86 94  0     1  0  0  0  0  0999 V2000
  -16.8295  -28.5233   24.0294 C   0  0  0  0  0  0  0  0  0  0  0  0
  -17.4873  -27.7170   23.1061 C   0  0  0  0  0  0  0  0  0  0  0  0
  -26.3437  -12.2544   21.1176 C   0  0  0  0  0  0  0  0  0  0  0  0
  -25.0736  -13.9801   20.0014 C   0  0  0  0  0  0  0  0  0  0  0  0
  -17.2841  -29.8192   24.2701 C   0  0  0  0  0  0  0  0  0  0  0  0
  -18.5995  -28.2065   22.4221 C   0  0  0  0  0  0  0  0  0  0  0  0
  -22.3997  -24.8638   22.2484 C   0  0  0  0  0  0  0  0  0  0  0  0
  -25.1592  -11.5955   21.4468 C   0  0  0  0  0  0  0  0  0  0  0  0
  -23.8891  -13.3212   20.3306 C   0  0  0  0  0  0  0  0  0  0  0  0
  -22.2945  -23.8279   21.3213 C   0  0  0  0  0  0  0  0  0  0  0  0
  -22.6983  -11.8955   23.7443 C   0  0  0  0  0  0  0  0  0  0  0  0
  -22.5640  -11.4178   25.0478 C   0  0  0  0  0  0  0  0  0  0  0  0
  -23.7673  -25.0215   19.8295 C   0  0  0  0  0  0  0  0  0  0  0  0
  -27.4731  -21.4261   19.3112 C   0  0  0  0  0  0  0  0  0  0  0  0
  -29.0843  -19.6537   17.8810 C   0  0  0  0  0  0  0  0  0  0  0  0
  -22.3166   -9.1696   24.1984 C   0  0  0  0  0  0  0  0  0  0  0  0
  -26.3009  -13.4467   20.3949 C   0  0  0  0  0  0  0  0  0  0  0  0
  -28.3021  -13.9507   18.8952 C   0  0  0  0  0  0  0  0  0  0  0  0
  -18.4082  -30.3215   23.5958 C   0  0  0  0  0  0  0  0  0  0  0  0
  -23.1820  -25.9933   21.9680 C   0  0  0  0  0  0  0  0  0  0  0  0
  -19.0687  -29.5108   22.6531 C   0  0  0  0  0  0  0  0  0  0  0  0
  -23.8828  -26.0693   20.7558 C   0  0  0  0  0  0  0  0  0  0  0  0
  -28.8302  -21.3172   19.6146 C   0  0  0  0  0  0  0  0  0  0  0  0
  -26.9216  -20.6488   18.2927 C   0  0  0  0  0  0  0  0  0  0  0  0
  -29.6358  -20.4310   18.8995 C   0  0  0  0  0  0  0  0  0  0  0  0
  -23.9319  -12.1289   21.0533 C   0  0  0  0  0  0  0  0  0  0  0  0
  -22.9761  -23.9079   20.1105 C   0  0  0  0  0  0  0  0  0  0  0  0
  -22.6416  -11.0103   22.6677 C   0  0  0  0  0  0  0  0  0  0  0  0
  -22.3733  -10.0548   25.2749 C   0  0  0  0  0  0  0  0  0  0  0  0
  -27.7271  -19.7626   17.5777 C   0  0  0  0  0  0  0  0  0  0  0  0
  -22.4508   -9.6474   22.8948 C   0  0  0  0  0  0  0  0  0  0  0  0
  -27.5242  -14.1281   20.0551 C   0  0  0  0  0  0  0  0  0  0  0  0
  -29.3514  -14.8235   19.0488 C   0  0  0  0  0  0  0  0  0  0  0  0
  -33.3310  -20.4546   18.5108 C   0  0  0  0  0  0  0  0  0  0  0  0
  -32.0256  -20.5667   18.2550 C   0  0  0  0  0  0  0  0  0  0  0  0
  -24.7401  -20.4769   18.9531 C   0  0  0  0  0  0  0  0  0  0  0  0
  -28.0946  -13.0753   17.7788 C   0  0  0  0  0  0  0  0  0  0  0  0
  -22.5996  -29.1012   21.6439 C   0  0  0  0  0  0  0  0  0  0  0  0
  -25.8315  -29.2885   21.4393 C   0  0  0  0  0  0  0  0  0  0  0  0
  -28.7836  -27.7361   20.7166 C   0  0  0  0  0  0  0  0  0  0  0  0
  -31.4330  -19.7402   20.4439 C   0  0  0  0  0  0  0  0  0  0  0  0
  -18.8339  -31.7451   23.8547 C   0  0  0  0  0  0  0  0  0  0  0  0
  -23.3065  -27.0900   22.9898 C   0  0  0  0  0  0  0  0  0  0  0  0
  -24.7521  -27.2511   20.4151 C   0  0  0  0  0  0  0  0  0  0  0  0
  -20.2449  -32.0578   23.3632 C   0  0  0  0  0  0  0  0  0  0  0  0
  -30.8636  -17.4965   23.0574 C   0  0  0  0  0  0  0  0  0  0  0  0
  -20.4486  -31.5224   21.9494 C   0  0  0  0  0  0  0  0  0  0  0  0
  -30.0025  -16.4039   22.4246 C   0  0  0  0  0  0  0  0  0  0  0  0
  -30.4539  -18.8759   22.5542 C   0  0  0  0  0  0  0  0  0  0  0  0
  -29.6405  -17.9254   20.4192 C   0  0  0  0  0  0  0  0  0  0  0  0
  -20.2936  -29.9974   21.9094 C   0  0  1  0  0  0  0  0  0  0  0  0
  -23.7205  -28.4273   22.3835 C   0  0  1  0  0  0  0  0  0  0  0  0
  -30.0198  -16.5067   20.8893 C   0  0  2  0  0  0  0  0  0  0  0  0
  -29.3947  -22.1618   20.7107 C   0  0  0  0  0  0  0  0  0  0  0  0
  -22.6456  -19.1805   18.9706 C   0  0  0  0  0  0  0  0  0  0  0  0
  -31.2550  -28.1571   20.6052 C   0  0  0  0  0  0  0  0  0  0  0  0
  -25.4526  -30.8053   18.8190 C   0  0  0  0  0  0  0  0  0  0  0  0
  -27.8607  -30.3631   18.2957 C   0  0  0  0  0  0  0  0  0  0  0  0
  -27.2499  -31.7155   20.3008 C   0  0  0  0  0  0  0  0  0  0  0  0
  -29.3431  -25.6852   22.7756 C   0  0  0  0  0  0  0  0  0  0  0  0
  -22.6581  -21.5843   19.7159 C   0  0  0  0  0  0  0  0  0  1  0  0
  -23.2446  -20.5632   18.7446 C   0  0  1  0  0  0  0  0  0  0  0  0
  -26.8373  -29.2212   20.3155 C   0  0  1  0  0  0  0  0  0  0  0  0
  -30.1003  -27.6751   21.4696 C   0  0  2  0  0  0  0  0  0  0  0  0
  -26.8323  -30.5047   19.4380 C   0  0  0  0  0  0  0  0  0  0  0  0
  -28.0358  -15.0417   20.8843 N   0  0  0  0  0  0  0  0  0  0  0  0
  -25.5545  -20.7593   17.9888 N   0  0  0  0  0  0  0  0  0  0  0  0
  -29.1465  -15.4461   20.2448 N   0  0  0  0  0  0  0  0  0  0  0  0
  -24.8366  -28.3007   21.4440 N   0  0  0  0  0  0  0  0  0  0  0  0
  -30.4784  -18.9315   21.0922 N   0  0  0  0  0  0  0  0  0  0  0  0
  -30.4203  -15.1113   18.2761 N   0  0  0  0  0  0  0  0  0  0  0  0
  -26.9654  -12.2450   17.7816 N   0  0  0  0  0  0  0  0  0  0  0  0
  -21.4852  -29.3547   22.4208 N   0  0  0  0  0  0  0  0  0  0  0  0
  -28.1242  -28.9270   20.9365 N   0  0  0  0  0  0  0  0  0  0  0  0
  -31.0470  -20.3025   19.1994 N   0  0  0  0  0  0  0  0  0  0  0  0
  -30.3867  -26.2772   21.8997 N   0  3  0  0  0  0  0  0  0  0  0  0
  -28.8958  -13.0188   16.8152 O   0  0  0  0  0  0  0  0  0  0  0  0
  -22.7362  -29.3726   20.4567 O   0  0  0  0  0  0  0  0  0  0  0  0
  -25.9294  -30.1804   22.2859 O   0  0  0  0  0  0  0  0  0  0  0  0
  -28.3820  -26.8206   20.0017 O   0  0  0  0  0  0  0  0  0  0  0  0
  -32.5427  -19.9657   20.9440 O   0  0  0  0  0  0  0  0  0  0  0  0
  -22.7758  -11.4861   21.3741 O   0  0  0  0  0  0  0  0  0  0  0  0
  -22.8747  -22.8984   19.2035 O   0  0  0  0  0  0  0  0  0  1  0  0
  -22.2459   -9.5959   26.5269 F   0  0  0  0  0  0  0  0  0  0  0  0
  -27.2056  -19.0124   16.5969 F   0  0  0  0  0  0  0  0  0  0  0  0
  -22.3967   -8.7920   21.8646 F   0  0  0  0  0  0  0  0  0  0  0  0
  1  2  1  0  0  0  0
  1  5  2  0  0  0  0
  2  6  2  0  0  0  0
  3  8  2  0  0  0  0
  3 17  1  0  0  0  0
  4  9  1  0  0  0  0
  4 17  2  0  0  0  0
  5 19  1  0  0  0  0
  6 21  1  0  0  0  0
  7 10  2  0  0  0  0
  7 20  1  0  0  0  0
  8 26  1  0  0  0  0
  9 26  2  0  0  0  0
 10 27  1  0  0  0  0
 11 12  2  0  0  0  0
 11 28  1  0  0  0  0
 12 29  1  0  0  0  0
 13 22  1  0  0  0  0
 13 27  2  0  0  0  0
 14 23  1  0  0  0  0
 14 24  2  0  0  0  0
 15 25  1  0  0  0  0
 15 30  2  0  0  0  0
 16 29  2  0  0  0  0
 16 31  1  0  0  0  0
 17 32  1  0  0  0  0
 18 32  1  0  0  0  0
 18 33  2  0  0  0  0
 18 37  1  0  0  0  0
 19 21  2  0  0  0  0
 19 42  1  0  0  0  0
 20 22  2  0  0  0  0
 20 43  1  0  0  0  0
 21 51  1  0  0  0  0
 22 44  1  0  0  0  0
 23 25  2  0  0  0  0
 23 54  1  0  0  0  0
 24 30  1  0  0  0  0
 24 67  1  0  0  0  0
 25 75  1  0  0  0  0
 26 82  1  0  0  0  0
 27 83  1  0  0  0  0
 28 31  2  0  0  0  0
 28 82  1  0  0  0  0
 29 84  1  0  0  0  0
 30 85  1  0  0  0  0
 31 86  1  0  0  0  0
 32 66  2  0  0  0  0
 33 68  1  0  0  0  0
 33 71  1  0  0  0  0
 34 35  2  0  0  0  0
 35 75  1  0  0  0  0
 36 62  1  0  0  0  0
 36 67  2  0  0  0  0
 37 72  1  0  0  0  0
 37 77  2  0  0  0  0
 38 52  1  0  0  0  0
 38 73  1  0  0  0  0
 38 78  2  0  0  0  0
 39 63  1  0  0  0  0
 39 69  1  0  0  0  0
 39 79  2  0  0  0  0
 40 64  1  0  0  0  0
 40 74  1  0  0  0  0
 40 80  2  0  0  0  0
 41 70  1  0  0  0  0
 41 75  1  0  0  0  0
 41 81  2  0  0  0  0
 42 45  1  0  0  0  0
 43 52  1  0  0  0  0
 44 69  1  0  0  0  0
 45 47  1  0  0  0  0
 46 48  1  0  0  0  0
 46 49  1  0  0  0  0
 47 51  1  0  0  0  0
 48 53  1  0  0  0  0
 49 70  1  0  0  0  0
 50 53  1  0  0  0  0
 50 70  1  0  0  0  0
 51 73  1  0  0  0  0
 52 69  1  0  0  0  0
 53 68  1  0  0  0  0
 55 62  1  0  0  0  0
 56 64  1  0  0  0  0
 57 65  1  0  0  0  0
 58 65  1  0  0  0  0
 59 65  1  0  0  0  0
 60 76  1  0  0  0  0
 61 62  1  0  0  0  0
 61 83  1  0  0  0  0
 63 65  1  0  0  0  0
 63 74  1  0  0  0  0
 64 76  1  0  0  0  0
 66 68  1  0  0  0  0
M  CHG  1  76   1
M  ISO  4  41 100  61 101  75 100  83 101
M  END
> <Batch ID>
0116

> <Smiles>
C=C[100N:0](c1cc(F)c(NC=C(C)[101CH2:1][101O:1]c2ccc3c(c2)CN(C(=O)C(NC(=O)C(C)NC)C(C)(C)C)C(C(=O)NC2CCCc4ccccc42)C3)cc1C)[100C:0](=O)N1CCCC(n2nc(-c3ccc(Oc4ccc(F)cc4F)cc3)c(C(N)=O)c2N)C1

> <Shape>
0.261

> <Color>
0.075

> <Negative vol penalty>
0.000

$$$$

  -OEChem-04052301433D

 87 95  0     1  0  0  0  0  0999 V2000
  -25.7766  -35.2932   22.4442 C   0  0  0  0  0  0  0  0  0  0  0  0
  -26.3757  -34.0474   22.2875 C   0  0  0  0  0  0  0  0  0  0  0  0
  -28.5602   -9.8252   18.6818 C   0  0  0  0  0  0  0  0  0  0  0  0
  -28.7221  -11.1577   16.6730 C   0  0  0  0  0  0  0  0  0  0  0  0
  -24.5136  -35.3898   23.0269 C   0  0  0  0  0  0  0  0  0  0  0  0
  -25.7125  -32.8975   22.7146 C   0  0  0  0  0  0  0  0  0  0  0  0
  -25.9571  -29.1422   19.3258 C   0  0  0  0  0  0  0  0  0  0  0  0
  -28.3352   -8.6864   17.9083 C   0  0  0  0  0  0  0  0  0  0  0  0
  -28.4971  -10.0189   15.8995 C   0  0  0  0  0  0  0  0  0  0  0  0
  -27.1487  -28.4215   19.2590 C   0  0  0  0  0  0  0  0  0  0  0  0
  -27.3604   -5.4904   16.4735 C   0  0  0  0  0  0  0  0  0  0  0  0
  -26.3386   -4.6273   16.8692 C   0  0  0  0  0  0  0  0  0  0  0  0
  -26.1542  -26.6663   20.5817 C   0  0  0  0  0  0  0  0  0  0  0  0
  -28.5422  -21.1396   17.8679 C   0  0  0  0  0  0  0  0  0  0  0  0
  -26.9267  -22.2074   19.3125 C   0  0  0  0  0  0  0  0  0  0  0  0
  -24.7337   -6.4172   16.6285 C   0  0  0  0  0  0  0  0  0  0  0  0
  -28.7536  -11.0608   18.0641 C   0  0  0  0  0  0  0  0  0  0  0  0
  -30.2273  -12.7399   19.2956 C   0  0  0  0  0  0  0  0  0  0  0  0
  -23.8305  -34.2396   23.4524 C   0  0  0  0  0  0  0  0  0  0  0  0
  -24.8568  -28.6345   20.0315 C   0  0  0  0  0  0  0  0  0  0  0  0
  -24.4398  -32.9789   23.3047 C   0  0  0  0  0  0  0  0  0  0  0  0
  -24.9490  -27.3814   20.6538 C   0  0  0  0  0  0  0  0  0  0  0  0
  -26.3600  -20.1504   18.1790 C   0  0  0  0  0  0  0  0  0  0  0  0
  -28.1926  -22.1811   18.7273 C   0  0  0  0  0  0  0  0  0  0  0  0
  -28.3037   -8.7833   16.5172 C   0  0  0  0  0  0  0  0  0  0  0  0
  -27.2483  -27.1847   19.8894 C   0  0  0  0  0  0  0  0  0  0  0  0
  -27.0689   -6.8169   16.1555 C   0  0  0  0  0  0  0  0  0  0  0  0
  -27.6259  -20.1242   17.5937 C   0  0  0  0  0  0  0  0  0  0  0  0
  -25.0252   -5.0907   16.9466 C   0  0  0  0  0  0  0  0  0  0  0  0
  -26.0104  -21.1920   19.0383 C   0  0  0  0  0  0  0  0  0  0  0  0
  -25.7555   -7.2803   16.2329 C   0  0  0  0  0  0  0  0  0  0  0  0
  -28.9855  -12.2376   18.8626 C   0  0  0  0  0  0  0  0  0  0  0  0
  -29.9100  -13.8656   20.0158 C   0  0  0  0  0  0  0  0  0  0  0  0
  -29.0800  -24.2231   18.2100 C   0  0  0  0  0  0  0  0  0  0  0  0
  -31.5493  -12.2342   19.0672 C   0  0  0  0  0  0  0  0  0  0  0  0
  -23.1767  -29.5883   22.5556 C   0  0  0  0  0  0  0  0  0  0  0  0
  -21.3097  -27.0506   21.7828 C   0  0  0  0  0  0  0  0  0  0  0  0
  -21.0383  -24.0137   20.2498 C   0  0  0  0  0  0  0  0  0  0  0  0
  -25.2325  -17.6015   19.8918 C   0  0  0  0  0  0  0  0  0  0  0  0
  -22.4873  -34.3982   24.1198 C   0  0  0  0  0  0  0  0  0  0  0  0
  -23.5699  -29.4121   20.0716 C   0  0  0  0  0  0  0  0  0  0  0  0
  -23.7901  -26.7828   21.4069 C   0  0  0  0  0  0  0  0  0  0  0  0
  -21.6917  -33.0982   24.2041 C   0  0  0  0  0  0  0  0  0  0  0  0
  -26.4111  -15.7387   22.6878 C   0  0  0  0  0  0  0  0  0  0  0  0
  -22.5789  -31.9606   24.6997 C   0  0  0  0  0  0  0  0  0  0  0  0
  -27.3166  -14.6755   22.0636 C   0  0  0  0  0  0  0  0  0  0  0  0
  -25.1975  -16.0331   21.8089 C   0  0  0  0  0  0  0  0  0  0  0  0
  -26.4207  -15.3268   19.7894 C   0  0  0  0  0  0  0  0  0  0  0  0
  -23.7416  -31.7063   23.7327 C   0  0  1  0  0  0  0  0  0  0  0  0
  -22.6793  -29.0332   21.2509 C   0  0  1  0  0  0  0  0  0  0  0  0
  -27.6874  -15.0365   20.6126 C   0  0  2  0  0  0  0  0  0  0  0  0
  -28.9247  -16.9189   16.5964 C   0  0  0  0  0  0  0  0  0  0  0  0
  -30.8946  -25.5229   17.1684 C   0  0  0  0  0  0  0  0  0  0  0  0
  -19.3980  -22.1640   19.8192 C   0  0  0  0  0  0  0  0  0  0  0  0
  -21.6428  -26.0889   24.6593 C   0  0  0  0  0  0  0  0  0  0  0  0
  -20.8206  -23.8398   23.9289 C   0  0  0  0  0  0  0  0  0  0  0  0
  -19.3333  -25.8330   23.7346 C   0  0  0  0  0  0  0  0  0  0  0  0
  -21.2240  -24.3746   17.3182 C   0  0  0  0  0  0  0  0  0  0  0  0
  -25.3694  -19.0696   17.8955 C   0  0  0  0  0  0  0  0  0  0  0  0
  -29.1089  -18.3243   17.1281 C   0  0  0  0  0  0  0  0  0  0  0  0
  -29.2151  -26.6563   18.6611 C   0  0  0  0  0  0  0  0  0  1  0  0
  -30.0248  -25.3866   18.4119 C   0  0  1  0  0  0  0  0  0  0  0  0
  -21.2891  -25.5869   22.1516 C   0  0  1  0  0  0  0  0  0  0  0  0
  -19.9994  -23.4577   19.2927 C   0  0  2  0  0  0  0  0  0  0  0  0
  -20.7941  -25.3490   23.6061 C   0  0  0  0  0  0  0  0  0  0  0  0
  -27.9562  -12.9829   19.2734 N   0  0  0  0  0  0  0  0  0  0  0  0
  -29.1156  -23.2032   19.0046 N   0  0  0  0  0  0  0  0  0  0  0  0
  -28.5505  -13.9650   19.9723 N   0  0  0  0  0  0  0  0  0  0  0  0
  -22.5553  -27.5843   21.4229 N   0  0  0  0  0  0  0  0  0  0  0  0
  -25.6179  -16.3700   20.4467 N   0  0  0  0  0  0  0  0  0  0  0  0
  -30.6641  -14.7702   20.6757 N   0  0  0  0  0  0  0  0  0  0  0  0
  -31.6959  -11.0669   18.3056 N   0  0  0  0  0  0  0  0  0  0  0  0
  -23.2846  -30.9657   22.5764 N   0  0  0  0  0  0  0  0  0  0  0  0
  -20.4877  -24.9201   21.1310 N   0  0  0  0  0  0  0  0  0  0  0  0
  -25.6786  -17.8445   18.5985 N   0  0  0  0  0  0  0  0  0  0  0  0
  -20.6143  -23.1833   17.9632 N   0  3  0  0  0  0  0  0  0  0  0  0
  -32.5694  -12.7916   19.5388 O   0  0  0  0  0  0  0  0  0  0  0  0
  -23.4414  -28.8235   23.4758 O   0  0  0  0  0  0  0  0  0  0  0  0
  -20.2581  -27.6950   21.8062 O   0  0  0  0  0  0  0  0  0  0  0  0
  -22.2193  -23.6748   20.2212 O   0  0  0  0  0  0  0  0  0  0  0  0
  -24.5465  -18.4259   20.5056 O   0  0  0  0  0  0  0  0  0  0  0  0
  -28.0844   -7.6723   15.7621 O   0  0  0  0  0  0  0  0  0  0  0  0
  -28.4104  -26.4794   19.8263 O   0  0  0  0  0  0  0  0  0  1  0  0
  -27.9835  -19.1148   16.7511 O   0  0  0  0  0  0  0  0  0  0  0  0
  -24.0438   -4.2614   17.3251 F   0  0  0  0  0  0  0  0  0  0  0  0
  -24.7962  -21.2266   19.6053 F   0  0  0  0  0  0  0  0  0  0  0  0
  -25.4692   -8.5532   15.9275 F   0  0  0  0  0  0  0  0  0  0  0  0
  1  2  1  0  0  0  0
  1  5  2  0  0  0  0
  2  6  2  0  0  0  0
  3  8  2  0  0  0  0
  3 17  1  0  0  0  0
  4  9  1  0  0  0  0
  4 17  2  0  0  0  0
  5 19  1  0  0  0  0
  6 21  1  0  0  0  0
  7 10  2  0  0  0  0
  7 20  1  0  0  0  0
  8 25  1  0  0  0  0
  9 25  2  0  0  0  0
 10 26  1  0  0  0  0
 11 12  2  0  0  0  0
 11 27  1  0  0  0  0
 12 29  1  0  0  0  0
 13 22  1  0  0  0  0
 13 26  2  0  0  0  0
 14 24  2  0  0  0  0
 14 28  1  0  0  0  0
 15 24  1  0  0  0  0
 15 30  2  0  0  0  0
 16 29  2  0  0  0  0
 16 31  1  0  0  0  0
 17 32  1  0  0  0  0
 18 32  1  0  0  0  0
 18 33  2  0  0  0  0
 18 35  1  0  0  0  0
 19 21  2  0  0  0  0
 19 40  1  0  0  0  0
 20 22  2  0  0  0  0
 20 41  1  0  0  0  0
 21 49  1  0  0  0  0
 22 42  1  0  0  0  0
 23 28  2  0  0  0  0
 23 30  1  0  0  0  0
 23 59  1  0  0  0  0
 24 67  1  0  0  0  0
 25 82  1  0  0  0  0
 26 83  1  0  0  0  0
 27 31  2  0  0  0  0
 27 82  1  0  0  0  0
 28 84  1  0  0  0  0
 29 85  1  0  0  0  0
 30 86  1  0  0  0  0
 31 87  1  0  0  0  0
 32 66  2  0  0  0  0
 33 68  1  0  0  0  0
 33 71  1  0  0  0  0
 34 62  1  0  0  0  0
 34 67  2  0  0  0  0
 35 72  1  0  0  0  0
 35 77  2  0  0  0  0
 36 50  1  0  0  0  0
 36 73  1  0  0  0  0
 36 78  2  0  0  0  0
 37 63  1  0  0  0  0
 37 69  1  0  0  0  0
 37 79  2  0  0  0  0
 38 64  1  0  0  0  0
 38 74  1  0  0  0  0
 38 80  2  0  0  0  0
 39 70  1  0  0  0  0
 39 75  1  0  0  0  0
 39 81  2  0  0  0  0
 40 43  1  0  0  0  0
 41 50  1  0  0  0  0
 42 69  1  0  0  0  0
 43 45  1  0  0  0  0
 44 46  1  0  0  0  0
 44 47  1  0  0  0  0
 45 49  1  0  0  0  0
 46 51  1  0  0  0  0
 47 70  1  0  0  0  0
 48 51  1  0  0  0  0
 48 70  1  0  0  0  0
 49 73  1  0  0  0  0
 50 69  1  0  0  0  0
 51 68  1  0  0  0  0
 52 60  1  0  0  0  0
 53 62  1  0  0  0  0
 54 64  1  0  0  0  0
 55 65  1  0  0  0  0
 56 65  1  0  0  0  0
 57 65  1  0  0  0  0
 58 76  1  0  0  0  0
 59 75  1  0  0  0  0
 60 84  1  0  0  0  0
 61 62  1  0  0  0  0
 61 83  1  0  0  0  0
 63 65  1  0  0  0  0
 63 74  1  0  0  0  0
 64 76  1  0  0  0  0
 66 68  1  0  0  0  0
M  CHG  1  76   1
M  ISO  4  39 100  61 101  75 100  83 101
M  END
> <Batch ID>
0116

> <Smiles>
CCOc1cc(NC=C(C)[101CH2:1][101O:1]c2ccc3c(c2)CN(C(=O)C(NC(=O)C(C)NC)C(C)(C)C)C(C(=O)NC2CCCc4ccccc42)C3)cc(F)c1C[100NH:0][100C:0](=O)N1CCCC(n2nc(-c3ccc(Oc4ccc(F)cc4F)cc3)c(C(N)=O)c2N)C1

> <Shape>
0.220

> <Color>
0.090

> <Negative vol penalty>
0.000

$$$$

  -OEChem-04052301433D

 85 94  0     1  0  0  0  0  0999 V2000
  -29.4995  -35.8924   19.4529 C   0  0  0  0  0  0  0  0  0  0  0  0
  -29.8243  -34.5539   19.2566 C   0  0  0  0  0  0  0  0  0  0  0  0
  -23.0636   -9.8524   20.0129 C   0  0  0  0  0  0  0  0  0  0  0  0
  -23.7824   -9.9623   22.3168 C   0  0  0  0  0  0  0  0  0  0  0  0
  -28.6052  -36.2509   20.4607 C   0  0  0  0  0  0  0  0  0  0  0  0
  -29.2558  -33.5733   20.0687 C   0  0  0  0  0  0  0  0  0  0  0  0
  -27.6787  -27.8893   18.4223 C   0  0  0  0  0  0  0  0  0  0  0  0
  -22.3046   -8.7188   20.3037 C   0  0  0  0  0  0  0  0  0  0  0  0
  -23.0234   -8.8287   22.6077 C   0  0  0  0  0  0  0  0  0  0  0  0
  -28.3196  -26.6594   18.5654 C   0  0  0  0  0  0  0  0  0  0  0  0
  -19.3236   -8.0174   21.7370 C   0  0  0  0  0  0  0  0  0  0  0  0
  -18.0253   -7.9592   21.2307 C   0  0  0  0  0  0  0  0  0  0  0  0
  -27.0471  -26.2365   20.5707 C   0  0  0  0  0  0  0  0  0  0  0  0
  -31.1982  -17.6364   20.4442 C   0  0  0  0  0  0  0  0  0  0  0  0
  -29.5371  -17.9225   22.1752 C   0  0  0  0  0  0  0  0  0  0  0  0
  -18.5903   -5.9506   20.0128 C   0  0  0  0  0  0  0  0  0  0  0  0
  -23.8026  -10.4741   21.0194 C   0  0  0  0  0  0  0  0  0  0  0  0
  -24.1701  -12.9877   20.7858 C   0  0  0  0  0  0  0  0  0  0  0  0
  -28.0180  -35.2733   21.2793 C   0  0  0  0  0  0  0  0  0  0  0  0
  -26.7235  -28.3075   19.3599 C   0  0  0  0  0  0  0  0  0  0  0  0
  -28.3539  -33.9192   21.0892 C   0  0  0  0  0  0  0  0  0  0  0  0
  -26.3937  -27.4710   20.4358 C   0  0  0  0  0  0  0  0  0  0  0  0
  -31.3784  -19.0184   20.3887 C   0  0  0  0  0  0  0  0  0  0  0  0
  -29.7174  -19.3046   22.1196 C   0  0  0  0  0  0  0  0  0  0  0  0
  -30.6380  -19.8525   21.2264 C   0  0  0  0  0  0  0  0  0  0  0  0
  -30.2775  -17.0884   21.3375 C   0  0  0  0  0  0  0  0  0  0  0  0
  -22.2845   -8.2070   21.6011 C   0  0  0  0  0  0  0  0  0  0  0  0
  -28.0059  -25.8341   19.6413 C   0  0  0  0  0  0  0  0  0  0  0  0
  -20.2554   -7.0423   21.3812 C   0  0  0  0  0  0  0  0  0  0  0  0
  -17.6586   -6.9258   20.3686 C   0  0  0  0  0  0  0  0  0  0  0  0
  -19.8887   -6.0089   20.5191 C   0  0  0  0  0  0  0  0  0  0  0  0
  -24.5872  -11.6448   20.7195 C   0  0  0  0  0  0  0  0  0  0  0  0
  -25.2755  -13.7097   20.4073 C   0  0  0  0  0  0  0  0  0  0  0  0
  -30.4857  -23.4696   20.7112 C   0  0  0  0  0  0  0  0  0  0  0  0
  -29.7892  -24.5927   20.5070 C   0  0  0  0  0  0  0  0  0  1  0  0
  -22.8972  -13.5337   21.1564 C   0  0  0  0  0  0  0  0  0  0  0  0
  -26.4874  -30.7442   21.3873 C   0  0  0  0  0  0  0  0  0  0  0  0
  -23.5189  -29.5352   21.8860 C   0  0  0  0  0  0  0  0  0  0  0  0
  -21.4338  -26.8358   21.7751 C   0  0  0  0  0  0  0  0  0  0  0  0
  -30.7472  -14.7160   20.6321 C   0  0  0  0  0  0  0  0  0  0  0  0
  -27.0932  -35.7134   22.3864 C   0  0  0  0  0  0  0  0  0  0  0  0
  -26.0219  -29.6253   19.1766 C   0  0  0  0  0  0  0  0  0  0  0  0
  -25.3607  -27.8647   21.4587 C   0  0  0  0  0  0  0  0  0  0  0  0
  -31.7569  -23.3758   21.4944 C   0  0  0  0  0  0  0  0  0  0  0  0
  -30.0488  -22.0984   20.2912 C   0  0  0  0  0  0  0  0  0  0  0  0
  -26.2469  -34.5797   22.9598 C   0  0  0  0  0  0  0  0  0  0  0  0
  -29.6528  -12.2016   18.3612 C   0  0  0  0  0  0  0  0  0  0  0  0
  -27.1111  -33.3520   23.2292 C   0  0  0  0  0  0  0  0  0  0  0  0
  -28.2030  -11.9430   18.7778 C   0  0  0  0  0  0  0  0  0  0  0  0
  -31.6983  -21.9633   22.0691 C   0  0  0  0  0  0  0  0  0  0  0  0
  -30.5484  -12.4796   19.5672 C   0  0  0  0  0  0  0  0  0  0  0  0
  -28.6239  -13.2853   20.8773 C   0  0  0  0  0  0  0  0  0  0  0  0
  -27.7389  -32.8242   21.9336 C   0  0  1  0  0  0  0  0  0  0  0  0
  -25.4381  -30.1768   20.4737 C   0  0  1  0  0  0  0  0  0  0  0  0
  -27.6707  -13.0643   19.6915 C   0  0  2  0  0  0  0  0  0  0  0  0
  -32.3714  -19.5765   19.4214 C   0  0  0  0  0  0  0  0  0  0  0  0
  -28.9114  -20.1732   23.0304 C   0  0  0  0  0  0  0  0  0  0  0  0
  -19.0743  -26.1471   22.2812 C   0  0  0  0  0  0  0  0  0  0  0  0
  -24.1730  -29.4928   24.8660 C   0  0  0  0  0  0  0  0  0  0  0  0
  -22.2253  -27.9557   25.2005 C   0  0  0  0  0  0  0  0  0  0  0  0
  -21.8566  -30.2593   24.3172 C   0  0  0  0  0  0  0  0  0  0  0  0
  -20.9172  -26.1106   18.9527 C   0  0  0  0  0  0  0  0  0  0  0  0
  -22.9237  -28.5169   22.8281 C   0  0  1  0  0  0  0  0  0  0  0  0
  -20.0307  -26.6689   21.2201 C   0  0  2  0  0  0  0  0  0  0  0  0
  -22.8156  -29.0493   24.2849 C   0  0  0  0  0  0  0  0  0  0  0  0
  -25.8584  -11.5184   20.3294 N   0  0  0  0  0  0  0  0  0  0  0  0
  -26.2495  -12.7911   20.1471 N   0  0  0  0  0  0  0  0  0  0  0  0
  -30.8160  -21.2210   21.1718 N   0  0  3  0  0  0  0  0  0  0  0  0
  -24.7068  -29.1654   21.2395 N   0  0  0  0  0  0  0  0  0  0  0  0
  -29.9835  -13.5558   20.3842 N   0  0  0  0  0  0  0  0  0  0  0  0
  -25.4996  -15.0343   20.2750 N   0  0  0  0  0  0  0  0  0  0  0  0
  -21.8709  -12.6502   21.5179 N   0  0  0  0  0  0  0  0  0  0  0  0
  -30.0940  -15.6845   21.3936 N   0  0  0  0  0  0  0  0  0  0  0  0
  -26.7635  -32.0800   21.1660 N   0  0  0  0  0  0  0  0  0  0  0  0
  -21.6493  -28.1150   22.2426 N   0  0  0  0  0  0  0  0  0  0  0  0
  -20.0356  -25.7100   20.0794 N   0  3  0  0  0  0  0  0  0  0  0  0
  -22.6714  -14.7676   21.1508 O   0  0  0  0  0  0  0  0  0  0  0  0
  -27.0070  -30.0239   22.2316 O   0  0  0  0  0  0  0  0  0  0  0  0
  -22.9470  -30.6161   21.7240 O   0  0  0  0  0  0  0  0  0  0  0  0
  -22.2551  -25.9218   21.7956 O   0  0  0  0  0  0  0  0  0  0  0  0
  -31.8860  -14.8527   20.1777 O   0  0  0  0  0  0  0  0  0  0  0  0
  -21.5438   -7.1010   21.8853 O   0  0  0  0  0  0  0  0  0  0  0  0
  -28.6304  -24.6334   19.7837 O   0  0  0  0  0  0  0  0  0  1  0  0
  -16.4112   -6.8691   19.8837 F   0  0  0  0  0  0  0  0  0  0  0  0
  -20.7792   -5.0685   20.1746 F   0  0  0  0  0  0  0  0  0  0  0  0
  1  2  1  0  0  0  0
  1  5  2  0  0  0  0
  2  6  2  0  0  0  0
  3  8  2  0  0  0  0
  3 17  1  0  0  0  0
  4  9  1  0  0  0  0
  4 17  2  0  0  0  0
  5 19  1  0  0  0  0
  6 21  1  0  0  0  0
  7 10  2  0  0  0  0
  7 20  1  0  0  0  0
  8 27  1  0  0  0  0
  9 27  2  0  0  0  0
 10 28  1  0  0  0  0
 11 12  2  0  0  0  0
 11 29  1  0  0  0  0
 12 30  1  0  0  0  0
 13 22  1  0  0  0  0
 13 28  2  0  0  0  0
 14 23  2  0  0  0  0
 14 26  1  0  0  0  0
 15 24  1  0  0  0  0
 15 26  2  0  0  0  0
 16 30  2  0  0  0  0
 16 31  1  0  0  0  0
 17 32  1  0  0  0  0
 18 32  1  0  0  0  0
 18 33  2  0  0  0  0
 18 36  1  0  0  0  0
 19 21  2  0  0  0  0
 19 41  1  0  0  0  0
 20 22  2  0  0  0  0
 20 42  1  0  0  0  0
 21 53  1  0  0  0  0
 22 43  1  0  0  0  0
 23 25  1  0  0  0  0
 23 56  1  0  0  0  0
 24 25  2  0  0  0  0
 24 57  1  0  0  0  0
 25 68  1  0  0  0  0
 26 73  1  0  0  0  0
 27 82  1  0  0  0  0
 28 83  1  0  0  0  0
 29 31  2  0  0  0  0
 29 82  1  0  0  0  0
 30 84  1  0  0  0  0
 31 85  1  0  0  0  0
 32 66  2  0  0  0  0
 33 67  1  0  0  0  0
 33 71  1  0  0  0  0
 34 35  2  0  0  0  0
 34 44  1  0  0  0  0
 34 45  1  0  0  0  0
 35 83  1  0  0  0  0
 36 72  1  0  0  0  0
 36 77  2  0  0  0  0
 37 54  1  0  0  0  0
 37 74  1  0  0  0  0
 37 78  2  0  0  0  0
 38 63  1  0  0  0  0
 38 69  1  0  0  0  0
 38 79  2  0  0  0  0
 39 64  1  0  0  0  0
 39 75  1  0  0  0  0
 39 80  2  0  0  0  0
 40 70  1  0  0  0  0
 40 73  1  0  0  0  0
 40 81  2  0  0  0  0
 41 46  1  0  0  0  0
 42 54  1  0  0  0  0
 43 69  1  0  0  0  0
 44 50  1  0  0  0  0
 45 68  1  0  0  0  0
 46 48  1  0  0  0  0
 47 49  1  0  0  0  0
 47 51  1  0  0  0  0
 48 53  1  0  0  0  0
 49 55  1  0  0  0  0
 50 68  1  0  0  0  0
 51 70  1  0  0  0  0
 52 55  1  0  0  0  0
 52 70  1  0  0  0  0
 53 74  1  0  0  0  0
 54 69  1  0  0  0  0
 55 67  1  0  0  0  0
 58 64  1  0  0  0  0
 59 65  1  0  0  0  0
 60 65  1  0  0  0  0
 61 65  1  0  0  0  0
 62 76  1  0  0  0  0
 63 65  1  0  0  0  0
 63 75  1  0  0  0  0
 64 76  1  0  0  0  0
 66 67  1  0  0  0  0
M  CHG  1  76   1
M  ISO  4  35 101  40 100  73 100  83 101
M  END
> <Batch ID>
0116

> <Smiles>
CNC(C)C(=O)NC(C(=O)N1Cc2cc([101O:1][101CH:1]=C3CCN(c4c(C)cc([100NH:0][100C:0](=O)N5CCCC(n6nc(-c7ccc(Oc8ccc(F)cc8F)cc7)c(C(N)=O)c6N)C5)cc4C)C3)ccc2CC1C(=O)NC1CCCc2ccccc21)C(C)(C)C

> <Shape>
0.323

> <Color>
0.219

> <Negative vol penalty>
0.000

$$$$

  -OEChem-04052301433D

 88 97  0     1  0  0  0  0  0999 V2000
  -30.7939  -32.3620   23.6402 C   0  0  0  0  0  0  0  0  0  0  0  0
  -30.2244  -31.3695   24.4314 C   0  0  0  0  0  0  0  0  0  0  0  0
  -23.6682  -10.8468   23.2003 C   0  0  0  0  0  0  0  0  0  0  0  0
  -24.1494   -9.5398   21.2262 C   0  0  0  0  0  0  0  0  0  0  0  0
  -30.7825  -32.2370   22.2516 C   0  0  0  0  0  0  0  0  0  0  0  0
  -29.6422  -30.2519   23.8344 C   0  0  0  0  0  0  0  0  0  0  0  0
  -31.9813  -23.6057   25.3339 C   0  0  0  0  0  0  0  0  0  0  0  0
  -23.0677   -9.7346   23.7903 C   0  0  0  0  0  0  0  0  0  0  0  0
  -23.5489   -8.4276   21.8161 C   0  0  0  0  0  0  0  0  0  0  0  0
  -32.2317  -22.2912   25.7283 C   0  0  0  0  0  0  0  0  0  0  0  0
  -20.4140   -7.2827   22.3573 C   0  0  0  0  0  0  0  0  0  0  0  0
  -19.5388   -6.5281   21.5762 C   0  0  0  0  0  0  0  0  0  0  0  0
  -33.5947  -14.1326   25.3799 C   0  0  0  0  0  0  0  0  0  0  0  0
  -33.1598  -13.7650   23.0320 C   0  0  0  0  0  0  0  0  0  0  0  0
  -31.3476  -14.3495   24.5191 C   0  0  0  0  0  0  0  0  0  0  0  0
  -30.6338  -21.4873   24.1010 C   0  0  0  0  0  0  0  0  0  0  0  0
  -20.9450   -4.5865   21.8762 C   0  0  0  0  0  0  0  0  0  0  0  0
  -24.2090  -10.7494   21.9182 C   0  0  0  0  0  0  0  0  0  0  0  0
  -34.0538  -13.8153   24.1016 C   0  0  0  0  0  0  0  0  0  0  0  0
  -32.2416  -14.3997   25.5887 C   0  0  0  0  0  0  0  0  0  0  0  0
  -24.2273  -13.1391   21.0257 C   0  0  0  0  0  0  0  0  0  0  0  0
  -30.2085  -31.1127   21.6376 C   0  0  0  0  0  0  0  0  0  0  0  0
  -31.0665  -23.8653   24.3097 C   0  0  0  0  0  0  0  0  0  0  0  0
  -29.6220  -30.1124   22.4362 C   0  0  0  0  0  0  0  0  0  0  0  0
  -30.3881  -22.8011   23.6931 C   0  0  0  0  0  0  0  0  0  0  0  0
  -31.8067  -14.0321   23.2407 C   0  0  0  0  0  0  0  0  0  0  0  0
  -23.0081   -8.5250   23.0982 C   0  0  0  0  0  0  0  0  0  0  0  0
  -31.5594  -21.2347   25.1135 C   0  0  0  0  0  0  0  0  0  0  0  0
  -21.5548   -6.6892   22.8978 C   0  0  0  0  0  0  0  0  0  0  0  0
  -19.8042   -5.1801   21.3356 C   0  0  0  0  0  0  0  0  0  0  0  0
  -21.8202   -5.3411   22.6573 C   0  0  0  0  0  0  0  0  0  0  0  0
  -24.8289  -11.8981   21.3080 C   0  0  0  0  0  0  0  0  0  0  0  0
  -25.2290  -13.8837   20.4524 C   0  0  0  0  0  0  0  0  0  0  0  0
  -31.7832  -18.3903   27.2924 C   0  0  0  0  0  0  0  0  0  0  0  0
  -31.5720  -19.6164   26.8029 C   0  0  0  0  0  0  0  0  0  1  0  0
  -35.4646  -13.5368   23.8844 C   0  0  0  0  0  0  0  0  0  0  0  0
  -31.7577  -14.7341   26.9366 C   0  0  0  0  0  0  0  0  0  0  0  0
  -22.8833  -13.5795   21.2607 C   0  0  0  0  0  0  0  0  0  0  0  0
  -29.3658  -26.4359   22.1706 C   0  0  0  0  0  0  0  0  0  0  0  0
  -30.0387  -24.0628   20.3468 C   0  0  0  0  0  0  0  0  0  0  0  0
  -30.8364  -22.0247   17.7302 C   0  0  0  0  0  0  0  0  0  0  0  0
  -31.1894  -13.6812   20.8237 C   0  0  0  0  0  0  0  0  0  0  0  0
  -30.1781  -31.0444   20.1313 C   0  0  0  0  0  0  0  0  0  0  0  0
  -30.7200  -25.2694   23.8946 C   0  0  0  0  0  0  0  0  0  0  0  0
  -29.3870  -23.1300   22.6196 C   0  0  0  0  0  0  0  0  0  0  0  0
  -31.5359  -17.9726   28.7105 C   0  0  0  0  0  0  0  0  0  0  0  0
  -32.1873  -17.2006   26.4785 C   0  0  0  0  0  0  0  0  0  0  0  0
  -29.8743  -29.6495   19.5907 C   0  0  0  0  0  0  0  0  0  0  0  0
  -29.2301  -13.4151   17.8627 C   0  0  0  0  0  0  0  0  0  0  0  0
  -28.6924  -29.0348   20.3338 C   0  0  0  0  0  0  0  0  0  0  0  0
  -27.8231  -13.1148   18.3848 C   0  0  0  0  0  0  0  0  0  0  0  0
  -31.1529  -16.5116   28.5523 C   0  0  0  0  0  0  0  0  0  0  0  0
  -30.3054  -12.7307   18.7047 C   0  0  0  0  0  0  0  0  0  0  0  0
  -28.8192  -12.6944   20.6691 C   0  0  0  0  0  0  0  0  0  0  0  0
  -29.0030  -28.8733   21.8267 C   0  0  1  0  0  0  0  0  0  0  0  0
  -30.4280  -25.3988   22.3889 C   0  0  1  0  0  0  0  0  0  0  0  0
  -27.7053  -13.4149   19.8920 C   0  0  2  0  0  0  0  0  0  0  0  0
  -35.8214  -12.5831   22.7815 C   0  0  0  0  0  0  0  0  0  0  0  0
  -30.0882  -21.4057   15.4162 C   0  0  0  0  0  0  0  0  0  0  0  0
  -27.7494  -22.4293   21.5279 C   0  0  0  0  0  0  0  0  0  0  0  0
  -27.6609  -21.1365   19.3857 C   0  0  0  0  0  0  0  0  0  0  0  0
  -27.2044  -23.5889   19.3802 C   0  0  0  0  0  0  0  0  0  0  0  0
  -33.3967  -22.9116   16.5397 C   0  0  0  0  0  0  0  0  0  0  0  0
  -29.5705  -22.7693   19.7295 C   0  0  1  0  0  0  0  0  0  0  0  0
  -30.9918  -22.3043   16.2462 C   0  0  2  0  0  0  0  0  0  0  0  0
  -28.0704  -22.4825   20.0209 C   0  0  0  0  0  0  0  0  0  0  0  0
  -26.1132  -11.8529   20.9439 N   0  0  0  0  0  0  0  0  0  0  0  0
  -26.3268  -13.0748   20.4269 N   0  0  0  0  0  0  0  0  0  0  0  0
  -31.7486  -16.0744   27.2981 N   0  0  0  0  0  0  0  0  0  0  0  0
  -29.9227  -24.1785   21.7373 N   0  0  0  0  0  0  0  0  0  0  0  0
  -30.1333  -13.0641   20.1203 N   0  0  0  0  0  0  0  0  0  0  0  0
  -25.2690  -15.1449   19.9726 N   0  0  0  0  0  0  0  0  0  0  0  0
  -21.9828  -12.6874   21.8587 N   0  0  0  0  0  0  0  0  0  0  0  0
  -30.8986  -13.9806   22.1543 N   0  0  0  0  0  0  0  0  0  0  0  0
  -29.8534  -27.7227   22.0444 N   0  0  0  0  0  0  0  0  0  0  0  0
  -29.8983  -22.8521   18.3103 N   0  0  0  0  0  0  0  0  0  0  0  0
  -32.4015  -22.0751   15.8208 N   0  3  0  0  0  0  0  0  0  0  0  0
  -36.3894  -14.0210   24.5403 O   0  0  0  0  0  0  0  0  0  0  0  0
  -31.3818  -13.8046   27.6477 O   0  0  0  0  0  0  0  0  0  0  0  0
  -22.4879  -14.7244   20.9345 O   0  0  0  0  0  0  0  0  0  0  0  0
  -28.1900  -26.0948   22.1187 O   0  0  0  0  0  0  0  0  0  0  0  0
  -30.4901  -24.9505   19.6176 O   0  0  0  0  0  0  0  0  0  0  0  0
  -31.4799  -21.1563   18.3153 O   0  0  0  0  0  0  0  0  0  0  0  0
  -32.2625  -13.9507   20.2779 O   0  0  0  0  0  0  0  0  0  0  0  0
  -22.4224   -7.4395   23.6737 O   0  0  0  0  0  0  0  0  0  0  0  0
  -31.8119  -19.9535   25.5004 O   0  0  0  0  0  0  0  0  0  1  0  0
  -18.9628   -4.4552   20.5868 F   0  0  0  0  0  0  0  0  0  0  0  0
  -22.9139   -4.7651   23.1748 F   0  0  0  0  0  0  0  0  0  0  0  0
  1  2  1  0  0  0  0
  1  5  2  0  0  0  0
  2  6  2  0  0  0  0
  3  8  2  0  0  0  0
  3 18  1  0  0  0  0
  4  9  1  0  0  0  0
  4 18  2  0  0  0  0
  5 22  1  0  0  0  0
  6 24  1  0  0  0  0
  7 10  2  0  0  0  0
  7 23  1  0  0  0  0
  8 27  1  0  0  0  0
  9 27  2  0  0  0  0
 10 28  1  0  0  0  0
 11 12  2  0  0  0  0
 11 29  1  0  0  0  0
 12 30  1  0  0  0  0
 13 19  1  0  0  0  0
 13 20  2  0  0  0  0
 14 19  2  0  0  0  0
 14 26  1  0  0  0  0
 15 20  1  0  0  0  0
 15 26  2  0  0  0  0
 16 25  1  0  0  0  0
 16 28  2  0  0  0  0
 17 30  2  0  0  0  0
 17 31  1  0  0  0  0
 18 32  1  0  0  0  0
 19 36  1  0  0  0  0
 20 37  1  0  0  0  0
 21 32  1  0  0  0  0
 21 33  2  0  0  0  0
 21 38  1  0  0  0  0
 22 24  2  0  0  0  0
 22 43  1  0  0  0  0
 23 25  2  0  0  0  0
 23 44  1  0  0  0  0
 24 55  1  0  0  0  0
 25 45  1  0  0  0  0
 26 74  1  0  0  0  0
 27 85  1  0  0  0  0
 28 86  1  0  0  0  0
 29 31  2  0  0  0  0
 29 85  1  0  0  0  0
 30 87  1  0  0  0  0
 31 88  1  0  0  0  0
 32 67  2  0  0  0  0
 33 68  1  0  0  0  0
 33 72  1  0  0  0  0
 34 35  2  0  0  0  0
 34 46  1  0  0  0  0
 34 47  1  0  0  0  0
 35 86  1  0  0  0  0
 36 58  1  0  0  0  0
 36 78  2  0  0  0  0
 37 69  1  0  0  0  0
 37 79  2  0  0  0  0
 38 73  1  0  0  0  0
 38 80  2  0  0  0  0
 39 56  1  0  0  0  0
 39 75  1  0  0  0  0
 39 81  2  0  0  0  0
 40 64  1  0  0  0  0
 40 70  1  0  0  0  0
 40 82  2  0  0  0  0
 41 65  1  0  0  0  0
 41 76  1  0  0  0  0
 41 83  2  0  0  0  0
 42 71  1  0  0  0  0
 42 74  1  0  0  0  0
 42 84  2  0  0  0  0
 43 48  1  0  0  0  0
 44 56  1  0  0  0  0
 45 70  1  0  0  0  0
 46 52  1  0  0  0  0
 47 69  1  0  0  0  0
 48 50  1  0  0  0  0
 49 51  1  0  0  0  0
 49 53  1  0  0  0  0
 50 55  1  0  0  0  0
 51 57  1  0  0  0  0
 52 69  1  0  0  0  0
 53 71  1  0  0  0  0
 54 57  1  0  0  0  0
 54 71  1  0  0  0  0
 55 75  1  0  0  0  0
 56 70  1  0  0  0  0
 57 68  1  0  0  0  0
 59 65  1  0  0  0  0
 60 66  1  0  0  0  0
 61 66  1  0  0  0  0
 62 66  1  0  0  0  0
 63 77  1  0  0  0  0
 64 66  1  0  0  0  0
 64 76  1  0  0  0  0
 65 77  1  0  0  0  0
 67 68  1  0  0  0  0
M  CHG  1  77   1
M  ISO  4  35 101  42 100  74 100  86 101
M  END
> <Batch ID>
0116

> <Smiles>
CNC(C)C(=O)NC(C(=O)N1Cc2cc([101O:1][101CH:1]=C3CCN(C(=O)c4cc([100NH:0][100C:0](=O)N5CCCC(n6nc(-c7ccc(Oc8ccc(F)cc8F)cc7)c(C(N)=O)c6N)C5)cc(C(C)=O)c4)C3)ccc2CC1C(=O)NC1CCCc2ccccc21)C(C)(C)C

> <Shape>
0.197

> <Color>
0.150

> <Negative vol penalty>
0.000

$$$$

  -OEChem-04052301433D

 85 93  0     1  0  0  0  0  0999 V2000
  -29.2373  -32.7086   16.4877 C   0  0  0  0  0  0  0  0  0  0  0  0
  -28.1415  -32.2175   17.1902 C   0  0  0  0  0  0  0  0  0  0  0  0
  -22.9827   -9.8553   19.9878 C   0  0  0  0  0  0  0  0  0  0  0  0
  -23.7081   -9.9212   22.2914 C   0  0  0  0  0  0  0  0  0  0  0  0
  -29.9431  -31.8711   15.6250 C   0  0  0  0  0  0  0  0  0  0  0  0
  -27.7503  -30.8888   17.0296 C   0  0  0  0  0  0  0  0  0  0  0  0
  -27.4830  -26.3960   22.6541 C   0  0  0  0  0  0  0  0  0  0  0  0
  -30.3963  -18.0534   23.9975 C   0  0  0  0  0  0  0  0  0  0  0  0
  -29.6107  -18.8730   24.8078 C   0  0  0  0  0  0  0  0  0  0  0  0
  -22.2180   -8.7212   20.2610 C   0  0  0  0  0  0  0  0  0  0  0  0
  -22.9433   -8.7871   22.5646 C   0  0  0  0  0  0  0  0  0  0  0  0
  -27.2039  -25.5315   23.7128 C   0  0  0  0  0  0  0  0  0  0  0  0
  -23.1929   -5.4458   22.1126 C   0  0  0  0  0  0  0  0  0  0  0  0
  -23.7822   -4.4340   22.8707 C   0  0  0  0  0  0  0  0  0  0  0  0
  -26.5955  -23.7925   22.1464 C   0  0  0  0  0  0  0  0  0  0  0  0
  -28.7200  -18.1632   22.2611 C   0  0  0  0  0  0  0  0  0  0  0  0
  -22.0581   -4.6842   24.5446 C   0  0  0  0  0  0  0  0  0  0  0  0
  -23.7278  -10.4553   21.0030 C   0  0  0  0  0  0  0  0  0  0  0  0
  -24.1091  -12.9704   20.8120 C   0  0  0  0  0  0  0  0  0  0  0  0
  -29.5662  -30.5288   15.4611 C   0  0  0  0  0  0  0  0  0  0  0  0
  -27.3339  -25.9565   21.3358 C   0  0  0  0  0  0  0  0  0  0  0  0
  -28.4510  -30.0328   16.1629 C   0  0  0  0  0  0  0  0  0  0  0  0
  -26.8854  -24.6500   21.0818 C   0  0  0  0  0  0  0  0  0  0  0  0
  -29.9510  -17.6985   22.7241 C   0  0  0  0  0  0  0  0  0  0  0  0
  -28.3798  -19.3377   24.3448 C   0  0  0  0  0  0  0  0  0  0  0  0
  -22.1983   -8.1871   21.5494 C   0  0  0  0  0  0  0  0  0  0  0  0
  -26.7610  -24.2330   23.4595 C   0  0  0  0  0  0  0  0  0  0  0  0
  -22.0363   -6.0769   22.5706 C   0  0  0  0  0  0  0  0  0  0  0  0
  -27.9344  -18.9829   23.0715 C   0  0  0  0  0  0  0  0  0  0  0  0
  -23.2147   -4.0532   24.0867 C   0  0  0  0  0  0  0  0  0  0  0  0
  -21.4689   -5.6960   23.7866 C   0  0  0  0  0  0  0  0  0  0  0  0
  -24.5184  -11.6265   20.7213 C   0  0  0  0  0  0  0  0  0  0  0  0
  -25.2177  -13.6926   20.4431 C   0  0  0  0  0  0  0  0  0  0  0  0
  -28.1454  -21.2762   25.5332 C   0  0  0  0  0  0  0  0  0  0  0  0
  -22.8403  -13.5171   21.1954 C   0  0  0  0  0  0  0  0  0  0  0  0
  -27.6171  -26.7705   17.6843 C   0  0  0  0  0  0  0  0  0  0  0  0
  -28.6478  -23.9033   18.0407 C   0  0  0  0  0  0  0  0  0  0  0  0
  -30.0898  -20.9392   18.9195 C   0  0  0  0  0  0  0  0  0  0  0  0
  -30.7126  -14.6374   20.6854 C   0  0  0  0  0  0  0  0  0  0  0  0
  -30.3311  -29.6745   14.4814 C   0  0  0  0  0  0  0  0  0  0  0  0
  -27.5639  -26.8730   20.1649 C   0  0  0  0  0  0  0  0  0  0  0  0
  -26.7064  -24.2317   19.6479 C   0  0  0  0  0  0  0  0  0  0  0  0
  -30.0801  -28.1784   14.6523 C   0  0  0  0  0  0  0  0  0  0  0  0
  -29.5755  -12.1980   18.3546 C   0  0  0  0  0  0  0  0  0  0  0  0
  -28.5868  -27.9002   14.7920 C   0  0  0  0  0  0  0  0  0  0  0  0
  -28.1274  -11.9384   18.7739 C   0  0  0  0  0  0  0  0  0  0  0  0
  -30.4776  -12.4420   19.5623 C   0  0  0  0  0  0  0  0  0  0  0  0
  -28.5664  -13.2424   20.8965 C   0  0  0  0  0  0  0  0  0  0  0  0
  -28.0109  -28.5906   16.0342 C   0  0  1  0  0  0  0  0  0  0  0  0
  -28.1552  -26.1513   18.9407 C   0  0  1  0  0  0  0  0  0  0  0  0
  -27.6076  -13.0461   19.7098 C   0  0  2  0  0  0  0  0  0  0  0  0
  -24.3818  -19.0022   22.4935 C   0  0  0  0  0  0  0  0  0  0  0  0
  -31.2543  -18.9466   17.9343 C   0  0  0  0  0  0  0  0  0  0  0  0
  -25.9708  -22.8392   17.0381 C   0  0  0  0  0  0  0  0  0  0  0  0
  -26.9909  -20.5543   16.9543 C   0  0  0  0  0  0  0  0  0  0  0  0
  -27.9086  -22.3812   15.5249 C   0  0  0  0  0  0  0  0  0  0  0  0
  -32.5550  -21.4680   20.4694 C   0  0  0  0  0  0  0  0  0  0  0  0
  -30.7920  -16.8234   21.8576 C   0  0  0  0  0  0  0  0  0  0  0  0
  -27.3992  -22.2478   26.4079 C   0  0  0  0  0  0  0  0  0  0  0  0
  -25.7674  -18.4410   22.2552 C   0  0  0  0  0  0  0  0  0  0  0  0
  -27.2494  -23.5808   25.6942 C   0  0  0  0  0  0  0  0  0  1  0  0
  -28.3242  -22.4308   18.0183 C   0  0  1  0  0  0  0  0  0  0  0  0
  -31.4289  -20.3233   18.5562 C   0  0  2  0  0  0  0  0  0  0  0  0
  -27.2985  -22.0663   16.9081 C   0  0  0  0  0  0  0  0  0  0  0  0
  -25.7878  -11.4997   20.3257 N   0  0  0  0  0  0  0  0  0  0  0  0
  -27.5983  -20.1618   25.1720 N   0  0  0  0  0  0  0  0  0  0  0  0
  -26.1857  -12.7731   20.1645 N   0  0  0  0  0  0  0  0  0  0  0  0
  -27.8347  -24.7175   18.8383 N   0  0  0  0  0  0  0  0  0  0  0  0
  -29.9293  -13.5049   20.4081 N   0  0  0  0  0  0  0  0  0  0  0  0
  -25.4490  -15.0180   20.3332 N   0  0  0  0  0  0  0  0  0  0  0  0
  -21.8100  -12.6334   21.5443 N   0  0  0  0  0  0  0  0  0  0  0  0
  -28.3520  -27.8484   17.2288 N   0  0  0  0  0  0  0  0  0  0  0  0
  -29.6009  -21.7340   17.9044 N   0  0  0  0  0  0  0  0  0  0  0  0
  -30.1148  -15.6000   21.4896 N   0  0  0  0  0  0  0  0  0  0  0  0
  -32.2823  -20.1859   19.7701 N   0  3  0  0  0  0  0  0  0  0  0  0
  -22.6217  -14.7522   21.2118 O   0  0  0  0  0  0  0  0  0  0  0  0
  -26.6100  -26.3045   17.1644 O   0  0  0  0  0  0  0  0  0  0  0  0
  -29.5918  -24.3236   17.3658 O   0  0  0  0  0  0  0  0  0  0  0  0
  -29.5315  -20.7327   19.9948 O   0  0  0  0  0  0  0  0  0  0  0  0
  -31.8577  -14.7824   20.2443 O   0  0  0  0  0  0  0  0  0  0  0  0
  -21.4520   -7.0806   21.8164 O   0  0  0  0  0  0  0  0  0  0  0  0
  -26.4947  -23.3928   24.4977 O   0  0  0  0  0  0  0  0  0  1  0  0
  -26.7350  -19.4290   22.6033 O   0  0  0  0  0  0  0  0  0  0  0  0
  -23.7798   -3.0805   24.8138 F   0  0  0  0  0  0  0  0  0  0  0  0
  -20.3571   -6.2978   24.2311 F   0  0  0  0  0  0  0  0  0  0  0  0
  1  2  1  0  0  0  0
  1  5  2  0  0  0  0
  2  6  2  0  0  0  0
  3 10  2  0  0  0  0
  3 18  1  0  0  0  0
  4 11  1  0  0  0  0
  4 18  2  0  0  0  0
  5 20  1  0  0  0  0
  6 22  1  0  0  0  0
  7 12  2  0  0  0  0
  7 21  1  0  0  0  0
  8  9  2  0  0  0  0
  8 24  1  0  0  0  0
  9 25  1  0  0  0  0
 10 26  1  0  0  0  0
 11 26  2  0  0  0  0
 12 27  1  0  0  0  0
 13 14  2  0  0  0  0
 13 28  1  0  0  0  0
 14 30  1  0  0  0  0
 15 23  1  0  0  0  0
 15 27  2  0  0  0  0
 16 24  2  0  0  0  0
 16 29  1  0  0  0  0
 17 30  2  0  0  0  0
 17 31  1  0  0  0  0
 18 32  1  0  0  0  0
 19 32  1  0  0  0  0
 19 33  2  0  0  0  0
 19 35  1  0  0  0  0
 20 22  2  0  0  0  0
 20 40  1  0  0  0  0
 21 23  2  0  0  0  0
 21 41  1  0  0  0  0
 22 49  1  0  0  0  0
 23 42  1  0  0  0  0
 24 58  1  0  0  0  0
 25 29  2  0  0  0  0
 25 66  1  0  0  0  0
 26 81  1  0  0  0  0
 27 82  1  0  0  0  0
 28 31  2  0  0  0  0
 28 81  1  0  0  0  0
 29 83  1  0  0  0  0
 30 84  1  0  0  0  0
 31 85  1  0  0  0  0
 32 65  2  0  0  0  0
 33 67  1  0  0  0  0
 33 70  1  0  0  0  0
 34 59  1  0  0  0  0
 34 66  2  0  0  0  0
 35 71  1  0  0  0  0
 35 76  2  0  0  0  0
 36 50  1  0  0  0  0
 36 72  1  0  0  0  0
 36 77  2  0  0  0  0
 37 62  1  0  0  0  0
 37 68  1  0  0  0  0
 37 78  2  0  0  0  0
 38 63  1  0  0  0  0
 38 73  1  0  0  0  0
 38 79  2  0  0  0  0
 39 69  1  0  0  0  0
 39 74  1  0  0  0  0
 39 80  2  0  0  0  0
 40 43  1  0  0  0  0
 41 50  1  0  0  0  0
 42 68  1  0  0  0  0
 43 45  1  0  0  0  0
 44 46  1  0  0  0  0
 44 47  1  0  0  0  0
 45 49  1  0  0  0  0
 46 51  1  0  0  0  0
 47 69  1  0  0  0  0
 48 51  1  0  0  0  0
 48 69  1  0  0  0  0
 49 72  1  0  0  0  0
 50 68  1  0  0  0  0
 51 67  1  0  0  0  0
 52 60  1  0  0  0  0
 53 63  1  0  0  0  0
 54 64  1  0  0  0  0
 55 64  1  0  0  0  0
 56 64  1  0  0  0  0
 57 75  1  0  0  0  0
 58 74  1  0  0  0  0
 59 61  1  0  0  0  0
 60 83  1  0  0  0  0
 61 82  1  0  0  0  0
 62 64  1  0  0  0  0
 62 73  1  0  0  0  0
 63 75  1  0  0  0  0
 65 67  1  0  0  0  0
M  CHG  1  75   1
M  ISO  4  39 100  61 101  74 100  82 101
M  END
> <Batch ID>
0116

> <Smiles>
CCOc1cc(C[100NH:0][100C:0](=O)N2CCCC(n3nc(-c4ccc(Oc5ccc(F)cc5F)cc4)c(C(N)=O)c3N)C2)ccc1NC=C[101CH2:1][101O:1]c1ccc2c(c1)CN(C(=O)C(NC(=O)C(C)NC)C(C)(C)C)C(C(=O)NC1CCCc3ccccc31)C2

> <Shape>
0.221

> <Color>
0.220

> <Negative vol penalty>
0.000

$$$$

  -OEChem-04052301433D

 87 95  0     1  0  0  0  0  0999 V2000
  -22.3550  -31.6627   14.3090 C   0  0  0  0  0  0  0  0  0  0  0  0
  -23.4198  -30.9927   14.9029 C   0  0  0  0  0  0  0  0  0  0  0  0
  -20.4527  -12.3211   20.9391 C   0  0  0  0  0  0  0  0  0  0  0  0
  -22.7219  -11.6213   21.3843 C   0  0  0  0  0  0  0  0  0  0  0  0
  -21.8303  -32.8063   14.9097 C   0  0  0  0  0  0  0  0  0  0  0  0
  -23.9613  -31.4666   16.0974 C   0  0  0  0  0  0  0  0  0  0  0  0
  -24.7907  -27.7687   19.4564 C   0  0  0  0  0  0  0  0  0  0  0  0
  -20.0978  -10.9992   20.6704 C   0  0  0  0  0  0  0  0  0  0  0  0
  -22.3669  -10.2994   21.1156 C   0  0  0  0  0  0  0  0  0  0  0  0
  -25.9225  -26.9774   19.2657 C   0  0  0  0  0  0  0  0  0  0  0  0
  -20.7983   -7.7690   22.7147 C   0  0  0  0  0  0  0  0  0  0  0  0
  -21.2524   -6.7861   23.5940 C   0  0  0  0  0  0  0  0  0  0  0  0
  -29.6332  -18.9294   22.0433 C   0  0  0  0  0  0  0  0  0  0  0  0
  -27.0929  -28.2579   20.9419 C   0  0  0  0  0  0  0  0  0  0  0  0
  -29.2332  -19.8280   19.4327 C   0  0  0  0  0  0  0  0  0  0  0  0
  -22.4297   -5.7078   21.7806 C   0  0  0  0  0  0  0  0  0  0  0  0
  -21.7648  -12.6322   21.2960 C   0  0  0  0  0  0  0  0  0  0  0  0
  -29.1416  -18.0564   21.0729 C   0  0  0  0  0  0  0  0  0  0  0  0
  -29.9248  -20.2518   21.7085 C   0  0  0  0  0  0  0  0  0  0  0  0
  -22.0903  -14.6532   22.8183 C   0  0  0  0  0  0  0  0  0  0  0  0
  -22.3593  -33.2889   16.1172 C   0  0  0  0  0  0  0  0  0  0  0  0
  -24.8049  -28.8193   20.3851 C   0  0  0  0  0  0  0  0  0  0  0  0
  -23.4440  -32.6184   16.7141 C   0  0  0  0  0  0  0  0  0  0  0  0
  -25.9590  -29.0595   21.1444 C   0  0  0  0  0  0  0  0  0  0  0  0
  -28.9416  -18.5056   19.7676 C   0  0  0  0  0  0  0  0  0  0  0  0
  -21.0548   -9.9884   20.7586 C   0  0  0  0  0  0  0  0  0  0  0  0
  -27.0748  -27.2238   20.0064 C   0  0  0  0  0  0  0  0  0  0  0  0
  -21.1598   -7.7213   21.3683 C   0  0  0  0  0  0  0  0  0  0  0  0
  -29.7248  -20.7010   20.4032 C   0  0  0  0  0  0  0  0  0  0  0  0
  -22.0681   -5.7555   23.1270 C   0  0  0  0  0  0  0  0  0  0  0  0
  -21.9755   -6.6907   20.9013 C   0  0  0  0  0  0  0  0  0  0  0  0
  -22.1322  -13.9976   21.5732 C   0  0  0  0  0  0  0  0  0  0  0  0
  -22.5357  -15.9248   22.5519 C   0  0  0  0  0  0  0  0  0  0  0  0
  -27.9408  -16.3491   22.3607 C   0  0  0  0  0  0  0  0  0  0  0  0
  -28.8459  -16.6809   21.4525 C   0  0  0  0  0  0  0  0  0  0  0  0
  -30.4350  -21.1449   22.7402 C   0  0  0  0  0  0  0  0  0  0  0  0
  -30.1385  -21.0821   24.0569 C   0  0  0  0  0  0  0  0  0  0  0  0
  -21.6852  -14.1570   24.1010 C   0  0  0  0  0  0  0  0  0  0  0  0
  -24.4556  -31.9738   20.2089 C   0  0  0  0  0  0  0  0  0  0  0  0
  -24.5576  -31.7746   23.4450 C   0  0  0  0  0  0  0  0  0  0  0  0
  -25.5484  -30.0384   26.2110 C   0  0  0  0  0  0  0  0  0  0  0  0
  -26.0478  -18.2017   18.2703 C   0  0  0  0  0  0  0  0  0  0  0  0
  -21.7896  -34.5559   16.7043 C   0  0  0  0  0  0  0  0  0  0  0  0
  -23.5671  -29.6468   20.5981 C   0  0  0  0  0  0  0  0  0  0  0  0
  -26.0192  -30.1622   22.1685 C   0  0  0  0  0  0  0  0  0  0  0  0
  -22.1764  -34.7784   18.1641 C   0  0  0  0  0  0  0  0  0  0  0  0
  -22.7106  -19.1727   19.0431 C   0  0  0  0  0  0  0  0  0  0  0  0
  -23.6689  -34.5349   18.3640 C   0  0  0  0  0  0  0  0  0  0  0  0
  -22.1802  -18.0156   19.8915 C   0  0  0  0  0  0  0  0  0  0  0  0
  -23.6405  -18.6808   17.9361 C   0  0  0  0  0  0  0  0  0  0  0  0
  -24.2258  -16.6758   19.2442 C   0  0  0  0  0  0  0  0  0  0  0  0
  -24.0423  -33.0873   18.0226 C   0  0  1  0  0  0  0  0  0  0  0  0
  -23.8606  -31.0164   21.2025 C   0  0  1  0  0  0  0  0  0  0  0  0
  -23.3278  -17.1274   20.4086 C   0  0  2  0  0  0  0  0  0  0  0  0
  -30.6794  -22.0273   25.0801 C   0  0  0  0  0  0  0  0  0  0  0  0
  -25.5220  -30.1453   28.7181 C   0  0  0  0  0  0  0  0  0  0  0  0
  -26.7916  -33.8517   23.3775 C   0  0  0  0  0  0  0  0  0  0  0  0
  -27.3561  -33.2192   25.7333 C   0  0  0  0  0  0  0  0  0  0  0  0
  -25.1159  -34.1809   25.2046 C   0  0  0  0  0  0  0  0  0  0  0  0
  -23.9752  -27.5401   26.4167 C   0  0  0  0  0  0  0  0  0  0  0  0
  -28.4159  -17.5979   18.7024 C   0  0  0  0  0  0  0  0  0  0  0  0
  -29.1070  -24.2278   19.9305 C   0  0  0  0  0  0  0  0  0  0  0  0
  -27.9708  -25.1001   19.4203 C   0  0  0  0  0  0  0  0  0  1  0  0
  -28.9206  -22.7685   19.5460 C   0  0  0  0  0  0  0  0  0  0  0  0
  -25.6512  -31.8171   24.4848 C   0  0  1  0  0  0  0  0  0  0  0  0
  -24.8036  -29.6458   27.4742 C   0  0  2  0  0  0  0  0  0  0  0  0
  -26.2285  -33.2476   24.6794 C   0  0  0  0  0  0  0  0  0  0  0  0
  -22.5695  -14.7875   20.5890 N   0  0  0  0  0  0  0  0  0  0  0  0
  -22.8064  -15.9527   21.2154 N   0  0  0  0  0  0  0  0  0  0  0  0
  -24.7853  -30.9478   22.3358 N   0  0  0  0  0  0  0  0  0  0  0  0
  -24.7074  -17.8458   18.4931 N   0  0  0  0  0  0  0  0  0  0  0  0
  -22.7181  -17.0108   23.3328 N   0  0  0  0  0  0  0  0  0  0  0  0
  -21.2552  -12.8265   24.1973 N   0  0  0  0  0  0  0  0  0  0  0  0
  -23.6620  -32.1996   19.1005 N   0  0  0  0  0  0  0  0  0  0  0  0
  -25.0865  -31.2309   25.6955 N   0  0  0  0  0  0  0  0  0  0  0  0
  -26.9962  -17.3600   18.8385 N   0  0  0  0  0  0  0  0  0  0  0  0
  -24.6828  -28.1632   27.5647 N   0  3  0  0  0  0  0  0  0  0  0  0
  -21.6883  -14.8771   25.1281 O   0  0  0  0  0  0  0  0  0  0  0  0
  -25.5528  -32.4719   20.4322 O   0  0  0  0  0  0  0  0  0  0  0  0
  -23.5358  -32.4445   23.6143 O   0  0  0  0  0  0  0  0  0  0  0  0
  -26.4523  -29.3573   25.7318 O   0  0  0  0  0  0  0  0  0  0  0  0
  -26.3751  -19.1990   17.6181 O   0  0  0  0  0  0  0  0  0  0  0  0
  -20.7088   -8.6983   20.4967 O   0  0  0  0  0  0  0  0  0  0  0  0
  -28.1812  -26.4533   19.8217 O   0  0  0  0  0  0  0  0  0  1  0  0
  -30.0024  -21.9954   20.0479 O   0  0  0  0  0  0  0  0  0  0  0  0
  -22.5054   -4.8125   23.9718 F   0  0  0  0  0  0  0  0  0  0  0  0
  -22.3272   -6.6403   19.6091 F   0  0  0  0  0  0  0  0  0  0  0  0
  1  2  1  0  0  0  0
  1  5  2  0  0  0  0
  2  6  2  0  0  0  0
  3  8  2  0  0  0  0
  3 17  1  0  0  0  0
  4  9  1  0  0  0  0
  4 17  2  0  0  0  0
  5 21  1  0  0  0  0
  6 23  1  0  0  0  0
  7 10  2  0  0  0  0
  7 22  1  0  0  0  0
  8 26  1  0  0  0  0
  9 26  2  0  0  0  0
 10 27  1  0  0  0  0
 11 12  2  0  0  0  0
 11 28  1  0  0  0  0
 12 30  1  0  0  0  0
 13 18  1  0  0  0  0
 13 19  2  0  0  0  0
 14 24  1  0  0  0  0
 14 27  2  0  0  0  0
 15 25  1  0  0  0  0
 15 29  2  0  0  0  0
 16 30  2  0  0  0  0
 16 31  1  0  0  0  0
 17 32  1  0  0  0  0
 18 25  2  0  0  0  0
 18 35  1  0  0  0  0
 19 29  1  0  0  0  0
 19 36  1  0  0  0  0
 20 32  1  0  0  0  0
 20 33  2  0  0  0  0
 20 38  1  0  0  0  0
 21 23  2  0  0  0  0
 21 43  1  0  0  0  0
 22 24  2  0  0  0  0
 22 44  1  0  0  0  0
 23 52  1  0  0  0  0
 24 45  1  0  0  0  0
 25 61  1  0  0  0  0
 26 83  1  0  0  0  0
 27 84  1  0  0  0  0
 28 31  2  0  0  0  0
 28 83  1  0  0  0  0
 29 85  1  0  0  0  0
 30 86  1  0  0  0  0
 31 87  1  0  0  0  0
 32 68  2  0  0  0  0
 33 69  1  0  0  0  0
 33 72  1  0  0  0  0
 34 35  2  0  0  0  0
 36 37  2  0  0  0  0
 37 55  1  0  0  0  0
 38 73  1  0  0  0  0
 38 78  2  0  0  0  0
 39 53  1  0  0  0  0
 39 74  1  0  0  0  0
 39 79  2  0  0  0  0
 40 65  1  0  0  0  0
 40 70  1  0  0  0  0
 40 80  2  0  0  0  0
 41 66  1  0  0  0  0
 41 75  1  0  0  0  0
 41 81  2  0  0  0  0
 42 71  1  0  0  0  0
 42 76  1  0  0  0  0
 42 82  2  0  0  0  0
 43 46  1  0  0  0  0
 44 53  1  0  0  0  0
 45 70  1  0  0  0  0
 46 48  1  0  0  0  0
 47 49  1  0  0  0  0
 47 50  1  0  0  0  0
 48 52  1  0  0  0  0
 49 54  1  0  0  0  0
 50 71  1  0  0  0  0
 51 54  1  0  0  0  0
 51 71  1  0  0  0  0
 52 74  1  0  0  0  0
 53 70  1  0  0  0  0
 54 69  1  0  0  0  0
 56 66  1  0  0  0  0
 57 67  1  0  0  0  0
 58 67  1  0  0  0  0
 59 67  1  0  0  0  0
 60 77  1  0  0  0  0
 61 76  1  0  0  0  0
 62 63  1  0  0  0  0
 62 64  1  0  0  0  0
 63 84  1  0  0  0  0
 64 85  1  0  0  0  0
 65 67  1  0  0  0  0
 65 75  1  0  0  0  0
 66 77  1  0  0  0  0
 68 69  1  0  0  0  0
M  CHG  1  77   1
M  ISO  4  42 100  63 101  76 100  84 101
M  END
> <Batch ID>
0116

> <Smiles>
C=Cc1cc(C=CC)c(OCC[101CH2:1][101O:1]c2ccc3c(c2)CN(C(=O)C(NC(=O)C(C)NC)C(C)(C)C)C(C(=O)NC2CCCc4ccccc42)C3)cc1C[100NH:0][100C:0](=O)N1CCCC(n2nc(-c3ccc(Oc4ccc(F)cc4F)cc3)c(C(N)=O)c2N)C1

> <Shape>
0.255

> <Color>
0.087

> <Negative vol penalty>
0.000

$$$$

  -OEChem-04052301433D

 87 95  0     1  0  0  0  0  0999 V2000
  -28.5291  -34.1888   27.1267 C   0  0  0  0  0  0  0  0  0  0  0  0
  -28.7491  -33.1064   26.2809 C   0  0  0  0  0  0  0  0  0  0  0  0
  -23.2525   -9.9790   21.0375 C   0  0  0  0  0  0  0  0  0  0  0  0
  -24.7353   -8.5097   22.2539 C   0  0  0  0  0  0  0  0  0  0  0  0
  -27.2271  -34.5490   27.4717 C   0  0  0  0  0  0  0  0  0  0  0  0
  -27.6672  -32.3829   25.7803 C   0  0  0  0  0  0  0  0  0  0  0  0
  -27.2341  -29.7480   20.2689 C   0  0  0  0  0  0  0  0  0  0  0  0
  -22.3300   -8.9409   20.9080 C   0  0  0  0  0  0  0  0  0  0  0  0
  -23.8128   -7.4716   22.1245 C   0  0  0  0  0  0  0  0  0  0  0  0
  -27.4251  -28.4356   19.8391 C   0  0  0  0  0  0  0  0  0  0  0  0
  -20.9264   -6.5087   23.5949 C   0  0  0  0  0  0  0  0  0  0  0  0
  -20.6576   -5.7378   24.7258 C   0  0  0  0  0  0  0  0  0  0  0  0
  -25.0520  -28.0393   20.0138 C   0  0  0  0  0  0  0  0  0  0  0  0
  -21.4224   -3.7636   23.5618 C   0  0  0  0  0  0  0  0  0  0  0  0
  -24.4552   -9.7635   21.7104 C   0  0  0  0  0  0  0  0  0  0  0  0
  -25.4878  -11.7779   22.8867 C   0  0  0  0  0  0  0  0  0  0  0  0
  -26.1283  -33.8355   26.9675 C   0  0  0  0  0  0  0  0  0  0  0  0
  -25.9497  -30.2135   20.5854 C   0  0  0  0  0  0  0  0  0  0  0  0
  -26.3494  -32.7331   26.1200 C   0  0  0  0  0  0  0  0  0  0  0  0
  -24.8470  -29.3588   20.4450 C   0  0  0  0  0  0  0  0  0  0  0  0
  -22.6101   -7.6871   21.4515 C   0  0  0  0  0  0  0  0  0  0  0  0
  -26.3344  -27.5801   19.7142 C   0  0  0  0  0  0  0  0  0  0  0  0
  -21.4430   -5.9071   22.4473 C   0  0  0  0  0  0  0  0  0  0  0  0
  -20.9057   -4.3653   24.7093 C   0  0  0  0  0  0  0  0  0  0  0  0
  -21.6911   -4.5346   22.4308 C   0  0  0  0  0  0  0  0  0  0  0  0
  -25.4088  -10.8353   21.8440 C   0  0  0  0  0  0  0  0  0  0  0  0
  -26.5548  -12.5743   22.5495 C   0  0  0  0  0  0  0  0  0  0  0  0
  -28.7694  -19.3400   21.3837 C   0  0  0  0  0  0  0  0  0  0  0  0
  -28.3792  -18.0835   21.1469 C   0  0  0  0  0  0  0  0  0  0  0  0
  -31.1084  -19.3620   20.5886 C   0  0  0  0  0  0  0  0  0  0  0  0
  -31.4436  -17.9598   20.8106 C   0  0  0  0  0  0  0  0  0  0  0  0
  -30.5953  -16.9211   20.6424 C   0  0  0  0  0  0  0  0  0  0  0  0
  -29.9455  -19.9823   20.8446 C   0  0  0  0  0  0  0  0  0  0  0  0
  -29.1418  -17.1166   20.3171 C   0  0  0  0  0  0  0  0  0  0  0  0
  -24.6698  -11.9207   24.0555 C   0  0  0  0  0  0  0  0  0  0  0  0
  -24.5518  -31.3267   23.2142 C   0  0  0  0  0  0  0  0  0  0  0  0
  -22.0800  -31.8916   21.1910 C   0  0  0  0  0  0  0  0  0  0  0  0
  -28.6453  -21.9648   20.2952 C   0  0  0  0  0  0  0  0  0  0  0  0
  -20.4891  -31.1164   18.2730 C   0  0  0  0  0  0  0  0  0  0  0  0
  -29.3176  -15.5200   18.6808 C   0  0  0  0  0  0  0  0  0  0  0  0
  -24.7413  -34.2332   27.4063 C   0  0  0  0  0  0  0  0  0  0  0  0
  -25.7571  -31.6399   21.0221 C   0  0  0  0  0  0  0  0  0  0  0  0
  -23.4452  -29.8158   20.7527 C   0  0  0  0  0  0  0  0  0  0  0  0
  -23.6346  -33.6462   26.5339 C   0  0  0  0  0  0  0  0  0  0  0  0
  -30.1078  -12.0103   19.0053 C   0  0  0  0  0  0  0  0  0  0  0  0
  -23.8813  -32.1614   26.2859 C   0  0  0  0  0  0  0  0  0  0  0  0
  -28.9402  -11.4655   19.8273 C   0  0  0  0  0  0  0  0  0  0  0  0
  -29.6590  -13.1266   18.0676 C   0  0  0  0  0  0  0  0  0  0  0  0
  -27.7875  -13.7096   19.5873 C   0  0  0  0  0  0  0  0  0  0  0  0
  -25.2007  -31.9390   25.5369 C   0  0  1  0  0  0  0  0  0  0  0  0
  -24.4685  -31.8548   21.8099 C   0  0  1  0  0  0  0  0  0  0  0  0
  -28.2081  -12.5998   20.5662 C   0  0  1  0  0  0  0  0  0  0  0  0
  -32.8956  -17.7864   21.1934 C   0  0  0  0  0  0  0  0  0  0  0  0
  -31.5865  -15.1759   22.0862 C   0  0  0  0  0  0  0  0  0  0  0  0
  -18.4721  -31.7213   16.9081 C   0  0  0  0  0  0  0  0  0  0  0  0
  -20.3092  -30.3195   23.1154 C   0  0  0  0  0  0  0  0  0  0  0  0
  -18.6034  -30.1428   21.2913 C   0  0  0  0  0  0  0  0  0  0  0  0
  -19.2537  -32.3829   22.1756 C   0  0  0  0  0  0  0  0  0  0  0  0
  -22.1539  -31.9879   15.9866 C   0  0  0  0  0  0  0  0  0  0  0  0
  -30.9929  -15.4683   20.7293 C   0  0  0  0  0  0  0  0  0  0  0  0
  -28.8460  -23.4594   20.1093 C   0  0  0  0  0  0  0  0  0  0  0  0
  -27.5523  -24.1818   19.7506 C   0  0  0  0  0  0  0  0  0  0  0  0
  -27.7648  -25.6827   19.6165 C   0  0  0  0  0  0  0  0  0  1  0  0
  -20.8803  -31.1040   20.7227 C   0  0  1  0  0  0  0  0  0  0  0  0
  -19.9476  -31.9921   17.1575 C   0  0  2  0  0  0  0  0  0  0  0  0
  -19.7882  -30.9778   21.8222 C   0  0  0  0  0  0  0  0  0  0  0  0
  -26.3506  -11.0150   20.9140 N   0  0  0  0  0  0  0  0  0  0  0  0
  -28.5527  -16.4022   19.4209 N   0  0  0  0  0  0  0  0  0  0  0  0
  -27.0313  -12.0798   21.3711 N   0  0  0  0  0  0  0  0  0  0  0  0
  -23.3092  -31.2174   21.1822 N   0  0  0  0  0  0  0  0  0  0  0  0
  -28.9369  -14.1701   18.7969 N   0  0  0  0  0  0  0  0  0  0  0  0
  -27.1225  -13.6423   23.1490 N   0  0  0  0  0  0  0  0  0  0  0  0
  -23.6157  -11.0173   24.2478 N   0  0  0  0  0  0  0  0  0  0  0  0
  -29.8378  -21.3306   20.6210 N   0  0  0  0  0  0  0  0  0  0  0  0
  -25.0401  -32.2388   24.1302 N   0  0  0  0  0  0  0  0  0  0  0  0
  -20.4221  -31.7484   19.4967 N   0  0  0  0  0  0  0  0  0  0  0  0
  -20.6925  -31.7384   15.8919 N   0  3  0  0  0  0  0  0  0  0  0  0
  -24.8576  -12.8328   24.8959 O   0  0  0  0  0  0  0  0  0  0  0  0
  -24.1978  -30.1774   23.4494 O   0  0  0  0  0  0  0  0  0  0  0  0
  -21.9330  -33.0642   21.5447 O   0  0  0  0  0  0  0  0  0  0  0  0
  -27.5547  -21.4143   20.1672 O   0  0  0  0  0  0  0  0  0  0  0  0
  -20.9243  -29.9834   18.0789 O   0  0  0  0  0  0  0  0  0  0  0  0
  -30.2634  -15.8624   17.9670 O   0  0  0  0  0  0  0  0  0  0  0  0
  -21.7100   -6.6739   21.3256 O   0  0  0  0  0  0  0  0  0  0  0  0
  -26.5182  -26.2984   19.2955 O   0  0  0  0  0  0  0  0  0  1  0  0
  -20.6490   -3.6254   25.7960 F   0  0  0  0  0  0  0  0  0  0  0  0
  -22.1885   -3.9511   21.3318 F   0  0  0  0  0  0  0  0  0  0  0  0
  1  2  1  0  0  0  0
  1  5  2  0  0  0  0
  2  6  2  0  0  0  0
  3  8  2  0  0  0  0
  3 15  1  0  0  0  0
  4  9  1  0  0  0  0
  4 15  2  0  0  0  0
  5 17  1  0  0  0  0
  6 19  1  0  0  0  0
  7 10  2  0  0  0  0
  7 18  1  0  0  0  0
  8 21  1  0  0  0  0
  9 21  2  0  0  0  0
 10 22  1  0  0  0  0
 11 12  2  0  0  0  0
 11 23  1  0  0  0  0
 12 24  1  0  0  0  0
 13 20  1  0  0  0  0
 13 22  2  0  0  0  0
 14 24  2  0  0  0  0
 14 25  1  0  0  0  0
 15 26  1  0  0  0  0
 16 26  1  0  0  0  0
 16 27  2  0  0  0  0
 16 35  1  0  0  0  0
 17 19  2  0  0  0  0
 17 41  1  0  0  0  0
 18 20  2  0  0  0  0
 18 42  1  0  0  0  0
 19 50  1  0  0  0  0
 20 43  1  0  0  0  0
 21 84  1  0  0  0  0
 22 85  1  0  0  0  0
 23 25  2  0  0  0  0
 23 84  1  0  0  0  0
 24 86  1  0  0  0  0
 25 87  1  0  0  0  0
 26 67  2  0  0  0  0
 27 69  1  0  0  0  0
 27 72  1  0  0  0  0
 28 29  2  0  0  0  0
 28 33  1  0  0  0  0
 29 34  1  0  0  0  0
 30 31  1  0  0  0  0
 30 33  2  0  0  0  0
 31 32  2  0  0  0  0
 31 53  1  0  0  0  0
 32 34  1  0  0  0  0
 32 60  1  0  0  0  0
 33 74  1  0  0  0  0
 34 68  2  0  0  0  0
 35 73  1  0  0  0  0
 35 78  2  0  0  0  0
 36 51  1  0  0  0  0
 36 75  1  0  0  0  0
 36 79  2  0  0  0  0
 37 64  1  0  0  0  0
 37 70  1  0  0  0  0
 37 80  2  0  0  0  0
 38 61  1  0  0  0  0
 38 74  1  0  0  0  0
 38 81  2  0  0  0  0
 39 65  1  0  0  0  0
 39 76  1  0  0  0  0
 39 82  2  0  0  0  0
 40 68  1  0  0  0  0
 40 71  1  0  0  0  0
 40 83  2  0  0  0  0
 41 44  1  0  0  0  0
 42 51  1  0  0  0  0
 43 70  1  0  0  0  0
 44 46  1  0  0  0  0
 45 47  1  0  0  0  0
 45 48  1  0  0  0  0
 46 50  1  0  0  0  0
 47 52  1  0  0  0  0
 48 71  1  0  0  0  0
 49 52  1  0  0  0  0
 49 71  1  0  0  0  0
 50 75  1  0  0  0  0
 51 70  1  0  0  0  0
 52 69  1  0  0  0  0
 54 60  1  0  0  0  0
 55 65  1  0  0  0  0
 56 66  1  0  0  0  0
 57 66  1  0  0  0  0
 58 66  1  0  0  0  0
 59 77  1  0  0  0  0
 61 62  1  0  0  0  0
 62 63  1  0  0  0  0
 63 85  1  0  0  0  0
 64 66  1  0  0  0  0
 64 76  1  0  0  0  0
 65 77  1  0  0  0  0
 67 69  1  0  0  0  0
M  CHG  1  77   1
M  ISO  4  40 100  63 101  68 100  85 101
M  END
> <Batch ID>
0116

> <Smiles>
CCc1c(C)cc(NC(=O)CC[101CH2:1][101O:1]c2ccc3c(c2)CN(C(=O)C(NC(=O)C(C)NC)C(C)(C)C)C(C(=O)NC2CCCc4ccccc42)C3)ccc1=[100N:0][100C:0](=O)N1CCCC(n2nc(-c3ccc(Oc4ccc(F)cc4F)cc3)c(C(N)=O)c2N)C1

> <Shape>
0.330

> <Color>
0.101

> <Negative vol penalty>
0.000

$$$$

  -OEChem-04052301433D

 84 92  0     1  0  0  0  0  0999 V2000
  -24.2976  -21.3038   18.5379 C   0  0  0  0  0  0  0  0  0  0  0  0
  -25.4435  -21.3770   19.3234 C   0  0  0  0  0  0  0  0  0  0  0  0
  -23.1447   -9.7650   20.1209 C   0  0  0  0  0  0  0  0  0  0  0  0
  -23.8220  -10.0276   22.4251 C   0  0  0  0  0  0  0  0  0  0  0  0
  -23.8774  -22.4191   17.8144 C   0  0  0  0  0  0  0  0  0  0  0  0
  -26.1705  -22.5653   19.3850 C   0  0  0  0  0  0  0  0  0  0  0  0
  -27.5262  -23.7704   24.1130 C   0  0  0  0  0  0  0  0  0  0  0  0
  -22.4160   -8.6264   20.4648 C   0  0  0  0  0  0  0  0  0  0  0  0
  -23.0932   -8.8890   22.7690 C   0  0  0  0  0  0  0  0  0  0  0  0
  -28.6120  -23.0864   24.6580 C   0  0  0  0  0  0  0  0  0  0  0  0
  -19.8625   -8.0809   23.3434 C   0  0  0  0  0  0  0  0  0  0  0  0
  -19.0652   -8.1443   24.4862 C   0  0  0  0  0  0  0  0  0  0  0  0
  -30.0379  -24.9684   24.1641 C   0  0  0  0  0  0  0  0  0  0  0  0
  -30.2460  -18.7951   23.5652 C   0  0  0  0  0  0  0  0  0  0  0  0
  -31.8966  -16.9370   22.2979 C   0  0  0  0  0  0  0  0  0  0  0  0
  -20.3187   -6.3238   25.4617 C   0  0  0  0  0  0  0  0  0  0  0  0
  -23.8477  -10.4655   21.1010 C   0  0  0  0  0  0  0  0  0  0  0  0
  -24.1422  -12.9721   20.7297 C   0  0  0  0  0  0  0  0  0  0  0  0
  -24.5942  -23.6246   17.8748 C   0  0  0  0  0  0  0  0  0  0  0  0
  -27.6907  -25.0564   23.5787 C   0  0  0  0  0  0  0  0  0  0  0  0
  -25.7602  -23.6974   18.6606 C   0  0  0  0  0  0  0  0  0  0  0  0
  -28.9521  -25.6676   23.6152 C   0  0  0  0  0  0  0  0  0  0  0  0
  -29.6902  -17.8152   22.7427 C   0  0  0  0  0  0  0  0  0  0  0  0
  -31.6271  -18.8460   23.7539 C   0  0  0  0  0  0  0  0  0  0  0  0
  -30.5155  -16.8861   22.1091 C   0  0  0  0  0  0  0  0  0  0  0  0
  -22.3902   -8.1885   21.7888 C   0  0  0  0  0  0  0  0  0  0  0  0
  -29.8686  -23.6842   24.6810 C   0  0  0  0  0  0  0  0  0  0  0  0
  -20.8878   -7.1389   23.2597 C   0  0  0  0  0  0  0  0  0  0  0  0
  -19.2933   -7.2658   25.5454 C   0  0  0  0  0  0  0  0  0  0  0  0
  -32.4524  -17.9170   23.1203 C   0  0  0  0  0  0  0  0  0  0  0  0
  -21.1160   -6.2604   24.3189 C   0  0  0  0  0  0  0  0  0  0  0  0
  -24.6012  -11.6414   20.7462 C   0  0  0  0  0  0  0  0  0  0  0  0
  -25.2312  -13.7059   20.3269 C   0  0  0  0  0  0  0  0  0  0  0  0
  -32.5076  -20.9414   23.9976 C   0  0  0  0  0  0  0  0  0  0  0  0
  -22.8474  -13.4980   21.0499 C   0  0  0  0  0  0  0  0  0  0  0  0
  -27.3204  -26.3539   20.7007 C   0  0  0  0  0  0  0  0  0  0  0  0
  -27.9415  -29.1111   22.2925 C   0  0  0  0  0  0  0  0  0  0  0  0
  -29.3629  -30.6410   24.9918 C   0  0  0  0  0  0  0  0  0  0  0  0
  -30.6653  -14.8944   20.5738 C   0  0  0  0  0  0  0  0  0  0  0  0
  -24.1275  -24.7893   17.0379 C   0  0  0  0  0  0  0  0  0  0  0  0
  -26.5039  -25.7916   23.0187 C   0  0  0  0  0  0  0  0  0  0  0  0
  -29.1773  -27.0546   23.0729 C   0  0  0  0  0  0  0  0  0  0  0  0
  -24.7444  -26.1228   17.4522 C   0  0  0  0  0  0  0  0  0  0  0  0
  -29.6854  -12.2224   18.4344 C   0  0  0  0  0  0  0  0  0  0  0  0
  -26.2494  -25.9755   17.6524 C   0  0  0  0  0  0  0  0  0  0  0  0
  -28.2375  -11.9425   18.8438 C   0  0  0  0  0  0  0  0  0  0  0  0
  -30.5522  -12.5962   19.6355 C   0  0  0  0  0  0  0  0  0  0  0  0
  -28.5828  -13.4140   20.8693 C   0  0  0  0  0  0  0  0  0  0  0  0
  -26.5617  -24.9761   18.7727 C   0  0  1  0  0  0  0  0  0  0  0  0
  -26.8921  -26.8924   22.0364 C   0  0  1  0  0  0  0  0  0  0  0  0
  -27.6564  -13.0965   19.6841 C   0  0  2  0  0  0  0  0  0  0  0  0
  -27.7809  -18.3619   21.2123 C   0  0  0  0  0  0  0  0  0  0  0  0
  -29.7403  -32.9085   25.9985 C   0  0  0  0  0  0  0  0  0  0  0  0
  -30.1374  -29.6523   20.2444 C   0  0  0  0  0  0  0  0  0  0  0  0
  -31.0730  -31.3719   21.8051 C   0  0  0  0  0  0  0  0  0  0  0  0
  -28.7778  -31.6558   20.8701 C   0  0  0  0  0  0  0  0  0  0  0  0
  -27.8410  -29.9392   27.4311 C   0  0  0  0  0  0  0  0  0  0  0  0
  -28.2076  -17.7839   22.5579 C   0  0  0  0  0  0  0  0  0  0  0  0
  -33.1010  -22.0789   24.7848 C   0  0  0  0  0  0  0  0  0  0  0  0
  -32.2170  -23.3091   24.6677 C   0  0  0  0  0  0  0  0  0  1  0  0
  -29.1882  -29.8912   22.6335 C   0  0  1  0  0  0  0  0  0  0  0  0
  -28.8307  -31.6906   25.9507 C   0  0  2  0  0  0  0  0  0  0  0  0
  -29.7906  -30.6159   21.3968 C   0  0  0  0  0  0  0  0  0  0  0  0
  -25.8818  -11.5330   20.3827 N   0  0  0  0  0  0  0  0  0  0  0  0
  -32.1854  -19.8341   24.5823 N   0  0  0  0  0  0  0  0  0  0  0  0
  -26.2369  -12.8051   20.1338 N   0  0  0  0  0  0  0  0  0  0  0  0
  -27.9871  -27.7300   22.5300 N   0  0  0  0  0  0  0  0  0  0  0  0
  -29.9414  -13.6987   20.3814 N   0  0  0  0  0  0  0  0  0  0  0  0
  -25.4170  -15.0273   20.1224 N   0  0  0  0  0  0  0  0  0  0  0  0
  -21.8428  -12.6047   21.4462 N   0  0  0  0  0  0  0  0  0  0  0  0
  -29.9705  -15.8835   21.2692 N   0  0  0  0  0  0  0  0  0  0  0  0
  -26.3590  -25.5891   20.0679 N   0  0  0  0  0  0  0  0  0  0  0  0
  -28.8251  -30.7823   23.7300 N   0  0  0  0  0  0  0  0  0  0  0  0
  -28.7247  -31.1288   27.3269 N   0  3  0  0  0  0  0  0  0  0  0  0
  -22.5843  -14.7219   20.9706 O   0  0  0  0  0  0  0  0  0  0  0  0
  -28.4396  -26.6142   20.2749 O   0  0  0  0  0  0  0  0  0  0  0  0
  -26.9608  -29.7063   21.8391 O   0  0  0  0  0  0  0  0  0  0  0  0
  -30.1773  -29.7839   25.3275 O   0  0  0  0  0  0  0  0  0  0  0  0
  -31.8067  -15.0408   20.1291 O   0  0  0  0  0  0  0  0  0  0  0  0
  -21.6790   -7.0777   22.1249 O   0  0  0  0  0  0  0  0  0  0  0  0
  -30.9302  -23.0185   25.2118 O   0  0  0  0  0  0  0  0  0  1  0  0
  -18.5286   -7.3279   26.6433 F   0  0  0  0  0  0  0  0  0  0  0  0
  -33.7805  -17.9581   23.2969 F   0  0  0  0  0  0  0  0  0  0  0  0
  -22.1003   -5.3540   24.2448 F   0  0  0  0  0  0  0  0  0  0  0  0
  1  2  1  0  0  0  0
  1  5  2  0  0  0  0
  2  6  2  0  0  0  0
  3  8  2  0  0  0  0
  3 17  1  0  0  0  0
  4  9  1  0  0  0  0
  4 17  2  0  0  0  0
  5 19  1  0  0  0  0
  6 21  1  0  0  0  0
  7 10  2  0  0  0  0
  7 20  1  0  0  0  0
  8 26  1  0  0  0  0
  9 26  2  0  0  0  0
 10 27  1  0  0  0  0
 11 12  2  0  0  0  0
 11 28  1  0  0  0  0
 12 29  1  0  0  0  0
 13 22  1  0  0  0  0
 13 27  2  0  0  0  0
 14 23  1  0  0  0  0
 14 24  2  0  0  0  0
 15 25  1  0  0  0  0
 15 30  2  0  0  0  0
 16 29  2  0  0  0  0
 16 31  1  0  0  0  0
 17 32  1  0  0  0  0
 18 32  1  0  0  0  0
 18 33  2  0  0  0  0
 18 35  1  0  0  0  0
 19 21  2  0  0  0  0
 19 40  1  0  0  0  0
 20 22  2  0  0  0  0
 20 41  1  0  0  0  0
 21 49  1  0  0  0  0
 22 42  1  0  0  0  0
 23 25  2  0  0  0  0
 23 58  1  0  0  0  0
 24 30  1  0  0  0  0
 24 65  1  0  0  0  0
 25 71  1  0  0  0  0
 26 80  1  0  0  0  0
 27 81  1  0  0  0  0
 28 31  2  0  0  0  0
 28 80  1  0  0  0  0
 29 82  1  0  0  0  0
 30 83  1  0  0  0  0
 31 84  1  0  0  0  0
 32 64  2  0  0  0  0
 33 66  1  0  0  0  0
 33 69  1  0  0  0  0
 34 59  1  0  0  0  0
 34 65  2  0  0  0  0
 35 70  1  0  0  0  0
 35 75  2  0  0  0  0
 36 50  1  0  0  0  0
 36 72  1  0  0  0  0
 36 76  2  0  0  0  0
 37 61  1  0  0  0  0
 37 67  1  0  0  0  0
 37 77  2  0  0  0  0
 38 62  1  0  0  0  0
 38 73  1  0  0  0  0
 38 78  2  0  0  0  0
 39 68  1  0  0  0  0
 39 71  1  0  0  0  0
 39 79  2  0  0  0  0
 40 43  1  0  0  0  0
 41 50  1  0  0  0  0
 42 67  1  0  0  0  0
 43 45  1  0  0  0  0
 44 46  1  0  0  0  0
 44 47  1  0  0  0  0
 45 49  1  0  0  0  0
 46 51  1  0  0  0  0
 47 68  1  0  0  0  0
 48 51  1  0  0  0  0
 48 68  1  0  0  0  0
 49 72  1  0  0  0  0
 50 67  1  0  0  0  0
 51 66  1  0  0  0  0
 52 58  1  0  0  0  0
 53 62  1  0  0  0  0
 54 63  1  0  0  0  0
 55 63  1  0  0  0  0
 56 63  1  0  0  0  0
 57 74  1  0  0  0  0
 59 60  1  0  0  0  0
 60 81  1  0  0  0  0
 61 63  1  0  0  0  0
 61 73  1  0  0  0  0
 62 74  1  0  0  0  0
 64 66  1  0  0  0  0
M  CHG  1  74   1
M  ISO  4  39 100  60 101  71 100  81 101
M  END
> <Batch ID>
0116

> <Smiles>
CCc1cc(NC=C[101CH2:1][101O:1]c2ccc3c(c2)CN(C(=O)C(NC(=O)C(C)NC)C(C)(C)C)C(C(=O)NC2CCCc4ccccc42)C3)c(F)cc1[100NH:0][100C:0](=O)N1CCCC(n2nc(-c3ccc(Oc4ccc(F)cc4F)cc3)c(C(N)=O)c2N)C1

> <Shape>
0.220

> <Color>
0.205

> <Negative vol penalty>
0.000

$$$$

  -OEChem-04052301433D

 81 89  0     1  0  0  0  0  0999 V2000
  -20.5783  -35.4861   22.3046 C   0  0  0  0  0  0  0  0  0  0  0  0
  -21.7488  -34.9240   21.8053 C   0  0  0  0  0  0  0  0  0  0  0  0
  -27.0597  -12.2134   21.0910 C   0  0  0  0  0  0  0  0  0  0  0  0
  -26.9174  -12.8122   18.7547 C   0  0  0  0  0  0  0  0  0  0  0  0
  -31.7295  -22.8942   17.9701 C   0  0  0  0  0  0  0  0  0  0  0  0
  -19.8670  -34.8337   23.3108 C   0  0  0  0  0  0  0  0  0  0  0  0
  -22.2094  -33.7095   22.3127 C   0  0  0  0  0  0  0  0  0  0  0  0
  -25.1036  -29.2872   19.2187 C   0  0  0  0  0  0  0  0  0  0  0  0
  -30.8684  -21.8713   18.3672 C   0  0  0  0  0  0  0  0  0  0  0  0
  -26.4492  -10.9901   20.8146 C   0  0  0  0  0  0  0  0  0  0  0  0
  -26.3069  -11.5889   18.4783 C   0  0  0  0  0  0  0  0  0  0  0  0
  -26.4527  -28.9581   19.0945 C   0  0  0  0  0  0  0  0  0  0  0  0
  -24.6016   -7.8582   20.7812 C   0  0  0  0  0  0  0  0  0  0  0  0
  -23.5863   -7.4305   21.6366 C   0  0  0  0  0  0  0  0  0  0  0  0
  -29.3947  -23.5015   19.3711 C   0  0  0  0  0  0  0  0  0  0  0  0
  -26.2084  -27.3202   20.8486 C   0  0  0  0  0  0  0  0  0  0  0  0
  -22.3051   -9.4087   21.1052 C   0  0  0  0  0  0  0  0  0  0  0  0
  -27.2938  -13.1245   20.0610 C   0  0  0  0  0  0  0  0  0  0  0  0
  -31.4233  -24.2208   18.2736 C   0  0  0  0  0  0  0  0  0  0  0  0
  -30.2559  -24.5244   18.9741 C   0  0  0  0  0  0  0  0  0  0  0  0
  -29.3027  -14.6728   20.3346 C   0  0  0  0  0  0  0  0  0  0  0  0
  -20.3139  -33.6059   23.8240 C   0  0  0  0  0  0  0  0  0  0  0  0
  -24.2980  -28.6419   20.1679 C   0  0  0  0  0  0  0  0  0  0  0  0
  -21.5041  -33.0408   23.3276 C   0  0  0  0  0  0  0  0  0  0  0  0
  -24.8488  -27.6412   20.9811 C   0  0  0  0  0  0  0  0  0  0  0  0
  -29.7010  -22.1749   19.0676 C   0  0  0  0  0  0  0  0  0  0  0  0
  -26.0728  -10.6778   19.5083 C   0  0  0  0  0  0  0  0  0  0  0  0
  -27.0060  -27.9765   19.9115 C   0  0  0  0  0  0  0  0  0  0  0  0
  -24.4687   -9.0612   20.0878 C   0  0  0  0  0  0  0  0  0  0  0  0
  -22.4380   -8.2057   21.7986 C   0  0  0  0  0  0  0  0  0  0  0  0
  -23.3205   -9.8365   20.2497 C   0  0  0  0  0  0  0  0  0  0  0  0
  -27.9240  -14.3886   20.3459 C   0  0  0  0  0  0  0  0  0  0  0  0
  -29.3819  -16.0025   20.6697 C   0  0  0  0  0  0  0  0  0  0  0  0
  -33.6272  -25.2939   18.1947 C   0  0  0  0  0  0  0  0  0  0  0  0
  -32.3531  -25.2571   17.8382 C   0  0  0  0  0  0  0  0  0  0  0  0
  -29.8924  -25.9097   19.3169 C   0  0  0  0  0  0  0  0  0  0  0  0
  -28.6425  -26.3658   19.4664 C   0  0  0  0  0  0  0  0  0  1  0  0
  -30.4125  -13.8120   20.0468 C   0  0  0  0  0  0  0  0  0  0  0  0
  -22.6427  -29.5795   22.7144 C   0  0  0  0  0  0  0  0  0  0  0  0
  -21.6350  -26.4961   22.7100 C   0  0  0  0  0  0  0  0  0  0  0  0
  -22.2204  -23.2581   21.8047 C   0  0  0  0  0  0  0  0  0  0  0  0
  -27.6284  -21.2638   20.1725 C   0  0  0  0  0  0  0  0  0  0  0  0
  -19.5367  -32.9614   24.9444 C   0  0  0  0  0  0  0  0  0  0  0  0
  -22.8383  -28.9896   20.2711 C   0  0  0  0  0  0  0  0  0  0  0  0
  -24.0219  -26.9043   22.0018 C   0  0  0  0  0  0  0  0  0  0  0  0
  -19.8912  -31.4932   25.1657 C   0  0  0  0  0  0  0  0  0  0  0  0
  -25.8516  -19.1696   22.4384 C   0  0  0  0  0  0  0  0  0  0  0  0
  -21.4050  -31.3055   25.1783 C   0  0  0  0  0  0  0  0  0  0  0  0
  -26.3458  -17.7624   22.0951 C   0  0  0  0  0  0  0  0  0  0  0  0
  -25.7190  -20.0438   21.1927 C   0  0  0  0  0  0  0  0  0  0  0  0
  -27.4152  -18.7058   20.0086 C   0  0  0  0  0  0  0  0  0  0  0  0
  -22.0226  -31.7126   23.8351 C   0  0  1  0  0  0  0  0  0  0  0  0
  -22.2326  -28.6301   21.6244 C   0  0  1  0  0  0  0  0  0  0  0  0
  -27.6265  -17.8082   21.2388 C   0  0  2  0  0  0  0  0  0  0  0  0
  -21.2352  -20.9564   21.9744 C   0  0  0  0  0  0  0  0  0  0  0  0
  -22.5285  -26.3311   25.6228 C   0  0  0  0  0  0  0  0  0  0  0  0
  -22.4149  -23.8365   25.4436 C   0  0  0  0  0  0  0  0  0  0  0  0
  -20.3508  -25.2027   25.1340 C   0  0  0  0  0  0  0  0  0  0  0  0
  -22.0048  -23.0075   18.8637 C   0  0  0  0  0  0  0  0  0  0  0  0
  -22.1243  -25.2106   23.3321 C   0  0  1  0  0  0  0  0  0  0  0  0
  -21.3331  -22.2226   21.1378 C   0  0  2  0  0  0  0  0  0  0  0  0
  -21.8709  -25.1603   24.8653 C   0  0  0  0  0  0  0  0  0  0  0  0
  -27.1808  -15.4521   20.6632 N   0  0  0  0  0  0  0  0  0  0  0  0
  -28.0959  -16.4175   20.8545 N   0  0  0  0  0  0  0  0  0  0  0  0
  -22.6012  -27.2845   22.0690 N   0  0  0  0  0  0  0  0  0  0  0  0
  -26.9714  -20.0427   20.4336 N   0  0  0  0  0  0  0  0  0  0  0  0
  -30.4254  -16.8454   20.8215 N   0  0  0  0  0  0  0  0  0  0  0  0
  -30.1532  -12.4739   19.7204 N   0  0  0  0  0  0  0  0  0  0  0  0
  -28.8268  -21.1353   19.4710 N   0  0  0  0  0  0  0  0  0  0  0  0
  -21.8124  -30.6760   22.8473 N   0  0  0  0  0  0  0  0  0  0  0  0
  -21.4905  -24.1290   22.5859 N   0  0  0  0  0  0  0  0  0  0  0  0
  -21.8769  -21.8600   19.7984 N   0  3  0  0  0  0  0  0  0  0  0  0
  -31.6001  -14.2133   20.0942 O   0  0  0  0  0  0  0  0  0  0  0  0
  -23.6379  -29.3345   23.3862 O   0  0  0  0  0  0  0  0  0  0  0  0
  -20.4384  -26.7865   22.7836 O   0  0  0  0  0  0  0  0  0  0  0  0
  -23.4394  -23.2890   21.6512 O   0  0  0  0  0  0  0  0  0  0  0  0
  -27.1762  -22.3414   20.5676 O   0  0  0  0  0  0  0  0  0  0  0  0
  -25.4773   -9.4841   19.2383 O   0  0  0  0  0  0  0  0  0  0  0  0
  -28.3226  -27.6538   19.7927 O   0  0  0  0  0  0  0  0  0  1  0  0
  -21.4624   -7.7941   22.6189 F   0  0  0  0  0  0  0  0  0  0  0  0
  -23.1866  -10.9925   19.5853 F   0  0  0  0  0  0  0  0  0  0  0  0
  1  2  1  0  0  0  0
  1  6  2  0  0  0  0
  2  7  2  0  0  0  0
  3 10  2  0  0  0  0
  3 18  1  0  0  0  0
  4 11  1  0  0  0  0
  4 18  2  0  0  0  0
  5  9  2  0  0  0  0
  5 19  1  0  0  0  0
  6 22  1  0  0  0  0
  7 24  1  0  0  0  0
  8 12  2  0  0  0  0
  8 23  1  0  0  0  0
  9 26  1  0  0  0  0
 10 27  1  0  0  0  0
 11 27  2  0  0  0  0
 12 28  1  0  0  0  0
 13 14  2  0  0  0  0
 13 29  1  0  0  0  0
 14 30  1  0  0  0  0
 15 20  1  0  0  0  0
 15 26  2  0  0  0  0
 16 25  1  0  0  0  0
 16 28  2  0  0  0  0
 17 30  2  0  0  0  0
 17 31  1  0  0  0  0
 18 32  1  0  0  0  0
 19 20  2  0  0  0  0
 19 35  1  0  0  0  0
 20 36  1  0  0  0  0
 21 32  1  0  0  0  0
 21 33  2  0  0  0  0
 21 38  1  0  0  0  0
 22 24  2  0  0  0  0
 22 43  1  0  0  0  0
 23 25  2  0  0  0  0
 23 44  1  0  0  0  0
 24 52  1  0  0  0  0
 25 45  1  0  0  0  0
 26 69  1  0  0  0  0
 27 78  1  0  0  0  0
 28 79  1  0  0  0  0
 29 31  2  0  0  0  0
 29 78  1  0  0  0  0
 30 80  1  0  0  0  0
 31 81  1  0  0  0  0
 32 63  2  0  0  0  0
 33 64  1  0  0  0  0
 33 67  1  0  0  0  0
 34 35  2  0  0  0  0
 36 37  2  0  0  0  0
 37 79  1  0  0  0  0
 38 68  1  0  0  0  0
 38 73  2  0  0  0  0
 39 53  1  0  0  0  0
 39 70  1  0  0  0  0
 39 74  2  0  0  0  0
 40 60  1  0  0  0  0
 40 65  1  0  0  0  0
 40 75  2  0  0  0  0
 41 61  1  0  0  0  0
 41 71  1  0  0  0  0
 41 76  2  0  0  0  0
 42 66  1  0  0  0  0
 42 69  1  0  0  0  0
 42 77  2  0  0  0  0
 43 46  1  0  0  0  0
 44 53  1  0  0  0  0
 45 65  1  0  0  0  0
 46 48  1  0  0  0  0
 47 49  1  0  0  0  0
 47 50  1  0  0  0  0
 48 52  1  0  0  0  0
 49 54  1  0  0  0  0
 50 66  1  0  0  0  0
 51 54  1  0  0  0  0
 51 66  1  0  0  0  0
 52 70  1  0  0  0  0
 53 65  1  0  0  0  0
 54 64  1  0  0  0  0
 55 61  1  0  0  0  0
 56 62  1  0  0  0  0
 57 62  1  0  0  0  0
 58 62  1  0  0  0  0
 59 72  1  0  0  0  0
 60 62  1  0  0  0  0
 60 71  1  0  0  0  0
 61 72  1  0  0  0  0
 63 64  1  0  0  0  0
M  CHG  1  72   1
M  ISO  4  37 101  42 100  69 100  79 101
M  END
> <Batch ID>
0116

> <Smiles>
C=Cc1ccc([100NH:0][100C:0](=O)N2CCCC(n3nc(-c4ccc(Oc5ccc(F)cc5F)cc4)c(C(N)=O)c3N)C2)cc1C=[101CH:1][101O:1]c1ccc2c(c1)CN(C(=O)C(NC(=O)C(C)NC)C(C)(C)C)C(C(=O)NC1CCCc3ccccc31)C2

> <Shape>
0.241

> <Color>
0.074

> <Negative vol penalty>
0.000

$$$$

  -OEChem-04052301433D

 85 93  0     1  0  0  0  0  0999 V2000
  -30.9757  -32.7956   24.1680 C   0  0  0  0  0  0  0  0  0  0  0  0
  -30.2146  -31.7357   23.6853 C   0  0  0  0  0  0  0  0  0  0  0  0
  -24.8263   -8.9761   21.1011 C   0  0  0  0  0  0  0  0  0  0  0  0
  -23.0931  -10.4108   20.2208 C   0  0  0  0  0  0  0  0  0  0  0  0
  -30.4396  -33.6596   25.1219 C   0  0  0  0  0  0  0  0  0  0  0  0
  -28.9173  -31.5387   24.1572 C   0  0  0  0  0  0  0  0  0  0  0  0
  -25.6280  -30.5411   20.4383 C   0  0  0  0  0  0  0  0  0  0  0  0
  -23.8724   -7.9998   21.3883 C   0  0  0  0  0  0  0  0  0  0  0  0
  -22.1392   -9.4345   20.5080 C   0  0  0  0  0  0  0  0  0  0  0  0
  -25.6278  -29.2475   19.9185 C   0  0  0  0  0  0  0  0  0  0  0  0
  -21.5513   -7.4115   23.7738 C   0  0  0  0  0  0  0  0  0  0  0  0
  -21.6187   -6.7871   25.0192 C   0  0  0  0  0  0  0  0  0  0  0  0
  -28.9705  -19.4856   16.7648 C   0  0  0  0  0  0  0  0  0  0  0  0
  -23.6994  -28.7131   21.2657 C   0  0  0  0  0  0  0  0  0  0  0  0
  -28.0567  -20.0240   19.3450 C   0  0  0  0  0  0  0  0  0  0  0  0
  -21.9120   -4.6497   23.9318 C   0  0  0  0  0  0  0  0  0  0  0  0
  -24.4367  -10.1816   20.5174 C   0  0  0  0  0  0  0  0  0  0  0  0
  -28.5248  -18.4439   17.5783 C   0  0  0  0  0  0  0  0  0  0  0  0
  -26.1520  -11.3409   19.0270 C   0  0  0  0  0  0  0  0  0  0  0  0
  -29.1316  -33.4788   25.5986 C   0  0  0  0  0  0  0  0  0  0  0  0
  -24.6690  -30.9279   21.3854 C   0  0  0  0  0  0  0  0  0  0  0  0
  -28.3637  -32.4003   25.1194 C   0  0  0  0  0  0  0  0  0  0  0  0
  -23.6881  -30.0130   21.7941 C   0  0  0  0  0  0  0  0  0  0  0  0
  -28.9593  -20.7965   17.2414 C   0  0  0  0  0  0  0  0  0  0  0  0
  -28.0679  -18.7131   18.8684 C   0  0  0  0  0  0  0  0  0  0  0  0
  -22.5288   -8.2290   21.0917 C   0  0  0  0  0  0  0  0  0  0  0  0
  -24.6651  -28.3323   20.3343 C   0  0  0  0  0  0  0  0  0  0  0  0
  -21.6641   -6.6550   22.6073 C   0  0  0  0  0  0  0  0  0  0  0  0
  -28.5024  -21.0657   18.5315 C   0  0  0  0  0  0  0  0  0  0  0  0
  -21.7991   -5.4062   25.0983 C   0  0  0  0  0  0  0  0  0  0  0  0
  -21.8445   -5.2741   22.6863 C   0  0  0  0  0  0  0  0  0  0  0  0
  -25.4216  -11.1907   20.2210 C   0  0  0  0  0  0  0  0  0  0  0  0
  -26.9477  -12.4386   19.2470 C   0  0  0  0  0  0  0  0  0  0  0  0
  -27.9133  -16.7175   15.9470 C   0  0  0  0  0  0  0  0  0  0  0  0
  -28.5526  -17.0867   17.0461 C   0  0  0  0  0  0  0  0  0  0  0  0
  -26.1146  -10.5582   17.8263 C   0  0  0  0  0  0  0  0  0  0  0  0
  -24.7704  -31.9251   24.4019 C   0  0  0  0  0  0  0  0  0  0  0  0
  -21.5893  -32.3727   23.9517 C   0  0  0  0  0  0  0  0  0  0  0  0
  -18.7623  -31.5444   22.2286 C   0  0  0  0  0  0  0  0  0  0  0  0
  -27.6710  -17.6354   21.1106 C   0  0  0  0  0  0  0  0  0  0  0  0
  -28.6122  -34.4106   26.6647 C   0  0  0  0  0  0  0  0  0  0  0  0
  -24.6666  -32.3351   21.9165 C   0  0  0  0  0  0  0  0  0  0  0  0
  -22.6243  -30.3846   22.7934 C   0  0  0  0  0  0  0  0  0  0  0  0
  -27.0964  -34.3546   26.8367 C   0  0  0  0  0  0  0  0  0  0  0  0
  -27.9138  -15.0072   23.5003 C   0  0  0  0  0  0  0  0  0  0  0  0
  -26.6185  -32.9071   26.8923 C   0  0  0  0  0  0  0  0  0  0  0  0
  -27.3472  -13.7924   22.7620 C   0  0  0  0  0  0  0  0  0  0  0  0
  -27.1674  -16.2900   23.1382 C   0  0  0  0  0  0  0  0  0  0  0  0
  -26.5006  -15.3500   20.9608 C   0  0  0  0  0  0  0  0  0  0  0  0
  -26.9438  -32.1684   25.5884 C   0  0  1  0  0  0  0  0  0  0  0  0
  -23.9563  -32.4654   23.2603 C   0  0  1  0  0  0  0  0  0  0  0  0
  -27.2622  -14.0448   21.2439 C   0  0  2  0  0  0  0  0  0  0  0  0
  -29.4392  -21.8997   16.3569 C   0  0  0  0  0  0  0  0  0  0  0  0
  -16.3069  -32.0497   22.1125 C   0  0  0  0  0  0  0  0  0  0  0  0
  -21.1249  -30.6768   26.4454 C   0  0  0  0  0  0  0  0  0  0  0  0
  -18.7346  -30.4255   25.7444 C   0  0  0  0  0  0  0  0  0  0  0  0
  -19.6495  -32.6878   26.2617 C   0  0  0  0  0  0  0  0  0  0  0  0
  -18.9802  -32.5394   19.4499 C   0  0  0  0  0  0  0  0  0  0  0  0
  -25.8972  -25.0066   19.5944 C   0  0  0  0  0  0  0  0  0  0  0  0
  -27.2332  -24.3801   19.2106 C   0  0  0  0  0  0  0  0  0  0  0  0
  -25.9230  -26.5218   19.4424 C   0  0  0  0  0  0  0  0  0  1  0  0
  -27.2220  -22.8702   19.4032 C   0  0  0  0  0  0  0  0  0  0  0  0
  -20.3542  -31.5233   24.1312 C   0  0  1  0  0  0  0  0  0  0  0  0
  -17.6885  -32.4017   21.5832 C   0  0  2  0  0  0  0  0  0  0  0  0
  -19.9869  -31.3205   25.6283 C   0  0  0  0  0  0  0  0  0  0  0  0
  -25.7263  -12.1187   21.1321 N   0  0  0  0  0  0  0  0  0  0  0  0
  -26.6571  -12.8624   20.5104 N   0  0  0  0  0  0  0  0  0  0  0  0
  -22.6677  -31.7704   23.2883 N   0  0  0  0  0  0  0  0  0  0  0  0
  -27.1307  -16.4652   21.6846 N   0  0  0  0  0  0  0  0  0  0  0  0
  -27.8607  -13.0729   18.4812 N   0  0  0  0  0  0  0  0  0  0  0  0
  -25.2398   -9.4647   17.7685 N   0  0  0  0  0  0  0  0  0  0  0  0
  -27.6091  -17.6761   19.7181 N   0  0  0  0  0  0  0  0  0  0  0  0
  -26.0019  -32.5336   24.5521 N   0  0  0  0  0  0  0  0  0  0  0  0
  -19.3051  -32.1558   23.3389 N   0  0  0  0  0  0  0  0  0  0  0  0
  -17.6892  -32.2075   20.1056 N   0  3  0  0  0  0  0  0  0  0  0  0
  -26.8474  -10.8109   16.8400 O   0  0  0  0  0  0  0  0  0  0  0  0
  -24.3143  -31.0240   25.0959 O   0  0  0  0  0  0  0  0  0  0  0  0
  -21.5943  -33.5302   24.3778 O   0  0  0  0  0  0  0  0  0  0  0  0
  -19.0845  -30.4410   21.7936 O   0  0  0  0  0  0  0  0  0  0  0  0
  -28.1777  -18.5229   21.8017 O   0  0  0  0  0  0  0  0  0  0  0  0
  -21.5977   -7.2765   21.3716 O   0  0  0  0  0  0  0  0  0  0  0  0
  -24.6630  -27.0688   19.8291 O   0  0  0  0  0  0  0  0  0  1  0  0
  -28.4853  -22.3480   19.0155 O   0  0  0  0  0  0  0  0  0  0  0  0
  -21.8654   -4.8070   26.2944 F   0  0  0  0  0  0  0  0  0  0  0  0
  -21.9547   -4.5422   21.5692 F   0  0  0  0  0  0  0  0  0  0  0  0
  1  2  1  0  0  0  0
  1  5  2  0  0  0  0
  2  6  2  0  0  0  0
  3  8  2  0  0  0  0
  3 17  1  0  0  0  0
  4  9  1  0  0  0  0
  4 17  2  0  0  0  0
  5 20  1  0  0  0  0
  6 22  1  0  0  0  0
  7 10  2  0  0  0  0
  7 21  1  0  0  0  0
  8 26  1  0  0  0  0
  9 26  2  0  0  0  0
 10 27  1  0  0  0  0
 11 12  2  0  0  0  0
 11 28  1  0  0  0  0
 12 30  1  0  0  0  0
 13 18  1  0  0  0  0
 13 24  2  0  0  0  0
 14 23  1  0  0  0  0
 14 27  2  0  0  0  0
 15 25  1  0  0  0  0
 15 29  2  0  0  0  0
 16 30  2  0  0  0  0
 16 31  1  0  0  0  0
 17 32  1  0  0  0  0
 18 25  2  0  0  0  0
 18 35  1  0  0  0  0
 19 32  1  0  0  0  0
 19 33  2  0  0  0  0
 19 36  1  0  0  0  0
 20 22  2  0  0  0  0
 20 41  1  0  0  0  0
 21 23  2  0  0  0  0
 21 42  1  0  0  0  0
 22 50  1  0  0  0  0
 23 43  1  0  0  0  0
 24 29  1  0  0  0  0
 24 53  1  0  0  0  0
 25 72  1  0  0  0  0
 26 81  1  0  0  0  0
 27 82  1  0  0  0  0
 28 31  2  0  0  0  0
 28 81  1  0  0  0  0
 29 83  1  0  0  0  0
 30 84  1  0  0  0  0
 31 85  1  0  0  0  0
 32 66  2  0  0  0  0
 33 67  1  0  0  0  0
 33 70  1  0  0  0  0
 34 35  2  0  0  0  0
 36 71  1  0  0  0  0
 36 76  2  0  0  0  0
 37 51  1  0  0  0  0
 37 73  1  0  0  0  0
 37 77  2  0  0  0  0
 38 63  1  0  0  0  0
 38 68  1  0  0  0  0
 38 78  2  0  0  0  0
 39 64  1  0  0  0  0
 39 74  1  0  0  0  0
 39 79  2  0  0  0  0
 40 69  1  0  0  0  0
 40 72  1  0  0  0  0
 40 80  2  0  0  0  0
 41 44  1  0  0  0  0
 42 51  1  0  0  0  0
 43 68  1  0  0  0  0
 44 46  1  0  0  0  0
 45 47  1  0  0  0  0
 45 48  1  0  0  0  0
 46 50  1  0  0  0  0
 47 52  1  0  0  0  0
 48 69  1  0  0  0  0
 49 52  1  0  0  0  0
 49 69  1  0  0  0  0
 50 73  1  0  0  0  0
 51 68  1  0  0  0  0
 52 67  1  0  0  0  0
 54 64  1  0  0  0  0
 55 65  1  0  0  0  0
 56 65  1  0  0  0  0
 57 65  1  0  0  0  0
 58 75  1  0  0  0  0
 59 60  1  0  0  0  0
 59 61  1  0  0  0  0
 60 62  1  0  0  0  0
 61 82  1  0  0  0  0
 62 83  1  0  0  0  0
 63 65  1  0  0  0  0
 63 74  1  0  0  0  0
 64 75  1  0  0  0  0
 66 67  1  0  0  0  0
M  CHG  1  75   1
M  ISO  4  40 100  61 101  72 100  82 101
M  END
> <Batch ID>
0116

> <Smiles>
C=Cc1cc(C)c(OCCC[101CH2:1][101O:1]c2ccc3c(c2)CN(C(=O)C(NC(=O)C(C)NC)C(C)(C)C)C(C(=O)NC2CCCc4ccccc42)C3)cc1[100NH:0][100C:0](=O)N1CCCC(n2nc(-c3ccc(Oc4ccc(F)cc4F)cc3)c(C(N)=O)c2N)C1

> <Shape>
0.273

> <Color>
0.084

> <Negative vol penalty>
0.000

$$$$

  -OEChem-04052301433D

 86 94  0     1  0  0  0  0  0999 V2000
  -27.2780  -32.9459   26.5643 C   0  0  0  0  0  0  0  0  0  0  0  0
  -27.5660  -31.8461   25.7625 C   0  0  0  0  0  0  0  0  0  0  0  0
  -24.7515   -8.9500   21.3588 C   0  0  0  0  0  0  0  0  0  0  0  0
  -23.0760  -10.4256   20.4356 C   0  0  0  0  0  0  0  0  0  0  0  0
  -25.9743  -33.1600   27.0100 C   0  0  0  0  0  0  0  0  0  0  0  0
  -26.5506  -30.9590   25.4069 C   0  0  0  0  0  0  0  0  0  0  0  0
  -26.6979  -29.7028   20.5033 C   0  0  0  0  0  0  0  0  0  0  0  0
  -23.7834   -7.9616   21.5360 C   0  0  0  0  0  0  0  0  0  0  0  0
  -22.1079   -9.4372   20.6128 C   0  0  0  0  0  0  0  0  0  0  0  0
  -27.6483  -28.7590   20.1161 C   0  0  0  0  0  0  0  0  0  0  0  0
  -21.3123   -7.2616   23.7333 C   0  0  0  0  0  0  0  0  0  0  0  0
  -21.2995   -6.5787   24.9495 C   0  0  0  0  0  0  0  0  0  0  0  0
  -27.5107  -20.0385   17.6783 C   0  0  0  0  0  0  0  0  0  0  0  0
  -25.9452  -27.0506   20.1221 C   0  0  0  0  0  0  0  0  0  0  0  0
  -27.4305  -20.1158   20.4658 C   0  0  0  0  0  0  0  0  0  0  0  0
  -21.6693   -4.4952   23.7835 C   0  0  0  0  0  0  0  0  0  0  0  0
  -24.3978  -10.1821   20.8086 C   0  0  0  0  0  0  0  0  0  0  0  0
  -27.5734  -18.8532   18.4109 C   0  0  0  0  0  0  0  0  0  0  0  0
  -26.2041  -11.4102   19.4908 C   0  0  0  0  0  0  0  0  0  0  0  0
  -24.9406  -32.2804   26.6516 C   0  0  0  0  0  0  0  0  0  0  0  0
  -25.3641  -29.3248   20.7137 C   0  0  0  0  0  0  0  0  0  0  0  0
  -25.2322  -31.1608   25.8492 C   0  0  0  0  0  0  0  0  0  0  0  0
  -24.9794  -27.9920   20.5094 C   0  0  0  0  0  0  0  0  0  0  0  0
  -27.5333  -18.8918   19.8047 C   0  0  0  0  0  0  0  0  0  0  0  0
  -22.4616   -8.2052   21.1630 C   0  0  0  0  0  0  0  0  0  0  0  0
  -27.2726  -27.4321   19.9282 C   0  0  0  0  0  0  0  0  0  0  0  0
  -21.5035   -6.5613   22.5422 C   0  0  0  0  0  0  0  0  0  0  0  0
  -27.4079  -21.2625   18.3395 C   0  0  0  0  0  0  0  0  0  0  0  0
  -27.3678  -21.3011   19.7332 C   0  0  0  0  0  0  0  0  0  0  0  0
  -21.4781   -5.1955   24.9746 C   0  0  0  0  0  0  0  0  0  0  0  0
  -21.6820   -5.1782   22.5673 C   0  0  0  0  0  0  0  0  0  0  0  0
  -25.3972  -11.2037   20.6257 C   0  0  0  0  0  0  0  0  0  0  0  0
  -26.9807  -12.4958   19.8145 C   0  0  0  0  0  0  0  0  0  0  0  0
  -28.6960  -17.2875   16.8933 C   0  0  0  0  0  0  0  0  0  0  0  0
  -27.6800  -17.5930   17.6851 C   0  0  0  0  0  0  0  0  0  0  0  0
  -28.8234  -24.9148   17.8728 C   0  0  0  0  0  0  0  0  0  0  0  0
  -28.0024  -25.8459   18.3719 C   0  0  0  0  0  0  0  0  0  1  0  0
  -26.2477  -10.6854   18.2544 C   0  0  0  0  0  0  0  0  0  0  0  0
  -23.3935  -29.3456   23.2078 C   0  0  0  0  0  0  0  0  0  0  0  0
  -21.2098  -28.4191   20.9953 C   0  0  0  0  0  0  0  0  0  0  0  0
  -20.5848  -26.9403   17.9837 C   0  0  0  0  0  0  0  0  0  0  0  0
  -27.5659  -17.5980   21.9659 C   0  0  0  0  0  0  0  0  0  0  0  0
  -23.5561  -32.5270   27.1965 C   0  0  0  0  0  0  0  0  0  0  0  0
  -24.3456  -30.3601   21.1053 C   0  0  0  0  0  0  0  0  0  0  0  0
  -23.5560  -27.5389   20.7026 C   0  0  0  0  0  0  0  0  0  0  0  0
  -22.4661  -31.7469   26.4659 C   0  0  0  0  0  0  0  0  0  0  0  0
  -27.6585  -14.8591   24.2391 C   0  0  0  0  0  0  0  0  0  0  0  0
  -22.8854  -30.2923   26.2782 C   0  0  0  0  0  0  0  0  0  0  0  0
  -27.1448  -13.6809   23.4083 C   0  0  0  0  0  0  0  0  0  0  0  0
  -26.9339  -16.1579   23.8899 C   0  0  0  0  0  0  0  0  0  0  0  0
  -26.4141  -15.3227   21.6313 C   0  0  0  0  0  0  0  0  0  0  0  0
  -24.1532  -30.1897   25.4217 C   0  0  1  0  0  0  0  0  0  0  0  0
  -23.1201  -29.7634   21.7906 C   0  0  1  0  0  0  0  0  0  0  0  0
  -27.1590  -14.0052   21.9016 C   0  0  2  0  0  0  0  0  0  0  0  0
  -18.6983  -26.2936   16.4605 C   0  0  0  0  0  0  0  0  0  0  0  0
  -20.5526  -26.0595   22.8148 C   0  0  0  0  0  0  0  0  0  0  0  0
  -19.4066  -24.9711   20.8730 C   0  0  0  0  0  0  0  0  0  0  0  0
  -18.5642  -27.1464   21.7568 C   0  0  0  0  0  0  0  0  0  0  0  0
  -21.5905  -28.6785   15.8098 C   0  0  0  0  0  0  0  0  0  0  0  0
  -25.9538  -22.9687   20.6689 C   0  0  0  0  0  0  0  0  0  0  0  0
  -28.5829  -24.2075   16.5694 C   0  0  0  0  0  0  0  0  0  0  0  0
  -28.4523  -22.7010   16.7596 C   0  0  0  0  0  0  0  0  0  0  0  0
  -20.7312  -27.0929   20.4555 C   0  0  1  0  0  0  0  0  0  0  0  0
  -19.7171  -27.3662   16.8132 C   0  0  2  0  0  0  0  0  0  0  0  0
  -19.8410  -26.3253   21.4732 C   0  0  0  0  0  0  0  0  0  0  0  0
  -25.6390  -12.0872   21.5979 N   0  0  0  0  0  0  0  0  0  0  0  0
  -26.6065  -12.8593   21.0747 N   0  0  0  0  0  0  0  0  0  0  0  0
  -22.5984  -28.5872   21.0917 N   0  0  0  0  0  0  0  0  0  0  0  0
  -26.9922  -16.4021   22.4471 N   0  0  0  0  0  0  0  0  0  0  0  0
  -27.9403  -13.1654   19.1412 N   0  0  0  0  0  0  0  0  0  0  0  0
  -25.3816   -9.5963   18.0875 N   0  0  0  0  0  0  0  0  0  0  0  0
  -27.5955  -17.7048   20.5759 N   0  0  0  0  0  0  0  0  0  0  0  0
  -23.8335  -30.3717   24.0220 N   0  0  0  0  0  0  0  0  0  0  0  0
  -20.0738  -27.3823   19.1857 N   0  0  0  0  0  0  0  0  0  0  0  0
  -20.5596  -27.6274   15.6120 N   0  3  0  0  0  0  0  0  0  0  0  0
  -27.0430  -10.9844   17.3316 O   0  0  0  0  0  0  0  0  0  0  0  0
  -23.2168  -28.1789   23.5385 O   0  0  0  0  0  0  0  0  0  0  0  0
  -20.3821  -29.2769   21.3127 O   0  0  0  0  0  0  0  0  0  0  0  0
  -21.6110  -26.2782   17.8460 O   0  0  0  0  0  0  0  0  0  0  0  0
  -28.0237  -18.4514   22.7301 O   0  0  0  0  0  0  0  0  0  0  0  0
  -21.5167   -7.2408   21.3356 O   0  0  0  0  0  0  0  0  0  0  0  0
  -28.1983  -26.5088   19.5509 O   0  0  0  0  0  0  0  0  0  1  0  0
  -27.2682  -22.4902   20.3902 O   0  0  0  0  0  0  0  0  0  0  0  0
  -27.3470  -22.4201   17.6086 O   0  0  0  0  0  0  0  0  0  0  0  0
  -21.4673   -4.5401   26.1427 F   0  0  0  0  0  0  0  0  0  0  0  0
  -21.8674   -4.5001   21.4263 F   0  0  0  0  0  0  0  0  0  0  0  0
  1  2  1  0  0  0  0
  1  5  2  0  0  0  0
  2  6  2  0  0  0  0
  3  8  2  0  0  0  0
  3 17  1  0  0  0  0
  4  9  1  0  0  0  0
  4 17  2  0  0  0  0
  5 20  1  0  0  0  0
  6 22  1  0  0  0  0
  7 10  2  0  0  0  0
  7 21  1  0  0  0  0
  8 25  1  0  0  0  0
  9 25  2  0  0  0  0
 10 26  1  0  0  0  0
 11 12  2  0  0  0  0
 11 27  1  0  0  0  0
 12 30  1  0  0  0  0
 13 18  1  0  0  0  0
 13 28  2  0  0  0  0
 14 23  1  0  0  0  0
 14 26  2  0  0  0  0
 15 24  1  0  0  0  0
 15 29  2  0  0  0  0
 16 30  2  0  0  0  0
 16 31  1  0  0  0  0
 17 32  1  0  0  0  0
 18 24  2  0  0  0  0
 18 35  1  0  0  0  0
 19 32  1  0  0  0  0
 19 33  2  0  0  0  0
 19 38  1  0  0  0  0
 20 22  2  0  0  0  0
 20 43  1  0  0  0  0
 21 23  2  0  0  0  0
 21 44  1  0  0  0  0
 22 52  1  0  0  0  0
 23 45  1  0  0  0  0
 24 72  1  0  0  0  0
 25 81  1  0  0  0  0
 26 82  1  0  0  0  0
 27 31  2  0  0  0  0
 27 81  1  0  0  0  0
 28 29  1  0  0  0  0
 28 84  1  0  0  0  0
 29 83  1  0  0  0  0
 30 85  1  0  0  0  0
 31 86  1  0  0  0  0
 32 66  2  0  0  0  0
 33 67  1  0  0  0  0
 33 70  1  0  0  0  0
 34 35  2  0  0  0  0
 36 37  2  0  0  0  0
 36 61  1  0  0  0  0
 37 82  1  0  0  0  0
 38 71  1  0  0  0  0
 38 76  2  0  0  0  0
 39 53  1  0  0  0  0
 39 73  1  0  0  0  0
 39 77  2  0  0  0  0
 40 63  1  0  0  0  0
 40 68  1  0  0  0  0
 40 78  2  0  0  0  0
 41 64  1  0  0  0  0
 41 74  1  0  0  0  0
 41 79  2  0  0  0  0
 42 69  1  0  0  0  0
 42 72  1  0  0  0  0
 42 80  2  0  0  0  0
 43 46  1  0  0  0  0
 44 53  1  0  0  0  0
 45 68  1  0  0  0  0
 46 48  1  0  0  0  0
 47 49  1  0  0  0  0
 47 50  1  0  0  0  0
 48 52  1  0  0  0  0
 49 54  1  0  0  0  0
 50 69  1  0  0  0  0
 51 54  1  0  0  0  0
 51 69  1  0  0  0  0
 52 73  1  0  0  0  0
 53 68  1  0  0  0  0
 54 67  1  0  0  0  0
 55 64  1  0  0  0  0
 56 65  1  0  0  0  0
 57 65  1  0  0  0  0
 58 65  1  0  0  0  0
 59 75  1  0  0  0  0
 60 83  1  0  0  0  0
 61 62  1  0  0  0  0
 62 84  1  0  0  0  0
 63 65  1  0  0  0  0
 63 74  1  0  0  0  0
 64 75  1  0  0  0  0
 66 67  1  0  0  0  0
M  CHG  1  75   1
M  ISO  4  37 101  42 100  72 100  82 101
M  END
> <Batch ID>
0116

> <Smiles>
C=Cc1cc(OCCC=[101CH:1][101O:1]c2ccc3c(c2)CN(C(=O)C(NC(=O)C(C)NC)C(C)(C)C)C(C(=O)NC2CCCc4ccccc42)C3)c(OC)cc1[100NH:0][100C:0](=O)N1CCCC(n2nc(-c3ccc(Oc4ccc(F)cc4F)cc3)c(C(N)=O)c2N)C1

> <Shape>
0.309

> <Color>
0.103

> <Negative vol penalty>
0.000

$$$$

  -OEChem-04052301433D

 90 99  0     1  0  0  0  0  0999 V2000
  -31.6034  -28.1590   15.6166 C   0  0  0  0  0  0  0  0  0  0  0  0
  -30.8443  -27.5330   16.6001 C   0  0  0  0  0  0  0  0  0  0  0  0
  -24.6606   -8.9747   22.0656 C   0  0  0  0  0  0  0  0  0  0  0  0
  -23.1987  -10.2131   20.5938 C   0  0  0  0  0  0  0  0  0  0  0  0
  -26.3108  -18.7618   21.4966 C   0  0  0  0  0  0  0  0  0  0  0  0
  -32.1035  -29.4420   15.8348 C   0  0  0  0  0  0  0  0  0  0  0  0
  -30.5857  -28.1893   17.8029 C   0  0  0  0  0  0  0  0  0  0  0  0
  -25.7503  -27.7660   19.2467 C   0  0  0  0  0  0  0  0  0  0  0  0
  -25.8228  -19.4498   22.6075 C   0  0  0  0  0  0  0  0  0  0  0  0
  -23.7705   -7.9010   22.0464 C   0  0  0  0  0  0  0  0  0  0  0  0
  -22.3085   -9.1393   20.5746 C   0  0  0  0  0  0  0  0  0  0  0  0
  -25.3631  -26.5602   19.8298 C   0  0  0  0  0  0  0  0  0  0  0  0
  -20.8442   -7.0654   23.5170 C   0  0  0  0  0  0  0  0  0  0  0  0
  -20.5431   -6.4523   24.7332 C   0  0  0  0  0  0  0  0  0  0  0  0
  -25.6564  -21.4656   21.2861 C   0  0  0  0  0  0  0  0  0  0  0  0
  -25.5416  -27.5665   22.0149 C   0  0  0  0  0  0  0  0  0  0  0  0
  -21.4073   -4.3589   23.8917 C   0  0  0  0  0  0  0  0  0  0  0  0
  -24.3747  -10.1308   21.3394 C   0  0  0  0  0  0  0  0  0  0  0  0
  -26.4717  -19.4257   20.2804 C   0  0  0  0  0  0  0  0  0  0  0  0
  -26.1445  -20.7776   20.1752 C   0  0  0  0  0  0  0  0  0  0  0  0
  -25.7123  -11.9773   22.4834 C   0  0  0  0  0  0  0  0  0  0  0  0
  -31.8428  -30.1182   17.0371 C   0  0  0  0  0  0  0  0  0  0  0  0
  -26.0471  -28.8798   20.0453 C   0  0  0  0  0  0  0  0  0  0  0  0
  -31.0840  -29.4820   18.0380 C   0  0  0  0  0  0  0  0  0  0  0  0
  -25.9299  -28.7860   21.4394 C   0  0  0  0  0  0  0  0  0  0  0  0
  -25.4956  -20.8016   22.5023 C   0  0  0  0  0  0  0  0  0  0  0  0
  -22.5945   -7.9832   21.3009 C   0  0  0  0  0  0  0  0  0  0  0  0
  -25.2615  -26.4595   21.2142 C   0  0  0  0  0  0  0  0  0  0  0  0
  -21.4267   -6.3253   22.4882 C   0  0  0  0  0  0  0  0  0  0  0  0
  -20.8246   -5.0990   24.9206 C   0  0  0  0  0  0  0  0  0  0  0  0
  -21.7083   -4.9720   22.6756 C   0  0  0  0  0  0  0  0  0  0  0  0
  -25.2935  -11.2405   21.3593 C   0  0  0  0  0  0  0  0  0  0  0  0
  -26.5788  -12.9146   21.9762 C   0  0  0  0  0  0  0  0  0  0  0  0
  -23.0089  -23.6750   23.7926 C   0  0  0  0  0  0  0  0  0  0  0  0
  -24.3311  -23.8893   23.6675 C   0  0  0  0  0  0  0  0  0  0  0  0
  -22.3827  -22.4165   24.2702 C   0  0  0  0  0  0  0  0  0  0  0  0
  -27.1079  -22.5405   18.7684 C   0  0  0  0  0  0  0  0  0  0  0  0
  -26.3000  -21.5023   18.9200 C   0  0  0  0  0  0  0  0  0  0  0  0
  -26.9901  -18.6622   19.1314 C   0  0  0  0  0  0  0  0  0  0  0  0
  -25.3505  -11.8279   23.8627 C   0  0  0  0  0  0  0  0  0  0  0  0
  -28.6340  -30.6591   20.5410 C   0  0  0  0  0  0  0  0  0  0  0  0
  -26.5849  -32.4541   22.3022 C   0  0  0  0  0  0  0  0  0  0  0  0
  -24.0487  -33.7175   24.2044 C   0  0  0  0  0  0  0  0  0  0  0  0
  -27.7782  -16.7576   18.1103 C   0  0  0  0  0  0  0  0  0  0  0  0
  -32.4445  -31.4853   17.2462 C   0  0  0  0  0  0  0  0  0  0  0  0
  -26.4375  -30.1810   19.3996 C   0  0  0  0  0  0  0  0  0  0  0  0
  -26.2178  -29.9582   22.3402 C   0  0  0  0  0  0  0  0  0  0  0  0
  -23.1363  -21.5745   25.2685 C   0  0  0  0  0  0  0  0  0  0  0  0
  -31.8104  -32.2600   18.3987 C   0  0  0  0  0  0  0  0  0  0  0  0
  -28.6825  -13.3389   17.4036 C   0  0  0  0  0  0  0  0  0  0  0  0
  -31.6749  -31.3695   19.6298 C   0  0  0  0  0  0  0  0  0  0  0  0
  -27.8866  -12.5478   18.4415 C   0  0  0  0  0  0  0  0  0  0  0  0
  -24.2358  -20.7490   24.6204 C   0  0  0  0  0  0  0  0  0  0  0  0
  -27.9135  -14.5666   16.9251 C   0  0  0  0  0  0  0  0  0  0  0  0
  -26.6779  -14.6835   19.0718 C   0  0  0  0  0  0  0  0  0  0  0  0
  -30.7612  -30.1712   19.3460 C   0  0  1  0  0  0  0  0  0  0  0  0
  -25.4529  -22.8772   23.8614 C   0  0  1  0  0  0  0  0  0  0  0  0
  -27.2134  -31.1031   20.3351 C   0  0  1  0  0  0  0  0  0  0  0  0
  -27.4359  -13.4541   19.6010 C   0  0  1  0  0  0  0  0  0  0  0  0
  -26.1786  -23.0173   25.2039 C   0  0  0  0  0  0  0  0  0  0  0  0
  -23.5335  -35.5610   25.8272 C   0  0  0  0  0  0  0  0  0  0  0  0
  -28.0966  -30.9514   24.4854 C   0  0  0  0  0  0  0  0  0  0  0  0
  -26.7956  -32.2514   26.1841 C   0  0  0  0  0  0  0  0  0  0  0  0
  -28.3068  -33.4410   24.5955 C   0  0  0  0  0  0  0  0  0  0  0  0
  -21.9656  -34.8512   22.4339 C   0  0  0  0  0  0  0  0  0  0  0  0
  -24.8009  -25.2511   23.2101 C   0  0  0  0  0  0  0  0  0  1  0  0
  -26.1375  -32.4607   23.7440 C   0  0  1  0  0  0  0  0  0  0  0  0
  -23.5206  -35.1313   24.3684 C   0  0  2  0  0  0  0  0  0  0  0  0
  -27.3207  -32.2605   24.7326 C   0  0  0  0  0  0  0  0  0  0  0  0
  -25.8482  -11.6726   20.2237 N   0  0  0  0  0  0  0  0  0  0  0  0
  -27.2962  -17.4100   19.2290 N   0  0  0  0  0  0  0  0  0  0  0  0
  -26.6243  -12.6911   20.6315 N   0  0  0  0  0  0  0  0  0  0  0  0
  -25.0054  -21.4921   23.6186 N   0  0  3  0  0  0  0  0  0  0  0  0
  -26.6020  -31.2070   21.6616 N   0  0  0  0  0  0  0  0  0  0  0  0
  -27.4732  -15.3852   18.0556 N   0  0  0  0  0  0  0  0  0  0  0  0
  -27.2985  -13.8999   22.5537 N   0  0  0  0  0  0  0  0  0  0  0  0
  -24.2426  -12.5389   24.3436 N   0  0  0  0  0  0  0  0  0  0  0  0
  -29.3722  -30.5765   19.3758 N   0  0  0  0  0  0  0  0  0  0  0  0
  -25.4014  -33.7054   23.9372 N   0  0  0  0  0  0  0  0  0  0  0  0
  -22.1215  -35.2234   23.8637 N   0  3  0  0  0  0  0  0  0  0  0  0
  -21.2535  -22.1147   23.8882 O   0  0  0  0  0  0  0  0  0  0  0  0
  -26.0006  -11.0985   24.6494 O   0  0  0  0  0  0  0  0  0  0  0  0
  -29.0315  -30.4114   21.6734 O   0  0  0  0  0  0  0  0  0  0  0  0
  -26.9006  -33.5172   21.7620 O   0  0  0  0  0  0  0  0  0  0  0  0
  -23.3336  -32.7232   24.3069 O   0  0  0  0  0  0  0  0  0  0  0  0
  -28.4210  -17.3114   17.2152 O   0  0  0  0  0  0  0  0  0  0  0  0
  -21.7258   -6.9356   21.2817 O   0  0  0  0  0  0  0  0  0  0  0  0
  -24.8844  -25.2835   21.7859 O   0  0  0  0  0  0  0  0  0  1  0  0
  -20.5369   -4.5108   26.0890 F   0  0  0  0  0  0  0  0  0  0  0  0
  -22.2690   -4.2561   21.6913 F   0  0  0  0  0  0  0  0  0  0  0  0
  1  2  1  0  0  0  0
  1  6  2  0  0  0  0
  2  7  2  0  0  0  0
  3 10  2  0  0  0  0
  3 18  1  0  0  0  0
  4 11  1  0  0  0  0
  4 18  2  0  0  0  0
  5  9  2  0  0  0  0
  5 19  1  0  0  0  0
  6 22  1  0  0  0  0
  7 24  1  0  0  0  0
  8 12  2  0  0  0  0
  8 23  1  0  0  0  0
  9 26  1  0  0  0  0
 10 27  1  0  0  0  0
 11 27  2  0  0  0  0
 12 28  1  0  0  0  0
 13 14  2  0  0  0  0
 13 29  1  0  0  0  0
 14 30  1  0  0  0  0
 15 20  1  0  0  0  0
 15 26  2  0  0  0  0
 16 25  1  0  0  0  0
 16 28  2  0  0  0  0
 17 30  2  0  0  0  0
 17 31  1  0  0  0  0
 18 32  1  0  0  0  0
 19 20  2  0  0  0  0
 19 39  1  0  0  0  0
 20 38  1  0  0  0  0
 21 32  1  0  0  0  0
 21 33  2  0  0  0  0
 21 40  1  0  0  0  0
 22 24  2  0  0  0  0
 22 45  1  0  0  0  0
 23 25  2  0  0  0  0
 23 46  1  0  0  0  0
 24 56  1  0  0  0  0
 25 47  1  0  0  0  0
 26 73  1  0  0  0  0
 27 87  1  0  0  0  0
 28 88  1  0  0  0  0
 29 31  2  0  0  0  0
 29 87  1  0  0  0  0
 30 89  1  0  0  0  0
 31 90  1  0  0  0  0
 32 70  2  0  0  0  0
 33 72  1  0  0  0  0
 33 76  1  0  0  0  0
 34 35  2  0  0  0  0
 34 36  1  0  0  0  0
 35 57  1  0  0  0  0
 35 66  1  0  0  0  0
 36 48  1  0  0  0  0
 36 81  2  0  0  0  0
 37 38  2  0  0  0  0
 39 71  2  0  0  0  0
 40 77  1  0  0  0  0
 40 82  2  0  0  0  0
 41 58  1  0  0  0  0
 41 78  1  0  0  0  0
 41 83  2  0  0  0  0
 42 67  1  0  0  0  0
 42 74  1  0  0  0  0
 42 84  2  0  0  0  0
 43 68  1  0  0  0  0
 43 79  1  0  0  0  0
 43 85  2  0  0  0  0
 44 71  1  0  0  0  0
 44 75  1  0  0  0  0
 44 86  2  0  0  0  0
 45 49  1  0  0  0  0
 46 58  1  0  0  0  0
 47 74  1  0  0  0  0
 48 53  1  0  0  0  0
 49 51  1  0  0  0  0
 50 52  1  0  0  0  0
 50 54  1  0  0  0  0
 51 56  1  0  0  0  0
 52 59  1  0  0  0  0
 53 73  1  0  0  0  0
 54 75  1  0  0  0  0
 55 59  1  0  0  0  0
 55 75  1  0  0  0  0
 56 78  1  0  0  0  0
 57 60  1  0  0  0  0
 57 73  1  0  0  0  0
 58 74  1  0  0  0  0
 59 72  1  0  0  0  0
 61 68  1  0  0  0  0
 62 69  1  0  0  0  0
 63 69  1  0  0  0  0
 64 69  1  0  0  0  0
 65 80  1  0  0  0  0
 66 88  1  0  0  0  0
 67 69  1  0  0  0  0
 67 79  1  0  0  0  0
 68 80  1  0  0  0  0
 70 72  1  0  0  0  0
M  CHG  1  80   1
M  ISO  4  44 100  66 101  71 100  88 101
M  END
> <Batch ID>
0116

> <Smiles>
C=Cc1cc(N2CCC(=O)CC([101CH2:1][101O:1]c3ccc4c(c3)CN(C(=O)C(NC(=O)C(C)NC)C(C)(C)C)C(C(=O)NC3CCCc5ccccc53)C4)=C2C)ccc1C=[100N:0][100C:0](=O)N1CCCC(n2nc(-c3ccc(Oc4ccc(F)cc4F)cc3)c(C(N)=O)c2N)C1

> <Shape>
0.221

> <Color>
0.110

> <Negative vol penalty>
0.000

$$$$

  -OEChem-04052301433D

 85 93  0     1  0  0  0  0  0999 V2000
  -15.9843  -18.0056   31.5325 C   0  0  0  0  0  0  0  0  0  0  0  0
  -16.6566  -18.7267   30.5509 C   0  0  0  0  0  0  0  0  0  0  0  0
  -23.0546   -9.8545   19.9486 C   0  0  0  0  0  0  0  0  0  0  0  0
  -23.8183   -9.8656   22.2407 C   0  0  0  0  0  0  0  0  0  0  0  0
  -16.7025  -17.2247   32.4371 C   0  0  0  0  0  0  0  0  0  0  0  0
  -18.0477  -18.6682   30.4741 C   0  0  0  0  0  0  0  0  0  0  0  0
  -21.4656  -18.8571   25.3960 C   0  0  0  0  0  0  0  0  0  0  0  0
  -29.0719  -18.0320   23.2174 C   0  0  0  0  0  0  0  0  0  0  0  0
  -28.1761  -19.0835   23.4105 C   0  0  0  0  0  0  0  0  0  0  0  0
  -22.3073   -8.7046   20.2031 C   0  0  0  0  0  0  0  0  0  0  0  0
  -23.0709   -8.7156   22.4952 C   0  0  0  0  0  0  0  0  0  0  0  0
  -22.1634  -19.8909   24.7729 C   0  0  0  0  0  0  0  0  0  0  0  0
  -19.3588   -7.9219   21.6615 C   0  0  0  0  0  0  0  0  0  0  0  0
  -18.0510   -7.8786   21.1785 C   0  0  0  0  0  0  0  0  0  0  0  0
  -24.1844  -19.1912   25.8887 C   0  0  0  0  0  0  0  0  0  0  0  0
  -28.8625  -20.0546   21.3074 C   0  0  0  0  0  0  0  0  0  0  0  0
  -18.6021   -5.9299   19.8609 C   0  0  0  0  0  0  0  0  0  0  0  0
  -23.8101  -10.4350   20.9674 C   0  0  0  0  0  0  0  0  0  0  0  0
  -24.1601  -12.9586   20.8396 C   0  0  0  0  0  0  0  0  0  0  0  0
  -18.1024  -17.1490   32.3653 C   0  0  0  0  0  0  0  0  0  0  0  0
  -22.1208  -17.9879   26.2801 C   0  0  0  0  0  0  0  0  0  0  0  0
  -18.7854  -17.8866   31.3795 C   0  0  0  0  0  0  0  0  0  0  0  0
  -23.4933  -18.1457   26.5198 C   0  0  0  0  0  0  0  0  0  0  0  0
  -29.8631  -17.9918   22.0693 C   0  0  0  0  0  0  0  0  0  0  0  0
  -28.0713  -20.0948   22.4556 C   0  0  0  0  0  0  0  0  0  0  0  0
  -22.3155   -8.1351   21.4764 C   0  0  0  0  0  0  0  0  0  0  0  0
  -23.5224  -20.0598   25.0214 C   0  0  0  0  0  0  0  0  0  0  0  0
  -20.2884   -6.9693   21.2441 C   0  0  0  0  0  0  0  0  0  0  0  0
  -29.7584  -19.0031   21.1143 C   0  0  0  0  0  0  0  0  0  0  0  0
  -17.6726   -6.8826   20.2782 C   0  0  0  0  0  0  0  0  0  0  0  0
  -19.9100   -5.9733   20.3439 C   0  0  0  0  0  0  0  0  0  0  0  0
  -24.5827  -11.6226   20.7050 C   0  0  0  0  0  0  0  0  0  0  0  0
  -25.2542  -13.7034   20.4723 C   0  0  0  0  0  0  0  0  0  0  0  0
  -25.9792  -20.9733   22.1796 C   0  0  0  0  0  0  0  0  0  0  0  0
  -22.8921  -13.4799   21.2591 C   0  0  0  0  0  0  0  0  0  0  0  0
  -21.8238  -17.2833   29.3654 C   0  0  0  0  0  0  0  0  0  0  0  0
  -24.0468  -15.0274   28.6642 C   0  0  0  0  0  0  0  0  0  0  0  0
  -26.5812  -13.9922   26.6266 C   0  0  0  0  0  0  0  0  0  0  0  0
  -30.7416  -14.7048   20.6488 C   0  0  0  0  0  0  0  0  0  0  0  0
  -18.8387  -16.3288   33.3947 C   0  0  0  0  0  0  0  0  0  0  0  0
  -21.3597  -16.8613   26.9235 C   0  0  0  0  0  0  0  0  0  0  0  0
  -24.2475  -17.2270   27.4448 C   0  0  0  0  0  0  0  0  0  0  0  0
  -20.2846  -16.0249   33.0108 C   0  0  0  0  0  0  0  0  0  0  0  0
  -29.5922  -12.3173   18.2708 C   0  0  0  0  0  0  0  0  0  0  0  0
  -20.9794  -17.2859   32.5069 C   0  0  0  0  0  0  0  0  0  0  0  0
  -28.1545  -12.0296   18.7069 C   0  0  0  0  0  0  0  0  0  0  0  0
  -30.5120  -12.5385   19.4696 C   0  0  0  0  0  0  0  0  0  0  0  0
  -28.6149  -13.2799   20.8571 C   0  0  0  0  0  0  0  0  0  0  0  0
  -20.2919  -17.8292   31.2485 C   0  0  1  0  0  0  0  0  0  0  0  0
  -22.0159  -16.3510   28.2028 C   0  0  1  0  0  0  0  0  0  0  0  0
  -27.6383  -13.1051   19.6816 C   0  0  2  0  0  0  0  0  0  0  0  0
  -24.4834  -22.4906   20.9436 C   0  0  0  0  0  0  0  0  0  0  0  0
  -28.3398  -12.4673   25.6888 C   0  0  0  0  0  0  0  0  0  0  0  0
  -25.7227  -16.1459   30.9556 C   0  0  0  0  0  0  0  0  0  0  0  0
  -27.6943  -14.9188   30.0201 C   0  0  0  0  0  0  0  0  0  0  0  0
  -25.6953  -13.6497   30.8049 C   0  0  0  0  0  0  0  0  0  0  0  0
  -24.6528  -12.7125   24.7819 C   0  0  0  0  0  0  0  0  0  0  0  0
  -29.9856  -18.3072   18.8516 C   0  0  0  0  0  0  0  0  0  0  0  0
  -30.8166  -16.8587   21.8794 C   0  0  0  0  0  0  0  0  0  0  0  0
  -23.7470  -21.4821   23.1286 C   0  0  0  0  0  0  0  0  0  1  0  0
  -24.9221  -22.0439   22.3327 C   0  0  1  0  0  0  0  0  0  0  0  0
  -25.5556  -14.9787   28.6587 C   0  0  1  0  0  0  0  0  0  0  0  0
  -26.8552  -12.6567   25.9588 C   0  0  2  0  0  0  0  0  0  0  0  0
  -26.1526  -14.9419   30.0938 C   0  0  0  0  0  0  0  0  0  0  0  0
  -25.8466  -11.5213   20.2849 N   0  0  0  0  0  0  0  0  0  0  0  0
  -27.1699  -21.1545   22.6510 N   0  0  0  0  0  0  0  0  0  0  0  0
  -26.2275  -12.8033   20.1523 N   0  0  0  0  0  0  0  0  0  0  0  0
  -23.4580  -16.1444   28.0548 N   0  0  0  0  0  0  0  0  0  0  0  0
  -29.9663  -13.5714   20.3535 N   0  0  0  0  0  0  0  0  0  0  0  0
  -25.4689  -15.0340   20.3952 N   0  0  0  0  0  0  0  0  0  0  0  0
  -21.8777  -12.5750   21.6006 N   0  0  0  0  0  0  0  0  0  0  0  0
  -20.6702  -17.0497   30.0893 N   0  0  0  0  0  0  0  0  0  0  0  0
  -25.9241  -13.8368   27.8288 N   0  0  0  0  0  0  0  0  0  0  0  0
  -30.1469  -15.6380   21.4892 N   0  0  0  0  0  0  0  0  0  0  0  0
  -26.1264  -12.5668   24.6620 N   0  3  0  0  0  0  0  0  0  0  0  0
  -22.6600  -14.7114   21.3132 O   0  0  0  0  0  0  0  0  0  0  0  0
  -22.6611  -18.1495   29.5899 O   0  0  0  0  0  0  0  0  0  0  0  0
  -23.4138  -14.1048   29.1836 O   0  0  0  0  0  0  0  0  0  0  0  0
  -26.9197  -15.0656   26.1330 O   0  0  0  0  0  0  0  0  0  0  0  0
  -31.8773  -14.8752   20.1929 O   0  0  0  0  0  0  0  0  0  0  0  0
  -21.5862   -7.0131   21.7252 O   0  0  0  0  0  0  0  0  0  0  0  0
  -30.5246  -18.9794   19.9880 O   0  0  0  0  0  0  0  0  0  0  0  0
  -24.2056  -21.0684   24.4150 O   0  0  0  0  0  0  0  0  0  1  0  0
  -16.4163   -6.8402   19.8157 F   0  0  0  0  0  0  0  0  0  0  0  0
  -20.7982   -5.0546   19.9403 F   0  0  0  0  0  0  0  0  0  0  0  0
  1  2  1  0  0  0  0
  1  5  2  0  0  0  0
  2  6  2  0  0  0  0
  3 10  2  0  0  0  0
  3 18  1  0  0  0  0
  4 11  1  0  0  0  0
  4 18  2  0  0  0  0
  5 20  1  0  0  0  0
  6 22  1  0  0  0  0
  7 12  2  0  0  0  0
  7 21  1  0  0  0  0
  8  9  2  0  0  0  0
  8 24  1  0  0  0  0
  9 25  1  0  0  0  0
 10 26  1  0  0  0  0
 11 26  2  0  0  0  0
 12 27  1  0  0  0  0
 13 14  2  0  0  0  0
 13 28  1  0  0  0  0
 14 30  1  0  0  0  0
 15 23  1  0  0  0  0
 15 27  2  0  0  0  0
 16 25  2  0  0  0  0
 16 29  1  0  0  0  0
 17 30  2  0  0  0  0
 17 31  1  0  0  0  0
 18 32  1  0  0  0  0
 19 32  1  0  0  0  0
 19 33  2  0  0  0  0
 19 35  1  0  0  0  0
 20 22  2  0  0  0  0
 20 40  1  0  0  0  0
 21 23  2  0  0  0  0
 21 41  1  0  0  0  0
 22 49  1  0  0  0  0
 23 42  1  0  0  0  0
 24 29  2  0  0  0  0
 24 59  1  0  0  0  0
 25 66  1  0  0  0  0
 26 81  1  0  0  0  0
 27 83  1  0  0  0  0
 28 31  2  0  0  0  0
 28 81  1  0  0  0  0
 29 82  1  0  0  0  0
 30 84  1  0  0  0  0
 31 85  1  0  0  0  0
 32 65  2  0  0  0  0
 33 67  1  0  0  0  0
 33 70  1  0  0  0  0
 34 61  1  0  0  0  0
 34 66  2  0  0  0  0
 35 71  1  0  0  0  0
 35 76  2  0  0  0  0
 36 50  1  0  0  0  0
 36 72  1  0  0  0  0
 36 77  2  0  0  0  0
 37 62  1  0  0  0  0
 37 68  1  0  0  0  0
 37 78  2  0  0  0  0
 38 63  1  0  0  0  0
 38 73  1  0  0  0  0
 38 79  2  0  0  0  0
 39 69  1  0  0  0  0
 39 74  1  0  0  0  0
 39 80  2  0  0  0  0
 40 43  1  0  0  0  0
 41 50  1  0  0  0  0
 42 68  1  0  0  0  0
 43 45  1  0  0  0  0
 44 46  1  0  0  0  0
 44 47  1  0  0  0  0
 45 49  1  0  0  0  0
 46 51  1  0  0  0  0
 47 69  1  0  0  0  0
 48 51  1  0  0  0  0
 48 69  1  0  0  0  0
 49 72  1  0  0  0  0
 50 68  1  0  0  0  0
 51 67  1  0  0  0  0
 52 61  1  0  0  0  0
 53 63  1  0  0  0  0
 54 64  1  0  0  0  0
 55 64  1  0  0  0  0
 56 64  1  0  0  0  0
 57 75  1  0  0  0  0
 58 82  1  0  0  0  0
 59 74  1  0  0  0  0
 60 61  1  0  0  0  0
 60 83  1  0  0  0  0
 62 64  1  0  0  0  0
 62 73  1  0  0  0  0
 63 75  1  0  0  0  0
 65 67  1  0  0  0  0
M  CHG  1  75   1
M  ISO  4  39 100  60 101  74 100  83 101
M  END
> <Batch ID>
0116

> <Smiles>
CNC(C)C(=O)NC(C(=O)N1Cc2cc([101O:1][101CH2:1]C(C)=CNc3ccc(C[100NH:0][100C:0](=O)N4CCCC(n5nc(-c6ccc(Oc7ccc(F)cc7F)cc6)c(C(N)=O)c5N)C4)c(OC)c3)ccc2CC1C(=O)NC1CCCc2ccccc21)C(C)(C)C

> <Shape>
0.168

> <Color>
0.192

> <Negative vol penalty>
0.000

$$$$

  -OEChem-04052301433D

 83 91  0     1  0  0  0  0  0999 V2000
  -32.5872  -35.2024   18.0926 C   0  0  0  0  0  0  0  0  0  0  0  0
  -32.3272  -33.8871   18.4642 C   0  0  0  0  0  0  0  0  0  0  0  0
  -24.3248   -8.9496   21.4166 C   0  0  0  0  0  0  0  0  0  0  0  0
  -23.4623   -8.4977   19.2055 C   0  0  0  0  0  0  0  0  0  0  0  0
  -28.1318  -20.1538   18.3555 C   0  0  0  0  0  0  0  0  0  0  0  0
  -32.0810  -36.2540   18.8553 C   0  0  0  0  0  0  0  0  0  0  0  0
  -31.5617  -33.6229   19.5993 C   0  0  0  0  0  0  0  0  0  0  0  0
  -28.0996  -30.0123   18.8103 C   0  0  0  0  0  0  0  0  0  0  0  0
  -28.4542  -21.4766   18.0526 C   0  0  0  0  0  0  0  0  0  0  0  0
  -23.2448   -8.2678   21.9773 C   0  0  0  0  0  0  0  0  0  0  0  0
  -22.3823   -7.8158   19.7662 C   0  0  0  0  0  0  0  0  0  0  0  0
  -28.5454  -28.6913   18.8122 C   0  0  0  0  0  0  0  0  0  0  0  0
  -22.3279   -5.0558   22.5019 C   0  0  0  0  0  0  0  0  0  0  0  0
  -22.5944   -4.1566   23.5344 C   0  0  0  0  0  0  0  0  0  0  0  0
  -29.1958  -20.3882   20.5119 C   0  0  0  0  0  0  0  0  0  0  0  0
  -27.7574  -28.4351   21.0777 C   0  0  0  0  0  0  0  0  0  0  0  0
  -21.1729   -5.4332   25.0132 C   0  0  0  0  0  0  0  0  0  0  0  0
  -24.4335   -9.0646   20.0307 C   0  0  0  0  0  0  0  0  0  0  0  0
  -28.5025  -19.6096   19.5852 C   0  0  0  0  0  0  0  0  0  0  0  0
  -26.7932   -9.2292   19.0756 C   0  0  0  0  0  0  0  0  0  0  0  0
  -31.3008  -36.0026   19.9949 C   0  0  0  0  0  0  0  0  0  0  0  0
  -27.4881  -30.5588   19.9477 C   0  0  0  0  0  0  0  0  0  0  0  0
  -31.0457  -34.6722   20.3787 C   0  0  0  0  0  0  0  0  0  0  0  0
  -27.3024  -29.7625   21.0868 C   0  0  0  0  0  0  0  0  0  0  0  0
  -29.5183  -21.7111   20.2089 C   0  0  0  0  0  0  0  0  0  0  0  0
  -29.1475  -22.2552   18.9792 C   0  0  0  0  0  0  0  0  0  0  0  0
  -22.2736   -7.7008   21.1521 C   0  0  0  0  0  0  0  0  0  0  0  0
  -28.3770  -27.9034   19.9470 C   0  0  0  0  0  0  0  0  0  0  0  0
  -21.4840   -6.1438   22.7251 C   0  0  0  0  0  0  0  0  0  0  0  0
  -22.0169   -4.3452   24.7900 C   0  0  0  0  0  0  0  0  0  0  0  0
  -20.9065   -6.3324   23.9807 C   0  0  0  0  0  0  0  0  0  0  0  0
  -25.5486   -9.7693   19.4510 C   0  0  0  0  0  0  0  0  0  0  0  0
  -27.4971  -10.3000   18.5813 C   0  0  0  0  0  0  0  0  0  0  0  0
  -28.1659  -18.2302   19.9006 C   0  0  0  0  0  0  0  0  0  0  0  0
  -27.2034  -17.5011   19.2966 C   0  0  0  0  0  0  0  0  0  0  0  0
  -28.5802  -24.4697   18.9881 C   0  0  0  0  0  0  0  0  0  0  0  0
  -27.2704   -7.8802   19.1657 C   0  0  0  0  0  0  0  0  0  0  0  0
  -26.9879  -16.1041   19.7240 C   0  0  0  0  0  0  0  0  0  0  0  0
  -28.1638  -32.9534   21.9259 C   0  0  0  0  0  0  0  0  0  0  0  0
  -25.2545  -32.2338   23.1670 C   0  0  0  0  0  0  0  0  0  0  0  0
  -22.7936  -29.9142   23.6256 C   0  0  0  0  0  0  0  0  0  0  0  0
  -30.8149  -37.1717   20.8144 C   0  0  0  0  0  0  0  0  0  0  0  0
  -26.9886  -31.9773   19.9204 C   0  0  0  0  0  0  0  0  0  0  0  0
  -26.6337  -30.2955   22.3266 C   0  0  0  0  0  0  0  0  0  0  0  0
  -29.6990  -36.8092   21.7910 C   0  0  0  0  0  0  0  0  0  0  0  0
  -26.9000  -14.5124   16.4239 C   0  0  0  0  0  0  0  0  0  0  0  0
  -30.0469  -35.5318   22.5487 C   0  0  0  0  0  0  0  0  0  0  0  0
  -26.6076  -13.0635   16.8044 C   0  0  0  0  0  0  0  0  0  0  0  0
  -26.2155  -15.5006   17.3670 C   0  0  0  0  0  0  0  0  0  0  0  0
  -26.2394  -13.8186   19.1866 C   0  0  0  0  0  0  0  0  0  0  0  0
  -30.1987  -34.3452   21.5894 C   0  0  1  0  0  0  0  0  0  0  0  0
  -26.8427  -32.5864   21.3115 C   0  0  1  0  0  0  0  0  0  0  0  0
  -26.9566  -12.8069   18.2791 C   0  0  1  0  0  0  0  0  0  0  0  0
  -29.3592  -23.0076   22.3491 C   0  0  0  0  0  0  0  0  0  0  0  0
  -20.5529  -29.6082   24.7134 C   0  0  0  0  0  0  0  0  0  0  0  0
  -26.6099  -32.0156   25.8919 C   0  0  0  0  0  0  0  0  0  0  0  0
  -24.5809  -30.8096   26.7268 C   0  0  0  0  0  0  0  0  0  0  0  0
  -24.3877  -33.1625   25.9209 C   0  0  0  0  0  0  0  0  0  0  0  0
  -21.4827  -29.3491   21.0331 C   0  0  0  0  0  0  0  0  0  0  0  0
  -30.2611  -22.5255   21.2171 C   0  0  0  0  0  0  0  0  0  0  0  0
  -28.8110  -25.9235   18.7029 C   0  0  0  0  0  0  0  0  0  1  0  0
  -24.7525  -31.3045   24.2456 C   0  0  1  0  0  0  0  0  0  0  0  0
  -21.2891  -29.9915   23.4390 C   0  0  2  0  0  0  0  0  0  0  0  0
  -25.0971  -31.8133   25.6738 C   0  0  0  0  0  0  0  0  0  0  0  0
  -25.4636  -11.0813   19.2154 N   0  0  0  0  0  0  0  0  0  0  0  0
  -29.4637  -23.5858   18.6568 N   0  0  0  0  0  0  0  0  0  0  0  0
  -26.6639  -11.3746   18.6868 N   0  0  0  0  0  0  0  0  0  0  0  0
  -26.5175  -15.1989   18.7743 N   0  0  0  0  0  0  0  0  0  0  0  0
  -26.1682  -31.6903   22.2529 N   0  0  0  0  0  0  0  0  0  0  0  0
  -28.7414  -10.4178   18.0710 N   0  0  0  0  0  0  0  0  0  0  0  0
  -26.4176   -6.9040   19.6987 N   0  0  0  0  0  0  0  0  0  0  0  0
  -28.8993  -33.8558   21.1813 N   0  0  0  0  0  0  0  0  0  0  0  0
  -23.3247  -31.1298   24.0018 N   0  0  0  0  0  0  0  0  0  0  0  0
  -20.8542  -29.0716   22.3502 N   0  3  0  0  0  0  0  0  0  0  0  0
  -28.4249   -7.5533   18.8000 O   0  0  0  0  0  0  0  0  0  0  0  0
  -27.2334  -15.8246   20.8989 O   0  0  0  0  0  0  0  0  0  0  0  0
  -28.4911  -32.4559   22.9969 O   0  0  0  0  0  0  0  0  0  0  0  0
  -24.8454  -33.3970   23.1323 O   0  0  0  0  0  0  0  0  0  0  0  0
  -23.4332  -28.8782   23.4583 O   0  0  0  0  0  0  0  0  0  0  0  0
  -21.2198   -7.0352   21.6988 O   0  0  0  0  0  0  0  0  0  0  0  0
  -28.8118  -26.6139   19.9518 O   0  0  0  0  0  0  0  0  0  1  0  0
  -22.2716   -3.4807   25.7809 F   0  0  0  0  0  0  0  0  0  0  0  0
  -20.0939   -7.3751   24.2008 F   0  0  0  0  0  0  0  0  0  0  0  0
  1  2  1  0  0  0  0
  1  6  2  0  0  0  0
  2  7  2  0  0  0  0
  3 10  2  0  0  0  0
  3 18  1  0  0  0  0
  4 11  1  0  0  0  0
  4 18  2  0  0  0  0
  5  9  2  0  0  0  0
  5 19  1  0  0  0  0
  6 21  1  0  0  0  0
  7 23  1  0  0  0  0
  8 12  2  0  0  0  0
  8 22  1  0  0  0  0
  9 26  1  0  0  0  0
 10 27  1  0  0  0  0
 11 27  2  0  0  0  0
 12 28  1  0  0  0  0
 13 14  2  0  0  0  0
 13 29  1  0  0  0  0
 14 30  1  0  0  0  0
 15 19  2  0  0  0  0
 15 25  1  0  0  0  0
 16 24  1  0  0  0  0
 16 28  2  0  0  0  0
 17 30  2  0  0  0  0
 17 31  1  0  0  0  0
 18 32  1  0  0  0  0
 19 34  1  0  0  0  0
 20 32  1  0  0  0  0
 20 33  2  0  0  0  0
 20 37  1  0  0  0  0
 21 23  2  0  0  0  0
 21 42  1  0  0  0  0
 22 24  2  0  0  0  0
 22 43  1  0  0  0  0
 23 51  1  0  0  0  0
 24 44  1  0  0  0  0
 25 26  2  0  0  0  0
 25 60  1  0  0  0  0
 26 66  1  0  0  0  0
 27 80  1  0  0  0  0
 28 81  1  0  0  0  0
 29 31  2  0  0  0  0
 29 80  1  0  0  0  0
 30 82  1  0  0  0  0
 31 83  1  0  0  0  0
 32 65  2  0  0  0  0
 33 67  1  0  0  0  0
 33 70  1  0  0  0  0
 34 35  2  0  0  0  0
 35 38  1  0  0  0  0
 36 61  1  0  0  0  0
 36 66  2  0  0  0  0
 37 71  1  0  0  0  0
 37 75  2  0  0  0  0
 38 68  1  0  0  0  0
 38 76  2  0  0  0  0
 39 52  1  0  0  0  0
 39 72  1  0  0  0  0
 39 77  2  0  0  0  0
 40 62  1  0  0  0  0
 40 69  1  0  0  0  0
 40 78  2  0  0  0  0
 41 63  1  0  0  0  0
 41 73  1  0  0  0  0
 41 79  2  0  0  0  0
 42 45  1  0  0  0  0
 43 52  1  0  0  0  0
 44 69  1  0  0  0  0
 45 47  1  0  0  0  0
 46 48  1  0  0  0  0
 46 49  1  0  0  0  0
 47 51  1  0  0  0  0
 48 53  1  0  0  0  0
 49 68  1  0  0  0  0
 50 53  1  0  0  0  0
 50 68  1  0  0  0  0
 51 72  1  0  0  0  0
 52 69  1  0  0  0  0
 53 67  1  0  0  0  0
 54 60  1  0  0  0  0
 55 63  1  0  0  0  0
 56 64  1  0  0  0  0
 57 64  1  0  0  0  0
 58 64  1  0  0  0  0
 59 74  1  0  0  0  0
 61 81  1  0  0  0  0
 62 64  1  0  0  0  0
 62 73  1  0  0  0  0
 63 74  1  0  0  0  0
 65 67  1  0  0  0  0
M  CHG  1  74   1
M  ISO  4  35 100  38 100  61 101  81 101
M  END
> <Batch ID>
0116

> <Smiles>
CCc1cc(C=[100CH:0][100C:0](=O)N2CCCC(n3nc(-c4ccc(Oc5ccc(F)cc5F)cc4)c(C(N)=O)c3N)C2)ccc1NC=[101CH:1][101O:1]c1ccc2c(c1)CN(C(=O)C(NC(=O)C(C)NC)C(C)(C)C)C(C(=O)NC1CCCc3ccccc31)C2

> <Shape>
0.261

> <Color>
0.106

> <Negative vol penalty>
0.000

$$$$

  -OEChem-04052301433D

 83 91  0     1  0  0  0  0  0999 V2000
  -26.8490  -23.5806   18.0723 C   0  0  0  0  0  0  0  0  0  0  0  0
  -25.7147  -24.0828   18.7018 C   0  0  0  0  0  0  0  0  0  0  0  0
  -26.4148  -13.0665   19.8997 C   0  0  0  0  0  0  0  0  0  0  0  0
  -24.4185  -13.3610   21.2284 C   0  0  0  0  0  0  0  0  0  0  0  0
  -21.7735  -23.9223   21.8694 C   0  0  0  0  0  0  0  0  0  0  0  0
  -28.1158  -23.9573   18.5164 C   0  0  0  0  0  0  0  0  0  0  0  0
  -25.8465  -24.9613   19.7767 C   0  0  0  0  0  0  0  0  0  0  0  0
  -22.6957  -28.9127   19.4540 C   0  0  0  0  0  0  0  0  0  0  0  0
  -22.7424  -22.9449   21.6427 C   0  0  0  0  0  0  0  0  0  0  0  0
  -26.3425  -11.6875   20.0966 C   0  0  0  0  0  0  0  0  0  0  0  0
  -24.3462  -11.9819   21.4253 C   0  0  0  0  0  0  0  0  0  0  0  0
  -21.3639  -28.6953   19.8043 C   0  0  0  0  0  0  0  0  0  0  0  0
  -23.3279   -9.2693   19.6860 C   0  0  0  0  0  0  0  0  0  0  0  0
  -22.0823   -8.6594   19.5376 C   0  0  0  0  0  0  0  0  0  0  0  0
  -21.7795  -29.6757   21.9688 C   0  0  0  0  0  0  0  0  0  0  0  0
  -23.9845  -23.7315   23.5599 C   0  0  0  0  0  0  0  0  0  0  0  0
  -22.1825   -7.8972   21.8280 C   0  0  0  0  0  0  0  0  0  0  0  0
  -25.4528  -13.9032   20.4657 C   0  0  0  0  0  0  0  0  0  0  0  0
  -21.9101  -24.8045   22.9413 C   0  0  0  0  0  0  0  0  0  0  0  0
  -24.9421  -16.0699   19.2197 C   0  0  0  0  0  0  0  0  0  0  0  0
  -28.2631  -24.8484   19.5911 C   0  0  0  0  0  0  0  0  0  0  0  0
  -23.5836  -29.5043   20.3640 C   0  0  0  0  0  0  0  0  0  0  0  0
  -27.1164  -25.3492   20.2365 C   0  0  0  0  0  0  0  0  0  0  0  0
  -23.1215  -29.9018   21.6267 C   0  0  0  0  0  0  0  0  0  0  0  0
  -23.0155  -24.7090   23.7865 C   0  0  0  0  0  0  0  0  0  0  0  0
  -23.8479  -22.8494   22.4880 C   0  0  0  0  0  0  0  0  0  0  0  0
  -25.3082  -11.1452   20.8594 C   0  0  0  0  0  0  0  0  0  0  0  0
  -20.9062  -29.0742   21.0629 C   0  0  0  0  0  0  0  0  0  0  0  0
  -24.0009   -9.1930   20.9055 C   0  0  0  0  0  0  0  0  0  0  0  0
  -21.5095   -7.9734   20.6086 C   0  0  0  0  0  0  0  0  0  0  0  0
  -23.4282   -8.5070   21.9765 C   0  0  0  0  0  0  0  0  0  0  0  0
  -25.5273  -15.3279   20.2631 C   0  0  0  0  0  0  0  0  0  0  0  0
  -25.3043  -17.3694   19.4775 C   0  0  0  0  0  0  0  0  0  0  0  0
  -20.8701  -25.8249   23.1543 C   0  0  0  0  0  0  0  0  0  0  0  0
  -19.5698  -25.6799   22.8542 C   0  0  0  0  0  0  0  0  0  0  0  0
  -24.1424  -15.6243   18.1162 C   0  0  0  0  0  0  0  0  0  0  0  0
  -26.2602  -28.5814   21.8089 C   0  0  0  0  0  0  0  0  0  0  0  0
  -26.2927  -31.6517   22.8554 C   0  0  0  0  0  0  0  0  0  0  0  0
  -24.5360  -34.4923   23.5567 C   0  0  0  0  0  0  0  0  0  0  0  0
  -25.9909  -21.6276   22.9988 C   0  0  0  0  0  0  0  0  0  0  0  0
  -29.6534  -25.1895   20.0659 C   0  0  0  0  0  0  0  0  0  0  0  0
  -25.0107  -29.7562   19.9611 C   0  0  0  0  0  0  0  0  0  0  0  0
  -24.0294  -30.5592   22.6326 C   0  0  0  0  0  0  0  0  0  0  0  0
  -29.7036  -26.4175   20.9713 C   0  0  0  0  0  0  0  0  0  0  0  0
  -28.6457  -19.2658   22.7730 C   0  0  0  0  0  0  0  0  0  0  0  0
  -28.6104  -26.3434   22.0325 C   0  0  0  0  0  0  0  0  0  0  0  0
  -28.0229  -18.0918   22.0141 C   0  0  0  0  0  0  0  0  0  0  0  0
  -27.6454  -19.9211   23.7237 C   0  0  0  0  0  0  0  0  0  0  0  0
  -25.7526  -19.1507   22.3479 C   0  0  0  0  0  0  0  0  0  0  0  0
  -27.2182  -26.3237   21.3898 C   0  0  1  0  0  0  0  0  0  0  0  0
  -25.9520  -29.8978   21.1532 C   0  0  1  0  0  0  0  0  0  0  0  0
  -26.7032  -18.4994   21.3301 C   0  0  2  0  0  0  0  0  0  0  0  0
  -23.1944  -25.6367   24.9450 C   0  0  0  0  0  0  0  0  0  0  0  0
  -24.8310  -36.8248   24.4340 C   0  0  0  0  0  0  0  0  0  0  0  0
  -26.5438  -30.5511   25.6901 C   0  0  0  0  0  0  0  0  0  0  0  0
  -25.8835  -32.8078   26.5501 C   0  0  0  0  0  0  0  0  0  0  0  0
  -27.9746  -32.5465   25.2152 C   0  0  0  0  0  0  0  0  0  0  0  0
  -23.5589  -35.6896   21.0327 C   0  0  0  0  0  0  0  0  0  0  0  0
  -18.5421  -26.7494   23.0941 C   0  0  0  0  0  0  0  0  0  0  0  0
  -17.9070  -27.2110   21.7837 C   0  0  0  0  0  0  0  0  0  0  0  0
  -18.9508  -27.7440   20.8121 C   0  0  0  0  0  0  0  0  0  1  0  0
  -25.7345  -32.3782   24.0552 C   0  0  1  0  0  0  0  0  0  0  0  0
  -24.7841  -35.9454   23.1941 C   0  0  2  0  0  0  0  0  0  0  0  0
  -26.5172  -32.0568   25.3596 C   0  0  0  0  0  0  0  0  0  0  0  0
  -26.2097  -16.0924   21.1198 N   0  0  0  0  0  0  0  0  0  0  0  0
  -26.0555  -17.3284   20.6151 N   0  0  0  0  0  0  0  0  0  0  0  0
  -25.4176  -30.7785   22.1939 N   0  0  0  0  0  0  0  0  0  0  0  0
  -26.4220  -20.2841   23.0052 N   0  0  0  0  0  0  0  0  0  0  0  0
  -25.0504  -18.5318   18.8397 N   0  0  0  0  0  0  0  0  0  0  0  0
  -23.8653  -14.2552   18.0018 N   0  0  0  0  0  0  0  0  0  0  0  0
  -24.8335  -21.8582   22.2560 N   0  0  0  0  0  0  0  0  0  0  0  0
  -26.8392  -27.6539   20.9640 N   0  0  0  0  0  0  0  0  0  0  0  0
  -25.7158  -33.7938   23.7030 N   0  0  0  0  0  0  0  0  0  0  0  0
  -23.7019  -36.4486   22.3017 N   0  3  0  0  0  0  0  0  0  0  0  0
  -23.7009  -16.4147   17.2480 O   0  0  0  0  0  0  0  0  0  0  0  0
  -25.9938  -28.4198   22.9941 O   0  0  0  0  0  0  0  0  0  0  0  0
  -27.4599  -31.8569   22.5133 O   0  0  0  0  0  0  0  0  0  0  0  0
  -23.4085  -34.0246   23.6996 O   0  0  0  0  0  0  0  0  0  0  0  0
  -26.6185  -22.5133   23.5850 O   0  0  0  0  0  0  0  0  0  0  0  0
  -25.2372   -9.7997   21.0515 O   0  0  0  0  0  0  0  0  0  0  0  0
  -19.6069  -28.8626   21.4076 O   0  0  0  0  0  0  0  0  0  1  0  0
  -20.3126   -7.3892   20.4663 F   0  0  0  0  0  0  0  0  0  0  0  0
  -24.0694   -8.4314   23.1507 F   0  0  0  0  0  0  0  0  0  0  0  0
  1  2  1  0  0  0  0
  1  6  2  0  0  0  0
  2  7  2  0  0  0  0
  3 10  2  0  0  0  0
  3 18  1  0  0  0  0
  4 11  1  0  0  0  0
  4 18  2  0  0  0  0
  5  9  2  0  0  0  0
  5 19  1  0  0  0  0
  6 21  1  0  0  0  0
  7 23  1  0  0  0  0
  8 12  2  0  0  0  0
  8 22  1  0  0  0  0
  9 26  1  0  0  0  0
 10 27  1  0  0  0  0
 11 27  2  0  0  0  0
 12 28  1  0  0  0  0
 13 14  2  0  0  0  0
 13 29  1  0  0  0  0
 14 30  1  0  0  0  0
 15 24  1  0  0  0  0
 15 28  2  0  0  0  0
 16 25  1  0  0  0  0
 16 26  2  0  0  0  0
 17 30  2  0  0  0  0
 17 31  1  0  0  0  0
 18 32  1  0  0  0  0
 19 25  2  0  0  0  0
 19 34  1  0  0  0  0
 20 32  1  0  0  0  0
 20 33  2  0  0  0  0
 20 36  1  0  0  0  0
 21 23  2  0  0  0  0
 21 41  1  0  0  0  0
 22 24  2  0  0  0  0
 22 42  1  0  0  0  0
 23 50  1  0  0  0  0
 24 43  1  0  0  0  0
 25 53  1  0  0  0  0
 26 71  1  0  0  0  0
 27 80  1  0  0  0  0
 28 81  1  0  0  0  0
 29 31  2  0  0  0  0
 29 80  1  0  0  0  0
 30 82  1  0  0  0  0
 31 83  1  0  0  0  0
 32 65  2  0  0  0  0
 33 66  1  0  0  0  0
 33 69  1  0  0  0  0
 34 35  2  0  0  0  0
 35 59  1  0  0  0  0
 36 70  1  0  0  0  0
 36 75  2  0  0  0  0
 37 51  1  0  0  0  0
 37 72  1  0  0  0  0
 37 76  2  0  0  0  0
 38 62  1  0  0  0  0
 38 67  1  0  0  0  0
 38 77  2  0  0  0  0
 39 63  1  0  0  0  0
 39 73  1  0  0  0  0
 39 78  2  0  0  0  0
 40 68  1  0  0  0  0
 40 71  1  0  0  0  0
 40 79  2  0  0  0  0
 41 44  1  0  0  0  0
 42 51  1  0  0  0  0
 43 67  1  0  0  0  0
 44 46  1  0  0  0  0
 45 47  1  0  0  0  0
 45 48  1  0  0  0  0
 46 50  1  0  0  0  0
 47 52  1  0  0  0  0
 48 68  1  0  0  0  0
 49 52  1  0  0  0  0
 49 68  1  0  0  0  0
 50 72  1  0  0  0  0
 51 67  1  0  0  0  0
 52 66  1  0  0  0  0
 54 63  1  0  0  0  0
 55 64  1  0  0  0  0
 56 64  1  0  0  0  0
 57 64  1  0  0  0  0
 58 74  1  0  0  0  0
 59 60  1  0  0  0  0
 60 61  1  0  0  0  0
 61 81  1  0  0  0  0
 62 64  1  0  0  0  0
 62 73  1  0  0  0  0
 63 74  1  0  0  0  0
 65 66  1  0  0  0  0
M  CHG  1  74   1
M  ISO  4  40 100  61 101  71 100  81 101
M  END
> <Batch ID>
0116

> <Smiles>
CNC(C)C(=O)NC(C(=O)N1Cc2cc([101O:1][101CH2:1]CCC=Cc3ccc([100NH:0][100C:0](=O)N4CCCC(n5nc(-c6ccc(Oc7ccc(F)cc7F)cc6)c(C(N)=O)c5N)C4)cc3C)ccc2CC1C(=O)NC1CCCc2ccccc21)C(C)(C)C

> <Shape>
0.285

> <Color>
0.077

> <Negative vol penalty>
0.000

$$$$

  -OEChem-04052301433D

 83 91  0     1  0  0  0  0  0999 V2000
  -28.3463  -37.8234   21.6866 C   0  0  0  0  0  0  0  0  0  0  0  0
  -28.7760  -36.5547   21.3109 C   0  0  0  0  0  0  0  0  0  0  0  0
  -26.4485   -8.5333   22.0274 C   0  0  0  0  0  0  0  0  0  0  0  0
  -24.2134   -8.6826   21.1222 C   0  0  0  0  0  0  0  0  0  0  0  0
  -30.3603  -20.5591   19.8294 C   0  0  0  0  0  0  0  0  0  0  0  0
  -27.3512  -37.9633   22.6531 C   0  0  0  0  0  0  0  0  0  0  0  0
  -28.2116  -35.4251   21.9024 C   0  0  0  0  0  0  0  0  0  0  0  0
  -27.1624  -30.0107   19.2399 C   0  0  0  0  0  0  0  0  0  0  0  0
  -26.0373   -7.5028   22.8728 C   0  0  0  0  0  0  0  0  0  0  0  0
  -23.8022   -7.6521   21.9676 C   0  0  0  0  0  0  0  0  0  0  0  0
  -27.8716  -28.8103   19.2439 C   0  0  0  0  0  0  0  0  0  0  0  0
  -24.0172   -4.2811   22.0702 C   0  0  0  0  0  0  0  0  0  0  0  0
  -23.2281   -3.2704   21.5212 C   0  0  0  0  0  0  0  0  0  0  0  0
  -30.4825  -21.9441   19.8424 C   0  0  0  0  0  0  0  0  0  0  0  0
  -26.4729  -27.9967   21.0330 C   0  0  0  0  0  0  0  0  0  0  0  0
  -21.4608   -3.8038   23.0798 C   0  0  0  0  0  0  0  0  0  0  0  0
  -25.5365   -9.1232   21.1521 C   0  0  0  0  0  0  0  0  0  0  0  0
  -29.6040  -19.9427   18.8387 C   0  0  0  0  0  0  0  0  0  0  0  0
  -26.4796  -10.0635   18.9764 C   0  0  0  0  0  0  0  0  0  0  0  0
  -26.7675  -36.8346   23.2497 C   0  0  0  0  0  0  0  0  0  0  0  0
  -26.1083  -30.2176   20.1414 C   0  0  0  0  0  0  0  0  0  0  0  0
  -27.2087  -35.5500   22.8788 C   0  0  0  0  0  0  0  0  0  0  0  0
  -25.7502  -29.1996   21.0367 C   0  0  0  0  0  0  0  0  0  0  0  0
  -24.7141   -7.0622   22.8429 C   0  0  0  0  0  0  0  0  0  0  0  0
  -27.5288  -27.8043   20.1424 C   0  0  0  0  0  0  0  0  0  0  0  0
  -23.5282   -5.0531   23.1241 C   0  0  0  0  0  0  0  0  0  0  0  0
  -21.9498   -3.0318   22.0260 C   0  0  0  0  0  0  0  0  0  0  0  0
  -22.2500   -4.8144   23.6288 C   0  0  0  0  0  0  0  0  0  0  0  0
  -25.9606  -10.1880   20.2790 C   0  0  0  0  0  0  0  0  0  0  0  0
  -28.9947  -20.7498   17.8915 C   0  0  0  0  0  0  0  0  0  0  0  0
  -29.8340  -22.6615   18.8501 C   0  0  0  0  0  0  0  0  0  0  0  0
  -26.7256  -11.3553   18.5798 C   0  0  0  0  0  0  0  0  0  0  0  0
  -27.6095  -20.9181   15.8746 C   0  0  0  0  0  0  0  0  0  0  0  0
  -29.4837  -18.4917   18.8395 C   0  0  0  0  0  0  0  0  0  0  0  0
  -28.1824  -20.1881   16.8190 C   0  0  0  0  0  0  0  0  0  0  0  0
  -28.9427  -17.7527   19.8303 C   0  0  0  0  0  0  0  0  0  0  0  0
  -28.8066  -24.7024   18.9189 C   0  0  0  0  0  0  0  0  0  0  0  0
  -26.7180   -8.8855   18.1946 C   0  0  0  0  0  0  0  0  0  0  0  0
  -28.8838  -16.2850   19.6779 C   0  0  0  0  0  0  0  0  0  0  0  0
  -25.5443  -32.2731   22.4994 C   0  0  0  0  0  0  0  0  0  0  0  0
  -22.6341  -30.8404   22.5288 C   0  0  0  0  0  0  0  0  0  0  0  0
  -20.7529  -28.0870   21.8029 C   0  0  0  0  0  0  0  0  0  0  0  0
  -25.7285  -37.0369   24.3240 C   0  0  0  0  0  0  0  0  0  0  0  0
  -25.3359  -31.5077   20.1063 C   0  0  0  0  0  0  0  0  0  0  0  0
  -24.6136  -29.3642   22.0111 C   0  0  0  0  0  0  0  0  0  0  0  0
  -24.9175  -35.7807   24.6314 C   0  0  0  0  0  0  0  0  0  0  0  0
  -25.3876  -15.7581   20.6428 C   0  0  0  0  0  0  0  0  0  0  0  0
  -25.8385  -34.5739   24.7802 C   0  0  0  0  0  0  0  0  0  0  0  0
  -25.2891  -14.2367   20.5701 C   0  0  0  0  0  0  0  0  0  0  0  0
  -26.7686  -16.2201   21.1054 C   0  0  0  0  0  0  0  0  0  0  0  0
  -27.7883  -14.1442   20.2161 C   0  0  0  0  0  0  0  0  0  0  0  0
  -26.6034  -34.3000   23.4796 C   0  0  1  0  0  0  0  0  0  0  0  0
  -24.6132  -31.8072   21.4160 C   0  0  1  0  0  0  0  0  0  0  0  0
  -26.4220  -13.6584   19.7075 C   0  0  1  0  0  0  0  0  0  0  0  0
  -18.4125  -27.1985   21.9772 C   0  0  0  0  0  0  0  0  0  0  0  0
  -23.0466  -30.3459   25.5113 C   0  0  0  0  0  0  0  0  0  0  0  0
  -21.1871  -28.6720   25.4199 C   0  0  0  0  0  0  0  0  0  0  0  0
  -20.7355  -31.0658   24.8830 C   0  0  0  0  0  0  0  0  0  0  0  0
  -20.5166  -27.8069   18.8661 C   0  0  0  0  0  0  0  0  0  0  0  0
  -28.7802  -26.2016   18.9090 C   0  0  0  0  0  0  0  0  0  1  0  0
  -22.0353  -29.6509   23.2397 C   0  0  1  0  0  0  0  0  0  0  0  0
  -19.4139  -27.9378   21.1035 C   0  0  2  0  0  0  0  0  0  0  0  0
  -21.7738  -29.9310   24.7466 C   0  0  0  0  0  0  0  0  0  0  0  0
  -25.8812  -11.4586   20.6832 N   0  0  0  0  0  0  0  0  0  0  0  0
  -29.0905  -22.0981   17.8716 N   0  0  0  0  0  0  0  0  0  0  0  0
  -29.9263  -24.0633   18.8216 N   0  0  0  0  0  0  0  0  0  0  0  0
  -26.3538  -12.1443   19.6283 N   0  0  0  0  0  0  0  0  0  0  0  0
  -27.8379  -15.6080   20.3026 N   0  0  0  0  0  0  0  0  0  0  0  0
  -23.8928  -30.6460   21.9423 N   0  0  0  0  0  0  0  0  0  0  0  0
  -27.2216  -11.8819   17.4401 N   0  0  0  0  0  0  0  0  0  0  0  0
  -26.4088   -7.6383   18.7543 N   0  0  0  0  0  0  0  0  0  0  0  0
  -25.7460  -33.6400   22.5185 N   0  0  0  0  0  0  0  0  0  0  0  0
  -20.8426  -29.2821   22.4848 N   0  0  0  0  0  0  0  0  0  0  0  0
  -19.5761  -27.1803   19.8304 N   0  3  0  0  0  0  0  0  0  0  0  0
  -27.2066   -8.9363   17.0404 O   0  0  0  0  0  0  0  0  0  0  0  0
  -29.7684  -15.7468   19.0097 O   0  0  0  0  0  0  0  0  0  0  0  0
  -26.0416  -31.4533   23.2625 O   0  0  0  0  0  0  0  0  0  0  0  0
  -22.0051  -31.9007   22.4889 O   0  0  0  0  0  0  0  0  0  0  0  0
  -21.6301  -27.2276   21.7527 O   0  0  0  0  0  0  0  0  0  0  0  0
  -24.3126   -6.0566   23.6675 O   0  0  0  0  0  0  0  0  0  0  0  0
  -28.2198  -26.6320   20.1488 O   0  0  0  0  0  0  0  0  0  1  0  0
  -21.1915   -2.0622   21.4977 F   0  0  0  0  0  0  0  0  0  0  0  0
  -21.7743   -5.5536   24.6404 F   0  0  0  0  0  0  0  0  0  0  0  0
  1  2  1  0  0  0  0
  1  6  2  0  0  0  0
  2  7  2  0  0  0  0
  3  9  2  0  0  0  0
  3 17  1  0  0  0  0
  4 10  1  0  0  0  0
  4 17  2  0  0  0  0
  5 14  2  0  0  0  0
  5 18  1  0  0  0  0
  6 20  1  0  0  0  0
  7 22  1  0  0  0  0
  8 11  2  0  0  0  0
  8 21  1  0  0  0  0
  9 24  1  0  0  0  0
 10 24  2  0  0  0  0
 11 25  1  0  0  0  0
 12 13  2  0  0  0  0
 12 26  1  0  0  0  0
 13 27  1  0  0  0  0
 14 31  1  0  0  0  0
 15 23  1  0  0  0  0
 15 25  2  0  0  0  0
 16 27  2  0  0  0  0
 16 28  1  0  0  0  0
 17 29  1  0  0  0  0
 18 30  2  0  0  0  0
 18 34  1  0  0  0  0
 19 29  1  0  0  0  0
 19 32  2  0  0  0  0
 19 38  1  0  0  0  0
 20 22  2  0  0  0  0
 20 43  1  0  0  0  0
 21 23  2  0  0  0  0
 21 44  1  0  0  0  0
 22 52  1  0  0  0  0
 23 45  1  0  0  0  0
 24 80  1  0  0  0  0
 25 81  1  0  0  0  0
 26 28  2  0  0  0  0
 26 80  1  0  0  0  0
 27 82  1  0  0  0  0
 28 83  1  0  0  0  0
 29 64  2  0  0  0  0
 30 35  1  0  0  0  0
 30 65  1  0  0  0  0
 31 65  2  0  0  0  0
 31 66  1  0  0  0  0
 32 67  1  0  0  0  0
 32 70  1  0  0  0  0
 33 35  2  0  0  0  0
 34 36  2  0  0  0  0
 36 39  1  0  0  0  0
 37 60  1  0  0  0  0
 37 66  2  0  0  0  0
 38 71  1  0  0  0  0
 38 75  2  0  0  0  0
 39 68  1  0  0  0  0
 39 76  2  0  0  0  0
 40 53  1  0  0  0  0
 40 72  1  0  0  0  0
 40 77  2  0  0  0  0
 41 61  1  0  0  0  0
 41 69  1  0  0  0  0
 41 78  2  0  0  0  0
 42 62  1  0  0  0  0
 42 73  1  0  0  0  0
 42 79  2  0  0  0  0
 43 46  1  0  0  0  0
 44 53  1  0  0  0  0
 45 69  1  0  0  0  0
 46 48  1  0  0  0  0
 47 49  1  0  0  0  0
 47 50  1  0  0  0  0
 48 52  1  0  0  0  0
 49 54  1  0  0  0  0
 50 68  1  0  0  0  0
 51 54  1  0  0  0  0
 51 68  1  0  0  0  0
 52 72  1  0  0  0  0
 53 69  1  0  0  0  0
 54 67  1  0  0  0  0
 55 62  1  0  0  0  0
 56 63  1  0  0  0  0
 57 63  1  0  0  0  0
 58 63  1  0  0  0  0
 59 74  1  0  0  0  0
 60 81  1  0  0  0  0
 61 63  1  0  0  0  0
 61 73  1  0  0  0  0
 62 74  1  0  0  0  0
 64 67  1  0  0  0  0
M  CHG  1  74   1
M  ISO  4  36 100  39 100  60 101  81 101
M  END
> <Batch ID>
0116

> <Smiles>
C=Cc1nc(NC=[101CH:1][101O:1]c2ccc3c(c2)CN(C(=O)C(NC(=O)C(C)NC)C(C)(C)C)C(C(=O)NC2CCCc4ccccc42)C3)ccc1C=[100CH:0][100C:0](=O)N1CCCC(n2nc(-c3ccc(Oc4ccc(F)cc4F)cc3)c(C(N)=O)c2N)C1

> <Shape>
0.307

> <Color>
0.081

> <Negative vol penalty>
0.000

$$$$

  -OEChem-04052301433D

 84 92  0     1  0  0  0  0  0999 V2000
  -33.5295  -29.5756   18.7231 C   0  0  0  0  0  0  0  0  0  0  0  0
  -32.7205  -28.4561   18.5572 C   0  0  0  0  0  0  0  0  0  0  0  0
  -24.2960   -9.5142   22.1083 C   0  0  0  0  0  0  0  0  0  0  0  0
  -24.2732   -8.9192   19.7668 C   0  0  0  0  0  0  0  0  0  0  0  0
  -33.3528  -30.4039   19.8306 C   0  0  0  0  0  0  0  0  0  0  0  0
  -31.7350  -28.1636   19.4994 C   0  0  0  0  0  0  0  0  0  0  0  0
  -27.3251  -26.8831   17.3643 C   0  0  0  0  0  0  0  0  0  0  0  0
  -23.2050   -8.6745   22.3323 C   0  0  0  0  0  0  0  0  0  0  0  0
  -23.1822   -8.0794   19.9908 C   0  0  0  0  0  0  0  0  0  0  0  0
  -27.2149  -25.5888   16.8579 C   0  0  0  0  0  0  0  0  0  0  0  0
  -20.6532   -6.4109   23.5889 C   0  0  0  0  0  0  0  0  0  0  0  0
  -20.6975   -5.5734   24.7035 C   0  0  0  0  0  0  0  0  0  0  0  0
  -30.1434  -21.1790   22.4696 C   0  0  0  0  0  0  0  0  0  0  0  0
  -29.8380  -23.0984   21.0530 C   0  0  0  0  0  0  0  0  0  0  0  0
  -26.0239  -24.9189   18.8459 C   0  0  0  0  0  0  0  0  0  0  0  0
  -22.6929   -4.5237   23.8353 C   0  0  0  0  0  0  0  0  0  0  0  0
  -24.8301   -9.6366   20.8255 C   0  0  0  0  0  0  0  0  0  0  0  0
  -30.3079  -22.5398   22.2364 C   0  0  0  0  0  0  0  0  0  0  0  0
  -27.3208  -10.1643   20.6662 C   0  0  0  0  0  0  0  0  0  0  0  0
  -32.3583  -30.1269   20.7818 C   0  0  0  0  0  0  0  0  0  0  0  0
  -26.7942  -27.2028   18.6222 C   0  0  0  0  0  0  0  0  0  0  0  0
  -31.5457  -28.9883   20.6213 C   0  0  0  0  0  0  0  0  0  0  0  0
  -26.1264  -26.2186   19.3648 C   0  0  0  0  0  0  0  0  0  0  0  0
  -22.6481   -7.9571   21.2736 C   0  0  0  0  0  0  0  0  0  0  0  0
  -26.5668  -24.6057   17.6000 C   0  0  0  0  0  0  0  0  0  0  0  0
  -21.6286   -6.3047   22.5975 C   0  0  0  0  0  0  0  0  0  0  0  0
  -21.7174   -4.6298   24.8267 C   0  0  0  0  0  0  0  0  0  0  0  0
  -22.6485   -5.3612   22.7207 C   0  0  0  0  0  0  0  0  0  0  0  0
  -25.9567  -10.5043   20.5933 C   0  0  0  0  0  0  0  0  0  0  0  0
  -29.5073  -20.4263   21.4956 C   0  0  0  0  0  0  0  0  0  0  0  0
  -29.2157  -22.2598   20.1423 C   0  0  0  0  0  0  0  0  0  0  0  0
  -27.9818  -11.3294   20.3628 C   0  0  0  0  0  0  0  0  0  0  0  0
  -30.6716  -24.6521   23.4284 C   0  0  0  0  0  0  0  0  0  0  0  0
  -30.9676  -23.3752   23.2271 C   0  0  0  0  0  0  0  0  0  0  0  0
  -29.3101  -18.9994   21.6931 C   0  0  0  0  0  0  0  0  0  0  0  0
  -28.7260  -18.1595   20.8116 C   0  0  0  0  0  0  0  0  0  0  0  0
  -27.9355   -8.9075   20.9801 C   0  0  0  0  0  0  0  0  0  0  0  0
  -28.6079  -16.7281   21.1550 C   0  0  0  0  0  0  0  0  0  0  0  0
  -28.0083  -28.2311   21.3739 C   0  0  0  0  0  0  0  0  0  0  0  0
  -24.8856  -28.4279   22.2297 C   0  0  0  0  0  0  0  0  0  0  0  0
  -21.6772  -27.3692   21.7479 C   0  0  0  0  0  0  0  0  0  0  0  0
  -32.2362  -31.0250   21.9872 C   0  0  0  0  0  0  0  0  0  0  0  0
  -26.8979  -28.6103   19.1425 C   0  0  0  0  0  0  0  0  0  0  0  0
  -25.5213  -26.5156   20.7117 C   0  0  0  0  0  0  0  0  0  0  0  0
  -30.9215  -30.8539   22.7438 C   0  0  0  0  0  0  0  0  0  0  0  0
  -26.2903  -15.7028   18.5075 C   0  0  0  0  0  0  0  0  0  0  0  0
  -30.6136  -29.3743   22.9511 C   0  0  0  0  0  0  0  0  0  0  0  0
  -26.0758  -14.2328   18.8580 C   0  0  0  0  0  0  0  0  0  0  0  0
  -26.4803  -16.5659   19.7539 C   0  0  0  0  0  0  0  0  0  0  0  0
  -27.3533  -14.6124   21.0038 C   0  0  0  0  0  0  0  0  0  0  0  0
  -30.4494  -28.6516   21.6087 C   0  0  1  0  0  0  0  0  0  0  0  0
  -26.7708  -28.6970   20.6603 C   0  0  1  0  0  0  0  0  0  0  0  0
  -27.2068  -13.7183   19.7626 C   0  0  1  0  0  0  0  0  0  0  0  0
  -19.3468  -27.6825   22.6245 C   0  0  0  0  0  0  0  0  0  0  0  0
  -27.4179  -21.7128   15.6571 C   0  0  0  0  0  0  0  0  0  0  0  0
  -25.5749  -26.7230   24.6645 C   0  0  0  0  0  0  0  0  0  0  0  0
  -23.1283  -26.2820   24.9613 C   0  0  0  0  0  0  0  0  0  0  0  0
  -24.0026  -28.6125   25.1253 C   0  0  0  0  0  0  0  0  0  0  0  0
  -20.7016  -28.3539   19.1330 C   0  0  0  0  0  0  0  0  0  0  0  0
  -28.1114  -21.8812   18.0704 C   0  0  0  0  0  0  0  0  0  0  0  0
  -23.8896  -27.4874   22.8641 C   0  0  1  0  0  0  0  0  0  0  0  0
  -20.3752  -28.1354   21.5997 C   0  0  2  0  0  0  0  0  0  0  0  0
  -27.6733  -22.6472   16.8282 C   0  0  2  0  0  0  0  0  0  1  0  0
  -24.1619  -27.2699   24.3793 C   0  0  0  0  0  0  0  0  0  0  0  0
  -25.7612  -11.7852   20.2692 N   0  0  0  0  0  0  0  0  0  0  0  0
  -29.0375  -20.9334   20.3338 N   0  0  0  0  0  0  0  0  0  0  0  0
  -27.0112  -12.2603   20.1358 N   0  0  0  0  0  0  0  0  0  0  0  0
  -27.5269  -16.0210   20.6316 N   0  0  0  0  0  0  0  0  0  0  0  0
  -25.6543  -27.9050   21.1802 N   0  0  0  0  0  0  0  0  0  0  0  0
  -29.2928  -11.6382   20.2708 N   0  0  0  0  0  0  0  0  0  0  0  0
  -27.1090   -7.8127   21.2671 N   0  0  0  0  0  0  0  0  0  0  0  0
  -29.1497  -28.9340   21.0383 N   0  0  0  0  0  0  0  0  0  0  0  0
  -22.5686  -28.0303   22.5662 N   0  0  0  0  0  0  0  0  0  0  0  0
  -19.8047  -27.9290   20.2385 N   0  3  0  0  0  0  0  0  0  0  0  0
  -29.1810   -8.7639   21.0213 O   0  0  0  0  0  0  0  0  0  0  0  0
  -29.4723  -16.2463   21.8894 O   0  0  0  0  0  0  0  0  0  0  0  0
  -27.9329  -27.3036   22.1712 O   0  0  0  0  0  0  0  0  0  0  0  0
  -24.9731  -29.5861   22.6452 O   0  0  0  0  0  0  0  0  0  0  0  0
  -21.8816  -26.2902   21.1961 O   0  0  0  0  0  0  0  0  0  0  0  0
  -21.5837   -7.1374   21.4919 O   0  0  0  0  0  0  0  0  0  0  0  0
  -26.4584  -23.3414   17.1084 O   0  0  0  0  0  0  0  0  0  1  0  0
  -28.7418  -22.7863   18.9702 O   0  0  0  0  0  0  0  0  0  0  0  0
  -21.7607   -3.8267   25.8978 F   0  0  0  0  0  0  0  0  0  0  0  0
  -23.5891   -5.2553   21.7721 F   0  0  0  0  0  0  0  0  0  0  0  0
  1  2  1  0  0  0  0
  1  5  2  0  0  0  0
  2  6  2  0  0  0  0
  3  8  2  0  0  0  0
  3 17  1  0  0  0  0
  4  9  1  0  0  0  0
  4 17  2  0  0  0  0
  5 20  1  0  0  0  0
  6 22  1  0  0  0  0
  7 10  2  0  0  0  0
  7 21  1  0  0  0  0
  8 24  1  0  0  0  0
  9 24  2  0  0  0  0
 10 25  1  0  0  0  0
 11 12  2  0  0  0  0
 11 26  1  0  0  0  0
 12 27  1  0  0  0  0
 13 18  1  0  0  0  0
 13 30  2  0  0  0  0
 14 18  2  0  0  0  0
 14 31  1  0  0  0  0
 15 23  1  0  0  0  0
 15 25  2  0  0  0  0
 16 27  2  0  0  0  0
 16 28  1  0  0  0  0
 17 29  1  0  0  0  0
 18 34  1  0  0  0  0
 19 29  1  0  0  0  0
 19 32  2  0  0  0  0
 19 37  1  0  0  0  0
 20 22  2  0  0  0  0
 20 42  1  0  0  0  0
 21 23  2  0  0  0  0
 21 43  1  0  0  0  0
 22 51  1  0  0  0  0
 23 44  1  0  0  0  0
 24 80  1  0  0  0  0
 25 81  1  0  0  0  0
 26 28  2  0  0  0  0
 26 80  1  0  0  0  0
 27 83  1  0  0  0  0
 28 84  1  0  0  0  0
 29 65  2  0  0  0  0
 30 35  1  0  0  0  0
 30 66  1  0  0  0  0
 31 66  2  0  0  0  0
 31 82  1  0  0  0  0
 32 67  1  0  0  0  0
 32 70  1  0  0  0  0
 33 34  2  0  0  0  0
 35 36  2  0  0  0  0
 36 38  1  0  0  0  0
 37 71  1  0  0  0  0
 37 75  2  0  0  0  0
 38 68  1  0  0  0  0
 38 76  2  0  0  0  0
 39 52  1  0  0  0  0
 39 72  1  0  0  0  0
 39 77  2  0  0  0  0
 40 61  1  0  0  0  0
 40 69  1  0  0  0  0
 40 78  2  0  0  0  0
 41 62  1  0  0  0  0
 41 73  1  0  0  0  0
 41 79  2  0  0  0  0
 42 45  1  0  0  0  0
 43 52  1  0  0  0  0
 44 69  1  0  0  0  0
 45 47  1  0  0  0  0
 46 48  1  0  0  0  0
 46 49  1  0  0  0  0
 47 51  1  0  0  0  0
 48 53  1  0  0  0  0
 49 68  1  0  0  0  0
 50 53  1  0  0  0  0
 50 68  1  0  0  0  0
 51 72  1  0  0  0  0
 52 69  1  0  0  0  0
 53 67  1  0  0  0  0
 54 62  1  0  0  0  0
 55 63  1  0  0  0  0
 56 64  1  0  0  0  0
 57 64  1  0  0  0  0
 58 64  1  0  0  0  0
 59 74  1  0  0  0  0
 60 63  1  0  0  0  0
 60 82  1  0  0  0  0
 61 64  1  0  0  0  0
 61 73  1  0  0  0  0
 62 74  1  0  0  0  0
 63 81  1  0  0  0  0
 65 67  1  0  0  0  0
M  CHG  1  74   1
M  ISO  4  36 100  38 100  63 101  81 101
M  END
> <Batch ID>
0116

> <Smiles>
C=Cc1cc(C=[100CH:0][100C:0](=O)N2CCCC(n3nc(-c4ccc(Oc5ccc(F)cc5F)cc4)c(C(N)=O)c3N)C2)nc(OC[101CH:1](C)[101O:1]c2ccc3c(c2)CN(C(=O)C(NC(=O)C(C)NC)C(C)(C)C)C(C(=O)NC2CCCc4ccccc42)C3)c1

> <Shape>
0.233

> <Color>
0.108

> <Negative vol penalty>
0.000

$$$$

  -OEChem-04052301433D

 87 95  0     1  0  0  0  0  0999 V2000
  -28.7883  -33.4780   28.0903 C   0  0  0  0  0  0  0  0  0  0  0  0
  -28.6638  -32.4122   27.2050 C   0  0  0  0  0  0  0  0  0  0  0  0
  -24.0355   -9.6423   21.0812 C   0  0  0  0  0  0  0  0  0  0  0  0
  -24.6322  -10.4913   23.2630 C   0  0  0  0  0  0  0  0  0  0  0  0
  -27.7509  -34.4006   28.2191 C   0  0  0  0  0  0  0  0  0  0  0  0
  -27.5012  -32.2677   26.4486 C   0  0  0  0  0  0  0  0  0  0  0  0
  -28.4622  -31.1563   21.6023 C   0  0  0  0  0  0  0  0  0  0  0  0
  -23.6026   -8.4509   21.6632 C   0  0  0  0  0  0  0  0  0  0  0  0
  -24.1992   -9.3000   23.8450 C   0  0  0  0  0  0  0  0  0  0  0  0
  -28.8089  -29.8384   21.3080 C   0  0  0  0  0  0  0  0  0  0  0  0
  -20.8818   -7.3404   23.3356 C   0  0  0  0  0  0  0  0  0  0  0  0
  -19.6622   -6.8157   22.9079 C   0  0  0  0  0  0  0  0  0  0  0  0
  -26.5508  -29.4151   20.5723 C   0  0  0  0  0  0  0  0  0  0  0  0
  -30.6042  -19.2597   20.9509 C   0  0  0  0  0  0  0  0  0  0  0  0
  -20.7826   -4.8012   22.1843 C   0  0  0  0  0  0  0  0  0  0  0  0
  -24.5504  -10.6625   21.8811 C   0  0  0  0  0  0  0  0  0  0  0  0
  -28.3705  -20.9289   20.8666 C   0  0  0  0  0  0  0  0  0  0  0  0
  -24.2327  -13.0498   21.0399 C   0  0  0  0  0  0  0  0  0  0  0  0
  -26.5790  -34.2728   27.4568 C   0  0  0  0  0  0  0  0  0  0  0  0
  -27.1523  -31.6112   21.3938 C   0  0  0  0  0  0  0  0  0  0  0  0
  -26.4467  -33.1887   26.5683 C   0  0  0  0  0  0  0  0  0  0  0  0
  -26.1907  -30.7399   20.8624 C   0  0  0  0  0  0  0  0  0  0  0  0
  -28.2105  -19.5452   20.7912 C   0  0  0  0  0  0  0  0  0  0  0  0
  -29.3274  -18.7107   20.8334 C   0  0  0  0  0  0  0  0  0  0  0  0
  -23.6844   -8.2798   23.0451 C   0  0  0  0  0  0  0  0  0  0  0  0
  -27.8524  -28.9667   20.7956 C   0  0  0  0  0  0  0  0  0  0  0  0
  -22.0518   -6.5955   23.1876 C   0  0  0  0  0  0  0  0  0  0  0  0
  -29.6474  -21.4779   20.9842 C   0  0  0  0  0  0  0  0  0  0  0  0
  -19.6126   -5.5461   22.3323 C   0  0  0  0  0  0  0  0  0  0  0  0
  -30.7642  -20.6434   21.0264 C   0  0  0  0  0  0  0  0  0  0  0  0
  -22.0022   -5.3259   22.6120 C   0  0  0  0  0  0  0  0  0  0  0  0
  -24.9984  -11.8932   21.2804 C   0  0  0  0  0  0  0  0  0  0  0  0
  -25.1127  -13.9293   20.4580 C   0  0  0  0  0  0  0  0  0  0  0  0
  -26.6841  -22.2758   19.7018 C   0  0  0  0  0  0  0  0  0  0  0  0
  -27.2076  -21.8102   20.8241 C   0  0  0  0  0  0  0  0  0  0  0  0
  -22.8497  -13.3063   21.3178 C   0  0  0  0  0  0  0  0  0  0  0  0
  -24.8512  -32.7570   23.2636 C   0  0  0  0  0  0  0  0  0  0  0  0
  -23.3372  -33.2509   20.4376 C   0  0  0  0  0  0  0  0  0  0  0  0
  -22.9852  -32.3991   17.1517 C   0  0  0  0  0  0  0  0  0  0  0  0
  -30.1013  -16.3915   20.2262 C   0  0  0  0  0  0  0  0  0  0  0  0
  -25.4654  -35.2684   27.6650 C   0  0  0  0  0  0  0  0  0  0  0  0
  -26.8010  -33.0432   21.6913 C   0  0  0  0  0  0  0  0  0  0  0  0
  -24.7757  -31.1847   20.6011 C   0  0  0  0  0  0  0  0  0  0  0  0
  -24.4201  -35.2545   26.5526 C   0  0  0  0  0  0  0  0  0  0  0  0
  -29.7909  -13.2064   18.6653 C   0  0  0  0  0  0  0  0  0  0  0  0
  -24.0129  -33.8225   26.2206 C   0  0  0  0  0  0  0  0  0  0  0  0
  -28.4534  -12.6760   19.1867 C   0  0  0  0  0  0  0  0  0  0  0  0
  -30.5436  -13.9961   19.7348 C   0  0  0  0  0  0  0  0  0  0  0  0
  -28.4366  -14.5455   20.8872 C   0  0  0  0  0  0  0  0  0  0  0  0
  -25.2113  -33.0119   25.7123 C   0  0  1  0  0  0  0  0  0  0  0  0
  -25.3082  -33.2567   21.9223 C   0  0  1  0  0  0  0  0  0  0  0  0
  -27.6125  -13.7985   19.8259 C   0  0  2  0  0  0  0  0  0  0  0  0
  -26.5471  -18.4873   19.2419 C   0  0  0  0  0  0  0  0  0  0  0  0
  -21.6399  -32.9516   15.1066 C   0  0  0  0  0  0  0  0  0  0  0  0
  -20.9727  -31.6936   21.5753 C   0  0  0  0  0  0  0  0  0  0  0  0
  -20.0939  -31.4598   19.2426 C   0  0  0  0  0  0  0  0  0  0  0  0
  -20.3470  -33.7247   20.2570 C   0  0  0  0  0  0  0  0  0  0  0  0
  -25.3932  -33.2477   15.6550 C   0  0  0  0  0  0  0  0  0  0  0  0
  -26.8431  -18.9446   20.6648 C   0  0  0  0  0  0  0  0  0  0  0  0
  -29.0019  -25.5817   21.3837 C   0  0  0  0  0  0  0  0  0  0  0  0
  -30.0729  -24.9074   22.2340 C   0  0  0  0  0  0  0  0  0  0  0  0
  -29.2202  -27.0863   21.2947 C   0  0  0  0  0  0  0  0  0  1  0  0
  -29.8312  -23.4098   22.3589 C   0  0  0  0  0  0  0  0  0  0  0  0
  -22.4109  -32.4390   19.5648 C   0  0  1  0  0  0  0  0  0  0  0  0
  -22.9070  -33.2461   15.8943 C   0  0  2  0  0  0  0  0  0  0  0  0
  -20.9822  -32.3201   20.1665 C   0  0  0  0  0  0  0  0  0  0  0  0
  -26.2671  -12.0230   20.8835 N   0  0  0  0  0  0  0  0  0  0  0  0
  -26.3054  -13.2715   20.3876 N   0  0  0  0  0  0  0  0  0  0  0  0
  -24.4796  -32.5925   20.9141 N   0  0  0  0  0  0  0  0  0  0  0  0
  -29.6863  -15.0445   20.2921 N   0  0  0  0  0  0  0  0  0  0  0  0
  -24.9748  -15.1933   20.0045 N   0  0  0  0  0  0  0  0  0  0  0  0
  -22.0900  -12.2934   21.9189 N   0  0  0  0  0  0  0  0  0  0  0  0
  -29.1897  -17.3024   20.7588 N   0  0  0  0  0  0  0  0  0  0  0  0
  -25.4984  -33.3450   24.3335 N   0  0  0  0  0  0  0  0  0  0  0  0
  -22.4530  -33.0537   18.2423 N   0  0  0  0  0  0  0  0  0  0  0  0
  -24.0800  -32.9776   15.0151 N   0  3  0  0  0  0  0  0  0  0  0  0
  -22.2997  -14.3953   21.0264 O   0  0  0  0  0  0  0  0  0  0  0  0
  -23.9751  -31.9022   23.3234 O   0  0  0  0  0  0  0  0  0  0  0  0
  -23.0610  -34.4281   20.6816 O   0  0  0  0  0  0  0  0  0  0  0  0
  -23.4666  -31.2683   17.1642 O   0  0  0  0  0  0  0  0  0  0  0  0
  -31.1735  -16.7156   19.7091 O   0  0  0  0  0  0  0  0  0  0  0  0
  -23.2618   -7.1174   23.6134 O   0  0  0  0  0  0  0  0  0  0  0  0
  -28.1880  -27.6796   20.5081 O   0  0  0  0  0  0  0  0  0  1  0  0
  -29.8349  -22.8337   21.0600 O   0  0  0  0  0  0  0  0  0  0  0  0
  -18.4411   -5.0418   21.9231 F   0  0  0  0  0  0  0  0  0  0  0  0
  -31.9940  -21.1638   21.1403 F   0  0  0  0  0  0  0  0  0  0  0  0
  -23.1227   -4.6051   22.4682 F   0  0  0  0  0  0  0  0  0  0  0  0
  1  2  1  0  0  0  0
  1  5  2  0  0  0  0
  2  6  2  0  0  0  0
  3  8  2  0  0  0  0
  3 16  1  0  0  0  0
  4  9  1  0  0  0  0
  4 16  2  0  0  0  0
  5 19  1  0  0  0  0
  6 21  1  0  0  0  0
  7 10  2  0  0  0  0
  7 20  1  0  0  0  0
  8 25  1  0  0  0  0
  9 25  2  0  0  0  0
 10 26  1  0  0  0  0
 11 12  2  0  0  0  0
 11 27  1  0  0  0  0
 12 29  1  0  0  0  0
 13 22  1  0  0  0  0
 13 26  2  0  0  0  0
 14 24  1  0  0  0  0
 14 30  2  0  0  0  0
 15 29  2  0  0  0  0
 15 31  1  0  0  0  0
 16 32  1  0  0  0  0
 17 23  1  0  0  0  0
 17 28  2  0  0  0  0
 17 35  1  0  0  0  0
 18 32  1  0  0  0  0
 18 33  2  0  0  0  0
 18 36  1  0  0  0  0
 19 21  2  0  0  0  0
 19 41  1  0  0  0  0
 20 22  2  0  0  0  0
 20 42  1  0  0  0  0
 21 50  1  0  0  0  0
 22 43  1  0  0  0  0
 23 24  2  0  0  0  0
 23 59  1  0  0  0  0
 24 73  1  0  0  0  0
 25 82  1  0  0  0  0
 26 83  1  0  0  0  0
 27 31  2  0  0  0  0
 27 82  1  0  0  0  0
 28 30  1  0  0  0  0
 28 84  1  0  0  0  0
 29 85  1  0  0  0  0
 30 86  1  0  0  0  0
 31 87  1  0  0  0  0
 32 67  2  0  0  0  0
 33 68  1  0  0  0  0
 33 71  1  0  0  0  0
 34 35  2  0  0  0  0
 36 72  1  0  0  0  0
 36 77  2  0  0  0  0
 37 51  1  0  0  0  0
 37 74  1  0  0  0  0
 37 78  2  0  0  0  0
 38 64  1  0  0  0  0
 38 69  1  0  0  0  0
 38 79  2  0  0  0  0
 39 65  1  0  0  0  0
 39 75  1  0  0  0  0
 39 80  2  0  0  0  0
 40 70  1  0  0  0  0
 40 73  1  0  0  0  0
 40 81  2  0  0  0  0
 41 44  1  0  0  0  0
 42 51  1  0  0  0  0
 43 69  1  0  0  0  0
 44 46  1  0  0  0  0
 45 47  1  0  0  0  0
 45 48  1  0  0  0  0
 46 50  1  0  0  0  0
 47 52  1  0  0  0  0
 48 70  1  0  0  0  0
 49 52  1  0  0  0  0
 49 70  1  0  0  0  0
 50 74  1  0  0  0  0
 51 69  1  0  0  0  0
 52 68  1  0  0  0  0
 53 59  1  0  0  0  0
 54 65  1  0  0  0  0
 55 66  1  0  0  0  0
 56 66  1  0  0  0  0
 57 66  1  0  0  0  0
 58 76  1  0  0  0  0
 60 61  1  0  0  0  0
 60 62  1  0  0  0  0
 61 63  1  0  0  0  0
 62 83  1  0  0  0  0
 63 84  1  0  0  0  0
 64 66  1  0  0  0  0
 64 75  1  0  0  0  0
 65 76  1  0  0  0  0
 67 68  1  0  0  0  0
M  CHG  1  76   1
M  ISO  4  40 100  62 101  73 100  83 101
M  END
> <Batch ID>
0116

> <Smiles>
C=Cc1c(CC)c([100NH:0][100C:0](=O)N2CCCC(n3nc(-c4ccc(Oc5ccc(F)cc5F)cc4)c(C(N)=O)c3N)C2)cc(F)c1OCCC[101CH2:1][101O:1]c1ccc2c(c1)CN(C(=O)C(NC(=O)C(C)NC)C(C)(C)C)C(C(=O)NC1CCCc3ccccc31)C2

> <Shape>
0.292

> <Color>
0.140

> <Negative vol penalty>
0.000

$$$$

  -OEChem-04052301433D

 86 94  0     1  0  0  0  0  0999 V2000
  -29.4315  -34.8104   24.9373 C   0  0  0  0  0  0  0  0  0  0  0  0
  -29.1881  -33.4492   24.7848 C   0  0  0  0  0  0  0  0  0  0  0  0
  -24.1395   -9.6762   20.8614 C   0  0  0  0  0  0  0  0  0  0  0  0
  -24.7181  -10.4260   23.0840 C   0  0  0  0  0  0  0  0  0  0  0  0
  -28.3703  -35.7144   24.9113 C   0  0  0  0  0  0  0  0  0  0  0  0
  -27.8831  -32.9911   24.6072 C   0  0  0  0  0  0  0  0  0  0  0  0
  -27.5223  -29.5338   20.9245 C   0  0  0  0  0  0  0  0  0  0  0  0
  -23.7566   -8.4387   21.3785 C   0  0  0  0  0  0  0  0  0  0  0  0
  -24.3351   -9.1885   23.6012 C   0  0  0  0  0  0  0  0  0  0  0  0
  -27.9292  -28.2354   21.2281 C   0  0  0  0  0  0  0  0  0  0  0  0
  -21.0919   -7.1332   22.9996 C   0  0  0  0  0  0  0  0  0  0  0  0
  -19.8904   -6.5862   22.5492 C   0  0  0  0  0  0  0  0  0  0  0  0
  -30.2059  -19.6149   20.6213 C   0  0  0  0  0  0  0  0  0  0  0  0
  -28.1440  -21.0378   21.8485 C   0  0  0  0  0  0  0  0  0  0  0  0
  -25.6256  -27.5949   21.5484 C   0  0  0  0  0  0  0  0  0  0  0  0
  -21.0822   -4.6595   21.7098 C   0  0  0  0  0  0  0  0  0  0  0  0
  -24.6204  -10.6699   21.7141 C   0  0  0  0  0  0  0  0  0  0  0  0
  -30.3029  -20.9989   20.7646 C   0  0  0  0  0  0  0  0  0  0  0  0
  -29.2719  -21.7104   21.3783 C   0  0  0  0  0  0  0  0  0  0  0  0
  -24.2056  -13.0858   21.0080 C   0  0  0  0  0  0  0  0  0  0  0  0
  -27.0527  -35.2680   24.7236 C   0  0  0  0  0  0  0  0  0  0  0  0
  -26.1625  -29.8759   20.9413 C   0  0  0  0  0  0  0  0  0  0  0  0
  -26.8032  -33.8898   24.5799 C   0  0  0  0  0  0  0  0  0  0  0  0
  -25.2039  -28.8977   21.2422 C   0  0  0  0  0  0  0  0  0  0  0  0
  -29.0780  -18.9423   21.0914 C   0  0  0  0  0  0  0  0  0  0  0  0
  -23.8543   -8.1948   22.7484 C   0  0  0  0  0  0  0  0  0  0  0  0
  -26.9810  -27.2664   21.5429 C   0  0  0  0  0  0  0  0  0  0  0  0
  -22.2886   -6.4434   22.8050 C   0  0  0  0  0  0  0  0  0  0  0  0
  -28.0470  -19.6537   21.7051 C   0  0  0  0  0  0  0  0  0  0  0  0
  -19.8856   -5.3493   21.9044 C   0  0  0  0  0  0  0  0  0  0  0  0
  -22.2837   -5.2065   22.1602 C   0  0  0  0  0  0  0  0  0  0  0  0
  -25.0167  -11.9482   21.1804 C   0  0  0  0  0  0  0  0  0  0  0  0
  -25.0472  -14.0294   20.4715 C   0  0  0  0  0  0  0  0  0  0  0  0
  -31.8567  -21.6513   18.9827 C   0  0  0  0  0  0  0  0  0  0  0  0
  -31.4998  -21.6609   20.2572 C   0  0  0  0  0  0  0  0  0  0  0  0
  -29.3308  -23.1714   21.5521 C   0  0  0  0  0  0  0  0  0  0  0  0
  -28.4622  -24.0492   21.0264 C   0  0  0  0  0  0  0  0  0  0  0  0
  -22.8157  -13.2729   21.3062 C   0  0  0  0  0  0  0  0  0  0  0  0
  -24.3815  -31.9097   22.6132 C   0  0  0  0  0  0  0  0  0  0  0  0
  -22.0615  -30.9658   20.5520 C   0  0  0  0  0  0  0  0  0  0  0  0
  -20.8770  -28.5803   18.4181 C   0  0  0  0  0  0  0  0  0  0  0  0
  -29.9361  -16.6917   20.3531 C   0  0  0  0  0  0  0  0  0  0  0  0
  -25.9333  -36.2783   24.7498 C   0  0  0  0  0  0  0  0  0  0  0  0
  -25.7380  -31.2743   20.5854 C   0  0  0  0  0  0  0  0  0  0  0  0
  -23.7303  -29.2088   21.2542 C   0  0  0  0  0  0  0  0  0  0  0  0
  -24.6196  -35.7468   24.1822 C   0  0  0  0  0  0  0  0  0  0  0  0
  -29.7374  -13.5881   18.6196 C   0  0  0  0  0  0  0  0  0  0  0  0
  -24.3146  -34.3635   24.7479 C   0  0  0  0  0  0  0  0  0  0  0  0
  -28.4248  -12.9783   19.1171 C   0  0  0  0  0  0  0  0  0  0  0  0
  -30.4665  -14.3460   19.7276 C   0  0  0  0  0  0  0  0  0  0  0  0
  -28.3480  -14.7491   20.9186 C   0  0  0  0  0  0  0  0  0  0  0  0
  -25.4041  -33.3564   24.3603 C   0  0  1  0  0  0  0  0  0  0  0  0
  -24.3626  -31.6395   21.1353 C   0  0  1  0  0  0  0  0  0  0  0  0
  -27.5459  -14.0305   19.8214 C   0  0  2  0  0  0  0  0  0  0  0  0
  -23.2105  -18.9475   21.7107 C   0  0  0  0  0  0  0  0  0  0  0  0
  -18.9370  -28.0759   16.9084 C   0  0  0  0  0  0  0  0  0  0  0  0
  -20.3430  -30.3047   22.9851 C   0  0  0  0  0  0  0  0  0  0  0  0
  -18.8595  -28.9575   21.4842 C   0  0  0  0  0  0  0  0  0  0  0  0
  -19.1135  -31.4106   21.1090 C   0  0  0  0  0  0  0  0  0  0  0  0
  -22.6203  -28.4475   16.0302 C   0  0  0  0  0  0  0  0  0  0  0  0
  -28.5712  -25.5278   21.2196 C   0  0  0  0  0  0  0  0  0  1  0  0
  -24.5773  -18.5970   22.2709 C   0  0  0  0  0  0  0  0  0  0  0  0
  -25.6839  -19.4040   21.6094 C   0  0  0  0  0  0  0  0  0  0  0  0
  -21.0296  -29.8640   20.5355 C   0  0  1  0  0  0  0  0  0  0  0  0
  -20.3317  -28.6745   17.0045 C   0  0  2  0  0  0  0  0  0  0  0  0
  -19.8643  -30.1285   21.5302 C   0  0  0  0  0  0  0  0  0  0  0  0
  -26.2768  -12.1487   20.7853 N   0  0  0  0  0  0  0  0  0  0  0  0
  -26.2637  -13.4232   20.3592 N   0  0  0  0  0  0  0  0  0  0  0  0
  -23.3657  -30.5919   20.9055 N   0  0  0  0  0  0  0  0  0  0  0  0
  -29.5734  -15.3282   20.3462 N   0  0  0  0  0  0  0  0  0  0  0  0
  -24.8578  -15.3103   20.0895 N   0  0  0  0  0  0  0  0  0  0  0  0
  -22.0995  -12.1999   21.8538 N   0  0  0  0  0  0  0  0  0  0  0  0
  -28.9938  -17.5360   20.9396 N   0  0  0  0  0  0  0  0  0  0  0  0
  -25.2339  -32.9309   22.9876 N   0  0  0  0  0  0  0  0  0  0  0  0
  -20.6083  -29.7201   19.1462 N   0  0  0  0  0  0  0  0  0  0  0  0
  -21.2219  -27.9468   16.0564 N   0  3  0  0  0  0  0  0  0  0  0  0
  -22.2224  -14.3543   21.0781 O   0  0  0  0  0  0  0  0  0  0  0  0
  -23.6740  -31.2422   23.3586 O   0  0  0  0  0  0  0  0  0  0  0  0
  -21.7243  -32.1146   20.2550 O   0  0  0  0  0  0  0  0  0  0  0  0
  -21.4778  -27.5929   18.8359 O   0  0  0  0  0  0  0  0  0  0  0  0
  -30.9915  -17.0851   19.8497 O   0  0  0  0  0  0  0  0  0  0  0  0
  -23.4804   -6.9874   23.2534 O   0  0  0  0  0  0  0  0  0  0  0  0
  -27.3755  -25.9983   21.8402 O   0  0  0  0  0  0  0  0  0  1  0  0
  -26.9360  -19.0157   22.1704 O   0  0  0  0  0  0  0  0  0  0  0  0
  -18.7315   -4.8234   21.4733 F   0  0  0  0  0  0  0  0  0  0  0  0
  -23.4301   -4.5386   21.9715 F   0  0  0  0  0  0  0  0  0  0  0  0
  1  2  1  0  0  0  0
  1  5  2  0  0  0  0
  2  6  2  0  0  0  0
  3  8  2  0  0  0  0
  3 17  1  0  0  0  0
  4  9  1  0  0  0  0
  4 17  2  0  0  0  0
  5 21  1  0  0  0  0
  6 23  1  0  0  0  0
  7 10  2  0  0  0  0
  7 22  1  0  0  0  0
  8 26  1  0  0  0  0
  9 26  2  0  0  0  0
 10 27  1  0  0  0  0
 11 12  2  0  0  0  0
 11 28  1  0  0  0  0
 12 30  1  0  0  0  0
 13 18  1  0  0  0  0
 13 25  2  0  0  0  0
 14 19  1  0  0  0  0
 14 29  2  0  0  0  0
 15 24  1  0  0  0  0
 15 27  2  0  0  0  0
 16 30  2  0  0  0  0
 16 31  1  0  0  0  0
 17 32  1  0  0  0  0
 18 19  2  0  0  0  0
 18 35  1  0  0  0  0
 19 36  1  0  0  0  0
 20 32  1  0  0  0  0
 20 33  2  0  0  0  0
 20 38  1  0  0  0  0
 21 23  2  0  0  0  0
 21 43  1  0  0  0  0
 22 24  2  0  0  0  0
 22 44  1  0  0  0  0
 23 52  1  0  0  0  0
 24 45  1  0  0  0  0
 25 29  1  0  0  0  0
 25 73  1  0  0  0  0
 26 82  1  0  0  0  0
 27 83  1  0  0  0  0
 28 31  2  0  0  0  0
 28 82  1  0  0  0  0
 29 84  1  0  0  0  0
 30 85  1  0  0  0  0
 31 86  1  0  0  0  0
 32 67  2  0  0  0  0
 33 68  1  0  0  0  0
 33 71  1  0  0  0  0
 34 35  2  0  0  0  0
 36 37  2  0  0  0  0
 37 61  1  0  0  0  0
 38 72  1  0  0  0  0
 38 77  2  0  0  0  0
 39 53  1  0  0  0  0
 39 74  1  0  0  0  0
 39 78  2  0  0  0  0
 40 64  1  0  0  0  0
 40 69  1  0  0  0  0
 40 79  2  0  0  0  0
 41 65  1  0  0  0  0
 41 75  1  0  0  0  0
 41 80  2  0  0  0  0
 42 70  1  0  0  0  0
 42 73  1  0  0  0  0
 42 81  2  0  0  0  0
 43 46  1  0  0  0  0
 44 53  1  0  0  0  0
 45 69  1  0  0  0  0
 46 48  1  0  0  0  0
 47 49  1  0  0  0  0
 47 50  1  0  0  0  0
 48 52  1  0  0  0  0
 49 54  1  0  0  0  0
 50 70  1  0  0  0  0
 51 54  1  0  0  0  0
 51 70  1  0  0  0  0
 52 74  1  0  0  0  0
 53 69  1  0  0  0  0
 54 68  1  0  0  0  0
 55 62  1  0  0  0  0
 56 65  1  0  0  0  0
 57 66  1  0  0  0  0
 58 66  1  0  0  0  0
 59 66  1  0  0  0  0
 60 76  1  0  0  0  0
 61 83  1  0  0  0  0
 62 63  1  0  0  0  0
 63 84  1  0  0  0  0
 64 66  1  0  0  0  0
 64 75  1  0  0  0  0
 65 76  1  0  0  0  0
 67 68  1  0  0  0  0
M  CHG  1  76   1
M  ISO  4  42 100  61 101  73 100  83 101
M  END
> <Batch ID>
0116

> <Smiles>
C=Cc1cc([100NH:0][100C:0](=O)N2CCCC(n3nc(-c4ccc(Oc5ccc(F)cc5F)cc4)c(C(N)=O)c3N)C2)c(OCCC)cc1C=C[101CH2:1][101O:1]c1ccc2c(c1)CN(C(=O)C(NC(=O)C(C)NC)C(C)(C)C)C(C(=O)NC1CCCc3ccccc31)C2

> <Shape>
0.322

> <Color>
0.135

> <Negative vol penalty>
0.000

$$$$

  -OEChem-04052301433D

 86 94  0     1  0  0  0  0  0999 V2000
  -30.3074  -12.4833   19.4310 C   0  0  0  0  0  0  0  0  0  0  0  0
  -30.0481  -13.8486   19.4944 C   0  0  0  0  0  0  0  0  0  0  0  0
  -29.5182  -24.7625   20.7866 C   0  0  0  0  0  0  0  0  0  0  0  0
  -29.4935  -25.4268   18.4638 C   0  0  0  0  0  0  0  0  0  0  0  0
  -29.2516  -11.5728   19.4477 C   0  0  0  0  0  0  0  0  0  0  0  0
  -28.7326  -14.3043   19.5734 C   0  0  0  0  0  0  0  0  0  0  0  0
  -24.8172  -19.5936   22.4035 C   0  0  0  0  0  0  0  0  0  0  0  0
  -29.9420  -23.4861   20.4170 C   0  0  0  0  0  0  0  0  0  0  0  0
  -29.9174  -24.1503   18.0943 C   0  0  0  0  0  0  0  0  0  0  0  0
  -23.8784  -20.5555   22.0332 C   0  0  0  0  0  0  0  0  0  0  0  0
  -30.6849  -19.9446   20.0570 C   0  0  0  0  0  0  0  0  0  0  0  0
  -30.0608  -18.8525   20.6598 C   0  0  0  0  0  0  0  0  0  0  0  0
  -18.3600  -28.6978   21.8710 C   0  0  0  0  0  0  0  0  0  0  0  0
  -20.6482  -27.4123   22.8168 C   0  0  0  0  0  0  0  0  0  0  0  0
  -22.1384  -18.8878   22.1347 C   0  0  0  0  0  0  0  0  0  0  0  0
  -27.9354  -19.5736   19.7655 C   0  0  0  0  0  0  0  0  0  0  0  0
  -29.2938  -25.7329   19.8099 C   0  0  0  0  0  0  0  0  0  0  0  0
  -19.5068  -29.4377   22.1593 C   0  0  0  0  0  0  0  0  0  0  0  0
  -18.3573  -27.3152   22.0557 C   0  0  0  0  0  0  0  0  0  0  0  0
  -20.6509  -28.7949   22.6322 C   0  0  0  0  0  0  0  0  0  0  0  0
  -29.6656  -28.1607   20.4994 C   0  0  0  0  0  0  0  0  0  0  0  0
  -27.9230  -12.0173   19.5366 C   0  0  0  0  0  0  0  0  0  0  0  0
  -24.4247  -18.2669   22.6320 C   0  0  0  0  0  0  0  0  0  0  0  0
  -27.6580  -13.3990   19.5899 C   0  0  0  0  0  0  0  0  0  0  0  0
  -23.0737  -17.9115   22.5103 C   0  0  0  0  0  0  0  0  0  0  0  0
  -30.1417  -23.1800   19.0709 C   0  0  0  0  0  0  0  0  0  0  0  0
  -22.5393  -20.2021   21.8959 C   0  0  0  0  0  0  0  0  0  0  0  0
  -29.9343  -20.8513   19.3085 C   0  0  0  0  0  0  0  0  0  0  0  0
  -19.5013  -26.6724   22.5286 C   0  0  0  0  0  0  0  0  0  0  0  0
  -28.6860  -18.6670   20.5140 C   0  0  0  0  0  0  0  0  0  0  0  0
  -28.5595  -20.6658   19.1627 C   0  0  0  0  0  0  0  0  0  0  0  0
  -28.8554  -27.0515   20.1910 C   0  0  0  0  0  0  0  0  0  0  0  0
  -28.7757  -29.1643   20.7950 C   0  0  0  0  0  0  0  0  0  0  0  0
  -18.6562  -31.6947   22.6034 C   0  0  0  0  0  0  0  0  0  0  0  0
  -16.6037  -26.5071   20.5434 C   0  0  0  0  0  0  0  0  0  0  0  0
  -19.4755  -30.8807   21.9557 C   0  0  0  0  0  0  0  0  0  0  0  0
  -17.1464  -26.5648   21.7503 C   0  0  0  0  0  0  0  0  0  0  0  0
  -21.8696  -29.5317   22.9460 C   0  0  0  0  0  0  0  0  0  0  0  0
  -31.0948  -28.2738   20.5170 C   0  0  0  0  0  0  0  0  0  0  0  0
  -23.1953  -28.8964   22.8052 C   0  0  0  0  0  0  0  0  0  0  0  0
  -25.1184  -15.4624   21.3063 C   0  0  0  0  0  0  0  0  0  0  0  0
  -23.3322  -14.3038   23.7536 C   0  0  0  0  0  0  0  0  0  0  0  0
  -20.8865  -14.8541   26.0693 C   0  0  0  0  0  0  0  0  0  0  0  0
  -26.8126  -10.9972   19.5038 C   0  0  0  0  0  0  0  0  0  0  0  0
  -25.4453  -17.2470   23.0568 C   0  0  0  0  0  0  0  0  0  0  0  0
  -22.5977  -16.5053   22.7640 C   0  0  0  0  0  0  0  0  0  0  0  0
  -25.4661  -11.5474   19.9670 C   0  0  0  0  0  0  0  0  0  0  0  0
  -24.3572  -30.6728   19.8176 C   0  0  0  0  0  0  0  0  0  0  0  0
  -25.1855  -12.8950   19.3098 C   0  0  0  0  0  0  0  0  0  0  0  0
  -25.7073  -30.0006   19.5827 C   0  0  0  0  0  0  0  0  0  0  0  0
  -23.3252  -29.6999   20.3858 C   0  0  0  0  0  0  0  0  0  0  0  0
  -25.1312  -28.3315   21.3889 C   0  0  0  0  0  0  0  0  0  0  0  0
  -26.2458  -13.9313   19.7014 C   0  0  1  0  0  0  0  0  0  0  0  0
  -25.0150  -15.8130   22.7637 C   0  0  1  0  0  0  0  0  0  0  0  0
  -26.1981  -29.3036   20.8615 C   0  0  1  0  0  0  0  0  0  0  0  0
  -19.6175  -13.7064   27.9050 C   0  0  0  0  0  0  0  0  0  0  0  0
  -21.6716  -12.8149   21.6714 C   0  0  0  0  0  0  0  0  0  0  0  0
  -19.9078  -12.4831   23.4171 C   0  0  0  0  0  0  0  0  0  0  0  0
  -22.1777  -11.4993   23.7372 C   0  0  0  0  0  0  0  0  0  0  0  0
  -21.8735  -16.7637   28.1035 C   0  0  0  0  0  0  0  0  0  0  0  0
  -20.5628  -23.2282   22.1142 C   0  0  0  0  0  0  0  0  0  0  0  0
  -21.8770  -22.4860   21.9291 C   0  0  0  0  0  0  0  0  0  1  0  0
  -20.7793  -24.6670   22.5561 C   0  0  0  0  0  0  0  0  0  0  0  0
  -21.8678  -13.9988   23.9574 C   0  0  1  0  0  0  0  0  0  0  0  0
  -20.8250  -14.5634   27.5579 C   0  0  2  0  0  0  0  0  0  0  0  0
  -21.4152  -12.7252   23.1891 C   0  0  0  0  0  0  0  0  0  0  0  0
  -27.5511  -27.3244   20.2824 N   0  0  0  0  0  0  0  0  0  0  0  0
  -27.5349  -28.6165   20.6516 N   0  0  0  0  0  0  0  0  0  0  0  0
  -23.8397  -29.0027   21.5740 N   0  0  0  0  0  0  0  0  0  0  0  0
  -23.6347  -15.5427   23.1710 N   0  0  0  0  0  0  0  0  0  0  0  0
  -28.9413  -30.4531   21.1610 N   0  0  0  0  0  0  0  0  0  0  0  0
  -31.8583  -27.1457   20.1871 N   0  0  0  0  0  0  0  0  0  0  0  0
  -25.9962  -14.4298   21.0370 N   0  0  0  0  0  0  0  0  0  0  0  0
  -21.6620  -13.9310   25.4002 N   0  0  0  0  0  0  0  0  0  0  0  0
  -20.7369  -15.8345   28.3308 N   0  3  0  0  0  0  0  0  0  0  0  0
  -21.8942  -30.6995   23.3380 O   0  0  0  0  0  0  0  0  0  0  0  0
  -31.6776  -29.3388   20.8324 O   0  0  0  0  0  0  0  0  0  0  0  0
  -23.6496  -28.3053   23.7865 O   0  0  0  0  0  0  0  0  0  0  0  0
  -24.4501  -16.0819   20.4869 O   0  0  0  0  0  0  0  0  0  0  0  0
  -24.1769  -13.4764   24.1051 O   0  0  0  0  0  0  0  0  0  0  0  0
  -20.3018  -15.8030   25.5512 O   0  0  0  0  0  0  0  0  0  0  0  0
  -30.5555  -21.9346   18.7100 O   0  0  0  0  0  0  0  0  0  0  0  0
  -21.6210  -21.1389   21.5339 O   0  0  0  0  0  0  0  0  0  1  0  0
  -19.5252  -25.3154   22.7195 O   0  0  0  0  0  0  0  0  0  0  0  0
  -28.0871  -17.6174   21.0917 F   0  0  0  0  0  0  0  0  0  0  0  0
  -27.8333  -21.5328   18.4439 F   0  0  0  0  0  0  0  0  0  0  0  0
  1  2  1  0  0  0  0
  1  5  2  0  0  0  0
  2  6  2  0  0  0  0
  3  8  2  0  0  0  0
  3 17  1  0  0  0  0
  4  9  1  0  0  0  0
  4 17  2  0  0  0  0
  5 22  1  0  0  0  0
  6 24  1  0  0  0  0
  7 10  2  0  0  0  0
  7 23  1  0  0  0  0
  8 26  1  0  0  0  0
  9 26  2  0  0  0  0
 10 27  1  0  0  0  0
 11 12  2  0  0  0  0
 11 28  1  0  0  0  0
 12 30  1  0  0  0  0
 13 18  2  0  0  0  0
 13 19  1  0  0  0  0
 14 20  2  0  0  0  0
 14 29  1  0  0  0  0
 15 25  1  0  0  0  0
 15 27  2  0  0  0  0
 16 30  2  0  0  0  0
 16 31  1  0  0  0  0
 17 32  1  0  0  0  0
 18 20  1  0  0  0  0
 18 36  1  0  0  0  0
 19 29  2  0  0  0  0
 19 37  1  0  0  0  0
 20 38  1  0  0  0  0
 21 32  1  0  0  0  0
 21 33  2  0  0  0  0
 21 39  1  0  0  0  0
 22 24  2  0  0  0  0
 22 44  1  0  0  0  0
 23 25  2  0  0  0  0
 23 45  1  0  0  0  0
 24 53  1  0  0  0  0
 25 46  1  0  0  0  0
 26 82  1  0  0  0  0
 27 83  1  0  0  0  0
 28 31  2  0  0  0  0
 28 82  1  0  0  0  0
 29 84  1  0  0  0  0
 30 85  1  0  0  0  0
 31 86  1  0  0  0  0
 32 67  2  0  0  0  0
 33 68  1  0  0  0  0
 33 71  1  0  0  0  0
 34 36  2  0  0  0  0
 35 37  2  0  0  0  0
 38 40  1  0  0  0  0
 38 76  2  0  0  0  0
 39 72  1  0  0  0  0
 39 77  2  0  0  0  0
 40 69  1  0  0  0  0
 40 78  2  0  0  0  0
 41 54  1  0  0  0  0
 41 73  1  0  0  0  0
 41 79  2  0  0  0  0
 42 64  1  0  0  0  0
 42 70  1  0  0  0  0
 42 80  2  0  0  0  0
 43 65  1  0  0  0  0
 43 74  1  0  0  0  0
 43 81  2  0  0  0  0
 44 47  1  0  0  0  0
 45 54  1  0  0  0  0
 46 70  1  0  0  0  0
 47 49  1  0  0  0  0
 48 50  1  0  0  0  0
 48 51  1  0  0  0  0
 49 53  1  0  0  0  0
 50 55  1  0  0  0  0
 51 69  1  0  0  0  0
 52 55  1  0  0  0  0
 52 69  1  0  0  0  0
 53 73  1  0  0  0  0
 54 70  1  0  0  0  0
 55 68  1  0  0  0  0
 56 65  1  0  0  0  0
 57 66  1  0  0  0  0
 58 66  1  0  0  0  0
 59 66  1  0  0  0  0
 60 75  1  0  0  0  0
 61 62  1  0  0  0  0
 61 63  1  0  0  0  0
 62 83  1  0  0  0  0
 63 84  1  0  0  0  0
 64 66  1  0  0  0  0
 64 74  1  0  0  0  0
 65 75  1  0  0  0  0
 67 68  1  0  0  0  0
M  CHG  1  75   1
M  ISO  4  38 100  40 100  62 101  83 101
M  END
> <Batch ID>
0116

> <Smiles>
C=Cc1cc(C=C)c([100C:0](=O)[100C:0](=O)N2CCCC(n3nc(-c4ccc(Oc5ccc(F)cc5F)cc4)c(C(N)=O)c3N)C2)cc1OCC[101CH2:1][101O:1]c1ccc2c(c1)CN(C(=O)C(NC(=O)C(C)NC)C(C)(C)C)C(C(=O)NC1CCCc3ccccc31)C2

> <Shape>
0.283

> <Color>
0.071

> <Negative vol penalty>
0.000

$$$$

  -OEChem-04052301433D

 80 88  0     1  0  0  0  0  0999 V2000
  -25.2233  -36.3583   16.1785 C   0  0  0  0  0  0  0  0  0  0  0  0
  -25.6867  -35.0469   16.1509 C   0  0  0  0  0  0  0  0  0  0  0  0
  -24.3510   -8.8452   20.2827 C   0  0  0  0  0  0  0  0  0  0  0  0
  -22.7881  -10.4551   21.1786 C   0  0  0  0  0  0  0  0  0  0  0  0
  -25.1726  -37.0532   17.3862 C   0  0  0  0  0  0  0  0  0  0  0  0
  -26.1008  -34.4299   17.3308 C   0  0  0  0  0  0  0  0  0  0  0  0
  -25.4743  -28.5205   18.8113 C   0  0  0  0  0  0  0  0  0  0  0  0
  -23.5288   -7.8054   20.7166 C   0  0  0  0  0  0  0  0  0  0  0  0
  -21.9658   -9.4153   21.6125 C   0  0  0  0  0  0  0  0  0  0  0  0
  -26.3531  -27.4398   18.7498 C   0  0  0  0  0  0  0  0  0  0  0  0
  -22.8559   -6.2076   23.6181 C   0  0  0  0  0  0  0  0  0  0  0  0
  -23.4619   -5.1282   24.2609 C   0  0  0  0  0  0  0  0  0  0  0  0
  -26.9170  -27.7739   21.0713 C   0  0  0  0  0  0  0  0  0  0  0  0
  -22.6241   -3.6401   22.5518 C   0  0  0  0  0  0  0  0  0  0  0  0
  -23.9807  -10.1701   20.5137 C   0  0  0  0  0  0  0  0  0  0  0  0
  -24.7887  -11.8982   18.8201 C   0  0  0  0  0  0  0  0  0  0  0  0
  -25.5771  -36.4412   18.5830 C   0  0  0  0  0  0  0  0  0  0  0  0
  -25.3182  -29.2440   20.0024 C   0  0  0  0  0  0  0  0  0  0  0  0
  -26.0567  -35.1177   18.5554 C   0  0  0  0  0  0  0  0  0  0  0  0
  -26.0338  -28.8617   21.1461 C   0  0  0  0  0  0  0  0  0  0  0  0
  -22.3361   -8.0904   21.3815 C   0  0  0  0  0  0  0  0  0  0  0  0
  -27.0767  -27.0682   19.8790 C   0  0  0  0  0  0  0  0  0  0  0  0
  -22.1338   -6.0033   22.4422 C   0  0  0  0  0  0  0  0  0  0  0  0
  -23.3461   -3.8445   23.7278 C   0  0  0  0  0  0  0  0  0  0  0  0
  -22.0180   -4.7195   21.9091 C   0  0  0  0  0  0  0  0  0  0  0  0
  -24.8300  -11.2446   20.0663 C   0  0  0  0  0  0  0  0  0  0  0  0
  -28.9727  -19.5892   19.9683 C   0  0  0  0  0  0  0  0  0  0  0  0
  -27.9223  -18.9953   20.6360 C   0  0  0  0  0  0  0  0  0  0  0  0
  -25.7915  -12.8342   18.8899 C   0  0  0  0  0  0  0  0  0  0  0  0
  -28.0220  -21.3987   20.7631 C   0  0  0  0  0  0  0  0  0  0  0  0
  -27.7326  -22.8079   21.0771 C   0  0  0  0  0  0  0  0  0  0  0  0
  -28.4615  -23.8578   20.6676 C   0  0  0  0  0  0  0  0  0  0  0  0
  -23.9213  -11.6790   17.6997 C   0  0  0  0  0  0  0  0  0  0  0  0
  -25.8307  -32.2554   20.8812 C   0  0  0  0  0  0  0  0  0  0  0  0
  -28.4552  -16.8430   21.7402 C   0  0  0  0  0  0  0  0  0  0  0  0
  -24.4313  -31.2787   23.6398 C   0  0  0  0  0  0  0  0  0  0  0  0
  -23.6508  -28.7036   25.7389 C   0  0  0  0  0  0  0  0  0  0  0  0
  -25.5487  -37.2483   19.8568 C   0  0  0  0  0  0  0  0  0  0  0  0
  -24.3464  -30.3905   20.0597 C   0  0  0  0  0  0  0  0  0  0  0  0
  -25.8870  -29.5931   22.4545 C   0  0  0  0  0  0  0  0  0  0  0  0
  -25.6532  -36.3971   21.1197 C   0  0  0  0  0  0  0  0  0  0  0  0
  -29.4985  -13.4551   22.2635 C   0  0  0  0  0  0  0  0  0  0  0  0
  -26.7705  -35.3682   20.9790 C   0  0  0  0  0  0  0  0  0  0  0  0
  -28.3594  -12.6319   21.6633 C   0  0  0  0  0  0  0  0  0  0  0  0
  -28.9802  -14.7324   22.9168 C   0  0  0  0  0  0  0  0  0  0  0  0
  -27.0205  -14.7689   21.4069 C   0  0  0  0  0  0  0  0  0  0  0  0
  -26.4914  -34.4058   19.8182 C   0  0  1  0  0  0  0  0  0  0  0  0
  -24.6506  -31.3760   21.1838 C   0  0  1  0  0  0  0  0  0  0  0  0
  -27.5039  -13.4848   20.7099 C   0  0  2  0  0  0  0  0  0  0  0  0
  -30.0209  -18.8879   19.1987 C   0  0  0  0  0  0  0  0  0  0  0  0
  -22.5365  -28.2208   27.9350 C   0  0  0  0  0  0  0  0  0  0  0  0
  -26.8771  -32.3528   25.1143 C   0  0  0  0  0  0  0  0  0  0  0  0
  -26.1684  -31.0239   27.1143 C   0  0  0  0  0  0  0  0  0  0  0  0
  -24.6918  -32.8307   26.2324 C   0  0  0  0  0  0  0  0  0  0  0  0
  -21.6164  -26.9768   24.4590 C   0  0  0  0  0  0  0  0  0  0  0  0
  -27.5615  -17.5697   20.7670 C   0  0  0  0  0  0  0  0  0  0  0  0
  -28.1353  -25.2727   21.0243 C   0  0  0  0  0  0  0  0  0  1  0  0
  -24.9235  -30.6745   24.9327 C   0  0  1  0  0  0  0  0  0  0  0  0
  -22.3529  -28.3244   26.4289 C   0  0  2  0  0  0  0  0  0  0  0  0
  -25.6696  -31.7077   25.8234 C   0  0  0  0  0  0  0  0  0  0  0  0
  -25.7837  -11.7245   20.8689 N   0  0  0  0  0  0  0  0  0  0  0  0
  -29.0313  -20.9674   20.0396 N   0  0  0  0  0  0  0  0  0  0  0  0
  -26.3509  -12.6897   20.1254 N   0  0  0  0  0  0  0  0  0  0  0  0
  -24.9292  -30.7111   22.4584 N   0  0  0  0  0  0  0  0  0  0  0  0
  -28.1539  -15.5033   21.9860 N   0  0  0  0  0  0  0  0  0  0  0  0
  -26.2405  -13.7584   18.0144 N   0  0  0  0  0  0  0  0  0  0  0  0
  -22.9458  -10.6773   17.7959 N   0  0  0  0  0  0  0  0  0  0  0  0
  -25.5082  -33.4173   20.2064 N   0  0  0  0  0  0  0  0  0  0  0  0
  -23.7594  -30.0676   25.5689 N   0  0  0  0  0  0  0  0  0  0  0  0
  -21.8622  -27.0110   25.9237 N   0  3  0  0  0  0  0  0  0  0  0  0
  -24.0195  -12.3405   16.6384 O   0  0  0  0  0  0  0  0  0  0  0  0
  -26.9508  -31.9063   21.2351 O   0  0  0  0  0  0  0  0  0  0  0  0
  -29.3944  -17.4487   22.2629 O   0  0  0  0  0  0  0  0  0  0  0  0
  -23.6289  -32.2149   23.6766 O   0  0  0  0  0  0  0  0  0  0  0  0
  -24.4867  -27.8731   25.3894 O   0  0  0  0  0  0  0  0  0  0  0  0
  -21.5334   -7.0760   21.8048 O   0  0  0  0  0  0  0  0  0  0  0  0
  -27.9356  -26.0142   19.8215 O   0  0  0  0  0  0  0  0  0  1  0  0
  -23.9294   -2.8082   24.3443 F   0  0  0  0  0  0  0  0  0  0  0  0
  -21.3267   -4.5172   20.7791 F   0  0  0  0  0  0  0  0  0  0  0  0
  -26.9636  -20.2017   21.3890 S   0  0  0  0  0  0  0  0  0  0  0  0
  1  2  1  0  0  0  0
  1  5  2  0  0  0  0
  2  6  2  0  0  0  0
  3  8  2  0  0  0  0
  3 15  1  0  0  0  0
  4  9  1  0  0  0  0
  4 15  2  0  0  0  0
  5 17  1  0  0  0  0
  6 19  1  0  0  0  0
  7 10  2  0  0  0  0
  7 18  1  0  0  0  0
  8 21  1  0  0  0  0
  9 21  2  0  0  0  0
 10 22  1  0  0  0  0
 11 12  2  0  0  0  0
 11 23  1  0  0  0  0
 12 24  1  0  0  0  0
 13 20  1  0  0  0  0
 13 22  2  0  0  0  0
 14 24  2  0  0  0  0
 14 25  1  0  0  0  0
 15 26  1  0  0  0  0
 16 26  1  0  0  0  0
 16 29  2  0  0  0  0
 16 33  1  0  0  0  0
 17 19  2  0  0  0  0
 17 38  1  0  0  0  0
 18 20  2  0  0  0  0
 18 39  1  0  0  0  0
 19 47  1  0  0  0  0
 20 40  1  0  0  0  0
 21 76  1  0  0  0  0
 22 77  1  0  0  0  0
 23 25  2  0  0  0  0
 23 76  1  0  0  0  0
 24 78  1  0  0  0  0
 25 79  1  0  0  0  0
 26 61  2  0  0  0  0
 27 28  2  0  0  0  0
 27 50  1  0  0  0  0
 27 62  1  0  0  0  0
 28 56  1  0  0  0  0
 28 80  1  0  0  0  0
 29 63  1  0  0  0  0
 29 66  1  0  0  0  0
 30 31  1  0  0  0  0
 30 62  2  0  0  0  0
 30 80  1  0  0  0  0
 31 32  2  0  0  0  0
 32 57  1  0  0  0  0
 33 67  1  0  0  0  0
 33 71  2  0  0  0  0
 34 48  1  0  0  0  0
 34 68  1  0  0  0  0
 34 72  2  0  0  0  0
 35 56  1  0  0  0  0
 35 65  1  0  0  0  0
 35 73  2  0  0  0  0
 36 58  1  0  0  0  0
 36 64  1  0  0  0  0
 36 74  2  0  0  0  0
 37 59  1  0  0  0  0
 37 69  1  0  0  0  0
 37 75  2  0  0  0  0
 38 41  1  0  0  0  0
 39 48  1  0  0  0  0
 40 64  1  0  0  0  0
 41 43  1  0  0  0  0
 42 44  1  0  0  0  0
 42 45  1  0  0  0  0
 43 47  1  0  0  0  0
 44 49  1  0  0  0  0
 45 65  1  0  0  0  0
 46 49  1  0  0  0  0
 46 65  1  0  0  0  0
 47 68  1  0  0  0  0
 48 64  1  0  0  0  0
 49 63  1  0  0  0  0
 51 59  1  0  0  0  0
 52 60  1  0  0  0  0
 53 60  1  0  0  0  0
 54 60  1  0  0  0  0
 55 70  1  0  0  0  0
 57 77  1  0  0  0  0
 58 60  1  0  0  0  0
 58 69  1  0  0  0  0
 59 70  1  0  0  0  0
 61 63  1  0  0  0  0
M  CHG  1  70   1
M  ISO  4  35 100  56 100  57 101  77 101
M  END
> <Batch ID>
0116

> <Smiles>
CNC(C)C(=O)NC(C(=O)N1Cc2cc([101O:1][101CH2:1]C=Cc3nc(C)c([100CH2:0][100C:0](=O)N4CCCC(n5nc(-c6ccc(Oc7ccc(F)cc7F)cc6)c(C(N)=O)c5N)C4)s3)ccc2CC1C(=O)NC1CCCc2ccccc21)C(C)(C)C

> <Shape>
0.266

> <Color>
0.155

> <Negative vol penalty>
0.000

$$$$

  -OEChem-04052301433D

 86 94  0     1  0  0  0  0  0999 V2000
  -27.7428  -18.4292   18.6783 C   0  0  0  0  0  0  0  0  0  0  0  0
  -26.7936  -19.4087   18.4044 C   0  0  0  0  0  0  0  0  0  0  0  0
  -25.7586  -16.2017   21.1160 C   0  0  0  0  0  0  0  0  0  0  0  0
  -25.6330  -15.4041   23.3930 C   0  0  0  0  0  0  0  0  0  0  0  0
  -28.6767  -18.6298   19.6939 C   0  0  0  0  0  0  0  0  0  0  0  0
  -26.7771  -20.5890   19.1468 C   0  0  0  0  0  0  0  0  0  0  0  0
  -25.2983  -27.5687   18.5038 C   0  0  0  0  0  0  0  0  0  0  0  0
  -26.9700  -15.5310   20.9479 C   0  0  0  0  0  0  0  0  0  0  0  0
  -26.8444  -14.7333   23.2250 C   0  0  0  0  0  0  0  0  0  0  0  0
  -24.5406  -28.5695   19.1105 C   0  0  0  0  0  0  0  0  0  0  0  0
  -28.0047  -12.3640   20.3711 C   0  0  0  0  0  0  0  0  0  0  0  0
  -28.1817  -11.6295   19.1986 C   0  0  0  0  0  0  0  0  0  0  0  0
  -20.5443  -27.4651   22.2137 C   0  0  0  0  0  0  0  0  0  0  0  0
  -26.2527  -28.8402   20.7882 C   0  0  0  0  0  0  0  0  0  0  0  0
  -18.0048  -27.8486   23.3028 C   0  0  0  0  0  0  0  0  0  0  0  0
  -30.0923  -12.9953   18.6315 C   0  0  0  0  0  0  0  0  0  0  0  0
  -25.0901  -16.1383   22.3386 C   0  0  0  0  0  0  0  0  0  0  0  0
  -19.6987  -26.3738   22.4125 C   0  0  0  0  0  0  0  0  0  0  0  0
  -22.5473  -16.3291   22.2660 C   0  0  0  0  0  0  0  0  0  0  0  0
  -28.6778  -19.8172   20.4426 C   0  0  0  0  0  0  0  0  0  0  0  0
  -26.5360  -27.1879   19.0419 C   0  0  0  0  0  0  0  0  0  0  0  0
  -27.7111  -20.8050   20.1743 C   0  0  0  0  0  0  0  0  0  0  0  0
  -27.0253  -27.8361   20.1850 C   0  0  0  0  0  0  0  0  0  0  0  0
  -18.4289  -26.5656   22.9570 C   0  0  0  0  0  0  0  0  0  0  0  0
  -18.8504  -28.9399   23.1041 C   0  0  0  0  0  0  0  0  0  0  0  0
  -20.1202  -28.7482   22.5596 C   0  0  0  0  0  0  0  0  0  0  0  0
  -27.5129  -14.7968   22.0023 C   0  0  0  0  0  0  0  0  0  0  0  0
  -25.0164  -29.2034   20.2545 C   0  0  0  0  0  0  0  0  0  0  0  0
  -28.8714  -13.4142   20.6738 C   0  0  0  0  0  0  0  0  0  0  0  0
  -29.2256  -11.9451   18.3288 C   0  0  0  0  0  0  0  0  0  0  0  0
  -29.9152  -13.7298   19.8040 C   0  0  0  0  0  0  0  0  0  0  0  0
  -23.8390  -16.8314   22.5130 C   0  0  0  0  0  0  0  0  0  0  0  0
  -21.7079  -17.3686   22.5847 C   0  0  0  0  0  0  0  0  0  0  0  0
  -20.1700  -25.0458   22.0415 C   0  0  0  0  0  0  0  0  0  0  0  0
  -21.2452  -24.4242   22.5669 C   0  0  0  0  0  0  0  0  0  0  0  0
  -22.1123  -29.7857   22.9839 C   0  0  0  0  0  0  0  0  0  0  0  0
  -22.1423  -15.0383   21.7911 C   0  0  0  0  0  0  0  0  0  0  0  0
  -21.5903  -23.0692   22.0918 C   0  0  0  0  0  0  0  0  0  0  0  0
  -27.7247  -24.4992   20.2509 C   0  0  0  0  0  0  0  0  0  0  0  0
  -30.4827  -26.2056   20.3133 C   0  0  0  0  0  0  0  0  0  0  0  0
  -31.9966  -29.2628   20.4046 C   0  0  0  0  0  0  0  0  0  0  0  0
  -29.6772  -19.9686   21.5619 C   0  0  0  0  0  0  0  0  0  0  0  0
  -27.3534  -26.1251   18.3602 C   0  0  0  0  0  0  0  0  0  0  0  0
  -28.3571  -27.4783   20.7905 C   0  0  0  0  0  0  0  0  0  0  0  0
  -29.8287  -21.4061   22.0529 C   0  0  0  0  0  0  0  0  0  0  0  0
  -22.0707  -21.4390   25.3389 C   0  0  0  0  0  0  0  0  0  0  0  0
  -28.4598  -22.0471   22.2581 C   0  0  0  0  0  0  0  0  0  0  0  0
  -22.5011  -20.0404   24.9045 C   0  0  0  0  0  0  0  0  0  0  0  0
  -22.5763  -22.5162   24.3806 C   0  0  0  0  0  0  0  0  0  0  0  0
  -22.6271  -20.8758   22.5241 C   0  0  0  0  0  0  0  0  0  0  0  0
  -27.6767  -22.1092   20.9411 C   0  0  1  0  0  0  0  0  0  0  0  0
  -28.3644  -25.4608   19.2898 C   0  0  1  0  0  0  0  0  0  0  0  0
  -22.0895  -19.7720   23.4483 C   0  0  1  0  0  0  0  0  0  0  0  0
  -18.3731  -30.3041   23.4820 C   0  0  0  0  0  0  0  0  0  0  0  0
  -23.3580  -31.5230   24.2075 C   0  0  0  0  0  0  0  0  0  0  0  0
  -34.2631  -30.3369   20.4864 C   0  0  0  0  0  0  0  0  0  0  0  0
  -30.7143  -25.4860   23.2694 C   0  0  0  0  0  0  0  0  0  0  0  0
  -32.4091  -27.3130   23.5097 C   0  0  0  0  0  0  0  0  0  0  0  0
  -32.8657  -25.3815   21.9986 C   0  0  0  0  0  0  0  0  0  0  0  0
  -31.5597  -30.6511   17.8276 C   0  0  0  0  0  0  0  0  0  0  0  0
  -17.4957  -25.4196   23.1837 C   0  0  0  0  0  0  0  0  0  0  0  0
  -24.4191  -30.3317   22.2610 C   0  0  0  0  0  0  0  0  0  1  0  0
  -23.1245  -30.8996   22.8369 C   0  0  1  0  0  0  0  0  0  0  0  0
  -31.1557  -27.1134   21.3143 C   0  0  1  0  0  0  0  0  0  0  0  0
  -33.1366  -29.8470   19.5899 C   0  0  2  0  0  0  0  0  0  0  0  0
  -31.7602  -26.3291   22.5130 C   0  0  0  0  0  0  0  0  0  0  0  0
  -23.8264  -18.0919   22.9544 N   0  0  0  0  0  0  0  0  0  0  0  0
  -20.9843  -29.8365   22.3532 N   0  0  0  0  0  0  0  0  0  0  0  0
  -22.5165  -18.3906   22.9872 N   0  0  0  0  0  0  0  0  0  0  0  0
  -22.2208  -22.2072   22.9874 N   0  0  0  0  0  0  0  0  0  0  0  0
  -29.1164  -26.4286   20.0911 N   0  0  0  0  0  0  0  0  0  0  0  0
  -20.3646  -17.4989   22.5570 N   0  0  0  0  0  0  0  0  0  0  0  0
  -23.1337  -14.0878   21.5121 N   0  0  0  0  0  0  0  0  0  0  0  0
  -28.1609  -23.1950   20.1159 N   0  0  0  0  0  0  0  0  0  0  0  0
  -32.1284  -27.8994   20.5630 N   0  0  0  0  0  0  0  0  0  0  0  0
  -16.6167  -25.1385   22.0170 N   0  3  0  0  0  0  0  0  0  0  0  0
  -32.6534  -30.9954   18.7722 N   0  3  0  0  0  0  0  0  0  0  0  0
  -20.9378  -14.7423   21.6036 O   0  0  0  0  0  0  0  0  0  0  0  0
  -21.3032  -22.7845   20.9277 O   0  0  0  0  0  0  0  0  0  0  0  0
  -26.8976  -24.9103   21.0563 O   0  0  0  0  0  0  0  0  0  0  0  0
  -31.1464  -25.3354   19.7442 O   0  0  0  0  0  0  0  0  0  0  0  0
  -31.0828  -29.9479   20.8584 O   0  0  0  0  0  0  0  0  0  0  0  0
  -28.6948  -14.1420   21.8386 O   0  0  0  0  0  0  0  0  0  0  0  0
  -24.2786  -30.1801   20.8491 O   0  0  0  0  0  0  0  0  0  1  0  0
  -29.3964  -11.2387   17.2037 F   0  0  0  0  0  0  0  0  0  0  0  0
  -30.7518  -14.7369   20.0900 F   0  0  0  0  0  0  0  0  0  0  0  0
  1  2  1  0  0  0  0
  1  5  2  0  0  0  0
  2  6  2  0  0  0  0
  3  8  2  0  0  0  0
  3 17  1  0  0  0  0
  4  9  1  0  0  0  0
  4 17  2  0  0  0  0
  5 20  1  0  0  0  0
  6 22  1  0  0  0  0
  7 10  2  0  0  0  0
  7 21  1  0  0  0  0
  8 27  1  0  0  0  0
  9 27  2  0  0  0  0
 10 28  1  0  0  0  0
 11 12  2  0  0  0  0
 11 29  1  0  0  0  0
 12 30  1  0  0  0  0
 13 18  2  0  0  0  0
 13 26  1  0  0  0  0
 14 23  1  0  0  0  0
 14 28  2  0  0  0  0
 15 24  2  0  0  0  0
 15 25  1  0  0  0  0
 16 30  2  0  0  0  0
 16 31  1  0  0  0  0
 17 32  1  0  0  0  0
 18 24  1  0  0  0  0
 18 34  1  0  0  0  0
 19 32  1  0  0  0  0
 19 33  2  0  0  0  0
 19 37  1  0  0  0  0
 20 22  2  0  0  0  0
 20 42  1  0  0  0  0
 21 23  2  0  0  0  0
 21 43  1  0  0  0  0
 22 51  1  0  0  0  0
 23 44  1  0  0  0  0
 24 61  1  0  0  0  0
 25 26  2  0  0  0  0
 25 54  1  0  0  0  0
 26 68  1  0  0  0  0
 27 83  1  0  0  0  0
 28 84  1  0  0  0  0
 29 31  2  0  0  0  0
 29 83  1  0  0  0  0
 30 85  1  0  0  0  0
 31 86  1  0  0  0  0
 32 67  2  0  0  0  0
 33 69  1  0  0  0  0
 33 72  1  0  0  0  0
 34 35  2  0  0  0  0
 35 38  1  0  0  0  0
 36 63  1  0  0  0  0
 36 68  2  0  0  0  0
 37 73  1  0  0  0  0
 37 78  2  0  0  0  0
 38 70  1  0  0  0  0
 38 79  2  0  0  0  0
 39 52  1  0  0  0  0
 39 74  1  0  0  0  0
 39 80  2  0  0  0  0
 40 64  1  0  0  0  0
 40 71  1  0  0  0  0
 40 81  2  0  0  0  0
 41 65  1  0  0  0  0
 41 75  1  0  0  0  0
 41 82  2  0  0  0  0
 42 45  1  0  0  0  0
 43 52  1  0  0  0  0
 44 71  1  0  0  0  0
 45 47  1  0  0  0  0
 46 48  1  0  0  0  0
 46 49  1  0  0  0  0
 47 51  1  0  0  0  0
 48 53  1  0  0  0  0
 49 70  1  0  0  0  0
 50 53  1  0  0  0  0
 50 70  1  0  0  0  0
 51 74  1  0  0  0  0
 52 71  1  0  0  0  0
 53 69  1  0  0  0  0
 55 63  1  0  0  0  0
 56 65  1  0  0  0  0
 57 66  1  0  0  0  0
 58 66  1  0  0  0  0
 59 66  1  0  0  0  0
 60 77  1  0  0  0  0
 61 76  1  0  0  0  0
 62 63  1  0  0  0  0
 62 84  1  0  0  0  0
 64 66  1  0  0  0  0
 64 75  1  0  0  0  0
 65 77  1  0  0  0  0
 67 69  1  0  0  0  0
M  CHG  2  76   1  77   1
M  ISO  4  35 100  38 100  62 101  84 101
M  END
> <Batch ID>
0116

> <Smiles>
CNC(C)C(=O)NC(C(=O)N1Cc2cc([101O:1][101CH2:1]C(C)=CNc3cc(C=[100CH:0][100C:0](=O)N4CCCC(n5nc(-c6ccc(Oc7ccc(F)cc7F)cc6)c(C(N)=O)c5N)C4)c(CN)cc3C)ccc2CC1C(=O)NC1CCCc2ccccc21)C(C)(C)C

> <Shape>
0.268

> <Color>
0.067

> <Negative vol penalty>
0.000

$$$$

  -OEChem-04052301433D

 85 93  0     1  0  0  0  0  0999 V2000
  -22.0005  -12.0976   20.3219 C   0  0  0  0  0  0  0  0  0  0  0  0
  -21.8523  -13.4585   20.5694 C   0  0  0  0  0  0  0  0  0  0  0  0
  -24.1160  -25.4201   18.3058 C   0  0  0  0  0  0  0  0  0  0  0  0
  -25.0131  -27.2669   17.0323 C   0  0  0  0  0  0  0  0  0  0  0  0
  -23.2663  -11.5151   20.3706 C   0  0  0  0  0  0  0  0  0  0  0  0
  -22.9698  -14.2376   20.8670 C   0  0  0  0  0  0  0  0  0  0  0  0
  -22.9989  -18.6334   18.3528 C   0  0  0  0  0  0  0  0  0  0  0  0
  -23.6717  -24.8226   17.1264 C   0  0  0  0  0  0  0  0  0  0  0  0
  -24.5688  -26.6693   15.8528 C   0  0  0  0  0  0  0  0  0  0  0  0
  -22.1724  -19.6478   18.8343 C   0  0  0  0  0  0  0  0  0  0  0  0
  -21.0896  -25.1770   14.9743 C   0  0  0  0  0  0  0  0  0  0  0  0
  -19.7967  -24.6538   14.9609 C   0  0  0  0  0  0  0  0  0  0  0  0
  -24.0710  -20.6754   19.9107 C   0  0  0  0  0  0  0  0  0  0  0  0
  -19.6796  -29.5182   22.8264 C   0  0  0  0  0  0  0  0  0  0  0  0
  -18.4606  -28.0523   21.3425 C   0  0  0  0  0  0  0  0  0  0  0  0
  -20.6883  -22.4632   14.4675 C   0  0  0  0  0  0  0  0  0  0  0  0
  -24.7866  -26.6423   18.2588 C   0  0  0  0  0  0  0  0  0  0  0  0
  -26.4947  -27.0843   20.1013 C   0  0  0  0  0  0  0  0  0  0  0  0
  -24.4011  -12.2893   20.6595 C   0  0  0  0  0  0  0  0  0  0  0  0
  -24.3679  -18.6265   18.6563 C   0  0  0  0  0  0  0  0  0  0  0  0
  -24.2519  -13.6647   20.9211 C   0  0  0  0  0  0  0  0  0  0  0  0
  -24.9131  -19.6612   19.4298 C   0  0  0  0  0  0  0  0  0  0  0  0
  -18.7551  -29.3375   21.7978 C   0  0  0  0  0  0  0  0  0  0  0  0
  -20.3099  -28.4137   23.3997 C   0  0  0  0  0  0  0  0  0  0  0  0
  -23.8981  -25.4471   15.8999 C   0  0  0  0  0  0  0  0  0  0  0  0
  -22.7079  -20.6674   19.6158 C   0  0  0  0  0  0  0  0  0  0  0  0
  -22.1819  -24.3434   14.7343 C   0  0  0  0  0  0  0  0  0  0  0  0
  -19.0908  -26.9478   21.9158 C   0  0  0  0  0  0  0  0  0  0  0  0
  -19.5960  -23.2969   14.7075 C   0  0  0  0  0  0  0  0  0  0  0  0
  -21.9812  -22.9865   14.4809 C   0  0  0  0  0  0  0  0  0  0  0  0
  -20.0154  -27.1285   22.9444 C   0  0  0  0  0  0  0  0  0  0  0  0
  -25.2453  -27.2603   19.4769 C   0  0  0  0  0  0  0  0  0  0  0  0
  -26.4365  -27.8831   21.2171 C   0  0  0  0  0  0  0  0  0  0  0  0
  -20.4934  -23.4639   19.4625 C   0  0  0  0  0  0  0  0  0  0  0  0
  -19.3416  -23.9549   19.9428 C   0  0  0  0  0  0  0  0  0  0  0  0
  -27.6083  -26.2714   19.7079 C   0  0  0  0  0  0  0  0  0  0  0  0
  -26.3100  -16.6512   20.2153 C   0  0  0  0  0  0  0  0  0  0  0  0
  -28.6003  -18.6849   19.1473 C   0  0  0  0  0  0  0  0  0  0  0  0
  -29.4145  -21.8108   18.0462 C   0  0  0  0  0  0  0  0  0  0  0  0
  -22.0484  -29.7758   24.5458 C   0  0  0  0  0  0  0  0  0  0  0  0
  -25.7428  -11.6061   20.7476 C   0  0  0  0  0  0  0  0  0  0  0  0
  -25.2508  -17.5396   18.1070 C   0  0  0  0  0  0  0  0  0  0  0  0
  -26.3802  -19.7107   19.7671 C   0  0  0  0  0  0  0  0  0  0  0  0
  -26.9230  -12.5732   20.7013 C   0  0  0  0  0  0  0  0  0  0  0  0
  -24.3900  -31.8674   22.8769 C   0  0  0  0  0  0  0  0  0  0  0  0
  -26.6850  -13.7512   21.6407 C   0  0  0  0  0  0  0  0  0  0  0  0
  -24.9928  -30.8978   21.8610 C   0  0  0  0  0  0  0  0  0  0  0  0
  -22.8850  -31.6567   23.0462 C   0  0  0  0  0  0  0  0  0  0  0  0
  -23.1090  -29.2915   22.3531 C   0  0  0  0  0  0  0  0  0  0  0  0
  -25.4431  -14.5478   21.2229 C   0  0  1  0  0  0  0  0  0  0  0  0
  -26.5368  -17.3533   18.9064 C   0  0  1  0  0  0  0  0  0  0  0  0
  -24.6310  -29.4421   22.2049 C   0  0  1  0  0  0  0  0  0  0  0  0
  -18.0810  -30.5182   21.1853 C   0  0  0  0  0  0  0  0  0  0  0  0
  -31.3726  -23.1833   17.2849 C   0  0  0  0  0  0  0  0  0  0  0  0
  -29.5320  -18.9560   22.0402 C   0  0  0  0  0  0  0  0  0  0  0  0
  -30.8108  -20.9993   21.3637 C   0  0  0  0  0  0  0  0  0  0  0  0
  -31.3778  -18.7865   20.3613 C   0  0  0  0  0  0  0  0  0  0  0  0
  -21.2444  -27.6734   25.5990 C   0  0  0  0  0  0  0  0  0  0  0  0
  -28.2143  -22.2544   15.3776 C   0  0  0  0  0  0  0  0  0  0  0  0
  -20.7677  -22.0050   19.2961 C   0  0  0  0  0  0  0  0  0  1  0  0
  -19.0626  -25.4142   20.0984 C   0  0  0  0  0  0  0  0  0  0  0  0
  -29.2394  -19.9471   19.6742 C   0  0  1  0  0  0  0  0  0  0  0  0
  -30.2291  -22.2783   16.8536 C   0  0  2  0  0  0  0  0  0  0  0  0
  -30.2119  -19.6705   20.8553 C   0  0  0  0  0  0  0  0  0  0  0  0
  -24.4514  -28.1046   20.1409 N   0  0  0  0  0  0  0  0  0  0  0  0
  -25.2037  -28.4661   21.1943 N   0  0  0  0  0  0  0  0  0  0  0  0
  -27.2012  -18.6220   19.2119 N   0  0  0  0  0  0  0  0  0  0  0  0
  -22.5853  -30.2466   23.3327 N   0  0  0  0  0  0  0  0  0  0  0  0
  -27.3200  -28.1366   22.2058 N   0  0  0  0  0  0  0  0  0  0  0  0
  -27.5005  -25.5134   18.5340 N   0  0  0  0  0  0  0  0  0  0  0  0
  -25.7445  -15.3966   20.0901 N   0  0  0  0  0  0  0  0  0  0  0  0
  -29.8624  -20.5986   18.5271 N   0  0  0  0  0  0  0  0  0  0  0  0
  -21.2663  -28.6035   24.4648 N   0  0  0  0  0  0  0  0  0  0  0  0
  -29.3665  -23.0326   15.9008 N   0  3  0  0  0  0  0  0  0  0  0  0
  -28.6615  -26.2063   20.3862 O   0  0  0  0  0  0  0  0  0  0  0  0
  -26.6260  -17.2060   21.2612 O   0  0  0  0  0  0  0  0  0  0  0  0
  -29.3158  -17.7908   18.6887 O   0  0  0  0  0  0  0  0  0  0  0  0
  -28.4772  -22.4582   18.5076 O   0  0  0  0  0  0  0  0  0  0  0  0
  -22.2719  -30.3434   25.6218 O   0  0  0  0  0  0  0  0  0  0  0  0
  -23.4649  -24.8642   14.7487 O   0  0  0  0  0  0  0  0  0  0  0  0
  -21.9034  -21.6583   20.0875 O   0  0  0  0  0  0  0  0  0  1  0  0
  -18.7996  -25.6853   21.4679 O   0  0  0  0  0  0  0  0  0  0  0  0
  -18.3545  -22.7943   14.6962 F   0  0  0  0  0  0  0  0  0  0  0  0
  -23.0268  -22.1804   14.2508 F   0  0  0  0  0  0  0  0  0  0  0  0
  -20.6182  -26.0633   23.4932 F   0  0  0  0  0  0  0  0  0  0  0  0
  1  2  1  0  0  0  0
  1  5  2  0  0  0  0
  2  6  2  0  0  0  0
  3  8  2  0  0  0  0
  3 17  1  0  0  0  0
  4  9  1  0  0  0  0
  4 17  2  0  0  0  0
  5 19  1  0  0  0  0
  6 21  1  0  0  0  0
  7 10  2  0  0  0  0
  7 20  1  0  0  0  0
  8 25  1  0  0  0  0
  9 25  2  0  0  0  0
 10 26  1  0  0  0  0
 11 12  2  0  0  0  0
 11 27  1  0  0  0  0
 12 29  1  0  0  0  0
 13 22  1  0  0  0  0
 13 26  2  0  0  0  0
 14 23  1  0  0  0  0
 14 24  2  0  0  0  0
 15 23  2  0  0  0  0
 15 28  1  0  0  0  0
 16 29  2  0  0  0  0
 16 30  1  0  0  0  0
 17 32  1  0  0  0  0
 18 32  1  0  0  0  0
 18 33  2  0  0  0  0
 18 36  1  0  0  0  0
 19 21  2  0  0  0  0
 19 41  1  0  0  0  0
 20 22  2  0  0  0  0
 20 42  1  0  0  0  0
 21 50  1  0  0  0  0
 22 43  1  0  0  0  0
 23 53  1  0  0  0  0
 24 31  1  0  0  0  0
 24 73  1  0  0  0  0
 25 80  1  0  0  0  0
 26 81  1  0  0  0  0
 27 30  2  0  0  0  0
 27 80  1  0  0  0  0
 28 31  2  0  0  0  0
 28 82  1  0  0  0  0
 29 83  1  0  0  0  0
 30 84  1  0  0  0  0
 31 85  1  0  0  0  0
 32 65  2  0  0  0  0
 33 66  1  0  0  0  0
 33 69  1  0  0  0  0
 34 35  2  0  0  0  0
 34 60  1  0  0  0  0
 35 61  1  0  0  0  0
 36 70  1  0  0  0  0
 36 75  2  0  0  0  0
 37 51  1  0  0  0  0
 37 71  1  0  0  0  0
 37 76  2  0  0  0  0
 38 62  1  0  0  0  0
 38 67  1  0  0  0  0
 38 77  2  0  0  0  0
 39 63  1  0  0  0  0
 39 72  1  0  0  0  0
 39 78  2  0  0  0  0
 40 68  1  0  0  0  0
 40 73  1  0  0  0  0
 40 79  2  0  0  0  0
 41 44  1  0  0  0  0
 42 51  1  0  0  0  0
 43 67  1  0  0  0  0
 44 46  1  0  0  0  0
 45 47  1  0  0  0  0
 45 48  1  0  0  0  0
 46 50  1  0  0  0  0
 47 52  1  0  0  0  0
 48 68  1  0  0  0  0
 49 52  1  0  0  0  0
 49 68  1  0  0  0  0
 50 71  1  0  0  0  0
 51 67  1  0  0  0  0
 52 66  1  0  0  0  0
 54 63  1  0  0  0  0
 55 64  1  0  0  0  0
 56 64  1  0  0  0  0
 57 64  1  0  0  0  0
 58 73  1  0  0  0  0
 59 74  1  0  0  0  0
 60 81  1  0  0  0  0
 61 82  1  0  0  0  0
 62 64  1  0  0  0  0
 62 72  1  0  0  0  0
 63 74  1  0  0  0  0
 65 66  1  0  0  0  0
M  CHG  1  74   1
M  ISO  4  40 100  60 101  73 100  81 101
M  END
> <Batch ID>
0116

> <Smiles>
CNC(C)C(=O)NC(C(=O)N1Cc2cc([101O:1][101CH2:1]C=CCOc3cc(C)cc([100N:0](C)[100C:0](=O)N4CCCC(n5nc(-c6ccc(Oc7ccc(F)cc7F)cc6)c(C(N)=O)c5N)C4)c3F)ccc2CC1C(=O)NC1CCCc2ccccc21)C(C)(C)C

> <Shape>
0.226

> <Color>
0.078

> <Negative vol penalty>
0.000

$$$$

  -OEChem-04052301433D

 84 92  0     1  0  0  0  0  0999 V2000
  -30.7512  -24.9363   18.1892 C   0  0  0  0  0  0  0  0  0  0  0  0
  -29.4896  -24.9116   18.7749 C   0  0  0  0  0  0  0  0  0  0  0  0
  -24.0094   -9.6030   21.8724 C   0  0  0  0  0  0  0  0  0  0  0  0
  -22.0788  -10.3599   20.6327 C   0  0  0  0  0  0  0  0  0  0  0  0
  -31.7422  -25.7698   18.7060 C   0  0  0  0  0  0  0  0  0  0  0  0
  -29.2185  -25.7198   19.8784 C   0  0  0  0  0  0  0  0  0  0  0  0
  -24.7548  -28.0825   19.5064 C   0  0  0  0  0  0  0  0  0  0  0  0
  -23.4812   -8.3125   21.9070 C   0  0  0  0  0  0  0  0  0  0  0  0
  -21.5507   -9.0694   20.6672 C   0  0  0  0  0  0  0  0  0  0  0  0
  -23.6125  -27.3329   19.7839 C   0  0  0  0  0  0  0  0  0  0  0  0
  -21.1347   -6.6281   23.6623 C   0  0  0  0  0  0  0  0  0  0  0  0
  -21.1788   -5.9429   24.8764 C   0  0  0  0  0  0  0  0  0  0  0  0
  -22.8804  -21.0277   18.4090 C   0  0  0  0  0  0  0  0  0  0  0  0
  -22.2956  -20.9742   21.1363 C   0  0  0  0  0  0  0  0  0  0  0  0
  -23.5220  -28.2993   21.9923 C   0  0  0  0  0  0  0  0  0  0  0  0
  -22.5144   -4.2107   23.8503 C   0  0  0  0  0  0  0  0  0  0  0  0
  -23.3081  -10.6268   21.2353 C   0  0  0  0  0  0  0  0  0  0  0  0
  -22.2032  -22.0954   18.9981 C   0  0  0  0  0  0  0  0  0  0  0  0
  -21.9109  -22.0687   20.3618 C   0  0  0  0  0  0  0  0  0  0  0  0
  -24.6987  -12.5070   20.2162 C   0  0  0  0  0  0  0  0  0  0  0  0
  -31.4802  -26.5957   19.8105 C   0  0  0  0  0  0  0  0  0  0  0  0
  -25.2965  -28.9394   20.4753 C   0  0  0  0  0  0  0  0  0  0  0  0
  -30.2073  -26.5641   20.4113 C   0  0  0  0  0  0  0  0  0  0  0  0
  -24.6698  -29.0606   21.7238 C   0  0  0  0  0  0  0  0  0  0  0  0
  -23.2651  -19.9332   19.1835 C   0  0  0  0  0  0  0  0  0  0  0  0
  -22.9727  -19.9065   20.5471 C   0  0  0  0  0  0  0  0  0  0  0  0
  -22.2519   -8.0457   21.3043 C   0  0  0  0  0  0  0  0  0  0  0  0
  -22.9976  -27.4390   21.0279 C   0  0  0  0  0  0  0  0  0  0  0  0
  -21.7804   -6.1046   22.5421 C   0  0  0  0  0  0  0  0  0  0  0  0
  -21.8687   -4.7342   24.9705 C   0  0  0  0  0  0  0  0  0  0  0  0
  -22.4702   -4.8959   22.6362 C   0  0  0  0  0  0  0  0  0  0  0  0
  -23.8529  -11.9602   21.1998 C   0  0  0  0  0  0  0  0  0  0  0  0
  -24.9304  -13.7931   20.6390 C   0  0  0  0  0  0  0  0  0  0  0  0
  -22.6832  -23.9352   17.4489 C   0  0  0  0  0  0  0  0  0  0  0  0
  -21.8190  -23.2181   18.1495 C   0  0  0  0  0  0  0  0  0  0  0  0
  -21.1989  -23.1730   21.0262 C   0  0  0  0  0  0  0  0  0  0  0  0
  -21.6771  -23.8948   22.0519 C   0  0  0  0  0  0  0  0  0  0  0  0
  -25.2276  -11.9062   19.0266 C   0  0  0  0  0  0  0  0  0  0  0  0
  -28.0661  -29.1058   22.0263 C   0  0  0  0  0  0  0  0  0  0  0  0
  -26.8211  -31.8799   23.1561 C   0  0  0  0  0  0  0  0  0  0  0  0
  -24.0447  -33.7408   23.8458 C   0  0  0  0  0  0  0  0  0  0  0  0
  -23.1321  -18.6359   22.7166 C   0  0  0  0  0  0  0  0  0  0  0  0
  -32.5974  -27.4450   20.3631 C   0  0  0  0  0  0  0  0  0  0  0  0
  -26.5138  -29.7613   20.1511 C   0  0  0  0  0  0  0  0  0  0  0  0
  -25.2000  -29.9815   22.7912 C   0  0  0  0  0  0  0  0  0  0  0  0
  -32.1166  -28.5476   21.3030 C   0  0  0  0  0  0  0  0  0  0  0  0
  -23.8828  -16.0506   25.0467 C   0  0  0  0  0  0  0  0  0  0  0  0
  -31.1100  -27.9929   22.3059 C   0  0  0  0  0  0  0  0  0  0  0  0
  -24.0116  -14.8009   24.1727 C   0  0  0  0  0  0  0  0  0  0  0  0
  -22.7853  -16.9854   24.5415 C   0  0  0  0  0  0  0  0  0  0  0  0
  -23.0195  -16.1088   22.2512 C   0  0  0  0  0  0  0  0  0  0  0  0
  -29.8673  -27.4445   21.5943 C   0  0  1  0  0  0  0  0  0  0  0  0
  -27.2761  -30.2154   21.3921 C   0  0  1  0  0  0  0  0  0  0  0  0
  -24.1562  -15.1678   22.6827 C   0  0  2  0  0  0  0  0  0  0  0  0
  -23.9894  -18.8035   18.5263 C   0  0  0  0  0  0  0  0  0  0  0  0
  -23.3432  -35.9533   24.7998 C   0  0  0  0  0  0  0  0  0  0  0  0
  -27.3963  -30.8468   25.9689 C   0  0  0  0  0  0  0  0  0  0  0  0
  -25.8525  -32.6069   26.8559 C   0  0  0  0  0  0  0  0  0  0  0  0
  -27.9162  -33.2680   25.6203 C   0  0  0  0  0  0  0  0  0  0  0  0
  -22.7559  -34.5567   21.3097 C   0  0  0  0  0  0  0  0  0  0  0  0
  -20.9095  -25.0083   22.7104 C   0  0  0  0  0  0  0  0  0  0  0  0
  -21.6743  -26.3257   22.6605 C   0  0  0  0  0  0  0  0  0  1  0  0
  -25.9760  -32.2662   24.3459 C   0  0  1  0  0  0  0  0  0  0  0  0
  -23.6981  -35.1858   23.5358 C   0  0  2  0  0  0  0  0  0  0  0  0
  -26.7761  -32.2281   25.6785 C   0  0  0  0  0  0  0  0  0  0  0  0
  -23.5668  -12.8278   22.1741 N   0  0  0  0  0  0  0  0  0  0  0  0
  -24.2366  -13.9329   21.8049 N   0  0  0  0  0  0  0  0  0  0  0  0
  -26.3961  -30.7594   22.4284 N   0  0  0  0  0  0  0  0  0  0  0  0
  -22.9899  -17.2927   23.1243 N   0  0  0  0  0  0  0  0  0  0  0  0
  -25.6579  -14.8067   20.1235 N   0  0  0  0  0  0  0  0  0  0  0  0
  -24.8893  -10.5760   18.7428 N   0  0  0  0  0  0  0  0  0  0  0  0
  -23.3545  -18.8033   21.3501 N   0  0  0  0  0  0  0  0  0  0  0  0
  -28.9990  -28.5280   21.1865 N   0  0  0  0  0  0  0  0  0  0  0  0
  -25.4002  -33.5693   24.0318 N   0  0  0  0  0  0  0  0  0  0  0  0
  -22.5365  -35.2514   22.6044 N   0  3  0  0  0  0  0  0  0  0  0  0
  -25.9911  -12.5251   18.2473 O   0  0  0  0  0  0  0  0  0  0  0  0
  -27.8466  -28.7976   23.1919 O   0  0  0  0  0  0  0  0  0  0  0  0
  -27.8175  -32.5520   22.8784 O   0  0  0  0  0  0  0  0  0  0  0  0
  -23.1974  -32.8536   23.9197 O   0  0  0  0  0  0  0  0  0  0  0  0
  -23.0891  -19.5674   23.5244 O   0  0  0  0  0  0  0  0  0  0  0  0
  -21.7363   -6.7864   21.3377 O   0  0  0  0  0  0  0  0  0  0  0  0
  -21.8829  -26.7079   21.3016 O   0  0  0  0  0  0  0  0  0  1  0  0
  -21.9122   -4.0771   26.1369 F   0  0  0  0  0  0  0  0  0  0  0  0
  -23.0934   -4.3885   21.5638 F   0  0  0  0  0  0  0  0  0  0  0  0
  1  2  1  0  0  0  0
  1  5  2  0  0  0  0
  2  6  2  0  0  0  0
  3  8  2  0  0  0  0
  3 17  1  0  0  0  0
  4  9  1  0  0  0  0
  4 17  2  0  0  0  0
  5 21  1  0  0  0  0
  6 23  1  0  0  0  0
  7 10  2  0  0  0  0
  7 22  1  0  0  0  0
  8 27  1  0  0  0  0
  9 27  2  0  0  0  0
 10 28  1  0  0  0  0
 11 12  2  0  0  0  0
 11 29  1  0  0  0  0
 12 30  1  0  0  0  0
 13 18  1  0  0  0  0
 13 25  2  0  0  0  0
 14 19  1  0  0  0  0
 14 26  2  0  0  0  0
 15 24  1  0  0  0  0
 15 28  2  0  0  0  0
 16 30  2  0  0  0  0
 16 31  1  0  0  0  0
 17 32  1  0  0  0  0
 18 19  2  0  0  0  0
 18 35  1  0  0  0  0
 19 36  1  0  0  0  0
 20 32  1  0  0  0  0
 20 33  2  0  0  0  0
 20 38  1  0  0  0  0
 21 23  2  0  0  0  0
 21 43  1  0  0  0  0
 22 24  2  0  0  0  0
 22 44  1  0  0  0  0
 23 52  1  0  0  0  0
 24 45  1  0  0  0  0
 25 26  1  0  0  0  0
 25 55  1  0  0  0  0
 26 72  1  0  0  0  0
 27 81  1  0  0  0  0
 28 82  1  0  0  0  0
 29 31  2  0  0  0  0
 29 81  1  0  0  0  0
 30 83  1  0  0  0  0
 31 84  1  0  0  0  0
 32 66  2  0  0  0  0
 33 67  1  0  0  0  0
 33 70  1  0  0  0  0
 34 35  2  0  0  0  0
 36 37  2  0  0  0  0
 37 61  1  0  0  0  0
 38 71  1  0  0  0  0
 38 76  2  0  0  0  0
 39 53  1  0  0  0  0
 39 73  1  0  0  0  0
 39 77  2  0  0  0  0
 40 63  1  0  0  0  0
 40 68  1  0  0  0  0
 40 78  2  0  0  0  0
 41 64  1  0  0  0  0
 41 74  1  0  0  0  0
 41 79  2  0  0  0  0
 42 69  1  0  0  0  0
 42 72  1  0  0  0  0
 42 80  2  0  0  0  0
 43 46  1  0  0  0  0
 44 53  1  0  0  0  0
 45 68  1  0  0  0  0
 46 48  1  0  0  0  0
 47 49  1  0  0  0  0
 47 50  1  0  0  0  0
 48 52  1  0  0  0  0
 49 54  1  0  0  0  0
 50 69  1  0  0  0  0
 51 54  1  0  0  0  0
 51 69  1  0  0  0  0
 52 73  1  0  0  0  0
 53 68  1  0  0  0  0
 54 67  1  0  0  0  0
 56 64  1  0  0  0  0
 57 65  1  0  0  0  0
 58 65  1  0  0  0  0
 59 65  1  0  0  0  0
 60 75  1  0  0  0  0
 61 62  1  0  0  0  0
 62 82  1  0  0  0  0
 63 65  1  0  0  0  0
 63 74  1  0  0  0  0
 64 75  1  0  0  0  0
 66 67  1  0  0  0  0
M  CHG  1  75   1
M  ISO  4  42 100  62 101  72 100  82 101
M  END
> <Batch ID>
0116

> <Smiles>
C=Cc1cc(C)c([100NH:0][100C:0](=O)N2CCCC(n3nc(-c4ccc(Oc5ccc(F)cc5F)cc4)c(C(N)=O)c3N)C2)cc1C=CC[101CH2:1][101O:1]c1ccc2c(c1)CN(C(=O)C(NC(=O)C(C)NC)C(C)(C)C)C(C(=O)NC1CCCc3ccccc31)C2

> <Shape>
0.282

> <Color>
0.131

> <Negative vol penalty>
0.000

$$$$

  -OEChem-04052301433D

 86 94  0     1  0  0  0  0  0999 V2000
  -27.2059  -25.3837   25.1614 C   0  0  0  0  0  0  0  0  0  0  0  0
  -26.0882  -24.9987   24.4278 C   0  0  0  0  0  0  0  0  0  0  0  0
  -29.6900  -27.8484   18.6534 C   0  0  0  0  0  0  0  0  0  0  0  0
  -29.2144  -26.3610   20.4970 C   0  0  0  0  0  0  0  0  0  0  0  0
  -28.4224  -24.7298   24.9710 C   0  0  0  0  0  0  0  0  0  0  0  0
  -26.1868  -23.9602   23.5026 C   0  0  0  0  0  0  0  0  0  0  0  0
  -22.3135  -20.7123   23.8077 C   0  0  0  0  0  0  0  0  0  0  0  0
  -31.0268  -27.4510   18.6777 C   0  0  0  0  0  0  0  0  0  0  0  0
  -30.5512  -25.9636   20.5212 C   0  0  0  0  0  0  0  0  0  0  0  0
  -21.1071  -21.1038   23.2288 C   0  0  0  0  0  0  0  0  0  0  0  0
  -33.7634  -24.2894   20.8334 C   0  0  0  0  0  0  0  0  0  0  0  0
  -34.0333  -22.9258   20.9480 C   0  0  0  0  0  0  0  0  0  0  0  0
  -21.6049  -19.7537   21.2927 C   0  0  0  0  0  0  0  0  0  0  0  0
  -18.7467  -27.7322   21.1641 C   0  0  0  0  0  0  0  0  0  0  0  0
  -19.3212  -25.3847   22.5577 C   0  0  0  0  0  0  0  0  0  0  0  0
  -32.8332  -22.5155   18.8916 C   0  0  0  0  0  0  0  0  0  0  0  0
  -28.7838  -27.3034   19.5632 C   0  0  0  0  0  0  0  0  0  0  0  0
  -26.3558  -27.1320   18.7996 C   0  0  0  0  0  0  0  0  0  0  0  0
  -28.5336  -23.6763   24.0499 C   0  0  0  0  0  0  0  0  0  0  0  0
  -23.1811  -19.8456   23.1276 C   0  0  0  0  0  0  0  0  0  0  0  0
  -27.4063  -23.2924   23.2987 C   0  0  0  0  0  0  0  0  0  0  0  0
  -22.8205  -19.3507   21.8662 C   0  0  0  0  0  0  0  0  0  0  0  0
  -19.5018  -27.7837   22.3357 C   0  0  0  0  0  0  0  0  0  0  0  0
  -18.2787  -26.5069   20.6893 C   0  0  0  0  0  0  0  0  0  0  0  0
  -19.7891  -26.6100   23.0325 C   0  0  0  0  0  0  0  0  0  0  0  0
  -18.5660  -25.3332   21.3861 C   0  0  0  0  0  0  0  0  0  0  0  0
  -31.4574  -26.5086   19.6115 C   0  0  0  0  0  0  0  0  0  0  0  0
  -20.7540  -20.6268   21.9699 C   0  0  0  0  0  0  0  0  0  0  0  0
  -33.0283  -24.7661   19.7480 C   0  0  0  0  0  0  0  0  0  0  0  0
  -33.5683  -22.0388   19.9771 C   0  0  0  0  0  0  0  0  0  0  0  0
  -32.5632  -23.8791   18.7771 C   0  0  0  0  0  0  0  0  0  0  0  0
  -27.4028  -27.7140   19.5390 C   0  0  0  0  0  0  0  0  0  0  0  0
  -25.2507  -27.8818   19.1206 C   0  0  0  0  0  0  0  0  0  0  0  0
  -18.8933  -23.4625   20.1141 C   0  0  0  0  0  0  0  0  0  0  0  0
  -26.3799  -26.0135   17.9029 C   0  0  0  0  0  0  0  0  0  0  0  0
  -26.1523  -20.0610   22.0187 C   0  0  0  0  0  0  0  0  0  0  0  0
  -25.7245  -16.9109   21.3737 C   0  0  0  0  0  0  0  0  0  0  0  0
  -23.5568  -14.3479   20.7583 C   0  0  0  0  0  0  0  0  0  0  0  0
  -22.0591  -30.4788   22.8909 C   0  0  0  0  0  0  0  0  0  0  0  0
  -29.8811  -23.0308   23.8445 C   0  0  0  0  0  0  0  0  0  0  0  0
  -24.4665  -19.4117   23.7772 C   0  0  0  0  0  0  0  0  0  0  0  0
  -23.7075  -18.4022   21.1033 C   0  0  0  0  0  0  0  0  0  0  0  0
  -29.8102  -21.6916   23.1153 C   0  0  0  0  0  0  0  0  0  0  0  0
  -24.8579  -32.2680   21.6094 C   0  0  0  0  0  0  0  0  0  0  0  0
  -28.9013  -21.7958   21.8947 C   0  0  0  0  0  0  0  0  0  0  0  0
  -25.6856  -31.1940   20.9013 C   0  0  0  0  0  0  0  0  0  0  0  0
  -24.1982  -31.7281   22.8764 C   0  0  0  0  0  0  0  0  0  0  0  0
  -24.2195  -29.4344   21.9752 C   0  0  0  0  0  0  0  0  0  0  0  0
  -27.4674  -22.1539   22.3036 C   0  0  1  0  0  0  0  0  0  0  0  0
  -25.5106  -18.9316   22.7739 C   0  0  1  0  0  0  0  0  0  0  0  0
  -24.8590  -29.9163   20.6617 C   0  0  2  0  0  0  0  0  0  0  0  0
  -20.5957  -26.6405   24.2890 C   0  0  0  0  0  0  0  0  0  0  0  0
  -16.0345  -26.9360   19.6569 C   0  0  0  0  0  0  0  0  0  0  0  0
  -18.4275  -22.2273   18.0345 C   0  0  0  0  0  0  0  0  0  0  0  0
  -23.5054  -11.8952   20.2301 C   0  0  0  0  0  0  0  0  0  0  0  0
  -26.5550  -17.5147   18.5005 C   0  0  0  0  0  0  0  0  0  0  0  0
  -25.5875  -15.3050   17.8301 C   0  0  0  0  0  0  0  0  0  0  0  0
  -27.4956  -15.3940   19.4345 C   0  0  0  0  0  0  0  0  0  0  0  0
  -22.0425  -13.7301   23.2249 C   0  0  0  0  0  0  0  0  0  0  0  0
  -17.4719  -26.4769   19.4325 C   0  0  0  0  0  0  0  0  0  0  0  0
  -19.9920  -29.1069   22.8249 C   0  0  0  0  0  0  0  0  0  0  0  0
  -19.5344  -21.0723   19.9774 C   0  0  0  0  0  0  0  0  0  1  0  0
  -18.5027  -22.1139   19.5521 C   0  0  1  0  0  0  0  0  0  0  0  0
  -25.1983  -16.1219   20.1992 C   0  0  1  0  0  0  0  0  0  0  0  0
  -23.4679  -12.9445   21.3302 C   0  0  2  0  0  0  0  0  0  0  0  0
  -26.1930  -16.1033   19.0043 C   0  0  0  0  0  0  0  0  0  0  0  0
  -26.9992  -28.7535   20.2742 N   0  0  0  0  0  0  0  0  0  0  0  0
  -18.1029  -24.0905   20.9226 N   0  0  0  0  0  0  0  0  0  0  0  0
  -25.6862  -28.8307   19.9983 N   0  0  0  0  0  0  0  0  0  0  0  0
  -24.9567  -18.0122   21.7779 N   0  0  0  0  0  0  0  0  0  0  0  0
  -23.4284  -30.5174   22.5802 N   0  0  0  0  0  0  0  0  0  0  0  0
  -23.9587  -27.8156   18.7348 N   0  0  0  0  0  0  0  0  0  0  0  0
  -27.5989  -25.3568   17.6865 N   0  0  0  0  0  0  0  0  0  0  0  0
  -26.7844  -20.9890   22.8241 N   0  0  0  0  0  0  0  0  0  0  0  0
  -24.8587  -14.8000   20.7146 N   0  0  0  0  0  0  0  0  0  0  0  0
  -21.4030  -29.2963   22.5717 N   0  0  0  0  0  0  0  0  0  0  0  0
  -22.2008  -12.7768   22.0966 N   0  3  0  0  0  0  0  0  0  0  0  0
  -25.3541  -25.6187   17.2983 O   0  0  0  0  0  0  0  0  0  0  0  0
  -26.0804  -20.0878   20.7956 O   0  0  0  0  0  0  0  0  0  0  0  0
  -26.7743  -16.5586   21.9173 O   0  0  0  0  0  0  0  0  0  0  0  0
  -22.5704  -14.9784   20.3840 O   0  0  0  0  0  0  0  0  0  0  0  0
  -21.4642  -31.4297   23.4092 O   0  0  0  0  0  0  0  0  0  0  0  0
  -32.7618  -26.1204   19.6353 O   0  0  0  0  0  0  0  0  0  0  0  0
  -19.5773  -21.0080   21.4023 O   0  0  0  0  0  0  0  0  0  1  0  0
  -33.8289  -20.7295   20.0864 F   0  0  0  0  0  0  0  0  0  0  0  0
  -31.8576  -24.3313   17.7314 F   0  0  0  0  0  0  0  0  0  0  0  0
  1  2  1  0  0  0  0
  1  5  2  0  0  0  0
  2  6  2  0  0  0  0
  3  8  2  0  0  0  0
  3 17  1  0  0  0  0
  4  9  1  0  0  0  0
  4 17  2  0  0  0  0
  5 19  1  0  0  0  0
  6 21  1  0  0  0  0
  7 10  2  0  0  0  0
  7 20  1  0  0  0  0
  8 27  1  0  0  0  0
  9 27  2  0  0  0  0
 10 28  1  0  0  0  0
 11 12  2  0  0  0  0
 11 29  1  0  0  0  0
 12 30  1  0  0  0  0
 13 22  1  0  0  0  0
 13 28  2  0  0  0  0
 14 23  2  0  0  0  0
 14 24  1  0  0  0  0
 15 25  2  0  0  0  0
 15 26  1  0  0  0  0
 16 30  2  0  0  0  0
 16 31  1  0  0  0  0
 17 32  1  0  0  0  0
 18 32  1  0  0  0  0
 18 33  2  0  0  0  0
 18 35  1  0  0  0  0
 19 21  2  0  0  0  0
 19 40  1  0  0  0  0
 20 22  2  0  0  0  0
 20 41  1  0  0  0  0
 21 49  1  0  0  0  0
 22 42  1  0  0  0  0
 23 25  1  0  0  0  0
 23 61  1  0  0  0  0
 24 26  2  0  0  0  0
 24 60  1  0  0  0  0
 25 52  1  0  0  0  0
 26 68  1  0  0  0  0
 27 83  1  0  0  0  0
 28 84  1  0  0  0  0
 29 31  2  0  0  0  0
 29 83  1  0  0  0  0
 30 85  1  0  0  0  0
 31 86  1  0  0  0  0
 32 67  2  0  0  0  0
 33 69  1  0  0  0  0
 33 72  1  0  0  0  0
 34 63  1  0  0  0  0
 34 68  2  0  0  0  0
 35 73  1  0  0  0  0
 35 78  2  0  0  0  0
 36 50  1  0  0  0  0
 36 74  1  0  0  0  0
 36 79  2  0  0  0  0
 37 64  1  0  0  0  0
 37 70  1  0  0  0  0
 37 80  2  0  0  0  0
 38 65  1  0  0  0  0
 38 75  1  0  0  0  0
 38 81  2  0  0  0  0
 39 71  1  0  0  0  0
 39 76  1  0  0  0  0
 39 82  2  0  0  0  0
 40 43  1  0  0  0  0
 41 50  1  0  0  0  0
 42 70  1  0  0  0  0
 43 45  1  0  0  0  0
 44 46  1  0  0  0  0
 44 47  1  0  0  0  0
 45 49  1  0  0  0  0
 46 51  1  0  0  0  0
 47 71  1  0  0  0  0
 48 51  1  0  0  0  0
 48 71  1  0  0  0  0
 49 74  1  0  0  0  0
 50 70  1  0  0  0  0
 51 69  1  0  0  0  0
 53 60  1  0  0  0  0
 54 63  1  0  0  0  0
 55 65  1  0  0  0  0
 56 66  1  0  0  0  0
 57 66  1  0  0  0  0
 58 66  1  0  0  0  0
 59 77  1  0  0  0  0
 61 76  1  0  0  0  0
 62 63  1  0  0  0  0
 62 84  1  0  0  0  0
 64 66  1  0  0  0  0
 64 75  1  0  0  0  0
 65 77  1  0  0  0  0
 67 69  1  0  0  0  0
M  CHG  1  77   1
M  ISO  4  39 100  62 101  76 100  84 101
M  END
> <Batch ID>
0116

> <Smiles>
CCc1cc(C[100NH:0][100C:0](=O)N2CCCC(n3nc(-c4ccc(Oc5ccc(F)cc5F)cc4)c(C(N)=O)c3N)C2)c(C)cc1NC=C(C)[101CH2:1][101O:1]c1ccc2c(c1)CN(C(=O)C(NC(=O)C(C)NC)C(C)(C)C)C(C(=O)NC1CCCc3ccccc31)C2

> <Shape>
0.196

> <Color>
0.084

> <Negative vol penalty>
0.000

$$$$

  -OEChem-04052301433D

 86 95  0     1  0  0  0  0  0999 V2000
  -18.7172  -27.2492   23.4716 C   0  0  0  0  0  0  0  0  0  0  0  0
  -19.6275  -26.2480   23.1485 C   0  0  0  0  0  0  0  0  0  0  0  0
  -23.0472   -9.7990   19.9938 C   0  0  0  0  0  0  0  0  0  0  0  0
  -23.7302   -9.9355   22.3072 C   0  0  0  0  0  0  0  0  0  0  0  0
  -18.7946  -28.4902   22.8409 C   0  0  0  0  0  0  0  0  0  0  0  0
  -20.6152  -26.4870   22.1936 C   0  0  0  0  0  0  0  0  0  0  0  0
  -25.1672  -24.8082   23.6448 C   0  0  0  0  0  0  0  0  0  0  0  0
  -22.3059   -8.6527   20.2802 C   0  0  0  0  0  0  0  0  0  0  0  0
  -22.9889   -8.7893   22.5937 C   0  0  0  0  0  0  0  0  0  0  0  0
  -25.4047  -23.4386   23.5373 C   0  0  0  0  0  0  0  0  0  0  0  0
  -23.3283   -5.4458   22.2238 C   0  0  0  0  0  0  0  0  0  0  0  0
  -23.9288   -4.4666   23.0151 C   0  0  0  0  0  0  0  0  0  0  0  0
  -31.0288  -17.7319   20.4920 C   0  0  0  0  0  0  0  0  0  0  0  0
  -26.6089  -23.8150   21.4812 C   0  0  0  0  0  0  0  0  0  0  0  0
  -29.3194  -18.0023   22.2162 C   0  0  0  0  0  0  0  0  0  0  0  0
  -22.1700   -4.7118   24.6533 C   0  0  0  0  0  0  0  0  0  0  0  0
  -23.7594  -10.4404   21.0072 C   0  0  0  0  0  0  0  0  0  0  0  0
  -31.1404  -19.1070   20.4745 C   0  0  0  0  0  0  0  0  0  0  0  0
  -30.3713  -19.9166   21.2974 C   0  0  0  0  0  0  0  0  0  0  0  0
  -24.0822  -12.9592   20.7642 C   0  0  0  0  0  0  0  0  0  0  0  0
  -19.7898  -28.7477   21.8849 C   0  0  0  0  0  0  0  0  0  0  0  0
  -25.6402  -25.6918   22.6641 C   0  0  0  0  0  0  0  0  0  0  0  0
  -20.7052  -27.7322   21.5486 C   0  0  0  0  0  0  0  0  0  0  0  0
  -26.3783  -25.1957   21.5800 C   0  0  0  0  0  0  0  0  0  0  0  0
  -30.1014  -17.1795   21.3800 C   0  0  0  0  0  0  0  0  0  0  0  0
  -22.2767   -8.1478   21.5802 C   0  0  0  0  0  0  0  0  0  0  0  0
  -26.1232  -22.9415   22.4538 C   0  0  0  0  0  0  0  0  0  0  0  0
  -22.1486   -6.0581   22.6473 C   0  0  0  0  0  0  0  0  0  0  0  0
  -29.4496  -19.3935   22.1810 C   0  0  0  0  0  0  0  0  0  0  0  0
  -23.3497   -4.0996   24.2299 C   0  0  0  0  0  0  0  0  0  0  0  0
  -21.5695   -5.6911   23.8620 C   0  0  0  0  0  0  0  0  0  0  0  0
  -24.5258  -11.6242   20.7118 C   0  0  0  0  0  0  0  0  0  0  0  0
  -25.1790  -13.7002   20.3975 C   0  0  0  0  0  0  0  0  0  0  0  0
  -32.0041  -19.9696   19.6694 C   0  0  0  0  0  0  0  0  0  0  0  0
  -30.7322  -21.3087   21.0302 C   0  0  0  0  0  0  0  0  0  0  0  0
  -22.7938  -13.4827   21.1132 C   0  0  0  0  0  0  0  0  0  0  0  0
  -24.2798  -27.7037   20.6134 C   0  0  0  0  0  0  0  0  0  0  0  0
  -27.3530  -28.5366   19.9937 C   0  0  0  0  0  0  0  0  0  0  0  0
  -30.6535  -27.6693   20.0304 C   0  0  0  0  0  0  0  0  0  0  0  0
  -30.6266  -14.8127   20.6954 C   0  0  0  0  0  0  0  0  0  0  0  0
  -19.8044  -30.0891   21.1955 C   0  0  0  0  0  0  0  0  0  0  0  0
  -25.3985  -27.1693   22.8086 C   0  0  0  0  0  0  0  0  0  0  0  0
  -26.9252  -26.1045   20.5108 C   0  0  0  0  0  0  0  0  0  0  0  0
  -21.1129  -30.3853   20.4672 C   0  0  0  0  0  0  0  0  0  0  0  0
  -29.6136  -12.2650   18.4237 C   0  0  0  0  0  0  0  0  0  0  0  0
  -21.5488  -29.1795   19.6409 C   0  0  0  0  0  0  0  0  0  0  0  0
  -28.1632  -11.9810   18.8208 C   0  0  0  0  0  0  0  0  0  0  0  0
  -30.4861  -12.5670   19.6408 C   0  0  0  0  0  0  0  0  0  0  0  0
  -28.5277  -13.3428   20.9183 C   0  0  0  0  0  0  0  0  0  0  0  0
  -21.8062  -27.9613   20.5360 C   0  0  1  0  0  0  0  0  0  0  0  0
  -25.4849  -27.9213   21.4841 C   0  0  1  0  0  0  0  0  0  0  0  0
  -27.5962  -13.0970   19.7201 C   0  0  2  0  0  0  0  0  0  0  0  0
  -32.9268  -28.5438   19.4265 C   0  0  0  0  0  0  0  0  0  0  0  0
  -26.7692  -28.0114   17.0453 C   0  0  0  0  0  0  0  0  0  0  0  0
  -29.2387  -27.9680   16.6358 C   0  0  0  0  0  0  0  0  0  0  0  0
  -28.1539  -30.0463   17.4882 C   0  0  0  0  0  0  0  0  0  0  0  0
  -32.3510  -22.4343   19.5029 C   0  0  0  0  0  0  0  0  0  0  0  0
  -31.5915  -27.4973   22.8321 C   0  0  0  0  0  0  0  0  0  0  0  0
  -26.4599  -20.8638   23.5610 C   0  0  0  0  0  0  0  0  0  1  0  0
  -27.3989  -19.6924   23.3476 C   0  0  0  0  0  0  0  0  0  0  0  0
  -28.4163  -28.0621   19.0328 C   0  0  1  0  0  0  0  0  0  0  0  0
  -31.8838  -28.4085   20.5249 C   0  0  2  0  0  0  0  0  0  0  0  0
  -28.1327  -28.5044   17.5695 C   0  0  0  0  0  0  0  0  0  0  0  0
  -25.8047  -11.5201   20.3409 N   0  0  0  0  0  0  0  0  0  0  0  0
  -26.1741  -12.7991   20.1568 N   0  0  0  0  0  0  0  0  0  0  0  0
  -31.7077  -21.2597   20.0572 N   0  0  0  0  0  0  0  0  0  0  0  0
  -26.6572  -27.5406   20.6934 N   0  0  0  0  0  0  0  0  0  0  0  0
  -29.8889  -13.6367   20.4433 N   0  0  0  0  0  0  0  0  0  0  0  0
  -25.3796  -15.0281   20.2607 N   0  0  0  0  0  0  0  0  0  0  0  0
  -21.7795  -12.5818   21.4650 N   0  0  0  0  0  0  0  0  0  0  0  0
  -29.9440  -15.7727   21.4417 N   0  0  0  0  0  0  0  0  0  0  0  0
  -23.0869  -28.0828   21.1989 N   0  0  0  0  0  0  0  0  0  0  0  0
  -29.6888  -28.5376   19.5648 N   0  0  0  0  0  0  0  0  0  0  0  0
  -32.4994  -27.6810   21.6706 N   0  3  0  0  0  0  0  0  0  0  0  0
  -32.7994  -19.5619   18.8433 O   0  0  0  0  0  0  0  0  0  0  0  0
  -30.2324  -22.2669   21.5898 O   0  0  0  0  0  0  0  0  0  0  0  0
  -22.5446  -14.7120   21.0972 O   0  0  0  0  0  0  0  0  0  0  0  0
  -24.4218  -27.2285   19.4929 O   0  0  0  0  0  0  0  0  0  0  0  0
  -27.1522  -29.7467   20.1241 O   0  0  0  0  0  0  0  0  0  0  0  0
  -30.5593  -26.4441   20.0512 O   0  0  0  0  0  0  0  0  0  0  0  0
  -31.7691  -14.9686   20.2567 O   0  0  0  0  0  0  0  0  0  0  0  0
  -21.5533   -7.0295   21.8602 O   0  0  0  0  0  0  0  0  0  0  0  0
  -26.3559  -21.6050   22.3461 O   0  0  0  0  0  0  0  0  0  1  0  0
  -28.6857  -20.1865   22.9963 O   0  0  0  0  0  0  0  0  0  0  0  0
  -23.9256   -3.1582   24.9889 F   0  0  0  0  0  0  0  0  0  0  0  0
  -20.4357   -6.2749   24.2735 F   0  0  0  0  0  0  0  0  0  0  0  0
  1  2  1  0  0  0  0
  1  5  2  0  0  0  0
  2  6  2  0  0  0  0
  3  8  2  0  0  0  0
  3 17  1  0  0  0  0
  4  9  1  0  0  0  0
  4 17  2  0  0  0  0
  5 21  1  0  0  0  0
  6 23  1  0  0  0  0
  7 10  2  0  0  0  0
  7 22  1  0  0  0  0
  8 26  1  0  0  0  0
  9 26  2  0  0  0  0
 10 27  1  0  0  0  0
 11 12  2  0  0  0  0
 11 28  1  0  0  0  0
 12 30  1  0  0  0  0
 13 18  2  0  0  0  0
 13 25  1  0  0  0  0
 14 24  1  0  0  0  0
 14 27  2  0  0  0  0
 15 25  2  0  0  0  0
 15 29  1  0  0  0  0
 16 30  2  0  0  0  0
 16 31  1  0  0  0  0
 17 32  1  0  0  0  0
 18 19  1  0  0  0  0
 18 34  1  0  0  0  0
 19 29  2  0  0  0  0
 19 35  1  0  0  0  0
 20 32  1  0  0  0  0
 20 33  2  0  0  0  0
 20 36  1  0  0  0  0
 21 23  2  0  0  0  0
 21 41  1  0  0  0  0
 22 24  2  0  0  0  0
 22 42  1  0  0  0  0
 23 50  1  0  0  0  0
 24 43  1  0  0  0  0
 25 71  1  0  0  0  0
 26 82  1  0  0  0  0
 27 83  1  0  0  0  0
 28 31  2  0  0  0  0
 28 82  1  0  0  0  0
 29 84  1  0  0  0  0
 30 85  1  0  0  0  0
 31 86  1  0  0  0  0
 32 64  2  0  0  0  0
 33 65  1  0  0  0  0
 33 69  1  0  0  0  0
 34 66  1  0  0  0  0
 34 75  2  0  0  0  0
 35 66  1  0  0  0  0
 35 76  2  0  0  0  0
 36 70  1  0  0  0  0
 36 77  2  0  0  0  0
 37 51  1  0  0  0  0
 37 72  1  0  0  0  0
 37 78  2  0  0  0  0
 38 61  1  0  0  0  0
 38 67  1  0  0  0  0
 38 79  2  0  0  0  0
 39 62  1  0  0  0  0
 39 73  1  0  0  0  0
 39 80  2  0  0  0  0
 40 68  1  0  0  0  0
 40 71  1  0  0  0  0
 40 81  2  0  0  0  0
 41 44  1  0  0  0  0
 42 51  1  0  0  0  0
 43 67  1  0  0  0  0
 44 46  1  0  0  0  0
 45 47  1  0  0  0  0
 45 48  1  0  0  0  0
 46 50  1  0  0  0  0
 47 52  1  0  0  0  0
 48 68  1  0  0  0  0
 49 52  1  0  0  0  0
 49 68  1  0  0  0  0
 50 72  1  0  0  0  0
 51 67  1  0  0  0  0
 52 65  1  0  0  0  0
 53 62  1  0  0  0  0
 54 63  1  0  0  0  0
 55 63  1  0  0  0  0
 56 63  1  0  0  0  0
 57 66  1  0  0  0  0
 58 74  1  0  0  0  0
 59 60  1  0  0  0  0
 59 83  1  0  0  0  0
 60 84  1  0  0  0  0
 61 63  1  0  0  0  0
 61 73  1  0  0  0  0
 62 74  1  0  0  0  0
 64 65  1  0  0  0  0
M  CHG  1  74   1
M  ISO  4  40 100  59 101  71 100  83 101
M  END
> <Batch ID>
0116

> <Smiles>
CNC(C)C(=O)NC(C(=O)N1Cc2cc([101O:1][101CH2:1]COc3cc([100NH:0][100C:0](=O)N4CCCC(n5nc(-c6ccc(Oc7ccc(F)cc7F)cc6)c(C(N)=O)c5N)C4)cc4c3C(=O)N(C)C4=O)ccc2CC1C(=O)NC1CCCc2ccccc21)C(C)(C)C

> <Shape>
0.305

> <Color>
0.213

> <Negative vol penalty>
0.000

$$$$

  -OEChem-04052301433D

 83 91  0     1  0  0  0  0  0999 V2000
  -29.4327  -31.0246   26.5942 C   0  0  0  0  0  0  0  0  0  0  0  0
  -29.0656  -29.9408   25.8030 C   0  0  0  0  0  0  0  0  0  0  0  0
  -30.6837  -19.1530   22.0295 C   0  0  0  0  0  0  0  0  0  0  0  0
  -23.7904   -9.8168   22.0589 C   0  0  0  0  0  0  0  0  0  0  0  0
  -23.0896  -12.1074   22.3735 C   0  0  0  0  0  0  0  0  0  0  0  0
  -28.4754  -31.9636   26.9758 C   0  0  0  0  0  0  0  0  0  0  0  0
  -27.7406  -29.7947   25.3939 C   0  0  0  0  0  0  0  0  0  0  0  0
  -27.3435  -28.5616   20.4983 C   0  0  0  0  0  0  0  0  0  0  0  0
  -30.5313  -17.8981   21.4399 C   0  0  0  0  0  0  0  0  0  0  0  0
  -29.5819  -19.9973   22.1673 C   0  0  0  0  0  0  0  0  0  0  0  0
  -23.0151   -9.4295   23.1517 C   0  0  0  0  0  0  0  0  0  0  0  0
  -22.3141  -11.7201   23.4664 C   0  0  0  0  0  0  0  0  0  0  0  0
  -27.5886  -27.2329   20.1545 C   0  0  0  0  0  0  0  0  0  0  0  0
  -19.7538   -8.8152   23.7994 C   0  0  0  0  0  0  0  0  0  0  0  0
  -18.9649   -7.6731   23.6622 C   0  0  0  0  0  0  0  0  0  0  0  0
  -25.2129  -26.8231   20.0692 C   0  0  0  0  0  0  0  0  0  0  0  0
  -28.1754  -18.3319   21.1257 C   0  0  0  0  0  0  0  0  0  0  0  0
  -20.1444   -6.6376   25.4989 C   0  0  0  0  0  0  0  0  0  0  0  0
  -23.8277  -11.1559   21.6698 C   0  0  0  0  0  0  0  0  0  0  0  0
  -24.2278  -11.6194   19.1934 C   0  0  0  0  0  0  0  0  0  0  0  0
  -27.1398  -31.8342   26.5632 C   0  0  0  0  0  0  0  0  0  0  0  0
  -26.0292  -29.0291   20.6411 C   0  0  0  0  0  0  0  0  0  0  0  0
  -26.7642  -30.7321   25.7715 C   0  0  0  0  0  0  0  0  0  0  0  0
  -24.9538  -28.1589   20.4124 C   0  0  0  0  0  0  0  0  0  0  0  0
  -29.2772  -17.4876   20.9880 C   0  0  0  0  0  0  0  0  0  0  0  0
  -22.2769  -10.3810   23.8555 C   0  0  0  0  0  0  0  0  0  0  0  0
  -26.5232  -26.3627   19.9427 C   0  0  0  0  0  0  0  0  0  0  0  0
  -28.3278  -19.5868   21.7154 C   0  0  0  0  0  0  0  0  0  0  0  0
  -20.7381   -8.8685   24.7863 C   0  0  0  0  0  0  0  0  0  0  0  0
  -19.1601   -6.5843   24.5119 C   0  0  0  0  0  0  0  0  0  0  0  0
  -20.9334   -7.7797   25.6361 C   0  0  0  0  0  0  0  0  0  0  0  0
  -24.6289  -11.5568   20.5413 C   0  0  0  0  0  0  0  0  0  0  0  0
  -25.3448  -12.0542   18.5226 C   0  0  0  0  0  0  0  0  0  0  0  0
  -22.9590  -11.3121   18.6006 C   0  0  0  0  0  0  0  0  0  0  0  0
  -24.3293  -30.2472   23.0349 C   0  0  0  0  0  0  0  0  0  0  0  0
  -26.4465  -22.7483   20.2449 C   0  0  0  0  0  0  0  0  0  0  0  0
  -22.1088  -30.6973   20.7135 C   0  0  0  0  0  0  0  0  0  0  0  0
  -20.8730  -29.7763   17.6686 C   0  0  0  0  0  0  0  0  0  0  0  0
  -30.1126  -15.2536   20.1769 C   0  0  0  0  0  0  0  0  0  0  0  0
  -26.1311  -32.8489   27.0402 C   0  0  0  0  0  0  0  0  0  0  0  0
  -25.7814  -30.4720   20.9863 C   0  0  0  0  0  0  0  0  0  0  0  0
  -23.5239  -28.6164   20.5332 C   0  0  0  0  0  0  0  0  0  0  0  0
  -24.8232  -32.8238   26.2534 C   0  0  0  0  0  0  0  0  0  0  0  0
  -30.1268  -11.9824   18.7711 C   0  0  0  0  0  0  0  0  0  0  0  0
  -24.3316  -31.3902   26.0805 C   0  0  0  0  0  0  0  0  0  0  0  0
  -28.6806  -11.5101   18.9373 C   0  0  0  0  0  0  0  0  0  0  0  0
  -30.5886  -12.8244   19.9592 C   0  0  0  0  0  0  0  0  0  0  0  0
  -28.2685  -13.4833   20.4617 C   0  0  0  0  0  0  0  0  0  0  0  0
  -25.3418  -30.5525   25.2871 C   0  0  1  0  0  0  0  0  0  0  0  0
  -24.4087  -30.7104   21.6078 C   0  0  1  0  0  0  0  0  0  0  0  0
  -27.7373  -12.6857   19.2595 C   0  0  2  0  0  0  0  0  0  0  0  0
  -19.0271  -30.3004   16.0513 C   0  0  0  0  0  0  0  0  0  0  0  0
  -20.1313  -29.1976   22.4884 C   0  0  0  0  0  0  0  0  0  0  0  0
  -18.6511  -28.9230   20.4879 C   0  0  0  0  0  0  0  0  0  0  0  0
  -19.1850  -31.2066   21.3381 C   0  0  0  0  0  0  0  0  0  0  0  0
  -22.7904  -30.5589   15.5543 C   0  0  0  0  0  0  0  0  0  0  0  0
  -25.5110  -21.6308   20.6821 C   0  0  0  0  0  0  0  0  0  0  0  0
  -25.7953  -24.1002   20.0264 C   0  0  0  0  0  0  0  0  0  1  0  0
  -26.2218  -20.2984   20.8704 C   0  0  0  0  0  0  0  0  0  0  0  0
  -20.9751  -29.8783   20.1452 C   0  0  1  0  0  0  0  0  0  0  0  0
  -20.4624  -30.5957   16.4584 C   0  0  2  0  0  0  0  0  0  0  0  0
  -19.7625  -29.7919   21.1144 C   0  0  0  0  0  0  0  0  0  0  0  0
  -25.9014  -11.9223   20.7182 N   0  0  0  0  0  0  0  0  0  0  0  0
  -26.3095  -12.2188   19.4726 N   0  0  0  0  0  0  0  0  0  0  0  0
  -23.3333  -30.0347   20.8790 N   0  0  0  0  0  0  0  0  0  0  0  0
  -29.6491  -13.9212   20.2024 N   0  0  0  0  0  0  0  0  0  0  0  0
  -25.5860  -12.3078   17.2188 N   0  0  0  0  0  0  0  0  0  0  0  0
  -21.9194  -10.8786   19.4345 N   0  0  0  0  0  0  0  0  0  0  0  0
  -29.1227  -16.2126   20.3893 N   0  0  0  0  0  0  0  0  0  0  0  0
  -25.2464  -30.8505   23.8741 N   0  0  0  0  0  0  0  0  0  0  0  0
  -20.6610  -30.4624   18.8457 N   0  0  0  0  0  0  0  0  0  0  0  0
  -21.3511  -30.2919   15.3013 N   0  3  0  0  0  0  0  0  0  0  0  0
  -22.7582  -11.4030   17.3657 O   0  0  0  0  0  0  0  0  0  0  0  0
  -23.4966  -29.4057   23.3515 O   0  0  0  0  0  0  0  0  0  0  0  0
  -27.6531  -22.5769   20.0793 O   0  0  0  0  0  0  0  0  0  0  0  0
  -21.9170  -31.8833   20.9933 O   0  0  0  0  0  0  0  0  0  0  0  0
  -21.3322  -28.6399   17.5788 O   0  0  0  0  0  0  0  0  0  0  0  0
  -31.2952  -15.5251   19.9541 O   0  0  0  0  0  0  0  0  0  0  0  0
  -21.5200  -10.0033   24.9218 O   0  0  0  0  0  0  0  0  0  0  0  0
  -26.7596  -25.0651   19.6076 O   0  0  0  0  0  0  0  0  0  1  0  0
  -27.2456  -20.4161   21.8506 O   0  0  0  0  0  0  0  0  0  0  0  0
  -18.4014   -5.4882   24.3811 F   0  0  0  0  0  0  0  0  0  0  0  0
  -21.8766   -7.8255   26.5869 F   0  0  0  0  0  0  0  0  0  0  0  0
  1  2  1  0  0  0  0
  1  6  2  0  0  0  0
  2  7  2  0  0  0  0
  3  9  1  0  0  0  0
  3 10  2  0  0  0  0
  4 11  2  0  0  0  0
  4 19  1  0  0  0  0
  5 12  1  0  0  0  0
  5 19  2  0  0  0  0
  6 21  1  0  0  0  0
  7 23  1  0  0  0  0
  8 13  2  0  0  0  0
  8 22  1  0  0  0  0
  9 25  2  0  0  0  0
 10 28  1  0  0  0  0
 11 26  1  0  0  0  0
 12 26  2  0  0  0  0
 13 27  1  0  0  0  0
 14 15  2  0  0  0  0
 14 29  1  0  0  0  0
 15 30  1  0  0  0  0
 16 24  1  0  0  0  0
 16 27  2  0  0  0  0
 17 25  1  0  0  0  0
 17 28  2  0  0  0  0
 18 30  2  0  0  0  0
 18 31  1  0  0  0  0
 19 32  1  0  0  0  0
 20 32  1  0  0  0  0
 20 33  2  0  0  0  0
 20 34  1  0  0  0  0
 21 23  2  0  0  0  0
 21 40  1  0  0  0  0
 22 24  2  0  0  0  0
 22 41  1  0  0  0  0
 23 49  1  0  0  0  0
 24 42  1  0  0  0  0
 25 69  1  0  0  0  0
 26 79  1  0  0  0  0
 27 80  1  0  0  0  0
 28 81  1  0  0  0  0
 29 31  2  0  0  0  0
 29 79  1  0  0  0  0
 30 82  1  0  0  0  0
 31 83  1  0  0  0  0
 32 63  2  0  0  0  0
 33 64  1  0  0  0  0
 33 67  1  0  0  0  0
 34 68  1  0  0  0  0
 34 73  2  0  0  0  0
 35 50  1  0  0  0  0
 35 70  1  0  0  0  0
 35 74  2  0  0  0  0
 36 57  1  0  0  0  0
 36 58  1  0  0  0  0
 36 75  2  0  0  0  0
 37 60  1  0  0  0  0
 37 65  1  0  0  0  0
 37 76  2  0  0  0  0
 38 61  1  0  0  0  0
 38 71  1  0  0  0  0
 38 77  2  0  0  0  0
 39 66  1  0  0  0  0
 39 69  1  0  0  0  0
 39 78  2  0  0  0  0
 40 43  1  0  0  0  0
 41 50  1  0  0  0  0
 42 65  1  0  0  0  0
 43 45  1  0  0  0  0
 44 46  1  0  0  0  0
 44 47  1  0  0  0  0
 45 49  1  0  0  0  0
 46 51  1  0  0  0  0
 47 66  1  0  0  0  0
 48 51  1  0  0  0  0
 48 66  1  0  0  0  0
 49 70  1  0  0  0  0
 50 65  1  0  0  0  0
 51 64  1  0  0  0  0
 52 61  1  0  0  0  0
 53 62  1  0  0  0  0
 54 62  1  0  0  0  0
 55 62  1  0  0  0  0
 56 72  1  0  0  0  0
 57 59  1  0  0  0  0
 58 80  1  0  0  0  0
 59 81  1  0  0  0  0
 60 62  1  0  0  0  0
 60 71  1  0  0  0  0
 61 72  1  0  0  0  0
 63 64  1  0  0  0  0
M  CHG  1  72   1
M  ISO  4  39 100  58 101  69 100  80 101
M  END
> <Batch ID>
0116

> <Smiles>
CNC(C)C(=O)NC(C(=O)N1Cc2cc([101O:1][101CH2:1]C(=O)CCOc3cccc([100NH:0][100C:0](=O)N4CCCC(n5nc(-c6ccc(Oc7ccc(F)cc7F)cc6)c(C(N)=O)c5N)C4)c3)ccc2CC1C(=O)NC1CCCc2ccccc21)C(C)(C)C

> <Shape>
0.271

> <Color>
0.090

> <Negative vol penalty>
0.000

$$$$

  -OEChem-04052301433D

 85 93  0     1  0  0  0  0  0999 V2000
  -27.1411  -30.3869   30.5578 C   0  0  0  0  0  0  0  0  0  0  0  0
  -27.4685  -29.7115   29.3864 C   0  0  0  0  0  0  0  0  0  0  0  0
  -23.4197   -9.6341   19.8894 C   0  0  0  0  0  0  0  0  0  0  0  0
  -23.9637   -9.8114   22.2367 C   0  0  0  0  0  0  0  0  0  0  0  0
  -26.3263  -31.5170   30.5051 C   0  0  0  0  0  0  0  0  0  0  0  0
  -26.9802  -30.1654   28.1616 C   0  0  0  0  0  0  0  0  0  0  0  0
  -30.5324  -30.2168   24.5528 C   0  0  0  0  0  0  0  0  0  0  0  0
  -22.8021   -8.4059   20.1253 C   0  0  0  0  0  0  0  0  0  0  0  0
  -23.3461   -8.5831   22.4726 C   0  0  0  0  0  0  0  0  0  0  0  0
  -30.8582  -28.9964   23.9625 C   0  0  0  0  0  0  0  0  0  0  0  0
  -20.1979   -7.4083   22.8321 C   0  0  0  0  0  0  0  0  0  0  0  0
  -19.3492   -7.3126   23.9349 C   0  0  0  0  0  0  0  0  0  0  0  0
  -28.8566  -18.3811   22.9131 C   0  0  0  0  0  0  0  0  0  0  0  0
  -29.4583  -29.5424   22.0754 C   0  0  0  0  0  0  0  0  0  0  0  0
  -31.0536  -18.2020   21.9242 C   0  0  0  0  0  0  0  0  0  0  0  0
  -20.7457   -5.5707   24.8584 C   0  0  0  0  0  0  0  0  0  0  0  0
  -24.0005  -10.3369   20.9451 C   0  0  0  0  0  0  0  0  0  0  0  0
  -29.1587  -19.6705   23.3509 C   0  0  0  0  0  0  0  0  0  0  0  0
  -24.0421  -12.8796   20.7444 C   0  0  0  0  0  0  0  0  0  0  0  0
  -25.8357  -31.9905   29.2781 C   0  0  0  0  0  0  0  0  0  0  0  0
  -29.6571  -31.1059   23.9127 C   0  0  0  0  0  0  0  0  0  0  0  0
  -26.1569  -31.3021   28.0926 C   0  0  0  0  0  0  0  0  0  0  0  0
  -29.1250  -30.7745   22.6584 C   0  0  0  0  0  0  0  0  0  0  0  0
  -29.8041  -17.6468   22.1998 C   0  0  0  0  0  0  0  0  0  0  0  0
  -22.7653   -7.8804   21.4168 C   0  0  0  0  0  0  0  0  0  0  0  0
  -30.3188  -28.6578   22.7250 C   0  0  0  0  0  0  0  0  0  0  0  0
  -21.3205   -6.5852   22.7425 C   0  0  0  0  0  0  0  0  0  0  0  0
  -30.4083  -20.2257   23.0753 C   0  0  0  0  0  0  0  0  0  0  0  0
  -19.6231   -6.3938   24.9481 C   0  0  0  0  0  0  0  0  0  0  0  0
  -31.3558  -19.4915   22.3620 C   0  0  0  0  0  0  0  0  0  0  0  0
  -21.5944   -5.6665   23.7556 C   0  0  0  0  0  0  0  0  0  0  0  0
  -24.6391  -11.6054   20.7021 C   0  0  0  0  0  0  0  0  0  0  0  0
  -25.0632  -13.7474   20.4431 C   0  0  0  0  0  0  0  0  0  0  0  0
  -26.9472  -20.6957   23.6224 C   0  0  0  0  0  0  0  0  0  0  0  0
  -28.1530  -20.4169   24.0949 C   0  0  0  0  0  0  0  0  0  0  0  0
  -22.6858  -13.2461   21.0306 C   0  0  0  0  0  0  0  0  0  0  0  0
  -26.8176  -32.3517   24.6120 C   0  0  0  0  0  0  0  0  0  0  0  0
  -27.3460  -34.0781   21.9171 C   0  0  0  0  0  0  0  0  0  0  0  0
  -28.9458  -34.3449   18.9143 C   0  0  0  0  0  0  0  0  0  0  0  0
  -30.3236  -15.4732   21.0370 C   0  0  0  0  0  0  0  0  0  0  0  0
  -24.9196  -33.1887   29.2762 C   0  0  0  0  0  0  0  0  0  0  0  0
  -29.3368  -32.4300   24.5503 C   0  0  0  0  0  0  0  0  0  0  0  0
  -28.1965  -31.7028   21.9205 C   0  0  0  0  0  0  0  0  0  0  0  0
  -24.7498  -33.8234   27.8983 C   0  0  0  0  0  0  0  0  0  0  0  0
  -29.7286  -12.8626   18.6902 C   0  0  0  0  0  0  0  0  0  0  0  0
  -24.4866  -32.7514   26.8455 C   0  0  0  0  0  0  0  0  0  0  0  0
  -28.3024  -12.4076   19.0079 C   0  0  0  0  0  0  0  0  0  0  0  0
  -30.4973  -13.2433   19.9543 C   0  0  0  0  0  0  0  0  0  0  0  0
  -28.3999  -13.7687   21.1351 C   0  0  0  0  0  0  0  0  0  0  0  0
  -25.6670  -31.7780   26.7422 C   0  0  1  0  0  0  0  0  0  0  0  0
  -28.0302  -33.0353   24.0464 C   0  0  1  0  0  0  0  0  0  0  0  0
  -27.5653  -13.4366   19.8873 C   0  0  2  0  0  0  0  0  0  0  0  0
  -29.1479  -35.8505   16.9169 C   0  0  0  0  0  0  0  0  0  0  0  0
  -24.6345  -33.1048   20.9120 C   0  0  0  0  0  0  0  0  0  0  0  0
  -25.3047  -33.8308   18.6115 C   0  0  0  0  0  0  0  0  0  0  0  0
  -25.1174  -35.5135   20.4435 C   0  0  0  0  0  0  0  0  0  0  0  0
  -31.8386  -34.7642   19.3779 C   0  0  0  0  0  0  0  0  0  0  0  0
  -30.5594  -25.0622   22.3518 C   0  0  0  0  0  0  0  0  0  0  0  0
  -30.8403  -23.8704   23.2603 C   0  0  0  0  0  0  0  0  0  0  0  0
  -30.9304  -26.3788   23.0214 C   0  0  0  0  0  0  0  0  0  1  0  0
  -30.4299  -22.5576   22.6085 C   0  0  0  0  0  0  0  0  0  0  0  0
  -27.0516  -33.8853   20.4490 C   0  0  1  0  0  0  0  0  0  0  0  0
  -29.7152  -35.4901   18.2812 C   0  0  2  0  0  0  0  0  0  0  0  0
  -25.5430  -34.0650   20.1186 C   0  0  0  0  0  0  0  0  0  0  0  0
  -25.9387  -11.6548   20.3977 N   0  0  0  0  0  0  0  0  0  0  0  0
  -26.1667  -12.9705   20.2459 N   0  0  0  0  0  0  0  0  0  0  0  0
  -27.9085  -32.9830   22.5880 N   0  0  0  0  0  0  0  0  0  0  0  0
  -29.7405  -14.2244   20.7350 N   0  0  0  0  0  0  0  0  0  0  0  0
  -25.1158  -15.0916   20.3301 N   0  0  0  0  0  0  0  0  0  0  0  0
  -21.7658  -12.2291   21.3198 N   0  0  0  0  0  0  0  0  0  0  0  0
  -29.4976  -16.3365   21.7561 N   0  0  0  0  0  0  0  0  0  0  0  0
  -26.7507  -32.3757   25.9920 N   0  0  0  0  0  0  0  0  0  0  0  0
  -27.9334  -34.8002   19.7323 N   0  0  0  0  0  0  0  0  0  0  0  0
  -31.1486  -35.1197   18.1112 N   0  3  0  0  0  0  0  0  0  0  0  0
  -22.2975  -14.4387   21.0137 O   0  0  0  0  0  0  0  0  0  0  0  0
  -26.0023  -31.8417   23.8526 O   0  0  0  0  0  0  0  0  0  0  0  0
  -27.0930  -35.1628   22.4472 O   0  0  0  0  0  0  0  0  0  0  0  0
  -29.2135  -33.1644   18.7015 O   0  0  0  0  0  0  0  0  0  0  0  0
  -31.4613  -15.7663   20.6604 O   0  0  0  0  0  0  0  0  0  0  0  0
  -22.1626   -6.6820   21.6474 O   0  0  0  0  0  0  0  0  0  0  0  0
  -30.6346  -27.4670   22.1470 O   0  0  0  0  0  0  0  0  0  1  0  0
  -30.7303  -21.4898   23.4966 O   0  0  0  0  0  0  0  0  0  0  0  0
  -18.8089   -6.3031   26.0078 F   0  0  0  0  0  0  0  0  0  0  0  0
  -32.5583  -20.0191   22.0940 F   0  0  0  0  0  0  0  0  0  0  0  0
  -22.6720   -4.8739   23.6756 F   0  0  0  0  0  0  0  0  0  0  0  0
  1  2  1  0  0  0  0
  1  5  2  0  0  0  0
  2  6  2  0  0  0  0
  3  8  2  0  0  0  0
  3 17  1  0  0  0  0
  4  9  1  0  0  0  0
  4 17  2  0  0  0  0
  5 20  1  0  0  0  0
  6 22  1  0  0  0  0
  7 10  2  0  0  0  0
  7 21  1  0  0  0  0
  8 25  1  0  0  0  0
  9 25  2  0  0  0  0
 10 26  1  0  0  0  0
 11 12  2  0  0  0  0
 11 27  1  0  0  0  0
 12 29  1  0  0  0  0
 13 18  1  0  0  0  0
 13 24  2  0  0  0  0
 14 23  1  0  0  0  0
 14 26  2  0  0  0  0
 15 24  1  0  0  0  0
 15 30  2  0  0  0  0
 16 29  2  0  0  0  0
 16 31  1  0  0  0  0
 17 32  1  0  0  0  0
 18 28  2  0  0  0  0
 18 35  1  0  0  0  0
 19 32  1  0  0  0  0
 19 33  2  0  0  0  0
 19 36  1  0  0  0  0
 20 22  2  0  0  0  0
 20 41  1  0  0  0  0
 21 23  2  0  0  0  0
 21 42  1  0  0  0  0
 22 50  1  0  0  0  0
 23 43  1  0  0  0  0
 24 71  1  0  0  0  0
 25 80  1  0  0  0  0
 26 81  1  0  0  0  0
 27 31  2  0  0  0  0
 27 80  1  0  0  0  0
 28 30  1  0  0  0  0
 28 82  1  0  0  0  0
 29 83  1  0  0  0  0
 30 84  1  0  0  0  0
 31 85  1  0  0  0  0
 32 65  2  0  0  0  0
 33 66  1  0  0  0  0
 33 69  1  0  0  0  0
 34 35  2  0  0  0  0
 36 70  1  0  0  0  0
 36 75  2  0  0  0  0
 37 51  1  0  0  0  0
 37 72  1  0  0  0  0
 37 76  2  0  0  0  0
 38 62  1  0  0  0  0
 38 67  1  0  0  0  0
 38 77  2  0  0  0  0
 39 63  1  0  0  0  0
 39 73  1  0  0  0  0
 39 78  2  0  0  0  0
 40 68  1  0  0  0  0
 40 71  1  0  0  0  0
 40 79  2  0  0  0  0
 41 44  1  0  0  0  0
 42 51  1  0  0  0  0
 43 67  1  0  0  0  0
 44 46  1  0  0  0  0
 45 47  1  0  0  0  0
 45 48  1  0  0  0  0
 46 50  1  0  0  0  0
 47 52  1  0  0  0  0
 48 68  1  0  0  0  0
 49 52  1  0  0  0  0
 49 68  1  0  0  0  0
 50 72  1  0  0  0  0
 51 67  1  0  0  0  0
 52 66  1  0  0  0  0
 53 63  1  0  0  0  0
 54 64  1  0  0  0  0
 55 64  1  0  0  0  0
 56 64  1  0  0  0  0
 57 74  1  0  0  0  0
 58 59  1  0  0  0  0
 58 60  1  0  0  0  0
 59 61  1  0  0  0  0
 60 81  1  0  0  0  0
 61 82  1  0  0  0  0
 62 64  1  0  0  0  0
 62 73  1  0  0  0  0
 63 74  1  0  0  0  0
 65 66  1  0  0  0  0
M  CHG  1  74   1
M  ISO  4  40 100  60 101  71 100  81 101
M  END
> <Batch ID>
0116

> <Smiles>
C=Cc1cc([100NH:0][100C:0](=O)N2CCCC(n3nc(-c4ccc(Oc5ccc(F)cc5F)cc4)c(C(N)=O)c3N)C2)cc(F)c1OCCC[101CH2:1][101O:1]c1ccc2c(c1)CN(C(=O)C(NC(=O)C(C)NC)C(C)(C)C)C(C(=O)NC1CCCc3ccccc31)C2

> <Shape>
0.231

> <Color>
0.174

> <Negative vol penalty>
0.000

$$$$

  -OEChem-04052301433D

 86 94  0     1  0  0  0  0  0999 V2000
  -27.4829  -37.2784   25.6594 C   0  0  0  0  0  0  0  0  0  0  0  0
  -28.1948  -36.2983   24.9753 C   0  0  0  0  0  0  0  0  0  0  0  0
  -22.5412  -10.0766   20.3418 C   0  0  0  0  0  0  0  0  0  0  0  0
  -24.1554   -9.5490   22.0603 C   0  0  0  0  0  0  0  0  0  0  0  0
  -26.2021  -37.0029   26.1366 C   0  0  0  0  0  0  0  0  0  0  0  0
  -27.6267  -35.0417   24.7689 C   0  0  0  0  0  0  0  0  0  0  0  0
  -27.5046  -29.6823   20.0172 C   0  0  0  0  0  0  0  0  0  0  0  0
  -22.1345   -8.7427   20.3143 C   0  0  0  0  0  0  0  0  0  0  0  0
  -23.7486   -8.2151   22.0328 C   0  0  0  0  0  0  0  0  0  0  0  0
  -27.6894  -28.3023   19.9452 C   0  0  0  0  0  0  0  0  0  0  0  0
  -21.1903   -6.3674   23.2418 C   0  0  0  0  0  0  0  0  0  0  0  0
  -20.9865   -5.7282   24.4648 C   0  0  0  0  0  0  0  0  0  0  0  0
  -26.6659  -20.6851   22.4843 C   0  0  0  0  0  0  0  0  0  0  0  0
  -25.4388  -27.9653   20.7454 C   0  0  0  0  0  0  0  0  0  0  0  0
  -29.1020  -20.1375   21.2402 C   0  0  0  0  0  0  0  0  0  0  0  0
  -22.6814   -4.1026   23.8976 C   0  0  0  0  0  0  0  0  0  0  0  0
  -23.5517  -10.4798   21.2148 C   0  0  0  0  0  0  0  0  0  0  0  0
  -27.1971  -21.5880   21.5633 C   0  0  0  0  0  0  0  0  0  0  0  0
  -23.4530  -12.8887   22.0484 C   0  0  0  0  0  0  0  0  0  0  0  0
  -25.6143  -35.7454   25.9275 C   0  0  0  0  0  0  0  0  0  0  0  0
  -26.2872  -30.2150   20.4650 C   0  0  0  0  0  0  0  0  0  0  0  0
  -26.3374  -34.7487   25.2449 C   0  0  0  0  0  0  0  0  0  0  0  0
  -25.2402  -29.3524   20.8197 C   0  0  0  0  0  0  0  0  0  0  0  0
  -27.3527  -19.5085   22.7833 C   0  0  0  0  0  0  0  0  0  0  0  0
  -28.5708  -19.2347   22.1612 C   0  0  0  0  0  0  0  0  0  0  0  0
  -22.7382   -7.8119   21.1598 C   0  0  0  0  0  0  0  0  0  0  0  0
  -26.6574  -27.4435   20.3121 C   0  0  0  0  0  0  0  0  0  0  0  0
  -22.1396   -5.8741   22.3467 C   0  0  0  0  0  0  0  0  0  0  0  0
  -28.4151  -21.3142   20.9412 C   0  0  0  0  0  0  0  0  0  0  0  0
  -21.7321   -4.5959   24.7926 C   0  0  0  0  0  0  0  0  0  0  0  0
  -22.8852   -4.7417   22.6746 C   0  0  0  0  0  0  0  0  0  0  0  0
  -23.9727  -11.8575   21.2433 C   0  0  0  0  0  0  0  0  0  0  0  0
  -24.1858  -13.9975   21.7017 C   0  0  0  0  0  0  0  0  0  0  0  0
  -30.5858  -25.1949   20.3672 C   0  0  0  0  0  0  0  0  0  0  0  0
  -26.4541  -22.8243   21.2671 C   0  0  0  0  0  0  0  0  0  0  0  0
  -30.3729  -24.0554   19.6999 C   0  0  0  0  0  0  0  0  0  0  0  0
  -26.9070  -24.0696   21.4805 C   0  0  0  0  0  0  0  0  0  0  0  0
  -22.4018  -12.8481   23.0226 C   0  0  0  0  0  0  0  0  0  0  0  0
  -25.4021  -32.0398   22.9125 C   0  0  0  0  0  0  0  0  0  0  0  0
  -22.5271  -31.9825   21.4113 C   0  0  0  0  0  0  0  0  0  0  0  0
  -20.4137  -30.3858   19.2594 C   0  0  0  0  0  0  0  0  0  0  0  0
  -29.0702  -16.4357   20.5428 C   0  0  0  0  0  0  0  0  0  0  0  0
  -24.2460  -35.4790   26.5032 C   0  0  0  0  0  0  0  0  0  0  0  0
  -26.0946  -31.7060   20.5115 C   0  0  0  0  0  0  0  0  0  0  0  0
  -23.9070  -29.8739   21.2877 C   0  0  0  0  0  0  0  0  0  0  0  0
  -23.5681  -34.2437   25.9161 C   0  0  0  0  0  0  0  0  0  0  0  0
  -27.4150  -14.7469   17.8811 C   0  0  0  0  0  0  0  0  0  0  0  0
  -24.5408  -33.0694   25.8757 C   0  0  0  0  0  0  0  0  0  0  0  0
  -26.3337  -13.9254   18.5854 C   0  0  0  0  0  0  0  0  0  0  0  0
  -28.6983  -14.8159   18.7059 C   0  0  0  0  0  0  0  0  0  0  0  0
  -27.4383  -14.4686   20.7953 C   0  0  0  0  0  0  0  0  0  0  0  0
  -25.7455  -33.3814   24.9796 C   0  0  1  0  0  0  0  0  0  0  0  0
  -24.9893  -32.1361   21.4710 C   0  0  1  0  0  0  0  0  0  0  0  0
  -26.1063  -14.4171   20.0275 C   0  0  2  0  0  0  0  0  0  0  0  0
  -26.7651  -18.5568   23.7730 C   0  0  0  0  0  0  0  0  0  0  0  0
  -18.1182  -30.5600   18.2605 C   0  0  0  0  0  0  0  0  0  0  0  0
  -21.3121  -31.0319   24.0438 C   0  0  0  0  0  0  0  0  0  0  0  0
  -19.2764  -30.3258   22.7689 C   0  0  0  0  0  0  0  0  0  0  0  0
  -19.9450  -32.7286   22.8164 C   0  0  0  0  0  0  0  0  0  0  0  0
  -21.4967  -30.5605   16.5106 C   0  0  0  0  0  0  0  0  0  0  0  0
  -29.3249  -17.9824   22.4669 C   0  0  0  0  0  0  0  0  0  0  0  0
  -30.2412  -22.7193   20.3522 C   0  0  0  0  0  0  0  0  0  0  0  0
  -26.1089  -25.2967   21.1758 C   0  0  0  0  0  0  0  0  0  1  0  0
  -21.3119  -31.0882   21.4626 C   0  0  1  0  0  0  0  0  0  0  0  0
  -19.5913  -30.8971   18.0902 C   0  0  2  0  0  0  0  0  0  0  0  0
  -20.4870  -31.2835   22.7660 C   0  0  0  0  0  0  0  0  0  0  0  0
  -24.9594  -12.2740   20.4451 N   0  0  0  0  0  0  0  0  0  0  0  0
  -25.0654  -13.5793   20.7469 N   0  0  0  0  0  0  0  0  0  0  0  0
  -23.7698  -31.3394   21.3219 N   0  0  0  0  0  0  0  0  0  0  0  0
  -28.4137  -15.2907   20.0622 N   0  0  0  0  0  0  0  0  0  0  0  0
  -24.1570  -15.2796   22.1233 N   0  0  0  0  0  0  0  0  0  0  0  0
  -21.7536  -11.6274   23.2556 N   0  0  0  0  0  0  0  0  0  0  0  0
  -25.3857  -33.2473   23.5843 N   0  0  0  0  0  0  0  0  0  0  0  0
  -20.5632  -31.3463   20.2373 N   0  0  0  0  0  0  0  0  0  0  0  0
  -28.7380  -16.8214   21.8358 N   0  0  0  0  0  0  0  0  0  0  0  0
  -20.0684  -30.2888   16.8161 N   0  3  0  0  0  0  0  0  0  0  0  0
  -22.0367  -13.8677   23.6556 O   0  0  0  0  0  0  0  0  0  0  0  0
  -25.7111  -30.9505   23.3810 O   0  0  0  0  0  0  0  0  0  0  0  0
  -22.3788  -33.2067   21.4420 O   0  0  0  0  0  0  0  0  0  0  0  0
  -20.8740  -29.2471   19.3025 O   0  0  0  0  0  0  0  0  0  0  0  0
  -29.8875  -17.0706   19.8677 O   0  0  0  0  0  0  0  0  0  0  0  0
  -22.3413   -6.5102   21.1333 O   0  0  0  0  0  0  0  0  0  0  0  0
  -26.8354  -26.0961   20.2434 O   0  0  0  0  0  0  0  0  0  1  0  0
  -28.9584  -22.1814   20.0400 O   0  0  0  0  0  0  0  0  0  0  0  0
  -21.5373   -3.9831   25.9677 F   0  0  0  0  0  0  0  0  0  0  0  0
  -23.7994   -4.2639   21.8193 F   0  0  0  0  0  0  0  0  0  0  0  0
  1  2  1  0  0  0  0
  1  5  2  0  0  0  0
  2  6  2  0  0  0  0
  3  8  2  0  0  0  0
  3 17  1  0  0  0  0
  4  9  1  0  0  0  0
  4 17  2  0  0  0  0
  5 20  1  0  0  0  0
  6 22  1  0  0  0  0
  7 10  2  0  0  0  0
  7 21  1  0  0  0  0
  8 26  1  0  0  0  0
  9 26  2  0  0  0  0
 10 27  1  0  0  0  0
 11 12  2  0  0  0  0
 11 28  1  0  0  0  0
 12 30  1  0  0  0  0
 13 18  1  0  0  0  0
 13 24  2  0  0  0  0
 14 23  1  0  0  0  0
 14 27  2  0  0  0  0
 15 25  2  0  0  0  0
 15 29  1  0  0  0  0
 16 30  2  0  0  0  0
 16 31  1  0  0  0  0
 17 32  1  0  0  0  0
 18 29  2  0  0  0  0
 18 35  1  0  0  0  0
 19 32  1  0  0  0  0
 19 33  2  0  0  0  0
 19 38  1  0  0  0  0
 20 22  2  0  0  0  0
 20 43  1  0  0  0  0
 21 23  2  0  0  0  0
 21 44  1  0  0  0  0
 22 52  1  0  0  0  0
 23 45  1  0  0  0  0
 24 25  1  0  0  0  0
 24 55  1  0  0  0  0
 25 61  1  0  0  0  0
 26 82  1  0  0  0  0
 27 83  1  0  0  0  0
 28 31  2  0  0  0  0
 28 82  1  0  0  0  0
 29 84  1  0  0  0  0
 30 85  1  0  0  0  0
 31 86  1  0  0  0  0
 32 67  2  0  0  0  0
 33 68  1  0  0  0  0
 33 71  1  0  0  0  0
 34 36  2  0  0  0  0
 35 37  2  0  0  0  0
 36 62  1  0  0  0  0
 37 63  1  0  0  0  0
 38 72  1  0  0  0  0
 38 77  2  0  0  0  0
 39 53  1  0  0  0  0
 39 73  1  0  0  0  0
 39 78  2  0  0  0  0
 40 64  1  0  0  0  0
 40 69  1  0  0  0  0
 40 79  2  0  0  0  0
 41 65  1  0  0  0  0
 41 74  1  0  0  0  0
 41 80  2  0  0  0  0
 42 70  1  0  0  0  0
 42 75  1  0  0  0  0
 42 81  2  0  0  0  0
 43 46  1  0  0  0  0
 44 53  1  0  0  0  0
 45 69  1  0  0  0  0
 46 48  1  0  0  0  0
 47 49  1  0  0  0  0
 47 50  1  0  0  0  0
 48 52  1  0  0  0  0
 49 54  1  0  0  0  0
 50 70  1  0  0  0  0
 51 54  1  0  0  0  0
 51 70  1  0  0  0  0
 52 73  1  0  0  0  0
 53 69  1  0  0  0  0
 54 68  1  0  0  0  0
 56 65  1  0  0  0  0
 57 66  1  0  0  0  0
 58 66  1  0  0  0  0
 59 66  1  0  0  0  0
 60 76  1  0  0  0  0
 61 75  1  0  0  0  0
 62 84  1  0  0  0  0
 63 83  1  0  0  0  0
 64 66  1  0  0  0  0
 64 74  1  0  0  0  0
 65 76  1  0  0  0  0
 67 68  1  0  0  0  0
M  CHG  1  76   1
M  ISO  4  42 100  63 101  75 100  83 101
M  END
> <Batch ID>
0116

> <Smiles>
C=CCOc1cc(C[100NH:0][100C:0](=O)N2CCCC(n3nc(-c4ccc(Oc5ccc(F)cc5F)cc4)c(C(N)=O)c3N)C2)c(C)cc1C=C[101CH2:1][101O:1]c1ccc2c(c1)CN(C(=O)C(NC(=O)C(C)NC)C(C)(C)C)C(C(=O)NC1CCCc3ccccc31)C2

> <Shape>
0.321

> <Color>
0.106

> <Negative vol penalty>
0.000

$$$$

  -OEChem-04052301433D

 81 89  0     1  0  0  0  0  0999 V2000
  -27.3925  -24.4084   16.8032 C   0  0  0  0  0  0  0  0  0  0  0  0
  -26.2545  -24.6795   17.5561 C   0  0  0  0  0  0  0  0  0  0  0  0
  -25.3299  -13.5579   23.1399 C   0  0  0  0  0  0  0  0  0  0  0  0
  -26.8118  -14.1065   21.3124 C   0  0  0  0  0  0  0  0  0  0  0  0
  -28.6368  -24.8682   17.2323 C   0  0  0  0  0  0  0  0  0  0  0  0
  -26.3604  -25.4099   18.7393 C   0  0  0  0  0  0  0  0  0  0  0  0
  -22.7767  -28.9636   19.1559 C   0  0  0  0  0  0  0  0  0  0  0  0
  -25.2051  -12.2584   22.6487 C   0  0  0  0  0  0  0  0  0  0  0  0
  -26.6871  -12.8070   20.8211 C   0  0  0  0  0  0  0  0  0  0  0  0
  -21.5038  -28.5424   19.5382 C   0  0  0  0  0  0  0  0  0  0  0  0
  -23.4976  -10.6755   20.1986 C   0  0  0  0  0  0  0  0  0  0  0  0
  -22.2181  -10.1222   20.1490 C   0  0  0  0  0  0  0  0  0  0  0  0
  -21.9533  -29.2558   21.7984 C   0  0  0  0  0  0  0  0  0  0  0  0
  -17.5468  -23.1268   23.2773 C   0  0  0  0  0  0  0  0  0  0  0  0
  -22.9290   -8.3460   21.6244 C   0  0  0  0  0  0  0  0  0  0  0  0
  -26.1332  -14.4820   22.4717 C   0  0  0  0  0  0  0  0  0  0  0  0
  -27.2186  -16.2989   23.8960 C   0  0  0  0  0  0  0  0  0  0  0  0
  -28.7566  -25.6129   18.4163 C   0  0  0  0  0  0  0  0  0  0  0  0
  -23.6529  -29.5249   20.0959 C   0  0  0  0  0  0  0  0  0  0  0  0
  -27.6076  -25.8790   19.1853 C   0  0  0  0  0  0  0  0  0  0  0  0
  -23.2358  -29.6856   21.4249 C   0  0  0  0  0  0  0  0  0  0  0  0
  -25.8837  -11.8829   21.4893 C   0  0  0  0  0  0  0  0  0  0  0  0
  -21.0929  -28.6859   20.8603 C   0  0  0  0  0  0  0  0  0  0  0  0
  -24.4928  -10.0640   20.9610 C   0  0  0  0  0  0  0  0  0  0  0  0
  -17.1979  -24.4542   22.9316 C   0  0  0  0  0  0  0  0  0  0  0  0
  -21.9338   -8.9575   20.8620 C   0  0  0  0  0  0  0  0  0  0  0  0
  -24.2086   -8.8993   21.6739 C   0  0  0  0  0  0  0  0  0  0  0  0
  -26.2621  -15.8247   22.9784 C   0  0  0  0  0  0  0  0  0  0  0  0
  -18.9010  -23.0192   23.0615 C   0  0  0  0  0  0  0  0  0  0  0  0
  -18.3639  -25.0632   22.5294 C   0  0  0  0  0  0  0  0  0  0  0  0
  -26.9166  -17.6299   24.0497 C   0  0  0  0  0  0  0  0  0  0  0  0
  -19.7133  -21.8797   23.2638 C   0  0  0  0  0  0  0  0  0  0  0  0
  -18.5436  -26.4502   22.0683 C   0  0  0  0  0  0  0  0  0  0  0  0
  -21.0699  -21.7892   23.0650 C   0  0  0  0  0  0  0  0  0  0  0  0
  -19.7033  -26.9872   21.6691 C   0  0  0  0  0  0  0  0  0  1  0  0
  -28.2847  -15.5988   24.5510 C   0  0  0  0  0  0  0  0  0  0  0  0
  -21.7818  -20.5234   23.3323 C   0  0  0  0  0  0  0  0  0  0  0  0
  -26.5066  -28.7366   21.2529 C   0  0  0  0  0  0  0  0  0  0  0  0
  -26.2692  -31.6138   22.7320 C   0  0  0  0  0  0  0  0  0  0  0  0
  -24.2600  -34.0998   23.9277 C   0  0  0  0  0  0  0  0  0  0  0  0
  -30.1294  -26.0483   18.8642 C   0  0  0  0  0  0  0  0  0  0  0  0
  -25.0128  -29.9987   19.6617 C   0  0  0  0  0  0  0  0  0  0  0  0
  -24.1311  -30.3008   22.4682 C   0  0  0  0  0  0  0  0  0  0  0  0
  -30.1042  -27.1360   19.9349 C   0  0  0  0  0  0  0  0  0  0  0  0
  -24.9843  -21.3319   21.7440 C   0  0  0  0  0  0  0  0  0  0  0  0
  -29.0999  -26.7857   21.0284 C   0  0  0  0  0  0  0  0  0  0  0  0
  -25.7437  -20.0210   21.9303 C   0  0  0  0  0  0  0  0  0  0  0  0
  -23.4898  -21.1008   21.5252 C   0  0  0  0  0  0  0  0  0  0  0  0
  -23.6110  -18.9672   22.7796 C   0  0  0  0  0  0  0  0  0  0  0  0
  -27.6784  -26.6893   20.4615 C   0  0  1  0  0  0  0  0  0  0  0  0
  -26.0109  -30.0849   20.8123 C   0  0  1  0  0  0  0  0  0  0  0  0
  -25.1092  -19.1786   23.0482 C   0  0  1  0  0  0  0  0  0  0  0  0
  -24.3533  -36.3065   25.1189 C   0  0  0  0  0  0  0  0  0  0  0  0
  -26.8313  -30.1688   25.3598 C   0  0  0  0  0  0  0  0  0  0  0  0
  -25.9846  -32.1894   26.5715 C   0  0  0  0  0  0  0  0  0  0  0  0
  -27.9970  -32.3670   25.1081 C   0  0  0  0  0  0  0  0  0  0  0  0
  -22.9882  -35.5102   21.6579 C   0  0  0  0  0  0  0  0  0  0  0  0
  -14.8835  -24.2245   23.4280 C   0  0  0  0  0  0  0  0  0  0  0  0
  -25.7162  -32.0951   24.0516 C   0  0  1  0  0  0  0  0  0  0  0  0
  -24.3206  -35.6082   23.7683 C   0  0  2  0  0  0  0  0  0  0  0  0
  -26.6159  -31.6917   25.2538 C   0  0  0  0  0  0  0  0  0  0  0  0
  -25.4158  -16.7770   22.5774 N   0  0  0  0  0  0  0  0  0  0  0  0
  -25.8394  -17.8629   23.2463 N   0  0  0  0  0  0  0  0  0  0  0  0
  -22.9182  -20.2443   22.5751 N   0  0  0  0  0  0  0  0  0  0  0  0
  -25.4537  -30.7427   21.9959 N   0  0  0  0  0  0  0  0  0  0  0  0
  -27.4701  -18.6120   24.7923 N   0  0  0  0  0  0  0  0  0  0  0  0
  -28.4539  -14.2342   24.2795 N   0  0  0  0  0  0  0  0  0  0  0  0
  -27.1265  -28.0109   20.2536 N   0  0  0  0  0  0  0  0  0  0  0  0
  -25.5171  -33.5335   23.9105 N   0  0  0  0  0  0  0  0  0  0  0  0
  -23.1316  -36.0976   23.0149 N   0  3  0  0  0  0  0  0  0  0  0  0
  -29.0540  -16.1627   25.3656 O   0  0  0  0  0  0  0  0  0  0  0  0
  -21.3234  -19.7870   24.2076 O   0  0  0  0  0  0  0  0  0  0  0  0
  -26.3403  -28.3816   22.4139 O   0  0  0  0  0  0  0  0  0  0  0  0
  -27.3808  -32.0023   22.3643 O   0  0  0  0  0  0  0  0  0  0  0  0
  -23.2034  -33.4857   24.0584 O   0  0  0  0  0  0  0  0  0  0  0  0
  -19.4067  -24.1953   22.6057 O   0  0  0  0  0  0  0  0  0  0  0  0
  -25.7624  -10.6149   21.0098 O   0  0  0  0  0  0  0  0  0  0  0  0
  -19.8513  -28.2750   21.2363 O   0  0  0  0  0  0  0  0  0  1  0  0
  -15.9866  -25.0266   22.9779 O   0  0  0  0  0  0  0  0  0  0  0  0
  -20.7047   -8.4272   20.8155 F   0  0  0  0  0  0  0  0  0  0  0  0
  -25.1602   -8.3079   22.4090 F   0  0  0  0  0  0  0  0  0  0  0  0
  1  2  1  0  0  0  0
  1  5  2  0  0  0  0
  2  6  2  0  0  0  0
  3  8  2  0  0  0  0
  3 16  1  0  0  0  0
  4  9  1  0  0  0  0
  4 16  2  0  0  0  0
  5 18  1  0  0  0  0
  6 20  1  0  0  0  0
  7 10  2  0  0  0  0
  7 19  1  0  0  0  0
  8 22  1  0  0  0  0
  9 22  2  0  0  0  0
 10 23  1  0  0  0  0
 11 12  2  0  0  0  0
 11 24  1  0  0  0  0
 12 26  1  0  0  0  0
 13 21  1  0  0  0  0
 13 23  2  0  0  0  0
 14 25  1  0  0  0  0
 14 29  2  0  0  0  0
 15 26  2  0  0  0  0
 15 27  1  0  0  0  0
 16 28  1  0  0  0  0
 17 28  1  0  0  0  0
 17 31  2  0  0  0  0
 17 36  1  0  0  0  0
 18 20  2  0  0  0  0
 18 41  1  0  0  0  0
 19 21  2  0  0  0  0
 19 42  1  0  0  0  0
 20 50  1  0  0  0  0
 21 43  1  0  0  0  0
 22 77  1  0  0  0  0
 23 78  1  0  0  0  0
 24 27  2  0  0  0  0
 24 77  1  0  0  0  0
 25 30  2  0  0  0  0
 25 79  1  0  0  0  0
 26 80  1  0  0  0  0
 27 81  1  0  0  0  0
 28 62  2  0  0  0  0
 29 32  1  0  0  0  0
 29 76  1  0  0  0  0
 30 33  1  0  0  0  0
 30 76  1  0  0  0  0
 31 63  1  0  0  0  0
 31 66  1  0  0  0  0
 32 34  2  0  0  0  0
 33 35  2  0  0  0  0
 34 37  1  0  0  0  0
 35 78  1  0  0  0  0
 36 67  1  0  0  0  0
 36 71  2  0  0  0  0
 37 64  1  0  0  0  0
 37 72  2  0  0  0  0
 38 51  1  0  0  0  0
 38 68  1  0  0  0  0
 38 73  2  0  0  0  0
 39 59  1  0  0  0  0
 39 65  1  0  0  0  0
 39 74  2  0  0  0  0
 40 60  1  0  0  0  0
 40 69  1  0  0  0  0
 40 75  2  0  0  0  0
 41 44  1  0  0  0  0
 42 51  1  0  0  0  0
 43 65  1  0  0  0  0
 44 46  1  0  0  0  0
 45 47  1  0  0  0  0
 45 48  1  0  0  0  0
 46 50  1  0  0  0  0
 47 52  1  0  0  0  0
 48 64  1  0  0  0  0
 49 52  1  0  0  0  0
 49 64  1  0  0  0  0
 50 68  1  0  0  0  0
 51 65  1  0  0  0  0
 52 63  1  0  0  0  0
 53 60  1  0  0  0  0
 54 61  1  0  0  0  0
 55 61  1  0  0  0  0
 56 61  1  0  0  0  0
 57 70  1  0  0  0  0
 58 79  1  0  0  0  0
 59 61  1  0  0  0  0
 59 69  1  0  0  0  0
 60 70  1  0  0  0  0
 62 63  1  0  0  0  0
M  CHG  1  70   1
M  ISO  4  34 100  35 101  37 100  78 101
M  END
> <Batch ID>
0116

> <Smiles>
CNC(C)C(=O)NC(C(=O)N1Cc2cc([101O:1][101CH:1]=Cc3oc(C=[100CH:0][100C:0](=O)N4CCCC(n5nc(-c6ccc(Oc7ccc(F)cc7F)cc6)c(C(N)=O)c5N)C4)cc3OC)ccc2CC1C(=O)NC1CCCc2ccccc21)C(C)(C)C

> <Shape>
0.260

> <Color>
0.078

> <Negative vol penalty>
0.000

$$$$

  -OEChem-04052301433D

 88 97  0     1  0  0  0  0  0999 V2000
  -21.3255  -27.4310   26.8155 C   0  0  0  0  0  0  0  0  0  0  0  0
  -22.2524  -27.0263   25.8603 C   0  0  0  0  0  0  0  0  0  0  0  0
  -26.4139  -16.4179   20.4999 C   0  0  0  0  0  0  0  0  0  0  0  0
  -24.2260  -15.4749   20.0989 C   0  0  0  0  0  0  0  0  0  0  0  0
  -20.1759  -28.1157   26.4235 C   0  0  0  0  0  0  0  0  0  0  0  0
  -22.0297  -27.3051   24.5123 C   0  0  0  0  0  0  0  0  0  0  0  0
  -26.1700  -29.0567   22.1810 C   0  0  0  0  0  0  0  0  0  0  0  0
  -26.9378  -15.1350   20.6588 C   0  0  0  0  0  0  0  0  0  0  0  0
  -24.7499  -14.1919   20.2577 C   0  0  0  0  0  0  0  0  0  0  0  0
  -27.1406  -28.1232   21.8202 C   0  0  0  0  0  0  0  0  0  0  0  0
  -27.9095  -12.5775   18.6718 C   0  0  0  0  0  0  0  0  0  0  0  0
  -29.1149  -12.2859   18.0334 C   0  0  0  0  0  0  0  0  0  0  0  0
  -26.3084  -28.1420   19.5561 C   0  0  0  0  0  0  0  0  0  0  0  0
  -26.7612  -23.4324   21.3534 C   0  0  0  0  0  0  0  0  0  0  0  0
  -25.8647  -23.8045   19.1410 C   0  0  0  0  0  0  0  0  0  0  0  0
  -24.4487  -24.0760   21.0796 C   0  0  0  0  0  0  0  0  0  0  0  0
  -30.1299  -11.8007   20.1715 C   0  0  0  0  0  0  0  0  0  0  0  0
  -25.0580  -16.5879   20.2201 C   0  0  0  0  0  0  0  0  0  0  0  0
  -24.4177  -18.6494   18.8607 C   0  0  0  0  0  0  0  0  0  0  0  0
  -19.9438  -28.4115   25.0710 C   0  0  0  0  0  0  0  0  0  0  0  0
  -25.2528  -29.5326   21.2330 C   0  0  0  0  0  0  0  0  0  0  0  0
  -20.8753  -27.9932   24.1017 C   0  0  0  0  0  0  0  0  0  0  0  0
  -25.3287  -29.0835   19.9068 C   0  0  0  0  0  0  0  0  0  0  0  0
  -26.9344  -23.4659   19.9697 C   0  0  0  0  0  0  0  0  0  0  0  0
  -25.5183  -23.7374   21.9083 C   0  0  0  0  0  0  0  0  0  0  0  0
  -26.1058  -14.0220   20.5376 C   0  0  0  0  0  0  0  0  0  0  0  0
  -27.2080  -27.6635   20.5083 C   0  0  0  0  0  0  0  0  0  0  0  0
  -27.8143  -12.4808   20.0601 C   0  0  0  0  0  0  0  0  0  0  0  0
  -30.2251  -11.8975   18.7832 C   0  0  0  0  0  0  0  0  0  0  0  0
  -24.6218  -24.1095   19.6959 C   0  0  0  0  0  0  0  0  0  0  0  0
  -28.9245  -12.0924   20.8099 C   0  0  0  0  0  0  0  0  0  0  0  0
  -24.5162  -17.9129   20.0564 C   0  0  0  0  0  0  0  0  0  0  0  0
  -23.8366  -19.8362   19.2354 C   0  0  0  0  0  0  0  0  0  0  0  0
  -30.1057  -24.3500   20.6058 C   0  0  0  0  0  0  0  0  0  0  0  0
  -24.8158  -18.2926   17.5304 C   0  0  0  0  0  0  0  0  0  0  0  0
  -22.0913  -29.4277   20.9210 C   0  0  0  0  0  0  0  0  0  0  0  0
  -22.6668  -31.3729   18.3899 C   0  0  0  0  0  0  0  0  0  0  0  0
  -24.8609  -32.4642   16.0145 C   0  0  0  0  0  0  0  0  0  0  0  0
  -24.1130  -23.3884   23.9564 C   0  0  0  0  0  0  0  0  0  0  0  0
  -18.6636  -29.1123   24.6906 C   0  0  0  0  0  0  0  0  0  0  0  0
  -24.2289  -30.5595   21.6320 C   0  0  0  0  0  0  0  0  0  0  0  0
  -24.3804  -29.5784   18.8465 C   0  0  0  0  0  0  0  0  0  0  0  0
  -30.8760  -25.6300   20.3925 C   0  0  0  0  0  0  0  0  0  0  0  0
  -18.6854  -29.6976   23.2809 C   0  0  0  0  0  0  0  0  0  0  0  0
  -30.6623  -25.9314   18.9120 C   0  0  0  0  0  0  0  0  0  0  0  0
  -21.1380  -21.3746   23.0693 C   0  0  0  0  0  0  0  0  0  0  0  0
  -19.2361  -28.6787   22.2882 C   0  0  0  0  0  0  0  0  0  0  0  0
  -21.7186  -20.2949   22.1579 C   0  0  0  0  0  0  0  0  0  0  0  0
  -22.1635  -21.8707   24.0841 C   0  0  0  0  0  0  0  0  0  0  0  0
  -24.0141  -21.2752   22.5471 C   0  0  0  0  0  0  0  0  0  0  0  0
  -20.6813  -28.2987   22.6323 C   0  0  1  0  0  0  0  0  0  0  0  0
  -23.0190  -30.5893   20.7032 C   0  0  1  0  0  0  0  0  0  0  0  0
  -23.0126  -20.7876   21.4894 C   0  0  1  0  0  0  0  0  0  0  0  0
  -29.2995  -25.3230   18.5957 C   0  0  2  0  0  0  0  0  0  0  0  0
  -27.2738  -23.1844   24.7732 C   0  0  0  0  0  0  0  0  0  0  0  0
  -25.0317  -34.0312   14.0619 C   0  0  0  0  0  0  0  0  0  0  0  0
  -21.0711  -29.4130   16.6804 C   0  0  0  0  0  0  0  0  0  0  0  0
  -22.0607  -30.4883   14.6476 C   0  0  0  0  0  0  0  0  0  0  0  0
  -20.6276  -31.8250   16.1909 C   0  0  0  0  0  0  0  0  0  0  0  0
  -27.0113  -34.0306   17.3111 C   0  0  0  0  0  0  0  0  0  0  0  0
  -28.2721  -23.1382   19.3720 C   0  0  0  0  0  0  0  0  0  0  0  0
  -28.1658  -26.3242   18.7921 C   0  0  0  0  0  0  0  0  0  1  0  0
  -26.3964  -24.2657   24.1756 C   0  0  0  0  0  0  0  0  0  0  0  0
  -22.9549  -31.1619   16.9231 C   0  0  1  0  0  0  0  0  0  0  0  0
  -25.2392  -33.8620   15.5589 C   0  0  2  0  0  0  0  0  0  0  0  0
  -21.6954  -30.7111   16.1307 C   0  0  0  0  0  0  0  0  0  0  0  0
  -24.0362  -18.5764   21.1117 N   0  0  0  0  0  0  0  0  0  0  0  0
  -23.6307  -19.7422   20.5803 N   0  0  0  0  0  0  0  0  0  0  0  0
  -29.2200  -24.2211   19.5380 N   0  0  0  0  0  0  0  0  0  0  0  0
  -23.3930  -30.5774   19.2874 N   0  0  0  0  0  0  0  0  0  0  0  0
  -23.4119  -22.2800   23.4386 N   0  0  0  0  0  0  0  0  0  0  0  0
  -23.4869  -20.9406   18.5422 N   0  0  0  0  0  0  0  0  0  0  0  0
  -25.3971  -17.0345   17.3217 N   0  0  0  0  0  0  0  0  0  0  0  0
  -21.5925  -29.3394   22.2067 N   0  0  0  0  0  0  0  0  0  0  0  0
  -23.5512  -32.4032   16.4414 N   0  0  0  0  0  0  0  0  0  0  0  0
  -25.3389  -23.7025   23.3392 N   0  0  0  0  0  0  0  0  0  0  0  0
  -26.6705  -34.1382   15.8692 N   0  3  0  0  0  0  0  0  0  0  0  0
  -30.2401  -23.6119   21.5704 O   0  0  0  0  0  0  0  0  0  0  0  0
  -24.6756  -19.0730   16.5583 O   0  0  0  0  0  0  0  0  0  0  0  0
  -21.8449  -28.6685   19.9912 O   0  0  0  0  0  0  0  0  0  0  0  0
  -21.8336  -32.2177   18.7271 O   0  0  0  0  0  0  0  0  0  0  0  0
  -25.6473  -31.5200   15.9904 O   0  0  0  0  0  0  0  0  0  0  0  0
  -23.7036  -24.0217   24.9372 O   0  0  0  0  0  0  0  0  0  0  0  0
  -26.6167  -12.7699   20.6923 O   0  0  0  0  0  0  0  0  0  0  0  0
  -28.1540  -26.7518   20.1535 O   0  0  0  0  0  0  0  0  0  1  0  0
  -31.3821  -11.6159   18.1699 F   0  0  0  0  0  0  0  0  0  0  0  0
  -23.5947  -24.4347   18.9000 F   0  0  0  0  0  0  0  0  0  0  0  0
  -28.8388  -11.9965   22.1438 F   0  0  0  0  0  0  0  0  0  0  0  0
  1  2  1  0  0  0  0
  1  5  2  0  0  0  0
  2  6  2  0  0  0  0
  3  8  2  0  0  0  0
  3 18  1  0  0  0  0
  4  9  1  0  0  0  0
  4 18  2  0  0  0  0
  5 20  1  0  0  0  0
  6 22  1  0  0  0  0
  7 10  2  0  0  0  0
  7 21  1  0  0  0  0
  8 26  1  0  0  0  0
  9 26  2  0  0  0  0
 10 27  1  0  0  0  0
 11 12  2  0  0  0  0
 11 28  1  0  0  0  0
 12 29  1  0  0  0  0
 13 23  1  0  0  0  0
 13 27  2  0  0  0  0
 14 24  1  0  0  0  0
 14 25  2  0  0  0  0
 15 24  2  0  0  0  0
 15 30  1  0  0  0  0
 16 25  1  0  0  0  0
 16 30  2  0  0  0  0
 17 29  2  0  0  0  0
 17 31  1  0  0  0  0
 18 32  1  0  0  0  0
 19 32  1  0  0  0  0
 19 33  2  0  0  0  0
 19 35  1  0  0  0  0
 20 22  2  0  0  0  0
 20 40  1  0  0  0  0
 21 23  2  0  0  0  0
 21 41  1  0  0  0  0
 22 51  1  0  0  0  0
 23 42  1  0  0  0  0
 24 61  1  0  0  0  0
 25 76  1  0  0  0  0
 26 84  1  0  0  0  0
 27 85  1  0  0  0  0
 28 31  2  0  0  0  0
 28 84  1  0  0  0  0
 29 86  1  0  0  0  0
 30 87  1  0  0  0  0
 31 88  1  0  0  0  0
 32 67  2  0  0  0  0
 33 68  1  0  0  0  0
 33 72  1  0  0  0  0
 34 43  1  0  0  0  0
 34 69  1  0  0  0  0
 34 78  2  0  0  0  0
 35 73  1  0  0  0  0
 35 79  2  0  0  0  0
 36 52  1  0  0  0  0
 36 74  1  0  0  0  0
 36 80  2  0  0  0  0
 37 64  1  0  0  0  0
 37 70  1  0  0  0  0
 37 81  2  0  0  0  0
 38 65  1  0  0  0  0
 38 75  1  0  0  0  0
 38 82  2  0  0  0  0
 39 71  1  0  0  0  0
 39 76  1  0  0  0  0
 39 83  2  0  0  0  0
 40 44  1  0  0  0  0
 41 52  1  0  0  0  0
 42 70  1  0  0  0  0
 43 45  1  0  0  0  0
 44 47  1  0  0  0  0
 45 54  1  0  0  0  0
 46 48  1  0  0  0  0
 46 49  1  0  0  0  0
 47 51  1  0  0  0  0
 48 53  1  0  0  0  0
 49 71  1  0  0  0  0
 50 53  1  0  0  0  0
 50 71  1  0  0  0  0
 51 74  1  0  0  0  0
 52 70  1  0  0  0  0
 53 68  1  0  0  0  0
 54 62  1  0  0  0  0
 54 69  1  0  0  0  0
 55 63  1  0  0  0  0
 56 65  1  0  0  0  0
 57 66  1  0  0  0  0
 58 66  1  0  0  0  0
 59 66  1  0  0  0  0
 60 77  1  0  0  0  0
 61 69  1  0  0  0  0
 62 85  1  0  0  0  0
 63 76  1  0  0  0  0
 64 66  1  0  0  0  0
 64 75  1  0  0  0  0
 65 77  1  0  0  0  0
 67 68  1  0  0  0  0
M  CHG  1  77   1
M  ISO  4  39 100  62 101  76 100  85 101
M  END
> <Batch ID>
0116

> <Smiles>
CC[100N:0](c1cc(F)cc(CN2C(=O)CCC2[101CH2:1][101O:1]c2ccc3c(c2)CN(C(=O)C(NC(=O)C(C)NC)C(C)(C)C)C(C(=O)NC2CCCc4ccccc42)C3)c1)[100C:0](=O)N1CCCC(n2nc(-c3ccc(Oc4ccc(F)cc4F)cc3)c(C(N)=O)c2N)C1

> <Shape>
0.204

> <Color>
0.075

> <Negative vol penalty>
0.000

$$$$

  -OEChem-04052301433D

 85 93  0     1  0  0  0  0  0999 V2000
  -27.1119  -36.4942   21.0807 C   0  0  0  0  0  0  0  0  0  0  0  0
  -27.5313  -35.1710   21.1744 C   0  0  0  0  0  0  0  0  0  0  0  0
  -23.5258  -12.9631   22.4690 C   0  0  0  0  0  0  0  0  0  0  0  0
  -25.1422  -11.8741   21.0412 C   0  0  0  0  0  0  0  0  0  0  0  0
  -25.8837  -36.8749   21.6198 C   0  0  0  0  0  0  0  0  0  0  0  0
  -26.7231  -34.2279   21.8084 C   0  0  0  0  0  0  0  0  0  0  0  0
  -26.3944  -29.8922   19.2125 C   0  0  0  0  0  0  0  0  0  0  0  0
  -22.8446  -11.7553   22.6191 C   0  0  0  0  0  0  0  0  0  0  0  0
  -24.4609  -10.6662   21.1913 C   0  0  0  0  0  0  0  0  0  0  0  0
  -27.4743  -29.0147   19.2994 C   0  0  0  0  0  0  0  0  0  0  0  0
  -24.2030   -8.2259   23.5148 C   0  0  0  0  0  0  0  0  0  0  0  0
  -24.9614   -7.0828   23.7674 C   0  0  0  0  0  0  0  0  0  0  0  0
  -30.4823  -20.5900   21.3119 C   0  0  0  0  0  0  0  0  0  0  0  0
  -29.1815  -20.6157   19.2762 C   0  0  0  0  0  0  0  0  0  0  0  0
  -26.2690  -27.7022   20.9254 C   0  0  0  0  0  0  0  0  0  0  0  0
  -24.1130   -6.0724   21.7435 C   0  0  0  0  0  0  0  0  0  0  0  0
  -24.6746  -13.0226   21.6801 C   0  0  0  0  0  0  0  0  0  0  0  0
  -30.9013  -19.2903   21.0278 C   0  0  0  0  0  0  0  0  0  0  0  0
  -29.6005  -19.3159   18.9920 C   0  0  0  0  0  0  0  0  0  0  0  0
  -26.4225  -14.7635   22.3295 C   0  0  0  0  0  0  0  0  0  0  0  0
  -25.0558  -35.9340   22.2521 C   0  0  0  0  0  0  0  0  0  0  0  0
  -25.2461  -29.6871   19.9908 C   0  0  0  0  0  0  0  0  0  0  0  0
  -25.4833  -34.5966   22.3576 C   0  0  0  0  0  0  0  0  0  0  0  0
  -25.1749  -28.5771   20.8447 C   0  0  0  0  0  0  0  0  0  0  0  0
  -30.4604  -18.6532   19.8679 C   0  0  0  0  0  0  0  0  0  0  0  0
  -23.3121  -10.6068   21.9802 C   0  0  0  0  0  0  0  0  0  0  0  0
  -27.4128  -27.9210   20.1581 C   0  0  0  0  0  0  0  0  0  0  0  0
  -23.3994   -8.2922   22.3765 C   0  0  0  0  0  0  0  0  0  0  0  0
  -29.6223  -21.2527   20.4361 C   0  0  0  0  0  0  0  0  0  0  0  0
  -24.9164   -6.0061   22.8818 C   0  0  0  0  0  0  0  0  0  0  0  0
  -23.3545   -7.2155   21.4908 C   0  0  0  0  0  0  0  0  0  0  0  0
  -25.3785  -14.2701   21.5242 C   0  0  0  0  0  0  0  0  0  0  0  0
  -26.7452  -15.9752   21.7691 C   0  0  0  0  0  0  0  0  0  0  0  0
  -31.4862  -18.3759   23.2272 C   0  0  0  0  0  0  0  0  0  0  0  0
  -31.8019  -18.6325   21.9673 C   0  0  0  0  0  0  0  0  0  0  0  0
  -29.1898  -24.7950   19.9651 C   0  0  0  0  0  0  0  0  0  0  0  0
  -28.2546  -25.7511   19.9270 C   0  0  0  0  0  0  0  0  0  1  0  0
  -29.1205  -18.6815   17.7704 C   0  0  0  0  0  0  0  0  0  0  0  0
  -27.0451  -14.1787   23.4810 C   0  0  0  0  0  0  0  0  0  0  0  0
  -27.7981  -19.0208   17.1966 C   0  0  0  0  0  0  0  0  0  0  0  0
  -23.7538  -31.3327   22.2643 C   0  0  0  0  0  0  0  0  0  0  0  0
  -21.5433  -28.9763   21.9762 C   0  0  0  0  0  0  0  0  0  0  0  0
  -20.8321  -25.7677   21.0564 C   0  0  0  0  0  0  0  0  0  0  0  0
  -23.7580  -36.4024   22.8613 C   0  0  0  0  0  0  0  0  0  0  0  0
  -24.0793  -30.6279   19.8657 C   0  0  0  0  0  0  0  0  0  0  0  0
  -23.9569  -28.3010   21.6865 C   0  0  0  0  0  0  0  0  0  0  0  0
  -22.7926  -35.2655   23.1866 C   0  0  0  0  0  0  0  0  0  0  0  0
  -24.3837  -18.7211   18.2499 C   0  0  0  0  0  0  0  0  0  0  0  0
  -23.5226  -34.1336   23.9026 C   0  0  0  0  0  0  0  0  0  0  0  0
  -24.4187  -17.5510   19.2323 C   0  0  0  0  0  0  0  0  0  0  0  0
  -25.3857  -18.5284   17.1161 C   0  0  0  0  0  0  0  0  0  0  0  0
  -26.8283  -17.1288   18.5682 C   0  0  0  0  0  0  0  0  0  0  0  0
  -24.6236  -33.5394   23.0159 C   0  0  1  0  0  0  0  0  0  0  0  0
  -23.1640  -30.6104   21.0861 C   0  0  1  0  0  0  0  0  0  0  0  0
  -25.8491  -17.3009   19.7425 C   0  0  2  0  0  0  0  0  0  0  0  0
  -18.9463  -24.1142   20.9735 C   0  0  0  0  0  0  0  0  0  0  0  0
  -21.7869  -28.5511   24.9878 C   0  0  0  0  0  0  0  0  0  0  0  0
  -20.6515  -26.3388   24.6971 C   0  0  0  0  0  0  0  0  0  0  0  0
  -19.4497  -28.4430   24.1047 C   0  0  0  0  0  0  0  0  0  0  0  0
  -21.0188  -25.5269   18.1125 C   0  0  0  0  0  0  0  0  0  0  0  0
  -28.9256  -23.3689   19.6043 C   0  0  0  0  0  0  0  0  0  0  0  0
  -21.3275  -27.6283   22.6207 C   0  0  1  0  0  0  0  0  0  0  0  0
  -19.7114  -25.1864   20.2134 C   0  0  2  0  0  0  0  0  0  0  0  0
  -20.8277  -27.7463   24.0883 C   0  0  0  0  0  0  0  0  0  0  0  0
  -25.0590  -15.1007   20.5282 N   0  0  0  0  0  0  0  0  0  0  0  0
  -29.8087  -17.7917   17.1111 N   0  0  0  0  0  0  0  0  0  0  0  0
  -25.9072  -16.1282   20.7039 N   0  0  0  0  0  0  0  0  0  0  0  0
  -26.7250  -18.2574   17.6347 N   0  0  0  0  0  0  0  0  0  0  0  0
  -22.8445  -29.2533   21.5336 N   0  0  0  0  0  0  0  0  0  0  0  0
  -30.8844  -17.3350   19.5718 N   0  0  0  0  0  0  0  0  0  0  0  0
  -27.6610  -16.9142   22.0885 N   0  0  0  0  0  0  0  0  0  0  0  0
  -26.5919  -12.9282   23.9229 N   0  0  0  0  0  0  0  0  0  0  0  0
  -24.0506  -32.6600   22.0196 N   0  0  0  0  0  0  0  0  0  0  0  0
  -20.4257  -26.8943   21.7396 N   0  0  0  0  0  0  0  0  0  0  0  0
  -20.2613  -24.5783   18.9689 N   0  3  0  0  0  0  0  0  0  0  0  0
  -27.9647  -14.7556   24.1096 O   0  0  0  0  0  0  0  0  0  0  0  0
  -27.7932  -19.9436   16.3923 O   0  0  0  0  0  0  0  0  0  0  0  0
  -23.9255  -30.7309   23.3179 O   0  0  0  0  0  0  0  0  0  0  0  0
  -20.5909  -29.7519   21.8630 O   0  0  0  0  0  0  0  0  0  0  0  0
  -21.9547  -25.2699   21.1068 O   0  0  0  0  0  0  0  0  0  0  0  0
  -22.6477   -9.4280   22.1266 O   0  0  0  0  0  0  0  0  0  0  0  0
  -28.4657  -27.0633   20.2453 O   0  0  0  0  0  0  0  0  0  1  0  0
  -29.2103  -22.5295   20.7157 O   0  0  0  0  0  0  0  0  0  0  0  0
  -25.6460   -4.9092   23.1238 F   0  0  0  0  0  0  0  0  0  0  0  0
  -22.5853   -7.2738   20.3950 F   0  0  0  0  0  0  0  0  0  0  0  0
  1  2  1  0  0  0  0
  1  5  2  0  0  0  0
  2  6  2  0  0  0  0
  3  8  2  0  0  0  0
  3 17  1  0  0  0  0
  4  9  1  0  0  0  0
  4 17  2  0  0  0  0
  5 21  1  0  0  0  0
  6 23  1  0  0  0  0
  7 10  2  0  0  0  0
  7 22  1  0  0  0  0
  8 26  1  0  0  0  0
  9 26  2  0  0  0  0
 10 27  1  0  0  0  0
 11 12  2  0  0  0  0
 11 28  1  0  0  0  0
 12 30  1  0  0  0  0
 13 18  1  0  0  0  0
 13 29  2  0  0  0  0
 14 19  2  0  0  0  0
 14 29  1  0  0  0  0
 15 24  1  0  0  0  0
 15 27  2  0  0  0  0
 16 30  2  0  0  0  0
 16 31  1  0  0  0  0
 17 32  1  0  0  0  0
 18 25  2  0  0  0  0
 18 35  1  0  0  0  0
 19 25  1  0  0  0  0
 19 38  1  0  0  0  0
 20 32  1  0  0  0  0
 20 33  2  0  0  0  0
 20 39  1  0  0  0  0
 21 23  2  0  0  0  0
 21 44  1  0  0  0  0
 22 24  2  0  0  0  0
 22 45  1  0  0  0  0
 23 53  1  0  0  0  0
 24 46  1  0  0  0  0
 25 70  1  0  0  0  0
 26 81  1  0  0  0  0
 27 82  1  0  0  0  0
 28 31  2  0  0  0  0
 28 81  1  0  0  0  0
 29 83  1  0  0  0  0
 30 84  1  0  0  0  0
 31 85  1  0  0  0  0
 32 65  2  0  0  0  0
 33 67  1  0  0  0  0
 33 71  1  0  0  0  0
 34 35  2  0  0  0  0
 36 37  2  0  0  0  0
 36 61  1  0  0  0  0
 37 82  1  0  0  0  0
 38 40  1  0  0  0  0
 38 66  2  0  0  0  0
 39 72  1  0  0  0  0
 39 76  2  0  0  0  0
 40 68  1  0  0  0  0
 40 77  2  0  0  0  0
 41 54  1  0  0  0  0
 41 73  1  0  0  0  0
 41 78  2  0  0  0  0
 42 62  1  0  0  0  0
 42 69  1  0  0  0  0
 42 79  2  0  0  0  0
 43 63  1  0  0  0  0
 43 74  1  0  0  0  0
 43 80  2  0  0  0  0
 44 47  1  0  0  0  0
 45 54  1  0  0  0  0
 46 69  1  0  0  0  0
 47 49  1  0  0  0  0
 48 50  1  0  0  0  0
 48 51  1  0  0  0  0
 49 53  1  0  0  0  0
 50 55  1  0  0  0  0
 51 68  1  0  0  0  0
 52 55  1  0  0  0  0
 52 68  1  0  0  0  0
 53 73  1  0  0  0  0
 54 69  1  0  0  0  0
 55 67  1  0  0  0  0
 56 63  1  0  0  0  0
 57 64  1  0  0  0  0
 58 64  1  0  0  0  0
 59 64  1  0  0  0  0
 60 75  1  0  0  0  0
 61 83  1  0  0  0  0
 62 64  1  0  0  0  0
 62 74  1  0  0  0  0
 63 75  1  0  0  0  0
 65 67  1  0  0  0  0
M  CHG  1  75   1
M  ISO  4  37 101  38 100  40 100  82 101
M  END
> <Batch ID>
0116

> <Smiles>
C=Cc1cc(OCC=[101CH:1][101O:1]c2ccc3c(c2)CN(C(=O)C(NC(=O)C(C)NC)C(C)(C)C)C(C(=O)NC2CCCc4ccccc42)C3)cc([100C:0](=N)[100C:0](=O)N2CCCC(n3nc(-c4ccc(Oc5ccc(F)cc5F)cc4)c(C(N)=O)c3N)C2)c1N

> <Shape>
0.272

> <Color>
0.065

> <Negative vol penalty>
0.000

$$$$

  -OEChem-04052301433D

 88 97  0     1  0  0  0  0  0999 V2000
  -27.2390  -32.2973   23.0236 C   0  0  0  0  0  0  0  0  0  0  0  0
  -27.7194  -30.9965   23.1357 C   0  0  0  0  0  0  0  0  0  0  0  0
  -23.7251  -11.6361   20.1062 C   0  0  0  0  0  0  0  0  0  0  0  0
  -24.9489  -13.2701   21.3983 C   0  0  0  0  0  0  0  0  0  0  0  0
  -26.0970  -32.5546   22.2663 C   0  0  0  0  0  0  0  0  0  0  0  0
  -27.0573  -29.9520   22.4914 C   0  0  0  0  0  0  0  0  0  0  0  0
  -29.5952  -24.9707   19.9910 C   0  0  0  0  0  0  0  0  0  0  0  0
  -28.1377  -18.6976   16.9729 C   0  0  0  0  0  0  0  0  0  0  0  0
  -24.9127  -10.9521   19.8464 C   0  0  0  0  0  0  0  0  0  0  0  0
  -26.1364  -12.5861   21.1385 C   0  0  0  0  0  0  0  0  0  0  0  0
  -29.7549  -23.6659   20.4553 C   0  0  0  0  0  0  0  0  0  0  0  0
  -28.3365  -12.2941   18.5880 C   0  0  0  0  0  0  0  0  0  0  0  0
  -27.0864  -18.9492   16.0914 C   0  0  0  0  0  0  0  0  0  0  0  0
  -29.4493  -13.0469   18.2129 C   0  0  0  0  0  0  0  0  0  0  0  0
  -27.7507  -23.0101   19.2838 C   0  0  0  0  0  0  0  0  0  0  0  0
  -26.5500  -18.1656   18.7145 C   0  0  0  0  0  0  0  0  0  0  0  0
  -30.6542  -12.2259   20.1394 C   0  0  0  0  0  0  0  0  0  0  0  0
  -23.7432  -12.7951   20.8821 C   0  0  0  0  0  0  0  0  0  0  0  0
  -21.3761  -13.0064   21.8094 C   0  0  0  0  0  0  0  0  0  0  0  0
  -25.4261  -31.5142   21.6045 C   0  0  0  0  0  0  0  0  0  0  0  0
  -28.5042  -25.3081   19.1772 C   0  0  0  0  0  0  0  0  0  0  0  0
  -25.9044  -30.1955   21.7256 C   0  0  0  0  0  0  0  0  0  0  0  0
  -27.5808  -24.3194   18.8084 C   0  0  0  0  0  0  0  0  0  0  0  0
  -27.8695  -18.3057   18.2845 C   0  0  0  0  0  0  0  0  0  0  0  0
  -25.4987  -18.4173   17.8330 C   0  0  0  0  0  0  0  0  0  0  0  0
  -26.1183  -11.4271   20.3626 C   0  0  0  0  0  0  0  0  0  0  0  0
  -28.8311  -22.6860   20.1041 C   0  0  0  0  0  0  0  0  0  0  0  0
  -28.3826  -11.5072   19.7389 C   0  0  0  0  0  0  0  0  0  0  0  0
  -30.6081  -13.0128   18.9885 C   0  0  0  0  0  0  0  0  0  0  0  0
  -25.7669  -18.8091   16.5214 C   0  0  0  0  0  0  0  0  0  0  0  0
  -29.5414  -11.4731   20.5145 C   0  0  0  0  0  0  0  0  0  0  0  0
  -22.5169  -13.5024   21.1503 C   0  0  0  0  0  0  0  0  0  0  0  0
  -20.4944  -14.0595   21.8091 C   0  0  0  0  0  0  0  0  0  0  0  0
  -30.7732  -18.6972   21.6368 C   0  0  0  0  0  0  0  0  0  0  0  0
  -30.3965  -19.4663   20.6017 C   0  0  0  0  0  0  0  0  0  0  0  0
  -30.8799  -17.2192   21.6142 C   0  0  0  0  0  0  0  0  0  0  0  0
  -21.1351  -11.7097   22.3716 C   0  0  0  0  0  0  0  0  0  0  0  0
  -26.0346  -27.2913   19.4449 C   0  0  0  0  0  0  0  0  0  0  0  0
  -25.4824  -26.3956   16.3765 C   0  0  0  0  0  0  0  0  0  0  0  0
  -24.3572  -25.5537   13.2665 C   0  0  0  0  0  0  0  0  0  0  0  0
  -23.7096  -17.8938   19.5403 C   0  0  0  0  0  0  0  0  0  0  0  0
  -24.1685  -31.8344   20.8361 C   0  0  0  0  0  0  0  0  0  0  0  0
  -28.3607  -26.7142   18.6627 C   0  0  0  0  0  0  0  0  0  0  0  0
  -26.4034  -24.6255   17.9205 C   0  0  0  0  0  0  0  0  0  0  0  0
  -30.0010  -16.3880   20.7055 C   0  0  0  0  0  0  0  0  0  0  0  0
  -23.7409  -30.7254   19.8781 C   0  0  0  0  0  0  0  0  0  0  0  0
  -19.9057  -17.8778   18.9111 C   0  0  0  0  0  0  0  0  0  0  0  0
  -23.7993  -29.3684   20.5723 C   0  0  0  0  0  0  0  0  0  0  0  0
  -19.7744  -16.5275   19.6042 C   0  0  0  0  0  0  0  0  0  0  0  0
  -28.7192  -17.0585   20.2345 C   0  0  0  0  0  0  0  0  0  0  0  0
  -21.3663  -18.1561   18.5669 C   0  0  0  0  0  0  0  0  0  0  0  0
  -21.7008  -17.5555   20.9669 C   0  0  0  0  0  0  0  0  0  0  0  0
  -25.2282  -29.0394   21.0212 C   0  0  1  0  0  0  0  0  0  0  0  0
  -30.0738  -18.9850   19.1959 C   0  0  1  0  0  0  0  0  0  0  0  0
  -26.9303  -27.0604   18.2608 C   0  0  1  0  0  0  0  0  0  0  0  0
  -20.5985  -16.4782   20.9063 C   0  0  2  0  0  0  0  0  0  0  0  0
  -31.2983  -18.4224   18.4654 C   0  0  0  0  0  0  0  0  0  0  0  0
  -22.2787  -25.5406   11.8604 C   0  0  0  0  0  0  0  0  0  0  0  0
  -24.4621  -23.9641   17.9117 C   0  0  0  0  0  0  0  0  0  0  0  0
  -22.9836  -23.4396   15.9605 C   0  0  0  0  0  0  0  0  0  0  0  0
  -22.6839  -25.5770   17.2111 C   0  0  0  0  0  0  0  0  0  0  0  0
  -25.5615  -27.3688   11.2630 C   0  0  0  0  0  0  0  0  0  0  0  0
  -30.3180  -20.9614   20.7903 C   0  0  0  0  0  0  0  0  0  1  0  0
  -24.6979  -25.2915   15.7098 C   0  0  1  0  0  0  0  0  0  0  0  0
  -23.5235  -26.3199   12.2554 C   0  0  2  0  0  0  0  0  0  0  0  0
  -23.7350  -24.5704   16.6949 C   0  0  0  0  0  0  0  0  0  0  0  0
  -22.3755  -14.7718   20.7596 N   0  0  0  0  0  0  0  0  0  0  0  0
  -21.1355  -15.0823   21.1743 N   0  0  0  0  0  0  0  0  0  0  0  0
  -28.9301  -18.0513   19.1734 N   0  0  3  0  0  0  0  0  0  0  0  0
  -26.3031  -26.0163   17.4481 N   0  0  0  0  0  0  0  0  0  0  0  0
  -22.2982  -17.8448   19.6608 N   0  0  0  0  0  0  0  0  0  0  0  0
  -19.2409  -14.2010   22.2899 N   0  0  0  0  0  0  0  0  0  0  0  0
  -21.4794  -11.4881   23.7120 N   0  0  0  0  0  0  0  0  0  0  0  0
  -24.1584  -18.2742   18.2726 N   0  0  0  0  0  0  0  0  0  0  0  0
  -26.0226  -28.5977   19.8951 N   0  0  0  0  0  0  0  0  0  0  0  0
  -24.0335  -25.8987   14.5617 N   0  0  0  0  0  0  0  0  0  0  0  0
  -24.3198  -26.5887   11.0248 N   0  3  0  0  0  0  0  0  0  0  0  0
  -31.6946  -16.6762   22.3632 O   0  0  0  0  0  0  0  0  0  0  0  0
  -20.6445  -10.7703   21.7004 O   0  0  0  0  0  0  0  0  0  0  0  0
  -25.4000  -26.3539   19.9143 O   0  0  0  0  0  0  0  0  0  0  0  0
  -25.3765  -27.5508   15.9572 O   0  0  0  0  0  0  0  0  0  0  0  0
  -25.2077  -24.7287   12.9401 O   0  0  0  0  0  0  0  0  0  0  0  0
  -24.4504  -17.6235   20.4878 O   0  0  0  0  0  0  0  0  0  0  0  0
  -27.2773  -10.7598   20.1095 O   0  0  0  0  0  0  0  0  0  0  0  0
  -28.9843  -21.4117   20.5565 O   0  0  0  0  0  0  0  0  0  1  0  0
  -31.6771  -13.7345   18.6273 F   0  0  0  0  0  0  0  0  0  0  0  0
  -24.7644  -19.0538   15.6655 F   0  0  0  0  0  0  0  0  0  0  0  0
  -29.5920  -10.7181   21.6205 F   0  0  0  0  0  0  0  0  0  0  0  0
  1  2  1  0  0  0  0
  1  5  2  0  0  0  0
  2  6  2  0  0  0  0
  3  9  2  0  0  0  0
  3 18  1  0  0  0  0
  4 10  1  0  0  0  0
  4 18  2  0  0  0  0
  5 20  1  0  0  0  0
  6 22  1  0  0  0  0
  7 11  2  0  0  0  0
  7 21  1  0  0  0  0
  8 13  2  0  0  0  0
  8 24  1  0  0  0  0
  9 26  1  0  0  0  0
 10 26  2  0  0  0  0
 11 27  1  0  0  0  0
 12 14  2  0  0  0  0
 12 28  1  0  0  0  0
 13 30  1  0  0  0  0
 14 29  1  0  0  0  0
 15 23  1  0  0  0  0
 15 27  2  0  0  0  0
 16 24  2  0  0  0  0
 16 25  1  0  0  0  0
 17 29  2  0  0  0  0
 17 31  1  0  0  0  0
 18 32  1  0  0  0  0
 19 32  1  0  0  0  0
 19 33  2  0  0  0  0
 19 37  1  0  0  0  0
 20 22  2  0  0  0  0
 20 42  1  0  0  0  0
 21 23  2  0  0  0  0
 21 43  1  0  0  0  0
 22 53  1  0  0  0  0
 23 44  1  0  0  0  0
 24 69  1  0  0  0  0
 25 30  2  0  0  0  0
 25 74  1  0  0  0  0
 26 84  1  0  0  0  0
 27 85  1  0  0  0  0
 28 31  2  0  0  0  0
 28 84  1  0  0  0  0
 29 86  1  0  0  0  0
 30 87  1  0  0  0  0
 31 88  1  0  0  0  0
 32 67  2  0  0  0  0
 33 68  1  0  0  0  0
 33 72  1  0  0  0  0
 34 35  2  0  0  0  0
 34 36  1  0  0  0  0
 35 54  1  0  0  0  0
 35 63  1  0  0  0  0
 36 45  1  0  0  0  0
 36 78  2  0  0  0  0
 37 73  1  0  0  0  0
 37 79  2  0  0  0  0
 38 55  1  0  0  0  0
 38 75  1  0  0  0  0
 38 80  2  0  0  0  0
 39 64  1  0  0  0  0
 39 70  1  0  0  0  0
 39 81  2  0  0  0  0
 40 65  1  0  0  0  0
 40 76  1  0  0  0  0
 40 82  2  0  0  0  0
 41 71  1  0  0  0  0
 41 74  1  0  0  0  0
 41 83  2  0  0  0  0
 42 46  1  0  0  0  0
 43 55  1  0  0  0  0
 44 70  1  0  0  0  0
 45 50  1  0  0  0  0
 46 48  1  0  0  0  0
 47 49  1  0  0  0  0
 47 51  1  0  0  0  0
 48 53  1  0  0  0  0
 49 56  1  0  0  0  0
 50 69  1  0  0  0  0
 51 71  1  0  0  0  0
 52 56  1  0  0  0  0
 52 71  1  0  0  0  0
 53 75  1  0  0  0  0
 54 57  1  0  0  0  0
 54 69  1  0  0  0  0
 55 70  1  0  0  0  0
 56 68  1  0  0  0  0
 58 65  1  0  0  0  0
 59 66  1  0  0  0  0
 60 66  1  0  0  0  0
 61 66  1  0  0  0  0
 62 77  1  0  0  0  0
 63 85  1  0  0  0  0
 64 66  1  0  0  0  0
 64 76  1  0  0  0  0
 65 77  1  0  0  0  0
 67 68  1  0  0  0  0
M  CHG  1  77   1
M  ISO  4  41 100  63 101  74 100  85 101
M  END
> <Batch ID>
0116

> <Smiles>
CNC(C)C(=O)NC(C(=O)N1Cc2cc([101O:1][101CH2:1]C3=C(C)N(c4ccc(F)c([100NH:0][100C:0](=O)N5CCCC(n6nc(-c7ccc(Oc8ccc(F)cc8F)cc7)c(C(N)=O)c6N)C5)c4)CCC(=O)C3)ccc2CC1C(=O)NC1CCCc2ccccc21)C(C)(C)C

> <Shape>
0.244

> <Color>
0.065

> <Negative vol penalty>
0.000

$$$$

  -OEChem-04052301433D

 85 93  0     1  0  0  0  0  0999 V2000
  -14.7635  -26.3063   18.6148 C   0  0  0  0  0  0  0  0  0  0  0  0
  -15.4811  -25.1636   18.9535 C   0  0  0  0  0  0  0  0  0  0  0  0
  -23.0552   -9.8804   19.9566 C   0  0  0  0  0  0  0  0  0  0  0  0
  -23.8671   -9.8742   22.2321 C   0  0  0  0  0  0  0  0  0  0  0  0
  -15.3117  -27.5669   18.8477 C   0  0  0  0  0  0  0  0  0  0  0  0
  -16.7479  -25.2809   19.5243 C   0  0  0  0  0  0  0  0  0  0  0  0
  -19.2414  -21.6040   23.7396 C   0  0  0  0  0  0  0  0  0  0  0  0
  -22.3168   -8.7260   20.2169 C   0  0  0  0  0  0  0  0  0  0  0  0
  -23.1286   -8.7198   22.4924 C   0  0  0  0  0  0  0  0  0  0  0  0
  -20.1388  -20.5413   23.6446 C   0  0  0  0  0  0  0  0  0  0  0  0
  -19.9147   -7.9194   23.1637 C   0  0  0  0  0  0  0  0  0  0  0  0
  -19.1846   -7.8730   24.3512 C   0  0  0  0  0  0  0  0  0  0  0  0
  -29.7615  -17.3484   19.9429 C   0  0  0  0  0  0  0  0  0  0  0  0
  -21.9604  -22.0431   24.1402 C   0  0  0  0  0  0  0  0  0  0  0  0
  -28.0187  -18.9957   20.2367 C   0  0  0  0  0  0  0  0  0  0  0  0
  -20.4417   -5.9311   25.0483 C   0  0  0  0  0  0  0  0  0  0  0  0
  -23.8304  -10.4544   20.9642 C   0  0  0  0  0  0  0  0  0  0  0  0
  -29.4172  -16.7665   21.1629 C   0  0  0  0  0  0  0  0  0  0  0  0
  -24.1704  -12.9802   20.8507 C   0  0  0  0  0  0  0  0  0  0  0  0
  -16.5819  -27.6998   19.4304 C   0  0  0  0  0  0  0  0  0  0  0  0
  -19.6988  -22.8985   24.0254 C   0  0  0  0  0  0  0  0  0  0  0  0
  -17.3143  -26.5445   19.7639 C   0  0  0  0  0  0  0  0  0  0  0  0
  -21.0665  -23.1200   24.2408 C   0  0  0  0  0  0  0  0  0  0  0  0
  -28.3736  -17.2991   21.9198 C   0  0  0  0  0  0  0  0  0  0  0  0
  -22.3535   -8.1457   21.4848 C   0  0  0  0  0  0  0  0  0  0  0  0
  -21.4988  -20.7612   23.8420 C   0  0  0  0  0  0  0  0  0  0  0  0
  -20.9083   -6.9716   22.9183 C   0  0  0  0  0  0  0  0  0  0  0  0
  -27.6744  -18.4137   21.4567 C   0  0  0  0  0  0  0  0  0  0  0  0
  -19.4481   -6.8789   25.2936 C   0  0  0  0  0  0  0  0  0  0  0  0
  -29.0623  -18.4630   19.4798 C   0  0  0  0  0  0  0  0  0  0  0  0
  -21.1718   -5.9775   23.8606 C   0  0  0  0  0  0  0  0  0  0  0  0
  -24.5939  -11.6466   20.6957 C   0  0  0  0  0  0  0  0  0  0  0  0
  -25.2543  -13.7314   20.4669 C   0  0  0  0  0  0  0  0  0  0  0  0
  -24.2972  -18.8656   22.5998 C   0  0  0  0  0  0  0  0  0  0  0  0
  -23.3649  -19.8025   22.8079 C   0  0  0  0  0  0  0  0  0  1  0  0
  -30.1655  -15.6033   21.6209 C   0  0  0  0  0  0  0  0  0  0  0  0
  -22.9100  -13.4939   21.3013 C   0  0  0  0  0  0  0  0  0  0  0  0
  -30.7688  -14.6501   20.6613 C   0  0  0  0  0  0  0  0  0  0  0  0
  -19.6501  -25.6837   22.4944 C   0  0  0  0  0  0  0  0  0  0  0  0
  -20.8784  -26.7951   25.2834 C   0  0  0  0  0  0  0  0  0  0  0  0
  -22.5987  -26.1391   28.1569 C   0  0  0  0  0  0  0  0  0  0  0  0
  -17.1528  -29.0829   19.6194 C   0  0  0  0  0  0  0  0  0  0  0  0
  -18.7149  -24.0292   24.1509 C   0  0  0  0  0  0  0  0  0  0  0  0
  -21.6061  -24.4871   24.5701 C   0  0  0  0  0  0  0  0  0  0  0  0
  -18.3444  -29.1251   20.5726 C   0  0  0  0  0  0  0  0  0  0  0  0
  -29.5408  -12.4040   18.1506 C   0  0  0  0  0  0  0  0  0  0  0  0
  -19.3315  -28.0098   20.2428 C   0  0  0  0  0  0  0  0  0  0  0  0
  -28.1228  -12.0864   18.6241 C   0  0  0  0  0  0  0  0  0  0  0  0
  -30.4919  -12.5978   19.3271 C   0  0  0  0  0  0  0  0  0  0  0  0
  -28.6184  -13.3223   20.7810 C   0  0  0  0  0  0  0  0  0  0  0  0
  -18.6811  -26.6309   20.4077 C   0  0  1  0  0  0  0  0  0  0  0  0
  -19.3499  -25.4001   23.9391 C   0  0  1  0  0  0  0  0  0  0  0  0
  -27.6229  -13.1472   19.6209 C   0  0  2  0  0  0  0  0  0  0  0  0
  -28.5144  -17.4887   24.4160 C   0  0  0  0  0  0  0  0  0  0  0  0
  -23.4805  -27.2564   30.2236 C   0  0  0  0  0  0  0  0  0  0  0  0
  -23.1502  -28.0146   23.6520 C   0  0  0  0  0  0  0  0  0  0  0  0
  -24.4469  -28.2700   25.7784 C   0  0  0  0  0  0  0  0  0  0  0  0
  -22.2826  -29.4756   25.4870 C   0  0  0  0  0  0  0  0  0  0  0  0
  -20.9442  -24.4362   29.9237 C   0  0  0  0  0  0  0  0  0  0  0  0
  -27.9980  -16.6818   23.2296 C   0  0  0  0  0  0  0  0  0  0  0  0
  -25.3682  -18.9846   21.5642 C   0  0  0  0  0  0  0  0  0  0  0  0
  -22.2689  -26.9727   25.8437 C   0  0  1  0  0  0  0  0  0  0  0  0
  -22.3163  -26.4987   29.6044 C   0  0  2  0  0  0  0  0  0  0  0  0
  -23.0275  -28.1577   25.1822 C   0  0  0  0  0  0  0  0  0  0  0  0
  -25.8489  -11.5528   20.2482 N   0  0  0  0  0  0  0  0  0  0  0  0
  -30.3543  -15.3268   22.8815 N   0  0  0  0  0  0  0  0  0  0  0  0
  -26.2233  -12.8370   20.1186 N   0  0  0  0  0  0  0  0  0  0  0  0
  -29.9704  -13.5839   20.2715 N   0  0  0  0  0  0  0  0  0  0  0  0
  -20.6051  -25.5615   24.6757 N   0  0  0  0  0  0  0  0  0  0  0  0
  -25.4635  -15.0632   20.3967 N   0  0  0  0  0  0  0  0  0  0  0  0
  -21.9057  -12.5831   21.6564 N   0  0  0  0  0  0  0  0  0  0  0  0
  -18.6053  -26.2720   21.8076 N   0  0  0  0  0  0  0  0  0  0  0  0
  -22.1140  -27.0948   27.2892 N   0  0  0  0  0  0  0  0  0  0  0  0
  -22.0775  -25.2662   30.4073 N   0  3  0  0  0  0  0  0  0  0  0  0
  -22.6755  -14.7242   21.3710 O   0  0  0  0  0  0  0  0  0  0  0  0
  -31.9140  -14.9062   20.3130 O   0  0  0  0  0  0  0  0  0  0  0  0
  -20.7489  -25.3918   22.0371 O   0  0  0  0  0  0  0  0  0  0  0  0
  -20.0624  -27.7143   25.3876 O   0  0  0  0  0  0  0  0  0  0  0  0
  -23.1934  -25.1147   27.8289 O   0  0  0  0  0  0  0  0  0  0  0  0
  -21.6329   -7.0194   21.7392 O   0  0  0  0  0  0  0  0  0  0  0  0
  -22.3770  -19.7258   23.7491 O   0  0  0  0  0  0  0  0  0  1  0  0
  -26.6462  -18.9515   22.1860 O   0  0  0  0  0  0  0  0  0  0  0  0
  -18.7479   -6.8354   26.4346 F   0  0  0  0  0  0  0  0  0  0  0  0
  -29.3927  -19.0217   18.3081 F   0  0  0  0  0  0  0  0  0  0  0  0
  -22.1259   -5.0649   23.6311 F   0  0  0  0  0  0  0  0  0  0  0  0
  1  2  1  0  0  0  0
  1  5  2  0  0  0  0
  2  6  2  0  0  0  0
  3  8  2  0  0  0  0
  3 17  1  0  0  0  0
  4  9  1  0  0  0  0
  4 17  2  0  0  0  0
  5 20  1  0  0  0  0
  6 22  1  0  0  0  0
  7 10  2  0  0  0  0
  7 21  1  0  0  0  0
  8 25  1  0  0  0  0
  9 25  2  0  0  0  0
 10 26  1  0  0  0  0
 11 12  2  0  0  0  0
 11 27  1  0  0  0  0
 12 29  1  0  0  0  0
 13 18  1  0  0  0  0
 13 30  2  0  0  0  0
 14 23  1  0  0  0  0
 14 26  2  0  0  0  0
 15 28  2  0  0  0  0
 15 30  1  0  0  0  0
 16 29  2  0  0  0  0
 16 31  1  0  0  0  0
 17 32  1  0  0  0  0
 18 24  2  0  0  0  0
 18 36  1  0  0  0  0
 19 32  1  0  0  0  0
 19 33  2  0  0  0  0
 19 37  1  0  0  0  0
 20 22  2  0  0  0  0
 20 42  1  0  0  0  0
 21 23  2  0  0  0  0
 21 43  1  0  0  0  0
 22 51  1  0  0  0  0
 23 44  1  0  0  0  0
 24 28  1  0  0  0  0
 24 60  1  0  0  0  0
 25 80  1  0  0  0  0
 26 81  1  0  0  0  0
 27 31  2  0  0  0  0
 27 80  1  0  0  0  0
 28 82  1  0  0  0  0
 29 83  1  0  0  0  0
 30 84  1  0  0  0  0
 31 85  1  0  0  0  0
 32 65  2  0  0  0  0
 33 67  1  0  0  0  0
 33 70  1  0  0  0  0
 34 35  2  0  0  0  0
 34 61  1  0  0  0  0
 35 81  1  0  0  0  0
 36 38  1  0  0  0  0
 36 66  2  0  0  0  0
 37 71  1  0  0  0  0
 37 75  2  0  0  0  0
 38 68  1  0  0  0  0
 38 76  2  0  0  0  0
 39 52  1  0  0  0  0
 39 72  1  0  0  0  0
 39 77  2  0  0  0  0
 40 62  1  0  0  0  0
 40 69  1  0  0  0  0
 40 78  2  0  0  0  0
 41 63  1  0  0  0  0
 41 73  1  0  0  0  0
 41 79  2  0  0  0  0
 42 45  1  0  0  0  0
 43 52  1  0  0  0  0
 44 69  1  0  0  0  0
 45 47  1  0  0  0  0
 46 48  1  0  0  0  0
 46 49  1  0  0  0  0
 47 51  1  0  0  0  0
 48 53  1  0  0  0  0
 49 68  1  0  0  0  0
 50 53  1  0  0  0  0
 50 68  1  0  0  0  0
 51 72  1  0  0  0  0
 52 69  1  0  0  0  0
 53 67  1  0  0  0  0
 54 60  1  0  0  0  0
 55 63  1  0  0  0  0
 56 64  1  0  0  0  0
 57 64  1  0  0  0  0
 58 64  1  0  0  0  0
 59 74  1  0  0  0  0
 61 82  1  0  0  0  0
 62 64  1  0  0  0  0
 62 73  1  0  0  0  0
 63 74  1  0  0  0  0
 65 67  1  0  0  0  0
M  CHG  1  74   1
M  ISO  4  35 101  36 100  38 100  81 101
M  END
> <Batch ID>
0116

> <Smiles>
CCc1c(OCC=[101CH:1][101O:1]c2ccc3c(c2)CN(C(=O)C(NC(=O)C(C)NC)C(C)(C)C)C(C(=O)NC2CCCc4ccccc42)C3)cc(F)cc1[100C:0](=N)[100C:0](=O)N1CCCC(n2nc(-c3ccc(Oc4ccc(F)cc4F)cc3)c(C(N)=O)c2N)C1

> <Shape>
0.235

> <Color>
0.185

> <Negative vol penalty>
0.000

$$$$

  -OEChem-04052301433D

 85 93  0     1  0  0  0  0  0999 V2000
  -30.6494  -25.8217   28.1311 C   0  0  0  0  0  0  0  0  0  0  0  0
  -30.9485  -24.9740   27.0693 C   0  0  0  0  0  0  0  0  0  0  0  0
  -23.0606   -9.8811   19.9349 C   0  0  0  0  0  0  0  0  0  0  0  0
  -23.8312   -9.8635   22.2247 C   0  0  0  0  0  0  0  0  0  0  0  0
  -29.5513  -26.6769   28.0509 C   0  0  0  0  0  0  0  0  0  0  0  0
  -30.1489  -24.9804   25.9270 C   0  0  0  0  0  0  0  0  0  0  0  0
  -32.8661  -24.9740   21.6536 C   0  0  0  0  0  0  0  0  0  0  0  0
  -22.3106   -8.7306   20.1784 C   0  0  0  0  0  0  0  0  0  0  0  0
  -23.0811   -8.7129   22.4682 C   0  0  0  0  0  0  0  0  0  0  0  0
  -33.4179  -23.7584   21.2517 C   0  0  0  0  0  0  0  0  0  0  0  0
  -19.8508   -7.9303   23.0789 C   0  0  0  0  0  0  0  0  0  0  0  0
  -19.0990   -7.8850   24.2529 C   0  0  0  0  0  0  0  0  0  0  0  0
  -30.4050  -18.9260   23.2221 C   0  0  0  0  0  0  0  0  0  0  0  0
  -31.6183  -23.4708   19.6713 C   0  0  0  0  0  0  0  0  0  0  0  0
  -31.9085  -17.2640   21.5608 C   0  0  0  0  0  0  0  0  0  0  0  0
  -20.3315   -5.9335   24.9669 C   0  0  0  0  0  0  0  0  0  0  0  0
  -23.8210  -10.4476   20.9580 C   0  0  0  0  0  0  0  0  0  0  0  0
  -29.8720  -17.7153   22.7799 C   0  0  0  0  0  0  0  0  0  0  0  0
  -24.1782  -12.9715   20.8582 C   0  0  0  0  0  0  0  0  0  0  0  0
  -28.7435  -26.7007   26.9030 C   0  0  0  0  0  0  0  0  0  0  0  0
  -31.6783  -25.4427   21.0740 C   0  0  0  0  0  0  0  0  0  0  0  0
  -29.0381  -25.8358   25.8318 C   0  0  0  0  0  0  0  0  0  0  0  0
  -31.0548  -24.6939   20.0657 C   0  0  0  0  0  0  0  0  0  0  0  0
  -30.6237  -16.8842   21.9493 C   0  0  0  0  0  0  0  0  0  0  0  0
  -22.3208   -8.1465   21.4450 C   0  0  0  0  0  0  0  0  0  0  0  0
  -32.7925  -23.0052   20.2625 C   0  0  0  0  0  0  0  0  0  0  0  0
  -20.8429   -6.9771   22.8488 C   0  0  0  0  0  0  0  0  0  0  0  0
  -31.6898  -19.3058   22.8337 C   0  0  0  0  0  0  0  0  0  0  0  0
  -32.4415  -18.4747   22.0030 C   0  0  0  0  0  0  0  0  0  0  0  0
  -19.3394   -6.8866   25.1969 C   0  0  0  0  0  0  0  0  0  0  0  0
  -21.0833   -5.9788   23.7928 C   0  0  0  0  0  0  0  0  0  0  0  0
  -24.5964  -11.6358   20.7070 C   0  0  0  0  0  0  0  0  0  0  0  0
  -25.2734  -13.7172   20.4963 C   0  0  0  0  0  0  0  0  0  0  0  0
  -27.4476  -18.0612   22.9132 C   0  0  0  0  0  0  0  0  0  0  0  0
  -28.5260  -17.3517   23.2071 C   0  0  0  0  0  0  0  0  0  0  0  0
  -22.9130  -13.4916   21.2875 C   0  0  0  0  0  0  0  0  0  0  0  0
  -28.7663  -26.1138   22.1573 C   0  0  0  0  0  0  0  0  0  0  0  0
  -28.3127  -27.1912   19.1315 C   0  0  0  0  0  0  0  0  0  0  0  0
  -29.2308  -27.0751   15.8466 C   0  0  0  0  0  0  0  0  0  0  0  0
  -30.7469  -14.7268   20.6544 C   0  0  0  0  0  0  0  0  0  0  0  0
  -27.5393  -27.6086   26.8815 C   0  0  0  0  0  0  0  0  0  0  0  0
  -31.1103  -26.7689   21.4997 C   0  0  0  0  0  0  0  0  0  0  0  0
  -29.7889  -25.1626   19.3977 C   0  0  0  0  0  0  0  0  0  0  0  0
  -26.9625  -27.8223   25.4844 C   0  0  0  0  0  0  0  0  0  0  0  0
  -29.6062  -12.3406   18.2707 C   0  0  0  0  0  0  0  0  0  0  0  0
  -26.8372  -26.4916   24.7493 C   0  0  0  0  0  0  0  0  0  0  0  0
  -28.1668  -12.0544   18.7044 C   0  0  0  0  0  0  0  0  0  0  0  0
  -30.5283  -12.5533   19.4700 C   0  0  0  0  0  0  0  0  0  0  0  0
  -28.6324  -13.2777   20.8663 C   0  0  0  0  0  0  0  0  0  0  0  0
  -28.2091  -25.8314   24.5658 C   0  0  1  0  0  0  0  0  0  0  0  0
  -29.6195  -26.9027   21.2048 C   0  0  1  0  0  0  0  0  0  0  0  0
  -27.6531  -13.1208   19.6916 C   0  0  2  0  0  0  0  0  0  0  0  0
  -28.6518  -28.0410   13.6041 C   0  0  0  0  0  0  0  0  0  0  0  0
  -25.8576  -25.3849   18.9900 C   0  0  0  0  0  0  0  0  0  0  0  0
  -25.8891  -25.6543   16.5011 C   0  0  0  0  0  0  0  0  0  0  0  0
  -25.5501  -27.6453   17.9651 C   0  0  0  0  0  0  0  0  0  0  0  0
  -31.9209  -28.2694   15.5372 C   0  0  0  0  0  0  0  0  0  0  0  0
  -31.3664  -21.2811   24.1179 C   0  0  0  0  0  0  0  0  0  0  0  0
  -34.9721  -20.0542   19.9672 C   0  0  0  0  0  0  0  0  0  0  0  0
  -34.5337  -21.4046   20.5117 C   0  0  0  0  0  0  0  0  0  1  0  0
  -33.9309  -18.9746   20.2177 C   0  0  0  0  0  0  0  0  0  0  0  0
  -27.8374  -26.5758   17.8375 C   0  0  1  0  0  0  0  0  0  0  0  0
  -29.5234  -28.1758   14.8430 C   0  0  2  0  0  0  0  0  0  0  0  0
  -26.3064  -26.3050   17.8372 C   0  0  0  0  0  0  0  0  0  0  0  0
  -25.8586  -11.5356   20.2820 N   0  0  0  0  0  0  0  0  0  0  0  0
  -26.2431  -12.8178   20.1630 N   0  0  0  0  0  0  0  0  0  0  0  0
  -29.2690  -26.4626   19.8529 N   0  0  0  0  0  0  0  0  0  0  0  0
  -29.9800  -13.5800   20.3588 N   0  0  0  0  0  0  0  0  0  0  0  0
  -25.4919  -15.0479   20.4338 N   0  0  0  0  0  0  0  0  0  0  0  0
  -21.8969  -12.5860   21.6216 N   0  0  0  0  0  0  0  0  0  0  0  0
  -30.1091  -15.6488   21.4838 N   0  0  0  0  0  0  0  0  0  0  0  0
  -28.9333  -26.4632   23.4838 N   0  0  0  0  0  0  0  0  0  0  0  0
  -28.2870  -27.4660   16.7727 N   0  0  0  0  0  0  0  0  0  0  0  0
  -30.9517  -28.1253   14.4206 N   0  3  0  0  0  0  0  0  0  0  0  0
  -22.6848  -14.7232   21.3565 O   0  0  0  0  0  0  0  0  0  0  0  0
  -28.0111  -25.2529   21.7210 O   0  0  0  0  0  0  0  0  0  0  0  0
  -27.8576  -28.2817   19.4855 O   0  0  0  0  0  0  0  0  0  0  0  0
  -29.7814  -25.9769   15.8102 O   0  0  0  0  0  0  0  0  0  0  0  0
  -31.8748  -14.8924   20.1830 O   0  0  0  0  0  0  0  0  0  0  0  0
  -21.5889   -7.0239   21.6831 O   0  0  0  0  0  0  0  0  0  0  0  0
  -32.1994  -20.4905   23.2721 O   0  0  0  0  0  0  0  0  0  0  0  0
  -33.3286  -21.8180   19.8689 O   0  0  0  0  0  0  0  0  0  1  0  0
  -33.7048  -18.8371   21.6140 O   0  0  0  0  0  0  0  0  0  0  0  0
  -18.6184   -6.8442   26.3250 F   0  0  0  0  0  0  0  0  0  0  0  0
  -22.0358   -5.0610   23.5778 F   0  0  0  0  0  0  0  0  0  0  0  0
  1  2  1  0  0  0  0
  1  5  2  0  0  0  0
  2  6  2  0  0  0  0
  3  8  2  0  0  0  0
  3 17  1  0  0  0  0
  4  9  1  0  0  0  0
  4 17  2  0  0  0  0
  5 20  1  0  0  0  0
  6 22  1  0  0  0  0
  7 10  2  0  0  0  0
  7 21  1  0  0  0  0
  8 25  1  0  0  0  0
  9 25  2  0  0  0  0
 10 26  1  0  0  0  0
 11 12  2  0  0  0  0
 11 27  1  0  0  0  0
 12 30  1  0  0  0  0
 13 18  1  0  0  0  0
 13 28  2  0  0  0  0
 14 23  1  0  0  0  0
 14 26  2  0  0  0  0
 15 24  1  0  0  0  0
 15 29  2  0  0  0  0
 16 30  2  0  0  0  0
 16 31  1  0  0  0  0
 17 32  1  0  0  0  0
 18 24  2  0  0  0  0
 18 35  1  0  0  0  0
 19 32  1  0  0  0  0
 19 33  2  0  0  0  0
 19 36  1  0  0  0  0
 20 22  2  0  0  0  0
 20 41  1  0  0  0  0
 21 23  2  0  0  0  0
 21 42  1  0  0  0  0
 22 50  1  0  0  0  0
 23 43  1  0  0  0  0
 24 71  1  0  0  0  0
 25 80  1  0  0  0  0
 26 82  1  0  0  0  0
 27 31  2  0  0  0  0
 27 80  1  0  0  0  0
 28 29  1  0  0  0  0
 28 81  1  0  0  0  0
 29 83  1  0  0  0  0
 30 84  1  0  0  0  0
 31 85  1  0  0  0  0
 32 65  2  0  0  0  0
 33 66  1  0  0  0  0
 33 69  1  0  0  0  0
 34 35  2  0  0  0  0
 36 70  1  0  0  0  0
 36 75  2  0  0  0  0
 37 51  1  0  0  0  0
 37 72  1  0  0  0  0
 37 76  2  0  0  0  0
 38 62  1  0  0  0  0
 38 67  1  0  0  0  0
 38 77  2  0  0  0  0
 39 63  1  0  0  0  0
 39 73  1  0  0  0  0
 39 78  2  0  0  0  0
 40 68  1  0  0  0  0
 40 71  1  0  0  0  0
 40 79  2  0  0  0  0
 41 44  1  0  0  0  0
 42 51  1  0  0  0  0
 43 67  1  0  0  0  0
 44 46  1  0  0  0  0
 45 47  1  0  0  0  0
 45 48  1  0  0  0  0
 46 50  1  0  0  0  0
 47 52  1  0  0  0  0
 48 68  1  0  0  0  0
 49 52  1  0  0  0  0
 49 68  1  0  0  0  0
 50 72  1  0  0  0  0
 51 67  1  0  0  0  0
 52 66  1  0  0  0  0
 53 63  1  0  0  0  0
 54 64  1  0  0  0  0
 55 64  1  0  0  0  0
 56 64  1  0  0  0  0
 57 74  1  0  0  0  0
 58 81  1  0  0  0  0
 59 60  1  0  0  0  0
 59 61  1  0  0  0  0
 60 82  1  0  0  0  0
 61 83  1  0  0  0  0
 62 64  1  0  0  0  0
 62 73  1  0  0  0  0
 63 74  1  0  0  0  0
 65 66  1  0  0  0  0
M  CHG  1  74   1
M  ISO  4  40 100  60 101  71 100  82 101
M  END
> <Batch ID>
0116

> <Smiles>
C=Cc1cc(OC)c(OCC[101CH2:1][101O:1]c2ccc3c(c2)CN(C(=O)C(NC(=O)C(C)NC)C(C)(C)C)C(C(=O)NC2CCCc4ccccc42)C3)cc1[100NH:0][100C:0](=O)N1CCCC(n2nc(-c3ccc(Oc4ccc(F)cc4F)cc3)c(C(N)=O)c2N)C1

> <Shape>
0.228

> <Color>
0.189

> <Negative vol penalty>
0.000

$$$$

  -OEChem-04052301433D

 85 93  0     1  0  0  0  0  0999 V2000
  -18.8858  -32.9365   20.0437 C   0  0  0  0  0  0  0  0  0  0  0  0
  -20.1267  -32.4590   19.6344 C   0  0  0  0  0  0  0  0  0  0  0  0
  -26.2294  -12.4636   20.0455 C   0  0  0  0  0  0  0  0  0  0  0  0
  -24.8630  -14.1278   21.1411 C   0  0  0  0  0  0  0  0  0  0  0  0
  -18.4555  -32.7237   21.3527 C   0  0  0  0  0  0  0  0  0  0  0  0
  -20.9385  -31.7693   20.5343 C   0  0  0  0  0  0  0  0  0  0  0  0
  -24.7067  -27.1104   19.2688 C   0  0  0  0  0  0  0  0  0  0  0  0
  -25.5550  -11.4559   20.7350 C   0  0  0  0  0  0  0  0  0  0  0  0
  -24.1885  -13.1202   21.8306 C   0  0  0  0  0  0  0  0  0  0  0  0
  -26.0817  -27.0499   19.0466 C   0  0  0  0  0  0  0  0  0  0  0  0
  -22.5992   -9.8299   20.5067 C   0  0  0  0  0  0  0  0  0  0  0  0
  -22.1943   -8.7083   19.7830 C   0  0  0  0  0  0  0  0  0  0  0  0
  -29.2359  -21.7012   20.6450 C   0  0  0  0  0  0  0  0  0  0  0  0
  -26.4594  -21.7234   20.9152 C   0  0  0  0  0  0  0  0  0  0  0  0
  -26.4237  -26.4599   21.3605 C   0  0  0  0  0  0  0  0  0  0  0  0
  -23.5423   -7.3005   21.2106 C   0  0  0  0  0  0  0  0  0  0  0  0
  -25.8834  -13.7996   20.2486 C   0  0  0  0  0  0  0  0  0  0  0  0
  -28.6161  -20.8368   21.5473 C   0  0  0  0  0  0  0  0  0  0  0  0
  -27.2278  -20.8479   21.6824 C   0  0  0  0  0  0  0  0  0  0  0  0
  -26.2418  -15.3879   18.2848 C   0  0  0  0  0  0  0  0  0  0  0  0
  -19.2582  -32.0226   22.2663 C   0  0  0  0  0  0  0  0  0  0  0  0
  -24.1798  -26.8563   20.5433 C   0  0  0  0  0  0  0  0  0  0  0  0
  -20.5191  -31.5481   21.8571 C   0  0  0  0  0  0  0  0  0  0  0  0
  -25.0414  -26.5153   21.5957 C   0  0  0  0  0  0  0  0  0  0  0  0
  -24.5345  -11.7842   21.6275 C   0  0  0  0  0  0  0  0  0  0  0  0
  -26.9407  -26.7274   20.0931 C   0  0  0  0  0  0  0  0  0  0  0  0
  -23.4757   -9.6868   21.5823 C   0  0  0  0  0  0  0  0  0  0  0  0
  -28.4675  -22.5768   19.8779 C   0  0  0  0  0  0  0  0  0  0  0  0
  -22.6659   -7.4437   20.1349 C   0  0  0  0  0  0  0  0  0  0  0  0
  -27.0793  -22.5879   20.0129 C   0  0  0  0  0  0  0  0  0  0  0  0
  -23.9472   -8.4221   21.9343 C   0  0  0  0  0  0  0  0  0  0  0  0
  -26.5801  -14.8409   19.5371 C   0  0  0  0  0  0  0  0  0  0  0  0
  -27.2080  -16.3358   18.0518 C   0  0  0  0  0  0  0  0  0  0  0  0
  -26.1505  -18.7339   22.3033 C   0  0  0  0  0  0  0  0  0  0  0  0
  -26.5466  -19.9585   22.6148 C   0  0  0  0  0  0  0  0  0  0  0  0
  -29.4552  -19.9372   22.3306 C   0  0  0  0  0  0  0  0  0  0  0  0
  -25.1516  -15.0677   17.4104 C   0  0  0  0  0  0  0  0  0  0  0  0
  -30.7426  -19.4318   21.8012 C   0  0  0  0  0  0  0  0  0  0  0  0
  -22.5180  -28.5463   22.6613 C   0  0  0  0  0  0  0  0  0  0  0  0
  -22.3989  -25.7168   24.2430 C   0  0  0  0  0  0  0  0  0  0  0  0
  -23.7850  -22.6483   24.7997 C   0  0  0  0  0  0  0  0  0  0  0  0
  -18.7707  -31.8583   23.6840 C   0  0  0  0  0  0  0  0  0  0  0  0
  -22.6921  -26.8995   20.7604 C   0  0  0  0  0  0  0  0  0  0  0  0
  -24.5244  -26.2138   22.9778 C   0  0  0  0  0  0  0  0  0  0  0  0
  -19.5300  -30.7922   24.4696 C   0  0  0  0  0  0  0  0  0  0  0  0
  -31.7617  -17.3794   19.0434 C   0  0  0  0  0  0  0  0  0  0  0  0
  -21.0338  -30.9524   24.2708 C   0  0  0  0  0  0  0  0  0  0  0  0
  -30.5290  -16.5186   18.7694 C   0  0  0  0  0  0  0  0  0  0  0  0
  -31.9156  -17.6767   20.5314 C   0  0  0  0  0  0  0  0  0  0  0  0
  -29.4704  -17.4502   20.8758 C   0  0  0  0  0  0  0  0  0  0  0  0
  -21.4176  -30.7738   22.7969 C   0  0  1  0  0  0  0  0  0  0  0  0
  -22.3074  -27.1258   22.2192 C   0  0  1  0  0  0  0  0  0  0  0  0
  -29.2663  -17.1521   19.3802 C   0  0  2  0  0  0  0  0  0  0  0  0
  -24.0024  -20.3237   25.7197 C   0  0  0  0  0  0  0  0  0  0  0  0
  -23.5102  -27.1759   26.6814 C   0  0  0  0  0  0  0  0  0  0  0  0
  -24.0740  -24.9466   27.6716 C   0  0  0  0  0  0  0  0  0  0  0  0
  -21.6973  -25.5292   27.1876 C   0  0  0  0  0  0  0  0  0  0  0  0
  -22.2644  -21.4876   22.5415 C   0  0  0  0  0  0  0  0  0  0  0  0
  -30.0665  -25.5960   18.6575 C   0  0  0  0  0  0  0  0  0  0  0  0
  -28.7167  -26.2913   18.5728 C   0  0  0  0  0  0  0  0  0  1  0  0
  -30.0117  -24.3518   19.5300 C   0  0  0  0  0  0  0  0  0  0  0  0
  -23.2660  -25.0283   25.2692 C   0  0  1  0  0  0  0  0  0  0  0  0
  -23.1710  -21.2612   24.8579 C   0  0  2  0  0  0  0  0  0  0  0  0
  -23.1471  -25.6775   26.6770 C   0  0  0  0  0  0  0  0  0  0  0  0
  -27.6758  -15.3952   20.0628 N   0  0  0  0  0  0  0  0  0  0  0  0
  -29.1373  -19.5264   23.5262 N   0  0  0  0  0  0  0  0  0  0  0  0
  -28.0344  -16.3002   19.1363 N   0  0  0  0  0  0  0  0  0  0  0  0
  -30.6881  -18.2431   21.0869 N   0  0  0  0  0  0  0  0  0  0  0  0
  -23.0625  -26.2752   23.1414 N   0  0  0  0  0  0  0  0  0  0  0  0
  -27.4230  -17.1879   17.0271 N   0  0  0  0  0  0  0  0  0  0  0  0
  -24.2510  -14.0684   17.8037 N   0  0  0  0  0  0  0  0  0  0  0  0
  -21.4301  -29.3702   22.4443 N   0  0  0  0  0  0  0  0  0  0  0  0
  -22.9021  -23.6161   25.2298 N   0  0  0  0  0  0  0  0  0  0  0  0
  -23.0744  -20.6797   23.4891 N   0  3  0  0  0  0  0  0  0  0  0  0
  -24.9904  -15.6392   16.3055 O   0  0  0  0  0  0  0  0  0  0  0  0
  -31.7229  -20.1206   22.0522 O   0  0  0  0  0  0  0  0  0  0  0  0
  -23.5877  -28.8705   23.1635 O   0  0  0  0  0  0  0  0  0  0  0  0
  -21.1771  -25.7513   24.4089 O   0  0  0  0  0  0  0  0  0  0  0  0
  -24.9343  -22.8524   24.4150 O   0  0  0  0  0  0  0  0  0  0  0  0
  -23.8761  -10.8012   22.3003 O   0  0  0  0  0  0  0  0  0  0  0  0
  -28.2833  -26.6683   19.8791 O   0  0  0  0  0  0  0  0  0  1  0  0
  -29.0776  -23.4258   18.9915 O   0  0  0  0  0  0  0  0  0  0  0  0
  -22.2758   -6.3665   19.4408 F   0  0  0  0  0  0  0  0  0  0  0  0
  -26.3358  -23.4277   19.2794 F   0  0  0  0  0  0  0  0  0  0  0  0
  -24.7885   -8.2783   22.9674 F   0  0  0  0  0  0  0  0  0  0  0  0
  1  2  1  0  0  0  0
  1  5  2  0  0  0  0
  2  6  2  0  0  0  0
  3  8  2  0  0  0  0
  3 17  1  0  0  0  0
  4  9  1  0  0  0  0
  4 17  2  0  0  0  0
  5 21  1  0  0  0  0
  6 23  1  0  0  0  0
  7 10  2  0  0  0  0
  7 22  1  0  0  0  0
  8 25  1  0  0  0  0
  9 25  2  0  0  0  0
 10 26  1  0  0  0  0
 11 12  2  0  0  0  0
 11 27  1  0  0  0  0
 12 29  1  0  0  0  0
 13 18  1  0  0  0  0
 13 28  2  0  0  0  0
 14 19  1  0  0  0  0
 14 30  2  0  0  0  0
 15 24  1  0  0  0  0
 15 26  2  0  0  0  0
 16 29  2  0  0  0  0
 16 31  1  0  0  0  0
 17 32  1  0  0  0  0
 18 19  2  0  0  0  0
 18 36  1  0  0  0  0
 19 35  1  0  0  0  0
 20 32  1  0  0  0  0
 20 33  2  0  0  0  0
 20 37  1  0  0  0  0
 21 23  2  0  0  0  0
 21 42  1  0  0  0  0
 22 24  2  0  0  0  0
 22 43  1  0  0  0  0
 23 51  1  0  0  0  0
 24 44  1  0  0  0  0
 25 80  1  0  0  0  0
 26 81  1  0  0  0  0
 27 31  2  0  0  0  0
 27 80  1  0  0  0  0
 28 30  1  0  0  0  0
 28 82  1  0  0  0  0
 29 83  1  0  0  0  0
 30 84  1  0  0  0  0
 31 85  1  0  0  0  0
 32 65  2  0  0  0  0
 33 67  1  0  0  0  0
 33 70  1  0  0  0  0
 34 35  2  0  0  0  0
 36 38  1  0  0  0  0
 36 66  2  0  0  0  0
 37 71  1  0  0  0  0
 37 75  2  0  0  0  0
 38 68  1  0  0  0  0
 38 76  2  0  0  0  0
 39 52  1  0  0  0  0
 39 72  1  0  0  0  0
 39 77  2  0  0  0  0
 40 62  1  0  0  0  0
 40 69  1  0  0  0  0
 40 78  2  0  0  0  0
 41 63  1  0  0  0  0
 41 73  1  0  0  0  0
 41 79  2  0  0  0  0
 42 45  1  0  0  0  0
 43 52  1  0  0  0  0
 44 69  1  0  0  0  0
 45 47  1  0  0  0  0
 46 48  1  0  0  0  0
 46 49  1  0  0  0  0
 47 51  1  0  0  0  0
 48 53  1  0  0  0  0
 49 68  1  0  0  0  0
 50 53  1  0  0  0  0
 50 68  1  0  0  0  0
 51 72  1  0  0  0  0
 52 69  1  0  0  0  0
 53 67  1  0  0  0  0
 54 63  1  0  0  0  0
 55 64  1  0  0  0  0
 56 64  1  0  0  0  0
 57 64  1  0  0  0  0
 58 74  1  0  0  0  0
 59 60  1  0  0  0  0
 59 61  1  0  0  0  0
 60 81  1  0  0  0  0
 61 82  1  0  0  0  0
 62 64  1  0  0  0  0
 62 73  1  0  0  0  0
 63 74  1  0  0  0  0
 65 67  1  0  0  0  0
M  CHG  1  74   1
M  ISO  4  36 100  38 100  60 101  81 101
M  END
> <Batch ID>
0116

> <Smiles>
C=Cc1cc(F)c(OCC[101CH2:1][101O:1]c2ccc3c(c2)CN(C(=O)C(NC(=O)C(C)NC)C(C)(C)C)C(C(=O)NC2CCCc4ccccc42)C3)cc1[100C:0](=N)[100C:0](=O)N1CCCC(n2nc(-c3ccc(Oc4ccc(F)cc4F)cc3)c(C(N)=O)c2N)C1

> <Shape>
0.206

> <Color>
0.102

> <Negative vol penalty>
0.000

$$$$

  -OEChem-04052301433D

 78 86  0     1  0  0  0  0  0999 V2000
  -33.1965  -31.9562   16.5817 C   0  0  0  0  0  0  0  0  0  0  0  0
  -32.5577  -30.7210   16.5400 C   0  0  0  0  0  0  0  0  0  0  0  0
  -24.5035   -9.3717   21.7304 C   0  0  0  0  0  0  0  0  0  0  0  0
  -22.8793  -10.2283   20.1602 C   0  0  0  0  0  0  0  0  0  0  0  0
  -33.1888  -32.7043   17.7582 C   0  0  0  0  0  0  0  0  0  0  0  0
  -31.9118  -30.2327   17.6753 C   0  0  0  0  0  0  0  0  0  0  0  0
  -26.7995  -26.8649   17.8400 C   0  0  0  0  0  0  0  0  0  0  0  0
  -23.6505   -8.3107   22.0339 C   0  0  0  0  0  0  0  0  0  0  0  0
  -22.0263   -9.1672   20.4637 C   0  0  0  0  0  0  0  0  0  0  0  0
  -26.5833  -25.4938   17.9711 C   0  0  0  0  0  0  0  0  0  0  0  0
  -20.8922   -7.7932   23.9177 C   0  0  0  0  0  0  0  0  0  0  0  0
  -20.7183   -7.4667   25.2625 C   0  0  0  0  0  0  0  0  0  0  0  0
  -26.2551  -25.7786   20.3439 C   0  0  0  0  0  0  0  0  0  0  0  0
  -21.5736   -5.2480   24.8345 C   0  0  0  0  0  0  0  0  0  0  0  0
  -24.1179  -10.3306   20.7936 C   0  0  0  0  0  0  0  0  0  0  0  0
  -25.9864  -11.4643   19.4780 C   0  0  0  0  0  0  0  0  0  0  0  0
  -32.5342  -32.2294   18.9056 C   0  0  0  0  0  0  0  0  0  0  0  0
  -26.7558  -27.7030   18.9634 C   0  0  0  0  0  0  0  0  0  0  0  0
  -31.8965  -30.9746   18.8686 C   0  0  0  0  0  0  0  0  0  0  0  0
  -26.4686  -27.1603   20.2240 C   0  0  0  0  0  0  0  0  0  0  0  0
  -22.4119   -8.2084   21.4006 C   0  0  0  0  0  0  0  0  0  0  0  0
  -26.3139  -24.9500   19.2236 C   0  0  0  0  0  0  0  0  0  0  0  0
  -21.4067   -6.8471   23.0311 C   0  0  0  0  0  0  0  0  0  0  0  0
  -21.0591   -6.1941   25.7210 C   0  0  0  0  0  0  0  0  0  0  0  0
  -21.7474   -5.5745   23.4895 C   0  0  0  0  0  0  0  0  0  0  0  0
  -24.9983  -11.4272   20.4800 C   0  0  0  0  0  0  0  0  0  0  0  0
  -26.5397  -12.7167   19.5876 C   0  0  0  0  0  0  0  0  0  0  0  0
  -26.8413  -21.5878   20.3759 C   0  0  0  0  0  0  0  0  0  0  0  0
  -23.4804  -21.3354   19.0601 C   0  0  0  0  0  0  0  0  0  0  0  0
  -26.9475  -22.9061   20.1679 C   0  0  0  0  0  0  0  0  0  1  0  0
  -24.3802  -21.1671   20.0350 C   0  0  0  0  0  0  0  0  0  0  0  0
  -26.3697  -10.4569   18.5325 C   0  0  0  0  0  0  0  0  0  0  0  0
  -28.8435  -29.5986   20.4303 C   0  0  0  0  0  0  0  0  0  0  0  0
  -26.2555  -30.4270   22.2017 C   0  0  0  0  0  0  0  0  0  0  0  0
  -23.1634  -29.5920   23.3800 C   0  0  0  0  0  0  0  0  0  0  0  0
  -25.5223  -18.2105   20.0392 C   0  0  0  0  0  0  0  0  0  0  0  0
  -32.5933  -33.0523   20.1681 C   0  0  0  0  0  0  0  0  0  0  0  0
  -26.9648  -29.1836   18.8011 C   0  0  0  0  0  0  0  0  0  0  0  0
  -26.3906  -28.0199   21.4583 C   0  0  0  0  0  0  0  0  0  0  0  0
  -27.7602  -20.8022   21.2650 C   0  0  0  0  0  0  0  0  0  0  0  0
  -31.5663  -32.6334   21.2169 C   0  0  0  0  0  0  0  0  0  0  0  0
  -26.0313  -16.2500   23.1630 C   0  0  0  0  0  0  0  0  0  0  0  0
  -31.5589  -31.1168   21.3809 C   0  0  0  0  0  0  0  0  0  0  0  0
  -25.8343  -14.8224   22.6527 C   0  0  0  0  0  0  0  0  0  0  0  0
  -26.8949  -19.6201   21.6671 C   0  0  0  0  0  0  0  0  0  0  0  0
  -25.2052  -17.2402   22.3520 C   0  0  0  0  0  0  0  0  0  0  0  0
  -25.2770  -15.7766   20.3665 C   0  0  0  0  0  0  0  0  0  0  0  0
  -31.1639  -30.4223   20.0721 C   0  0  1  0  0  0  0  0  0  0  0  0
  -25.7762  -20.6830   19.8102 C   0  0  2  0  0  0  0  0  0  0  0  0
  -27.4052  -29.8698   20.0906 C   0  0  1  0  0  0  0  0  0  0  0  0
  -26.1016  -14.7331   21.1397 C   0  0  2  0  0  0  0  0  0  0  0  0
  -21.3108  -30.4556   24.8358 C   0  0  0  0  0  0  0  0  0  0  0  0
  -27.8950  -29.7512   24.6847 C   0  0  0  0  0  0  0  0  0  0  0  0
  -25.7626  -29.7095   25.9960 C   0  0  0  0  0  0  0  0  0  0  0  0
  -26.5010  -31.8178   24.8858 C   0  0  0  0  0  0  0  0  0  0  0  0
  -21.2327  -29.5674   21.1370 C   0  0  0  0  0  0  0  0  0  0  0  0
  -25.6213  -29.9149   23.4724 C   0  0  1  0  0  0  0  0  0  0  0  0
  -21.8579  -30.3657   23.4197 C   0  0  2  0  0  0  0  0  0  0  0  0
  -26.4483  -30.2816   24.7370 C   0  0  0  0  0  0  0  0  0  0  0  0
  -24.9259  -12.5654   21.1752 N   0  0  0  0  0  0  0  0  0  0  0  0
  -25.8755  -13.3295   20.6091 N   0  0  0  0  0  0  0  0  0  0  0  0
  -26.6084  -29.4608   21.2491 N   0  0  0  0  0  0  0  0  0  0  0  0
  -25.4816  -17.1184   20.9167 N   0  0  0  0  0  0  0  0  0  0  0  0
  -25.9630  -19.4334   20.5547 N   0  0  0  0  0  0  0  0  0  0  0  0
  -27.5247  -13.3424   18.9089 N   0  0  0  0  0  0  0  0  0  0  0  0
  -25.6981   -9.2271   18.5575 N   0  0  0  0  0  0  0  0  0  0  0  0
  -29.7325  -30.4973   19.8721 N   0  0  0  0  0  0  0  0  0  0  0  0
  -24.2555  -30.4275   23.4823 N   0  0  0  0  0  0  0  0  0  0  0  0
  -20.8358  -29.7014   22.5623 N   0  3  0  0  0  0  0  0  0  0  0  0
  -27.2920  -10.6360   17.7013 O   0  0  0  0  0  0  0  0  0  0  0  0
  -29.1257  -28.6455   21.1470 O   0  0  0  0  0  0  0  0  0  0  0  0
  -26.4247  -31.6403   22.0567 O   0  0  0  0  0  0  0  0  0  0  0  0
  -23.2096  -28.3685   23.2729 O   0  0  0  0  0  0  0  0  0  0  0  0
  -25.2134  -18.0896   18.8466 O   0  0  0  0  0  0  0  0  0  0  0  0
  -21.5794   -7.1730   21.6963 O   0  0  0  0  0  0  0  0  0  0  0  0
  -26.1012  -23.5997   19.3557 O   0  0  0  0  0  0  0  0  0  1  0  0
  -20.8935   -5.8812   27.0128 F   0  0  0  0  0  0  0  0  0  0  0  0
  -22.2432   -4.6618   22.6428 F   0  0  0  0  0  0  0  0  0  0  0  0
  1  2  1  0  0  0  0
  1  5  2  0  0  0  0
  2  6  2  0  0  0  0
  3  8  2  0  0  0  0
  3 15  1  0  0  0  0
  4  9  1  0  0  0  0
  4 15  2  0  0  0  0
  5 17  1  0  0  0  0
  6 19  1  0  0  0  0
  7 10  2  0  0  0  0
  7 18  1  0  0  0  0
  8 21  1  0  0  0  0
  9 21  2  0  0  0  0
 10 22  1  0  0  0  0
 11 12  2  0  0  0  0
 11 23  1  0  0  0  0
 12 24  1  0  0  0  0
 13 20  1  0  0  0  0
 13 22  2  0  0  0  0
 14 24  2  0  0  0  0
 14 25  1  0  0  0  0
 15 26  1  0  0  0  0
 16 26  1  0  0  0  0
 16 27  2  0  0  0  0
 16 32  1  0  0  0  0
 17 19  2  0  0  0  0
 17 37  1  0  0  0  0
 18 20  2  0  0  0  0
 18 38  1  0  0  0  0
 19 48  1  0  0  0  0
 20 39  1  0  0  0  0
 21 75  1  0  0  0  0
 22 76  1  0  0  0  0
 23 25  2  0  0  0  0
 23 75  1  0  0  0  0
 24 77  1  0  0  0  0
 25 78  1  0  0  0  0
 26 60  2  0  0  0  0
 27 61  1  0  0  0  0
 27 65  1  0  0  0  0
 28 30  2  0  0  0  0
 28 40  1  0  0  0  0
 28 49  1  0  0  0  0
 29 31  2  0  0  0  0
 30 76  1  0  0  0  0
 31 49  1  0  0  0  0
 32 66  1  0  0  0  0
 32 70  2  0  0  0  0
 33 50  1  0  0  0  0
 33 67  1  0  0  0  0
 33 71  2  0  0  0  0
 34 57  1  0  0  0  0
 34 62  1  0  0  0  0
 34 72  2  0  0  0  0
 35 58  1  0  0  0  0
 35 68  1  0  0  0  0
 35 73  2  0  0  0  0
 36 63  1  0  0  0  0
 36 64  1  0  0  0  0
 36 74  2  0  0  0  0
 37 41  1  0  0  0  0
 38 50  1  0  0  0  0
 39 62  1  0  0  0  0
 40 45  1  0  0  0  0
 41 43  1  0  0  0  0
 42 44  1  0  0  0  0
 42 46  1  0  0  0  0
 43 48  1  0  0  0  0
 44 51  1  0  0  0  0
 45 64  1  0  0  0  0
 46 63  1  0  0  0  0
 47 51  1  0  0  0  0
 47 63  1  0  0  0  0
 48 67  1  0  0  0  0
 49 64  1  0  0  0  0
 50 62  1  0  0  0  0
 51 61  1  0  0  0  0
 52 58  1  0  0  0  0
 53 59  1  0  0  0  0
 54 59  1  0  0  0  0
 55 59  1  0  0  0  0
 56 69  1  0  0  0  0
 57 59  1  0  0  0  0
 57 68  1  0  0  0  0
 58 69  1  0  0  0  0
 60 61  1  0  0  0  0
M  CHG  1  69   1
M  ISO  4  30 101  36 100  64 100  76 101
M  END
> <Batch ID>
0116

> <Smiles>
C=CC1C(=[101CH:1][101O:1]c2ccc3c(c2)CN(C(=O)C(NC(=O)C(C)NC)C(C)(C)C)C(C(=O)NC2CCCc4ccccc42)C3)CC[100N:0]1[100C:0](=O)N1CCCC(n2nc(-c3ccc(Oc4ccc(F)cc4F)cc3)c(C(N)=O)c2N)C1

> <Shape>
0.239

> <Color>
0.101

> <Negative vol penalty>
0.000

$$$$

  -OEChem-04052301433D

 85 93  0     1  0  0  0  0  0999 V2000
  -24.5435  -10.9524   20.5250 C   0  0  0  0  0  0  0  0  0  0  0  0
  -23.6408  -11.9908   20.3194 C   0  0  0  0  0  0  0  0  0  0  0  0
  -25.4556  -28.3778   14.7412 C   0  0  0  0  0  0  0  0  0  0  0  0
  -27.6690  -27.7080   15.4408 C   0  0  0  0  0  0  0  0  0  0  0  0
  -18.7920  -28.1254   23.8825 C   0  0  0  0  0  0  0  0  0  0  0  0
  -17.8280  -27.1342   23.6984 C   0  0  0  0  0  0  0  0  0  0  0  0
  -25.8131  -11.2242   21.0330 C   0  0  0  0  0  0  0  0  0  0  0  0
  -24.0070  -13.3017   20.6228 C   0  0  0  0  0  0  0  0  0  0  0  0
  -22.3074  -18.3801   17.6517 C   0  0  0  0  0  0  0  0  0  0  0  0
  -25.9229  -28.5633   13.4402 C   0  0  0  0  0  0  0  0  0  0  0  0
  -28.1363  -27.8935   14.1397 C   0  0  0  0  0  0  0  0  0  0  0  0
  -21.3176  -19.3286   17.9057 C   0  0  0  0  0  0  0  0  0  0  0  0
  -26.4527  -28.8664    9.8565 C   0  0  0  0  0  0  0  0  0  0  0  0
  -25.6771  -28.3652    8.8112 C   0  0  0  0  0  0  0  0  0  0  0  0
  -19.8939  -27.4318   21.8474 C   0  0  0  0  0  0  0  0  0  0  0  0
  -22.9497  -20.7310   18.9959 C   0  0  0  0  0  0  0  0  0  0  0  0
  -25.8962  -26.1363    9.7173 C   0  0  0  0  0  0  0  0  0  0  0  0
  -26.3286  -27.9502   15.7416 C   0  0  0  0  0  0  0  0  0  0  0  0
  -19.8249  -28.2742   22.9570 C   0  0  0  0  0  0  0  0  0  0  0  0
  -17.8970  -26.2918   22.5888 C   0  0  0  0  0  0  0  0  0  0  0  0
  -25.3149  -26.5783   17.6384 C   0  0  0  0  0  0  0  0  0  0  0  0
  -26.1984  -12.5402   21.3337 C   0  0  0  0  0  0  0  0  0  0  0  0
  -23.6258  -18.5954   18.0783 C   0  0  0  0  0  0  0  0  0  0  0  0
  -25.2825  -13.5912   21.1365 C   0  0  0  0  0  0  0  0  0  0  0  0
  -23.9549  -19.7849   18.7438 C   0  0  0  0  0  0  0  0  0  0  0  0
  -27.2632  -28.3211   13.1394 C   0  0  0  0  0  0  0  0  0  0  0  0
  -21.6381  -20.5029   18.5804 C   0  0  0  0  0  0  0  0  0  0  0  0
  -26.9502  -28.0026   10.8322 C   0  0  0  0  0  0  0  0  0  0  0  0
  -18.9299  -26.4406   21.6633 C   0  0  0  0  0  0  0  0  0  0  0  0
  -25.3988  -27.0002    8.7416 C   0  0  0  0  0  0  0  0  0  0  0  0
  -26.6719  -26.6375   10.7626 C   0  0  0  0  0  0  0  0  0  0  0  0
  -25.8466  -27.7589   17.0859 C   0  0  0  0  0  0  0  0  0  0  0  0
  -25.0078  -26.9137   18.9344 C   0  0  0  0  0  0  0  0  0  0  0  0
  -16.6343  -24.3182   23.3138 C   0  0  0  0  0  0  0  0  0  0  0  0
  -16.8784  -25.2643   22.4193 C   0  0  0  0  0  0  0  0  0  0  0  0
  -20.8417  -29.3232   23.1510 C   0  0  0  0  0  0  0  0  0  0  0  0
  -25.1165  -25.2933   17.0342 C   0  0  0  0  0  0  0  0  0  0  0  0
  -25.6074  -17.1155   20.0749 C   0  0  0  0  0  0  0  0  0  0  0  0
  -19.8941  -23.5435   19.7171 C   0  0  0  0  0  0  0  0  0  0  0  0
  -27.7411  -19.2818   18.9449 C   0  0  0  0  0  0  0  0  0  0  0  0
  -28.2910  -22.3198   17.4906 C   0  0  0  0  0  0  0  0  0  0  0  0
  -22.7329  -30.4931   22.5629 C   0  0  0  0  0  0  0  0  0  0  0  0
  -27.5650  -12.7794   21.9253 C   0  0  0  0  0  0  0  0  0  0  0  0
  -24.6874  -17.5745   17.7730 C   0  0  0  0  0  0  0  0  0  0  0  0
  -25.3595  -20.0731   19.2048 C   0  0  0  0  0  0  0  0  0  0  0  0
  -28.0062  -14.2396   21.8686 C   0  0  0  0  0  0  0  0  0  0  0  0
  -26.1870  -31.0003   21.6590 C   0  0  0  0  0  0  0  0  0  0  0  0
  -26.8806  -15.1560   22.3380 C   0  0  0  0  0  0  0  0  0  0  0  0
  -26.3507  -30.1310   20.4124 C   0  0  0  0  0  0  0  0  0  0  0  0
  -24.7955  -31.6220   21.7293 C   0  0  0  0  0  0  0  0  0  0  0  0
  -23.8455  -29.7522   20.4064 C   0  0  0  0  0  0  0  0  0  0  0  0
  -25.6513  -15.0293   21.4301 C   0  0  1  0  0  0  0  0  0  0  0  0
  -25.8908  -17.6666   18.7061 C   0  0  1  0  0  0  0  0  0  0  0  0
  -25.2277  -29.0828   20.3179 C   0  0  1  0  0  0  0  0  0  0  0  0
  -30.1423  -23.8316   16.7261 C   0  0  0  0  0  0  0  0  0  0  0  0
  -28.3103  -20.0464   21.8434 C   0  0  0  0  0  0  0  0  0  0  0  0
  -29.4017  -22.1376   21.0044 C   0  0  0  0  0  0  0  0  0  0  0  0
  -30.3362  -19.9096   20.3835 C   0  0  0  0  0  0  0  0  0  0  0  0
  -27.3465  -22.2505   14.6867 C   0  0  0  0  0  0  0  0  0  0  0  0
  -21.0723  -22.6104   19.5261 C   0  0  0  0  0  0  0  0  0  1  0  0
  -20.1923  -24.8464   20.4302 C   0  0  0  0  0  0  0  0  0  0  0  0
  -28.1626  -20.6755   19.3437 C   0  0  1  0  0  0  0  0  0  0  0  0
  -29.1697  -22.7339   16.3241 C   0  0  2  0  0  0  0  0  0  0  0  0
  -29.0258  -20.6863   20.6369 C   0  0  0  0  0  0  0  0  0  0  0  0
  -25.8768  -28.7689   17.9593 N   0  0  0  0  0  0  0  0  0  0  0  0
  -21.8150  -29.4900   22.3167 N   0  0  0  0  0  0  0  0  0  0  0  0
  -25.3601  -28.2239   19.0738 N   0  0  0  0  0  0  0  0  0  0  0  0
  -26.3609  -19.0414   18.8882 N   0  0  0  0  0  0  0  0  0  0  0  0
  -23.7557  -30.5999   21.6026 N   0  0  0  0  0  0  0  0  0  0  0  0
  -24.4733  -26.2129   19.9569 N   0  0  0  0  0  0  0  0  0  0  0  0
  -25.4872  -25.1209   15.6936 N   0  0  0  0  0  0  0  0  0  0  0  0
  -25.8548  -15.7616   20.1986 N   0  0  0  0  0  0  0  0  0  0  0  0
  -28.8253  -21.2507   18.1782 N   0  0  0  0  0  0  0  0  0  0  0  0
  -28.3328  -23.2367   15.1981 N   0  3  0  0  0  0  0  0  0  0  0  0
  -24.6099  -24.3312   17.6597 O   0  0  0  0  0  0  0  0  0  0  0  0
  -25.1963  -17.8635   20.9542 O   0  0  0  0  0  0  0  0  0  0  0  0
  -18.7654  -23.2603   19.3185 O   0  0  0  0  0  0  0  0  0  0  0  0
  -28.6044  -18.4397   18.6861 O   0  0  0  0  0  0  0  0  0  0  0  0
  -27.2379  -22.8903   17.7667 O   0  0  0  0  0  0  0  0  0  0  0  0
  -22.6793  -31.2507   23.5346 O   0  0  0  0  0  0  0  0  0  0  0  0
  -27.7195  -28.5018   11.8698 O   0  0  0  0  0  0  0  0  0  0  0  0
  -20.6738  -21.4301   18.8301 O   0  0  0  0  0  0  0  0  0  1  0  0
  -19.0210  -25.6239   20.5611 O   0  0  0  0  0  0  0  0  0  0  0  0
  -24.6526  -26.5192    7.7386 F   0  0  0  0  0  0  0  0  0  0  0  0
  -27.1461  -25.8029   11.6977 F   0  0  0  0  0  0  0  0  0  0  0  0
  1  2  1  0  0  0  0
  1  7  2  0  0  0  0
  2  8  2  0  0  0  0
  3 10  2  0  0  0  0
  3 18  1  0  0  0  0
  4 11  1  0  0  0  0
  4 18  2  0  0  0  0
  5  6  2  0  0  0  0
  5 19  1  0  0  0  0
  6 20  1  0  0  0  0
  7 22  1  0  0  0  0
  8 24  1  0  0  0  0
  9 12  2  0  0  0  0
  9 23  1  0  0  0  0
 10 26  1  0  0  0  0
 11 26  2  0  0  0  0
 12 27  1  0  0  0  0
 13 14  2  0  0  0  0
 13 28  1  0  0  0  0
 14 30  1  0  0  0  0
 15 19  2  0  0  0  0
 15 29  1  0  0  0  0
 16 25  1  0  0  0  0
 16 27  2  0  0  0  0
 17 30  2  0  0  0  0
 17 31  1  0  0  0  0
 18 32  1  0  0  0  0
 19 36  1  0  0  0  0
 20 29  2  0  0  0  0
 20 35  1  0  0  0  0
 21 32  1  0  0  0  0
 21 33  2  0  0  0  0
 21 37  1  0  0  0  0
 22 24  2  0  0  0  0
 22 43  1  0  0  0  0
 23 25  2  0  0  0  0
 23 44  1  0  0  0  0
 24 52  1  0  0  0  0
 25 45  1  0  0  0  0
 26 81  1  0  0  0  0
 27 82  1  0  0  0  0
 28 31  2  0  0  0  0
 28 81  1  0  0  0  0
 29 83  1  0  0  0  0
 30 84  1  0  0  0  0
 31 85  1  0  0  0  0
 32 65  2  0  0  0  0
 33 67  1  0  0  0  0
 33 70  1  0  0  0  0
 34 35  2  0  0  0  0
 36 66  2  0  0  0  0
 37 71  1  0  0  0  0
 37 75  2  0  0  0  0
 38 53  1  0  0  0  0
 38 72  1  0  0  0  0
 38 76  2  0  0  0  0
 39 60  1  0  0  0  0
 39 61  1  0  0  0  0
 39 77  2  0  0  0  0
 40 62  1  0  0  0  0
 40 68  1  0  0  0  0
 40 78  2  0  0  0  0
 41 63  1  0  0  0  0
 41 73  1  0  0  0  0
 41 79  2  0  0  0  0
 42 66  1  0  0  0  0
 42 69  1  0  0  0  0
 42 80  2  0  0  0  0
 43 46  1  0  0  0  0
 44 53  1  0  0  0  0
 45 68  1  0  0  0  0
 46 48  1  0  0  0  0
 47 49  1  0  0  0  0
 47 50  1  0  0  0  0
 48 52  1  0  0  0  0
 49 54  1  0  0  0  0
 50 69  1  0  0  0  0
 51 54  1  0  0  0  0
 51 69  1  0  0  0  0
 52 72  1  0  0  0  0
 53 68  1  0  0  0  0
 54 67  1  0  0  0  0
 55 63  1  0  0  0  0
 56 64  1  0  0  0  0
 57 64  1  0  0  0  0
 58 64  1  0  0  0  0
 59 74  1  0  0  0  0
 60 82  1  0  0  0  0
 61 83  1  0  0  0  0
 62 64  1  0  0  0  0
 62 73  1  0  0  0  0
 63 74  1  0  0  0  0
 65 67  1  0  0  0  0
M  CHG  1  74   1
M  ISO  4  42 100  60 101  66 100  82 101
M  END
> <Batch ID>
0116

> <Smiles>
C=Cc1ccc(C=[100N:0][100C:0](=O)N2CCCC(n3nc(-c4ccc(Oc5ccc(F)cc5F)cc4)c(C(N)=O)c3N)C2)cc1OCC(=O)[101CH2:1][101O:1]c1ccc2c(c1)CN(C(=O)C(NC(=O)C(C)NC)C(C)(C)C)C(C(=O)NC1CCCc3ccccc31)C2

> <Shape>
0.203

> <Color>
0.073

> <Negative vol penalty>
0.000

$$$$

  -OEChem-04052301433D

 84 93  0     1  0  0  0  0  0999 V2000
  -29.3654  -34.9240   24.6941 C   0  0  0  0  0  0  0  0  0  0  0  0
  -29.3498  -33.6043   24.2542 C   0  0  0  0  0  0  0  0  0  0  0  0
  -24.5729   -8.9900   21.9869 C   0  0  0  0  0  0  0  0  0  0  0  0
  -24.8653   -7.9368   19.8323 C   0  0  0  0  0  0  0  0  0  0  0  0
  -28.1974  -35.5090   25.1814 C   0  0  0  0  0  0  0  0  0  0  0  0
  -28.1664  -32.8684   24.3024 C   0  0  0  0  0  0  0  0  0  0  0  0
  -27.3416  -30.2354   20.0561 C   0  0  0  0  0  0  0  0  0  0  0  0
  -23.3862   -8.2809   22.1725 C   0  0  0  0  0  0  0  0  0  0  0  0
  -23.6785   -7.2277   20.0179 C   0  0  0  0  0  0  0  0  0  0  0  0
  -28.0615  -29.0531   19.8900 C   0  0  0  0  0  0  0  0  0  0  0  0
  -22.4677   -5.1540   23.0738 C   0  0  0  0  0  0  0  0  0  0  0  0
  -22.2581   -4.5548   24.3158 C   0  0  0  0  0  0  0  0  0  0  0  0
  -26.1377  -27.7877   20.6089 C   0  0  0  0  0  0  0  0  0  0  0  0
  -30.5104  -19.8222   18.9852 C   0  0  0  0  0  0  0  0  0  0  0  0
  -20.2571   -5.8753   24.6152 C   0  0  0  0  0  0  0  0  0  0  0  0
  -25.3124   -8.8180   20.8168 C   0  0  0  0  0  0  0  0  0  0  0  0
  -27.8354   -9.1499   20.9959 C   0  0  0  0  0  0  0  0  0  0  0  0
  -26.9968  -34.7830   25.2266 C   0  0  0  0  0  0  0  0  0  0  0  0
  -26.0155  -30.2033   20.5110 C   0  0  0  0  0  0  0  0  0  0  0  0
  -26.9815  -33.4438   24.7921 C   0  0  0  0  0  0  0  0  0  0  0  0
  -25.4023  -28.9708   20.7775 C   0  0  0  0  0  0  0  0  0  0  0  0
  -30.6928  -21.2351   18.9625 C   0  0  0  0  0  0  0  0  0  0  0  0
  -22.9390   -7.3997   21.1880 C   0  0  0  0  0  0  0  0  0  0  0  0
  -27.4605  -27.8292   20.1692 C   0  0  0  0  0  0  0  0  0  0  0  0
  -21.5721   -6.1140   22.6025 C   0  0  0  0  0  0  0  0  0  0  0  0
  -21.1528   -4.9154   25.0865 C   0  0  0  0  0  0  0  0  0  0  0  0
  -20.4668   -6.4746   23.3732 C   0  0  0  0  0  0  0  0  0  0  0  0
  -26.5381   -9.5506   20.6242 C   0  0  0  0  0  0  0  0  0  0  0  0
  -30.1390  -19.3683   20.2317 C   0  0  0  0  0  0  0  0  0  0  0  0
  -28.6426  -10.1872   20.5975 C   0  0  0  0  0  0  0  0  0  0  0  0
  -30.4535  -21.8074   20.1926 C   0  0  0  0  0  0  0  0  0  0  0  0
  -30.0693  -25.4134   20.6629 C   0  0  0  0  0  0  0  0  0  0  0  0
  -29.8698  -18.0451   20.6424 C   0  0  0  0  0  0  0  0  0  0  0  0
  -29.3034  -26.5068   20.7403 C   0  0  0  0  0  0  0  0  0  1  0  0
  -29.9448  -16.9089   19.8706 C   0  0  0  0  0  0  0  0  0  0  0  0
  -28.2718   -7.9474   21.6434 C   0  0  0  0  0  0  0  0  0  0  0  0
  -29.6399  -15.5863   20.4523 C   0  0  0  0  0  0  0  0  0  0  0  0
  -24.4908  -31.3341   23.0605 C   0  0  0  0  0  0  0  0  0  0  0  0
  -21.8684  -30.2489   21.4895 C   0  0  0  0  0  0  0  0  0  0  0  0
  -20.5549  -28.1093   19.1779 C   0  0  0  0  0  0  0  0  0  0  0  0
  -25.7706  -35.4431   25.8057 C   0  0  0  0  0  0  0  0  0  0  0  0
  -25.2439  -31.4859   20.6594 C   0  0  0  0  0  0  0  0  0  0  0  0
  -23.9746  -28.8809   21.2489 C   0  0  0  0  0  0  0  0  0  0  0  0
  -31.3257  -25.1860   21.4423 C   0  0  0  0  0  0  0  0  0  0  0  0
  -29.7356  -24.1839   19.8726 C   0  0  0  0  0  0  0  0  0  0  0  0
  -24.4717  -34.7128   25.4742 C   0  0  0  0  0  0  0  0  0  0  0  0
  -27.6846  -14.1906   17.6845 C   0  0  0  0  0  0  0  0  0  0  0  0
  -24.6263  -33.2140   25.7119 C   0  0  0  0  0  0  0  0  0  0  0  0
  -27.2802  -12.8376   18.2636 C   0  0  0  0  0  0  0  0  0  0  0  0
  -31.3495  -23.6698   21.6135 C   0  0  0  0  0  0  0  0  0  0  0  0
  -27.7552  -15.2745   18.7591 C   0  0  0  0  0  0  0  0  0  0  0  0
  -28.2318  -13.5642   20.4877 C   0  0  0  0  0  0  0  0  0  0  0  0
  -25.7116  -32.6208   24.8055 C   0  0  1  0  0  0  0  0  0  0  0  0
  -24.0648  -31.3662   21.6200 C   0  0  1  0  0  0  0  0  0  0  0  0
  -28.2003  -12.4484   19.4315 C   0  0  1  0  0  0  0  0  0  0  0  0
  -31.0935  -21.9844   17.7462 C   0  0  0  0  0  0  0  0  0  0  0  0
  -18.3746  -27.4289   18.1384 C   0  0  0  0  0  0  0  0  0  0  0  0
  -21.1505  -28.6974   24.0168 C   0  0  0  0  0  0  0  0  0  0  0  0
  -19.5581  -27.3367   22.6454 C   0  0  0  0  0  0  0  0  0  0  0  0
  -19.2120  -29.7959   22.8810 C   0  0  0  0  0  0  0  0  0  0  0  0
  -21.4609  -28.9077   16.4759 C   0  0  0  0  0  0  0  0  0  0  0  0
  -21.1117  -28.9434   21.4470 C   0  0  1  0  0  0  0  0  0  0  0  0
  -19.5895  -28.3369   18.0287 C   0  0  2  0  0  0  0  0  0  0  0  0
  -20.2856  -28.6948   22.7405 C   0  0  0  0  0  0  0  0  0  0  0  0
  -26.5176  -10.7492   20.0351 N   0  0  0  0  0  0  0  0  0  0  0  0
  -27.8121  -11.1105   20.0336 N   0  0  0  0  0  0  0  0  0  0  0  0
  -30.5400  -23.1476   20.5151 N   0  0  3  0  0  0  0  0  0  0  0  0
  -28.5938  -14.8553   19.8922 N   0  0  0  0  0  0  0  0  0  0  0  0
  -23.2639  -30.1631   21.3846 N   0  0  0  0  0  0  0  0  0  0  0  0
  -29.9747  -10.3906   20.6780 N   0  0  0  0  0  0  0  0  0  0  0  0
  -27.3111   -6.9855   21.9840 N   0  0  0  0  0  0  0  0  0  0  0  0
  -25.2069  -32.4462   23.4604 N   0  0  0  0  0  0  0  0  0  0  0  0
  -20.3146  -28.9731   20.2254 N   0  0  0  0  0  0  0  0  0  0  0  0
  -20.2618  -28.0671   16.7263 N   0  3  0  0  0  0  0  0  0  0  0  0
  -29.4760   -7.7395   21.9267 O   0  0  0  0  0  0  0  0  0  0  0  0
  -30.3280  -15.2110   21.4033 O   0  0  0  0  0  0  0  0  0  0  0  0
  -24.1905  -30.3723   23.7580 O   0  0  0  0  0  0  0  0  0  0  0  0
  -21.2438  -31.3065   21.6041 O   0  0  0  0  0  0  0  0  0  0  0  0
  -21.4318  -27.2486   19.1507 O   0  0  0  0  0  0  0  0  0  0  0  0
  -21.7812   -6.7074   21.3689 O   0  0  0  0  0  0  0  0  0  0  0  0
  -28.1612  -26.6737   20.0086 O   0  0  0  0  0  0  0  0  0  1  0  0
  -20.9508   -4.3388   26.2785 F   0  0  0  0  0  0  0  0  0  0  0  0
  -19.6023   -7.3952   22.9251 F   0  0  0  0  0  0  0  0  0  0  0  0
  -30.0114  -20.6432   21.3679 S   0  0  0  0  0  0  0  0  0  0  0  0
  1  2  1  0  0  0  0
  1  5  2  0  0  0  0
  2  6  2  0  0  0  0
  3  8  2  0  0  0  0
  3 16  1  0  0  0  0
  4  9  1  0  0  0  0
  4 16  2  0  0  0  0
  5 18  1  0  0  0  0
  6 20  1  0  0  0  0
  7 10  2  0  0  0  0
  7 19  1  0  0  0  0
  8 23  1  0  0  0  0
  9 23  2  0  0  0  0
 10 24  1  0  0  0  0
 11 12  2  0  0  0  0
 11 25  1  0  0  0  0
 12 26  1  0  0  0  0
 13 21  1  0  0  0  0
 13 24  2  0  0  0  0
 14 22  1  0  0  0  0
 14 29  2  0  0  0  0
 15 26  2  0  0  0  0
 15 27  1  0  0  0  0
 16 28  1  0  0  0  0
 17 28  1  0  0  0  0
 17 30  2  0  0  0  0
 17 36  1  0  0  0  0
 18 20  2  0  0  0  0
 18 41  1  0  0  0  0
 19 21  2  0  0  0  0
 19 42  1  0  0  0  0
 20 53  1  0  0  0  0
 21 43  1  0  0  0  0
 22 31  2  0  0  0  0
 22 56  1  0  0  0  0
 23 80  1  0  0  0  0
 24 81  1  0  0  0  0
 25 27  2  0  0  0  0
 25 80  1  0  0  0  0
 26 82  1  0  0  0  0
 27 83  1  0  0  0  0
 28 65  2  0  0  0  0
 29 33  1  0  0  0  0
 29 84  1  0  0  0  0
 30 66  1  0  0  0  0
 30 70  1  0  0  0  0
 31 67  1  0  0  0  0
 31 84  1  0  0  0  0
 32 34  2  0  0  0  0
 32 44  1  0  0  0  0
 32 45  1  0  0  0  0
 33 35  2  0  0  0  0
 34 81  1  0  0  0  0
 35 37  1  0  0  0  0
 36 71  1  0  0  0  0
 36 75  2  0  0  0  0
 37 68  1  0  0  0  0
 37 76  2  0  0  0  0
 38 54  1  0  0  0  0
 38 72  1  0  0  0  0
 38 77  2  0  0  0  0
 39 62  1  0  0  0  0
 39 69  1  0  0  0  0
 39 78  2  0  0  0  0
 40 63  1  0  0  0  0
 40 73  1  0  0  0  0
 40 79  2  0  0  0  0
 41 46  1  0  0  0  0
 42 54  1  0  0  0  0
 43 69  1  0  0  0  0
 44 50  1  0  0  0  0
 45 67  1  0  0  0  0
 46 48  1  0  0  0  0
 47 49  1  0  0  0  0
 47 51  1  0  0  0  0
 48 53  1  0  0  0  0
 49 55  1  0  0  0  0
 50 67  1  0  0  0  0
 51 68  1  0  0  0  0
 52 55  1  0  0  0  0
 52 68  1  0  0  0  0
 53 72  1  0  0  0  0
 54 69  1  0  0  0  0
 55 66  1  0  0  0  0
 57 63  1  0  0  0  0
 58 64  1  0  0  0  0
 59 64  1  0  0  0  0
 60 64  1  0  0  0  0
 61 74  1  0  0  0  0
 62 64  1  0  0  0  0
 62 73  1  0  0  0  0
 63 74  1  0  0  0  0
 65 66  1  0  0  0  0
M  CHG  1  74   1
M  ISO  4  34 101  35 100  37 100  81 101
M  END
> <Batch ID>
0116

> <Smiles>
CNC(C)C(=O)NC(C(=O)N1Cc2cc([101O:1][101CH:1]=C3CCN(c4sc(C=[100CH:0][100C:0](=O)N5CCCC(n6nc(-c7ccc(Oc8ccc(F)cc8F)cc7)c(C(N)=O)c6N)C5)cc4C)C3)ccc2CC1C(=O)NC1CCCc2ccccc21)C(C)(C)C

> <Shape>
0.314

> <Color>
0.092

> <Negative vol penalty>
0.000

$$$$

  -OEChem-04052301433D

 82 91  0     1  0  0  0  0  0999 V2000
  -31.7970  -34.2979   20.8902 C   0  0  0  0  0  0  0  0  0  0  0  0
  -31.3753  -33.1146   20.2924 C   0  0  0  0  0  0  0  0  0  0  0  0
  -23.2963  -10.1152   19.7710 C   0  0  0  0  0  0  0  0  0  0  0  0
  -23.9992   -9.6989   22.0447 C   0  0  0  0  0  0  0  0  0  0  0  0
  -31.3435  -34.6337   22.1652 C   0  0  0  0  0  0  0  0  0  0  0  0
  -30.5006  -32.2658   20.9698 C   0  0  0  0  0  0  0  0  0  0  0  0
  -27.6859  -19.6690   20.4877 C   0  0  0  0  0  0  0  0  0  0  0  0
  -26.0790  -28.8136   18.5126 C   0  0  0  0  0  0  0  0  0  0  0  0
  -27.6060  -21.0286   20.1789 C   0  0  0  0  0  0  0  0  0  0  0  0
  -22.6323   -8.8887   19.7517 C   0  0  0  0  0  0  0  0  0  0  0  0
  -23.3351   -8.4724   22.0254 C   0  0  0  0  0  0  0  0  0  0  0  0
  -26.0257  -27.4640   18.1668 C   0  0  0  0  0  0  0  0  0  0  0  0
  -20.1600   -7.3559   22.3290 C   0  0  0  0  0  0  0  0  0  0  0  0
  -19.3804   -7.0252   23.4373 C   0  0  0  0  0  0  0  0  0  0  0  0
  -28.2720  -20.5939   17.8783 C   0  0  0  0  0  0  0  0  0  0  0  0
  -24.9842  -26.9685   20.2855 C   0  0  0  0  0  0  0  0  0  0  0  0
  -20.7413   -5.0639   23.8094 C   0  0  0  0  0  0  0  0  0  0  0  0
  -23.9798  -10.5203   20.9175 C   0  0  0  0  0  0  0  0  0  0  0  0
  -24.1404  -13.0328   21.3287 C   0  0  0  0  0  0  0  0  0  0  0  0
  -30.4552  -33.7932   22.8545 C   0  0  0  0  0  0  0  0  0  0  0  0
  -25.5945  -29.2499   19.7541 C   0  0  0  0  0  0  0  0  0  0  0  0
  -28.0611  -18.7926   19.4848 C   0  0  0  0  0  0  0  0  0  0  0  0
  -30.0358  -32.5899   22.2557 C   0  0  0  0  0  0  0  0  0  0  0  0
  -28.3504  -19.2495   18.1953 C   0  0  0  0  0  0  0  0  0  0  0  0
  -25.0302  -28.3245   20.6436 C   0  0  0  0  0  0  0  0  0  0  0  0
  -27.8962  -21.4876   18.8837 C   0  0  0  0  0  0  0  0  0  0  0  0
  -22.6517   -8.0673   20.8789 C   0  0  0  0  0  0  0  0  0  0  0  0
  -25.4809  -26.5408   19.0545 C   0  0  0  0  0  0  0  0  0  0  0  0
  -21.2302   -6.5405   21.9607 C   0  0  0  0  0  0  0  0  0  0  0  0
  -19.6711   -5.8793   24.1776 C   0  0  0  0  0  0  0  0  0  0  0  0
  -21.5208   -5.3945   22.7010 C   0  0  0  0  0  0  0  0  0  0  0  0
  -24.6664  -11.7869   20.9378 C   0  0  0  0  0  0  0  0  0  0  0  0
  -25.1836  -13.9116   21.1680 C   0  0  0  0  0  0  0  0  0  0  0  0
  -26.6556  -23.2761   18.1852 C   0  0  0  0  0  0  0  0  0  0  0  0
  -22.8262  -13.3659   21.7954 C   0  0  0  0  0  0  0  0  0  0  0  0
  -26.8811  -30.6666   22.2921 C   0  0  0  0  0  0  0  0  0  0  0  0
  -23.8007  -30.7845   23.3016 C   0  0  0  0  0  0  0  0  0  0  0  0
  -20.6459  -29.4937   23.1352 C   0  0  0  0  0  0  0  0  0  0  0  0
  -29.3436  -15.7562   17.8521 C   0  0  0  0  0  0  0  0  0  0  0  0
  -30.0295  -34.1754   24.2500 C   0  0  0  0  0  0  0  0  0  0  0  0
  -25.6349  -30.7129   20.1010 C   0  0  0  0  0  0  0  0  0  0  0  0
  -28.1972  -17.3062   19.5521 C   0  0  0  0  0  0  0  0  0  0  0  0
  -28.7311  -18.1075   17.3147 C   0  0  0  0  0  0  0  0  0  0  0  0
  -24.4779  -28.7447   21.9804 C   0  0  0  0  0  0  0  0  0  0  0  0
  -28.8096  -33.4041   24.7474 C   0  0  0  0  0  0  0  0  0  0  0  0
  -30.0921  -13.0885   20.2574 C   0  0  0  0  0  0  0  0  0  0  0  0
  -28.9645  -31.9148   24.4562 C   0  0  0  0  0  0  0  0  0  0  0  0
  -28.6987  -12.5883   20.6446 C   0  0  0  0  0  0  0  0  0  0  0  0
  -30.1309  -13.6295   18.8296 C   0  0  0  0  0  0  0  0  0  0  0  0
  -27.7222  -14.1372   18.9133 C   0  0  0  0  0  0  0  0  0  0  0  0
  -29.0680  -31.6553   22.9484 C   0  0  1  0  0  0  0  0  0  0  0  0
  -25.5812  -30.9725   21.6034 C   0  0  1  0  0  0  0  0  0  0  0  0
  -27.6246  -13.6578   20.3676 C   0  0  1  0  0  0  0  0  0  0  0  0
  -18.3486  -29.7750   24.1053 C   0  0  0  0  0  0  0  0  0  0  0  0
  -24.7224  -29.4241   25.8725 C   0  0  0  0  0  0  0  0  0  0  0  0
  -22.3276  -28.8820   26.3619 C   0  0  0  0  0  0  0  0  0  0  0  0
  -23.0586  -31.2618   26.2033 C   0  0  0  0  0  0  0  0  0  0  0  0
  -19.4754  -30.1024   20.4860 C   0  0  0  0  0  0  0  0  0  0  0  0
  -26.4387  -24.7230   17.8570 C   0  0  0  0  0  0  0  0  0  1  0  0
  -22.9009  -29.8707   24.0981 C   0  0  1  0  0  0  0  0  0  0  0  0
  -19.2916  -30.1609   22.9763 C   0  0  2  0  0  0  0  0  0  0  0  0
  -23.2645  -29.8511   25.6096 C   0  0  0  0  0  0  0  0  0  0  0  0
  -25.9444  -11.8633   20.5572 N   0  0  0  0  0  0  0  0  0  0  0  0
  -27.8088  -22.8546   18.5987 N   0  0  0  0  0  0  0  0  0  0  0  0
  -26.2302  -13.1677   20.7082 N   0  0  0  0  0  0  0  0  0  0  0  0
  -24.5459  -30.1853   22.2763 N   0  0  0  0  0  0  0  0  0  0  0  0
  -28.6877  -16.9375   18.2074 N   0  0  0  0  0  0  0  0  0  0  0  0
  -29.0751  -14.6190   18.6204 N   0  0  0  0  0  0  0  0  0  0  0  0
  -25.2985  -15.2405   21.3764 N   0  0  0  0  0  0  0  0  0  0  0  0
  -21.8752  -12.3419   21.9011 N   0  0  0  0  0  0  0  0  0  0  0  0
  -27.7610  -31.7313   22.3316 N   0  0  0  0  0  0  0  0  0  0  0  0
  -21.5343  -30.2976   23.8177 N   0  0  0  0  0  0  0  0  0  0  0  0
  -18.6658  -29.7615   21.6841 N   0  3  0  0  0  0  0  0  0  0  0  0
  -22.5001  -14.5399   22.0938 O   0  0  0  0  0  0  0  0  0  0  0  0
  -27.0711  -29.5478   22.7547 O   0  0  0  0  0  0  0  0  0  0  0  0
  -23.8354  -31.9870   23.5743 O   0  0  0  0  0  0  0  0  0  0  0  0
  -20.8899  -28.3701   22.7010 O   0  0  0  0  0  0  0  0  0  0  0  0
  -30.1696  -15.7302   16.9308 O   0  0  0  0  0  0  0  0  0  0  0  0
  -22.0037   -6.8705   20.8605 O   0  0  0  0  0  0  0  0  0  0  0  0
  -25.4277  -25.2099   18.7165 O   0  0  0  0  0  0  0  0  0  1  0  0
  -18.9233   -5.5627   25.2429 F   0  0  0  0  0  0  0  0  0  0  0  0
  -22.5484   -4.6080   22.3528 F   0  0  0  0  0  0  0  0  0  0  0  0
  1  2  1  0  0  0  0
  1  5  2  0  0  0  0
  2  6  2  0  0  0  0
  3 10  2  0  0  0  0
  3 18  1  0  0  0  0
  4 11  1  0  0  0  0
  4 18  2  0  0  0  0
  5 20  1  0  0  0  0
  6 23  1  0  0  0  0
  7  9  2  0  0  0  0
  7 22  1  0  0  0  0
  8 12  2  0  0  0  0
  8 21  1  0  0  0  0
  9 26  1  0  0  0  0
 10 27  1  0  0  0  0
 11 27  2  0  0  0  0
 12 28  1  0  0  0  0
 13 14  2  0  0  0  0
 13 29  1  0  0  0  0
 14 30  1  0  0  0  0
 15 24  1  0  0  0  0
 15 26  2  0  0  0  0
 16 25  1  0  0  0  0
 16 28  2  0  0  0  0
 17 30  2  0  0  0  0
 17 31  1  0  0  0  0
 18 32  1  0  0  0  0
 19 32  1  0  0  0  0
 19 33  2  0  0  0  0
 19 35  1  0  0  0  0
 20 23  2  0  0  0  0
 20 40  1  0  0  0  0
 21 25  2  0  0  0  0
 21 41  1  0  0  0  0
 22 24  2  0  0  0  0
 22 42  1  0  0  0  0
 23 51  1  0  0  0  0
 24 43  1  0  0  0  0
 25 44  1  0  0  0  0
 26 64  1  0  0  0  0
 27 79  1  0  0  0  0
 28 80  1  0  0  0  0
 29 31  2  0  0  0  0
 29 79  1  0  0  0  0
 30 81  1  0  0  0  0
 31 82  1  0  0  0  0
 32 63  2  0  0  0  0
 33 65  1  0  0  0  0
 33 69  1  0  0  0  0
 34 59  1  0  0  0  0
 34 64  2  0  0  0  0
 35 70  1  0  0  0  0
 35 74  2  0  0  0  0
 36 52  1  0  0  0  0
 36 71  1  0  0  0  0
 36 75  2  0  0  0  0
 37 60  1  0  0  0  0
 37 66  1  0  0  0  0
 37 76  2  0  0  0  0
 38 61  1  0  0  0  0
 38 72  1  0  0  0  0
 38 77  2  0  0  0  0
 39 67  1  0  0  0  0
 39 68  1  0  0  0  0
 39 78  2  0  0  0  0
 40 45  1  0  0  0  0
 41 52  1  0  0  0  0
 42 67  1  0  0  0  0
 43 67  1  0  0  0  0
 44 66  1  0  0  0  0
 45 47  1  0  0  0  0
 46 48  1  0  0  0  0
 46 49  1  0  0  0  0
 47 51  1  0  0  0  0
 48 53  1  0  0  0  0
 49 68  1  0  0  0  0
 50 53  1  0  0  0  0
 50 68  1  0  0  0  0
 51 71  1  0  0  0  0
 52 66  1  0  0  0  0
 53 65  1  0  0  0  0
 54 61  1  0  0  0  0
 55 62  1  0  0  0  0
 56 62  1  0  0  0  0
 57 62  1  0  0  0  0
 58 73  1  0  0  0  0
 59 80  1  0  0  0  0
 60 62  1  0  0  0  0
 60 72  1  0  0  0  0
 61 73  1  0  0  0  0
 63 65  1  0  0  0  0
M  CHG  1  73   1
M  ISO  4  39 100  59 101  67 100  80 101
M  END
> <Batch ID>
0116

> <Smiles>
CNC(C)C(=O)NC(C(=O)N1Cc2cc([101O:1][101CH:1]=CNc3ccc4c(c3)C[100N:0]([100C:0](=O)N3CCCC(n5nc(-c6ccc(Oc7ccc(F)cc7F)cc6)c(C(N)=O)c5N)C3)C4)ccc2CC1C(=O)NC1CCCc2ccccc21)C(C)(C)C

> <Shape>
0.299

> <Color>
0.167

> <Negative vol penalty>
0.000

$$$$

  -OEChem-04052301433D

 81 89  0     1  0  0  0  0  0999 V2000
  -16.9458  -30.9407   22.5433 C   0  0  0  0  0  0  0  0  0  0  0  0
  -18.1058  -31.2967   21.8628 C   0  0  0  0  0  0  0  0  0  0  0  0
  -26.3384  -12.8970   20.9820 C   0  0  0  0  0  0  0  0  0  0  0  0
  -24.6888  -14.5465   21.6106 C   0  0  0  0  0  0  0  0  0  0  0  0
  -17.0125  -30.0498   23.6137 C   0  0  0  0  0  0  0  0  0  0  0  0
  -19.3334  -30.7628   22.2530 C   0  0  0  0  0  0  0  0  0  0  0  0
  -25.6358  -28.6957   19.5468 C   0  0  0  0  0  0  0  0  0  0  0  0
  -25.5185  -11.8860   21.4832 C   0  0  0  0  0  0  0  0  0  0  0  0
  -23.8688  -13.5354   22.1118 C   0  0  0  0  0  0  0  0  0  0  0  0
  -27.0036  -28.8947   19.7292 C   0  0  0  0  0  0  0  0  0  0  0  0
  -22.7755  -10.1792   20.4853 C   0  0  0  0  0  0  0  0  0  0  0  0
  -22.6101   -9.0334   19.7074 C   0  0  0  0  0  0  0  0  0  0  0  0
  -26.9872  -27.3036   21.5423 C   0  0  0  0  0  0  0  0  0  0  0  0
  -30.4762  -23.8744   20.1381 C   0  0  0  0  0  0  0  0  0  0  0  0
  -23.5346   -7.6898   21.4899 C   0  0  0  0  0  0  0  0  0  0  0  0
  -25.9236  -14.2273   21.0457 C   0  0  0  0  0  0  0  0  0  0  0  0
  -26.7834  -15.7851   19.2178 C   0  0  0  0  0  0  0  0  0  0  0  0
  -18.2403  -29.4972   24.0111 C   0  0  0  0  0  0  0  0  0  0  0  0
  -24.9301  -27.8058   20.3693 C   0  0  0  0  0  0  0  0  0  0  0  0
  -19.4168  -29.8647   23.3306 C   0  0  0  0  0  0  0  0  0  0  0  0
  -25.6110  -27.0932   21.3667 C   0  0  0  0  0  0  0  0  0  0  0  0
  -24.2837  -12.2052   22.0480 C   0  0  0  0  0  0  0  0  0  0  0  0
  -27.6790  -28.2008   20.7290 C   0  0  0  0  0  0  0  0  0  0  0  0
  -23.3205  -10.0804   21.7655 C   0  0  0  0  0  0  0  0  0  0  0  0
  -30.1264  -24.8530   19.1773 C   0  0  0  0  0  0  0  0  0  0  0  0
  -22.9896   -7.7886   20.2097 C   0  0  0  0  0  0  0  0  0  0  0  0
  -23.7000   -8.8357   22.2678 C   0  0  0  0  0  0  0  0  0  0  0  0
  -26.7703  -15.2722   20.5287 C   0  0  0  0  0  0  0  0  0  0  0  0
  -29.0739  -24.3287   18.4636 C   0  0  0  0  0  0  0  0  0  0  0  0
  -27.7577  -16.7531   19.2376 C   0  0  0  0  0  0  0  0  0  0  0  0
  -29.6123  -22.8219   19.9432 C   0  0  0  0  0  0  0  0  0  0  0  0
  -25.9862  -15.4194   18.0836 C   0  0  0  0  0  0  0  0  0  0  0  0
  -22.5256  -28.0823   22.4299 C   0  0  0  0  0  0  0  0  0  0  0  0
  -22.7344  -24.8462   22.5088 C   0  0  0  0  0  0  0  0  0  0  0  0
  -24.6410  -22.0538   22.0461 C   0  0  0  0  0  0  0  0  0  0  0  0
  -30.2594  -21.0970   21.6615 C   0  0  0  0  0  0  0  0  0  0  0  0
  -18.2691  -28.5749   25.2041 C   0  0  0  0  0  0  0  0  0  0  0  0
  -23.4601  -27.5823   20.1423 C   0  0  0  0  0  0  0  0  0  0  0  0
  -24.9034  -26.1113   22.2631 C   0  0  0  0  0  0  0  0  0  0  0  0
  -19.5577  -27.7643   25.3163 C   0  0  0  0  0  0  0  0  0  0  0  0
  -31.2408  -17.8498   22.7429 C   0  0  0  0  0  0  0  0  0  0  0  0
  -20.7731  -28.6622   25.1083 C   0  0  0  0  0  0  0  0  0  0  0  0
  -30.1663  -16.9319   22.1554 C   0  0  0  0  0  0  0  0  0  0  0  0
  -30.6576  -19.1860   23.1992 C   0  0  0  0  0  0  0  0  0  0  0  0
  -28.7976  -18.9817   21.5967 C   0  0  0  0  0  0  0  0  0  0  0  0
  -20.7638  -29.2876   23.7082 C   0  0  1  0  0  0  0  0  0  0  0  0
  -22.7417  -27.0367   21.3726 C   0  0  1  0  0  0  0  0  0  0  0  0
  -29.3481  -17.6489   21.0635 C   0  0  2  0  0  0  0  0  0  0  0  0
  -28.2630  -24.8314   17.3449 C   0  0  0  0  0  0  0  0  0  0  0  0
  -24.5476  -19.5526   22.2266 C   0  0  0  0  0  0  0  0  0  0  0  0
  -22.9550  -25.0594   25.5446 C   0  0  0  0  0  0  0  0  0  0  0  0
  -23.7979  -22.7022   25.5791 C   0  0  0  0  0  0  0  0  0  0  0  0
  -21.5030  -23.1920   24.7327 C   0  0  0  0  0  0  0  0  0  0  0  0
  -25.1910  -21.7089   19.1586 C   0  0  0  0  0  0  0  0  0  0  0  0
  -31.2077  -28.2360   19.9174 C   0  0  0  0  0  0  0  0  0  0  0  0
  -29.7818  -28.7398   19.7576 C   0  0  0  0  0  0  0  0  0  1  0  0
  -31.2607  -26.7275   20.1021 C   0  0  0  0  0  0  0  0  0  0  0  0
  -23.5055  -23.8444   23.3340 C   0  0  1  0  0  0  0  0  0  0  0  0
  -24.3626  -20.7541   21.3128 C   0  0  2  0  0  0  0  0  0  0  0  0
  -22.9536  -23.7194   24.7821 C   0  0  0  0  0  0  0  0  0  0  0  0
  -27.6653  -15.8651   21.3234 N   0  0  0  0  0  0  0  0  0  0  0  0
  -28.2499  -16.7606   20.5095 N   0  0  0  0  0  0  0  0  0  0  0  0
  -23.4649  -25.9321   22.0060 N   0  0  0  0  0  0  0  0  0  0  0  0
  -29.8997  -19.8092   22.1119 N   0  0  0  0  0  0  0  0  0  0  0  0
  -28.2327  -17.5901   18.2909 N   0  0  0  0  0  0  0  0  0  0  0  0
  -25.0315  -14.4049   18.2372 N   0  0  0  0  0  0  0  0  0  0  0  0
  -29.4883  -21.5734   20.6018 N   0  0  0  0  0  0  0  0  0  0  0  0
  -21.1962  -28.3221   22.7206 N   0  0  0  0  0  0  0  0  0  0  0  0
  -23.4908  -22.5961   22.5790 N   0  0  0  0  0  0  0  0  0  0  0  0
  -25.2841  -20.6072   20.1509 N   0  3  0  0  0  0  0  0  0  0  0  0
  -26.1280  -15.9644   16.9627 O   0  0  0  0  0  0  0  0  0  0  0  0
  -23.4935  -28.6298   22.9448 O   0  0  0  0  0  0  0  0  0  0  0  0
  -21.5299  -24.6678   22.3115 O   0  0  0  0  0  0  0  0  0  0  0  0
  -25.7670  -22.5375   22.1401 O   0  0  0  0  0  0  0  0  0  0  0  0
  -31.2008  -21.7194   22.1598 O   0  0  0  0  0  0  0  0  0  0  0  0
  -28.7543  -23.0909   18.9244 O   0  0  0  0  0  0  0  0  0  0  0  0
  -23.4833  -11.2189   22.5370 O   0  0  0  0  0  0  0  0  0  0  0  0
  -29.0139  -28.3936   20.9095 O   0  0  0  0  0  0  0  0  0  1  0  0
  -30.6951  -26.0826   18.9690 O   0  0  0  0  0  0  0  0  0  0  0  0
  -22.8293   -6.6881   19.4631 F   0  0  0  0  0  0  0  0  0  0  0  0
  -24.2230   -8.7343   23.4975 F   0  0  0  0  0  0  0  0  0  0  0  0
  1  2  1  0  0  0  0
  1  5  2  0  0  0  0
  2  6  2  0  0  0  0
  3  8  2  0  0  0  0
  3 16  1  0  0  0  0
  4  9  1  0  0  0  0
  4 16  2  0  0  0  0
  5 18  1  0  0  0  0
  6 20  1  0  0  0  0
  7 10  2  0  0  0  0
  7 19  1  0  0  0  0
  8 22  1  0  0  0  0
  9 22  2  0  0  0  0
 10 23  1  0  0  0  0
 11 12  2  0  0  0  0
 11 24  1  0  0  0  0
 12 26  1  0  0  0  0
 13 21  1  0  0  0  0
 13 23  2  0  0  0  0
 14 25  1  0  0  0  0
 14 31  2  0  0  0  0
 15 26  2  0  0  0  0
 15 27  1  0  0  0  0
 16 28  1  0  0  0  0
 17 28  1  0  0  0  0
 17 30  2  0  0  0  0
 17 32  1  0  0  0  0
 18 20  2  0  0  0  0
 18 37  1  0  0  0  0
 19 21  2  0  0  0  0
 19 38  1  0  0  0  0
 20 46  1  0  0  0  0
 21 39  1  0  0  0  0
 22 77  1  0  0  0  0
 23 78  1  0  0  0  0
 24 27  2  0  0  0  0
 24 77  1  0  0  0  0
 25 29  2  0  0  0  0
 25 79  1  0  0  0  0
 26 80  1  0  0  0  0
 27 81  1  0  0  0  0
 28 61  2  0  0  0  0
 29 49  1  0  0  0  0
 29 76  1  0  0  0  0
 30 62  1  0  0  0  0
 30 65  1  0  0  0  0
 31 67  1  0  0  0  0
 31 76  1  0  0  0  0
 32 66  1  0  0  0  0
 32 71  2  0  0  0  0
 33 47  1  0  0  0  0
 33 68  1  0  0  0  0
 33 72  2  0  0  0  0
 34 58  1  0  0  0  0
 34 63  1  0  0  0  0
 34 73  2  0  0  0  0
 35 59  1  0  0  0  0
 35 69  1  0  0  0  0
 35 74  2  0  0  0  0
 36 64  1  0  0  0  0
 36 67  1  0  0  0  0
 36 75  2  0  0  0  0
 37 40  1  0  0  0  0
 38 47  1  0  0  0  0
 39 63  1  0  0  0  0
 40 42  1  0  0  0  0
 41 43  1  0  0  0  0
 41 44  1  0  0  0  0
 42 46  1  0  0  0  0
 43 48  1  0  0  0  0
 44 64  1  0  0  0  0
 45 48  1  0  0  0  0
 45 64  1  0  0  0  0
 46 68  1  0  0  0  0
 47 63  1  0  0  0  0
 48 62  1  0  0  0  0
 50 59  1  0  0  0  0
 51 60  1  0  0  0  0
 52 60  1  0  0  0  0
 53 60  1  0  0  0  0
 54 70  1  0  0  0  0
 55 56  1  0  0  0  0
 55 57  1  0  0  0  0
 56 78  1  0  0  0  0
 57 79  1  0  0  0  0
 58 60  1  0  0  0  0
 58 69  1  0  0  0  0
 59 70  1  0  0  0  0
 61 62  1  0  0  0  0
M  CHG  1  70   1
M  ISO  4  36 100  56 101  67 100  78 101
M  END
> <Batch ID>
0116

> <Smiles>
CNC(C)C(=O)NC(C(=O)N1Cc2cc([101O:1][101CH2:1]CCOc3cc([100NH:0][100C:0](=O)N4CCCC(n5nc(-c6ccc(Oc7ccc(F)cc7F)cc6)c(C(N)=O)c5N)C4)oc3C)ccc2CC1C(=O)NC1CCCc2ccccc21)C(C)(C)C

> <Shape>
0.247

> <Color>
0.093

> <Negative vol penalty>
0.000

$$$$

  -OEChem-04052301433D

 84 92  0     1  0  0  0  0  0999 V2000
  -17.0737  -24.7914   23.0314 C   0  0  0  0  0  0  0  0  0  0  0  0
  -17.9565  -24.4793   22.0024 C   0  0  0  0  0  0  0  0  0  0  0  0
  -28.3298  -19.4419   18.5055 C   0  0  0  0  0  0  0  0  0  0  0  0
  -27.7651  -20.0946   20.7621 C   0  0  0  0  0  0  0  0  0  0  0  0
  -17.1131  -26.0531   23.6234 C   0  0  0  0  0  0  0  0  0  0  0  0
  -18.8785  -25.4291   21.5641 C   0  0  0  0  0  0  0  0  0  0  0  0
  -23.5116  -23.4880   20.9229 C   0  0  0  0  0  0  0  0  0  0  0  0
  -29.2193  -20.5127   18.4183 C   0  0  0  0  0  0  0  0  0  0  0  0
  -28.6546  -21.1654   20.6749 C   0  0  0  0  0  0  0  0  0  0  0  0
  -23.7362  -22.7458   19.7642 C   0  0  0  0  0  0  0  0  0  0  0  0
  -31.3727  -23.2869   17.4748 C   0  0  0  0  0  0  0  0  0  0  0  0
  -31.3514  -24.0566   16.3117 C   0  0  0  0  0  0  0  0  0  0  0  0
  -24.8006  -24.6594   18.7521 C   0  0  0  0  0  0  0  0  0  0  0  0
  -20.2480  -19.4166   13.8358 C   0  0  0  0  0  0  0  0  0  0  0  0
  -29.0387  -24.6192   16.7262 C   0  0  0  0  0  0  0  0  0  0  0  0
  -27.6026  -19.2328   19.6774 C   0  0  0  0  0  0  0  0  0  0  0  0
  -26.9641  -16.8224   20.2157 C   0  0  0  0  0  0  0  0  0  0  0  0
  -18.0425  -27.0156   23.1987 C   0  0  0  0  0  0  0  0  0  0  0  0
  -23.9207  -24.8270   21.0010 C   0  0  0  0  0  0  0  0  0  0  0  0
  -18.9295  -26.7054   22.1501 C   0  0  0  0  0  0  0  0  0  0  0  0
  -24.5823  -25.4156   19.9139 C   0  0  0  0  0  0  0  0  0  0  0  0
  -29.3817  -21.3745   19.5030 C   0  0  0  0  0  0  0  0  0  0  0  0
  -24.3782  -23.3324   18.6776 C   0  0  0  0  0  0  0  0  0  0  0  0
  -30.2269  -23.1833   18.2636 C   0  0  0  0  0  0  0  0  0  0  0  0
  -21.3916  -18.7754   14.3936 C   0  0  0  0  0  0  0  0  0  0  0  0
  -30.1845  -24.7227   15.9374 C   0  0  0  0  0  0  0  0  0  0  0  0
  -29.0599  -23.8494   17.8893 C   0  0  0  0  0  0  0  0  0  0  0  0
  -26.6832  -18.1271   19.7678 C   0  0  0  0  0  0  0  0  0  0  0  0
  -19.3595  -18.5126   13.2964 C   0  0  0  0  0  0  0  0  0  0  0  0
  -21.3335  -17.4055   14.2595 C   0  0  0  0  0  0  0  0  0  0  0  0
  -25.7669  -16.1576   20.1093 C   0  0  0  0  0  0  0  0  0  0  0  0
  -21.6301  -13.0757   16.0591 C   0  0  0  0  0  0  0  0  0  0  0  0
  -23.5739  -21.3746   15.7642 C   0  0  0  0  0  0  0  0  0  0  0  0
  -21.6952  -14.1117   15.2199 C   0  0  0  0  0  0  0  0  0  0  0  0
  -23.5145  -22.1014   16.8860 C   0  0  0  0  0  0  0  0  0  1  0  0
  -28.1969  -16.2615   20.6860 C   0  0  0  0  0  0  0  0  0  0  0  0
  -22.4328  -27.6076   21.3982 C   0  0  0  0  0  0  0  0  0  0  0  0
  -25.4604  -28.7633   21.5419 C   0  0  0  0  0  0  0  0  0  0  0  0
  -28.7526  -28.3712   20.7329 C   0  0  0  0  0  0  0  0  0  0  0  0
  -21.1132  -15.7803   16.8550 C   0  0  0  0  0  0  0  0  0  0  0  0
  -18.0157  -28.3819   23.8369 C   0  0  0  0  0  0  0  0  0  0  0  0
  -23.6949  -25.6059   22.2678 C   0  0  0  0  0  0  0  0  0  0  0  0
  -25.0594  -26.8436   19.9546 C   0  0  0  0  0  0  0  0  0  0  0  0
  -19.2733  -29.2045   23.5682 C   0  0  0  0  0  0  0  0  0  0  0  0
  -21.0283  -17.5065   19.8598 C   0  0  0  0  0  0  0  0  0  0  0  0
  -19.6480  -29.1397   22.0910 C   0  0  0  0  0  0  0  0  0  0  0  0
  -22.5017  -17.7266   20.1991 C   0  0  0  0  0  0  0  0  0  0  0  0
  -20.7773  -17.7088   18.3703 C   0  0  0  0  0  0  0  0  0  0  0  0
  -23.0947  -17.0369   17.8217 C   0  0  0  0  0  0  0  0  0  0  0  0
  -19.9606  -27.7005   21.6638 C   0  0  1  0  0  0  0  0  0  0  0  0
  -23.6946  -27.1157   22.0489 C   0  0  1  0  0  0  0  0  0  0  0  0
  -23.4061  -16.8451   19.3204 C   0  0  1  0  0  0  0  0  0  0  0  0
  -18.0661  -18.7789   12.6310 C   0  0  0  0  0  0  0  0  0  0  0  0
  -30.9833  -29.4990   20.9545 C   0  0  0  0  0  0  0  0  0  0  0  0
  -24.6773  -30.7372   19.3509 C   0  0  0  0  0  0  0  0  0  0  0  0
  -27.1135  -31.1594   18.9572 C   0  0  0  0  0  0  0  0  0  0  0  0
  -26.0963  -31.7052   21.1685 C   0  0  0  0  0  0  0  0  0  0  0  0
  -29.8765  -26.1039   22.2675 C   0  0  0  0  0  0  0  0  0  0  0  0
  -22.3130  -16.3871   14.7014 C   0  0  0  0  0  0  0  0  0  0  0  0
  -22.3668  -20.8378   15.0653 C   0  0  0  0  0  0  0  0  0  0  0  0
  -26.4547  -29.2846   20.5326 C   0  0  1  0  0  0  0  0  0  0  0  0
  -30.0161  -28.4967   21.5649 C   0  0  2  0  0  0  0  0  0  0  0  0
  -26.0749  -30.6952   20.0005 C   0  0  0  0  0  0  0  0  0  0  0  0
  -25.4077  -18.2839   19.4038 N   0  0  0  0  0  0  0  0  0  0  0  0
  -24.8765  -17.0690   19.6228 N   0  0  0  0  0  0  0  0  0  0  0  0
  -24.8096  -27.5657   21.2130 N   0  0  0  0  0  0  0  0  0  0  0  0
  -21.6574  -16.8630   17.5635 N   0  0  0  0  0  0  0  0  0  0  0  0
  -25.3995  -14.8883   20.3853 N   0  0  0  0  0  0  0  0  0  0  0  0
  -29.3309  -17.0839   20.7311 N   0  0  0  0  0  0  0  0  0  0  0  0
  -21.2835  -27.3173   22.1083 N   0  0  0  0  0  0  0  0  0  0  0  0
  -27.7619  -29.2212   21.1773 N   0  0  0  0  0  0  0  0  0  0  0  0
  -21.7407  -15.4223   15.6474 N   0  0  0  0  0  0  0  0  0  0  0  0
  -30.7048  -27.1787   21.6629 N   0  3  0  0  0  0  0  0  0  0  0  0
  -28.2941  -15.0619   21.0398 O   0  0  0  0  0  0  0  0  0  0  0  0
  -22.4973  -28.2075   20.3316 O   0  0  0  0  0  0  0  0  0  0  0  0
  -25.2734  -29.3916   22.5868 O   0  0  0  0  0  0  0  0  0  0  0  0
  -28.6554  -27.5993   19.7815 O   0  0  0  0  0  0  0  0  0  0  0  0
  -20.1117  -15.1826   17.2717 O   0  0  0  0  0  0  0  0  0  0  0  0
  -30.2498  -22.4194   19.4184 O   0  0  0  0  0  0  0  0  0  0  0  0
  -24.5981  -22.6104   17.5452 O   0  0  0  0  0  0  0  0  0  1  0  0
  -22.4397  -19.4196   14.9974 O   0  0  0  0  0  0  0  0  0  0  0  0
  -30.1647  -25.4631   14.8213 F   0  0  0  0  0  0  0  0  0  0  0  0
  -27.9564  -23.7546   18.6437 F   0  0  0  0  0  0  0  0  0  0  0  0
  -19.9048  -16.8979   13.4635 S   0  0  0  0  0  0  0  0  0  0  0  0
  1  2  1  0  0  0  0
  1  5  2  0  0  0  0
  2  6  2  0  0  0  0
  3  8  2  0  0  0  0
  3 16  1  0  0  0  0
  4  9  1  0  0  0  0
  4 16  2  0  0  0  0
  5 18  1  0  0  0  0
  6 20  1  0  0  0  0
  7 10  2  0  0  0  0
  7 19  1  0  0  0  0
  8 22  1  0  0  0  0
  9 22  2  0  0  0  0
 10 23  1  0  0  0  0
 11 12  2  0  0  0  0
 11 24  1  0  0  0  0
 12 26  1  0  0  0  0
 13 21  1  0  0  0  0
 13 23  2  0  0  0  0
 14 25  1  0  0  0  0
 14 29  2  0  0  0  0
 15 26  2  0  0  0  0
 15 27  1  0  0  0  0
 16 28  1  0  0  0  0
 17 28  1  0  0  0  0
 17 31  2  0  0  0  0
 17 36  1  0  0  0  0
 18 20  2  0  0  0  0
 18 41  1  0  0  0  0
 19 21  2  0  0  0  0
 19 42  1  0  0  0  0
 20 50  1  0  0  0  0
 21 43  1  0  0  0  0
 22 79  1  0  0  0  0
 23 80  1  0  0  0  0
 24 27  2  0  0  0  0
 24 79  1  0  0  0  0
 25 30  2  0  0  0  0
 25 81  1  0  0  0  0
 26 82  1  0  0  0  0
 27 83  1  0  0  0  0
 28 64  2  0  0  0  0
 29 53  1  0  0  0  0
 29 84  1  0  0  0  0
 30 59  1  0  0  0  0
 30 84  1  0  0  0  0
 31 65  1  0  0  0  0
 31 68  1  0  0  0  0
 32 34  2  0  0  0  0
 33 35  2  0  0  0  0
 33 60  1  0  0  0  0
 34 72  1  0  0  0  0
 35 80  1  0  0  0  0
 36 69  1  0  0  0  0
 36 74  2  0  0  0  0
 37 51  1  0  0  0  0
 37 70  1  0  0  0  0
 37 75  2  0  0  0  0
 38 61  1  0  0  0  0
 38 66  1  0  0  0  0
 38 76  2  0  0  0  0
 39 62  1  0  0  0  0
 39 71  1  0  0  0  0
 39 77  2  0  0  0  0
 40 67  1  0  0  0  0
 40 72  1  0  0  0  0
 40 78  2  0  0  0  0
 41 44  1  0  0  0  0
 42 51  1  0  0  0  0
 43 66  1  0  0  0  0
 44 46  1  0  0  0  0
 45 47  1  0  0  0  0
 45 48  1  0  0  0  0
 46 50  1  0  0  0  0
 47 52  1  0  0  0  0
 48 67  1  0  0  0  0
 49 52  1  0  0  0  0
 49 67  1  0  0  0  0
 50 70  1  0  0  0  0
 51 66  1  0  0  0  0
 52 65  1  0  0  0  0
 54 62  1  0  0  0  0
 55 63  1  0  0  0  0
 56 63  1  0  0  0  0
 57 63  1  0  0  0  0
 58 73  1  0  0  0  0
 59 72  1  0  0  0  0
 60 81  1  0  0  0  0
 61 63  1  0  0  0  0
 61 71  1  0  0  0  0
 62 73  1  0  0  0  0
 64 65  1  0  0  0  0
M  CHG  1  73   1
M  ISO  4  35 101  40 100  72 100  80 101
M  END
> <Batch ID>
0116

> <Smiles>
C=C[100N:0](Cc1sc(C)cc1OCC=[101CH:1][101O:1]c1ccc2c(c1)CN(C(=O)C(NC(=O)C(C)NC)C(C)(C)C)C(C(=O)NC1CCCc3ccccc31)C2)[100C:0](=O)N1CCCC(n2nc(-c3ccc(Oc4ccc(F)cc4F)cc3)c(C(N)=O)c2N)C1

> <Shape>
0.194

> <Color>
0.062

> <Negative vol penalty>
0.000

$$$$

  -OEChem-04052301433D

 83 91  0     1  0  0  0  0  0999 V2000
  -26.1229  -26.6204   13.4970 C   0  0  0  0  0  0  0  0  0  0  0  0
  -26.0463  -25.8175   14.6305 C   0  0  0  0  0  0  0  0  0  0  0  0
  -23.1445   -9.7401   19.9393 C   0  0  0  0  0  0  0  0  0  0  0  0
  -23.8544   -9.8219   22.2472 C   0  0  0  0  0  0  0  0  0  0  0  0
  -26.9815  -27.7187   13.4788 C   0  0  0  0  0  0  0  0  0  0  0  0
  -26.8292  -26.1118   15.7462 C   0  0  0  0  0  0  0  0  0  0  0  0
  -25.3078  -25.3167   21.6249 C   0  0  0  0  0  0  0  0  0  0  0  0
  -22.4374   -8.5660   20.1984 C   0  0  0  0  0  0  0  0  0  0  0  0
  -23.1473   -8.6478   22.5063 C   0  0  0  0  0  0  0  0  0  0  0  0
  -25.6030  -24.3091   22.5422 C   0  0  0  0  0  0  0  0  0  0  0  0
  -19.9378   -7.7454   23.0590 C   0  0  0  0  0  0  0  0  0  0  0  0
  -19.1579   -7.7020   24.2146 C   0  0  0  0  0  0  0  0  0  0  0  0
  -29.6233  -17.6448   23.1233 C   0  0  0  0  0  0  0  0  0  0  0  0
  -27.4422  -25.6232   23.3846 C   0  0  0  0  0  0  0  0  0  0  0  0
  -20.4523   -5.8267   25.0177 C   0  0  0  0  0  0  0  0  0  0  0  0
  -31.8127  -16.8752   22.6027 C   0  0  0  0  0  0  0  0  0  0  0  0
  -23.8530  -10.3680   20.9637 C   0  0  0  0  0  0  0  0  0  0  0  0
  -30.1872  -18.5554   24.0100 C   0  0  0  0  0  0  0  0  0  0  0  0
  -24.1062  -12.9010   20.7969 C   0  0  0  0  0  0  0  0  0  0  0  0
  -27.7683  -28.0323   14.5984 C   0  0  0  0  0  0  0  0  0  0  0  0
  -26.0856  -26.4824   21.5732 C   0  0  0  0  0  0  0  0  0  0  0  0
  -27.7002  -27.2146   15.7425 C   0  0  0  0  0  0  0  0  0  0  0  0
  -27.1532  -26.6452   22.4675 C   0  0  0  0  0  0  0  0  0  0  0  0
  -30.4447  -16.7852   22.4024 C   0  0  0  0  0  0  0  0  0  0  0  0
  -22.4388   -8.0198   21.4819 C   0  0  0  0  0  0  0  0  0  0  0  0
  -26.6721  -24.4610   23.4203 C   0  0  0  0  0  0  0  0  0  0  0  0
  -20.9749   -6.8294   22.8826 C   0  0  0  0  0  0  0  0  0  0  0  0
  -19.4151   -6.7427   25.1940 C   0  0  0  0  0  0  0  0  0  0  0  0
  -21.2321   -5.8700   23.8620 C   0  0  0  0  0  0  0  0  0  0  0  0
  -24.5841  -11.5806   20.6965 C   0  0  0  0  0  0  0  0  0  0  0  0
  -31.5667  -18.5661   24.1386 C   0  0  0  0  0  0  0  0  0  0  0  0
  -25.1782  -13.6821   20.4404 C   0  0  0  0  0  0  0  0  0  0  0  0
  -28.4121  -20.3759   23.9997 C   0  0  0  0  0  0  0  0  0  0  0  0
  -27.5810  -21.2086   24.6416 C   0  0  0  0  0  0  0  0  0  0  0  0
  -29.3020  -19.4682   24.7731 C   0  0  0  0  0  0  0  0  0  0  0  0
  -22.8093  -13.3786   21.1784 C   0  0  0  0  0  0  0  0  0  0  0  0
  -27.9247  -27.8561   19.3745 C   0  0  0  0  0  0  0  0  0  0  0  0
  -28.0919  -30.2417   21.5661 C   0  0  0  0  0  0  0  0  0  0  0  0
  -27.8561  -31.1951   24.8344 C   0  0  0  0  0  0  0  0  0  0  0  0
  -30.5982  -14.9296   20.7055 C   0  0  0  0  0  0  0  0  0  0  0  0
  -28.7166  -29.2021   14.5145 C   0  0  0  0  0  0  0  0  0  0  0  0
  -25.7377  -27.5715   20.5959 C   0  0  0  0  0  0  0  0  0  0  0  0
  -28.0065  -27.8863   22.4662 C   0  0  0  0  0  0  0  0  0  0  0  0
  -29.2351  -29.6645   15.8738 C   0  0  0  0  0  0  0  0  0  0  0  0
  -29.6223  -12.4286   18.3667 C   0  0  0  0  0  0  0  0  0  0  0  0
  -29.6848  -28.4694   16.7083 C   0  0  0  0  0  0  0  0  0  0  0  0
  -28.1853  -12.0936   18.7726 C   0  0  0  0  0  0  0  0  0  0  0  0
  -30.5027  -12.7152   19.5818 C   0  0  0  0  0  0  0  0  0  0  0  0
  -28.5418  -13.3980   20.9077 C   0  0  0  0  0  0  0  0  0  0  0  0
  -28.5153  -27.5159   16.9815 C   0  0  1  0  0  0  0  0  0  0  0  0
  -26.9131  -28.4930   20.2847 C   0  0  1  0  0  0  0  0  0  0  0  0
  -27.6013  -13.1652   19.7140 C   0  0  2  0  0  0  0  0  0  0  0  0
  -28.0823  -33.2036   26.3218 C   0  0  0  0  0  0  0  0  0  0  0  0
  -31.1300  -30.0509   21.3575 C   0  0  0  0  0  0  0  0  0  0  0  0
  -31.2884  -31.3536   23.4897 C   0  0  0  0  0  0  0  0  0  0  0  0
  -30.2369  -32.3839   21.4759 C   0  0  0  0  0  0  0  0  0  0  0  0
  -25.0350  -31.0093   25.7094 C   0  0  0  0  0  0  0  0  0  0  0  0
  -26.6480  -22.1397   23.9367 C   0  0  0  0  0  0  0  0  0  1  0  0
  -29.0020  -30.5661   22.7260 C   0  0  1  0  0  0  0  0  0  0  0  0
  -27.1301  -32.3524   25.4963 C   0  0  2  0  0  0  0  0  0  0  0  0
  -30.3996  -31.0643   22.2613 C   0  0  0  0  0  0  0  0  0  0  0  0
  -32.3970  -17.7466   23.4553 N   0  0  0  0  0  0  0  0  0  0  0  0
  -25.8602  -11.5223   20.3066 N   0  0  0  0  0  0  0  0  0  0  0  0
  -26.1933  -12.8159   20.1587 N   0  0  0  0  0  0  0  0  0  0  0  0
  -27.6303  -28.9201   21.4878 N   0  0  0  0  0  0  0  0  0  0  0  0
  -29.8883  -13.7428   20.4253 N   0  0  0  0  0  0  0  0  0  0  0  0
  -25.3420  -15.0186   20.3433 N   0  0  0  0  0  0  0  0  0  0  0  0
  -21.8238  -12.4403   21.5141 N   0  0  0  0  0  0  0  0  0  0  0  0
  -29.9006  -15.8471   21.4904 N   0  0  0  0  0  0  0  0  0  0  0  0
  -27.6678  -28.0428   18.0296 N   0  0  0  0  0  0  0  0  0  0  0  0
  -28.2760  -31.5168   23.5611 N   0  0  0  0  0  0  0  0  0  0  0  0
  -26.0553  -31.8438   26.3947 N   0  3  0  0  0  0  0  0  0  0  0  0
  -29.3063  -19.4360   25.9987 O   0  0  0  0  0  0  0  0  0  0  0  0
  -22.5277  -14.6007   21.2046 O   0  0  0  0  0  0  0  0  0  0  0  0
  -28.8693  -27.2421   19.8566 O   0  0  0  0  0  0  0  0  0  0  0  0
  -27.7954  -31.1301   20.7632 O   0  0  0  0  0  0  0  0  0  0  0  0
  -28.0363  -30.1151   25.3927 O   0  0  0  0  0  0  0  0  0  0  0  0
  -31.7302  -15.1297   20.2577 O   0  0  0  0  0  0  0  0  0  0  0  0
  -21.7488   -6.8743   21.7351 O   0  0  0  0  0  0  0  0  0  0  0  0
  -26.9628  -23.4788   24.3162 O   0  0  0  0  0  0  0  0  0  1  0  0
  -18.6671   -6.7021   26.3044 F   0  0  0  0  0  0  0  0  0  0  0  0
  -22.2278   -4.9881   23.6987 F   0  0  0  0  0  0  0  0  0  0  0  0
  -32.3861  -19.6455   25.1994 Cl  0  0  0  0  0  0  0  0  0  0  0  0
  1  2  1  0  0  0  0
  1  5  2  0  0  0  0
  2  6  2  0  0  0  0
  3  8  2  0  0  0  0
  3 17  1  0  0  0  0
  4  9  1  0  0  0  0
  4 17  2  0  0  0  0
  5 20  1  0  0  0  0
  6 22  1  0  0  0  0
  7 10  2  0  0  0  0
  7 21  1  0  0  0  0
  8 25  1  0  0  0  0
  9 25  2  0  0  0  0
 10 26  1  0  0  0  0
 11 12  2  0  0  0  0
 11 27  1  0  0  0  0
 12 28  1  0  0  0  0
 13 18  1  0  0  0  0
 13 24  2  0  0  0  0
 14 23  1  0  0  0  0
 14 26  2  0  0  0  0
 15 28  2  0  0  0  0
 15 29  1  0  0  0  0
 16 24  1  0  0  0  0
 16 62  2  0  0  0  0
 17 30  1  0  0  0  0
 18 31  2  0  0  0  0
 18 35  1  0  0  0  0
 19 30  1  0  0  0  0
 19 32  2  0  0  0  0
 19 36  1  0  0  0  0
 20 22  2  0  0  0  0
 20 41  1  0  0  0  0
 21 23  2  0  0  0  0
 21 42  1  0  0  0  0
 22 50  1  0  0  0  0
 23 43  1  0  0  0  0
 24 69  1  0  0  0  0
 25 79  1  0  0  0  0
 26 80  1  0  0  0  0
 27 29  2  0  0  0  0
 27 79  1  0  0  0  0
 28 81  1  0  0  0  0
 29 82  1  0  0  0  0
 30 63  2  0  0  0  0
 31 62  1  0  0  0  0
 31 83  1  0  0  0  0
 32 64  1  0  0  0  0
 32 67  1  0  0  0  0
 33 34  2  0  0  0  0
 33 35  1  0  0  0  0
 34 58  1  0  0  0  0
 35 73  2  0  0  0  0
 36 68  1  0  0  0  0
 36 74  2  0  0  0  0
 37 51  1  0  0  0  0
 37 70  1  0  0  0  0
 37 75  2  0  0  0  0
 38 59  1  0  0  0  0
 38 65  1  0  0  0  0
 38 76  2  0  0  0  0
 39 60  1  0  0  0  0
 39 71  1  0  0  0  0
 39 77  2  0  0  0  0
 40 66  1  0  0  0  0
 40 69  1  0  0  0  0
 40 78  2  0  0  0  0
 41 44  1  0  0  0  0
 42 51  1  0  0  0  0
 43 65  1  0  0  0  0
 44 46  1  0  0  0  0
 45 47  1  0  0  0  0
 45 48  1  0  0  0  0
 46 50  1  0  0  0  0
 47 52  1  0  0  0  0
 48 66  1  0  0  0  0
 49 52  1  0  0  0  0
 49 66  1  0  0  0  0
 50 70  1  0  0  0  0
 51 65  1  0  0  0  0
 52 64  1  0  0  0  0
 53 60  1  0  0  0  0
 54 61  1  0  0  0  0
 55 61  1  0  0  0  0
 56 61  1  0  0  0  0
 57 72  1  0  0  0  0
 58 80  1  0  0  0  0
 59 61  1  0  0  0  0
 59 71  1  0  0  0  0
 60 72  1  0  0  0  0
 63 64  1  0  0  0  0
M  CHG  1  72   1
M  ISO  4  40 100  58 101  69 100  80 101
M  END
> <Batch ID>
0116

> <Smiles>
CNC(C)C(=O)NC(C(=O)N1Cc2cc([101O:1][101CH2:1]C=CC(=O)c3cc([100NH:0][100C:0](=O)N4CCCC(n5nc(-c6ccc(Oc7ccc(F)cc7F)cc6)c(C(N)=O)c5N)C4)cnc3Cl)ccc2CC1C(=O)NC1CCCc2ccccc21)C(C)(C)C

> <Shape>
0.257

> <Color>
0.204

> <Negative vol penalty>
0.000

$$$$

  -OEChem-04052301433D

 86 95  0     1  0  0  0  0  0999 V2000
  -26.4086  -38.3652   23.1885 C   0  0  0  0  0  0  0  0  0  0  0  0
  -27.1298  -37.4810   22.3925 C   0  0  0  0  0  0  0  0  0  0  0  0
  -24.2624   -9.5279   21.5012 C   0  0  0  0  0  0  0  0  0  0  0  0
  -24.8607  -10.7328   23.5080 C   0  0  0  0  0  0  0  0  0  0  0  0
  -25.6352  -37.8805   24.2424 C   0  0  0  0  0  0  0  0  0  0  0  0
  -27.0790  -36.1117   22.6508 C   0  0  0  0  0  0  0  0  0  0  0  0
  -27.2914  -29.7859   19.2958 C   0  0  0  0  0  0  0  0  0  0  0  0
  -23.9221   -8.4154   22.2706 C   0  0  0  0  0  0  0  0  0  0  0  0
  -24.5203   -9.6203   24.2775 C   0  0  0  0  0  0  0  0  0  0  0  0
  -27.9682  -28.5677   19.3358 C   0  0  0  0  0  0  0  0  0  0  0  0
  -21.3228   -7.4128   24.1868 C   0  0  0  0  0  0  0  0  0  0  0  0
  -20.1285   -6.7578   23.8865 C   0  0  0  0  0  0  0  0  0  0  0  0
  -26.5357  -27.8378   21.1343 C   0  0  0  0  0  0  0  0  0  0  0  0
  -28.3090  -20.8078   21.0539 C   0  0  0  0  0  0  0  0  0  0  0  0
  -30.4315  -19.1813   20.2590 C   0  0  0  0  0  0  0  0  0  0  0  0
  -21.3562   -4.7267   23.4342 C   0  0  0  0  0  0  0  0  0  0  0  0
  -24.7318  -10.6867   22.1199 C   0  0  0  0  0  0  0  0  0  0  0  0
  -24.2399  -12.8951   20.9416 C   0  0  0  0  0  0  0  0  0  0  0  0
  -25.5672  -36.5037   24.5078 C   0  0  0  0  0  0  0  0  0  0  0  0
  -26.2369  -30.0438   20.1835 C   0  0  0  0  0  0  0  0  0  0  0  0
  -26.3050  -35.6082   23.7102 C   0  0  0  0  0  0  0  0  0  0  0  0
  -25.8454  -29.0591   21.1017 C   0  0  0  0  0  0  0  0  0  0  0  0
  -28.0687  -19.4930   20.6552 C   0  0  0  0  0  0  0  0  0  0  0  0
  -30.6718  -20.4962   20.6576 C   0  0  0  0  0  0  0  0  0  0  0  0
  -29.6106  -21.3095   21.0550 C   0  0  0  0  0  0  0  0  0  0  0  0
  -29.1299  -18.6797   20.2577 C   0  0  0  0  0  0  0  0  0  0  0  0
  -24.0509   -8.4616   23.6587 C   0  0  0  0  0  0  0  0  0  0  0  0
  -27.5923  -27.5945   20.2571 C   0  0  0  0  0  0  0  0  0  0  0  0
  -22.5339   -6.7248   24.1107 C   0  0  0  0  0  0  0  0  0  0  0  0
  -20.1451   -5.4148   23.5102 C   0  0  0  0  0  0  0  0  0  0  0  0
  -22.5505   -5.3817   23.7344 C   0  0  0  0  0  0  0  0  0  0  0  0
  -25.0841  -11.8360   21.3256 C   0  0  0  0  0  0  0  0  0  0  0  0
  -25.0462  -13.7264   20.2032 C   0  0  0  0  0  0  0  0  0  0  0  0
  -29.5554  -24.9134   21.6161 C   0  0  0  0  0  0  0  0  0  0  0  0
  -28.8786  -26.0571   21.4623 C   0  0  0  0  0  0  0  0  0  1  0  0
  -22.8511  -13.1084   21.2270 C   0  0  0  0  0  0  0  0  0  0  0  0
  -25.7114  -32.1736   22.4839 C   0  0  0  0  0  0  0  0  0  0  0  0
  -22.7639  -30.8198   22.5273 C   0  0  0  0  0  0  0  0  0  0  0  0
  -20.8149  -28.0996   21.8574 C   0  0  0  0  0  0  0  0  0  0  0  0
  -29.8592  -16.4162   19.4265 C   0  0  0  0  0  0  0  0  0  0  0  0
  -24.7550  -36.0310   25.6875 C   0  0  0  0  0  0  0  0  0  0  0  0
  -25.4996  -31.3527   20.1096 C   0  0  0  0  0  0  0  0  0  0  0  0
  -24.7068  -29.2788   22.0628 C   0  0  0  0  0  0  0  0  0  0  0  0
  -30.2554  -24.4928   22.8689 C   0  0  0  0  0  0  0  0  0  0  0  0
  -24.4580  -34.5339   25.6619 C   0  0  0  0  0  0  0  0  0  0  0  0
  -29.7124  -13.0180   18.3738 C   0  0  0  0  0  0  0  0  0  0  0  0
  -25.7210  -33.7446   25.3324 C   0  0  0  0  0  0  0  0  0  0  0  0
  -28.4258  -12.4947   19.0163 C   0  0  0  0  0  0  0  0  0  0  0  0
  -30.1014  -22.9754   22.8492 C   0  0  0  0  0  0  0  0  0  0  0  0
  -30.4408  -14.0044   19.2850 C   0  0  0  0  0  0  0  0  0  0  0  0
  -28.3341  -14.5968   20.4162 C   0  0  0  0  0  0  0  0  0  0  0  0
  -26.2557  -34.1138   23.9434 C   0  0  1  0  0  0  0  0  0  0  0  0
  -29.6222  -23.7972   20.6054 C   0  0  1  0  0  0  0  0  0  0  0  0
  -24.7759  -31.7049   21.4056 C   0  0  1  0  0  0  0  0  0  0  0  0
  -27.5318  -13.6495   19.5091 C   0  0  2  0  0  0  0  0  0  0  0  0
  -26.6643  -18.9824   20.6630 C   0  0  0  0  0  0  0  0  0  0  0  0
  -32.0756  -21.0081   20.6496 C   0  0  0  0  0  0  0  0  0  0  0  0
  -30.8034  -24.0034   19.6584 C   0  0  0  0  0  0  0  0  0  0  0  0
  -18.4504  -27.2783   22.0363 C   0  0  0  0  0  0  0  0  0  0  0  0
  -23.1420  -30.3915   25.5246 C   0  0  0  0  0  0  0  0  0  0  0  0
  -21.2391  -28.7657   25.4616 C   0  0  0  0  0  0  0  0  0  0  0  0
  -20.8554  -31.1561   24.8603 C   0  0  0  0  0  0  0  0  0  0  0  0
  -20.5918  -27.7505   18.9270 C   0  0  0  0  0  0  0  0  0  0  0  0
  -22.1285  -29.6653   23.2637 C   0  0  1  0  0  0  0  0  0  0  0  0
  -19.4773  -27.9681   21.1518 C   0  0  2  0  0  0  0  0  0  0  0  0
  -21.8640  -29.9909   24.7609 C   0  0  0  0  0  0  0  0  0  0  0  0
  -26.3311  -11.9789   20.8687 N   0  0  0  0  0  0  0  0  0  0  0  0
  -26.2763  -13.1375   20.1899 N   0  0  0  0  0  0  0  0  0  0  0  0
  -29.8309  -22.6170   21.4540 N   0  0  3  0  0  0  0  0  0  0  0  0
  -24.0210  -30.5772   21.9558 N   0  0  0  0  0  0  0  0  0  0  0  0
  -29.5331  -15.0727   19.7087 N   0  0  0  0  0  0  0  0  0  0  0  0
  -24.8158  -14.8964   19.5702 N   0  0  0  0  0  0  0  0  0  0  0  0
  -22.1739  -12.1556   22.0001 N   0  0  0  0  0  0  0  0  0  0  0  0
  -28.9054  -17.3418   19.8484 N   0  0  0  0  0  0  0  0  0  0  0  0
  -25.4739  -33.4657   22.9122 N   0  0  0  0  0  0  0  0  0  0  0  0
  -20.9317  -29.3091   22.5093 N   0  0  0  0  0  0  0  0  0  0  0  0
  -19.6282  -27.1740   19.8997 N   0  3  0  0  0  0  0  0  0  0  0  0
  -22.2251  -14.1059   20.7951 O   0  0  0  0  0  0  0  0  0  0  0  0
  -26.5832  -31.4183   22.8977 O   0  0  0  0  0  0  0  0  0  0  0  0
  -22.1637  -31.8952   22.4556 O   0  0  0  0  0  0  0  0  0  0  0  0
  -21.6691  -27.2163   21.8359 O   0  0  0  0  0  0  0  0  0  0  0  0
  -30.8945  -16.7209   18.8287 O   0  0  0  0  0  0  0  0  0  0  0  0
  -23.7186   -7.3762   24.4099 O   0  0  0  0  0  0  0  0  0  0  0  0
  -28.2517  -26.4048   20.2987 O   0  0  0  0  0  0  0  0  0  1  0  0
  -18.9980   -4.7855   23.2234 F   0  0  0  0  0  0  0  0  0  0  0  0
  -23.7107   -4.7152   23.6607 F   0  0  0  0  0  0  0  0  0  0  0  0
  1  2  1  0  0  0  0
  1  5  2  0  0  0  0
  2  6  2  0  0  0  0
  3  8  2  0  0  0  0
  3 17  1  0  0  0  0
  4  9  1  0  0  0  0
  4 17  2  0  0  0  0
  5 19  1  0  0  0  0
  6 21  1  0  0  0  0
  7 10  2  0  0  0  0
  7 20  1  0  0  0  0
  8 27  1  0  0  0  0
  9 27  2  0  0  0  0
 10 28  1  0  0  0  0
 11 12  2  0  0  0  0
 11 29  1  0  0  0  0
 12 30  1  0  0  0  0
 13 22  1  0  0  0  0
 13 28  2  0  0  0  0
 14 23  2  0  0  0  0
 14 25  1  0  0  0  0
 15 24  1  0  0  0  0
 15 26  2  0  0  0  0
 16 30  2  0  0  0  0
 16 31  1  0  0  0  0
 17 32  1  0  0  0  0
 18 32  1  0  0  0  0
 18 33  2  0  0  0  0
 18 36  1  0  0  0  0
 19 21  2  0  0  0  0
 19 41  1  0  0  0  0
 20 22  2  0  0  0  0
 20 42  1  0  0  0  0
 21 52  1  0  0  0  0
 22 43  1  0  0  0  0
 23 26  1  0  0  0  0
 23 56  1  0  0  0  0
 24 25  2  0  0  0  0
 24 57  1  0  0  0  0
 25 69  1  0  0  0  0
 26 74  1  0  0  0  0
 27 83  1  0  0  0  0
 28 84  1  0  0  0  0
 29 31  2  0  0  0  0
 29 83  1  0  0  0  0
 30 85  1  0  0  0  0
 31 86  1  0  0  0  0
 32 67  2  0  0  0  0
 33 68  1  0  0  0  0
 33 72  1  0  0  0  0
 34 35  2  0  0  0  0
 34 44  1  0  0  0  0
 34 53  1  0  0  0  0
 35 84  1  0  0  0  0
 36 73  1  0  0  0  0
 36 78  2  0  0  0  0
 37 54  1  0  0  0  0
 37 75  1  0  0  0  0
 37 79  2  0  0  0  0
 38 64  1  0  0  0  0
 38 70  1  0  0  0  0
 38 80  2  0  0  0  0
 39 65  1  0  0  0  0
 39 76  1  0  0  0  0
 39 81  2  0  0  0  0
 40 71  1  0  0  0  0
 40 74  1  0  0  0  0
 40 82  2  0  0  0  0
 41 45  1  0  0  0  0
 42 54  1  0  0  0  0
 43 70  1  0  0  0  0
 44 49  1  0  0  0  0
 45 47  1  0  0  0  0
 46 48  1  0  0  0  0
 46 50  1  0  0  0  0
 47 52  1  0  0  0  0
 48 55  1  0  0  0  0
 49 69  1  0  0  0  0
 50 71  1  0  0  0  0
 51 55  1  0  0  0  0
 51 71  1  0  0  0  0
 52 75  1  0  0  0  0
 53 58  1  0  0  0  0
 53 69  1  0  0  0  0
 54 70  1  0  0  0  0
 55 68  1  0  0  0  0
 59 65  1  0  0  0  0
 60 66  1  0  0  0  0
 61 66  1  0  0  0  0
 62 66  1  0  0  0  0
 63 77  1  0  0  0  0
 64 66  1  0  0  0  0
 64 76  1  0  0  0  0
 65 77  1  0  0  0  0
 67 68  1  0  0  0  0
M  CHG  1  77   1
M  ISO  4  35 101  40 100  74 100  84 101
M  END
> <Batch ID>
0116

> <Smiles>
CNC(C)C(=O)NC(C(=O)N1Cc2cc([101O:1][101CH:1]=C3CCN(c4cc(C)c([100NH:0][100C:0](=O)N5CCCC(n6nc(-c7ccc(Oc8ccc(F)cc8F)cc7)c(C(N)=O)c6N)C5)cc4C)C3C)ccc2CC1C(=O)NC1CCCc2ccccc21)C(C)(C)C

> <Shape>
0.378

> <Color>
0.157

> <Negative vol penalty>
0.000

$$$$

  -OEChem-04052301433D

 86 94  0     1  0  0  0  0  0999 V2000
  -23.6982   -7.9755   21.7323 C   0  0  0  0  0  0  0  0  0  0  0  0
  -24.4526   -8.9980   21.1661 C   0  0  0  0  0  0  0  0  0  0  0  0
  -20.1846  -26.5513   21.1628 C   0  0  0  0  0  0  0  0  0  0  0  0
  -21.3851  -26.1129   23.2131 C   0  0  0  0  0  0  0  0  0  0  0  0
  -22.3487   -8.1814   22.0160 C   0  0  0  0  0  0  0  0  0  0  0  0
  -23.8577  -10.2268   20.8822 C   0  0  0  0  0  0  0  0  0  0  0  0
  -26.7196  -14.1492   22.3206 C   0  0  0  0  0  0  0  0  0  0  0  0
  -18.9933  -26.1673   21.7782 C   0  0  0  0  0  0  0  0  0  0  0  0
  -20.1937  -25.7289   23.8285 C   0  0  0  0  0  0  0  0  0  0  0  0
  -27.7944  -14.4881   21.4998 C   0  0  0  0  0  0  0  0  0  0  0  0
  -15.5800  -25.6465   22.9155 C   0  0  0  0  0  0  0  0  0  0  0  0
  -14.4578  -26.4500   22.7141 C   0  0  0  0  0  0  0  0  0  0  0  0
  -27.9168  -19.8546   23.3389 C   0  0  0  0  0  0  0  0  0  0  0  0
  -26.4874  -16.2713   20.5348 C   0  0  0  0  0  0  0  0  0  0  0  0
  -29.9429  -20.5292   21.5438 C   0  0  0  0  0  0  0  0  0  0  0  0
  -15.6188  -28.3210   23.7083 C   0  0  0  0  0  0  0  0  0  0  0  0
  -21.3806  -26.5241   21.8802 C   0  0  0  0  0  0  0  0  0  0  0  0
  -28.0776  -21.1798   22.9346 C   0  0  0  0  0  0  0  0  0  0  0  0
  -23.1660  -28.2133   21.1971 C   0  0  0  0  0  0  0  0  0  0  0  0
  -21.7393   -9.4165   21.7444 C   0  0  0  0  0  0  0  0  0  0  0  0
  -25.5149  -14.8631   22.2468 C   0  0  0  0  0  0  0  0  0  0  0  0
  -22.4985  -10.4490   21.1613 C   0  0  0  0  0  0  0  0  0  0  0  0
  -25.3997  -15.9411   21.3576 C   0  0  0  0  0  0  0  0  0  0  0  0
  -29.0906  -21.5172   22.0371 C   0  0  0  0  0  0  0  0  0  0  0  0
  -18.9978  -25.7561   23.1110 C   0  0  0  0  0  0  0  0  0  0  0  0
  -27.6775  -15.5474   20.6046 C   0  0  0  0  0  0  0  0  0  0  0  0
  -16.7217  -26.1803   23.5134 C   0  0  0  0  0  0  0  0  0  0  0  0
  -28.7692  -18.8666   22.8457 C   0  0  0  0  0  0  0  0  0  0  0  0
  -29.7822  -19.2040   21.9481 C   0  0  0  0  0  0  0  0  0  0  0  0
  -14.4771  -27.7872   23.1104 C   0  0  0  0  0  0  0  0  0  0  0  0
  -16.7411  -27.5175   23.9097 C   0  0  0  0  0  0  0  0  0  0  0  0
  -22.6117  -26.9201   21.2449 C   0  0  0  0  0  0  0  0  0  0  0  0
  -24.3301  -28.0617   20.4841 C   0  0  0  0  0  0  0  0  0  0  0  0
  -27.4200  -22.8938   24.5610 C   0  0  0  0  0  0  0  0  0  0  0  0
  -27.1716  -22.1888   23.4675 C   0  0  0  0  0  0  0  0  0  0  0  0
  -22.6727  -29.4416   21.7480 C   0  0  0  0  0  0  0  0  0  0  0  0
  -22.5146  -14.1287   21.4969 C   0  0  0  0  0  0  0  0  0  0  0  0
  -21.9450  -17.1825   22.4309 C   0  0  0  0  0  0  0  0  0  0  0  0
  -23.1541  -20.3363   22.9188 C   0  0  0  0  0  0  0  0  0  0  0  0
  -27.9562  -23.3910   19.5426 C   0  0  0  0  0  0  0  0  0  0  0  0
  -20.2661   -9.5764   22.0248 C   0  0  0  0  0  0  0  0  0  0  0  0
  -24.3740  -14.5021   23.1580 C   0  0  0  0  0  0  0  0  0  0  0  0
  -24.1348  -16.7521   21.2541 C   0  0  0  0  0  0  0  0  0  0  0  0
  -19.8032  -11.0310   22.0395 C   0  0  0  0  0  0  0  0  0  0  0  0
  -26.3051  -25.3517   17.0715 C   0  0  0  0  0  0  0  0  0  0  0  0
  -20.3621  -11.7813   20.8347 C   0  0  0  0  0  0  0  0  0  0  0  0
  -25.2213  -26.0927   17.8566 C   0  0  0  0  0  0  0  0  0  0  0  0
  -26.5169  -23.9352   17.6013 C   0  0  0  0  0  0  0  0  0  0  0  0
  -25.7037  -24.5902   19.8336 C   0  0  0  0  0  0  0  0  0  0  0  0
  -21.8952  -11.8041   20.8617 C   0  0  1  0  0  0  0  0  0  0  0  0
  -23.0198  -14.9705   22.6344 C   0  0  1  0  0  0  0  0  0  0  0  0
  -25.4933  -26.0424   19.3721 C   0  0  2  0  0  0  0  0  0  0  0  0
  -23.1658  -22.7398   23.6400 C   0  0  0  0  0  0  0  0  0  0  0  0
  -20.5837  -17.6205   19.7355 C   0  0  0  0  0  0  0  0  0  0  0  0
  -20.7501  -20.0871   20.1309 C   0  0  0  0  0  0  0  0  0  0  0  0
  -19.4080  -18.6651   21.6800 C   0  0  0  0  0  0  0  0  0  0  0  0
  -24.0491  -19.6329   25.6506 C   0  0  0  0  0  0  0  0  0  0  0  0
  -27.5436  -17.3151   24.1672 C   0  0  0  0  0  0  0  0  0  0  0  0
  -29.2922  -22.9269   21.5819 C   0  0  0  0  0  0  0  0  0  0  0  0
  -31.0179  -16.6254   19.7153 C   0  0  0  0  0  0  0  0  0  0  0  0
  -30.0355  -15.6261   20.3058 C   0  0  0  0  0  0  0  0  0  1  0  0
  -30.6384  -18.0601   20.0470 C   0  0  0  0  0  0  0  0  0  0  0  0
  -21.9317  -18.5261   21.7427 C   0  0  1  0  0  0  0  0  0  0  0  0
  -23.0272  -21.2938   24.0899 C   0  0  2  0  0  0  0  0  0  0  0  0
  -20.6917  -18.7084   20.8226 C   0  0  0  0  0  0  0  0  0  0  0  0
  -23.3619  -26.0138   20.6125 N   0  0  0  0  0  0  0  0  0  0  0  0
  -24.3994  -26.7386   20.1605 N   0  0  0  0  0  0  0  0  0  0  0  0
  -23.0452  -16.3562   22.1616 N   0  0  0  0  0  0  0  0  0  0  0  0
  -26.7717  -23.9577   19.0436 N   0  0  0  0  0  0  0  0  0  0  0  0
  -25.2909  -28.9325   20.1086 N   0  0  0  0  0  0  0  0  0  0  0  0
  -21.4609  -29.4192   22.4518 N   0  0  0  0  0  0  0  0  0  0  0  0
  -22.3694  -12.7903   21.8087 N   0  0  0  0  0  0  0  0  0  0  0  0
  -22.0446  -19.5265   22.7985 N   0  0  0  0  0  0  0  0  0  0  0  0
  -28.1223  -23.4603   20.9204 N   0  0  0  0  0  0  0  0  0  0  0  0
  -24.0824  -21.0140   25.1044 N   0  3  0  0  0  0  0  0  0  0  0  0
  -23.2801  -30.5299   21.6059 O   0  0  0  0  0  0  0  0  0  0  0  0
  -22.2730  -14.6547   20.4168 O   0  0  0  0  0  0  0  0  0  0  0  0
  -21.0170  -16.8802   23.1853 O   0  0  0  0  0  0  0  0  0  0  0  0
  -24.1374  -20.3119   22.1819 O   0  0  0  0  0  0  0  0  0  0  0  0
  -28.8054  -22.8671   18.8136 O   0  0  0  0  0  0  0  0  0  0  0  0
  -17.8354  -25.3815   23.7120 O   0  0  0  0  0  0  0  0  0  0  0  0
  -28.6024  -17.5758   23.2479 O   0  0  0  0  0  0  0  0  0  0  0  0
  -28.7248  -15.8798   19.8018 O   0  0  0  0  0  0  0  0  0  1  0  0
  -30.6259  -18.2422   21.4564 O   0  0  0  0  0  0  0  0  0  0  0  0
  -13.3999  -28.5590   22.9156 F   0  0  0  0  0  0  0  0  0  0  0  0
  -17.8354  -28.0362   24.4835 F   0  0  0  0  0  0  0  0  0  0  0  0
  1  2  1  0  0  0  0
  1  5  2  0  0  0  0
  2  6  2  0  0  0  0
  3  8  2  0  0  0  0
  3 17  1  0  0  0  0
  4  9  1  0  0  0  0
  4 17  2  0  0  0  0
  5 20  1  0  0  0  0
  6 22  1  0  0  0  0
  7 10  2  0  0  0  0
  7 21  1  0  0  0  0
  8 25  1  0  0  0  0
  9 25  2  0  0  0  0
 10 26  1  0  0  0  0
 11 12  2  0  0  0  0
 11 27  1  0  0  0  0
 12 30  1  0  0  0  0
 13 18  1  0  0  0  0
 13 28  2  0  0  0  0
 14 23  1  0  0  0  0
 14 26  2  0  0  0  0
 15 24  1  0  0  0  0
 15 29  2  0  0  0  0
 16 30  2  0  0  0  0
 16 31  1  0  0  0  0
 17 32  1  0  0  0  0
 18 24  2  0  0  0  0
 18 35  1  0  0  0  0
 19 32  1  0  0  0  0
 19 33  2  0  0  0  0
 19 36  1  0  0  0  0
 20 22  2  0  0  0  0
 20 41  1  0  0  0  0
 21 23  2  0  0  0  0
 21 42  1  0  0  0  0
 22 50  1  0  0  0  0
 23 43  1  0  0  0  0
 24 59  1  0  0  0  0
 25 81  1  0  0  0  0
 26 83  1  0  0  0  0
 27 31  2  0  0  0  0
 27 81  1  0  0  0  0
 28 29  1  0  0  0  0
 28 82  1  0  0  0  0
 29 84  1  0  0  0  0
 30 85  1  0  0  0  0
 31 86  1  0  0  0  0
 32 66  2  0  0  0  0
 33 67  1  0  0  0  0
 33 70  1  0  0  0  0
 34 35  2  0  0  0  0
 36 71  1  0  0  0  0
 36 76  2  0  0  0  0
 37 51  1  0  0  0  0
 37 72  1  0  0  0  0
 37 77  2  0  0  0  0
 38 63  1  0  0  0  0
 38 68  1  0  0  0  0
 38 78  2  0  0  0  0
 39 64  1  0  0  0  0
 39 73  1  0  0  0  0
 39 79  2  0  0  0  0
 40 69  1  0  0  0  0
 40 74  1  0  0  0  0
 40 80  2  0  0  0  0
 41 44  1  0  0  0  0
 42 51  1  0  0  0  0
 43 68  1  0  0  0  0
 44 46  1  0  0  0  0
 45 47  1  0  0  0  0
 45 48  1  0  0  0  0
 46 50  1  0  0  0  0
 47 52  1  0  0  0  0
 48 69  1  0  0  0  0
 49 52  1  0  0  0  0
 49 69  1  0  0  0  0
 50 72  1  0  0  0  0
 51 68  1  0  0  0  0
 52 67  1  0  0  0  0
 53 64  1  0  0  0  0
 54 65  1  0  0  0  0
 55 65  1  0  0  0  0
 56 65  1  0  0  0  0
 57 75  1  0  0  0  0
 58 82  1  0  0  0  0
 59 74  1  0  0  0  0
 60 61  1  0  0  0  0
 60 62  1  0  0  0  0
 61 83  1  0  0  0  0
 62 84  1  0  0  0  0
 63 65  1  0  0  0  0
 63 73  1  0  0  0  0
 64 75  1  0  0  0  0
 66 67  1  0  0  0  0
M  CHG  1  75   1
M  ISO  4  40 100  61 101  74 100  83 101
M  END
> <Batch ID>
0116

> <Smiles>
C=Cc1cc(OC)c(OCC[101CH2:1][101O:1]c2ccc3c(c2)CN(C(=O)C(NC(=O)C(C)NC)C(C)(C)C)C(C(=O)NC2CCCc4ccccc42)C3)cc1C[100NH:0][100C:0](=O)N1CCCC(n2nc(-c3ccc(Oc4ccc(F)cc4F)cc3)c(C(N)=O)c2N)C1

> <Shape>
0.198

> <Color>
0.092

> <Negative vol penalty>
0.000

$$$$

  -OEChem-04052301433D

 89 98  0     1  0  0  0  0  0999 V2000
  -16.6908  -30.0984   23.9442 C   0  0  0  0  0  0  0  0  0  0  0  0
  -17.8138  -30.8638   23.6511 C   0  0  0  0  0  0  0  0  0  0  0  0
  -25.8731  -10.0026   18.9987 C   0  0  0  0  0  0  0  0  0  0  0  0
  -27.5915  -11.6529   18.5982 C   0  0  0  0  0  0  0  0  0  0  0  0
  -16.7538  -28.7099   23.8475 C   0  0  0  0  0  0  0  0  0  0  0  0
  -18.9966  -30.2418   23.2499 C   0  0  0  0  0  0  0  0  0  0  0  0
  -26.5834  -29.6560   20.9432 C   0  0  0  0  0  0  0  0  0  0  0  0
  -26.5494   -9.0993   18.1788 C   0  0  0  0  0  0  0  0  0  0  0  0
  -28.2679  -10.7496   17.7783 C   0  0  0  0  0  0  0  0  0  0  0  0
  -27.6526  -28.7661   20.8509 C   0  0  0  0  0  0  0  0  0  0  0  0
  -30.2987   -8.0762   18.1642 C   0  0  0  0  0  0  0  0  0  0  0  0
  -31.6784   -7.9587   18.3320 C   0  0  0  0  0  0  0  0  0  0  0  0
  -27.7361  -22.0231   19.9571 C   0  0  0  0  0  0  0  0  0  0  0  0
  -26.2782  -27.2577   19.5645 C   0  0  0  0  0  0  0  0  0  0  0  0
  -28.8753  -20.6026   21.5451 C   0  0  0  0  0  0  0  0  0  0  0  0
  -32.0152   -8.6382   16.0381 C   0  0  0  0  0  0  0  0  0  0  0  0
  -26.3941  -11.2794   19.2084 C   0  0  0  0  0  0  0  0  0  0  0  0
  -26.8720  -20.9752   19.6396 C   0  0  0  0  0  0  0  0  0  0  0  0
  -25.3784  -12.0529   21.4170 C   0  0  0  0  0  0  0  0  0  0  0  0
  -17.9420  -28.0707   23.4568 C   0  0  0  0  0  0  0  0  0  0  0  0
  -25.3481  -29.3480   20.3552 C   0  0  0  0  0  0  0  0  0  0  0  0
  -19.0731  -28.8430   23.1231 C   0  0  0  0  0  0  0  0  0  0  0  0
  -25.1956  -28.1465   19.6486 C   0  0  0  0  0  0  0  0  0  0  0  0
  -28.0111  -19.5547   21.2276 C   0  0  0  0  0  0  0  0  0  0  0  0
  -28.7378  -21.8368   20.9098 C   0  0  0  0  0  0  0  0  0  0  0  0
  -27.0095  -19.7410   20.2748 C   0  0  0  0  0  0  0  0  0  0  0  0
  -27.7468   -9.4728   17.5686 C   0  0  0  0  0  0  0  0  0  0  0  0
  -27.4993  -27.5654   20.1639 C   0  0  0  0  0  0  0  0  0  0  0  0
  -29.7772   -8.4746   16.9334 C   0  0  0  0  0  0  0  0  0  0  0  0
  -32.5367   -8.2397   17.2689 C   0  0  0  0  0  0  0  0  0  0  0  0
  -30.6354   -8.7556   15.8703 C   0  0  0  0  0  0  0  0  0  0  0  0
  -25.6956  -12.2131   20.0548 C   0  0  0  0  0  0  0  0  0  0  0  0
  -24.7194  -13.2097   21.7545 C   0  0  0  0  0  0  0  0  0  0  0  0
  -31.3582  -25.0872   21.2213 C   0  0  0  0  0  0  0  0  0  0  0  0
  -30.0403  -25.3025   21.3286 C   0  0  0  0  0  0  0  0  0  0  0  0
  -31.9059  -23.7282   21.4078 C   0  0  0  0  0  0  0  0  0  0  0  0
  -24.9182  -22.1553   18.7422 C   0  0  0  0  0  0  0  0  0  0  0  0
  -25.8392  -21.2102   18.6371 C   0  0  0  0  0  0  0  0  0  0  0  0
  -25.6549  -10.9564   22.2985 C   0  0  0  0  0  0  0  0  0  0  0  0
  -22.3955  -28.8990   21.4434 C   0  0  0  0  0  0  0  0  0  0  0  0
  -21.6728  -28.7451   18.2849 C   0  0  0  0  0  0  0  0  0  0  0  0
  -23.1173  -27.2792   15.3214 C   0  0  0  0  0  0  0  0  0  0  0  0
  -24.8118  -18.7567   19.5347 C   0  0  0  0  0  0  0  0  0  0  0  0
  -17.9523  -26.5654   23.3612 C   0  0  0  0  0  0  0  0  0  0  0  0
  -24.2126  -30.3306   20.4410 C   0  0  0  0  0  0  0  0  0  0  0  0
  -23.8962  -27.7778   18.9823 C   0  0  0  0  0  0  0  0  0  0  0  0
  -30.9688  -22.5731   21.6581 C   0  0  0  0  0  0  0  0  0  0  0  0
  -19.3604  -25.9793   23.3608 C   0  0  0  0  0  0  0  0  0  0  0  0
  -21.9670  -16.6404   19.8600 C   0  0  0  0  0  0  0  0  0  0  0  0
  -20.2257  -26.7065   22.3424 C   0  0  0  0  0  0  0  0  0  0  0  0
  -22.5715  -15.2513   20.0769 C   0  0  0  0  0  0  0  0  0  0  0  0
  -22.7905  -17.4699   18.8763 C   0  0  0  0  0  0  0  0  0  0  0  0
  -24.8237  -16.1874   19.4150 C   0  0  0  0  0  0  0  0  0  0  0  0
  -20.3794  -28.1867   22.7142 C   0  0  1  0  0  0  0  0  0  0  0  0
  -29.0399  -24.1986   21.6018 C   0  0  2  0  0  0  0  0  0  0  0  0
  -22.8456  -29.6828   20.2431 C   0  0  1  0  0  0  0  0  0  0  0  0
  -24.0649  -15.3382   20.4479 C   0  0  2  0  0  0  0  0  0  0  0  0
  -28.1838  -18.2445   21.9260 C   0  0  0  0  0  0  0  0  0  0  0  0
  -28.6074  -24.1898   23.0721 C   0  0  0  0  0  0  0  0  0  0  0  0
  -22.9351  -27.9557   12.9117 C   0  0  0  0  0  0  0  0  0  0  0  0
  -19.3801  -26.7338   18.1942 C   0  0  0  0  0  0  0  0  0  0  0  0
  -20.1491  -26.0656   15.9072 C   0  0  0  0  0  0  0  0  0  0  0  0
  -19.3800  -28.4006   16.3298 C   0  0  0  0  0  0  0  0  0  0  0  0
  -26.0575  -27.4365   15.0229 C   0  0  0  0  0  0  0  0  0  0  0  0
  -29.4763  -26.6859   21.1507 C   0  0  0  0  0  0  0  0  0  1  0  0
  -21.6071  -27.6426   17.2558 C   0  0  1  0  0  0  0  0  0  0  0  0
  -23.7817  -28.0178   14.1736 C   0  0  2  0  0  0  0  0  0  0  0  0
  -20.1468  -27.2092   16.9440 C   0  0  0  0  0  0  0  0  0  0  0  0
  -25.2727  -13.3797   19.5607 N   0  0  0  0  0  0  0  0  0  0  0  0
  -24.6829  -13.9630   20.6181 N   0  0  0  0  0  0  0  0  0  0  0  0
  -29.6075  -22.8894   21.2286 N   0  0  2  0  0  0  0  0  0  0  0  0
  -22.8136  -28.7686   19.0997 N   0  0  0  0  0  0  0  0  0  0  0  0
  -24.1935  -17.5114   19.2942 N   0  0  0  0  0  0  0  0  0  0  0  0
  -24.1732  -13.6458   22.9094 N   0  0  0  0  0  0  0  0  0  0  0  0
  -26.8563  -10.9659   23.0202 N   0  0  0  0  0  0  0  0  0  0  0  0
  -26.1375  -18.6699   19.9585 N   0  0  0  0  0  0  0  0  0  0  0  0
  -21.0256  -28.8828   21.6234 N   0  0  0  0  0  0  0  0  0  0  0  0
  -22.3485  -28.1231   16.0948 N   0  0  0  0  0  0  0  0  0  0  0  0
  -25.1141  -27.4205   13.8755 N   0  3  0  0  0  0  0  0  0  0  0  0
  -33.1260  -23.5649   21.3929 O   0  0  0  0  0  0  0  0  0  0  0  0
  -24.8677   -9.9886   22.4295 O   0  0  0  0  0  0  0  0  0  0  0  0
  -23.2293  -28.3485   22.1529 O   0  0  0  0  0  0  0  0  0  0  0  0
  -20.7494  -29.5597   18.3583 O   0  0  0  0  0  0  0  0  0  0  0  0
  -23.2625  -26.0736   15.5107 O   0  0  0  0  0  0  0  0  0  0  0  0
  -24.2014  -19.8206   19.4025 O   0  0  0  0  0  0  0  0  0  0  0  0
  -28.4072   -8.5916   16.7687 O   0  0  0  0  0  0  0  0  0  0  0  0
  -28.5412  -26.6947   20.0728 O   0  0  0  0  0  0  0  0  0  1  0  0
  -33.8617   -8.1283   17.4306 F   0  0  0  0  0  0  0  0  0  0  0  0
  -30.1403   -9.1400   14.6859 F   0  0  0  0  0  0  0  0  0  0  0  0
  1  2  1  0  0  0  0
  1  5  2  0  0  0  0
  2  6  2  0  0  0  0
  3  8  2  0  0  0  0
  3 17  1  0  0  0  0
  4  9  1  0  0  0  0
  4 17  2  0  0  0  0
  5 20  1  0  0  0  0
  6 22  1  0  0  0  0
  7 10  2  0  0  0  0
  7 21  1  0  0  0  0
  8 27  1  0  0  0  0
  9 27  2  0  0  0  0
 10 28  1  0  0  0  0
 11 12  2  0  0  0  0
 11 29  1  0  0  0  0
 12 30  1  0  0  0  0
 13 18  1  0  0  0  0
 13 25  2  0  0  0  0
 14 23  1  0  0  0  0
 14 28  2  0  0  0  0
 15 24  2  0  0  0  0
 15 25  1  0  0  0  0
 16 30  2  0  0  0  0
 16 31  1  0  0  0  0
 17 32  1  0  0  0  0
 18 26  2  0  0  0  0
 18 38  1  0  0  0  0
 19 32  1  0  0  0  0
 19 33  2  0  0  0  0
 19 39  1  0  0  0  0
 20 22  2  0  0  0  0
 20 44  1  0  0  0  0
 21 23  2  0  0  0  0
 21 45  1  0  0  0  0
 22 54  1  0  0  0  0
 23 46  1  0  0  0  0
 24 26  1  0  0  0  0
 24 58  1  0  0  0  0
 25 71  1  0  0  0  0
 26 76  1  0  0  0  0
 27 86  1  0  0  0  0
 28 87  1  0  0  0  0
 29 31  2  0  0  0  0
 29 86  1  0  0  0  0
 30 88  1  0  0  0  0
 31 89  1  0  0  0  0
 32 69  2  0  0  0  0
 33 70  1  0  0  0  0
 33 74  1  0  0  0  0
 34 35  2  0  0  0  0
 34 36  1  0  0  0  0
 35 55  1  0  0  0  0
 35 65  1  0  0  0  0
 36 47  1  0  0  0  0
 36 80  2  0  0  0  0
 37 38  2  0  0  0  0
 39 75  1  0  0  0  0
 39 81  2  0  0  0  0
 40 56  1  0  0  0  0
 40 77  1  0  0  0  0
 40 82  2  0  0  0  0
 41 66  1  0  0  0  0
 41 72  1  0  0  0  0
 41 83  2  0  0  0  0
 42 67  1  0  0  0  0
 42 78  1  0  0  0  0
 42 84  2  0  0  0  0
 43 73  1  0  0  0  0
 43 76  1  0  0  0  0
 43 85  2  0  0  0  0
 44 48  1  0  0  0  0
 45 56  1  0  0  0  0
 46 72  1  0  0  0  0
 47 71  1  0  0  0  0
 48 50  1  0  0  0  0
 49 51  1  0  0  0  0
 49 52  1  0  0  0  0
 50 54  1  0  0  0  0
 51 57  1  0  0  0  0
 52 73  1  0  0  0  0
 53 57  1  0  0  0  0
 53 73  1  0  0  0  0
 54 77  1  0  0  0  0
 55 59  1  0  0  0  0
 55 71  1  0  0  0  0
 56 72  1  0  0  0  0
 57 70  1  0  0  0  0
 60 67  1  0  0  0  0
 61 68  1  0  0  0  0
 62 68  1  0  0  0  0
 63 68  1  0  0  0  0
 64 79  1  0  0  0  0
 65 87  1  0  0  0  0
 66 68  1  0  0  0  0
 66 78  1  0  0  0  0
 67 79  1  0  0  0  0
 69 70  1  0  0  0  0
M  CHG  1  79   1
M  ISO  4  43 100  65 101  76 100  87 101
M  END
> <Batch ID>
0116

> <Smiles>
C=Cc1cc(N2CC(=O)CC([101CH2:1][101O:1]c3ccc4c(c3)CN(C(=O)C(NC(=O)C(C)NC)C(C)(C)C)C(C(=O)NC3CCCc5ccccc53)C4)=C2C)cc(C)c1[100NH:0][100C:0](=O)N1CCCC(n2nc(-c3ccc(Oc4ccc(F)cc4F)cc3)c(C(N)=O)c2N)C1

> <Shape>
0.225

> <Color>
0.098

> <Negative vol penalty>
0.000

$$$$

  -OEChem-04052301433D

 80 88  0     1  0  0  0  0  0999 V2000
  -43.1370  -12.5494   31.9457 C   0  0  0  0  0  0  0  0  0  0  0  0
  -42.1283  -12.8146   31.0251 C   0  0  0  0  0  0  0  0  0  0  0  0
  -23.1909   -9.8194   19.9318 C   0  0  0  0  0  0  0  0  0  0  0  0
  -23.5701   -9.9993   22.3111 C   0  0  0  0  0  0  0  0  0  0  0  0
  -43.9526  -13.5841   32.4018 C   0  0  0  0  0  0  0  0  0  0  0  0
  -41.9338  -14.1150   30.5609 C   0  0  0  0  0  0  0  0  0  0  0  0
  -41.2509  -14.3059   25.5467 C   0  0  0  0  0  0  0  0  0  0  0  0
  -22.4252   -8.6724   20.1406 C   0  0  0  0  0  0  0  0  0  0  0  0
  -22.8043   -8.8523   22.5199 C   0  0  0  0  0  0  0  0  0  0  0  0
  -39.9926  -13.9523   25.0615 C   0  0  0  0  0  0  0  0  0  0  0  0
  -23.2065   -5.5059   22.2548 C   0  0  0  0  0  0  0  0  0  0  0  0
  -23.7056   -4.5445   23.1336 C   0  0  0  0  0  0  0  0  0  0  0  0
  -39.4224  -16.2872   24.8560 C   0  0  0  0  0  0  0  0  0  0  0  0
  -32.7148  -13.3739   24.0920 C   0  0  0  0  0  0  0  0  0  0  0  0
  -21.7495   -4.8034   24.5278 C   0  0  0  0  0  0  0  0  0  0  0  0
  -30.7799  -13.0270   25.3322 C   0  0  0  0  0  0  0  0  0  0  0  0
  -23.7634  -10.4828   21.0171 C   0  0  0  0  0  0  0  0  0  0  0  0
  -24.1011  -12.9997   20.7738 C   0  0  0  0  0  0  0  0  0  0  0  0
  -43.7743  -14.8962   31.9356 C   0  0  0  0  0  0  0  0  0  0  0  0
  -41.6010  -15.6550   25.7007 C   0  0  0  0  0  0  0  0  0  0  0  0
  -42.7469  -15.1685   31.0121 C   0  0  0  0  0  0  0  0  0  0  0  0
  -40.6866  -16.6553   25.3409 C   0  0  0  0  0  0  0  0  0  0  0  0
  -31.3272  -13.0512   24.0683 C   0  0  0  0  0  0  0  0  0  0  0  0
  -22.2318   -8.1889   21.4346 C   0  0  0  0  0  0  0  0  0  0  0  0
  -39.0771  -14.9429   24.7188 C   0  0  0  0  0  0  0  0  0  0  0  0
  -21.9789   -6.1161   22.5125 C   0  0  0  0  0  0  0  0  0  0  0  0
  -22.9771   -4.1933   24.2700 C   0  0  0  0  0  0  0  0  0  0  0  0
  -21.2504   -5.7649   23.6490 C   0  0  0  0  0  0  0  0  0  0  0  0
  -24.5551  -11.6674   20.8020 C   0  0  0  0  0  0  0  0  0  0  0  0
  -33.1752  -13.5842   25.3733 C   0  0  0  0  0  0  0  0  0  0  0  0
  -25.2319  -13.7428   20.5382 C   0  0  0  0  0  0  0  0  0  0  0  0
  -35.5955  -14.0941   24.7849 C   0  0  0  0  0  0  0  0  0  0  0  0
  -36.8358  -14.4298   25.1480 C   0  0  0  0  0  0  0  0  0  1  0  0
  -22.7758  -13.5190   20.9453 C   0  0  0  0  0  0  0  0  0  0  0  0
  -34.5436  -13.9362   25.8235 C   0  0  0  0  0  0  0  0  0  0  0  0
  -42.4053  -17.4967   28.1634 C   0  0  0  0  0  0  0  0  0  0  0  0
  -42.9575  -19.6922   25.8401 C   0  0  0  0  0  0  0  0  0  0  0  0
  -42.3076  -20.7848   22.6730 C   0  0  0  0  0  0  0  0  0  0  0  0
  -31.0371  -12.7842   21.5802 C   0  0  0  0  0  0  0  0  0  0  0  0
  -44.6501  -15.9901   32.4933 C   0  0  0  0  0  0  0  0  0  0  0  0
  -42.9720  -16.0202   26.2001 C   0  0  0  0  0  0  0  0  0  0  0  0
  -41.0209  -18.1183   25.4683 C   0  0  0  0  0  0  0  0  0  0  0  0
  -44.6206  -17.2742   31.6683 C   0  0  0  0  0  0  0  0  0  0  0  0
  -29.5232  -13.4658   18.4304 C   0  0  0  0  0  0  0  0  0  0  0  0
  -43.1845  -17.6506   31.3179 C   0  0  0  0  0  0  0  0  0  0  0  0
  -28.0353  -13.2091   18.6802 C   0  0  0  0  0  0  0  0  0  0  0  0
  -30.4050  -12.4810   19.1961 C   0  0  0  0  0  0  0  0  0  0  0  0
  -28.6460  -12.1386   20.8866 C   0  0  0  0  0  0  0  0  0  0  0  0
  -42.5209  -16.5617   30.4662 C   0  0  1  0  0  0  0  0  0  0  0  0
  -43.0355  -17.4208   26.8015 C   0  0  1  0  0  0  0  0  0  0  0  0
  -27.7195  -13.1468   20.1875 C   0  0  2  0  0  0  0  0  0  0  0  0
  -42.8789  -22.6283   21.0691 C   0  0  0  0  0  0  0  0  0  0  0  0
  -41.1211  -21.5888   27.3699 C   0  0  0  0  0  0  0  0  0  0  0  0
  -40.9724  -22.9980   25.3059 C   0  0  0  0  0  0  0  0  0  0  0  0
  -43.1750  -22.6597   26.4270 C   0  0  0  0  0  0  0  0  0  0  0  0
  -43.4686  -18.8856   20.7226 C   0  0  0  0  0  0  0  0  0  0  0  0
  -42.1289  -20.7468   25.1470 C   0  0  1  0  0  0  0  0  0  0  0  0
  -43.2295  -21.2295   21.5518 C   0  0  2  0  0  0  0  0  0  0  0  0
  -41.8421  -21.9708   26.0618 C   0  0  0  0  0  0  0  0  0  0  0  0
  -25.8716  -11.5668   20.6003 N   0  0  0  0  0  0  0  0  0  0  0  0
  -26.2546  -12.8454   20.4430 N   0  0  0  0  0  0  0  0  0  0  0  0
  -42.3717  -18.4247   25.9673 N   0  0  0  0  0  0  0  0  0  0  0  0
  -30.0518  -12.4791   20.6174 N   0  0  0  0  0  0  0  0  0  0  0  0
  -25.4413  -15.0698   20.4052 N   0  0  0  0  0  0  0  0  0  0  0  0
  -21.7295  -12.6164   21.1795 N   0  0  0  0  0  0  0  0  0  0  0  0
  -30.5769  -12.7836   22.8965 N   0  0  0  0  0  0  0  0  0  0  0  0
  -42.9729  -16.6477   29.0941 N   0  0  0  0  0  0  0  0  0  0  0  0
  -42.8351  -21.0752   23.9134 N   0  0  0  0  0  0  0  0  0  0  0  0
  -43.1279  -20.2942   20.3960 N   0  3  0  0  0  0  0  0  0  0  0  0
  -22.5241  -14.7460   20.8760 O   0  0  0  0  0  0  0  0  0  0  0  0
  -34.7661  -14.1105   27.0168 O   0  0  0  0  0  0  0  0  0  0  0  0
  -41.4740  -18.2696   28.3559 O   0  0  0  0  0  0  0  0  0  0  0  0
  -44.0857  -19.9804   26.2471 O   0  0  0  0  0  0  0  0  0  0  0  0
  -41.2260  -20.2381   22.4687 O   0  0  0  0  0  0  0  0  0  0  0  0
  -32.1970  -13.0548   21.2584 O   0  0  0  0  0  0  0  0  0  0  0  0
  -21.4844   -7.0698   21.6387 O   0  0  0  0  0  0  0  0  0  0  0  0
  -37.8479  -14.6005   24.2457 O   0  0  0  0  0  0  0  0  0  1  0  0
  -23.4557   -3.2689   25.1130 F   0  0  0  0  0  0  0  0  0  0  0  0
  -20.0699   -6.3468   23.9012 F   0  0  0  0  0  0  0  0  0  0  0  0
  -31.9370  -13.3924   26.5405 S   0  0  0  0  0  0  0  0  0  0  0  0
  1  2  1  0  0  0  0
  1  5  2  0  0  0  0
  2  6  2  0  0  0  0
  3  8  2  0  0  0  0
  3 17  1  0  0  0  0
  4  9  1  0  0  0  0
  4 17  2  0  0  0  0
  5 19  1  0  0  0  0
  6 21  1  0  0  0  0
  7 10  2  0  0  0  0
  7 20  1  0  0  0  0
  8 24  1  0  0  0  0
  9 24  2  0  0  0  0
 10 25  1  0  0  0  0
 11 12  2  0  0  0  0
 11 26  1  0  0  0  0
 12 27  1  0  0  0  0
 13 22  1  0  0  0  0
 13 25  2  0  0  0  0
 14 23  1  0  0  0  0
 14 30  2  0  0  0  0
 15 27  2  0  0  0  0
 15 28  1  0  0  0  0
 16 23  2  0  0  0  0
 16 80  1  0  0  0  0
 17 29  1  0  0  0  0
 18 29  1  0  0  0  0
 18 31  2  0  0  0  0
 18 34  1  0  0  0  0
 19 21  2  0  0  0  0
 19 40  1  0  0  0  0
 20 22  2  0  0  0  0
 20 41  1  0  0  0  0
 21 49  1  0  0  0  0
 22 42  1  0  0  0  0
 23 66  1  0  0  0  0
 24 76  1  0  0  0  0
 25 77  1  0  0  0  0
 26 28  2  0  0  0  0
 26 76  1  0  0  0  0
 27 78  1  0  0  0  0
 28 79  1  0  0  0  0
 29 60  2  0  0  0  0
 30 35  1  0  0  0  0
 30 80  1  0  0  0  0
 31 61  1  0  0  0  0
 31 64  1  0  0  0  0
 32 33  2  0  0  0  0
 32 35  1  0  0  0  0
 33 77  1  0  0  0  0
 34 65  1  0  0  0  0
 34 70  2  0  0  0  0
 35 71  2  0  0  0  0
 36 50  1  0  0  0  0
 36 67  1  0  0  0  0
 36 72  2  0  0  0  0
 37 57  1  0  0  0  0
 37 62  1  0  0  0  0
 37 73  2  0  0  0  0
 38 58  1  0  0  0  0
 38 68  1  0  0  0  0
 38 74  2  0  0  0  0
 39 63  1  0  0  0  0
 39 66  1  0  0  0  0
 39 75  2  0  0  0  0
 40 43  1  0  0  0  0
 41 50  1  0  0  0  0
 42 62  1  0  0  0  0
 43 45  1  0  0  0  0
 44 46  1  0  0  0  0
 44 47  1  0  0  0  0
 45 49  1  0  0  0  0
 46 51  1  0  0  0  0
 47 63  1  0  0  0  0
 48 51  1  0  0  0  0
 48 63  1  0  0  0  0
 49 67  1  0  0  0  0
 50 62  1  0  0  0  0
 51 61  1  0  0  0  0
 52 58  1  0  0  0  0
 53 59  1  0  0  0  0
 54 59  1  0  0  0  0
 55 59  1  0  0  0  0
 56 69  1  0  0  0  0
 57 59  1  0  0  0  0
 57 68  1  0  0  0  0
 58 69  1  0  0  0  0
 60 61  1  0  0  0  0
M  CHG  1  69   1
M  ISO  4  33 101  39 100  66 100  77 101
M  END
> <Batch ID>
0116

> <Smiles>
CNC(C)C(=O)NC(C(=O)N1Cc2cc([101O:1][101CH:1]=CC(=O)c3cc([100NH:0][100C:0](=O)N4CCCC(n5nc(-c6ccc(Oc7ccc(F)cc7F)cc6)c(C(N)=O)c5N)C4)cs3)ccc2CC1C(=O)NC1CCCc2ccccc21)C(C)(C)C

> <Shape>
0.142

> <Color>
0.186

> <Negative vol penalty>
0.000

$$$$

  -OEChem-04052301433D

 90 99  0     1  0  0  0  0  0999 V2000
  -22.1796   -3.4444   21.1226 C   0  0  0  0  0  0  0  0  0  0  0  0
  -21.9973   -4.5651   20.3188 C   0  0  0  0  0  0  0  0  0  0  0  0
  -24.1725  -28.4138   25.3172 C   0  0  0  0  0  0  0  0  0  0  0  0
  -23.6559  -29.3265   23.1406 C   0  0  0  0  0  0  0  0  0  0  0  0
  -21.9930   -3.5388   22.5011 C   0  0  0  0  0  0  0  0  0  0  0  0
  -21.6272   -5.7808   20.8929 C   0  0  0  0  0  0  0  0  0  0  0  0
  -25.7324  -11.6494   20.1194 C   0  0  0  0  0  0  0  0  0  0  0  0
  -22.8171  -28.1671   25.5353 C   0  0  0  0  0  0  0  0  0  0  0  0
  -22.3005  -29.0797   23.3588 C   0  0  0  0  0  0  0  0  0  0  0  0
  -26.3557  -12.8658   19.8402 C   0  0  0  0  0  0  0  0  0  0  0  0
  -20.2020  -26.4334   23.2418 C   0  0  0  0  0  0  0  0  0  0  0  0
  -19.4747  -25.8541   22.2021 C   0  0  0  0  0  0  0  0  0  0  0  0
  -24.7822  -14.0132   21.2739 C   0  0  0  0  0  0  0  0  0  0  0  0
  -28.0958  -21.0100   21.2145 C   0  0  0  0  0  0  0  0  0  0  0  0
  -29.9462  -21.1486   19.6673 C   0  0  0  0  0  0  0  0  0  0  0  0
  -18.0136  -27.7776   22.1522 C   0  0  0  0  0  0  0  0  0  0  0  0
  -24.5919  -28.9936   24.1198 C   0  0  0  0  0  0  0  0  0  0  0  0
  -26.8401  -30.0716   24.6597 C   0  0  0  0  0  0  0  0  0  0  0  0
  -21.6299   -4.7586   23.0935 C   0  0  0  0  0  0  0  0  0  0  0  0
  -24.6399  -11.6081   20.9900 C   0  0  0  0  0  0  0  0  0  0  0  0
  -21.4343   -5.8913   22.2805 C   0  0  0  0  0  0  0  0  0  0  0  0
  -24.1616  -12.7960   21.5671 C   0  0  0  0  0  0  0  0  0  0  0  0
  -28.1086  -22.3977   21.3541 C   0  0  0  0  0  0  0  0  0  0  0  0
  -29.0147  -20.3853   20.3711 C   0  0  0  0  0  0  0  0  0  0  0  0
  -29.0401  -23.1610   20.6502 C   0  0  0  0  0  0  0  0  0  0  0  0
  -21.8811  -28.5000   24.5562 C   0  0  0  0  0  0  0  0  0  0  0  0
  -25.8816  -14.0448   20.4159 C   0  0  0  0  0  0  0  0  0  0  0  0
  -19.8350  -27.6848   23.7369 C   0  0  0  0  0  0  0  0  0  0  0  0
  -18.3806  -26.5261   21.6573 C   0  0  0  0  0  0  0  0  0  0  0  0
  -29.9589  -22.5364   19.8068 C   0  0  0  0  0  0  0  0  0  0  0  0
  -18.7409  -28.3569   23.1920 C   0  0  0  0  0  0  0  0  0  0  0  0
  -25.9918  -29.2494   23.8941 C   0  0  0  0  0  0  0  0  0  0  0  0
  -28.0609  -29.9797   24.0372 C   0  0  0  0  0  0  0  0  0  0  0  0
  -27.7153  -17.0718   21.0991 C   0  0  0  0  0  0  0  0  0  0  0  0
  -27.8235  -18.2088   20.3603 C   0  0  0  0  0  0  0  0  0  0  0  0
  -30.8006  -18.0472   21.5765 C   0  0  0  0  0  0  0  0  0  0  0  0
  -26.5503  -30.8489   25.8291 C   0  0  0  0  0  0  0  0  0  0  0  0
  -22.0580   -9.5066   22.7202 C   0  0  0  0  0  0  0  0  0  0  0  0
  -23.0172  -11.5933   24.7539 C   0  0  0  0  0  0  0  0  0  0  0  0
  -23.8953  -13.3078   27.5694 C   0  0  0  0  0  0  0  0  0  0  0  0
  -29.9307  -25.4713   20.1509 C   0  0  0  0  0  0  0  0  0  0  0  0
  -21.3934   -4.8005   24.5825 C   0  0  0  0  0  0  0  0  0  0  0  0
  -23.8994  -10.3288   21.2712 C   0  0  0  0  0  0  0  0  0  0  0  0
  -22.9620  -12.7083   22.4705 C   0  0  0  0  0  0  0  0  0  0  0  0
  -28.8221  -16.5119   21.9865 C   0  0  0  0  0  0  0  0  0  0  0  0
  -29.8067  -17.5158   22.5857 C   0  0  0  0  0  0  0  0  0  0  0  0
  -30.3133  -18.3108   20.1728 C   0  0  0  0  0  0  0  0  0  0  0  0
  -21.3668   -6.2151   25.1554 C   0  0  0  0  0  0  0  0  0  0  0  0
  -29.7195  -29.1144   19.5663 C   0  0  0  0  0  0  0  0  0  0  0  0
  -20.4976   -7.1243   24.2924 C   0  0  0  0  0  0  0  0  0  0  0  0
  -29.0268  -29.7017   20.7969 C   0  0  0  0  0  0  0  0  0  0  0  0
  -30.5310  -27.8657   19.8829 C   0  0  0  0  0  0  0  0  0  0  0  0
  -28.6789  -27.2702   21.4596 C   0  0  0  0  0  0  0  0  0  0  0  0
  -21.0571   -7.2335   22.8689 C   0  0  1  0  0  0  0  0  0  0  0  0
  -23.3638  -10.2457   22.7118 C   0  0  1  0  0  0  0  0  0  0  0  0
  -28.9163  -28.7031   21.9613 C   0  0  2  0  0  0  0  0  0  0  0  0
  -26.6537  -18.6969   19.5244 C   0  0  0  0  0  0  0  0  0  0  0  0
  -27.7354  -23.4602   23.5942 C   0  0  0  0  0  0  0  0  0  0  0  0
  -22.9876  -14.0468   29.7891 C   0  0  0  0  0  0  0  0  0  0  0  0
  -21.4047  -13.7772   23.3632 C   0  0  0  0  0  0  0  0  0  0  0  0
  -21.3206  -15.0049   25.5435 C   0  0  0  0  0  0  0  0  0  0  0  0
  -20.2767  -12.7481   25.3438 C   0  0  0  0  0  0  0  0  0  0  0  0
  -25.9505  -11.7772   29.0502 C   0  0  0  0  0  0  0  0  0  0  0  0
  -27.1140  -23.0395   22.2662 C   0  0  0  0  0  0  0  0  0  0  0  0
  -26.4607  -16.2286   21.1597 C   0  0  0  0  0  0  0  0  0  1  0  0
  -22.7967  -12.9498   25.3741 C   0  0  1  0  0  0  0  0  0  0  0  0
  -23.7542  -12.9667   29.0419 C   0  0  2  0  0  0  0  0  0  0  0  0
  -21.4747  -13.6129   24.8945 C   0  0  0  0  0  0  0  0  0  0  0  0
  -26.6205  -28.6773   22.8638 N   0  0  0  0  0  0  0  0  0  0  0  0
  -27.8768  -29.1409   22.9776 N   0  0  0  0  0  0  0  0  0  0  0  0
  -29.0015  -18.9685   20.2288 N   0  0  0  0  0  0  0  0  0  0  0  0
  -23.0845  -11.5401   23.3564 N   0  0  0  0  0  0  0  0  0  0  0  0
  -29.6994  -26.8254   20.4950 N   0  0  0  0  0  0  0  0  0  0  0  0
  -29.2632  -30.5354   24.2983 N   0  0  0  0  0  0  0  0  0  0  0  0
  -26.1247  -32.1738   25.6622 N   0  0  0  0  0  0  0  0  0  0  0  0
  -29.0677  -24.5717   20.7818 N   0  0  0  0  0  0  0  0  0  0  0  0
  -22.1880   -8.1360   22.8382 N   0  0  0  0  0  0  0  0  0  0  0  0
  -22.8790  -12.7569   26.8178 N   0  0  0  0  0  0  0  0  0  0  0  0
  -25.0973  -12.8228   29.6713 N   0  3  0  0  0  0  0  0  0  0  0  0
  -31.9702  -18.2675   21.8937 O   0  0  0  0  0  0  0  0  0  0  0  0
  -26.6812  -30.3875   26.9883 O   0  0  0  0  0  0  0  0  0  0  0  0
  -21.0087  -10.1329   22.6281 O   0  0  0  0  0  0  0  0  0  0  0  0
  -23.1216  -10.6052   25.4861 O   0  0  0  0  0  0  0  0  0  0  0  0
  -24.8132  -13.9972   27.1304 O   0  0  0  0  0  0  0  0  0  0  0  0
  -30.8117  -25.1477   19.3514 O   0  0  0  0  0  0  0  0  0  0  0  0
  -20.5585  -28.2591   24.7686 O   0  0  0  0  0  0  0  0  0  0  0  0
  -26.4975  -15.2283   20.1426 O   0  0  0  0  0  0  0  0  0  1  0  0
  -17.6833  -25.9703   20.6578 F   0  0  0  0  0  0  0  0  0  0  0  0
  -30.8599  -23.2590   19.1258 F   0  0  0  0  0  0  0  0  0  0  0  0
  -18.3842  -29.5599   23.6626 F   0  0  0  0  0  0  0  0  0  0  0  0
  1  2  1  0  0  0  0
  1  5  2  0  0  0  0
  2  6  2  0  0  0  0
  3  8  2  0  0  0  0
  3 17  1  0  0  0  0
  4  9  1  0  0  0  0
  4 17  2  0  0  0  0
  5 19  1  0  0  0  0
  6 21  1  0  0  0  0
  7 10  2  0  0  0  0
  7 20  1  0  0  0  0
  8 26  1  0  0  0  0
  9 26  2  0  0  0  0
 10 27  1  0  0  0  0
 11 12  2  0  0  0  0
 11 28  1  0  0  0  0
 12 29  1  0  0  0  0
 13 22  1  0  0  0  0
 13 27  2  0  0  0  0
 14 23  1  0  0  0  0
 14 24  2  0  0  0  0
 15 24  1  0  0  0  0
 15 30  2  0  0  0  0
 16 29  2  0  0  0  0
 16 31  1  0  0  0  0
 17 32  1  0  0  0  0
 18 32  1  0  0  0  0
 18 33  2  0  0  0  0
 18 37  1  0  0  0  0
 19 21  2  0  0  0  0
 19 42  1  0  0  0  0
 20 22  2  0  0  0  0
 20 43  1  0  0  0  0
 21 54  1  0  0  0  0
 22 44  1  0  0  0  0
 23 25  2  0  0  0  0
 23 64  1  0  0  0  0
 24 71  1  0  0  0  0
 25 30  1  0  0  0  0
 25 76  1  0  0  0  0
 26 86  1  0  0  0  0
 27 87  1  0  0  0  0
 28 31  2  0  0  0  0
 28 86  1  0  0  0  0
 29 88  1  0  0  0  0
 30 89  1  0  0  0  0
 31 90  1  0  0  0  0
 32 69  2  0  0  0  0
 33 70  1  0  0  0  0
 33 74  1  0  0  0  0
 34 35  2  0  0  0  0
 34 45  1  0  0  0  0
 34 65  1  0  0  0  0
 35 57  1  0  0  0  0
 35 71  1  0  0  0  0
 36 46  1  0  0  0  0
 36 47  1  0  0  0  0
 36 80  2  0  0  0  0
 37 75  1  0  0  0  0
 37 81  2  0  0  0  0
 38 55  1  0  0  0  0
 38 77  1  0  0  0  0
 38 82  2  0  0  0  0
 39 66  1  0  0  0  0
 39 72  1  0  0  0  0
 39 83  2  0  0  0  0
 40 67  1  0  0  0  0
 40 78  1  0  0  0  0
 40 84  2  0  0  0  0
 41 73  1  0  0  0  0
 41 76  1  0  0  0  0
 41 85  2  0  0  0  0
 42 48  1  0  0  0  0
 43 55  1  0  0  0  0
 44 72  1  0  0  0  0
 45 46  1  0  0  0  0
 47 71  1  0  0  0  0
 48 50  1  0  0  0  0
 49 51  1  0  0  0  0
 49 52  1  0  0  0  0
 50 54  1  0  0  0  0
 51 56  1  0  0  0  0
 52 73  1  0  0  0  0
 53 56  1  0  0  0  0
 53 73  1  0  0  0  0
 54 77  1  0  0  0  0
 55 72  1  0  0  0  0
 56 70  1  0  0  0  0
 58 64  1  0  0  0  0
 59 67  1  0  0  0  0
 60 68  1  0  0  0  0
 61 68  1  0  0  0  0
 62 68  1  0  0  0  0
 63 79  1  0  0  0  0
 65 87  1  0  0  0  0
 66 68  1  0  0  0  0
 66 78  1  0  0  0  0
 67 79  1  0  0  0  0
 69 70  1  0  0  0  0
M  CHG  1  79   1
M  ISO  4  41 100  65 101  76 100  87 101
M  END
> <Batch ID>
0116

> <Smiles>
CCc1cc(N2CC(=O)CCC([101CH2:1][101O:1]c3ccc4c(c3)CN(C(=O)C(NC(=O)C(C)NC)C(C)(C)C)C(C(=O)NC3CCCc5ccccc53)C4)=C2C)cc(F)c1[100NH:0][100C:0](=O)N1CCCC(n2nc(-c3ccc(Oc4ccc(F)cc4F)cc3)c(C(N)=O)c2N)C1

> <Shape>
0.328

> <Color>
0.063

> <Negative vol penalty>
0.000

$$$$

  -OEChem-04052301433D

 89 98  0     1  0  0  0  0  0999 V2000
  -27.3595  -24.7342   19.2315 C   0  0  0  0  0  0  0  0  0  0  0  0
  -27.8628  -25.7771   19.5490 C   0  0  0  0  0  0  0  0  0  1  0  0
  -29.3696  -36.3393   21.3727 C   0  0  0  0  0  0  0  0  0  0  0  0
  -29.4810  -34.9528   21.3481 C   0  0  0  0  0  0  0  0  0  0  0  0
  -22.3110  -11.5359   22.6843 C   0  0  0  0  0  0  0  0  0  0  0  0
  -21.6365  -12.6012   20.6234 C   0  0  0  0  0  0  0  0  0  0  0  0
  -28.3249  -36.9412   22.0729 C   0  0  0  0  0  0  0  0  0  0  0  0
  -28.5483  -34.1674   22.0247 C   0  0  0  0  0  0  0  0  0  0  0  0
  -26.9627  -30.2262   19.2682 C   0  0  0  0  0  0  0  0  0  0  0  0
  -20.9742  -11.4324   23.0685 C   0  0  0  0  0  0  0  0  0  0  0  0
  -20.2995  -12.4976   21.0075 C   0  0  0  0  0  0  0  0  0  0  0  0
  -27.8149  -29.1263   19.1809 C   0  0  0  0  0  0  0  0  0  0  0  0
  -18.3313   -9.4396   22.3783 C   0  0  0  0  0  0  0  0  0  0  0  0
  -17.9025   -8.2246   22.9126 C   0  0  0  0  0  0  0  0  0  0  0  0
  -26.1512  -21.0038   16.9586 C   0  0  0  0  0  0  0  0  0  0  0  0
  -27.3035  -19.9774   18.8175 C   0  0  0  0  0  0  0  0  0  0  0  0
  -26.5167  -27.9941   20.8696 C   0  0  0  0  0  0  0  0  0  0  0  0
  -25.9913  -18.6190   17.3110 C   0  0  0  0  0  0  0  0  0  0  0  0
  -17.2879   -9.3435   24.9638 C   0  0  0  0  0  0  0  0  0  0  0  0
  -22.6422  -12.1204   21.4618 C   0  0  0  0  0  0  0  0  0  0  0  0
  -26.9727  -21.1145   18.0804 C   0  0  0  0  0  0  0  0  0  0  0  0
  -24.7731  -11.2879   20.3331 C   0  0  0  0  0  0  0  0  0  0  0  0
  -27.3735  -36.1625   22.7504 C   0  0  0  0  0  0  0  0  0  0  0  0
  -25.8857  -30.2227   20.1662 C   0  0  0  0  0  0  0  0  0  0  0  0
  -27.4908  -34.7595   22.7358 C   0  0  0  0  0  0  0  0  0  0  0  0
  -25.6508  -29.0942   20.9645 C   0  0  0  0  0  0  0  0  0  0  0  0
  -25.6604  -19.7560   16.5739 C   0  0  0  0  0  0  0  0  0  0  0  0
  -26.8128  -18.7297   18.4328 C   0  0  0  0  0  0  0  0  0  0  0  0
  -19.9684  -11.9132   22.2301 C   0  0  0  0  0  0  0  0  0  0  0  0
  -27.5937  -28.0111   19.9837 C   0  0  0  0  0  0  0  0  0  0  0  0
  -18.2384  -10.6066   23.1367 C   0  0  0  0  0  0  0  0  0  0  0  0
  -17.3808   -8.1765   24.2053 C   0  0  0  0  0  0  0  0  0  0  0  0
  -17.7167  -10.5586   24.4294 C   0  0  0  0  0  0  0  0  0  0  0  0
  -24.0231  -12.2281   21.0647 C   0  0  0  0  0  0  0  0  0  0  0  0
  -26.0182  -11.8562   20.2183 C   0  0  0  0  0  0  0  0  0  0  0  0
  -22.7848  -21.1135   14.9240 C   0  0  0  0  0  0  0  0  0  0  0  0
  -27.4896  -22.4290   18.4865 C   0  0  0  0  0  0  0  0  0  0  0  0
  -26.7531  -23.4959   18.8528 C   0  0  0  0  0  0  0  0  0  0  0  0
  -24.3794  -10.0146   19.8043 C   0  0  0  0  0  0  0  0  0  0  0  0
  -25.0573  -31.9795   22.6823 C   0  0  0  0  0  0  0  0  0  0  0  0
  -22.3466  -30.2036   22.5394 C   0  0  0  0  0  0  0  0  0  0  0  0
  -20.8249  -27.3142   21.5480 C   0  0  0  0  0  0  0  0  0  0  0  0
  -27.9500  -17.5098   20.3210 C   0  0  0  0  0  0  0  0  0  0  0  0
  -26.2890  -36.8598   23.5330 C   0  0  0  0  0  0  0  0  0  0  0  0
  -24.9598  -31.4064   20.2291 C   0  0  0  0  0  0  0  0  0  0  0  0
  -24.4966  -29.0323   21.9302 C   0  0  0  0  0  0  0  0  0  0  0  0
  -21.3684  -21.1730   15.4463 C   0  0  0  0  0  0  0  0  0  0  0  0
  -25.1275  -35.9449   23.9124 C   0  0  0  0  0  0  0  0  0  0  0  0
  -21.4564  -20.4506   16.7852 C   0  0  0  0  0  0  0  0  0  0  0  0
  -28.9823  -14.8674   22.4725 C   0  0  0  0  0  0  0  0  0  0  0  0
  -25.6483  -34.6272   24.4775 C   0  0  0  0  0  0  0  0  0  0  0  0
  -27.8992  -13.8026   22.2845 C   0  0  0  0  0  0  0  0  0  0  0  0
  -22.5758  -19.4487   16.5854 C   0  0  0  0  0  0  0  0  0  0  0  0
  -28.4020  -16.2799   22.4324 C   0  0  0  0  0  0  0  0  0  0  0  0
  -26.5019  -15.5175   21.0622 C   0  0  0  0  0  0  0  0  0  0  0  0
  -26.4846  -33.8728   23.4368 C   0  0  1  0  0  0  0  0  0  0  0  0
  -24.1976  -31.4994   21.5474 C   0  0  1  0  0  0  0  0  0  0  0  0
  -27.0475  -14.0805   21.0302 C   0  0  2  0  0  0  0  0  0  0  0  0
  -25.2505  -23.4257   18.8518 C   0  0  0  0  0  0  0  0  0  0  0  0
  -18.6113  -26.1335   21.6058 C   0  0  0  0  0  0  0  0  0  0  0  0
  -22.7988  -29.5048   25.4749 C   0  0  0  0  0  0  0  0  0  0  0  0
  -21.1612  -27.6298   25.2087 C   0  0  0  0  0  0  0  0  0  0  0  0
  -20.4203  -29.9878   24.8720 C   0  0  0  0  0  0  0  0  0  0  0  0
  -20.6429  -27.2649   18.5944 C   0  0  0  0  0  0  0  0  0  0  0  0
  -24.7815  -19.6372   15.3749 C   0  0  0  0  0  0  0  0  0  0  0  0
  -21.8951  -28.8920   23.1353 C   0  0  1  0  0  0  0  0  0  0  0  0
  -19.5189  -27.0635   20.8158 C   0  0  2  0  0  0  0  0  0  0  0  0
  -21.5918  -29.0052   24.6560 C   0  0  0  0  0  0  0  0  0  0  0  0
  -24.7326  -13.3114   21.3919 N   0  0  0  0  0  0  0  0  0  0  0  0
  -25.9414  -13.0555   20.8634 N   0  0  0  0  0  0  0  0  0  0  0  0
  -23.4366  -20.1052   15.6303 N   0  0  0  0  0  0  0  0  0  0  0  0
  -23.6232  -30.2171   21.9597 N   0  0  0  0  0  0  0  0  0  0  0  0
  -27.6113  -16.4718   21.2147 N   0  0  0  0  0  0  0  0  0  0  0  0
  -27.1603  -11.4422   19.6296 N   0  0  0  0  0  0  0  0  0  0  0  0
  -23.0625   -9.5827   20.0130 N   0  0  0  0  0  0  0  0  0  0  0  0
  -27.1479  -17.5746   19.1821 N   0  0  0  0  0  0  0  0  0  0  0  0
  -25.6240  -33.2222   22.4722 N   0  0  0  0  0  0  0  0  0  0  0  0
  -20.7618  -28.4471   22.3315 N   0  0  0  0  0  0  0  0  0  0  0  0
  -19.7813  -26.4458   19.4853 N   0  3  0  0  0  0  0  0  0  0  0  0
  -23.2215  -21.8065   14.0174 O   0  0  0  0  0  0  0  0  0  0  0  0
  -25.1766   -9.2743   19.1799 O   0  0  0  0  0  0  0  0  0  0  0  0
  -25.1950  -31.2754   23.6758 O   0  0  0  0  0  0  0  0  0  0  0  0
  -21.5915  -31.1781   22.5802 O   0  0  0  0  0  0  0  0  0  0  0  0
  -21.8019  -26.5767   21.4388 O   0  0  0  0  0  0  0  0  0  0  0  0
  -28.8998  -18.2671   20.5360 O   0  0  0  0  0  0  0  0  0  0  0  0
  -28.4244  -26.9364   19.9010 O   0  0  0  0  0  0  0  0  0  1  0  0
  -18.6637  -11.8122   22.6045 O   0  0  0  0  0  0  0  0  0  0  0  0
  -16.9677   -7.0099   24.7178 F   0  0  0  0  0  0  0  0  0  0  0  0
  -17.6238  -11.6766   25.1624 F   0  0  0  0  0  0  0  0  0  0  0  0
  1  2  3  0  0  0  0
  1 38  1  0  0  0  0
  2 86  1  0  0  0  0
  3  4  1  0  0  0  0
  3  7  2  0  0  0  0
  4  8  2  0  0  0  0
  5 10  2  0  0  0  0
  5 20  1  0  0  0  0
  6 11  1  0  0  0  0
  6 20  2  0  0  0  0
  7 23  1  0  0  0  0
  8 25  1  0  0  0  0
  9 12  2  0  0  0  0
  9 24  1  0  0  0  0
 10 29  1  0  0  0  0
 11 29  2  0  0  0  0
 12 30  1  0  0  0  0
 13 14  2  0  0  0  0
 13 31  1  0  0  0  0
 14 32  1  0  0  0  0
 15 21  1  0  0  0  0
 15 27  2  0  0  0  0
 16 21  2  0  0  0  0
 16 28  1  0  0  0  0
 17 26  1  0  0  0  0
 17 30  2  0  0  0  0
 18 27  1  0  0  0  0
 18 28  2  0  0  0  0
 19 32  2  0  0  0  0
 19 33  1  0  0  0  0
 20 34  1  0  0  0  0
 21 37  1  0  0  0  0
 22 34  1  0  0  0  0
 22 35  2  0  0  0  0
 22 39  1  0  0  0  0
 23 25  2  0  0  0  0
 23 44  1  0  0  0  0
 24 26  2  0  0  0  0
 24 45  1  0  0  0  0
 25 56  1  0  0  0  0
 26 46  1  0  0  0  0
 27 65  1  0  0  0  0
 28 76  1  0  0  0  0
 29 87  1  0  0  0  0
 30 86  1  0  0  0  0
 31 33  2  0  0  0  0
 31 87  1  0  0  0  0
 32 88  1  0  0  0  0
 33 89  1  0  0  0  0
 34 69  2  0  0  0  0
 35 70  1  0  0  0  0
 35 74  1  0  0  0  0
 36 47  1  0  0  0  0
 36 71  1  0  0  0  0
 36 80  2  0  0  0  0
 37 38  2  0  0  0  0
 38 59  1  0  0  0  0
 39 75  1  0  0  0  0
 39 81  2  0  0  0  0
 40 57  1  0  0  0  0
 40 77  1  0  0  0  0
 40 82  2  0  0  0  0
 41 66  1  0  0  0  0
 41 72  1  0  0  0  0
 41 83  2  0  0  0  0
 42 67  1  0  0  0  0
 42 78  1  0  0  0  0
 42 84  2  0  0  0  0
 43 73  1  0  0  0  0
 43 76  1  0  0  0  0
 43 85  2  0  0  0  0
 44 48  1  0  0  0  0
 45 57  1  0  0  0  0
 46 72  1  0  0  0  0
 47 49  1  0  0  0  0
 48 51  1  0  0  0  0
 49 53  1  0  0  0  0
 50 52  1  0  0  0  0
 50 54  1  0  0  0  0
 51 56  1  0  0  0  0
 52 58  1  0  0  0  0
 53 71  1  0  0  0  0
 54 73  1  0  0  0  0
 55 58  1  0  0  0  0
 55 73  1  0  0  0  0
 56 77  1  0  0  0  0
 57 72  1  0  0  0  0
 58 70  1  0  0  0  0
 60 67  1  0  0  0  0
 61 68  1  0  0  0  0
 62 68  1  0  0  0  0
 63 68  1  0  0  0  0
 64 79  1  0  0  0  0
 65 71  1  0  0  0  0
 66 68  1  0  0  0  0
 66 78  1  0  0  0  0
 67 79  1  0  0  0  0
 69 70  1  0  0  0  0
M  CHG  1  79   1
M  ISO  4   2 101  43 100  76 100  86 101
M  END
> <Batch ID>
0116

> <Smiles>
CNC(C)C(=O)NC(C(=O)N1Cc2cc([101O:1][101C:1]#CC(C)=Cc3cc(CN4CCCC4=O)cc([100NH:0][100C:0](=O)N4CCCC(n5nc(-c6ccc(Oc7ccc(F)cc7F)cc6)c(C(N)=O)c5N)C4)c3)ccc2CC1C(=O)NC1CCCc2ccccc21)C(C)(C)C

> <Shape>
0.242

> <Color>
0.068

> <Negative vol penalty>
0.000

$$$$

  -OEChem-04052301433D

 82 90  0     1  0  0  0  0  0999 V2000
  -27.9699  -12.3316   18.0379 C   0  0  0  0  0  0  0  0  0  0  0  0
  -27.3665  -13.5405   17.7065 C   0  0  0  0  0  0  0  0  0  0  0  0
  -28.5079  -21.7678   21.2348 C   0  0  0  0  0  0  0  0  0  0  0  0
  -28.2412  -21.6515   18.8364 C   0  0  0  0  0  0  0  0  0  0  0  0
  -27.4409  -11.5476   19.0623 C   0  0  0  0  0  0  0  0  0  0  0  0
  -26.2330  -13.9656   18.3986 C   0  0  0  0  0  0  0  0  0  0  0  0
  -22.9946  -19.9356   20.6763 C   0  0  0  0  0  0  0  0  0  0  0  0
  -28.7656  -20.3975   21.2726 C   0  0  0  0  0  0  0  0  0  0  0  0
  -28.4989  -20.2812   18.8742 C   0  0  0  0  0  0  0  0  0  0  0  0
  -21.7555  -20.5731   20.6311 C   0  0  0  0  0  0  0  0  0  0  0  0
  -31.3659  -18.3333   20.6322 C   0  0  0  0  0  0  0  0  0  0  0  0
  -32.4363  -17.8963   21.4126 C   0  0  0  0  0  0  0  0  0  0  0  0
  -20.9765  -19.1740   22.4352 C   0  0  0  0  0  0  0  0  0  0  0  0
  -20.0206  -25.9754   22.4973 C   0  0  0  0  0  0  0  0  0  0  0  0
  -30.9233  -16.5582   22.7384 C   0  0  0  0  0  0  0  0  0  0  0  0
  -28.2456  -22.3948   20.0167 C   0  0  0  0  0  0  0  0  0  0  0  0
  -28.9171  -24.8482   19.8222 C   0  0  0  0  0  0  0  0  0  0  0  0
  -26.3061  -11.9678   19.7738 C   0  0  0  0  0  0  0  0  0  0  0  0
  -23.2307  -18.9033   21.5956 C   0  0  0  0  0  0  0  0  0  0  0  0
  -25.6876  -13.1858   19.4326 C   0  0  0  0  0  0  0  0  0  0  0  0
  -22.2203  -18.5267   22.4918 C   0  0  0  0  0  0  0  0  0  0  0  0
  -28.7611  -19.6542   20.0923 C   0  0  0  0  0  0  0  0  0  0  0  0
  -20.7453  -20.1904   21.5086 C   0  0  0  0  0  0  0  0  0  0  0  0
  -30.0742  -17.8829   20.9050 C   0  0  0  0  0  0  0  0  0  0  0  0
  -18.6104  -25.7835   22.5643 C   0  0  0  0  0  0  0  0  0  0  0  0
  -32.2150  -17.0087   22.4656 C   0  0  0  0  0  0  0  0  0  0  0  0
  -29.8529  -16.9953   21.9580 C   0  0  0  0  0  0  0  0  0  0  0  0
  -27.9788  -23.8102   19.9771 C   0  0  0  0  0  0  0  0  0  0  0  0
  -20.3601  -27.3099   22.4606 C   0  0  0  0  0  0  0  0  0  0  0  0
  -17.9256  -26.9789   22.5765 C   0  0  0  0  0  0  0  0  0  0  0  0
  -28.1655  -25.9974   19.8492 C   0  0  0  0  0  0  0  0  0  0  0  0
  -30.3409  -24.7796   19.6677 C   0  0  0  0  0  0  0  0  0  0  0  0
  -21.6564  -27.9020   22.3910 C   0  0  0  0  0  0  0  0  0  0  0  0
  -22.8911  -27.0932   22.3462 C   0  0  0  0  0  0  0  0  0  0  0  0
  -23.9581  -15.8176   21.3653 C   0  0  0  0  0  0  0  0  0  0  0  0
  -24.2335  -16.0419   24.5897 C   0  0  0  0  0  0  0  0  0  0  0  0
  -23.3785  -17.6708   27.4641 C   0  0  0  0  0  0  0  0  0  0  0  0
  -25.7428  -11.0638   20.8416 C   0  0  0  0  0  0  0  0  0  0  0  0
  -24.5815  -18.2438   21.6496 C   0  0  0  0  0  0  0  0  0  0  0  0
  -22.4298  -17.4380   23.5112 C   0  0  0  0  0  0  0  0  0  0  0  0
  -24.7602  -11.7643   21.7765 C   0  0  0  0  0  0  0  0  0  0  0  0
  -23.8086  -27.6588   18.8433 C   0  0  0  0  0  0  0  0  0  0  0  0
  -23.7610  -12.5939   20.9765 C   0  0  0  0  0  0  0  0  0  0  0  0
  -25.0520  -26.7820   18.7202 C   0  0  0  0  0  0  0  0  0  0  0  0
  -22.7769  -27.0572   19.7963 C   0  0  0  0  0  0  0  0  0  0  0  0
  -24.5694  -25.8653   21.0239 C   0  0  0  0  0  0  0  0  0  0  0  0
  -24.4714  -13.6928   20.1769 C   0  0  1  0  0  0  0  0  0  0  0  0
  -24.5437  -16.8554   22.2806 C   0  0  1  0  0  0  0  0  0  0  0  0
  -25.6408  -26.4747   20.1062 C   0  0  1  0  0  0  0  0  0  0  0  0
  -16.4653  -27.2115   22.6403 C   0  0  0  0  0  0  0  0  0  0  0  0
  -23.7291  -17.5990   29.9479 C   0  0  0  0  0  0  0  0  0  0  0  0
  -22.2941  -13.6952   24.7931 C   0  0  0  0  0  0  0  0  0  0  0  0
  -21.9495  -14.2791   27.2032 C   0  0  0  0  0  0  0  0  0  0  0  0
  -24.2117  -13.6057   26.3959 C   0  0  0  0  0  0  0  0  0  0  0  0
  -24.6308  -20.3523   27.4816 C   0  0  0  0  0  0  0  0  0  0  0  0
  -17.9608  -22.1599   22.7006 C   0  0  0  0  0  0  0  0  0  0  0  0
  -18.8050  -20.8952   22.6895 C   0  0  0  0  0  0  0  0  0  1  0  0
  -18.8138  -23.4142   22.5934 C   0  0  0  0  0  0  0  0  0  0  0  0
  -23.2919  -15.8724   25.7574 C   0  0  1  0  0  0  0  0  0  0  0  0
  -24.2175  -18.1710   28.6261 C   0  0  2  0  0  0  0  0  0  0  0  0
  -22.9319  -14.3823   26.0170 C   0  0  0  0  0  0  0  0  0  0  0  0
  -26.7267  -24.2603   20.0940 N   0  0  0  0  0  0  0  0  0  0  0  0
  -21.8792  -29.2037   22.3582 N   0  0  0  0  0  0  0  0  0  0  0  0
  -26.8730  -25.5937   20.0126 N   0  0  0  0  0  0  0  0  0  0  0  0
  -23.3774  -26.7178   21.0952 N   0  0  0  0  0  0  0  0  0  0  0  0
  -23.7656  -16.8190   23.5206 N   0  0  0  0  0  0  0  0  0  0  0  0
  -28.4906  -27.3038   19.7490 N   0  0  0  0  0  0  0  0  0  0  0  0
  -30.9523  -23.5185   19.6616 N   0  0  0  0  0  0  0  0  0  0  0  0
  -24.8304  -14.7957   21.0423 N   0  0  0  0  0  0  0  0  0  0  0  0
  -23.9224  -16.5410   26.8905 N   0  0  0  0  0  0  0  0  0  0  0  0
  -24.1569  -19.6579   28.7065 N   0  3  0  0  0  0  0  0  0  0  0  0
  -31.0517  -25.8071   19.5553 O   0  0  0  0  0  0  0  0  0  0  0  0
  -23.4147  -26.7948   23.4212 O   0  0  0  0  0  0  0  0  0  0  0  0
  -22.8001  -15.9345   20.9818 O   0  0  0  0  0  0  0  0  0  0  0  0
  -25.3460  -15.5104   24.6278 O   0  0  0  0  0  0  0  0  0  0  0  0
  -22.3421  -18.2246   27.1038 O   0  0  0  0  0  0  0  0  0  0  0  0
  -29.0128  -18.3171   20.1288 O   0  0  0  0  0  0  0  0  0  0  0  0
  -19.5347  -20.8105   21.4661 O   0  0  0  0  0  0  0  0  0  1  0  0
  -17.9820  -24.5663   22.6124 O   0  0  0  0  0  0  0  0  0  0  0  0
  -33.2431  -16.5879   23.2140 F   0  0  0  0  0  0  0  0  0  0  0  0
  -28.6144  -16.5581   22.2241 F   0  0  0  0  0  0  0  0  0  0  0  0
  -18.9818  -28.3250   22.5070 S   0  0  0  0  0  0  0  0  0  0  0  0
  1  2  1  0  0  0  0
  1  5  2  0  0  0  0
  2  6  2  0  0  0  0
  3  8  2  0  0  0  0
  3 16  1  0  0  0  0
  4  9  1  0  0  0  0
  4 16  2  0  0  0  0
  5 18  1  0  0  0  0
  6 20  1  0  0  0  0
  7 10  2  0  0  0  0
  7 19  1  0  0  0  0
  8 22  1  0  0  0  0
  9 22  2  0  0  0  0
 10 23  1  0  0  0  0
 11 12  2  0  0  0  0
 11 24  1  0  0  0  0
 12 26  1  0  0  0  0
 13 21  1  0  0  0  0
 13 23  2  0  0  0  0
 14 25  1  0  0  0  0
 14 29  2  0  0  0  0
 15 26  2  0  0  0  0
 15 27  1  0  0  0  0
 16 28  1  0  0  0  0
 17 28  1  0  0  0  0
 17 31  2  0  0  0  0
 17 32  1  0  0  0  0
 18 20  2  0  0  0  0
 18 38  1  0  0  0  0
 19 21  2  0  0  0  0
 19 39  1  0  0  0  0
 20 47  1  0  0  0  0
 21 40  1  0  0  0  0
 22 77  1  0  0  0  0
 23 78  1  0  0  0  0
 24 27  2  0  0  0  0
 24 77  1  0  0  0  0
 25 30  2  0  0  0  0
 25 79  1  0  0  0  0
 26 80  1  0  0  0  0
 27 81  1  0  0  0  0
 28 62  2  0  0  0  0
 29 33  1  0  0  0  0
 29 82  1  0  0  0  0
 30 50  1  0  0  0  0
 30 82  1  0  0  0  0
 31 64  1  0  0  0  0
 31 67  1  0  0  0  0
 32 68  1  0  0  0  0
 32 72  2  0  0  0  0
 33 34  1  0  0  0  0
 33 63  2  0  0  0  0
 34 65  1  0  0  0  0
 34 73  2  0  0  0  0
 35 48  1  0  0  0  0
 35 69  1  0  0  0  0
 35 74  2  0  0  0  0
 36 59  1  0  0  0  0
 36 66  1  0  0  0  0
 36 75  2  0  0  0  0
 37 60  1  0  0  0  0
 37 70  1  0  0  0  0
 37 76  2  0  0  0  0
 38 41  1  0  0  0  0
 39 48  1  0  0  0  0
 40 66  1  0  0  0  0
 41 43  1  0  0  0  0
 42 44  1  0  0  0  0
 42 45  1  0  0  0  0
 43 47  1  0  0  0  0
 44 49  1  0  0  0  0
 45 65  1  0  0  0  0
 46 49  1  0  0  0  0
 46 65  1  0  0  0  0
 47 69  1  0  0  0  0
 48 66  1  0  0  0  0
 49 64  1  0  0  0  0
 51 60  1  0  0  0  0
 52 61  1  0  0  0  0
 53 61  1  0  0  0  0
 54 61  1  0  0  0  0
 55 71  1  0  0  0  0
 56 57  1  0  0  0  0
 56 58  1  0  0  0  0
 57 78  1  0  0  0  0
 58 79  1  0  0  0  0
 59 61  1  0  0  0  0
 59 70  1  0  0  0  0
 60 71  1  0  0  0  0
 62 64  1  0  0  0  0
M  CHG  1  71   1
M  ISO  4  33 100  34 100  57 101  78 101
M  END
> <Batch ID>
0116

> <Smiles>
CNC(C)C(=O)NC(C(=O)N1Cc2cc([101O:1][101CH2:1]CCOc3cc([100C:0](=N)[100C:0](=O)N4CCCC(n5nc(-c6ccc(Oc7ccc(F)cc7F)cc6)c(C(N)=O)c5N)C4)sc3C)ccc2CC1C(=O)NC1CCCc2ccccc21)C(C)(C)C

> <Shape>
0.219

> <Color>
0.084

> <Negative vol penalty>
0.000

$$$$

  -OEChem-04052301433D

 86 94  0     1  0  0  0  0  0999 V2000
  -25.3958  -24.3751   27.0034 C   0  0  0  0  0  0  0  0  0  0  0  0
  -25.9816  -23.8015   25.8795 C   0  0  0  0  0  0  0  0  0  0  0  0
  -23.0950   -9.8478   19.9458 C   0  0  0  0  0  0  0  0  0  0  0  0
  -23.9119   -9.8464   22.2195 C   0  0  0  0  0  0  0  0  0  0  0  0
  -24.2632  -25.1764   26.8655 C   0  0  0  0  0  0  0  0  0  0  0  0
  -25.4345  -24.0281   24.6170 C   0  0  0  0  0  0  0  0  0  0  0  0
  -28.9546  -25.1026   21.1386 C   0  0  0  0  0  0  0  0  0  0  0  0
  -22.3867   -8.6734   20.1995 C   0  0  0  0  0  0  0  0  0  0  0  0
  -23.2035   -8.6719   22.4733 C   0  0  0  0  0  0  0  0  0  0  0  0
  -29.6861  -24.0342   20.6218 C   0  0  0  0  0  0  0  0  0  0  0  0
  -20.0124   -7.7857   23.1456 C   0  0  0  0  0  0  0  0  0  0  0  0
  -19.2864   -7.7126   24.3344 C   0  0  0  0  0  0  0  0  0  0  0  0
  -27.5014  -18.4918   21.4743 C   0  0  0  0  0  0  0  0  0  0  0  0
  -29.6179  -17.4761   19.9672 C   0  0  0  0  0  0  0  0  0  0  0  0
  -28.2806  -24.0280   18.6613 C   0  0  0  0  0  0  0  0  0  0  0  0
  -20.5939   -5.7984   25.0152 C   0  0  0  0  0  0  0  0  0  0  0  0
  -23.8577  -10.4344   20.9558 C   0  0  0  0  0  0  0  0  0  0  0  0
  -28.2243  -17.3931   21.9390 C   0  0  0  0  0  0  0  0  0  0  0  0
  -29.2826  -16.8853   21.1855 C   0  0  0  0  0  0  0  0  0  0  0  0
  -24.1333  -12.9686   20.8593 C   0  0  0  0  0  0  0  0  0  0  0  0
  -23.7076  -25.4208   25.5997 C   0  0  0  0  0  0  0  0  0  0  0  0
  -27.8719  -25.6356   20.4243 C   0  0  0  0  0  0  0  0  0  0  0  0
  -24.2926  -24.8324   24.4622 C   0  0  0  0  0  0  0  0  0  0  0  0
  -27.5386  -25.1048   19.1700 C   0  0  0  0  0  0  0  0  0  0  0  0
  -22.4409   -8.0854   21.4633 C   0  0  0  0  0  0  0  0  0  0  0  0
  -29.3473  -23.4948   19.3843 C   0  0  0  0  0  0  0  0  0  0  0  0
  -21.0292   -6.8651   22.8916 C   0  0  0  0  0  0  0  0  0  0  0  0
  -27.8367  -19.0826   20.2560 C   0  0  0  0  0  0  0  0  0  0  0  0
  -28.8949  -18.5748   19.5024 C   0  0  0  0  0  0  0  0  0  0  0  0
  -19.5771   -6.7190   25.2692 C   0  0  0  0  0  0  0  0  0  0  0  0
  -21.3199   -5.8715   23.8264 C   0  0  0  0  0  0  0  0  0  0  0  0
  -24.5901  -11.6473   20.6941 C   0  0  0  0  0  0  0  0  0  0  0  0
  -25.1969  -13.7498   20.4785 C   0  0  0  0  0  0  0  0  0  0  0  0
  -27.8252  -17.4729   24.3576 C   0  0  0  0  0  0  0  0  0  0  0  0
  -27.8464  -16.8015   23.2163 C   0  0  0  0  0  0  0  0  0  0  0  0
  -30.0617  -15.7375   21.6354 C   0  0  0  0  0  0  0  0  0  0  0  0
  -22.8613  -13.4471   21.3161 C   0  0  0  0  0  0  0  0  0  0  0  0
  -30.6868  -14.8066   20.6678 C   0  0  0  0  0  0  0  0  0  0  0  0
  -24.7511  -25.9151   20.9593 C   0  0  0  0  0  0  0  0  0  0  0  0
  -24.8268  -27.6224   18.2022 C   0  0  0  0  0  0  0  0  0  0  0  0
  -26.4019  -28.2875   15.2486 C   0  0  0  0  0  0  0  0  0  0  0  0
  -22.4548  -26.2553   25.5056 C   0  0  0  0  0  0  0  0  0  0  0  0
  -27.1096  -26.8056   20.9833 C   0  0  0  0  0  0  0  0  0  0  0  0
  -26.3978  -25.6541   18.3542 C   0  0  0  0  0  0  0  0  0  0  0  0
  -22.1578  -26.7509   24.0927 C   0  0  0  0  0  0  0  0  0  0  0  0
  -29.5104  -12.5475   18.1441 C   0  0  0  0  0  0  0  0  0  0  0  0
  -22.3079  -25.6148   23.0859 C   0  0  0  0  0  0  0  0  0  0  0  0
  -28.1020  -12.1908   18.6182 C   0  0  0  0  0  0  0  0  0  0  0  0
  -30.4590  -12.7573   19.3199 C   0  0  0  0  0  0  0  0  0  0  0  0
  -28.5710  -13.4239   20.7827 C   0  0  0  0  0  0  0  0  0  0  0  0
  -23.7431  -25.0749   23.0733 C   0  0  1  0  0  0  0  0  0  0  0  0
  -25.7044  -26.9351   20.4038 C   0  0  1  0  0  0  0  0  0  0  0  0
  -27.5777  -13.2316   19.6235 C   0  0  2  0  0  0  0  0  0  0  0  0
  -26.2059  -29.7049   13.1871 C   0  0  0  0  0  0  0  0  0  0  0  0
  -22.6287  -25.7856   17.1511 C   0  0  0  0  0  0  0  0  0  0  0  0
  -23.1420  -26.6076   14.8427 C   0  0  0  0  0  0  0  0  0  0  0  0
  -22.3302  -28.2022   16.5807 C   0  0  0  0  0  0  0  0  0  0  0  0
  -28.9772  -29.6403   15.7932 C   0  0  0  0  0  0  0  0  0  0  0  0
  -26.0569  -20.6121   20.6418 C   0  0  0  0  0  0  0  0  0  0  0  0
  -30.5732  -20.8079   17.1878 C   0  0  0  0  0  0  0  0  0  0  0  0
  -29.6574  -21.9481   17.6046 C   0  0  0  0  0  0  0  0  0  1  0  0
  -30.5522  -19.6655   18.1912 C   0  0  0  0  0  0  0  0  0  0  0  0
  -24.6839  -27.2922   16.7360 C   0  0  1  0  0  0  0  0  0  0  0  0
  -26.7905  -29.5973   14.5869 C   0  0  2  0  0  0  0  0  0  0  0  0
  -23.2165  -26.9600   16.3436 C   0  0  0  0  0  0  0  0  0  0  0  0
  -25.8460  -11.5885   20.2434 N   0  0  0  0  0  0  0  0  0  0  0  0
  -30.2590  -15.4591   22.8934 N   0  0  0  0  0  0  0  0  0  0  0  0
  -26.1875  -12.8826   20.1220 N   0  0  0  0  0  0  0  0  0  0  0  0
  -29.9148  -13.7232   20.2722 N   0  0  0  0  0  0  0  0  0  0  0  0
  -25.6788  -26.7942   18.9465 N   0  0  0  0  0  0  0  0  0  0  0  0
  -25.3721  -15.0869   20.4171 N   0  0  0  0  0  0  0  0  0  0  0  0
  -21.8811  -12.5087   21.6669 N   0  0  0  0  0  0  0  0  0  0  0  0
  -24.6115  -25.9652   22.3332 N   0  0  0  0  0  0  0  0  0  0  0  0
  -25.2573  -28.4179   16.0064 N   0  0  0  0  0  0  0  0  0  0  0  0
  -28.2733  -29.7070   14.4867 N   0  3  0  0  0  0  0  0  0  0  0  0
  -22.5959  -14.6706   21.3948 O   0  0  0  0  0  0  0  0  0  0  0  0
  -31.8243  -15.0940   20.3190 O   0  0  0  0  0  0  0  0  0  0  0  0
  -24.1832  -25.1411   20.1978 O   0  0  0  0  0  0  0  0  0  0  0  0
  -24.2108  -28.5841   18.6683 O   0  0  0  0  0  0  0  0  0  0  0  0
  -27.0469  -27.2513   15.1045 O   0  0  0  0  0  0  0  0  0  0  0  0
  -21.7496   -6.9395   21.7113 O   0  0  0  0  0  0  0  0  0  0  0  0
  -27.1229  -20.1549   19.8120 O   0  0  0  0  0  0  0  0  0  0  0  0
  -30.0593  -22.4514   18.8779 O   0  0  0  0  0  0  0  0  0  1  0  0
  -29.2340  -19.1466   18.3038 O   0  0  0  0  0  0  0  0  0  0  0  0
  -18.8809   -6.6498   26.4114 F   0  0  0  0  0  0  0  0  0  0  0  0
  -22.2963   -4.9850   23.5885 F   0  0  0  0  0  0  0  0  0  0  0  0
  1  2  1  0  0  0  0
  1  5  2  0  0  0  0
  2  6  2  0  0  0  0
  3  8  2  0  0  0  0
  3 17  1  0  0  0  0
  4  9  1  0  0  0  0
  4 17  2  0  0  0  0
  5 21  1  0  0  0  0
  6 23  1  0  0  0  0
  7 10  2  0  0  0  0
  7 22  1  0  0  0  0
  8 25  1  0  0  0  0
  9 25  2  0  0  0  0
 10 26  1  0  0  0  0
 11 12  2  0  0  0  0
 11 27  1  0  0  0  0
 12 30  1  0  0  0  0
 13 18  1  0  0  0  0
 13 28  2  0  0  0  0
 14 19  1  0  0  0  0
 14 29  2  0  0  0  0
 15 24  1  0  0  0  0
 15 26  2  0  0  0  0
 16 30  2  0  0  0  0
 16 31  1  0  0  0  0
 17 32  1  0  0  0  0
 18 19  2  0  0  0  0
 18 35  1  0  0  0  0
 19 36  1  0  0  0  0
 20 32  1  0  0  0  0
 20 33  2  0  0  0  0
 20 37  1  0  0  0  0
 21 23  2  0  0  0  0
 21 42  1  0  0  0  0
 22 24  2  0  0  0  0
 22 43  1  0  0  0  0
 23 51  1  0  0  0  0
 24 44  1  0  0  0  0
 25 81  1  0  0  0  0
 26 83  1  0  0  0  0
 27 31  2  0  0  0  0
 27 81  1  0  0  0  0
 28 29  1  0  0  0  0
 28 82  1  0  0  0  0
 29 84  1  0  0  0  0
 30 85  1  0  0  0  0
 31 86  1  0  0  0  0
 32 66  2  0  0  0  0
 33 68  1  0  0  0  0
 33 71  1  0  0  0  0
 34 35  2  0  0  0  0
 36 38  1  0  0  0  0
 36 67  2  0  0  0  0
 37 72  1  0  0  0  0
 37 76  2  0  0  0  0
 38 69  1  0  0  0  0
 38 77  2  0  0  0  0
 39 52  1  0  0  0  0
 39 73  1  0  0  0  0
 39 78  2  0  0  0  0
 40 63  1  0  0  0  0
 40 70  1  0  0  0  0
 40 79  2  0  0  0  0
 41 64  1  0  0  0  0
 41 74  1  0  0  0  0
 41 80  2  0  0  0  0
 42 45  1  0  0  0  0
 43 52  1  0  0  0  0
 44 70  1  0  0  0  0
 45 47  1  0  0  0  0
 46 48  1  0  0  0  0
 46 49  1  0  0  0  0
 47 51  1  0  0  0  0
 48 53  1  0  0  0  0
 49 69  1  0  0  0  0
 50 53  1  0  0  0  0
 50 69  1  0  0  0  0
 51 73  1  0  0  0  0
 52 70  1  0  0  0  0
 53 68  1  0  0  0  0
 54 64  1  0  0  0  0
 55 65  1  0  0  0  0
 56 65  1  0  0  0  0
 57 65  1  0  0  0  0
 58 75  1  0  0  0  0
 59 82  1  0  0  0  0
 60 61  1  0  0  0  0
 60 62  1  0  0  0  0
 61 83  1  0  0  0  0
 62 84  1  0  0  0  0
 63 65  1  0  0  0  0
 63 74  1  0  0  0  0
 64 75  1  0  0  0  0
 66 68  1  0  0  0  0
M  CHG  1  75   1
M  ISO  4  36 100  38 100  61 101  83 101
M  END
> <Batch ID>
0116

> <Smiles>
C=Cc1cc(OC)c(OCC[101CH2:1][101O:1]c2ccc3c(c2)CN(C(=O)C(NC(=O)C(C)NC)C(C)(C)C)C(C(=O)NC2CCCc4ccccc42)C3)cc1[100C:0](=N)[100C:0](=O)N1CCCC(n2nc(-c3ccc(Oc4ccc(F)cc4F)cc3)c(C(N)=O)c2N)C1

> <Shape>
0.269

> <Color>
0.185

> <Negative vol penalty>
0.000

$$$$

  -OEChem-04052301433D

 82 90  0     1  0  0  0  0  0999 V2000
  -25.8490  -35.8597   16.0048 C   0  0  0  0  0  0  0  0  0  0  0  0
  -26.1029  -34.4931   16.0638 C   0  0  0  0  0  0  0  0  0  0  0  0
  -23.2442  -11.4721   22.7443 C   0  0  0  0  0  0  0  0  0  0  0  0
  -22.5716  -11.0836   20.4566 C   0  0  0  0  0  0  0  0  0  0  0  0
  -25.8813  -36.6244   17.1702 C   0  0  0  0  0  0  0  0  0  0  0  0
  -26.3904  -33.8907   17.2881 C   0  0  0  0  0  0  0  0  0  0  0  0
  -24.8191  -28.2471   19.0731 C   0  0  0  0  0  0  0  0  0  0  0  0
  -22.2049  -10.6548   23.1887 C   0  0  0  0  0  0  0  0  0  0  0  0
  -21.5323  -10.2663   20.9009 C   0  0  0  0  0  0  0  0  0  0  0  0
  -25.5198  -27.0420   19.0981 C   0  0  0  0  0  0  0  0  0  0  0  0
  -18.9227   -7.7880   21.4167 C   0  0  0  0  0  0  0  0  0  0  0  0
  -18.7242   -6.5744   20.7583 C   0  0  0  0  0  0  0  0  0  0  0  0
  -28.2367  -23.0187   20.3533 C   0  0  0  0  0  0  0  0  0  0  0  0
  -26.0790  -27.4222   21.4137 C   0  0  0  0  0  0  0  0  0  0  0  0
  -20.9598   -5.8828   21.3594 C   0  0  0  0  0  0  0  0  0  0  0  0
  -23.4275  -11.6866   21.3783 C   0  0  0  0  0  0  0  0  0  0  0  0
  -28.8664  -24.2469   19.9994 C   0  0  0  0  0  0  0  0  0  0  0  0
  -25.8141  -12.1387   20.5989 C   0  0  0  0  0  0  0  0  0  0  0  0
  -26.1598  -36.0294   18.4107 C   0  0  0  0  0  0  0  0  0  0  0  0
  -24.7521  -29.0553   20.2170 C   0  0  0  0  0  0  0  0  0  0  0  0
  -26.4278  -34.6485   18.4709 C   0  0  0  0  0  0  0  0  0  0  0  0
  -25.3747  -28.6358   21.4013 C   0  0  0  0  0  0  0  0  0  0  0  0
  -21.3490  -10.0518   22.2670 C   0  0  0  0  0  0  0  0  0  0  0  0
  -26.1523  -26.6308   20.2676 C   0  0  0  0  0  0  0  0  0  0  0  0
  -20.1397   -8.0490   22.0463 C   0  0  0  0  0  0  0  0  0  0  0  0
  -19.7427   -5.6218   20.7297 C   0  0  0  0  0  0  0  0  0  0  0  0
  -21.1582   -7.0964   22.0177 C   0  0  0  0  0  0  0  0  0  0  0  0
  -24.5006  -12.5312   20.9187 C   0  0  0  0  0  0  0  0  0  0  0  0
  -29.1141  -21.9575   20.3151 C   0  0  0  0  0  0  0  0  0  0  0  0
  -30.2014  -24.0776   19.7044 C   0  0  0  0  0  0  0  0  0  0  0  0
  -26.4369  -13.3019   20.2174 C   0  0  0  0  0  0  0  0  0  0  0  0
  -28.8630  -20.5976   20.5979 C   0  0  0  0  0  0  0  0  0  0  0  0
  -27.6596  -20.0371   20.9576 C   0  0  0  0  0  0  0  0  0  0  0  0
  -31.8010  -25.6059   20.2804 C   0  0  0  0  0  0  0  0  0  0  0  0
  -26.4174  -10.8387   20.6428 C   0  0  0  0  0  0  0  0  0  0  0  0
  -28.1862  -25.5665   19.9475 C   0  0  0  0  0  0  0  0  0  1  0  0
  -27.5550  -18.5863   21.2127 C   0  0  0  0  0  0  0  0  0  0  0  0
  -25.7087  -31.9983   20.9433 C   0  0  0  0  0  0  0  0  0  0  0  0
  -24.1153  -31.4147   23.7079 C   0  0  0  0  0  0  0  0  0  0  0  0
  -22.8983  -29.1199   25.9214 C   0  0  0  0  0  0  0  0  0  0  0  0
  -26.2302  -36.9053   19.6365 C   0  0  0  0  0  0  0  0  0  0  0  0
  -23.9698  -30.3395   20.1814 C   0  0  0  0  0  0  0  0  0  0  0  0
  -25.3157  -29.4573   22.6623 C   0  0  0  0  0  0  0  0  0  0  0  0
  -26.1737  -36.1245   20.9471 C   0  0  0  0  0  0  0  0  0  0  0  0
  -24.5675  -17.8763   19.2121 C   0  0  0  0  0  0  0  0  0  0  0  0
  -27.1198  -34.9290   20.8975 C   0  0  0  0  0  0  0  0  0  0  0  0
  -24.3698  -16.3898   19.4969 C   0  0  0  0  0  0  0  0  0  0  0  0
  -25.1278  -18.6208   20.4230 C   0  0  0  0  0  0  0  0  0  0  0  0
  -26.1869  -16.5369   21.2453 C   0  0  0  0  0  0  0  0  0  0  0  0
  -26.7190  -33.9542   19.7837 C   0  0  1  0  0  0  0  0  0  0  0  0
  -24.3997  -31.3312   21.2580 C   0  0  1  0  0  0  0  0  0  0  0  0
  -25.6681  -15.7595   20.0255 C   0  0  1  0  0  0  0  0  0  0  0  0
  -32.8383  -26.6448   19.9919 C   0  0  0  0  0  0  0  0  0  0  0  0
  -21.6755  -28.9459   28.1058 C   0  0  0  0  0  0  0  0  0  0  0  0
  -26.6664  -32.1839   25.1944 C   0  0  0  0  0  0  0  0  0  0  0  0
  -25.7165  -31.1013   27.2423 C   0  0  0  0  0  0  0  0  0  0  0  0
  -24.5588  -33.0589   26.2175 C   0  0  0  0  0  0  0  0  0  0  0  0
  -20.6475  -27.6550   24.6776 C   0  0  0  0  0  0  0  0  0  0  0  0
  -24.4795  -30.8195   25.0466 C   0  0  1  0  0  0  0  0  0  0  0  0
  -21.5426  -28.9872   26.5914 C   0  0  2  0  0  0  0  0  0  0  0  0
  -25.3583  -31.7761   25.9010 C   0  0  0  0  0  0  0  0  0  0  0  0
  -24.2996  -13.8415   20.7547 N   0  0  0  0  0  0  0  0  0  0  0  0
  -31.1176  -25.0049   19.3313 N   0  0  0  0  0  0  0  0  0  0  0  0
  -25.4953  -14.2824   20.3279 N   0  0  0  0  0  0  0  0  0  0  0  0
  -26.3360  -17.9655   20.9460 N   0  0  0  0  0  0  0  0  0  0  0  0
  -24.5439  -30.7080   22.5753 N   0  0  0  0  0  0  0  0  0  0  0  0
  -27.6926  -13.5715   19.8017 N   0  0  0  0  0  0  0  0  0  0  0  0
  -25.6349   -9.7527   21.0580 N   0  0  0  0  0  0  0  0  0  0  0  0
  -25.5857  -33.1541   20.1959 N   0  0  0  0  0  0  0  0  0  0  0  0
  -23.2216  -30.4383   25.6796 N   0  0  0  0  0  0  0  0  0  0  0  0
  -20.8642  -27.7376   26.1450 N   0  3  0  0  0  0  0  0  0  0  0  0
  -27.6195  -10.6486   20.3389 O   0  0  0  0  0  0  0  0  0  0  0  0
  -28.7574  -26.6018   19.6394 O   0  0  0  0  0  0  0  0  0  0  0  0
  -28.5536  -18.0127   21.6515 O   0  0  0  0  0  0  0  0  0  0  0  0
  -26.7528  -31.5022   21.3498 O   0  0  0  0  0  0  0  0  0  0  0  0
  -23.4680  -32.4640   23.6685 O   0  0  0  0  0  0  0  0  0  0  0  0
  -23.6018  -28.1511   25.6438 O   0  0  0  0  0  0  0  0  0  0  0  0
  -20.3349   -9.2540   22.7002 O   0  0  0  0  0  0  0  0  0  0  0  0
  -26.8375  -25.4553   20.2945 O   0  0  0  0  0  0  0  0  0  1  0  0
  -19.5515   -4.4558   20.0988 F   0  0  0  0  0  0  0  0  0  0  0  0
  -22.3291   -7.3411   22.6218 F   0  0  0  0  0  0  0  0  0  0  0  0
  -30.6902  -22.4433   19.8541 S   0  0  0  0  0  0  0  0  0  0  0  0
  1  2  1  0  0  0  0
  1  5  2  0  0  0  0
  2  6  2  0  0  0  0
  3  8  2  0  0  0  0
  3 16  1  0  0  0  0
  4  9  1  0  0  0  0
  4 16  2  0  0  0  0
  5 19  1  0  0  0  0
  6 21  1  0  0  0  0
  7 10  2  0  0  0  0
  7 20  1  0  0  0  0
  8 23  1  0  0  0  0
  9 23  2  0  0  0  0
 10 24  1  0  0  0  0
 11 12  2  0  0  0  0
 11 25  1  0  0  0  0
 12 26  1  0  0  0  0
 13 17  1  0  0  0  0
 13 29  2  0  0  0  0
 14 22  1  0  0  0  0
 14 24  2  0  0  0  0
 15 26  2  0  0  0  0
 15 27  1  0  0  0  0
 16 28  1  0  0  0  0
 17 30  2  0  0  0  0
 17 36  1  0  0  0  0
 18 28  1  0  0  0  0
 18 31  2  0  0  0  0
 18 35  1  0  0  0  0
 19 21  2  0  0  0  0
 19 41  1  0  0  0  0
 20 22  2  0  0  0  0
 20 42  1  0  0  0  0
 21 50  1  0  0  0  0
 22 43  1  0  0  0  0
 23 78  1  0  0  0  0
 24 79  1  0  0  0  0
 25 27  2  0  0  0  0
 25 78  1  0  0  0  0
 26 80  1  0  0  0  0
 27 81  1  0  0  0  0
 28 62  2  0  0  0  0
 29 32  1  0  0  0  0
 29 82  1  0  0  0  0
 30 63  1  0  0  0  0
 30 82  1  0  0  0  0
 31 64  1  0  0  0  0
 31 67  1  0  0  0  0
 32 33  2  0  0  0  0
 33 37  1  0  0  0  0
 34 53  1  0  0  0  0
 34 63  2  0  0  0  0
 35 68  1  0  0  0  0
 35 72  2  0  0  0  0
 36 73  2  0  0  0  0
 36 79  1  0  0  0  0
 37 65  1  0  0  0  0
 37 74  2  0  0  0  0
 38 51  1  0  0  0  0
 38 69  1  0  0  0  0
 38 75  2  0  0  0  0
 39 59  1  0  0  0  0
 39 66  1  0  0  0  0
 39 76  2  0  0  0  0
 40 60  1  0  0  0  0
 40 70  1  0  0  0  0
 40 77  2  0  0  0  0
 41 44  1  0  0  0  0
 42 51  1  0  0  0  0
 43 66  1  0  0  0  0
 44 46  1  0  0  0  0
 45 47  1  0  0  0  0
 45 48  1  0  0  0  0
 46 50  1  0  0  0  0
 47 52  1  0  0  0  0
 48 65  1  0  0  0  0
 49 52  1  0  0  0  0
 49 65  1  0  0  0  0
 50 69  1  0  0  0  0
 51 66  1  0  0  0  0
 52 64  1  0  0  0  0
 54 60  1  0  0  0  0
 55 61  1  0  0  0  0
 56 61  1  0  0  0  0
 57 61  1  0  0  0  0
 58 71  1  0  0  0  0
 59 61  1  0  0  0  0
 59 70  1  0  0  0  0
 60 71  1  0  0  0  0
 62 64  1  0  0  0  0
M  CHG  1  71   1
M  ISO  4  33 100  36 101  37 100  79 101
M  END
> <Batch ID>
0116

> <Smiles>
C=CNc1sc(C=[100CH:0][100C:0](=O)N2CCCC(n3nc(-c4ccc(Oc5ccc(F)cc5F)cc4)c(C(N)=O)c3N)C2)cc1[101C:1](=O)[101O:1]c1ccc2c(c1)CN(C(=O)C(NC(=O)C(C)NC)C(C)(C)C)C(C(=O)NC1CCCc3ccccc31)C2

> <Shape>
0.258

> <Color>
0.097

> <Negative vol penalty>
0.000

$$$$

  -OEChem-04052301433D

 85 93  0     1  0  0  0  0  0999 V2000
  -29.6556  -12.1562   20.1025 C   0  0  0  0  0  0  0  0  0  0  0  0
  -29.6142  -13.3663   20.7877 C   0  0  0  0  0  0  0  0  0  0  0  0
  -30.1091  -25.0188   20.4791 C   0  0  0  0  0  0  0  0  0  0  0  0
  -29.6137  -25.4068   18.1465 C   0  0  0  0  0  0  0  0  0  0  0  0
  -28.7318  -11.8972   19.0909 C   0  0  0  0  0  0  0  0  0  0  0  0
  -28.6495  -14.3186   20.4608 C   0  0  0  0  0  0  0  0  0  0  0  0
  -24.6352  -19.4494   23.4401 C   0  0  0  0  0  0  0  0  0  0  0  0
  -30.4062  -23.6860   20.1944 C   0  0  0  0  0  0  0  0  0  0  0  0
  -29.9108  -24.0740   17.8617 C   0  0  0  0  0  0  0  0  0  0  0  0
  -24.3158  -20.7969   23.2789 C   0  0  0  0  0  0  0  0  0  0  0  0
  -30.9480  -20.0906   20.1390 C   0  0  0  0  0  0  0  0  0  0  0  0
  -30.4327  -19.1135   20.9905 C   0  0  0  0  0  0  0  0  0  0  0  0
  -21.7580  -28.6343   22.7734 C   0  0  0  0  0  0  0  0  0  0  0  0
  -22.7213  -20.2079   21.5672 C   0  0  0  0  0  0  0  0  0  0  0  0
  -19.5200  -28.3831   23.6482 C   0  0  0  0  0  0  0  0  0  0  0  0
  -28.1891  -19.8432   20.4701 C   0  0  0  0  0  0  0  0  0  0  0  0
  -29.7128  -25.8792   19.4552 C   0  0  0  0  0  0  0  0  0  0  0  0
  -21.9566  -29.7409   23.5989 C   0  0  0  0  0  0  0  0  0  0  0  0
  -30.2957  -28.3462   19.7409 C   0  0  0  0  0  0  0  0  0  0  0  0
  -27.7492  -12.8429   18.7580 C   0  0  0  0  0  0  0  0  0  0  0  0
  -24.0069  -18.4704   22.6571 C   0  0  0  0  0  0  0  0  0  0  0  0
  -27.7125  -14.0725   19.4428 C   0  0  0  0  0  0  0  0  0  0  0  0
  -23.0327  -18.8485   21.7222 C   0  0  0  0  0  0  0  0  0  0  0  0
  -19.7186  -29.4897   24.4738 C   0  0  0  0  0  0  0  0  0  0  0  0
  -20.9369  -30.1687   24.4491 C   0  0  0  0  0  0  0  0  0  0  0  0
  -30.3071  -23.2136   18.8857 C   0  0  0  0  0  0  0  0  0  0  0  0
  -23.3608  -21.1766   22.3403 C   0  0  0  0  0  0  0  0  0  0  0  0
  -30.0839  -20.9441   19.4530 C   0  0  0  0  0  0  0  0  0  0  0  0
  -20.5397  -27.9554   22.7980 C   0  0  0  0  0  0  0  0  0  0  0  0
  -29.0532  -18.9897   21.1561 C   0  0  0  0  0  0  0  0  0  0  0  0
  -28.7045  -20.8204   19.6186 C   0  0  0  0  0  0  0  0  0  0  0  0
  -29.4052  -27.2558   19.7488 C   0  0  0  0  0  0  0  0  0  0  0  0
  -29.5194  -29.4259   20.0845 C   0  0  0  0  0  0  0  0  0  0  0  0
  -23.2393  -30.4304   23.5496 C   0  0  0  0  0  0  0  0  0  0  0  0
  -31.6990  -28.3800   19.4489 C   0  0  0  0  0  0  0  0  0  0  0  0
  -24.4852  -29.7095   23.2199 C   0  0  0  0  0  0  0  0  0  0  0  0
  -24.9939  -16.3283   20.5262 C   0  0  0  0  0  0  0  0  0  0  0  0
  -21.9021  -15.3551   20.6515 C   0  0  0  0  0  0  0  0  0  0  0  0
  -18.6475  -16.1253   21.3310 C   0  0  0  0  0  0  0  0  0  0  0  0
  -26.8018  -12.5372   17.6251 C   0  0  0  0  0  0  0  0  0  0  0  0
  -24.3433  -17.0187   22.8620 C   0  0  0  0  0  0  0  0  0  0  0  0
  -22.3145  -17.8344   20.8711 C   0  0  0  0  0  0  0  0  0  0  0  0
  -25.5760  -13.4464   17.5940 C   0  0  0  0  0  0  0  0  0  0  0  0
  -25.0421  -31.0557   19.8569 C   0  0  0  0  0  0  0  0  0  0  0  0
  -25.9877  -14.9039   17.7756 C   0  0  0  0  0  0  0  0  0  0  0  0
  -26.2908  -30.2857   19.4355 C   0  0  0  0  0  0  0  0  0  0  0  0
  -24.1246  -30.2155   20.7440 C   0  0  0  0  0  0  0  0  0  0  0  0
  -26.0595  -28.8746   21.5177 C   0  0  0  0  0  0  0  0  0  0  0  0
  -26.6654  -15.1206   19.1340 C   0  0  1  0  0  0  0  0  0  0  0  0
  -24.0130  -16.1521   21.6506 C   0  0  1  0  0  0  0  0  0  0  0  0
  -27.0197  -29.7167   20.6631 C   0  0  1  0  0  0  0  0  0  0  0  0
  -18.6107  -29.9273   25.3753 C   0  0  0  0  0  0  0  0  0  0  0  0
  -21.1459  -31.3553   25.3362 C   0  0  0  0  0  0  0  0  0  0  0  0
  -16.3417  -15.1356   21.3025 C   0  0  0  0  0  0  0  0  0  0  0  0
  -21.8204  -15.6386   17.6146 C   0  0  0  0  0  0  0  0  0  0  0  0
  -19.3211  -15.5740   17.7455 C   0  0  0  0  0  0  0  0  0  0  0  0
  -20.6592  -13.6103   18.5046 C   0  0  0  0  0  0  0  0  0  0  0  0
  -18.3194  -16.5130   24.2466 C   0  0  0  0  0  0  0  0  0  0  0  0
  -21.3075  -24.1612   22.2978 C   0  0  0  0  0  0  0  0  0  0  0  0
  -19.8825  -24.5198   21.8911 C   0  0  0  0  0  0  0  0  0  0  0  0
  -21.7178  -22.7959   21.7620 C   0  0  0  0  0  0  0  0  0  1  0  0
  -19.4566  -25.8650   22.4620 C   0  0  0  0  0  0  0  0  0  0  0  0
  -20.6377  -15.7129   19.9084 C   0  0  1  0  0  0  0  0  0  0  0  0
  -17.5868  -15.3964   22.1359 C   0  0  2  0  0  0  0  0  0  0  0  0
  -20.6243  -15.1535   18.4578 C   0  0  0  0  0  0  0  0  0  0  0  0
  -28.1587  -27.6104   20.0721 N   0  0  0  0  0  0  0  0  0  0  0  0
  -23.3737  -31.7059   23.7863 N   0  0  0  0  0  0  0  0  0  0  0  0
  -28.2603  -28.9357   20.2705 N   0  0  0  0  0  0  0  0  0  0  0  0
  -24.8575  -29.6345   21.8789 N   0  0  0  0  0  0  0  0  0  0  0  0
  -22.6828  -16.4281   21.1041 N   0  0  0  0  0  0  0  0  0  0  0  0
  -29.7979  -30.7374   20.2428 N   0  0  0  0  0  0  0  0  0  0  0  0
  -32.3408  -27.1800   19.1138 N   0  0  0  0  0  0  0  0  0  0  0  0
  -25.6766  -15.1751   20.1892 N   0  0  0  0  0  0  0  0  0  0  0  0
  -19.5312  -15.2485   20.7381 N   0  0  0  0  0  0  0  0  0  0  0  0
  -17.1951  -16.2024   23.3266 N   0  3  0  0  0  0  0  0  0  0  0  0
  -32.3675  -29.4402   19.5002 O   0  0  0  0  0  0  0  0  0  0  0  0
  -25.1187  -29.2127   24.1530 O   0  0  0  0  0  0  0  0  0  0  0  0
  -25.1209  -17.4287   20.0020 O   0  0  0  0  0  0  0  0  0  0  0  0
  -22.1829  -14.1673   20.8303 O   0  0  0  0  0  0  0  0  0  0  0  0
  -18.6860  -17.3500   21.2346 O   0  0  0  0  0  0  0  0  0  0  0  0
  -30.5971  -21.9133   18.6074 O   0  0  0  0  0  0  0  0  0  0  0  0
  -23.0477  -22.4912   22.1804 O   0  0  0  0  0  0  0  0  0  1  0  0
  -20.3441  -26.8678   21.9869 O   0  0  0  0  0  0  0  0  0  0  0  0
  -28.5584  -18.0503   21.9727 F   0  0  0  0  0  0  0  0  0  0  0  0
  -27.8693  -21.6367   18.9614 F   0  0  0  0  0  0  0  0  0  0  0  0
  1  2  1  0  0  0  0
  1  5  2  0  0  0  0
  2  6  2  0  0  0  0
  3  8  2  0  0  0  0
  3 17  1  0  0  0  0
  4  9  1  0  0  0  0
  4 17  2  0  0  0  0
  5 20  1  0  0  0  0
  6 22  1  0  0  0  0
  7 10  2  0  0  0  0
  7 21  1  0  0  0  0
  8 26  1  0  0  0  0
  9 26  2  0  0  0  0
 10 27  1  0  0  0  0
 11 12  2  0  0  0  0
 11 28  1  0  0  0  0
 12 30  1  0  0  0  0
 13 18  1  0  0  0  0
 13 29  2  0  0  0  0
 14 23  1  0  0  0  0
 14 27  2  0  0  0  0
 15 24  2  0  0  0  0
 15 29  1  0  0  0  0
 16 30  2  0  0  0  0
 16 31  1  0  0  0  0
 17 32  1  0  0  0  0
 18 25  2  0  0  0  0
 18 34  1  0  0  0  0
 19 32  1  0  0  0  0
 19 33  2  0  0  0  0
 19 35  1  0  0  0  0
 20 22  2  0  0  0  0
 20 40  1  0  0  0  0
 21 23  2  0  0  0  0
 21 41  1  0  0  0  0
 22 49  1  0  0  0  0
 23 42  1  0  0  0  0
 24 25  1  0  0  0  0
 24 52  1  0  0  0  0
 25 53  1  0  0  0  0
 26 81  1  0  0  0  0
 27 82  1  0  0  0  0
 28 31  2  0  0  0  0
 28 81  1  0  0  0  0
 29 83  1  0  0  0  0
 30 84  1  0  0  0  0
 31 85  1  0  0  0  0
 32 66  2  0  0  0  0
 33 68  1  0  0  0  0
 33 71  1  0  0  0  0
 34 36  1  0  0  0  0
 34 67  2  0  0  0  0
 35 72  1  0  0  0  0
 35 76  2  0  0  0  0
 36 69  1  0  0  0  0
 36 77  2  0  0  0  0
 37 50  1  0  0  0  0
 37 73  1  0  0  0  0
 37 78  2  0  0  0  0
 38 63  1  0  0  0  0
 38 70  1  0  0  0  0
 38 79  2  0  0  0  0
 39 64  1  0  0  0  0
 39 74  1  0  0  0  0
 39 80  2  0  0  0  0
 40 43  1  0  0  0  0
 41 50  1  0  0  0  0
 42 70  1  0  0  0  0
 43 45  1  0  0  0  0
 44 46  1  0  0  0  0
 44 47  1  0  0  0  0
 45 49  1  0  0  0  0
 46 51  1  0  0  0  0
 47 69  1  0  0  0  0
 48 51  1  0  0  0  0
 48 69  1  0  0  0  0
 49 73  1  0  0  0  0
 50 70  1  0  0  0  0
 51 68  1  0  0  0  0
 54 64  1  0  0  0  0
 55 65  1  0  0  0  0
 56 65  1  0  0  0  0
 57 65  1  0  0  0  0
 58 75  1  0  0  0  0
 59 60  1  0  0  0  0
 59 61  1  0  0  0  0
 60 62  1  0  0  0  0
 61 82  1  0  0  0  0
 62 83  1  0  0  0  0
 63 65  1  0  0  0  0
 63 74  1  0  0  0  0
 64 75  1  0  0  0  0
 66 68  1  0  0  0  0
M  CHG  1  75   1
M  ISO  4  34 100  36 100  61 101  82 101
M  END
> <Batch ID>
0116

> <Smiles>
CNC(C)C(=O)NC(C(=O)N1Cc2cc([101O:1][101CH2:1]CCCOc3cc(C)c(C)c([100C:0](=N)[100C:0](=O)N4CCCC(n5nc(-c6ccc(Oc7ccc(F)cc7F)cc6)c(C(N)=O)c5N)C4)c3)ccc2CC1C(=O)NC1CCCc2ccccc21)C(C)(C)C

> <Shape>
0.246

> <Color>
0.082

> <Negative vol penalty>
0.000

$$$$

  -OEChem-04052301433D

 87 95  0     1  0  0  0  0  0999 V2000
  -23.8807  -34.0084   19.6090 C   0  0  0  0  0  0  0  0  0  0  0  0
  -23.9826  -32.6523   19.3159 C   0  0  0  0  0  0  0  0  0  0  0  0
  -23.1240   -9.7896   20.2337 C   0  0  0  0  0  0  0  0  0  0  0  0
  -23.7697  -10.1460   22.5343 C   0  0  0  0  0  0  0  0  0  0  0  0
  -23.7191  -34.4248   20.9297 C   0  0  0  0  0  0  0  0  0  0  0  0
  -23.9241  -31.7117   20.3437 C   0  0  0  0  0  0  0  0  0  0  0  0
  -21.4548  -26.1139   20.0752 C   0  0  0  0  0  0  0  0  0  0  0  0
  -22.3785   -8.6742   20.6157 C   0  0  0  0  0  0  0  0  0  0  0  0
  -23.0241   -9.0307   22.9164 C   0  0  0  0  0  0  0  0  0  0  0  0
  -22.0128  -24.8507   19.8831 C   0  0  0  0  0  0  0  0  0  0  0  0
  -19.7771   -8.2797   23.4760 C   0  0  0  0  0  0  0  0  0  0  0  0
  -18.9636   -8.4007   24.6026 C   0  0  0  0  0  0  0  0  0  0  0  0
  -28.6140  -18.9296   24.1333 C   0  0  0  0  0  0  0  0  0  0  0  0
  -22.0625  -24.5161   22.2715 C   0  0  0  0  0  0  0  0  0  0  0  0
  -29.2160  -19.1431   21.4176 C   0  0  0  0  0  0  0  0  0  0  0  0
  -20.1837   -6.6125   25.6755 C   0  0  0  0  0  0  0  0  0  0  0  0
  -23.8196  -10.5254   21.1930 C   0  0  0  0  0  0  0  0  0  0  0  0
  -29.4743  -18.0089   23.5351 C   0  0  0  0  0  0  0  0  0  0  0  0
  -24.1454  -13.0105   20.7174 C   0  0  0  0  0  0  0  0  0  0  0  0
  -23.6489  -33.4884   21.9732 C   0  0  0  0  0  0  0  0  0  0  0  0
  -21.2061  -26.5928   21.3695 C   0  0  0  0  0  0  0  0  0  0  0  0
  -23.7628  -32.1160   21.6798 C   0  0  0  0  0  0  0  0  0  0  0  0
  -21.4988  -25.7846   22.4773 C   0  0  0  0  0  0  0  0  0  0  0  0
  -29.7753  -18.1156   22.1773 C   0  0  0  0  0  0  0  0  0  0  0  0
  -22.3286   -8.2948   21.9570 C   0  0  0  0  0  0  0  0  0  0  0  0
  -22.3194  -24.0528   20.9814 C   0  0  0  0  0  0  0  0  0  0  0  0
  -20.7938   -7.3250   23.4491 C   0  0  0  0  0  0  0  0  0  0  0  0
  -28.0546  -19.9570   23.3736 C   0  0  0  0  0  0  0  0  0  0  0  0
  -28.3557  -20.0638   22.0158 C   0  0  0  0  0  0  0  0  0  0  0  0
  -19.1669   -7.5671   25.7023 C   0  0  0  0  0  0  0  0  0  0  0  0
  -20.9971   -6.4915   24.5488 C   0  0  0  0  0  0  0  0  0  0  0  0
  -24.5903  -11.6773   20.7989 C   0  0  0  0  0  0  0  0  0  0  0  0
  -25.2478  -13.7153   20.2997 C   0  0  0  0  0  0  0  0  0  0  0  0
  -29.3155  -16.0274   24.9717 C   0  0  0  0  0  0  0  0  0  0  0  0
  -30.0426  -16.9470   24.3551 C   0  0  0  0  0  0  0  0  0  0  0  0
  -24.6818  -21.5644   19.9243 C   0  0  0  0  0  0  0  0  0  0  0  0
  -26.0088  -21.7533   19.8826 C   0  0  0  0  0  0  0  0  0  0  0  0
  -22.8515  -13.5623   20.9946 C   0  0  0  0  0  0  0  0  0  0  0  0
  -22.2485  -29.0544   23.0892 C   0  0  0  0  0  0  0  0  0  0  0  0
  -20.0179  -28.0196   25.2048 C   0  0  0  0  0  0  0  0  0  0  0  0
  -18.1141  -25.4421   26.3791 C   0  0  0  0  0  0  0  0  0  0  0  0
  -30.7066  -14.8370   20.5960 C   0  0  0  0  0  0  0  0  0  0  0  0
  -23.5211  -33.9887   23.3902 C   0  0  0  0  0  0  0  0  0  0  0  0
  -20.5790  -27.9468   21.5589 C   0  0  0  0  0  0  0  0  0  0  0  0
  -21.2324  -26.2441   23.8866 C   0  0  0  0  0  0  0  0  0  0  0  0
  -23.0926  -32.9094   24.3810 C   0  0  0  0  0  0  0  0  0  0  0  0
  -29.7086  -12.1095   18.5365 C   0  0  0  0  0  0  0  0  0  0  0  0
  -23.9063  -31.6367   24.1689 C   0  0  0  0  0  0  0  0  0  0  0  0
  -28.2541  -11.8602   18.9392 C   0  0  0  0  0  0  0  0  0  0  0  0
  -30.5634  -12.5191   19.7338 C   0  0  0  0  0  0  0  0  0  0  0  0
  -28.5894  -13.4164   20.9051 C   0  0  0  0  0  0  0  0  0  0  0  0
  -23.6790  -31.0642   22.7646 C   0  0  1  0  0  0  0  0  0  0  0  0
  -20.8446  -28.5405   22.9388 C   0  0  1  0  0  0  0  0  0  0  0  0
  -27.6760  -13.0551   19.7212 C   0  0  2  0  0  0  0  0  0  0  0  0
  -16.4142  -24.8923   28.1412 C   0  0  0  0  0  0  0  0  0  0  0  0
  -22.2239  -27.9630   27.3119 C   0  0  0  0  0  0  0  0  0  0  0  0
  -20.7327  -26.5415   28.7345 C   0  0  0  0  0  0  0  0  0  0  0  0
  -20.0320  -28.8554   28.1202 C   0  0  0  0  0  0  0  0  0  0  0  0
  -16.0772  -24.7257   24.3551 C   0  0  0  0  0  0  0  0  0  0  0  0
  -25.8260  -20.5301   23.9739 C   0  0  0  0  0  0  0  0  0  0  0  0
  -30.6931  -17.1470   21.5031 C   0  0  0  0  0  0  0  0  0  0  0  0
  -23.6819  -22.6374   19.6412 C   0  0  0  0  0  0  0  0  0  1  0  0
  -27.0090  -20.6776   20.1542 C   0  0  0  0  0  0  0  0  0  0  0  0
  -20.0083  -27.0439   26.3567 C   0  0  1  0  0  0  0  0  0  0  0  0
  -16.6350  -25.3508   26.7082 C   0  0  2  0  0  0  0  0  0  0  0  0
  -20.7562  -27.5928   27.6045 C   0  0  0  0  0  0  0  0  0  0  0  0
  -25.8750  -11.5408   20.4600 N   0  0  0  0  0  0  0  0  0  0  0  0
  -26.2469  -12.7973   20.1615 N   0  0  0  0  0  0  0  0  0  0  0  0
  -20.6241  -27.5781   24.0202 N   0  0  0  0  0  0  0  0  0  0  0  0
  -29.9611  -13.6581   20.4308 N   0  0  0  0  0  0  0  0  0  0  0  0
  -25.4502  -15.0247   20.0408 N   0  0  0  0  0  0  0  0  0  0  0  0
  -21.8319  -12.6969   21.4141 N   0  0  0  0  0  0  0  0  0  0  0  0
  -22.4104  -30.3706   22.7008 N   0  0  0  0  0  0  0  0  0  0  0  0
  -18.6086  -26.7105   26.5977 N   0  0  0  0  0  0  0  0  0  0  0  0
  -30.0588  -15.8701   21.2620 N   0  0  0  0  0  0  0  0  0  0  0  0
  -15.9602  -24.3844   25.7962 N   0  3  0  0  0  0  0  0  0  0  0  0
  -22.6022  -14.7841   20.8581 O   0  0  0  0  0  0  0  0  0  0  0  0
  -23.1199  -28.3123   23.5267 O   0  0  0  0  0  0  0  0  0  0  0  0
  -19.5000  -29.1299   25.3485 O   0  0  0  0  0  0  0  0  0  0  0  0
  -18.7665  -24.4831   25.9726 O   0  0  0  0  0  0  0  0  0  0  0  0
  -31.8621  -14.9616   20.1759 O   0  0  0  0  0  0  0  0  0  0  0  0
  -21.6010   -7.2067   22.3301 O   0  0  0  0  0  0  0  0  0  0  0  0
  -27.2158  -20.8502   23.9689 O   0  0  0  0  0  0  0  0  0  0  0  0
  -22.8647  -22.8198   20.7967 O   0  0  0  0  0  0  0  0  0  1  0  0
  -27.8122  -21.0691   21.2586 O   0  0  0  0  0  0  0  0  0  0  0  0
  -18.3867   -7.6845   26.7848 F   0  0  0  0  0  0  0  0  0  0  0  0
  -21.9730   -5.5733   24.5293 F   0  0  0  0  0  0  0  0  0  0  0  0
  1  2  1  0  0  0  0
  1  5  2  0  0  0  0
  2  6  2  0  0  0  0
  3  8  2  0  0  0  0
  3 17  1  0  0  0  0
  4  9  1  0  0  0  0
  4 17  2  0  0  0  0
  5 20  1  0  0  0  0
  6 22  1  0  0  0  0
  7 10  2  0  0  0  0
  7 21  1  0  0  0  0
  8 25  1  0  0  0  0
  9 25  2  0  0  0  0
 10 26  1  0  0  0  0
 11 12  2  0  0  0  0
 11 27  1  0  0  0  0
 12 30  1  0  0  0  0
 13 18  1  0  0  0  0
 13 28  2  0  0  0  0
 14 23  1  0  0  0  0
 14 26  2  0  0  0  0
 15 24  1  0  0  0  0
 15 29  2  0  0  0  0
 16 30  2  0  0  0  0
 16 31  1  0  0  0  0
 17 32  1  0  0  0  0
 18 24  2  0  0  0  0
 18 35  1  0  0  0  0
 19 32  1  0  0  0  0
 19 33  2  0  0  0  0
 19 38  1  0  0  0  0
 20 22  2  0  0  0  0
 20 43  1  0  0  0  0
 21 23  2  0  0  0  0
 21 44  1  0  0  0  0
 22 52  1  0  0  0  0
 23 45  1  0  0  0  0
 24 61  1  0  0  0  0
 25 82  1  0  0  0  0
 26 84  1  0  0  0  0
 27 31  2  0  0  0  0
 27 82  1  0  0  0  0
 28 29  1  0  0  0  0
 28 83  1  0  0  0  0
 29 85  1  0  0  0  0
 30 86  1  0  0  0  0
 31 87  1  0  0  0  0
 32 67  2  0  0  0  0
 33 68  1  0  0  0  0
 33 71  1  0  0  0  0
 34 35  2  0  0  0  0
 36 37  2  0  0  0  0
 36 62  1  0  0  0  0
 37 63  1  0  0  0  0
 38 72  1  0  0  0  0
 38 77  2  0  0  0  0
 39 53  1  0  0  0  0
 39 73  1  0  0  0  0
 39 78  2  0  0  0  0
 40 64  1  0  0  0  0
 40 69  1  0  0  0  0
 40 79  2  0  0  0  0
 41 65  1  0  0  0  0
 41 74  1  0  0  0  0
 41 80  2  0  0  0  0
 42 70  1  0  0  0  0
 42 75  1  0  0  0  0
 42 81  2  0  0  0  0
 43 46  1  0  0  0  0
 44 53  1  0  0  0  0
 45 69  1  0  0  0  0
 46 48  1  0  0  0  0
 47 49  1  0  0  0  0
 47 50  1  0  0  0  0
 48 52  1  0  0  0  0
 49 54  1  0  0  0  0
 50 70  1  0  0  0  0
 51 54  1  0  0  0  0
 51 70  1  0  0  0  0
 52 73  1  0  0  0  0
 53 69  1  0  0  0  0
 54 68  1  0  0  0  0
 55 65  1  0  0  0  0
 56 66  1  0  0  0  0
 57 66  1  0  0  0  0
 58 66  1  0  0  0  0
 59 76  1  0  0  0  0
 60 83  1  0  0  0  0
 61 75  1  0  0  0  0
 62 84  1  0  0  0  0
 63 85  1  0  0  0  0
 64 66  1  0  0  0  0
 64 74  1  0  0  0  0
 65 76  1  0  0  0  0
 67 68  1  0  0  0  0
M  CHG  1  76   1
M  ISO  4  42 100  62 101  75 100  84 101
M  END
> <Batch ID>
0116

> <Smiles>
C=Cc1cc(OC)c(OCC=C[101CH2:1][101O:1]c2ccc3c(c2)CN(C(=O)C(NC(=O)C(C)NC)C(C)(C)C)C(C(=O)NC2CCCc4ccccc42)C3)cc1C[100NH:0][100C:0](=O)N1CCCC(n2nc(-c3ccc(Oc4ccc(F)cc4F)cc3)c(C(N)=O)c2N)C1

> <Shape>
0.256

> <Color>
0.191

> <Negative vol penalty>
0.000

$$$$

  -OEChem-04052301433D

 93102  0     1  0  0  0  0  0999 V2000
  -17.4132  -27.2100   23.9738 C   0  0  0  0  0  0  0  0  0  0  0  0
  -18.5936  -26.6259   23.5256 C   0  0  0  0  0  0  0  0  0  0  0  0
  -28.3247  -11.8867   20.8705 C   0  0  0  0  0  0  0  0  0  0  0  0
  -26.5726  -12.3368   22.4720 C   0  0  0  0  0  0  0  0  0  0  0  0
  -17.1216  -28.5326   23.6425 C   0  0  0  0  0  0  0  0  0  0  0  0
  -19.4827  -27.3638   22.7450 C   0  0  0  0  0  0  0  0  0  0  0  0
  -25.5955  -26.9908   22.7784 C   0  0  0  0  0  0  0  0  0  0  0  0
  -27.4180  -11.1856   20.0756 C   0  0  0  0  0  0  0  0  0  0  0  0
  -25.6659  -11.6357   21.6771 C   0  0  0  0  0  0  0  0  0  0  0  0
  -26.4991  -26.3252   21.9513 C   0  0  0  0  0  0  0  0  0  0  0  0
  -24.8795   -8.4080   21.0493 C   0  0  0  0  0  0  0  0  0  0  0  0
  -24.0243   -7.5064   21.6827 C   0  0  0  0  0  0  0  0  0  0  0  0
  -28.3286  -20.8893   18.4366 C   0  0  0  0  0  0  0  0  0  0  0  0
  -26.8110  -28.3478   20.6744 C   0  0  0  0  0  0  0  0  0  0  0  0
  -28.7507  -22.7049   19.9736 C   0  0  0  0  0  0  0  0  0  0  0  0
  -22.1163   -8.7537   20.8821 C   0  0  0  0  0  0  0  0  0  0  0  0
  -27.9020  -12.4623   22.0688 C   0  0  0  0  0  0  0  0  0  0  0  0
  -28.4961  -19.9721   19.4740 C   0  0  0  0  0  0  0  0  0  0  0  0
  -30.0179  -12.6882   23.4757 C   0  0  0  0  0  0  0  0  0  0  0  0
  -18.0122  -29.2901   22.8655 C   0  0  0  0  0  0  0  0  0  0  0  0
  -25.2840  -28.3393   22.5527 C   0  0  0  0  0  0  0  0  0  0  0  0
  -19.2022  -28.6973   22.4019 C   0  0  0  0  0  0  0  0  0  0  0  0
  -25.9050  -29.0290   21.5016 C   0  0  0  0  0  0  0  0  0  0  0  0
  -28.4559  -22.2557   18.6864 C   0  0  0  0  0  0  0  0  0  0  0  0
  -28.7909  -20.4212   20.7613 C   0  0  0  0  0  0  0  0  0  0  0  0
  -26.0886  -11.0602   20.4788 C   0  0  0  0  0  0  0  0  0  0  0  0
  -27.1049  -27.0029   20.8973 C   0  0  0  0  0  0  0  0  0  0  0  0
  -24.3531   -9.4825   20.3322 C   0  0  0  0  0  0  0  0  0  0  0  0
  -28.9182  -21.7877   21.0111 C   0  0  0  0  0  0  0  0  0  0  0  0
  -22.6427   -7.6792   21.5991 C   0  0  0  0  0  0  0  0  0  0  0  0
  -22.9715   -9.6553   20.2486 C   0  0  0  0  0  0  0  0  0  0  0  0
  -28.8383  -13.1862   22.8907 C   0  0  0  0  0  0  0  0  0  0  0  0
  -30.5456  -13.7614   24.1513 C   0  0  0  0  0  0  0  0  0  0  0  0
  -29.6388  -25.7682   17.1472 C   0  0  0  0  0  0  0  0  0  0  0  0
  -28.4933  -25.6521   17.8433 C   0  0  0  0  0  0  0  0  0  0  0  0
  -30.1740  -24.7608   16.1971 C   0  0  0  0  0  0  0  0  0  0  0  0
  -29.1392  -17.9042   18.3227 C   0  0  0  0  0  0  0  0  0  0  0  0
  -28.3575  -18.5520   19.1723 C   0  0  0  0  0  0  0  0  0  0  0  0
  -30.5860  -11.3733   23.4139 C   0  0  0  0  0  0  0  0  0  0  0  0
  -22.6346  -29.9384   21.8266 C   0  0  0  0  0  0  0  0  0  0  0  0
  -24.5459  -32.5251   22.2490 C   0  0  0  0  0  0  0  0  0  0  0  0
  -26.2180  -35.4993   22.3172 C   0  0  0  0  0  0  0  0  0  0  0  0
  -29.2593  -19.7854   23.1605 C   0  0  0  0  0  0  0  0  0  0  0  0
  -17.6315  -30.7012   22.4934 C   0  0  0  0  0  0  0  0  0  0  0  0
  -24.3274  -29.0503   23.4702 C   0  0  0  0  0  0  0  0  0  0  0  0
  -25.6201  -30.4827   21.2292 C   0  0  0  0  0  0  0  0  0  0  0  0
  -29.1957  -23.9015   15.4367 C   0  0  0  0  0  0  0  0  0  0  0  0
  -18.8031  -31.5317   21.9757 C   0  0  0  0  0  0  0  0  0  0  0  0
  -28.8944  -17.8020   26.2575 C   0  0  0  0  0  0  0  0  0  0  0  0
  -19.6064  -30.7398   20.9490 C   0  0  0  0  0  0  0  0  0  0  0  0
  -29.1850  -16.3516   25.8686 C   0  0  0  0  0  0  0  0  0  0  0  0
  -28.6385  -22.7676   16.2820 C   0  0  0  0  0  0  0  0  0  0  0  0
  -29.6589  -18.8075   25.4077 C   0  0  0  0  0  0  0  0  0  0  0  0
  -29.2306  -17.2544   23.4906 C   0  0  0  0  0  0  0  0  0  0  0  0
  -20.2035  -29.4730   21.5737 C   0  0  1  0  0  0  0  0  0  0  0  0
  -27.5724  -24.4407   17.9102 C   0  0  1  0  0  0  0  0  0  0  0  0
  -23.6946  -30.2840   22.8339 C   0  0  1  0  0  0  0  0  0  0  0  0
  -29.8026  -16.2147   24.4669 C   0  0  2  0  0  0  0  0  0  0  0  0
  -26.3151  -24.5788   17.0447 C   0  0  0  0  0  0  0  0  0  0  0  0
  -31.5933  -24.7203   23.7735 C   0  0  0  0  0  0  0  0  0  0  0  0
  -26.0892  -37.8519   21.4533 C   0  0  0  0  0  0  0  0  0  0  0  0
  -25.4319  -31.5591   19.4937 C   0  0  0  0  0  0  0  0  0  0  0  0
  -26.1887  -33.8931   18.9957 C   0  0  0  0  0  0  0  0  0  0  0  0
  -23.7805  -33.4370   19.4596 C   0  0  0  0  0  0  0  0  0  0  0  0
  -26.1120  -36.6218   25.0536 C   0  0  0  0  0  0  0  0  0  0  0  0
  -28.0715  -26.7979   18.7341 C   0  0  0  0  0  0  0  0  0  1  0  0
  -30.7915  -23.4421   23.6064 C   0  0  0  0  0  0  0  0  0  0  0  0
  -29.9385  -23.4696   22.3474 C   0  0  0  0  0  0  0  0  0  0  0  0
  -25.4476  -33.3450   21.3582 C   0  0  1  0  0  0  0  0  0  0  0  0
  -25.7459  -36.9141   22.6002 C   0  0  2  0  0  0  0  0  0  0  0  0
  -25.2223  -33.0445   19.8494 C   0  0  0  0  0  0  0  0  0  0  0  0
  -28.6284  -14.4753   23.1703 N   0  0  0  0  0  0  0  0  0  0  0  0
  -29.6833  -14.7964   23.9385 N   0  0  0  0  0  0  0  0  0  0  0  0
  -28.2882  -23.1778   17.6448 N   0  0  3  0  0  0  0  0  0  0  0  0
  -24.6730  -31.1323   22.1503 N   0  0  0  0  0  0  0  0  0  0  0  0
  -29.3683  -18.6364   23.9812 N   0  0  0  0  0  0  0  0  0  0  0  0
  -31.6584  -13.9111   24.9008 N   0  0  0  0  0  0  0  0  0  0  0  0
  -30.2162  -10.4391   24.3910 N   0  0  0  0  0  0  0  0  0  0  0  0
  -28.9635  -19.5009   21.8250 N   0  0  0  0  0  0  0  0  0  0  0  0
  -21.3696  -29.8012   22.3655 N   0  0  0  0  0  0  0  0  0  0  0  0
  -25.2295  -34.7391   21.7289 N   0  0  0  0  0  0  0  0  0  0  0  0
  -26.3858  -37.4353   23.8411 N   0  3  0  0  0  0  0  0  0  0  0  0
  -31.3869  -24.6829   16.0109 O   0  0  0  0  0  0  0  0  0  0  0  0
  -31.4101  -11.0417   22.5282 O   0  0  0  0  0  0  0  0  0  0  0  0
  -22.9415  -29.8075   20.6474 O   0  0  0  0  0  0  0  0  0  0  0  0
  -23.7629  -33.0993   23.0098 O   0  0  0  0  0  0  0  0  0  0  0  0
  -27.3516  -35.1089   22.5875 O   0  0  0  0  0  0  0  0  0  0  0  0
  -29.4026  -20.9223   23.6156 O   0  0  0  0  0  0  0  0  0  0  0  0
  -25.2035  -10.3763   19.7032 O   0  0  0  0  0  0  0  0  0  0  0  0
  -27.9868  -26.3553   20.0881 O   0  0  0  0  0  0  0  0  0  1  0  0
  -29.2047  -22.2502   22.2610 O   0  0  0  0  0  0  0  0  0  0  0  0
  -21.8215   -6.8124   22.2062 F   0  0  0  0  0  0  0  0  0  0  0  0
  -22.4600  -10.6850   19.5602 F   0  0  0  0  0  0  0  0  0  0  0  0
  1  2  1  0  0  0  0
  1  5  2  0  0  0  0
  2  6  2  0  0  0  0
  3  8  2  0  0  0  0
  3 17  1  0  0  0  0
  4  9  1  0  0  0  0
  4 17  2  0  0  0  0
  5 20  1  0  0  0  0
  6 22  1  0  0  0  0
  7 10  2  0  0  0  0
  7 21  1  0  0  0  0
  8 26  1  0  0  0  0
  9 26  2  0  0  0  0
 10 27  1  0  0  0  0
 11 12  2  0  0  0  0
 11 28  1  0  0  0  0
 12 30  1  0  0  0  0
 13 18  1  0  0  0  0
 13 24  2  0  0  0  0
 14 23  1  0  0  0  0
 14 27  2  0  0  0  0
 15 24  1  0  0  0  0
 15 29  2  0  0  0  0
 16 30  2  0  0  0  0
 16 31  1  0  0  0  0
 17 32  1  0  0  0  0
 18 25  2  0  0  0  0
 18 38  1  0  0  0  0
 19 32  1  0  0  0  0
 19 33  2  0  0  0  0
 19 39  1  0  0  0  0
 20 22  2  0  0  0  0
 20 44  1  0  0  0  0
 21 23  2  0  0  0  0
 21 45  1  0  0  0  0
 22 55  1  0  0  0  0
 23 46  1  0  0  0  0
 24 74  1  0  0  0  0
 25 29  1  0  0  0  0
 25 79  1  0  0  0  0
 26 89  1  0  0  0  0
 27 90  1  0  0  0  0
 28 31  2  0  0  0  0
 28 89  1  0  0  0  0
 29 91  1  0  0  0  0
 30 92  1  0  0  0  0
 31 93  1  0  0  0  0
 32 72  2  0  0  0  0
 33 73  1  0  0  0  0
 33 77  1  0  0  0  0
 34 35  2  0  0  0  0
 34 36  1  0  0  0  0
 35 56  1  0  0  0  0
 35 66  1  0  0  0  0
 36 47  1  0  0  0  0
 36 83  2  0  0  0  0
 37 38  2  0  0  0  0
 39 78  1  0  0  0  0
 39 84  2  0  0  0  0
 40 57  1  0  0  0  0
 40 80  1  0  0  0  0
 40 85  2  0  0  0  0
 41 69  1  0  0  0  0
 41 75  1  0  0  0  0
 41 86  2  0  0  0  0
 42 70  1  0  0  0  0
 42 81  1  0  0  0  0
 42 87  2  0  0  0  0
 43 76  1  0  0  0  0
 43 79  1  0  0  0  0
 43 88  2  0  0  0  0
 44 48  1  0  0  0  0
 45 57  1  0  0  0  0
 46 75  1  0  0  0  0
 47 52  1  0  0  0  0
 48 50  1  0  0  0  0
 49 51  1  0  0  0  0
 49 53  1  0  0  0  0
 50 55  1  0  0  0  0
 51 58  1  0  0  0  0
 52 74  1  0  0  0  0
 53 76  1  0  0  0  0
 54 58  1  0  0  0  0
 54 76  1  0  0  0  0
 55 80  1  0  0  0  0
 56 59  1  0  0  0  0
 56 74  1  0  0  0  0
 57 75  1  0  0  0  0
 58 73  1  0  0  0  0
 60 67  1  0  0  0  0
 61 70  1  0  0  0  0
 62 71  1  0  0  0  0
 63 71  1  0  0  0  0
 64 71  1  0  0  0  0
 65 82  1  0  0  0  0
 66 90  1  0  0  0  0
 67 68  1  0  0  0  0
 68 91  1  0  0  0  0
 69 71  1  0  0  0  0
 69 81  1  0  0  0  0
 70 82  1  0  0  0  0
 72 73  1  0  0  0  0
M  CHG  1  82   1
M  ISO  4  43 100  66 101  79 100  90 101
M  END
> <Batch ID>
0116

> <Smiles>
C=Cc1cc(N2CCC(=O)CC([101CH2:1][101O:1]c3ccc4c(c3)CN(C(=O)C(NC(=O)C(C)NC)C(C)(C)C)C(C(=O)NC3CCCc5ccccc53)C4)=C2C)cc(OCCC)c1[100NH:0][100C:0](=O)N1CCCC(n2nc(-c3ccc(Oc4ccc(F)cc4F)cc3)c(C(N)=O)c2N)C1

> <Shape>
0.274

> <Color>
0.101

> <Negative vol penalty>
0.000

$$$$

  -OEChem-04052301433D

 86 94  0     1  0  0  0  0  0999 V2000
  -25.9643  -35.9100   25.0179 C   0  0  0  0  0  0  0  0  0  0  0  0
  -26.6262  -34.7507   24.6264 C   0  0  0  0  0  0  0  0  0  0  0  0
  -24.6848   -8.4718   21.3016 C   0  0  0  0  0  0  0  0  0  0  0  0
  -23.0587  -10.2201   20.9323 C   0  0  0  0  0  0  0  0  0  0  0  0
  -24.5782  -35.9030   25.1682 C   0  0  0  0  0  0  0  0  0  0  0  0
  -25.9024  -33.5833   24.3859 C   0  0  0  0  0  0  0  0  0  0  0  0
  -27.1180  -29.2977   20.1833 C   0  0  0  0  0  0  0  0  0  0  0  0
  -23.8842   -7.9408   22.3128 C   0  0  0  0  0  0  0  0  0  0  0  0
  -22.2581   -9.6891   21.9436 C   0  0  0  0  0  0  0  0  0  0  0  0
  -27.7602  -28.0627   20.2616 C   0  0  0  0  0  0  0  0  0  0  0  0
  -21.1071   -6.0259   22.5445 C   0  0  0  0  0  0  0  0  0  0  0  0
  -20.9138   -4.6446   22.5602 C   0  0  0  0  0  0  0  0  0  0  0  0
  -25.6211  -26.9717   20.4915 C   0  0  0  0  0  0  0  0  0  0  0  0
  -29.5902  -19.5625   21.7901 C   0  0  0  0  0  0  0  0  0  0  0  0
  -29.1142  -20.4435   19.5914 C   0  0  0  0  0  0  0  0  0  0  0  0
  -21.9035   -4.5310   24.7612 C   0  0  0  0  0  0  0  0  0  0  0  0
  -24.2721   -9.6116   20.6114 C   0  0  0  0  0  0  0  0  0  0  0  0
  -25.0637   -9.8392   18.1970 C   0  0  0  0  0  0  0  0  0  0  0  0
  -23.8360  -34.7376   24.9201 C   0  0  0  0  0  0  0  0  0  0  0  0
  -25.7208  -29.3801   20.2696 C   0  0  0  0  0  0  0  0  0  0  0  0
  -24.5052  -33.5604   24.5342 C   0  0  0  0  0  0  0  0  0  0  0  0
  -24.9634  -28.2087   20.4114 C   0  0  0  0  0  0  0  0  0  0  0  0
  -29.6014  -18.2686   21.2693 C   0  0  0  0  0  0  0  0  0  0  0  0
  -29.3466  -20.6500   20.9511 C   0  0  0  0  0  0  0  0  0  0  0  0
  -29.3690  -18.0621   19.9095 C   0  0  0  0  0  0  0  0  0  0  0  0
  -22.6709   -8.5494   22.6338 C   0  0  0  0  0  0  0  0  0  0  0  0
  -27.0119  -26.8998   20.4186 C   0  0  0  0  0  0  0  0  0  0  0  0
  -21.6987   -6.6597   23.6371 C   0  0  0  0  0  0  0  0  0  0  0  0
  -21.3119   -3.8971   23.6685 C   0  0  0  0  0  0  0  0  0  0  0  0
  -29.1254  -19.1495   19.0705 C   0  0  0  0  0  0  0  0  0  0  0  0
  -22.0969   -5.9123   24.7455 C   0  0  0  0  0  0  0  0  0  0  0  0
  -25.0989  -10.1610   19.5670 C   0  0  0  0  0  0  0  0  0  0  0  0
  -26.0376  -10.6273   17.6340 C   0  0  0  0  0  0  0  0  0  0  0  0
  -31.4790  -16.8893   18.2247 C   0  0  0  0  0  0  0  0  0  0  0  0
  -30.2639  -16.3521   18.3547 C   0  0  0  0  0  0  0  0  0  0  0  0
  -24.2255   -8.9109   17.4959 C   0  0  0  0  0  0  0  0  0  0  0  0
  -23.6746  -30.7574   22.2746 C   0  0  0  0  0  0  0  0  0  0  0  0
  -21.4795  -29.7570   20.1059 C   0  0  0  0  0  0  0  0  0  0  0  0
  -29.1099  -23.1526   20.7939 C   0  0  0  0  0  0  0  0  0  0  0  0
  -20.6538  -27.5763   17.6140 C   0  0  0  0  0  0  0  0  0  0  0  0
  -28.3471  -15.8218   19.7228 C   0  0  0  0  0  0  0  0  0  0  0  0
  -22.3444  -34.7659   25.1416 C   0  0  0  0  0  0  0  0  0  0  0  0
  -25.0415  -30.7174   20.1566 C   0  0  0  0  0  0  0  0  0  0  0  0
  -23.4596  -28.2412   20.4889 C   0  0  0  0  0  0  0  0  0  0  0  0
  -21.6115  -33.5882   24.5044 C   0  0  0  0  0  0  0  0  0  0  0  0
  -30.1892  -12.7623   18.6424 C   0  0  0  0  0  0  0  0  0  0  0  0
  -22.3311  -32.2798   24.8161 C   0  0  0  0  0  0  0  0  0  0  0  0
  -29.0802  -11.7128   18.7003 C   0  0  0  0  0  0  0  0  0  0  0  0
  -29.9644  -13.8610   19.6744 C   0  0  0  0  0  0  0  0  0  0  0  0
  -27.5178  -13.4893   19.6173 C   0  0  0  0  0  0  0  0  0  0  0  0
  -23.7523  -32.2810   24.2401 C   0  0  1  0  0  0  0  0  0  0  0  0
  -23.6459  -30.7326   20.7725 C   0  0  1  0  0  0  0  0  0  0  0  0
  -27.6939  -12.3683   18.5791 C   0  0  2  0  0  0  0  0  0  0  0  0
  -29.8639  -17.1225   22.1918 C   0  0  0  0  0  0  0  0  0  0  0  0
  -18.7762  -26.9812   16.0591 C   0  0  0  0  0  0  0  0  0  0  0  0
  -20.0023  -28.4079   22.4098 C   0  0  0  0  0  0  0  0  0  0  0  0
  -18.7233  -27.0769   20.7185 C   0  0  0  0  0  0  0  0  0  0  0  0
  -18.5236  -29.5631   20.7566 C   0  0  0  0  0  0  0  0  0  0  0  0
  -22.2979  -28.1525   15.2216 C   0  0  0  0  0  0  0  0  0  0  0  0
  -29.1853  -24.3404   21.7465 C   0  0  0  0  0  0  0  0  0  0  0  0
  -28.9483  -25.6754   21.0569 C   0  0  0  0  0  0  0  0  0  1  0  0
  -20.6594  -28.5040   19.9149 C   0  0  1  0  0  0  0  0  0  0  0  0
  -20.0453  -27.7990   16.2412 C   0  0  2  0  0  0  0  0  0  0  0  0
  -19.5056  -28.3872   20.9505 C   0  0  0  0  0  0  0  0  0  0  0  0
  -26.0221  -11.0816   19.8569 N   0  0  0  0  0  0  0  0  0  0  0  0
  -26.5762  -11.3450   18.6611 N   0  0  0  0  0  0  0  0  0  0  0  0
  -22.8422  -29.5732   20.3799 N   0  0  0  0  0  0  0  0  0  0  0  0
  -28.6226  -14.4491   19.5513 N   0  0  0  0  0  0  0  0  0  0  0  0
  -26.4773  -10.7693   16.3656 N   0  0  0  0  0  0  0  0  0  0  0  0
  -23.2774   -8.1825   18.2273 N   0  0  0  0  0  0  0  0  0  0  0  0
  -29.3343  -21.9624   21.4805 N   0  0  0  0  0  0  0  0  0  0  0  0
  -23.7204  -32.0281   22.8155 N   0  0  0  0  0  0  0  0  0  0  0  0
  -20.2161  -28.5143   18.5250 N   0  0  0  0  0  0  0  0  0  0  0  0
  -29.3776  -16.7250   19.3520 N   0  0  0  0  0  0  0  0  0  0  0  0
  -21.0125  -27.4091   15.1765 N   0  3  0  0  0  0  0  0  0  0  0  0
  -24.3258   -8.7207   16.2601 O   0  0  0  0  0  0  0  0  0  0  0  0
  -23.6550  -29.7018   22.8968 O   0  0  0  0  0  0  0  0  0  0  0  0
  -20.9326  -30.8584   20.0084 O   0  0  0  0  0  0  0  0  0  0  0  0
  -28.8804  -23.2894   19.5968 O   0  0  0  0  0  0  0  0  0  0  0  0
  -21.4360  -26.6595   17.8552 O   0  0  0  0  0  0  0  0  0  0  0  0
  -27.2545  -16.2174   20.1493 O   0  0  0  0  0  0  0  0  0  0  0  0
  -21.8893   -8.0313   23.6204 O   0  0  0  0  0  0  0  0  0  0  0  0
  -27.6363  -25.6931   20.4959 O   0  0  0  0  0  0  0  0  0  1  0  0
  -21.1248   -2.5709   23.6841 F   0  0  0  0  0  0  0  0  0  0  0  0
  -28.9005  -18.9636   17.7620 F   0  0  0  0  0  0  0  0  0  0  0  0
  -22.6647   -6.5158   25.7987 F   0  0  0  0  0  0  0  0  0  0  0  0
  1  2  1  0  0  0  0
  1  5  2  0  0  0  0
  2  6  2  0  0  0  0
  3  8  2  0  0  0  0
  3 17  1  0  0  0  0
  4  9  1  0  0  0  0
  4 17  2  0  0  0  0
  5 19  1  0  0  0  0
  6 21  1  0  0  0  0
  7 10  2  0  0  0  0
  7 20  1  0  0  0  0
  8 26  1  0  0  0  0
  9 26  2  0  0  0  0
 10 27  1  0  0  0  0
 11 12  2  0  0  0  0
 11 28  1  0  0  0  0
 12 29  1  0  0  0  0
 13 22  1  0  0  0  0
 13 27  2  0  0  0  0
 14 23  2  0  0  0  0
 14 24  1  0  0  0  0
 15 24  2  0  0  0  0
 15 30  1  0  0  0  0
 16 29  2  0  0  0  0
 16 31  1  0  0  0  0
 17 32  1  0  0  0  0
 18 32  1  0  0  0  0
 18 33  2  0  0  0  0
 18 36  1  0  0  0  0
 19 21  2  0  0  0  0
 19 42  1  0  0  0  0
 20 22  2  0  0  0  0
 20 43  1  0  0  0  0
 21 51  1  0  0  0  0
 22 44  1  0  0  0  0
 23 25  1  0  0  0  0
 23 54  1  0  0  0  0
 24 71  1  0  0  0  0
 25 30  2  0  0  0  0
 25 74  1  0  0  0  0
 26 82  1  0  0  0  0
 27 83  1  0  0  0  0
 28 31  2  0  0  0  0
 28 82  1  0  0  0  0
 29 84  1  0  0  0  0
 30 85  1  0  0  0  0
 31 86  1  0  0  0  0
 32 65  2  0  0  0  0
 33 66  1  0  0  0  0
 33 69  1  0  0  0  0
 34 35  2  0  0  0  0
 35 74  1  0  0  0  0
 36 70  1  0  0  0  0
 36 76  2  0  0  0  0
 37 52  1  0  0  0  0
 37 72  1  0  0  0  0
 37 77  2  0  0  0  0
 38 62  1  0  0  0  0
 38 67  1  0  0  0  0
 38 78  2  0  0  0  0
 39 60  1  0  0  0  0
 39 71  1  0  0  0  0
 39 79  2  0  0  0  0
 40 63  1  0  0  0  0
 40 73  1  0  0  0  0
 40 80  2  0  0  0  0
 41 68  1  0  0  0  0
 41 74  1  0  0  0  0
 41 81  2  0  0  0  0
 42 45  1  0  0  0  0
 43 52  1  0  0  0  0
 44 67  1  0  0  0  0
 45 47  1  0  0  0  0
 46 48  1  0  0  0  0
 46 49  1  0  0  0  0
 47 51  1  0  0  0  0
 48 53  1  0  0  0  0
 49 68  1  0  0  0  0
 50 53  1  0  0  0  0
 50 68  1  0  0  0  0
 51 72  1  0  0  0  0
 52 67  1  0  0  0  0
 53 66  1  0  0  0  0
 55 63  1  0  0  0  0
 56 64  1  0  0  0  0
 57 64  1  0  0  0  0
 58 64  1  0  0  0  0
 59 75  1  0  0  0  0
 60 61  1  0  0  0  0
 61 83  1  0  0  0  0
 62 64  1  0  0  0  0
 62 73  1  0  0  0  0
 63 75  1  0  0  0  0
 65 66  1  0  0  0  0
M  CHG  1  75   1
M  ISO  4  41 100  61 101  74 100  83 101
M  END
> <Batch ID>
0116

> <Smiles>
C=C[100N:0](c1c(C)cc(NC(=O)C[101CH2:1][101O:1]c2ccc3c(c2)CN(C(=O)C(NC(=O)C(C)NC)C(C)(C)C)C(C(=O)NC2CCCc4ccccc42)C3)cc1F)[100C:0](=O)N1CCCC(n2nc(-c3ccc(Oc4ccc(F)cc4F)cc3)c(C(N)=O)c2N)C1

> <Shape>
0.326

> <Color>
0.103

> <Negative vol penalty>
0.000

$$$$

  -OEChem-04052301433D

 86 94  0     1  0  0  0  0  0999 V2000
  -30.5653  -34.2947   28.2104 C   0  0  0  0  0  0  0  0  0  0  0  0
  -30.8221  -33.3373   27.2343 C   0  0  0  0  0  0  0  0  0  0  0  0
  -24.3133   -9.2700   22.0880 C   0  0  0  0  0  0  0  0  0  0  0  0
  -23.4185   -9.3859   19.8467 C   0  0  0  0  0  0  0  0  0  0  0  0
  -29.3061  -34.3614   28.8055 C   0  0  0  0  0  0  0  0  0  0  0  0
  -29.8202  -32.4454   26.8533 C   0  0  0  0  0  0  0  0  0  0  0  0
  -28.8696  -30.1483   21.2564 C   0  0  0  0  0  0  0  0  0  0  0  0
  -23.2892   -8.3956   22.4516 C   0  0  0  0  0  0  0  0  0  0  0  0
  -22.3945   -8.5114   20.2103 C   0  0  0  0  0  0  0  0  0  0  0  0
  -29.2187  -28.9327   20.6696 C   0  0  0  0  0  0  0  0  0  0  0  0
  -22.5703   -5.1119   22.0857 C   0  0  0  0  0  0  0  0  0  0  0  0
  -22.9151   -3.9834   22.8295 C   0  0  0  0  0  0  0  0  0  0  0  0
  -24.8842  -21.0984   23.9413 C   0  0  0  0  0  0  0  0  0  0  0  0
  -27.0173  -21.1427   22.8078 C   0  0  0  0  0  0  0  0  0  0  0  0
  -27.0355  -28.0556   21.2022 C   0  0  0  0  0  0  0  0  0  0  0  0
  -21.4639   -4.7176   24.6162 C   0  0  0  0  0  0  0  0  0  0  0  0
  -24.3779   -9.7652   20.7855 C   0  0  0  0  0  0  0  0  0  0  0  0
  -25.9406  -20.4247   23.3282 C   0  0  0  0  0  0  0  0  0  0  0  0
  -25.9812  -23.2080   23.5137 C   0  0  0  0  0  0  0  0  0  0  0  0
  -26.6980  -10.3299   19.8876 C   0  0  0  0  0  0  0  0  0  0  0  0
  -28.2854  -33.4761   28.4247 C   0  0  0  0  0  0  0  0  0  0  0  0
  -27.6025  -30.3234   21.8311 C   0  0  0  0  0  0  0  0  0  0  0  0
  -28.5467  -32.4995   27.4447 C   0  0  0  0  0  0  0  0  0  0  0  0
  -26.6719  -29.2752   21.7934 C   0  0  0  0  0  0  0  0  0  0  0  0
  -24.9045  -22.4900   24.0340 C   0  0  0  0  0  0  0  0  0  0  0  0
  -22.3298   -8.0162   21.5128 C   0  0  0  0  0  0  0  0  0  0  0  0
  -28.3026  -27.8852   20.6451 C   0  0  0  0  0  0  0  0  0  0  0  0
  -21.6724   -6.0433   22.6072 C   0  0  0  0  0  0  0  0  0  0  0  0
  -27.0377  -22.5344   22.9006 C   0  0  0  0  0  0  0  0  0  0  0  0
  -22.3619   -3.7862   24.0947 C   0  0  0  0  0  0  0  0  0  0  0  0
  -21.1191   -5.8462   23.8724 C   0  0  0  0  0  0  0  0  0  0  0  0
  -25.4352  -10.6690   20.4095 C   0  0  0  0  0  0  0  0  0  0  0  0
  -27.3265  -11.5364   19.6982 C   0  0  0  0  0  0  0  0  0  0  0  0
  -26.5687  -25.3222   24.6093 C   0  0  0  0  0  0  0  0  0  0  0  0
  -25.9194  -18.9738   23.2303 C   0  0  0  0  0  0  0  0  0  0  0  0
  -26.0086  -24.6643   23.6072 C   0  0  0  0  0  0  0  0  0  0  0  0
  -26.6442  -18.2366   22.3619 C   0  0  0  0  0  0  0  0  0  0  0  0
  -27.2531   -9.0397   19.5997 C   0  0  0  0  0  0  0  0  0  0  0  0
  -26.5199  -16.7655   22.3924 C   0  0  0  0  0  0  0  0  0  0  0  0
  -26.5348  -30.9554   24.7576 C   0  0  0  0  0  0  0  0  0  0  0  0
  -23.6689  -31.1432   23.2497 C   0  0  0  0  0  0  0  0  0  0  0  0
  -21.7365  -30.2583   20.5795 C   0  0  0  0  0  0  0  0  0  0  0  0
  -26.9546  -33.5561   29.1299 C   0  0  0  0  0  0  0  0  0  0  0  0
  -27.2320  -31.6495   22.4364 C   0  0  0  0  0  0  0  0  0  0  0  0
  -25.2915  -29.4188   22.3785 C   0  0  0  0  0  0  0  0  0  0  0  0
  -25.8343  -32.8172   28.4024 C   0  0  0  0  0  0  0  0  0  0  0  0
  -26.4336  -16.1322   18.7837 C   0  0  0  0  0  0  0  0  0  0  0  0
  -26.3030  -31.4324   27.9671 C   0  0  0  0  0  0  0  0  0  0  0  0
  -26.2341  -14.6192   18.7557 C   0  0  0  0  0  0  0  0  0  0  0  0
  -25.7197  -16.7812   19.9685 C   0  0  0  0  0  0  0  0  0  0  0  0
  -25.8880  -14.6714   21.2573 C   0  0  0  0  0  0  0  0  0  0  0  0
  -27.4782  -31.5306   26.9869 C   0  0  1  0  0  0  0  0  0  0  0  0
  -26.0951  -31.5476   23.4486 C   0  0  1  0  0  0  0  0  0  0  0  0
  -26.6367  -13.9921   20.0999 C   0  0  1  0  0  0  0  0  0  0  0  0
  -22.5270  -23.2492   23.7945 C   0  0  0  0  0  0  0  0  0  0  0  0
  -19.4243  -30.5334   19.6440 C   0  0  0  0  0  0  0  0  0  0  0  0
  -22.6111  -29.1226   25.2764 C   0  0  0  0  0  0  0  0  0  0  0  0
  -20.6595  -28.7269   23.7589 C   0  0  0  0  0  0  0  0  0  0  0  0
  -21.0336  -30.9884   24.7429 C   0  0  0  0  0  0  0  0  0  0  0  0
  -22.7555  -31.5970   18.1447 C   0  0  0  0  0  0  0  0  0  0  0  0
  -23.7535  -23.1763   24.6977 C   0  0  0  0  0  0  0  0  0  0  0  0
  -28.9530  -24.3302   20.4207 C   0  0  0  0  0  0  0  0  0  0  0  0
  -28.0282  -25.5232   20.6046 C   0  0  0  0  0  0  0  0  0  1  0  0
  -28.3542  -23.0532   20.9892 C   0  0  0  0  0  0  0  0  0  0  0  0
  -22.5713  -30.1627   22.9137 C   0  0  1  0  0  0  0  0  0  0  0  0
  -20.8437  -31.0789   19.6663 C   0  0  2  0  0  0  0  0  0  0  0  0
  -21.7455  -29.7465   24.1636 C   0  0  0  0  0  0  0  0  0  0  0  0
  -25.2697  -11.9876   20.5432 N   0  0  0  0  0  0  0  0  0  0  0  0
  -26.4368  -12.4877   20.1027 N   0  0  0  0  0  0  0  0  0  0  0  0
  -26.0762  -16.1264   21.2361 N   0  0  0  0  0  0  0  0  0  0  0  0
  -24.9789  -30.7327   22.9646 N   0  0  0  0  0  0  0  0  0  0  0  0
  -28.5478  -11.8657   19.2269 N   0  0  0  0  0  0  0  0  0  0  0  0
  -26.4717   -7.9043   19.8538 N   0  0  0  0  0  0  0  0  0  0  0  0
  -27.0060  -31.8844   25.6655 N   0  0  0  0  0  0  0  0  0  0  0  0
  -21.7814  -30.7814   21.8545 N   0  0  0  0  0  0  0  0  0  0  0  0
  -21.3745  -31.0649   18.2738 N   0  3  0  0  0  0  0  0  0  0  0  0
  -28.4140   -8.8971   19.1465 O   0  0  0  0  0  0  0  0  0  0  0  0
  -26.8124  -16.1918   23.4432 O   0  0  0  0  0  0  0  0  0  0  0  0
  -26.4512  -29.7452   24.9316 O   0  0  0  0  0  0  0  0  0  0  0  0
  -23.3743  -32.2361   23.7401 O   0  0  0  0  0  0  0  0  0  0  0  0
  -22.3314  -29.2518   20.2008 O   0  0  0  0  0  0  0  0  0  0  0  0
  -21.3305   -7.1628   21.8672 O   0  0  0  0  0  0  0  0  0  0  0  0
  -28.6410  -26.6974   20.0736 O   0  0  0  0  0  0  0  0  0  1  0  0
  -28.1085  -23.2132   22.3798 O   0  0  0  0  0  0  0  0  0  0  0  0
  -22.6918   -2.7017   24.8082 F   0  0  0  0  0  0  0  0  0  0  0  0
  -20.2550   -6.7369   24.3781 F   0  0  0  0  0  0  0  0  0  0  0  0
  1  2  1  0  0  0  0
  1  5  2  0  0  0  0
  2  6  2  0  0  0  0
  3  8  2  0  0  0  0
  3 17  1  0  0  0  0
  4  9  1  0  0  0  0
  4 17  2  0  0  0  0
  5 21  1  0  0  0  0
  6 23  1  0  0  0  0
  7 10  2  0  0  0  0
  7 22  1  0  0  0  0
  8 26  1  0  0  0  0
  9 26  2  0  0  0  0
 10 27  1  0  0  0  0
 11 12  2  0  0  0  0
 11 28  1  0  0  0  0
 12 30  1  0  0  0  0
 13 18  1  0  0  0  0
 13 25  2  0  0  0  0
 14 18  2  0  0  0  0
 14 29  1  0  0  0  0
 15 24  1  0  0  0  0
 15 27  2  0  0  0  0
 16 30  2  0  0  0  0
 16 31  1  0  0  0  0
 17 32  1  0  0  0  0
 18 35  1  0  0  0  0
 19 25  1  0  0  0  0
 19 29  2  0  0  0  0
 19 36  1  0  0  0  0
 20 32  1  0  0  0  0
 20 33  2  0  0  0  0
 20 38  1  0  0  0  0
 21 23  2  0  0  0  0
 21 43  1  0  0  0  0
 22 24  2  0  0  0  0
 22 44  1  0  0  0  0
 23 52  1  0  0  0  0
 24 45  1  0  0  0  0
 25 61  1  0  0  0  0
 26 82  1  0  0  0  0
 27 83  1  0  0  0  0
 28 31  2  0  0  0  0
 28 82  1  0  0  0  0
 29 84  1  0  0  0  0
 30 85  1  0  0  0  0
 31 86  1  0  0  0  0
 32 68  2  0  0  0  0
 33 69  1  0  0  0  0
 33 72  1  0  0  0  0
 34 36  2  0  0  0  0
 35 37  2  0  0  0  0
 37 39  1  0  0  0  0
 38 73  1  0  0  0  0
 38 77  2  0  0  0  0
 39 70  1  0  0  0  0
 39 78  2  0  0  0  0
 40 53  1  0  0  0  0
 40 74  1  0  0  0  0
 40 79  2  0  0  0  0
 41 65  1  0  0  0  0
 41 71  1  0  0  0  0
 41 80  2  0  0  0  0
 42 66  1  0  0  0  0
 42 75  1  0  0  0  0
 42 81  2  0  0  0  0
 43 46  1  0  0  0  0
 44 53  1  0  0  0  0
 45 71  1  0  0  0  0
 46 48  1  0  0  0  0
 47 49  1  0  0  0  0
 47 50  1  0  0  0  0
 48 52  1  0  0  0  0
 49 54  1  0  0  0  0
 50 70  1  0  0  0  0
 51 54  1  0  0  0  0
 51 70  1  0  0  0  0
 52 74  1  0  0  0  0
 53 71  1  0  0  0  0
 54 69  1  0  0  0  0
 55 61  1  0  0  0  0
 56 66  1  0  0  0  0
 57 67  1  0  0  0  0
 58 67  1  0  0  0  0
 59 67  1  0  0  0  0
 60 76  1  0  0  0  0
 62 63  1  0  0  0  0
 62 64  1  0  0  0  0
 63 83  1  0  0  0  0
 64 84  1  0  0  0  0
 65 67  1  0  0  0  0
 65 75  1  0  0  0  0
 66 76  1  0  0  0  0
 68 69  1  0  0  0  0
M  CHG  1  76   1
M  ISO  4  37 100  39 100  63 101  83 101
M  END
> <Batch ID>
0116

> <Smiles>
C=Cc1c(CC)cc(C=[100CH:0][100C:0](=O)N2CCCC(n3nc(-c4ccc(Oc5ccc(F)cc5F)cc4)c(C(N)=O)c3N)C2)cc1OCC[101CH2:1][101O:1]c1ccc2c(c1)CN(C(=O)C(NC(=O)C(C)NC)C(C)(C)C)C(C(=O)NC1CCCc3ccccc31)C2

> <Shape>
0.251

> <Color>
0.097

> <Negative vol penalty>
0.000

$$$$

  -OEChem-04052301433D

 85 93  0     1  0  0  0  0  0999 V2000
  -19.0110  -33.2993   20.3307 C   0  0  0  0  0  0  0  0  0  0  0  0
  -20.3537  -33.0202   20.0969 C   0  0  0  0  0  0  0  0  0  0  0  0
  -25.4483  -10.3637   23.2510 C   0  0  0  0  0  0  0  0  0  0  0  0
  -24.1194   -9.8017   21.3131 C   0  0  0  0  0  0  0  0  0  0  0  0
  -18.3571  -32.7146   21.4144 C   0  0  0  0  0  0  0  0  0  0  0  0
  -21.0436  -32.1570   20.9474 C   0  0  0  0  0  0  0  0  0  0  0  0
  -25.4836  -28.2333   19.3995 C   0  0  0  0  0  0  0  0  0  0  0  0
  -24.5910   -9.6140   24.0563 C   0  0  0  0  0  0  0  0  0  0  0  0
  -23.2622   -9.0519   22.1185 C   0  0  0  0  0  0  0  0  0  0  0  0
  -26.8735  -28.3112   19.4775 C   0  0  0  0  0  0  0  0  0  0  0  0
  -23.2452   -6.0005   23.5707 C   0  0  0  0  0  0  0  0  0  0  0  0
  -22.8620   -4.7409   23.1100 C   0  0  0  0  0  0  0  0  0  0  0  0
  -29.4246  -23.2681   20.6085 C   0  0  0  0  0  0  0  0  0  0  0  0
  -30.4807  -21.3638   18.8648 C   0  0  0  0  0  0  0  0  0  0  0  0
  -26.8154  -27.1327   21.5815 C   0  0  0  0  0  0  0  0  0  0  0  0
  -20.5473   -5.4321   23.1456 C   0  0  0  0  0  0  0  0  0  0  0  0
  -25.2125  -10.4577   21.8794 C   0  0  0  0  0  0  0  0  0  0  0  0
  -29.2961  -21.9098   20.8984 C   0  0  0  0  0  0  0  0  0  0  0  0
  -29.8242  -20.9576   20.0266 C   0  0  0  0  0  0  0  0  0  0  0  0
  -27.2542  -10.7804   20.3845 C   0  0  0  0  0  0  0  0  0  0  0  0
  -19.0368  -31.8362   22.2730 C   0  0  0  0  0  0  0  0  0  0  0  0
  -24.7472  -27.6130   20.4189 C   0  0  0  0  0  0  0  0  0  0  0  0
  -20.3985  -31.5611   22.0444 C   0  0  0  0  0  0  0  0  0  0  0  0
  -25.4165  -27.0460   21.5128 C   0  0  0  0  0  0  0  0  0  0  0  0
  -23.4980   -8.9581   23.4901 C   0  0  0  0  0  0  0  0  0  0  0  0
  -27.5393  -27.7634   20.5700 C   0  0  0  0  0  0  0  0  0  0  0  0
  -22.2794   -6.9759   23.8189 C   0  0  0  0  0  0  0  0  0  0  0  0
  -30.0810  -23.6743   19.4467 C   0  0  0  0  0  0  0  0  0  0  0  0
  -21.5131   -4.4567   22.8974 C   0  0  0  0  0  0  0  0  0  0  0  0
  -30.6091  -22.7221   18.5749 C   0  0  0  0  0  0  0  0  0  0  0  0
  -20.9304   -6.6917   23.6063 C   0  0  0  0  0  0  0  0  0  0  0  0
  -26.0973  -11.2325   21.0470 C   0  0  0  0  0  0  0  0  0  0  0  0
  -27.7329  -11.8909   19.7332 C   0  0  0  0  0  0  0  0  0  0  0  0
  -28.9800  -21.9244   23.3305 C   0  0  0  0  0  0  0  0  0  0  0  0
  -28.6020  -21.5314   22.1245 C   0  0  0  0  0  0  0  0  0  0  0  0
  -29.7132  -19.5269   20.2884 C   0  0  0  0  0  0  0  0  0  0  0  0
  -29.1180  -18.6304   19.4771 C   0  0  0  0  0  0  0  0  0  0  0  0
  -27.8435   -9.4736   20.3600 C   0  0  0  0  0  0  0  0  0  0  0  0
  -29.0957  -17.2094   19.8785 C   0  0  0  0  0  0  0  0  0  0  0  0
  -22.5216  -28.5681   22.4777 C   0  0  0  0  0  0  0  0  0  0  0  0
  -22.4092  -25.4126   23.2207 C   0  0  0  0  0  0  0  0  0  0  0  0
  -23.9918  -22.3894   23.2691 C   0  0  0  0  0  0  0  0  0  0  0  0
  -18.3003  -31.2653   23.4588 C   0  0  0  0  0  0  0  0  0  0  0  0
  -23.2505  -27.5137   20.3068 C   0  0  0  0  0  0  0  0  0  0  0  0
  -24.6737  -26.3514   22.6238 C   0  0  0  0  0  0  0  0  0  0  0  0
  -19.0036  -30.0688   24.0943 C   0  0  0  0  0  0  0  0  0  0  0  0
  -25.6454  -16.4114   18.9350 C   0  0  0  0  0  0  0  0  0  0  0  0
  -20.4897  -30.3594   24.2790 C   0  0  0  0  0  0  0  0  0  0  0  0
  -25.5432  -14.9598   19.3956 C   0  0  0  0  0  0  0  0  0  0  0  0
  -26.5433  -17.2404   19.8520 C   0  0  0  0  0  0  0  0  0  0  0  0
  -27.8017  -15.2063   20.4996 C   0  0  0  0  0  0  0  0  0  0  0  0
  -21.1745  -30.6105   22.9301 C   0  0  1  0  0  0  0  0  0  0  0  0
  -22.5625  -27.3125   21.6535 C   0  0  1  0  0  0  0  0  0  0  0  0
  -26.9406  -14.3428   19.5646 C   0  0  1  0  0  0  0  0  0  0  0  0
  -23.6598  -20.0031   23.9710 C   0  0  0  0  0  0  0  0  0  0  0  0
  -22.8470  -26.2108   26.1329 C   0  0  0  0  0  0  0  0  0  0  0  0
  -23.4495  -23.8305   26.6221 C   0  0  0  0  0  0  0  0  0  0  0  0
  -21.1652  -24.3916   25.7914 C   0  0  0  0  0  0  0  0  0  0  0  0
  -24.3156  -21.4071   20.4961 C   0  0  0  0  0  0  0  0  0  0  0  0
  -30.9935  -27.2392   19.6184 C   0  0  0  0  0  0  0  0  0  0  0  0
  -29.6180  -27.8561   19.4184 C   0  0  0  0  0  0  0  0  0  1  0  0
  -30.9067  -25.8033   20.1111 C   0  0  0  0  0  0  0  0  0  0  0  0
  -23.1279  -24.5192   24.2027 C   0  0  1  0  0  0  0  0  0  0  0  0
  -23.5373  -21.0074   22.8356 C   0  0  2  0  0  0  0  0  0  0  0  0
  -22.6615  -24.7527   25.6675 C   0  0  0  0  0  0  0  0  0  0  0  0
  -25.8557  -12.5291   20.8361 N   0  0  0  0  0  0  0  0  0  0  0  0
  -26.8675  -12.9013   20.0337 N   0  0  0  0  0  0  0  0  0  0  0  0
  -27.8532  -16.6003   20.0449 N   0  0  0  0  0  0  0  0  0  0  0  0
  -23.2108  -26.2856   22.4716 N   0  0  0  0  0  0  0  0  0  0  0  0
  -28.8055  -12.0918   18.9385 N   0  0  0  0  0  0  0  0  0  0  0  0
  -27.2225   -8.4470   21.0845 N   0  0  0  0  0  0  0  0  0  0  0  0
  -21.4130  -29.3590   22.2436 N   0  0  0  0  0  0  0  0  0  0  0  0
  -22.9389  -23.1534   23.7260 N   0  0  0  0  0  0  0  0  0  0  0  0
  -24.3619  -20.5261   21.6913 N   0  3  0  0  0  0  0  0  0  0  0  0
  -28.8988   -9.2274   19.7281 O   0  0  0  0  0  0  0  0  0  0  0  0
  -30.1803  -16.6491   20.0469 O   0  0  0  0  0  0  0  0  0  0  0  0
  -23.4281  -28.8014   23.2686 O   0  0  0  0  0  0  0  0  0  0  0  0
  -21.1826  -25.3335   23.1168 O   0  0  0  0  0  0  0  0  0  0  0  0
  -25.1644  -22.7533   23.2118 O   0  0  0  0  0  0  0  0  0  0  0  0
  -22.6614   -8.2261   24.2756 O   0  0  0  0  0  0  0  0  0  0  0  0
  -28.8958  -27.8386   20.6490 O   0  0  0  0  0  0  0  0  0  1  0  0
  -30.2068  -25.0093   19.1627 O   0  0  0  0  0  0  0  0  0  0  0  0
  -21.1454   -3.2476   22.4535 F   0  0  0  0  0  0  0  0  0  0  0  0
  -31.2412  -23.1063   17.4573 F   0  0  0  0  0  0  0  0  0  0  0  0
  -19.9981   -7.6250   23.8419 F   0  0  0  0  0  0  0  0  0  0  0  0
  1  2  1  0  0  0  0
  1  5  2  0  0  0  0
  2  6  2  0  0  0  0
  3  8  2  0  0  0  0
  3 17  1  0  0  0  0
  4  9  1  0  0  0  0
  4 17  2  0  0  0  0
  5 21  1  0  0  0  0
  6 23  1  0  0  0  0
  7 10  2  0  0  0  0
  7 22  1  0  0  0  0
  8 25  1  0  0  0  0
  9 25  2  0  0  0  0
 10 26  1  0  0  0  0
 11 12  2  0  0  0  0
 11 27  1  0  0  0  0
 12 29  1  0  0  0  0
 13 18  1  0  0  0  0
 13 28  2  0  0  0  0
 14 19  1  0  0  0  0
 14 30  2  0  0  0  0
 15 24  1  0  0  0  0
 15 26  2  0  0  0  0
 16 29  2  0  0  0  0
 16 31  1  0  0  0  0
 17 32  1  0  0  0  0
 18 19  2  0  0  0  0
 18 35  1  0  0  0  0
 19 36  1  0  0  0  0
 20 32  1  0  0  0  0
 20 33  2  0  0  0  0
 20 38  1  0  0  0  0
 21 23  2  0  0  0  0
 21 43  1  0  0  0  0
 22 24  2  0  0  0  0
 22 44  1  0  0  0  0
 23 52  1  0  0  0  0
 24 45  1  0  0  0  0
 25 80  1  0  0  0  0
 26 81  1  0  0  0  0
 27 31  2  0  0  0  0
 27 80  1  0  0  0  0
 28 30  1  0  0  0  0
 28 82  1  0  0  0  0
 29 83  1  0  0  0  0
 30 84  1  0  0  0  0
 31 85  1  0  0  0  0
 32 66  2  0  0  0  0
 33 67  1  0  0  0  0
 33 70  1  0  0  0  0
 34 35  2  0  0  0  0
 36 37  2  0  0  0  0
 37 39  1  0  0  0  0
 38 71  1  0  0  0  0
 38 75  2  0  0  0  0
 39 68  1  0  0  0  0
 39 76  2  0  0  0  0
 40 53  1  0  0  0  0
 40 72  1  0  0  0  0
 40 77  2  0  0  0  0
 41 63  1  0  0  0  0
 41 69  1  0  0  0  0
 41 78  2  0  0  0  0
 42 64  1  0  0  0  0
 42 73  1  0  0  0  0
 42 79  2  0  0  0  0
 43 46  1  0  0  0  0
 44 53  1  0  0  0  0
 45 69  1  0  0  0  0
 46 48  1  0  0  0  0
 47 49  1  0  0  0  0
 47 50  1  0  0  0  0
 48 52  1  0  0  0  0
 49 54  1  0  0  0  0
 50 68  1  0  0  0  0
 51 54  1  0  0  0  0
 51 68  1  0  0  0  0
 52 72  1  0  0  0  0
 53 69  1  0  0  0  0
 54 67  1  0  0  0  0
 55 64  1  0  0  0  0
 56 65  1  0  0  0  0
 57 65  1  0  0  0  0
 58 65  1  0  0  0  0
 59 74  1  0  0  0  0
 60 61  1  0  0  0  0
 60 62  1  0  0  0  0
 61 81  1  0  0  0  0
 62 82  1  0  0  0  0
 63 65  1  0  0  0  0
 63 73  1  0  0  0  0
 64 74  1  0  0  0  0
 66 67  1  0  0  0  0
M  CHG  1  74   1
M  ISO  4  37 100  39 100  61 101  81 101
M  END
> <Batch ID>
0116

> <Smiles>
C=Cc1cc(OCC[101CH2:1][101O:1]c2ccc3c(c2)CN(C(=O)C(NC(=O)C(C)NC)C(C)(C)C)C(C(=O)NC2CCCc4ccccc42)C3)c(F)cc1C=[100CH:0][100C:0](=O)N1CCCC(n2nc(-c3ccc(Oc4ccc(F)cc4F)cc3)c(C(N)=O)c2N)C1

> <Shape>
0.259

> <Color>
0.098

> <Negative vol penalty>
0.000

$$$$

  -OEChem-04052301433D

 87 96  0     1  0  0  0  0  0999 V2000
  -24.1905  -35.7649   25.1230 C   0  0  0  0  0  0  0  0  0  0  0  0
  -25.0953  -34.8971   24.5198 C   0  0  0  0  0  0  0  0  0  0  0  0
  -27.0558  -12.3823   21.6606 C   0  0  0  0  0  0  0  0  0  0  0  0
  -26.3698  -13.8835   19.8964 C   0  0  0  0  0  0  0  0  0  0  0  0
  -22.9874  -35.2746   25.6289 C   0  0  0  0  0  0  0  0  0  0  0  0
  -24.7978  -33.5382   24.4232 C   0  0  0  0  0  0  0  0  0  0  0  0
  -26.3217  -29.7516   19.8575 C   0  0  0  0  0  0  0  0  0  0  0  0
  -26.9738  -23.8792   23.5401 C   0  0  0  0  0  0  0  0  0  0  0  0
  -28.0493  -24.7407   23.3242 C   0  0  0  0  0  0  0  0  0  0  0  0
  -26.2771  -11.3692   21.1014 C   0  0  0  0  0  0  0  0  0  0  0  0
  -25.5910  -12.8704   19.3371 C   0  0  0  0  0  0  0  0  0  0  0  0
  -27.3576  -28.8304   19.7091 C   0  0  0  0  0  0  0  0  0  0  0  0
  -24.1855   -8.4941   20.3380 C   0  0  0  0  0  0  0  0  0  0  0  0
  -23.3910   -7.7354   21.1974 C   0  0  0  0  0  0  0  0  0  0  0  0
  -28.5025  -23.6471   21.2180 C   0  0  0  0  0  0  0  0  0  0  0  0
  -25.8842  -27.0651   20.4385 C   0  0  0  0  0  0  0  0  0  0  0  0
  -22.2168   -9.7347   21.8767 C   0  0  0  0  0  0  0  0  0  0  0  0
  -27.1021  -13.6395   21.0581 C   0  0  0  0  0  0  0  0  0  0  0  0
  -27.4270  -22.7855   21.4340 C   0  0  0  0  0  0  0  0  0  0  0  0
  -29.2552  -14.9749   21.3560 C   0  0  0  0  0  0  0  0  0  0  0  0
  -22.6707  -33.9106   25.5298 C   0  0  0  0  0  0  0  0  0  0  0  0
  -25.0602  -29.3375   20.3087 C   0  0  0  0  0  0  0  0  0  0  0  0
  -23.5899  -33.0290   24.9294 C   0  0  0  0  0  0  0  0  0  0  0  0
  -24.8332  -27.9826   20.5893 C   0  0  0  0  0  0  0  0  0  0  0  0
  -26.6626  -22.9015   22.5951 C   0  0  0  0  0  0  0  0  0  0  0  0
  -28.8136  -24.6247   22.1631 C   0  0  0  0  0  0  0  0  0  0  0  0
  -25.5447  -11.6132   19.9396 C   0  0  0  0  0  0  0  0  0  0  0  0
  -27.1398  -27.4874   20.0024 C   0  0  0  0  0  0  0  0  0  0  0  0
  -23.9958   -9.8731   20.2479 C   0  0  0  0  0  0  0  0  0  0  0  0
  -22.4066   -8.3557   21.9668 C   0  0  0  0  0  0  0  0  0  0  0  0
  -23.0114  -10.4933   21.0172 C   0  0  0  0  0  0  0  0  0  0  0  0
  -27.9059  -14.6866   21.6357 C   0  0  0  0  0  0  0  0  0  0  0  0
  -29.5493  -16.0515   22.1566 C   0  0  0  0  0  0  0  0  0  0  0  0
  -30.7211  -26.1053   22.9366 C   0  0  0  0  0  0  0  0  0  0  0  0
  -27.9688  -20.8105   20.0846 C   0  0  0  0  0  0  0  0  0  0  0  0
  -27.1279  -21.7744   20.4284 C   0  0  0  0  0  0  0  0  0  0  0  0
  -30.1616  -14.3274   20.4533 C   0  0  0  0  0  0  0  0  0  0  0  0
  -23.2537  -30.0011   22.8386 C   0  0  0  0  0  0  0  0  0  0  0  0
  -21.0753  -28.1769   21.2737 C   0  0  0  0  0  0  0  0  0  0  0  0
  -20.4621  -25.7197   18.9862 C   0  0  0  0  0  0  0  0  0  0  0  0
  -26.1814  -20.3585   24.5975 C   0  0  0  0  0  0  0  0  0  0  0  0
  -21.3788  -33.4195   26.1335 C   0  0  0  0  0  0  0  0  0  0  0  0
  -23.9456  -30.3393   20.4380 C   0  0  0  0  0  0  0  0  0  0  0  0
  -23.4915  -27.4836   21.0575 C   0  0  0  0  0  0  0  0  0  0  0  0
  -31.7683  -26.9397   22.2376 C   0  0  0  0  0  0  0  0  0  0  0  0
  -20.9740  -32.0272   25.6562 C   0  0  0  0  0  0  0  0  0  0  0  0
  -31.7788  -26.3835   20.8264 C   0  0  0  0  0  0  0  0  0  0  0  0
  -28.3122  -18.0777   26.3105 C   0  0  0  0  0  0  0  0  0  0  0  0
  -22.1661  -31.0770   25.7094 C   0  0  0  0  0  0  0  0  0  0  0  0
  -28.5715  -16.9760   25.2814 C   0  0  0  0  0  0  0  0  0  0  0  0
  -26.8871  -18.6176   26.2123 C   0  0  0  0  0  0  0  0  0  0  0  0
  -26.7479  -17.9712   23.8382 C   0  0  0  0  0  0  0  0  0  0  0  0
  -23.2922  -31.5524   24.7835 C   0  0  1  0  0  0  0  0  0  0  0  0
  -22.8469  -29.8903   21.3964 C   0  0  1  0  0  0  0  0  0  0  0  0
  -28.1892  -17.4341   23.8611 C   0  0  2  0  0  0  0  0  0  0  0  0
  -30.3413  -25.9253   20.6072 C   0  0  2  0  0  0  0  0  0  0  0  0
  -18.5840  -24.4180   17.9489 C   0  0  0  0  0  0  0  0  0  0  0  0
  -20.8265  -26.5124   23.8188 C   0  0  0  0  0  0  0  0  0  0  0  0
  -19.7121  -24.7289   22.4603 C   0  0  0  0  0  0  0  0  0  0  0  0
  -18.6589  -26.9811   22.6628 C   0  0  0  0  0  0  0  0  0  0  0  0
  -21.1126  -26.7172   16.2768 C   0  0  0  0  0  0  0  0  0  0  0  0
  -25.5034  -21.9954   22.8597 C   0  0  0  0  0  0  0  0  0  0  0  0
  -29.4794  -27.0640   20.0571 C   0  0  0  0  0  0  0  0  0  1  0  0
  -20.7347  -26.7064   21.2459 C   0  0  1  0  0  0  0  0  0  0  0  0
  -19.4802  -25.6410   17.8311 C   0  0  2  0  0  0  0  0  0  0  0  0
  -20.0090  -26.2416   22.5400 C   0  0  0  0  0  0  0  0  0  0  0  0
  -27.3794  -15.5133   22.5431 N   0  0  0  0  0  0  0  0  0  0  0  0
  -28.4031  -16.3315   22.8407 N   0  0  0  0  0  0  0  0  0  0  0  0
  -29.9174  -25.5097   21.9414 N   0  0  0  0  0  0  0  0  0  0  0  0
  -22.4353  -28.5027   21.1743 N   0  0  0  0  0  0  0  0  0  0  0  0
  -26.5886  -19.0363   24.8407 N   0  0  0  0  0  0  0  0  0  0  0  0
  -30.6741  -16.7764   22.3351 N   0  0  0  0  0  0  0  0  0  0  0  0
  -29.6958  -13.2363   19.7070 N   0  0  0  0  0  0  0  0  0  0  0  0
  -22.9837  -31.2315   23.4064 N   0  0  0  0  0  0  0  0  0  0  0  0
  -19.9721  -26.4871   20.0216 N   0  0  0  0  0  0  0  0  0  0  0  0
  -25.9246  -20.6741   23.2689 N   0  0  0  0  0  0  0  0  0  0  0  0
  -20.2109  -25.5651   16.5344 N   0  3  0  0  0  0  0  0  0  0  0  0
  -30.6449  -26.0444   24.1553 O   0  0  0  0  0  0  0  0  0  0  0  0
  -31.3540  -14.6949   20.3246 O   0  0  0  0  0  0  0  0  0  0  0  0
  -23.7728  -29.0407   23.3954 O   0  0  0  0  0  0  0  0  0  0  0  0
  -20.1674  -29.0061   21.3726 O   0  0  0  0  0  0  0  0  0  0  0  0
  -21.5529  -25.1536   18.9729 O   0  0  0  0  0  0  0  0  0  0  0  0
  -26.0613  -21.1972   25.4970 O   0  0  0  0  0  0  0  0  0  0  0  0
  -24.7849  -10.6248   19.3935 O   0  0  0  0  0  0  0  0  0  0  0  0
  -28.1494  -26.5863   19.8590 O   0  0  0  0  0  0  0  0  0  1  0  0
  -21.6426   -7.6268   22.7909 F   0  0  0  0  0  0  0  0  0  0  0  0
  -22.8236  -11.8176   20.9340 F   0  0  0  0  0  0  0  0  0  0  0  0
  1  2  1  0  0  0  0
  1  5  2  0  0  0  0
  2  6  2  0  0  0  0
  3 10  2  0  0  0  0
  3 18  1  0  0  0  0
  4 11  1  0  0  0  0
  4 18  2  0  0  0  0
  5 21  1  0  0  0  0
  6 23  1  0  0  0  0
  7 12  2  0  0  0  0
  7 22  1  0  0  0  0
  8  9  2  0  0  0  0
  8 25  1  0  0  0  0
  9 26  1  0  0  0  0
 10 27  1  0  0  0  0
 11 27  2  0  0  0  0
 12 28  1  0  0  0  0
 13 14  2  0  0  0  0
 13 29  1  0  0  0  0
 14 30  1  0  0  0  0
 15 19  1  0  0  0  0
 15 26  2  0  0  0  0
 16 24  1  0  0  0  0
 16 28  2  0  0  0  0
 17 30  2  0  0  0  0
 17 31  1  0  0  0  0
 18 32  1  0  0  0  0
 19 25  2  0  0  0  0
 19 36  1  0  0  0  0
 20 32  1  0  0  0  0
 20 33  2  0  0  0  0
 20 37  1  0  0  0  0
 21 23  2  0  0  0  0
 21 42  1  0  0  0  0
 22 24  2  0  0  0  0
 22 43  1  0  0  0  0
 23 53  1  0  0  0  0
 24 44  1  0  0  0  0
 25 62  1  0  0  0  0
 26 69  1  0  0  0  0
 27 84  1  0  0  0  0
 28 85  1  0  0  0  0
 29 31  2  0  0  0  0
 29 84  1  0  0  0  0
 30 86  1  0  0  0  0
 31 87  1  0  0  0  0
 32 67  2  0  0  0  0
 33 68  1  0  0  0  0
 33 72  1  0  0  0  0
 34 45  1  0  0  0  0
 34 69  1  0  0  0  0
 34 78  2  0  0  0  0
 35 36  2  0  0  0  0
 37 73  1  0  0  0  0
 37 79  2  0  0  0  0
 38 54  1  0  0  0  0
 38 74  1  0  0  0  0
 38 80  2  0  0  0  0
 39 64  1  0  0  0  0
 39 70  1  0  0  0  0
 39 81  2  0  0  0  0
 40 65  1  0  0  0  0
 40 75  1  0  0  0  0
 40 82  2  0  0  0  0
 41 71  1  0  0  0  0
 41 76  1  0  0  0  0
 41 83  2  0  0  0  0
 42 46  1  0  0  0  0
 43 54  1  0  0  0  0
 44 70  1  0  0  0  0
 45 47  1  0  0  0  0
 46 49  1  0  0  0  0
 47 56  1  0  0  0  0
 48 50  1  0  0  0  0
 48 51  1  0  0  0  0
 49 53  1  0  0  0  0
 50 55  1  0  0  0  0
 51 71  1  0  0  0  0
 52 55  1  0  0  0  0
 52 71  1  0  0  0  0
 53 74  1  0  0  0  0
 54 70  1  0  0  0  0
 55 68  1  0  0  0  0
 56 63  1  0  0  0  0
 56 69  1  0  0  0  0
 57 65  1  0  0  0  0
 58 66  1  0  0  0  0
 59 66  1  0  0  0  0
 60 66  1  0  0  0  0
 61 77  1  0  0  0  0
 62 76  1  0  0  0  0
 63 85  1  0  0  0  0
 64 66  1  0  0  0  0
 64 75  1  0  0  0  0
 65 77  1  0  0  0  0
 67 68  1  0  0  0  0
M  CHG  1  77   1
M  ISO  4  41 100  63 101  76 100  85 101
M  END
> <Batch ID>
0116

> <Smiles>
C=Cc1cc(N2C(=O)CCC2[101CH2:1][101O:1]c2ccc3c(c2)CN(C(=O)C(NC(=O)C(C)NC)C(C)(C)C)C(C(=O)NC2CCCc4ccccc42)C3)ccc1C[100NH:0][100C:0](=O)N1CCCC(n2nc(-c3ccc(Oc4ccc(F)cc4F)cc3)c(C(N)=O)c2N)C1

> <Shape>
0.259

> <Color>
0.094

> <Negative vol penalty>
0.000

$$$$

  -OEChem-04052301433D

 85 93  0     1  0  0  0  0  0999 V2000
  -31.2557  -34.9189   22.9030 C   0  0  0  0  0  0  0  0  0  0  0  0
  -31.1029  -33.7220   22.2106 C   0  0  0  0  0  0  0  0  0  0  0  0
  -22.8906  -10.1938   19.9819 C   0  0  0  0  0  0  0  0  0  0  0  0
  -24.0559   -9.5716   22.0048 C   0  0  0  0  0  0  0  0  0  0  0  0
  -29.9822  -17.2583   20.7228 C   0  0  0  0  0  0  0  0  0  0  0  0
  -30.4511  -35.1908   24.0087 C   0  0  0  0  0  0  0  0  0  0  0  0
  -30.1460  -32.7958   22.6241 C   0  0  0  0  0  0  0  0  0  0  0  0
  -26.8288  -29.0864   19.0544 C   0  0  0  0  0  0  0  0  0  0  0  0
  -29.2919  -18.4699   20.6903 C   0  0  0  0  0  0  0  0  0  0  0  0
  -22.1294   -9.0277   20.0617 C   0  0  0  0  0  0  0  0  0  0  0  0
  -23.2947   -8.4055   22.0846 C   0  0  0  0  0  0  0  0  0  0  0  0
  -26.9745  -27.7450   18.7037 C   0  0  0  0  0  0  0  0  0  0  0  0
  -20.1851   -7.5255   23.0729 C   0  0  0  0  0  0  0  0  0  0  0  0
  -19.6542   -7.1839   24.3167 C   0  0  0  0  0  0  0  0  0  0  0  0
  -25.4422  -27.1254   20.4608 C   0  0  0  0  0  0  0  0  0  0  0  0
  -28.2425  -17.9286   22.7981 C   0  0  0  0  0  0  0  0  0  0  0  0
  -20.8767   -5.1006   24.2662 C   0  0  0  0  0  0  0  0  0  0  0  0
  -23.8539  -10.4658   20.9534 C   0  0  0  0  0  0  0  0  0  0  0  0
  -29.8027  -16.3818   21.7930 C   0  0  0  0  0  0  0  0  0  0  0  0
  -24.3365  -12.9244   21.4327 C   0  0  0  0  0  0  0  0  0  0  0  0
  -29.4773  -34.2717   24.4302 C   0  0  0  0  0  0  0  0  0  0  0  0
  -25.9957  -29.4572   20.1197 C   0  0  0  0  0  0  0  0  0  0  0  0
  -29.3285  -33.0551   23.7373 C   0  0  0  0  0  0  0  0  0  0  0  0
  -25.2856  -28.4725   20.8213 C   0  0  0  0  0  0  0  0  0  0  0  0
  -28.9329  -16.7170   22.8307 C   0  0  0  0  0  0  0  0  0  0  0  0
  -28.4221  -18.8050   21.7279 C   0  0  0  0  0  0  0  0  0  0  0  0
  -22.3314   -8.1336   21.1130 C   0  0  0  0  0  0  0  0  0  0  0  0
  -26.2834  -26.7640   19.4088 C   0  0  0  0  0  0  0  0  0  0  0  0
  -21.0618   -6.6547   22.4257 C   0  0  0  0  0  0  0  0  0  0  0  0
  -20.0000   -5.9714   24.9133 C   0  0  0  0  0  0  0  0  0  0  0  0
  -21.4076   -5.4422   23.0224 C   0  0  0  0  0  0  0  0  0  0  0  0
  -24.6409  -11.6699   20.8712 C   0  0  0  0  0  0  0  0  0  0  0  0
  -25.3915  -13.7268   21.0728 C   0  0  0  0  0  0  0  0  0  0  0  0
  -30.5367  -15.1235   21.8019 C   0  0  0  0  0  0  0  0  0  0  0  0
  -23.2016  -13.3283   22.2102 C   0  0  0  0  0  0  0  0  0  0  0  0
  -30.9137  -14.4439   20.5413 C   0  0  0  0  0  0  0  0  0  0  0  0
  -26.4382  -30.9052   22.9146 C   0  0  0  0  0  0  0  0  0  0  0  0
  -23.2001  -30.7734   23.0540 C   0  0  0  0  0  0  0  0  0  0  0  0
  -20.3157  -29.2588   22.0377 C   0  0  0  0  0  0  0  0  0  0  0  0
  -28.6633  -34.5892   25.6596 C   0  0  0  0  0  0  0  0  0  0  0  0
  -25.8285  -30.9108   20.4683 C   0  0  0  0  0  0  0  0  0  0  0  0
  -24.3630  -28.8199   21.9600 C   0  0  0  0  0  0  0  0  0  0  0  0
  -27.4176  -33.7192   25.8067 C   0  0  0  0  0  0  0  0  0  0  0  0
  -29.1527  -12.9645   17.7905 C   0  0  0  0  0  0  0  0  0  0  0  0
  -27.7593  -32.2524   25.5645 C   0  0  0  0  0  0  0  0  0  0  0  0
  -27.8116  -12.5639   18.4043 C   0  0  0  0  0  0  0  0  0  0  0  0
  -30.2914  -12.8215   18.7951 C   0  0  0  0  0  0  0  0  0  0  0  0
  -28.7280  -13.1777   20.6865 C   0  0  0  0  0  0  0  0  0  0  0  0
  -28.2847  -32.0362   24.1402 C   0  0  1  0  0  0  0  0  0  0  0  0
  -25.3523  -31.1308   21.9009 C   0  0  1  0  0  0  0  0  0  0  0  0
  -27.5495  -13.3353   19.7100 C   0  0  2  0  0  0  0  0  0  0  0  0
  -29.4731  -16.2562   25.2353 C   0  0  0  0  0  0  0  0  0  0  0  0
  -17.8275  -29.3483   22.3513 C   0  0  0  0  0  0  0  0  0  0  0  0
  -23.4970  -29.4251   25.7750 C   0  0  0  0  0  0  0  0  0  0  0  0
  -21.1080  -28.6976   25.5973 C   0  0  0  0  0  0  0  0  0  0  0  0
  -21.6694  -31.1276   25.6482 C   0  0  0  0  0  0  0  0  0  0  0  0
  -19.8589  -29.8413   19.1722 C   0  0  0  0  0  0  0  0  0  0  0  0
  -28.7231  -15.7969   23.9889 C   0  0  0  0  0  0  0  0  0  0  0  0
  -27.0196  -22.2148   20.9129 C   0  0  0  0  0  0  0  0  0  0  0  0
  -27.1585  -23.2809   19.8252 C   0  0  0  0  0  0  0  0  0  0  0  0
  -27.8585  -20.9720   20.6269 C   0  0  0  0  0  0  0  0  0  0  0  0
  -26.2816  -24.4928   20.1142 C   0  0  0  0  0  0  0  0  0  1  0  0
  -22.1921  -29.7779   23.5753 C   0  0  1  0  0  0  0  0  0  0  0  0
  -19.0071  -29.8284   21.5202 C   0  0  2  0  0  0  0  0  0  0  0  0
  -22.1354  -29.7500   25.1288 C   0  0  0  0  0  0  0  0  0  0  0  0
  -25.7986  -11.6704   20.2051 N   0  0  0  0  0  0  0  0  0  0  0  0
  -30.9076  -14.5207   22.8976 N   0  0  0  0  0  0  0  0  0  0  0  0
  -26.2309  -12.9351   20.3456 N   0  0  0  0  0  0  0  0  0  0  0  0
  -29.9947  -13.5352   20.0355 N   0  0  0  0  0  0  0  0  0  0  0  0
  -24.2378  -30.2544   22.2669 N   0  0  0  0  0  0  0  0  0  0  0  0
  -25.6738  -15.0254   21.3105 N   0  0  0  0  0  0  0  0  0  0  0  0
  -22.2098  -12.3778   22.4883 N   0  0  0  0  0  0  0  0  0  0  0  0
  -27.7349  -20.0080   21.6943 N   0  0  0  0  0  0  0  0  0  0  0  0
  -27.1904  -32.0304   23.1932 N   0  0  0  0  0  0  0  0  0  0  0  0
  -20.9229  -30.1097   22.9369 N   0  0  0  0  0  0  0  0  0  0  0  0
  -18.7852  -29.4142   20.1060 N   0  3  0  0  0  0  0  0  0  0  0  0
  -23.0628  -14.5016   22.6316 O   0  0  0  0  0  0  0  0  0  0  0  0
  -32.0023  -14.7580   20.0779 O   0  0  0  0  0  0  0  0  0  0  0  0
  -26.5821  -29.7930   23.4086 O   0  0  0  0  0  0  0  0  0  0  0  0
  -23.0675  -31.9686   23.3290 O   0  0  0  0  0  0  0  0  0  0  0  0
  -20.7534  -28.1666   21.6828 O   0  0  0  0  0  0  0  0  0  0  0  0
  -21.5887   -6.9957   21.1913 O   0  0  0  0  0  0  0  0  0  0  0  0
  -26.4244  -25.4538   19.0690 O   0  0  0  0  0  0  0  0  0  1  0  0
  -19.4913   -5.6441   26.1084 F   0  0  0  0  0  0  0  0  0  0  0  0
  -22.2502   -4.6021   22.4060 F   0  0  0  0  0  0  0  0  0  0  0  0
  1  2  1  0  0  0  0
  1  6  2  0  0  0  0
  2  7  2  0  0  0  0
  3 10  2  0  0  0  0
  3 18  1  0  0  0  0
  4 11  1  0  0  0  0
  4 18  2  0  0  0  0
  5  9  2  0  0  0  0
  5 19  1  0  0  0  0
  6 21  1  0  0  0  0
  7 23  1  0  0  0  0
  8 12  2  0  0  0  0
  8 22  1  0  0  0  0
  9 26  1  0  0  0  0
 10 27  1  0  0  0  0
 11 27  2  0  0  0  0
 12 28  1  0  0  0  0
 13 14  2  0  0  0  0
 13 29  1  0  0  0  0
 14 30  1  0  0  0  0
 15 24  1  0  0  0  0
 15 28  2  0  0  0  0
 16 25  1  0  0  0  0
 16 26  2  0  0  0  0
 17 30  2  0  0  0  0
 17 31  1  0  0  0  0
 18 32  1  0  0  0  0
 19 25  2  0  0  0  0
 19 34  1  0  0  0  0
 20 32  1  0  0  0  0
 20 33  2  0  0  0  0
 20 35  1  0  0  0  0
 21 23  2  0  0  0  0
 21 40  1  0  0  0  0
 22 24  2  0  0  0  0
 22 41  1  0  0  0  0
 23 49  1  0  0  0  0
 24 42  1  0  0  0  0
 25 58  1  0  0  0  0
 26 73  1  0  0  0  0
 27 82  1  0  0  0  0
 28 83  1  0  0  0  0
 29 31  2  0  0  0  0
 29 82  1  0  0  0  0
 30 84  1  0  0  0  0
 31 85  1  0  0  0  0
 32 66  2  0  0  0  0
 33 68  1  0  0  0  0
 33 71  1  0  0  0  0
 34 36  1  0  0  0  0
 34 67  2  0  0  0  0
 35 72  1  0  0  0  0
 35 77  2  0  0  0  0
 36 69  1  0  0  0  0
 36 78  2  0  0  0  0
 37 50  1  0  0  0  0
 37 74  1  0  0  0  0
 37 79  2  0  0  0  0
 38 63  1  0  0  0  0
 38 70  1  0  0  0  0
 38 80  2  0  0  0  0
 39 64  1  0  0  0  0
 39 75  1  0  0  0  0
 39 81  2  0  0  0  0
 40 43  1  0  0  0  0
 41 50  1  0  0  0  0
 42 70  1  0  0  0  0
 43 45  1  0  0  0  0
 44 46  1  0  0  0  0
 44 47  1  0  0  0  0
 45 49  1  0  0  0  0
 46 51  1  0  0  0  0
 47 69  1  0  0  0  0
 48 51  1  0  0  0  0
 48 69  1  0  0  0  0
 49 74  1  0  0  0  0
 50 70  1  0  0  0  0
 51 68  1  0  0  0  0
 52 58  1  0  0  0  0
 53 64  1  0  0  0  0
 54 65  1  0  0  0  0
 55 65  1  0  0  0  0
 56 65  1  0  0  0  0
 57 76  1  0  0  0  0
 59 60  1  0  0  0  0
 59 61  1  0  0  0  0
 60 62  1  0  0  0  0
 61 73  1  0  0  0  0
 62 83  1  0  0  0  0
 63 65  1  0  0  0  0
 63 75  1  0  0  0  0
 64 76  1  0  0  0  0
 66 68  1  0  0  0  0
M  CHG  1  76   1
M  ISO  4  34 100  36 100  62 101  83 101
M  END
> <Batch ID>
0116

> <Smiles>
CCc1cc(NCCC[101CH2:1][101O:1]c2ccc3c(c2)CN(C(=O)C(NC(=O)C(C)NC)C(C)(C)C)C(C(=O)NC2CCCc4ccccc42)C3)ccc1[100C:0](=N)[100C:0](=O)N1CCCC(n2nc(-c3ccc(Oc4ccc(F)cc4F)cc3)c(C(N)=O)c2N)C1

> <Shape>
0.350

> <Color>
0.201

> <Negative vol penalty>
0.000

$$$$

  -OEChem-04052301433D

 87 95  0     1  0  0  0  0  0999 V2000
  -27.4840  -23.8027   17.5443 C   0  0  0  0  0  0  0  0  0  0  0  0
  -26.5114  -24.7890   17.6635 C   0  0  0  0  0  0  0  0  0  0  0  0
  -26.4488  -14.8690   21.4387 C   0  0  0  0  0  0  0  0  0  0  0  0
  -26.4739  -14.6305   19.0347 C   0  0  0  0  0  0  0  0  0  0  0  0
  -28.4244  -23.6304   18.5578 C   0  0  0  0  0  0  0  0  0  0  0  0
  -26.4862  -25.6112   18.7905 C   0  0  0  0  0  0  0  0  0  0  0  0
  -23.2970  -29.3570   18.7534 C   0  0  0  0  0  0  0  0  0  0  0  0
  -26.3156  -13.4872   21.5745 C   0  0  0  0  0  0  0  0  0  0  0  0
  -26.3408  -13.2486   19.1704 C   0  0  0  0  0  0  0  0  0  0  0  0
  -21.9204  -29.1761   18.8797 C   0  0  0  0  0  0  0  0  0  0  0  0
  -26.3319   -9.9885   22.5613 C   0  0  0  0  0  0  0  0  0  0  0  0
  -27.1290   -9.3505   23.5116 C   0  0  0  0  0  0  0  0  0  0  0  0
  -22.5323  -23.9530   23.7368 C   0  0  0  0  0  0  0  0  0  0  0  0
  -22.0402  -29.9127   21.1737 C   0  0  0  0  0  0  0  0  0  0  0  0
  -20.3425  -24.6863   24.4468 C   0  0  0  0  0  0  0  0  0  0  0  0
  -29.1117  -10.1255   22.3690 C   0  0  0  0  0  0  0  0  0  0  0  0
  -26.5279  -15.4407   20.1688 C   0  0  0  0  0  0  0  0  0  0  0  0
  -22.2364  -24.3359   22.4286 C   0  0  0  0  0  0  0  0  0  0  0  0
  -20.9936  -24.8941   22.1295 C   0  0  0  0  0  0  0  0  0  0  0  0
  -27.8626  -17.6053   19.9671 C   0  0  0  0  0  0  0  0  0  0  0  0
  -28.4023  -24.4431   19.7032 C   0  0  0  0  0  0  0  0  0  0  0  0
  -24.0585  -29.8075   19.8414 C   0  0  0  0  0  0  0  0  0  0  0  0
  -27.4414  -25.4687   19.8132 C   0  0  0  0  0  0  0  0  0  0  0  0
  -23.4259  -30.1009   21.0579 C   0  0  0  0  0  0  0  0  0  0  0  0
  -26.2617  -12.6770   20.4404 C   0  0  0  0  0  0  0  0  0  0  0  0
  -21.2922  -29.4512   20.0908 C   0  0  0  0  0  0  0  0  0  0  0  0
  -26.9247  -10.6950   21.5147 C   0  0  0  0  0  0  0  0  0  0  0  0
  -20.0466  -25.0693   23.1386 C   0  0  0  0  0  0  0  0  0  0  0  0
  -28.5189   -9.4190   23.4155 C   0  0  0  0  0  0  0  0  0  0  0  0
  -21.5853  -24.1281   24.7459 C   0  0  0  0  0  0  0  0  0  0  0  0
  -28.3146  -10.7635   21.4186 C   0  0  0  0  0  0  0  0  0  0  0  0
  -26.6648  -16.8681   20.0279 C   0  0  0  0  0  0  0  0  0  0  0  0
  -27.4561  -18.9103   19.8325 C   0  0  0  0  0  0  0  0  0  0  0  0
  -20.0786  -24.5018   19.8881 C   0  0  0  0  0  0  0  0  0  0  0  0
  -20.6725  -25.2965   20.7631 C   0  0  0  0  0  0  0  0  0  0  0  0
  -23.2559  -24.1344   21.4051 C   0  0  0  0  0  0  0  0  0  0  0  0
  -29.2212  -17.1510   20.0268 C   0  0  0  0  0  0  0  0  0  0  0  0
  -24.2326  -23.0312   21.5039 C   0  0  0  0  0  0  0  0  0  0  0  0
  -26.4499  -28.6058   21.5564 C   0  0  0  0  0  0  0  0  0  0  0  0
  -18.1904  -28.1005   21.4004 C   0  0  0  0  0  0  0  0  0  0  0  0
  -26.4378  -31.5505   22.9169 C   0  0  0  0  0  0  0  0  0  0  0  0
  -24.7019  -34.3954   23.6515 C   0  0  0  0  0  0  0  0  0  0  0  0
  -29.4488  -24.2185   20.7661 C   0  0  0  0  0  0  0  0  0  0  0  0
  -25.5385  -30.0230   19.6810 C   0  0  0  0  0  0  0  0  0  0  0  0
  -24.1952  -30.6062   22.2501 C   0  0  0  0  0  0  0  0  0  0  0  0
  -29.0728  -24.8339   22.1100 C   0  0  0  0  0  0  0  0  0  0  0  0
  -22.9167  -20.8742   18.8492 C   0  0  0  0  0  0  0  0  0  0  0  0
  -28.6353  -26.2781   21.9161 C   0  0  0  0  0  0  0  0  0  0  0  0
  -23.8547  -19.6746   18.9535 C   0  0  0  0  0  0  0  0  0  0  0  0
  -22.6435  -21.5067   20.2130 C   0  0  0  0  0  0  0  0  0  0  0  0
  -24.8202  -20.6795   21.0602 C   0  0  0  0  0  0  0  0  0  0  0  0
  -27.3757  -26.3547   21.0441 C   0  0  1  0  0  0  0  0  0  0  0  0
  -26.2934  -29.9953   21.0064 C   0  0  1  0  0  0  0  0  0  0  0  0
  -25.1463  -20.0564   19.6939 C   0  0  1  0  0  0  0  0  0  0  0  0
  -24.9473  -36.6102   24.8057 C   0  0  0  0  0  0  0  0  0  0  0  0
  -26.2165  -30.1612   25.6245 C   0  0  0  0  0  0  0  0  0  0  0  0
  -25.5181  -32.3526   26.6136 C   0  0  0  0  0  0  0  0  0  0  0  0
  -27.7757  -32.1160   25.5793 C   0  0  0  0  0  0  0  0  0  0  0  0
  -24.1625  -35.8880   21.1535 C   0  0  0  0  0  0  0  0  0  0  0  0
  -17.5643  -27.6775   22.7211 C   0  0  0  0  0  0  0  0  0  0  0  0
  -19.4583  -28.9247   21.5105 C   0  0  0  0  0  0  0  0  0  1  0  0
  -18.4868  -26.8125   23.5677 C   0  0  0  0  0  0  0  0  0  0  0  0
  -25.7320  -32.1821   24.0925 C   0  0  1  0  0  0  0  0  0  0  0  0
  -25.0557  -35.8624   23.4859 C   0  0  2  0  0  0  0  0  0  0  0  0
  -26.2961  -31.6916   25.4558 C   0  0  0  0  0  0  0  0  0  0  0  0
  -25.5788  -17.6406   19.9394 N   0  0  0  0  0  0  0  0  0  0  0  0
  -23.3709  -24.8970   20.3544 N   0  0  0  0  0  0  0  0  0  0  0  0
  -26.0927  -18.8768   19.8216 N   0  0  0  0  0  0  0  0  0  0  0  0
  -23.8935  -21.8090   20.9263 N   0  0  0  0  0  0  0  0  0  0  0  0
  -25.6409  -30.7947   22.0453 N   0  0  0  0  0  0  0  0  0  0  0  0
  -28.1355  -20.0718   19.7236 N   0  0  0  0  0  0  0  0  0  0  0  0
  -29.4608  -15.7771   20.1664 N   0  0  0  0  0  0  0  0  0  0  0  0
  -27.1152  -27.7380   20.7115 N   0  0  0  0  0  0  0  0  0  0  0  0
  -25.8193  -33.6248   23.8939 N   0  0  0  0  0  0  0  0  0  0  0  0
  -24.1402  -36.5083   22.5032 N   0  3  0  0  0  0  0  0  0  0  0  0
  -30.1937  -17.9416   19.9749 O   0  0  0  0  0  0  0  0  0  0  0  0
  -25.2887  -23.2583   22.0970 O   0  0  0  0  0  0  0  0  0  0  0  0
  -26.0016  -28.3411   22.6657 O   0  0  0  0  0  0  0  0  0  0  0  0
  -17.7087  -27.7966   20.3102 O   0  0  0  0  0  0  0  0  0  0  0  0
  -27.6501  -31.7272   22.7733 O   0  0  0  0  0  0  0  0  0  0  0  0
  -23.5491  -33.9758   23.5772 O   0  0  0  0  0  0  0  0  0  0  0  0
  -26.1320  -11.3286   20.5725 O   0  0  0  0  0  0  0  0  0  0  0  0
  -19.9488  -29.2749   20.2170 O   0  0  0  0  0  0  0  0  0  1  0  0
  -18.8175  -25.6147   22.8758 O   0  0  0  0  0  0  0  0  0  0  0  0
  -29.2842   -8.8075   24.3290 F   0  0  0  0  0  0  0  0  0  0  0  0
  -21.8696  -23.7612   26.0025 F   0  0  0  0  0  0  0  0  0  0  0  0
  -28.8898  -11.4417   20.4161 F   0  0  0  0  0  0  0  0  0  0  0  0
  1  2  1  0  0  0  0
  1  5  2  0  0  0  0
  2  6  2  0  0  0  0
  3  8  2  0  0  0  0
  3 17  1  0  0  0  0
  4  9  1  0  0  0  0
  4 17  2  0  0  0  0
  5 21  1  0  0  0  0
  6 23  1  0  0  0  0
  7 10  2  0  0  0  0
  7 22  1  0  0  0  0
  8 25  1  0  0  0  0
  9 25  2  0  0  0  0
 10 26  1  0  0  0  0
 11 12  2  0  0  0  0
 11 27  1  0  0  0  0
 12 29  1  0  0  0  0
 13 18  1  0  0  0  0
 13 30  2  0  0  0  0
 14 24  1  0  0  0  0
 14 26  2  0  0  0  0
 15 28  2  0  0  0  0
 15 30  1  0  0  0  0
 16 29  2  0  0  0  0
 16 31  1  0  0  0  0
 17 32  1  0  0  0  0
 18 19  2  0  0  0  0
 18 36  1  0  0  0  0
 19 28  1  0  0  0  0
 19 35  1  0  0  0  0
 20 32  1  0  0  0  0
 20 33  2  0  0  0  0
 20 37  1  0  0  0  0
 21 23  2  0  0  0  0
 21 43  1  0  0  0  0
 22 24  2  0  0  0  0
 22 44  1  0  0  0  0
 23 52  1  0  0  0  0
 24 45  1  0  0  0  0
 25 82  1  0  0  0  0
 26 83  1  0  0  0  0
 27 31  2  0  0  0  0
 27 82  1  0  0  0  0
 28 84  1  0  0  0  0
 29 85  1  0  0  0  0
 30 86  1  0  0  0  0
 31 87  1  0  0  0  0
 32 66  2  0  0  0  0
 33 68  1  0  0  0  0
 33 71  1  0  0  0  0
 34 35  2  0  0  0  0
 36 38  1  0  0  0  0
 36 67  2  0  0  0  0
 37 72  1  0  0  0  0
 37 76  2  0  0  0  0
 38 69  1  0  0  0  0
 38 77  2  0  0  0  0
 39 53  1  0  0  0  0
 39 73  1  0  0  0  0
 39 78  2  0  0  0  0
 40 60  1  0  0  0  0
 40 61  1  0  0  0  0
 40 79  2  0  0  0  0
 41 63  1  0  0  0  0
 41 70  1  0  0  0  0
 41 80  2  0  0  0  0
 42 64  1  0  0  0  0
 42 74  1  0  0  0  0
 42 81  2  0  0  0  0
 43 46  1  0  0  0  0
 44 53  1  0  0  0  0
 45 70  1  0  0  0  0
 46 48  1  0  0  0  0
 47 49  1  0  0  0  0
 47 50  1  0  0  0  0
 48 52  1  0  0  0  0
 49 54  1  0  0  0  0
 50 69  1  0  0  0  0
 51 54  1  0  0  0  0
 51 69  1  0  0  0  0
 52 73  1  0  0  0  0
 53 70  1  0  0  0  0
 54 68  1  0  0  0  0
 55 64  1  0  0  0  0
 56 65  1  0  0  0  0
 57 65  1  0  0  0  0
 58 65  1  0  0  0  0
 59 75  1  0  0  0  0
 60 62  1  0  0  0  0
 61 83  1  0  0  0  0
 62 84  1  0  0  0  0
 63 65  1  0  0  0  0
 63 74  1  0  0  0  0
 64 75  1  0  0  0  0
 66 68  1  0  0  0  0
M  CHG  1  75   1
M  ISO  4  36 100  38 100  61 101  83 101
M  END
> <Batch ID>
0116

> <Smiles>
C=Cc1c(OCCC(=O)[101CH2:1][101O:1]c2ccc3c(c2)CN(C(=O)C(NC(=O)C(C)NC)C(C)(C)C)C(C(=O)NC2CCCc4ccccc42)C3)cc(F)cc1[100C:0](=N)[100C:0](=O)N1CCCC(n2nc(-c3ccc(Oc4ccc(F)cc4F)cc3)c(C(N)=O)c2N)C1

> <Shape>
0.266

> <Color>
0.086

> <Negative vol penalty>
0.000

$$$$

  -OEChem-04052301433D

 84 92  0     1  0  0  0  0  0999 V2000
  -21.7008  -19.8192   20.3466 C   0  0  0  0  0  0  0  0  0  0  0  0
  -22.7338  -20.7507   20.3209 C   0  0  0  0  0  0  0  0  0  0  0  0
  -24.3521  -11.3006   20.2383 C   0  0  0  0  0  0  0  0  0  0  0  0
  -24.7393  -11.2037   22.6211 C   0  0  0  0  0  0  0  0  0  0  0  0
  -31.5031  -21.5278   18.1057 C   0  0  0  0  0  0  0  0  0  0  0  0
  -20.3804  -20.2399   20.1941 C   0  0  0  0  0  0  0  0  0  0  0  0
  -22.4470  -22.1035   20.1417 C   0  0  0  0  0  0  0  0  0  0  0  0
  -25.0304  -25.0757   23.3255 C   0  0  0  0  0  0  0  0  0  0  0  0
  -24.1621   -9.9190   20.2130 C   0  0  0  0  0  0  0  0  0  0  0  0
  -24.5492   -9.8221   22.5958 C   0  0  0  0  0  0  0  0  0  0  0  0
  -32.5283  -22.4614   17.9537 C   0  0  0  0  0  0  0  0  0  0  0  0
  -26.3674  -25.3261   23.0196 C   0  0  0  0  0  0  0  0  0  0  0  0
  -23.8099   -6.3173   23.2189 C   0  0  0  0  0  0  0  0  0  0  0  0
  -23.0089   -5.7539   24.2121 C   0  0  0  0  0  0  0  0  0  0  0  0
  -30.0974  -23.2310   19.0856 C   0  0  0  0  0  0  0  0  0  0  0  0
  -25.7500  -27.4709   22.1043 C   0  0  0  0  0  0  0  0  0  0  0  0
  -21.1453   -7.1029   23.4744 C   0  0  0  0  0  0  0  0  0  0  0  0
  -24.6408  -11.9430   21.4423 C   0  0  0  0  0  0  0  0  0  0  0  0
  -30.2876  -21.9126   18.6716 C   0  0  0  0  0  0  0  0  0  0  0  0
  -23.8570  -14.3600   21.6688 C   0  0  0  0  0  0  0  0  0  0  0  0
  -20.0764  -21.5996   20.0226 C   0  0  0  0  0  0  0  0  0  0  0  0
  -24.0401  -26.0180   23.0126 C   0  0  0  0  0  0  0  0  0  0  0  0
  -21.1213  -22.5426   19.9854 C   0  0  0  0  0  0  0  0  0  0  0  0
  -24.4015  -27.2312   22.4095 C   0  0  0  0  0  0  0  0  0  0  0  0
  -24.2606   -9.1797   21.3917 C   0  0  0  0  0  0  0  0  0  0  0  0
  -26.7270  -26.5226   22.4063 C   0  0  0  0  0  0  0  0  0  0  0  0
  -32.3381  -23.7797   18.3677 C   0  0  0  0  0  0  0  0  0  0  0  0
  -23.2787   -7.2737   22.3535 C   0  0  0  0  0  0  0  0  0  0  0  0
  -31.1226  -24.1645   18.9337 C   0  0  0  0  0  0  0  0  0  0  0  0
  -21.6766   -6.1466   24.3399 C   0  0  0  0  0  0  0  0  0  0  0  0
  -21.9463   -7.6664   22.4812 C   0  0  0  0  0  0  0  0  0  0  0  0
  -24.8378  -13.3700   21.4690 C   0  0  0  0  0  0  0  0  0  0  0  0
  -24.5478  -15.5454   21.6056 C   0  0  0  0  0  0  0  0  0  0  0  0
  -29.2179  -20.9396   18.8274 C   0  0  0  0  0  0  0  0  0  0  0  0
  -29.3735  -19.5985   18.8325 C   0  0  0  0  0  0  0  0  0  0  0  0
  -22.4475  -14.2205   21.8917 C   0  0  0  0  0  0  0  0  0  0  0  0
  -28.1856  -18.7397   19.0117 C   0  0  0  0  0  0  0  0  0  0  0  0
  -21.4711  -26.0348   21.1408 C   0  0  0  0  0  0  0  0  0  0  0  0
  -20.9806  -28.9393   22.4995 C   0  0  0  0  0  0  0  0  0  0  0  0
  -22.3042  -31.6599   24.0785 C   0  0  0  0  0  0  0  0  0  0  0  0
  -18.6376  -22.0012   19.8145 C   0  0  0  0  0  0  0  0  0  0  0  0
  -22.6058  -25.7442   23.3733 C   0  0  0  0  0  0  0  0  0  0  0  0
  -23.3792  -28.2842   22.0714 C   0  0  0  0  0  0  0  0  0  0  0  0
  -18.3888  -23.4953   20.0042 C   0  0  0  0  0  0  0  0  0  0  0  0
  -29.5018  -16.4875   21.5861 C   0  0  0  0  0  0  0  0  0  0  0  0
  -19.4466  -24.3105   19.2672 C   0  0  0  0  0  0  0  0  0  0  0  0
  -28.3296  -15.5259   21.7622 C   0  0  0  0  0  0  0  0  0  0  0  0
  -29.6351  -16.9682   20.1418 C   0  0  0  0  0  0  0  0  0  0  0  0
  -27.2114  -16.6077   19.7723 C   0  0  0  0  0  0  0  0  0  0  0  0
  -20.8484  -24.0217   19.8179 C   0  0  1  0  0  0  0  0  0  0  0  0
  -21.6156  -26.5551   22.5430 C   0  0  1  0  0  0  0  0  0  0  0  0
  -27.0301  -16.1482   21.2274 C   0  0  1  0  0  0  0  0  0  0  0  0
  -21.6613  -33.8904   25.0318 C   0  0  0  0  0  0  0  0  0  0  0  0
  -20.7918  -30.0876   19.6789 C   0  0  0  0  0  0  0  0  0  0  0  0
  -21.1056  -32.3688   20.6617 C   0  0  0  0  0  0  0  0  0  0  0  0
  -19.1153  -31.0038   21.2927 C   0  0  0  0  0  0  0  0  0  0  0  0
  -23.1882  -30.8840   26.7943 C   0  0  0  0  0  0  0  0  0  0  0  0
  -34.5572  -24.2066   17.6267 C   0  0  0  0  0  0  0  0  0  0  0  0
  -29.6277  -27.2175   20.3534 C   0  0  0  0  0  0  0  0  0  0  0  0
  -28.2916  -27.5963   20.9727 C   0  0  0  0  0  0  0  0  0  1  0  0
  -29.6579  -25.7629   19.9113 C   0  0  0  0  0  0  0  0  0  0  0  0
  -21.3938  -30.3547   22.1754 C   0  0  1  0  0  0  0  0  0  0  0  0
  -21.8697  -32.4124   25.3232 C   0  0  2  0  0  0  0  0  0  0  0  0
  -20.6209  -30.9333   20.9567 C   0  0  0  0  0  0  0  0  0  0  0  0
  -26.0586  -13.8821   21.2920 N   0  0  0  0  0  0  0  0  0  0  0  0
  -25.8496  -15.2067   21.3802 N   0  0  0  0  0  0  0  0  0  0  0  0
  -28.3637  -17.5053   19.6339 N   0  0  0  0  0  0  0  0  0  0  0  0
  -21.9891  -27.9671   22.4382 N   0  0  0  0  0  0  0  0  0  0  0  0
  -24.1626  -16.8341   21.7213 N   0  0  0  0  0  0  0  0  0  0  0  0
  -21.9012  -12.9303   21.9273 N   0  0  0  0  0  0  0  0  0  0  0  0
  -21.0536  -24.7195   21.0690 N   0  0  0  0  0  0  0  0  0  0  0  0
  -21.2281  -31.1202   23.4062 N   0  0  0  0  0  0  0  0  0  0  0  0
  -22.9004  -32.2848   26.3920 N   0  3  0  0  0  0  0  0  0  0  0  0
  -21.6922  -15.2112   22.0382 O   0  0  0  0  0  0  0  0  0  0  0  0
  -27.1073  -19.1663   18.5946 O   0  0  0  0  0  0  0  0  0  0  0  0
  -21.7186  -26.7726   20.1942 O   0  0  0  0  0  0  0  0  0  0  0  0
  -19.8080  -28.7061   22.8031 O   0  0  0  0  0  0  0  0  0  0  0  0
  -23.4803  -31.5638   23.7349 O   0  0  0  0  0  0  0  0  0  0  0  0
  -24.0750   -7.8316   21.3674 O   0  0  0  0  0  0  0  0  0  0  0  0
  -33.3473  -24.6816   18.2138 O   0  0  0  0  0  0  0  0  0  0  0  0
  -28.0312  -26.7692   22.1061 O   0  0  0  0  0  0  0  0  0  1  0  0
  -30.9249  -25.4570   19.3449 O   0  0  0  0  0  0  0  0  0  0  0  0
  -20.9071   -5.6043   25.2927 F   0  0  0  0  0  0  0  0  0  0  0  0
  -21.4300   -8.5838   21.6520 F   0  0  0  0  0  0  0  0  0  0  0  0
  1  2  1  0  0  0  0
  1  6  2  0  0  0  0
  2  7  2  0  0  0  0
  3  9  2  0  0  0  0
  3 18  1  0  0  0  0
  4 10  1  0  0  0  0
  4 18  2  0  0  0  0
  5 11  2  0  0  0  0
  5 19  1  0  0  0  0
  6 21  1  0  0  0  0
  7 23  1  0  0  0  0
  8 12  2  0  0  0  0
  8 22  1  0  0  0  0
  9 25  1  0  0  0  0
 10 25  2  0  0  0  0
 11 27  1  0  0  0  0
 12 26  1  0  0  0  0
 13 14  2  0  0  0  0
 13 28  1  0  0  0  0
 14 30  1  0  0  0  0
 15 19  2  0  0  0  0
 15 29  1  0  0  0  0
 16 24  1  0  0  0  0
 16 26  2  0  0  0  0
 17 30  2  0  0  0  0
 17 31  1  0  0  0  0
 18 32  1  0  0  0  0
 19 34  1  0  0  0  0
 20 32  1  0  0  0  0
 20 33  2  0  0  0  0
 20 36  1  0  0  0  0
 21 23  2  0  0  0  0
 21 41  1  0  0  0  0
 22 24  2  0  0  0  0
 22 42  1  0  0  0  0
 23 50  1  0  0  0  0
 24 43  1  0  0  0  0
 25 79  1  0  0  0  0
 26 81  1  0  0  0  0
 27 29  2  0  0  0  0
 27 80  1  0  0  0  0
 28 31  2  0  0  0  0
 28 79  1  0  0  0  0
 29 82  1  0  0  0  0
 30 83  1  0  0  0  0
 31 84  1  0  0  0  0
 32 65  2  0  0  0  0
 33 66  1  0  0  0  0
 33 69  1  0  0  0  0
 34 35  2  0  0  0  0
 35 37  1  0  0  0  0
 36 70  1  0  0  0  0
 36 74  2  0  0  0  0
 37 67  1  0  0  0  0
 37 75  2  0  0  0  0
 38 51  1  0  0  0  0
 38 71  1  0  0  0  0
 38 76  2  0  0  0  0
 39 62  1  0  0  0  0
 39 68  1  0  0  0  0
 39 77  2  0  0  0  0
 40 63  1  0  0  0  0
 40 72  1  0  0  0  0
 40 78  2  0  0  0  0
 41 44  1  0  0  0  0
 42 51  1  0  0  0  0
 43 68  1  0  0  0  0
 44 46  1  0  0  0  0
 45 47  1  0  0  0  0
 45 48  1  0  0  0  0
 46 50  1  0  0  0  0
 47 52  1  0  0  0  0
 48 67  1  0  0  0  0
 49 52  1  0  0  0  0
 49 67  1  0  0  0  0
 50 71  1  0  0  0  0
 51 68  1  0  0  0  0
 52 66  1  0  0  0  0
 53 63  1  0  0  0  0
 54 64  1  0  0  0  0
 55 64  1  0  0  0  0
 56 64  1  0  0  0  0
 57 73  1  0  0  0  0
 58 80  1  0  0  0  0
 59 60  1  0  0  0  0
 59 61  1  0  0  0  0
 60 81  1  0  0  0  0
 61 82  1  0  0  0  0
 62 64  1  0  0  0  0
 62 72  1  0  0  0  0
 63 73  1  0  0  0  0
 65 66  1  0  0  0  0
M  CHG  1  73   1
M  ISO  4  35 100  37 100  60 101  81 101
M  END
> <Batch ID>
0116

> <Smiles>
CNC(C)C(=O)NC(C(=O)N1Cc2cc([101O:1][101CH2:1]CCOc3cc(C=[100CH:0][100C:0](=O)N4CCCC(n5nc(-c6ccc(Oc7ccc(F)cc7F)cc6)c(C(N)=O)c5N)C4)ccc3OC)ccc2CC1C(=O)NC1CCCc2ccccc21)C(C)(C)C

> <Shape>
0.230

> <Color>
0.055

> <Negative vol penalty>
0.000

$$$$

  -OEChem-04052301433D

 84 92  0     1  0  0  0  0  0999 V2000
  -28.9732  -34.6952   25.0521 C   0  0  0  0  0  0  0  0  0  0  0  0
  -29.0183  -33.3875   24.5796 C   0  0  0  0  0  0  0  0  0  0  0  0
  -24.0617   -9.8881   22.4618 C   0  0  0  0  0  0  0  0  0  0  0  0
  -24.6197  -11.6484   24.0197 C   0  0  0  0  0  0  0  0  0  0  0  0
  -27.7592  -35.2465   25.4597 C   0  0  0  0  0  0  0  0  0  0  0  0
  -27.8494  -32.6299   24.5154 C   0  0  0  0  0  0  0  0  0  0  0  0
  -27.4137  -30.0961   20.1525 C   0  0  0  0  0  0  0  0  0  0  0  0
  -23.6795   -9.0690   23.5241 C   0  0  0  0  0  0  0  0  0  0  0  0
  -24.2374  -10.8293   25.0820 C   0  0  0  0  0  0  0  0  0  0  0  0
  -28.1675  -28.9314   20.0145 C   0  0  0  0  0  0  0  0  0  0  0  0
  -21.0071   -8.7234   25.5666 C   0  0  0  0  0  0  0  0  0  0  0  0
  -19.8114   -8.0160   25.4421 C   0  0  0  0  0  0  0  0  0  0  0  0
  -28.2824  -20.4431   18.7065 C   0  0  0  0  0  0  0  0  0  0  0  0
  -26.2181  -27.6139   20.5467 C   0  0  0  0  0  0  0  0  0  0  0  0
  -30.4226  -18.6633   18.5204 C   0  0  0  0  0  0  0  0  0  0  0  0
  -21.0173   -5.9359   25.6784 C   0  0  0  0  0  0  0  0  0  0  0  0
  -24.5319  -11.1778   22.7095 C   0  0  0  0  0  0  0  0  0  0  0  0
  -29.5856  -20.9284   18.5981 C   0  0  0  0  0  0  0  0  0  0  0  0
  -24.1133  -12.9193   20.8931 C   0  0  0  0  0  0  0  0  0  0  0  0
  -26.5733  -34.4985   25.3914 C   0  0  0  0  0  0  0  0  0  0  0  0
  -26.0567  -30.0287   20.4998 C   0  0  0  0  0  0  0  0  0  0  0  0
  -26.6185  -33.1712   24.9237 C   0  0  0  0  0  0  0  0  0  0  0  0
  -25.4487  -28.7790   20.6859 C   0  0  0  0  0  0  0  0  0  0  0  0
  -29.1194  -18.1780   18.6289 C   0  0  0  0  0  0  0  0  0  0  0  0
  -23.7673   -9.5396   24.8342 C   0  0  0  0  0  0  0  0  0  0  0  0
  -27.5705  -27.6902   20.2145 C   0  0  0  0  0  0  0  0  0  0  0  0
  -22.2080   -8.0370   25.7469 C   0  0  0  0  0  0  0  0  0  0  0  0
  -19.8165   -6.6223   25.4980 C   0  0  0  0  0  0  0  0  0  0  0  0
  -28.0493  -19.0679   18.7220 C   0  0  0  0  0  0  0  0  0  0  0  0
  -30.6557  -20.0385   18.5050 C   0  0  0  0  0  0  0  0  0  0  0  0
  -22.2131   -6.6433   25.8028 C   0  0  0  0  0  0  0  0  0  0  0  0
  -24.9275  -12.0242   21.6126 C   0  0  0  0  0  0  0  0  0  0  0  0
  -24.9555  -13.4772   19.9624 C   0  0  0  0  0  0  0  0  0  0  0  0
  -28.8600  -23.2433   19.3344 C   0  0  0  0  0  0  0  0  0  0  0  0
  -28.5786  -24.4903   18.9333 C   0  0  0  0  0  0  0  0  0  0  0  0
  -29.8299  -22.3976   18.5814 C   0  0  0  0  0  0  0  0  0  0  0  0
  -22.7204  -13.2197   21.0518 C   0  0  0  0  0  0  0  0  0  0  0  0
  -24.3139  -31.0647   22.9479 C   0  0  0  0  0  0  0  0  0  0  0  0
  -21.8453  -29.9756   21.1472 C   0  0  0  0  0  0  0  0  0  0  0  0
  -20.7603  -27.8752   18.6859 C   0  0  0  0  0  0  0  0  0  0  0  0
  -29.8348  -15.7635   18.5595 C   0  0  0  0  0  0  0  0  0  0  0  0
  -25.2925  -35.1214   25.8877 C   0  0  0  0  0  0  0  0  0  0  0  0
  -25.2509  -31.2932   20.6186 C   0  0  0  0  0  0  0  0  0  0  0  0
  -23.9903  -28.6516   21.0403 C   0  0  0  0  0  0  0  0  0  0  0  0
  -24.0384  -34.3775   25.4361 C   0  0  0  0  0  0  0  0  0  0  0  0
  -29.6619  -12.2075   18.5988 C   0  0  0  0  0  0  0  0  0  0  0  0
  -24.2031  -32.8759   25.6478 C   0  0  0  0  0  0  0  0  0  0  0  0
  -28.3478  -11.9164   19.3272 C   0  0  0  0  0  0  0  0  0  0  0  0
  -30.3792  -13.4214   19.1865 C   0  0  0  0  0  0  0  0  0  0  0  0
  -28.2498  -14.3481   20.0086 C   0  0  0  0  0  0  0  0  0  0  0  0
  -25.3680  -32.3259   24.8158 C   0  0  1  0  0  0  0  0  0  0  0  0
  -24.0023  -31.1274   21.4793 C   0  0  1  0  0  0  0  0  0  0  0  0
  -27.4592  -13.1730   19.4103 C   0  0  2  0  0  0  0  0  0  0  0  0
  -18.6824  -27.1843   17.4601 C   0  0  0  0  0  0  0  0  0  0  0  0
  -20.9610  -28.3454   23.5700 C   0  0  0  0  0  0  0  0  0  0  0  0
  -19.5086  -26.9937   22.0430 C   0  0  0  0  0  0  0  0  0  0  0  0
  -19.0969  -29.4393   22.3119 C   0  0  0  0  0  0  0  0  0  0  0  0
  -21.8606  -28.7605   16.0851 C   0  0  0  0  0  0  0  0  0  0  0  0
  -27.6135  -25.3812   19.6463 C   0  0  0  0  0  0  0  0  0  1  0  0
  -21.1200  -28.6585   21.0122 C   0  0  1  0  0  0  0  0  0  0  0  0
  -19.8842  -28.1161   17.4698 C   0  0  2  0  0  0  0  0  0  0  0  0
  -20.1996  -28.3614   22.2295 C   0  0  0  0  0  0  0  0  0  0  0  0
  -26.1898  -12.0107   21.1764 N   0  0  0  0  0  0  0  0  0  0  0  0
  -30.8760  -22.8639   17.9769 N   0  0  0  0  0  0  0  0  0  0  0  0
  -26.1752  -12.9043   20.1727 N   0  0  0  0  0  0  0  0  0  0  0  0
  -23.2462  -29.9171   21.1512 N   0  0  0  0  0  0  0  0  0  0  0  0
  -29.4775  -14.5746   19.2300 N   0  0  0  0  0  0  0  0  0  0  0  0
  -24.7642  -14.3968   18.9929 N   0  0  0  0  0  0  0  0  0  0  0  0
  -22.0041  -12.5560   22.0571 N   0  0  0  0  0  0  0  0  0  0  0  0
  -28.8846  -16.7807   18.6437 N   0  0  0  0  0  0  0  0  0  0  0  0
  -24.9744  -32.1782   23.4309 N   0  0  0  0  0  0  0  0  0  0  0  0
  -20.4213  -28.7066   19.7324 N   0  0  0  0  0  0  0  0  0  0  0  0
  -20.6623  -27.8927   16.2185 N   0  3  0  0  0  0  0  0  0  0  0  0
  -22.1247  -14.0400   20.3130 O   0  0  0  0  0  0  0  0  0  0  0  0
  -23.9785  -30.0797   23.5951 O   0  0  0  0  0  0  0  0  0  0  0  0
  -21.1931  -31.0186   21.2383 O   0  0  0  0  0  0  0  0  0  0  0  0
  -21.6533  -27.0311   18.7068 O   0  0  0  0  0  0  0  0  0  0  0  0
  -30.8926  -15.8621   17.9324 O   0  0  0  0  0  0  0  0  0  0  0  0
  -23.3941   -8.7407   25.8711 O   0  0  0  0  0  0  0  0  0  0  0  0
  -28.3041  -26.5518   20.0812 O   0  0  0  0  0  0  0  0  0  1  0  0
  -18.6680   -5.9432   25.3800 F   0  0  0  0  0  0  0  0  0  0  0  0
  -26.7925  -18.6128   18.8268 F   0  0  0  0  0  0  0  0  0  0  0  0
  -31.9126  -20.4933   18.3992 F   0  0  0  0  0  0  0  0  0  0  0  0
  -23.3635   -5.9784   25.9770 F   0  0  0  0  0  0  0  0  0  0  0  0
  1  2  1  0  0  0  0
  1  5  2  0  0  0  0
  2  6  2  0  0  0  0
  3  8  2  0  0  0  0
  3 17  1  0  0  0  0
  4  9  1  0  0  0  0
  4 17  2  0  0  0  0
  5 20  1  0  0  0  0
  6 22  1  0  0  0  0
  7 10  2  0  0  0  0
  7 21  1  0  0  0  0
  8 25  1  0  0  0  0
  9 25  2  0  0  0  0
 10 26  1  0  0  0  0
 11 12  2  0  0  0  0
 11 27  1  0  0  0  0
 12 28  1  0  0  0  0
 13 18  1  0  0  0  0
 13 29  2  0  0  0  0
 14 23  1  0  0  0  0
 14 26  2  0  0  0  0
 15 24  2  0  0  0  0
 15 30  1  0  0  0  0
 16 28  2  0  0  0  0
 16 31  1  0  0  0  0
 17 32  1  0  0  0  0
 18 30  2  0  0  0  0
 18 36  1  0  0  0  0
 19 32  1  0  0  0  0
 19 33  2  0  0  0  0
 19 37  1  0  0  0  0
 20 22  2  0  0  0  0
 20 42  1  0  0  0  0
 21 23  2  0  0  0  0
 21 43  1  0  0  0  0
 22 51  1  0  0  0  0
 23 44  1  0  0  0  0
 24 29  1  0  0  0  0
 24 70  1  0  0  0  0
 25 79  1  0  0  0  0
 26 80  1  0  0  0  0
 27 31  2  0  0  0  0
 27 79  1  0  0  0  0
 28 81  1  0  0  0  0
 29 82  1  0  0  0  0
 30 83  1  0  0  0  0
 31 84  1  0  0  0  0
 32 63  2  0  0  0  0
 33 65  1  0  0  0  0
 33 68  1  0  0  0  0
 34 35  2  0  0  0  0
 34 36  1  0  0  0  0
 35 59  1  0  0  0  0
 36 64  2  0  0  0  0
 37 69  1  0  0  0  0
 37 74  2  0  0  0  0
 38 52  1  0  0  0  0
 38 71  1  0  0  0  0
 38 75  2  0  0  0  0
 39 60  1  0  0  0  0
 39 66  1  0  0  0  0
 39 76  2  0  0  0  0
 40 61  1  0  0  0  0
 40 72  1  0  0  0  0
 40 77  2  0  0  0  0
 41 67  1  0  0  0  0
 41 70  1  0  0  0  0
 41 78  2  0  0  0  0
 42 45  1  0  0  0  0
 43 52  1  0  0  0  0
 44 66  1  0  0  0  0
 45 47  1  0  0  0  0
 46 48  1  0  0  0  0
 46 49  1  0  0  0  0
 47 51  1  0  0  0  0
 48 53  1  0  0  0  0
 49 67  1  0  0  0  0
 50 53  1  0  0  0  0
 50 67  1  0  0  0  0
 51 71  1  0  0  0  0
 52 66  1  0  0  0  0
 53 65  1  0  0  0  0
 54 61  1  0  0  0  0
 55 62  1  0  0  0  0
 56 62  1  0  0  0  0
 57 62  1  0  0  0  0
 58 73  1  0  0  0  0
 59 80  1  0  0  0  0
 60 62  1  0  0  0  0
 60 72  1  0  0  0  0
 61 73  1  0  0  0  0
 63 65  1  0  0  0  0
M  CHG  1  73   1
M  ISO  4  41 100  59 101  70 100  80 101
M  END
> <Batch ID>
0116

> <Smiles>
CNC(C)C(=O)NC(C(=O)N1Cc2cc([101O:1][101CH2:1]C=CC(=N)c3cc(F)c([100NH:0][100C:0](=O)N4CCCC(n5nc(-c6ccc(Oc7ccc(F)cc7F)cc6)c(C(N)=O)c5N)C4)cc3F)ccc2CC1C(=O)NC1CCCc2ccccc21)C(C)(C)C

> <Shape>
0.313

> <Color>
0.129

> <Negative vol penalty>
0.000

$$$$

  -OEChem-04052301433D

 83 91  0     1  0  0  0  0  0999 V2000
  -28.9326  -30.0842   27.1301 C   0  0  0  0  0  0  0  0  0  0  0  0
  -28.7144  -29.1942   26.0834 C   0  0  0  0  0  0  0  0  0  0  0  0
  -23.3201  -10.9110   21.7288 C   0  0  0  0  0  0  0  0  0  0  0  0
  -24.7250   -8.9699   21.4201 C   0  0  0  0  0  0  0  0  0  0  0  0
  -27.9195  -20.8136   18.7254 C   0  0  0  0  0  0  0  0  0  0  0  0
  -29.1969  -20.6070   20.7657 C   0  0  0  0  0  0  0  0  0  0  0  0
  -27.8580  -30.7674   27.6981 C   0  0  0  0  0  0  0  0  0  0  0  0
  -27.4214  -28.9859   25.6048 C   0  0  0  0  0  0  0  0  0  0  0  0
  -27.2013  -28.9725   20.5455 C   0  0  0  0  0  0  0  0  0  0  0  0
  -27.9180  -19.4258   18.5857 C   0  0  0  0  0  0  0  0  0  0  0  0
  -29.1954  -19.2191   20.6260 C   0  0  0  0  0  0  0  0  0  0  0  0
  -22.2007  -10.0849   21.8294 C   0  0  0  0  0  0  0  0  0  0  0  0
  -23.6056   -8.1437   21.5208 C   0  0  0  0  0  0  0  0  0  0  0  0
  -27.6216  -27.8144   19.8930 C   0  0  0  0  0  0  0  0  0  0  0  0
  -21.6486   -6.8918   23.9751 C   0  0  0  0  0  0  0  0  0  0  0  0
  -21.7545   -5.7543   24.7753 C   0  0  0  0  0  0  0  0  0  0  0  0
  -25.3217  -27.1373   19.6260 C   0  0  0  0  0  0  0  0  0  0  0  0
  -21.2742   -4.3622   22.8600 C   0  0  0  0  0  0  0  0  0  0  0  0
  -24.5822  -10.3535   21.5240 C   0  0  0  0  0  0  0  0  0  0  0  0
  -28.5589  -21.4042   19.8154 C   0  0  0  0  0  0  0  0  0  0  0  0
  -26.5714  -11.6421   22.4676 C   0  0  0  0  0  0  0  0  0  0  0  0
  -26.5524  -30.5747   27.2198 C   0  0  0  0  0  0  0  0  0  0  0  0
  -25.8362  -29.2169   20.7532 C   0  0  0  0  0  0  0  0  0  0  0  0
  -26.3282  -29.6661   26.1678 C   0  0  0  0  0  0  0  0  0  0  0  0
  -24.8866  -28.3006   20.2792 C   0  0  0  0  0  0  0  0  0  0  0  0
  -28.5560  -18.6285   19.5360 C   0  0  0  0  0  0  0  0  0  0  0  0
  -22.3435   -8.7013   21.7255 C   0  0  0  0  0  0  0  0  0  0  0  0
  -26.6819  -26.8951   19.4357 C   0  0  0  0  0  0  0  0  0  0  0  0
  -21.3554   -6.7646   22.6173 C   0  0  0  0  0  0  0  0  0  0  0  0
  -21.5673   -4.4895   24.2178 C   0  0  0  0  0  0  0  0  0  0  0  0
  -21.1683   -5.4998   22.0597 C   0  0  0  0  0  0  0  0  0  0  0  0
  -25.7388  -11.2064   21.4194 C   0  0  0  0  0  0  0  0  0  0  0  0
  -27.5180  -12.4240   21.8518 C   0  0  0  0  0  0  0  0  0  0  0  0
  -27.7830  -16.9218   22.7685 C   0  0  0  0  0  0  0  0  0  0  0  0
  -28.5601  -22.8692   19.9642 C   0  0  0  0  0  0  0  0  0  0  0  0
  -27.6889  -16.4548   21.5184 C   0  0  0  0  0  0  0  0  0  0  0  0
  -28.3338  -23.7479   18.9753 C   0  0  0  0  0  0  0  0  0  0  0  0
  -26.4960  -11.3647   23.8722 C   0  0  0  0  0  0  0  0  0  0  0  0
  -23.9847  -29.5707   23.3126 C   0  0  0  0  0  0  0  0  0  0  0  0
  -21.7285  -30.2968   21.0980 C   0  0  0  0  0  0  0  0  0  0  0  0
  -20.6321  -30.0136   17.8786 C   0  0  0  0  0  0  0  0  0  0  0  0
  -28.5100  -16.5818   18.1204 C   0  0  0  0  0  0  0  0  0  0  0  0
  -25.4167  -31.3002   27.8969 C   0  0  0  0  0  0  0  0  0  0  0  0
  -25.3980  -30.4839   21.4352 C   0  0  0  0  0  0  0  0  0  0  0  0
  -23.4083  -28.5260   20.4591 C   0  0  0  0  0  0  0  0  0  0  0  0
  -24.1253  -31.3044   27.0831 C   0  0  0  0  0  0  0  0  0  0  0  0
  -28.5989  -13.0798   16.9635 C   0  0  0  0  0  0  0  0  0  0  0  0
  -23.8292  -29.9084   26.5443 C   0  0  0  0  0  0  0  0  0  0  0  0
  -27.8709  -12.3337   18.0804 C   0  0  0  0  0  0  0  0  0  0  0  0
  -28.0982  -14.5139   16.8199 C   0  0  0  0  0  0  0  0  0  0  0  0
  -27.4290  -14.5538   19.2034 C   0  0  0  0  0  0  0  0  0  0  0  0
  -24.9433  -29.4320   25.6045 C   0  0  1  0  0  0  0  0  0  0  0  0
  -24.0045  -30.3815   22.0478 C   0  0  1  0  0  0  0  0  0  0  0  0
  -27.9412  -13.1191   19.4014 C   0  0  1  0  0  0  0  0  0  0  0  0
  -18.7360  -30.6831   16.3772 C   0  0  0  0  0  0  0  0  0  0  0  0
  -19.9647  -28.1607   22.3771 C   0  0  0  0  0  0  0  0  0  0  0  0
  -18.5381  -28.2061   20.3202 C   0  0  0  0  0  0  0  0  0  0  0  0
  -18.7618  -30.2544   21.7262 C   0  0  0  0  0  0  0  0  0  0  0  0
  -22.4324  -31.5383   16.0915 C   0  0  0  0  0  0  0  0  0  0  0  0
  -28.8410  -16.3702   20.5730 C   0  0  0  0  0  0  0  0  0  0  0  0
  -28.3592  -25.2298   19.1723 C   0  0  0  0  0  0  0  0  0  1  0  0
  -20.7150  -29.5068   20.3056 C   0  0  1  0  0  0  0  0  0  0  0  0
  -20.1184  -31.0492   16.8947 C   0  0  2  0  0  0  0  0  0  0  0  0
  -19.5228  -29.0265   21.1805 C   0  0  0  0  0  0  0  0  0  0  0  0
  -26.1226  -11.6730   20.2281 N   0  0  0  0  0  0  0  0  0  0  0  0
  -27.2067  -12.4100   20.5240 N   0  0  0  0  0  0  0  0  0  0  0  0
  -23.0300  -29.7766   21.1375 N   0  0  0  0  0  0  0  0  0  0  0  0
  -28.1328  -15.2240   18.0991 N   0  0  0  0  0  0  0  0  0  0  0  0
  -28.5778  -13.1154   22.3221 N   0  0  0  0  0  0  0  0  0  0  0  0
  -25.4603  -10.5423   24.3362 N   0  0  0  0  0  0  0  0  0  0  0  0
  -24.8118  -30.0582   24.3065 N   0  0  0  0  0  0  0  0  0  0  0  0
  -20.3285  -30.3513   19.1805 N   0  0  0  0  0  0  0  0  0  0  0  0
  -28.5529  -17.1918   19.3928 N   0  0  0  0  0  0  0  0  0  0  0  0
  -21.0419  -31.1603   15.7303 N   0  3  0  0  0  0  0  0  0  0  0  0
  -27.3129  -11.8457   24.6937 O   0  0  0  0  0  0  0  0  0  0  0  0
  -23.2708  -28.5771   23.3823 O   0  0  0  0  0  0  0  0  0  0  0  0
  -21.3801  -31.3407   21.6551 O   0  0  0  0  0  0  0  0  0  0  0  0
  -21.2387  -29.0041   17.5270 O   0  0  0  0  0  0  0  0  0  0  0  0
  -28.8130  -17.1910   17.0876 O   0  0  0  0  0  0  0  0  0  0  0  0
  -21.2514   -7.8948   21.8240 O   0  0  0  0  0  0  0  0  0  0  0  0
  -27.0895  -25.7636   18.7990 O   0  0  0  0  0  0  0  0  0  1  0  0
  -21.6705   -3.3971   24.9861 F   0  0  0  0  0  0  0  0  0  0  0  0
  -20.8876   -5.3711   20.7557 F   0  0  0  0  0  0  0  0  0  0  0  0
  1  2  1  0  0  0  0
  1  7  2  0  0  0  0
  2  8  2  0  0  0  0
  3 12  2  0  0  0  0
  3 19  1  0  0  0  0
  4 13  1  0  0  0  0
  4 19  2  0  0  0  0
  5 10  2  0  0  0  0
  5 20  1  0  0  0  0
  6 11  1  0  0  0  0
  6 20  2  0  0  0  0
  7 22  1  0  0  0  0
  8 24  1  0  0  0  0
  9 14  2  0  0  0  0
  9 23  1  0  0  0  0
 10 26  1  0  0  0  0
 11 26  2  0  0  0  0
 12 27  1  0  0  0  0
 13 27  2  0  0  0  0
 14 28  1  0  0  0  0
 15 16  2  0  0  0  0
 15 29  1  0  0  0  0
 16 30  1  0  0  0  0
 17 25  1  0  0  0  0
 17 28  2  0  0  0  0
 18 30  2  0  0  0  0
 18 31  1  0  0  0  0
 19 32  1  0  0  0  0
 20 35  1  0  0  0  0
 21 32  1  0  0  0  0
 21 33  2  0  0  0  0
 21 38  1  0  0  0  0
 22 24  2  0  0  0  0
 22 43  1  0  0  0  0
 23 25  2  0  0  0  0
 23 44  1  0  0  0  0
 24 52  1  0  0  0  0
 25 45  1  0  0  0  0
 26 73  1  0  0  0  0
 27 80  1  0  0  0  0
 28 81  1  0  0  0  0
 29 31  2  0  0  0  0
 29 80  1  0  0  0  0
 30 82  1  0  0  0  0
 31 83  1  0  0  0  0
 32 65  2  0  0  0  0
 33 66  1  0  0  0  0
 33 69  1  0  0  0  0
 34 36  2  0  0  0  0
 35 37  2  0  0  0  0
 36 60  1  0  0  0  0
 37 61  1  0  0  0  0
 38 70  1  0  0  0  0
 38 75  2  0  0  0  0
 39 53  1  0  0  0  0
 39 71  1  0  0  0  0
 39 76  2  0  0  0  0
 40 62  1  0  0  0  0
 40 67  1  0  0  0  0
 40 77  2  0  0  0  0
 41 63  1  0  0  0  0
 41 72  1  0  0  0  0
 41 78  2  0  0  0  0
 42 68  1  0  0  0  0
 42 73  1  0  0  0  0
 42 79  2  0  0  0  0
 43 46  1  0  0  0  0
 44 53  1  0  0  0  0
 45 67  1  0  0  0  0
 46 48  1  0  0  0  0
 47 49  1  0  0  0  0
 47 50  1  0  0  0  0
 48 52  1  0  0  0  0
 49 54  1  0  0  0  0
 50 68  1  0  0  0  0
 51 54  1  0  0  0  0
 51 68  1  0  0  0  0
 52 71  1  0  0  0  0
 53 67  1  0  0  0  0
 54 66  1  0  0  0  0
 55 63  1  0  0  0  0
 56 64  1  0  0  0  0
 57 64  1  0  0  0  0
 58 64  1  0  0  0  0
 59 74  1  0  0  0  0
 60 73  1  0  0  0  0
 61 81  1  0  0  0  0
 62 64  1  0  0  0  0
 62 72  1  0  0  0  0
 63 74  1  0  0  0  0
 65 66  1  0  0  0  0
M  CHG  1  74   1
M  ISO  4  42 100  61 101  73 100  81 101
M  END
> <Batch ID>
0116

> <Smiles>
C=CC[100N:0](c1ccc(C=C[101CH2:1][101O:1]c2ccc3c(c2)CN(C(=O)C(NC(=O)C(C)NC)C(C)(C)C)C(C(=O)NC2CCCc4ccccc42)C3)cc1)[100C:0](=O)N1CCCC(n2nc(-c3ccc(Oc4ccc(F)cc4F)cc3)c(C(N)=O)c2N)C1

> <Shape>
0.306

> <Color>
0.104

> <Negative vol penalty>
0.000

$$$$
