
  -OEChem-04052301463D

 85 93  0     1  0  0  0  0  0999 V2000
  -30.0015  -24.2298   17.7533 C   0  0  0  0  0  0  0  0  0  0  0  0
  -28.7700  -24.2735   18.3990 C   0  0  0  0  0  0  0  0  0  0  0  0
  -23.9467   -9.6951   21.9459 C   0  0  0  0  0  0  0  0  0  0  0  0
  -22.0511  -10.3786   20.6130 C   0  0  0  0  0  0  0  0  0  0  0  0
  -31.0564  -25.0173   18.2125 C   0  0  0  0  0  0  0  0  0  0  0  0
  -28.5931  -25.1040   19.5051 C   0  0  0  0  0  0  0  0  0  0  0  0
  -24.2393  -27.6838   19.3211 C   0  0  0  0  0  0  0  0  0  0  0  0
  -23.4804   -8.3806   21.9351 C   0  0  0  0  0  0  0  0  0  0  0  0
  -21.5848   -9.0641   20.6021 C   0  0  0  0  0  0  0  0  0  0  0  0
  -23.0760  -26.9947   19.6614 C   0  0  0  0  0  0  0  0  0  0  0  0
  -21.1272   -6.5596   23.5384 C   0  0  0  0  0  0  0  0  0  0  0  0
  -21.1391   -5.8585   24.7442 C   0  0  0  0  0  0  0  0  0  0  0  0
  -23.1407  -27.9841   21.8606 C   0  0  0  0  0  0  0  0  0  0  0  0
  -21.7276  -20.9902   21.2500 C   0  0  0  0  0  0  0  0  0  0  0  0
  -22.6099   -4.2078   23.7698 C   0  0  0  0  0  0  0  0  0  0  0  0
  -23.2320  -10.6942   21.2850 C   0  0  0  0  0  0  0  0  0  0  0  0
  -21.7136  -22.1179   19.1134 C   0  0  0  0  0  0  0  0  0  0  0  0
  -24.5829  -12.6540   20.3673 C   0  0  0  0  0  0  0  0  0  0  0  0
  -30.8896  -25.8650   19.3189 C   0  0  0  0  0  0  0  0  0  0  0  0
  -24.8691  -28.5211   20.2531 C   0  0  0  0  0  0  0  0  0  0  0  0
  -29.6472  -25.9025   19.9804 C   0  0  0  0  0  0  0  0  0  0  0  0
  -24.3104  -28.6846   21.5287 C   0  0  0  0  0  0  0  0  0  0  0  0
  -22.4723  -21.0848   18.5631 C   0  0  0  0  0  0  0  0  0  0  0  0
  -21.3413  -22.0706   20.4569 C   0  0  0  0  0  0  0  0  0  0  0  0
  -22.4863  -19.9571   20.6997 C   0  0  0  0  0  0  0  0  0  0  0  0
  -22.2995   -8.0650   21.2631 C   0  0  0  0  0  0  0  0  0  0  0  0
  -22.5282  -27.1426   20.9323 C   0  0  0  0  0  0  0  0  0  0  0  0
  -21.8565   -6.0848   22.4483 C   0  0  0  0  0  0  0  0  0  0  0  0
  -21.8805   -4.6826   24.8599 C   0  0  0  0  0  0  0  0  0  0  0  0
  -22.5979   -4.9089   22.5640 C   0  0  0  0  0  0  0  0  0  0  0  0
  -22.8586  -20.0044   19.3563 C   0  0  0  0  0  0  0  0  0  0  0  0
  -23.7129  -12.0524   21.2963 C   0  0  0  0  0  0  0  0  0  0  0  0
  -24.7292  -13.9429   20.8187 C   0  0  0  0  0  0  0  0  0  0  0  0
  -20.0479  -23.5974   18.0879 C   0  0  0  0  0  0  0  0  0  0  0  0
  -21.3089  -23.2488   18.2826 C   0  0  0  0  0  0  0  0  0  0  0  0
  -21.1278  -23.7107   22.0347 C   0  0  0  0  0  0  0  0  0  0  0  0
  -25.2032  -12.0975   19.2006 C   0  0  0  0  0  0  0  0  0  0  0  0
  -27.7154  -28.5624   21.6674 C   0  0  0  0  0  0  0  0  0  0  0  0
  -26.6657  -31.4054   22.8242 C   0  0  0  0  0  0  0  0  0  0  0  0
  -24.0217  -33.4089   23.6253 C   0  0  0  0  0  0  0  0  0  0  0  0
  -22.5903  -18.6620   22.8580 C   0  0  0  0  0  0  0  0  0  0  0  0
  -32.0729  -26.6622   19.8076 C   0  0  0  0  0  0  0  0  0  0  0  0
  -26.1084  -29.2781   19.8615 C   0  0  0  0  0  0  0  0  0  0  0  0
  -24.9367  -29.5872   22.5590 C   0  0  0  0  0  0  0  0  0  0  0  0
  -31.6935  -27.7959   20.7569 C   0  0  0  0  0  0  0  0  0  0  0  0
  -23.3389  -16.0793   25.1919 C   0  0  0  0  0  0  0  0  0  0  0  0
  -30.7105  -27.3012   21.8132 C   0  0  0  0  0  0  0  0  0  0  0  0
  -23.5745  -14.8509   24.3100 C   0  0  0  0  0  0  0  0  0  0  0  0
  -22.2261  -16.9687   24.6399 C   0  0  0  0  0  0  0  0  0  0  0  0
  -22.6250  -16.1399   22.3545 C   0  0  0  0  0  0  0  0  0  0  0  0
  -29.4090  -26.8093   21.1683 C   0  0  1  0  0  0  0  0  0  0  0  0
  -26.9516  -29.7045   21.0593 C   0  0  1  0  0  0  0  0  0  0  0  0
  -23.7809  -15.2473   22.8350 C   0  0  2  0  0  0  0  0  0  0  0  0
  -22.8900  -21.1027   17.1272 C   0  0  0  0  0  0  0  0  0  0  0  0
  -23.4778  -35.6621   24.5867 C   0  0  0  0  0  0  0  0  0  0  0  0
  -27.3247  -30.3698   25.6177 C   0  0  0  0  0  0  0  0  0  0  0  0
  -25.9148  -32.2128   26.5577 C   0  0  0  0  0  0  0  0  0  0  0  0
  -27.9465  -32.7588   25.2171 C   0  0  0  0  0  0  0  0  0  0  0  0
  -22.6534  -34.2657   21.1448 C   0  0  0  0  0  0  0  0  0  0  0  0
  -20.4108  -24.8364   22.7308 C   0  0  0  0  0  0  0  0  0  0  0  0
  -21.2320  -26.1114   22.6390 C   0  0  0  0  0  0  0  0  0  1  0  0
  -25.8995  -31.8440   24.0487 C   0  0  1  0  0  0  0  0  0  0  0  0
  -23.7324  -34.8666   23.3158 C   0  0  2  0  0  0  0  0  0  0  0  0
  -26.7604  -31.7778   25.3418 C   0  0  0  0  0  0  0  0  0  0  0  0
  -23.3334  -12.8902   22.2648 N   0  0  0  0  0  0  0  0  0  0  0  0
  -20.5769  -23.0952   21.0399 N   0  0  0  0  0  0  0  0  0  0  0  0
  -23.9679  -14.0314   21.9469 N   0  0  0  0  0  0  0  0  0  0  0  0
  -26.1509  -30.3011   22.1304 N   0  0  0  0  0  0  0  0  0  0  0  0
  -22.4914  -17.3073   23.2400 N   0  0  0  0  0  0  0  0  0  0  0  0
  -25.4335  -14.9978   20.3567 N   0  0  0  0  0  0  0  0  0  0  0  0
  -24.9452  -10.7573   18.8816 N   0  0  0  0  0  0  0  0  0  0  0  0
  -22.8773  -18.8609   21.5079 N   0  0  0  0  0  0  0  0  0  0  0  0
  -28.5767  -27.9313   20.7903 N   0  0  0  0  0  0  0  0  0  0  0  0
  -25.3744  -33.1715   23.7479 N   0  0  0  0  0  0  0  0  0  0  0  0
  -22.5317  -34.9820   22.4406 N   0  3  0  0  0  0  0  0  0  0  0  0
  -25.9767  -12.7641   18.4720 O   0  0  0  0  0  0  0  0  0  0  0  0
  -27.5377  -28.2760   22.8456 O   0  0  0  0  0  0  0  0  0  0  0  0
  -27.6795  -32.0242   22.4913 O   0  0  0  0  0  0  0  0  0  0  0  0
  -23.1360  -32.5659   23.7497 O   0  0  0  0  0  0  0  0  0  0  0  0
  -22.4590  -19.5776   23.6743 O   0  0  0  0  0  0  0  0  0  0  0  0
  -21.8443   -6.7824   21.2521 O   0  0  0  0  0  0  0  0  0  0  0  0
  -21.3932  -26.4707   21.2674 O   0  0  0  0  0  0  0  0  0  1  0  0
  -21.8931   -4.0103   26.0184 F   0  0  0  0  0  0  0  0  0  0  0  0
  -23.3015   -4.4485   21.5206 F   0  0  0  0  0  0  0  0  0  0  0  0
  -23.5894  -19.0113   18.8270 F   0  0  0  0  0  0  0  0  0  0  0  0
  1  2  1  0  0  0  0
  1  5  2  0  0  0  0
  2  6  2  0  0  0  0
  3  8  2  0  0  0  0
  3 16  1  0  0  0  0
  4  9  1  0  0  0  0
  4 16  2  0  0  0  0
  5 19  1  0  0  0  0
  6 21  1  0  0  0  0
  7 10  2  0  0  0  0
  7 20  1  0  0  0  0
  8 26  1  0  0  0  0
  9 26  2  0  0  0  0
 10 27  1  0  0  0  0
 11 12  2  0  0  0  0
 11 28  1  0  0  0  0
 12 29  1  0  0  0  0
 13 22  1  0  0  0  0
 13 27  2  0  0  0  0
 14 24  2  0  0  0  0
 14 25  1  0  0  0  0
 15 29  2  0  0  0  0
 15 30  1  0  0  0  0
 16 32  1  0  0  0  0
 17 23  2  0  0  0  0
 17 24  1  0  0  0  0
 17 35  1  0  0  0  0
 18 32  1  0  0  0  0
 18 33  2  0  0  0  0
 18 37  1  0  0  0  0
 19 21  2  0  0  0  0
 19 42  1  0  0  0  0
 20 22  2  0  0  0  0
 20 43  1  0  0  0  0
 21 51  1  0  0  0  0
 22 44  1  0  0  0  0
 23 31  1  0  0  0  0
 23 54  1  0  0  0  0
 24 66  1  0  0  0  0
 25 31  2  0  0  0  0
 25 72  1  0  0  0  0
 26 81  1  0  0  0  0
 27 82  1  0  0  0  0
 28 30  2  0  0  0  0
 28 81  1  0  0  0  0
 29 83  1  0  0  0  0
 30 84  1  0  0  0  0
 31 85  1  0  0  0  0
 32 65  2  0  0  0  0
 33 67  1  0  0  0  0
 33 70  1  0  0  0  0
 34 35  2  0  0  0  0
 36 60  1  0  0  0  0
 36 66  2  0  0  0  0
 37 71  1  0  0  0  0
 37 76  2  0  0  0  0
 38 52  1  0  0  0  0
 38 73  1  0  0  0  0
 38 77  2  0  0  0  0
 39 62  1  0  0  0  0
 39 68  1  0  0  0  0
 39 78  2  0  0  0  0
 40 63  1  0  0  0  0
 40 74  1  0  0  0  0
 40 79  2  0  0  0  0
 41 69  1  0  0  0  0
 41 72  1  0  0  0  0
 41 80  2  0  0  0  0
 42 45  1  0  0  0  0
 43 52  1  0  0  0  0
 44 68  1  0  0  0  0
 45 47  1  0  0  0  0
 46 48  1  0  0  0  0
 46 49  1  0  0  0  0
 47 51  1  0  0  0  0
 48 53  1  0  0  0  0
 49 69  1  0  0  0  0
 50 53  1  0  0  0  0
 50 69  1  0  0  0  0
 51 73  1  0  0  0  0
 52 68  1  0  0  0  0
 53 67  1  0  0  0  0
 55 63  1  0  0  0  0
 56 64  1  0  0  0  0
 57 64  1  0  0  0  0
 58 64  1  0  0  0  0
 59 75  1  0  0  0  0
 60 61  1  0  0  0  0
 61 82  1  0  0  0  0
 62 64  1  0  0  0  0
 62 74  1  0  0  0  0
 63 75  1  0  0  0  0
 65 67  1  0  0  0  0
M  CHG  1  75   1
M  ISO  4  41 100  61 101  72 100  82 101
M  END
> <Batch ID>
0117

> <Smiles>
C=Cc1c(NC=C[101CH2:1][101O:1]c2ccc3c(c2)CN(C(=O)C(NC(=O)C(C)NC)C(C)(C)C)C(C(=O)NC2CCCc4ccccc42)C3)cc([100NH:0][100C:0](=O)N2CCCC(n3nc(-c4ccc(Oc5ccc(F)cc5F)cc4)c(C(N)=O)c3N)C2)c(F)c1C

> <Shape>
0.291

> <Color>
0.141

> <Negative vol penalty>
0.000

$$$$

  -OEChem-04052301463D

 86 94  0     1  0  0  0  0  0999 V2000
  -32.3166  -14.4773   20.2660 C   0  0  0  0  0  0  0  0  0  0  0  0
  -31.5010  -15.6011   20.3510 C   0  0  0  0  0  0  0  0  0  0  0  0
  -29.0408  -25.7139   18.2297 C   0  0  0  0  0  0  0  0  0  0  0  0
  -29.3842  -25.3937   20.5997 C   0  0  0  0  0  0  0  0  0  0  0  0
  -31.7541  -13.2266   20.0141 C   0  0  0  0  0  0  0  0  0  0  0  0
  -30.1225  -15.4751   20.1831 C   0  0  0  0  0  0  0  0  0  0  0  0
  -25.7578  -18.6934   23.0288 C   0  0  0  0  0  0  0  0  0  0  0  0
  -30.3652  -25.3488   17.9885 C   0  0  0  0  0  0  0  0  0  0  0  0
  -30.7086  -25.0285   20.3585 C   0  0  0  0  0  0  0  0  0  0  0  0
  -25.0084  -19.8037   22.6424 C   0  0  0  0  0  0  0  0  0  0  0  0
  -32.3816  -22.2927   19.2921 C   0  0  0  0  0  0  0  0  0  0  0  0
  -32.8750  -21.1716   19.9593 C   0  0  0  0  0  0  0  0  0  0  0  0
  -20.4045  -28.9578   22.1840 C   0  0  0  0  0  0  0  0  0  0  0  0
  -23.2204  -18.3449   21.9396 C   0  0  0  0  0  0  0  0  0  0  0  0
  -19.3323  -26.8400   21.7339 C   0  0  0  0  0  0  0  0  0  0  0  0
  -34.5709  -22.5394   21.0035 C   0  0  0  0  0  0  0  0  0  0  0  0
  -28.5503  -25.7364   19.5354 C   0  0  0  0  0  0  0  0  0  0  0  0
  -21.3190  -28.3172   23.0199 C   0  0  0  0  0  0  0  0  0  0  0  0
  -26.0611  -25.2643   19.8331 C   0  0  0  0  0  0  0  0  0  0  0  0
  -30.3670  -13.0838   19.8526 C   0  0  0  0  0  0  0  0  0  0  0  0
  -25.2476  -17.3977   22.8632 C   0  0  0  0  0  0  0  0  0  0  0  0
  -29.5410  -14.2216   19.9275 C   0  0  0  0  0  0  0  0  0  0  0  0
  -23.9642  -17.2199   22.3271 C   0  0  0  0  0  0  0  0  0  0  0  0
  -21.2403  -26.9380   23.2128 C   0  0  0  0  0  0  0  0  0  0  0  0
  -31.1991  -25.0060   19.0528 C   0  0  0  0  0  0  0  0  0  0  0  0
  -23.7407  -19.6295   22.0950 C   0  0  0  0  0  0  0  0  0  0  0  0
  -32.9829  -23.5372   19.4804 C   0  0  0  0  0  0  0  0  0  0  0  0
  -20.2469  -26.1993   22.5698 C   0  0  0  0  0  0  0  0  0  0  0  0
  -33.9696  -21.2950   20.8151 C   0  0  0  0  0  0  0  0  0  0  0  0
  -19.4110  -28.2192   21.5410 C   0  0  0  0  0  0  0  0  0  0  0  0
  -34.0775  -23.6605   20.3361 C   0  0  0  0  0  0  0  0  0  0  0  0
  -27.1824  -26.1141   19.7853 C   0  0  0  0  0  0  0  0  0  0  0  0
  -25.0062  -26.1025   20.1000 C   0  0  0  0  0  0  0  0  0  0  0  0
  -22.3455  -29.1147   23.6781 C   0  0  0  0  0  0  0  0  0  0  0  0
  -25.9802  -23.8443   19.6525 C   0  0  0  0  0  0  0  0  0  0  0  0
  -22.8780  -30.3483   23.0554 C   0  0  0  0  0  0  0  0  0  0  0  0
  -26.1262  -14.8370   21.1976 C   0  0  0  0  0  0  0  0  0  0  0  0
  -23.6807  -13.4355   22.8032 C   0  0  0  0  0  0  0  0  0  0  0  0
  -20.7288  -13.7981   24.4770 C   0  0  0  0  0  0  0  0  0  0  0  0
  -29.8099  -11.7187   19.5350 C   0  0  0  0  0  0  0  0  0  0  0  0
  -26.0577  -16.2116   23.3098 C   0  0  0  0  0  0  0  0  0  0  0  0
  -23.3627  -15.8508   22.1471 C   0  0  0  0  0  0  0  0  0  0  0  0
  -28.3011  -11.6134   19.7415 C   0  0  0  0  0  0  0  0  0  0  0  0
  -24.7028  -31.1432   20.0730 C   0  0  0  0  0  0  0  0  0  0  0  0
  -27.5920  -12.8109   19.1170 C   0  0  0  0  0  0  0  0  0  0  0  0
  -25.4487  -29.8466   19.7594 C   0  0  0  0  0  0  0  0  0  0  0  0
  -24.5686  -31.3603   21.5767 C   0  0  0  0  0  0  0  0  0  0  0  0
  -24.6679  -28.9164   21.9843 C   0  0  0  0  0  0  0  0  0  0  0  0
  -28.0387  -14.1216   19.7758 C   0  0  1  0  0  0  0  0  0  0  0  0
  -25.6478  -14.9142   22.6199 C   0  0  1  0  0  0  0  0  0  0  0  0
  -24.7989  -28.6489   20.4748 C   0  0  2  0  0  0  0  0  0  0  0  0
  -21.6095  -25.8950   25.4628 C   0  0  0  0  0  0  0  0  0  0  0  0
  -18.9477  -12.4673   25.6406 C   0  0  0  0  0  0  0  0  0  0  0  0
  -22.5744  -12.5563   20.0990 C   0  0  0  0  0  0  0  0  0  0  0  0
  -20.3861  -12.0923   21.2234 C   0  0  0  0  0  0  0  0  0  0  0  0
  -22.4266  -10.8263   21.8989 C   0  0  0  0  0  0  0  0  0  0  0  0
  -21.2236  -15.1698   27.0524 C   0  0  0  0  0  0  0  0  0  0  0  0
  -22.2166  -26.2428   24.1080 C   0  0  0  0  0  0  0  0  0  0  0  0
  -21.0541  -21.7757   20.7769 C   0  0  0  0  0  0  0  0  0  0  0  0
  -20.9027  -22.7026   21.9781 C   0  0  0  0  0  0  0  0  0  0  0  0
  -21.7165  -20.4598   21.1629 C   0  0  0  0  0  0  0  0  0  1  0  0
  -20.2800  -24.0348   21.5853 C   0  0  0  0  0  0  0  0  0  0  0  0
  -22.2022  -13.2574   22.5558 C   0  0  1  0  0  0  0  0  0  0  0  0
  -20.2480  -13.2390   25.8039 C   0  0  2  0  0  0  0  0  0  0  0  0
  -21.9092  -12.2089   21.4457 C   0  0  0  0  0  0  0  0  0  0  0  0
  -26.8692  -27.3939   20.0041 N   0  0  0  0  0  0  0  0  0  0  0  0
  -22.8551  -28.8057   24.8382 N   0  0  0  0  0  0  0  0  0  0  0  0
  -25.5391  -27.3546   20.1919 N   0  0  0  0  0  0  0  0  0  0  0  0
  -23.9820  -30.1914   22.2293 N   0  0  0  0  0  0  0  0  0  0  0  0
  -24.1964  -14.7223   22.5932 N   0  0  0  0  0  0  0  0  0  0  0  0
  -23.6842  -25.8832   20.2627 N   0  0  0  0  0  0  0  0  0  0  0  0
  -27.1600  -23.1365   19.3852 N   0  0  0  0  0  0  0  0  0  0  0  0
  -27.3877  -14.2908   21.0572 N   0  0  0  0  0  0  0  0  0  0  0  0
  -21.6071  -12.9402   23.8494 N   0  0  0  0  0  0  0  0  0  0  0  0
  -20.0202  -14.3426   26.7791 N   0  3  0  0  0  0  0  0  0  0  0  0
  -24.8916  -23.2237   19.7097 O   0  0  0  0  0  0  0  0  0  0  0  0
  -22.2839  -31.3806   23.3382 O   0  0  0  0  0  0  0  0  0  0  0  0
  -25.4036  -15.2415   20.2943 O   0  0  0  0  0  0  0  0  0  0  0  0
  -24.3520  -12.4702   23.1762 O   0  0  0  0  0  0  0  0  0  0  0  0
  -20.3592  -14.8854   24.0392 O   0  0  0  0  0  0  0  0  0  0  0  0
  -32.4914  -24.6494   18.8178 O   0  0  0  0  0  0  0  0  0  0  0  0
  -23.0074  -20.7115   21.7164 O   0  0  0  0  0  0  0  0  0  1  0  0
  -20.1532  -24.8433   22.7468 O   0  0  0  0  0  0  0  0  0  0  0  0
  -34.4423  -20.2186   21.4570 F   0  0  0  0  0  0  0  0  0  0  0  0
  -18.5329  -28.8344   20.7381 F   0  0  0  0  0  0  0  0  0  0  0  0
  -34.6586  -24.8537   20.5220 F   0  0  0  0  0  0  0  0  0  0  0  0
  1  2  1  0  0  0  0
  1  5  2  0  0  0  0
  2  6  2  0  0  0  0
  3  8  2  0  0  0  0
  3 17  1  0  0  0  0
  4  9  1  0  0  0  0
  4 17  2  0  0  0  0
  5 20  1  0  0  0  0
  6 22  1  0  0  0  0
  7 10  2  0  0  0  0
  7 21  1  0  0  0  0
  8 25  1  0  0  0  0
  9 25  2  0  0  0  0
 10 26  1  0  0  0  0
 11 12  2  0  0  0  0
 11 27  1  0  0  0  0
 12 29  1  0  0  0  0
 13 18  1  0  0  0  0
 13 30  2  0  0  0  0
 14 23  1  0  0  0  0
 14 26  2  0  0  0  0
 15 28  2  0  0  0  0
 15 30  1  0  0  0  0
 16 29  2  0  0  0  0
 16 31  1  0  0  0  0
 17 32  1  0  0  0  0
 18 24  2  0  0  0  0
 18 34  1  0  0  0  0
 19 32  1  0  0  0  0
 19 33  2  0  0  0  0
 19 35  1  0  0  0  0
 20 22  2  0  0  0  0
 20 40  1  0  0  0  0
 21 23  2  0  0  0  0
 21 41  1  0  0  0  0
 22 49  1  0  0  0  0
 23 42  1  0  0  0  0
 24 28  1  0  0  0  0
 24 58  1  0  0  0  0
 25 81  1  0  0  0  0
 26 82  1  0  0  0  0
 27 31  2  0  0  0  0
 27 81  1  0  0  0  0
 28 83  1  0  0  0  0
 29 84  1  0  0  0  0
 30 85  1  0  0  0  0
 31 86  1  0  0  0  0
 32 66  2  0  0  0  0
 33 68  1  0  0  0  0
 33 71  1  0  0  0  0
 34 36  1  0  0  0  0
 34 67  2  0  0  0  0
 35 72  1  0  0  0  0
 35 76  2  0  0  0  0
 36 69  1  0  0  0  0
 36 77  2  0  0  0  0
 37 50  1  0  0  0  0
 37 73  1  0  0  0  0
 37 78  2  0  0  0  0
 38 63  1  0  0  0  0
 38 70  1  0  0  0  0
 38 79  2  0  0  0  0
 39 64  1  0  0  0  0
 39 74  1  0  0  0  0
 39 80  2  0  0  0  0
 40 43  1  0  0  0  0
 41 50  1  0  0  0  0
 42 70  1  0  0  0  0
 43 45  1  0  0  0  0
 44 46  1  0  0  0  0
 44 47  1  0  0  0  0
 45 49  1  0  0  0  0
 46 51  1  0  0  0  0
 47 69  1  0  0  0  0
 48 51  1  0  0  0  0
 48 69  1  0  0  0  0
 49 73  1  0  0  0  0
 50 70  1  0  0  0  0
 51 68  1  0  0  0  0
 52 58  1  0  0  0  0
 53 64  1  0  0  0  0
 54 65  1  0  0  0  0
 55 65  1  0  0  0  0
 56 65  1  0  0  0  0
 57 75  1  0  0  0  0
 59 60  1  0  0  0  0
 59 61  1  0  0  0  0
 60 62  1  0  0  0  0
 61 82  1  0  0  0  0
 62 83  1  0  0  0  0
 63 65  1  0  0  0  0
 63 74  1  0  0  0  0
 64 75  1  0  0  0  0
 66 68  1  0  0  0  0
M  CHG  1  75   1
M  ISO  4  34 100  36 100  61 101  82 101
M  END
> <Batch ID>
0117

> <Smiles>
CCc1c(OCCC[101CH2:1][101O:1]c2ccc3c(c2)CN(C(=O)C(NC(=O)C(C)NC)C(C)(C)C)C(C(=O)NC2CCCc4ccccc42)C3)cc(F)cc1[100C:0](=N)[100C:0](=O)N1CCCC(n2nc(-c3ccc(Oc4ccc(F)cc4F)cc3)c(C(N)=O)c2N)C1

> <Shape>
0.222

> <Color>
0.068

> <Negative vol penalty>
0.000

$$$$

  -OEChem-04052301463D

 82 90  0     1  0  0  0  0  0999 V2000
  -28.6617  -33.3220   23.4472 C   0  0  0  0  0  0  0  0  0  0  0  0
  -28.5839  -31.9579   23.1852 C   0  0  0  0  0  0  0  0  0  0  0  0
  -24.1050   -9.7613   22.2855 C   0  0  0  0  0  0  0  0  0  0  0  0
  -23.3256  -10.3609   20.0787 C   0  0  0  0  0  0  0  0  0  0  0  0
  -27.5422  -34.0047   23.9207 C   0  0  0  0  0  0  0  0  0  0  0  0
  -27.3866  -31.2755   23.3979 C   0  0  0  0  0  0  0  0  0  0  0  0
  -26.2305  -28.1470   19.5872 C   0  0  0  0  0  0  0  0  0  0  0  0
  -23.1965   -8.7034   22.3190 C   0  0  0  0  0  0  0  0  0  0  0  0
  -22.4171   -9.3029   20.1121 C   0  0  0  0  0  0  0  0  0  0  0  0
  -26.9071  -26.9291   19.5357 C   0  0  0  0  0  0  0  0  0  0  0  0
  -22.9696   -5.5741   21.0584 C   0  0  0  0  0  0  0  0  0  0  0  0
  -23.4296   -4.3389   21.5148 C   0  0  0  0  0  0  0  0  0  0  0  0
  -24.9986  -25.8338   20.5243 C   0  0  0  0  0  0  0  0  0  0  0  0
  -29.7262  -20.3911   17.3339 C   0  0  0  0  0  0  0  0  0  0  0  0
  -28.7098  -18.2519   17.7525 C   0  0  0  0  0  0  0  0  0  0  0  0
  -21.7946   -4.3871   23.2929 C   0  0  0  0  0  0  0  0  0  0  0  0
  -24.1695  -10.5901   21.1654 C   0  0  0  0  0  0  0  0  0  0  0  0
  -26.4316  -11.6525   20.6542 C   0  0  0  0  0  0  0  0  0  0  0  0
  -26.3278  -33.3322   24.1301 C   0  0  0  0  0  0  0  0  0  0  0  0
  -24.9348  -28.2194   20.1186 C   0  0  0  0  0  0  0  0  0  0  0  0
  -26.2501  -31.9496   23.8760 C   0  0  0  0  0  0  0  0  0  0  0  0
  -24.3067  -27.0534   20.5791 C   0  0  0  0  0  0  0  0  0  0  0  0
  -22.3526   -8.4741   21.2323 C   0  0  0  0  0  0  0  0  0  0  0  0
  -26.2923  -25.7727   20.0069 C   0  0  0  0  0  0  0  0  0  0  0  0
  -21.9222   -6.2159   21.7193 C   0  0  0  0  0  0  0  0  0  0  0  0
  -29.6050  -19.0384   17.0360 C   0  0  0  0  0  0  0  0  0  0  0  0
  -22.8420   -3.7454   22.6320 C   0  0  0  0  0  0  0  0  0  0  0  0
  -21.3347   -5.6223   22.8365 C   0  0  0  0  0  0  0  0  0  0  0  0
  -25.1073  -11.6834   21.1305 C   0  0  0  0  0  0  0  0  0  0  0  0
  -28.9358  -20.9049   18.3494 C   0  0  0  0  0  0  0  0  0  0  0  0
  -27.9651  -18.8614   18.7493 C   0  0  0  0  0  0  0  0  0  0  0  0
  -26.8927  -12.9332   20.8383 C   0  0  0  0  0  0  0  0  0  0  0  0
  -27.9285  -22.9457   18.5641 C   0  0  0  0  0  0  0  0  0  0  0  0
  -27.1783  -10.5637   20.0951 C   0  0  0  0  0  0  0  0  0  0  0  0
  -23.6016  -29.7212   22.5826 C   0  0  0  0  0  0  0  0  0  0  0  0
  -20.8590  -28.5334   21.3217 C   0  0  0  0  0  0  0  0  0  0  0  0
  -19.3483  -26.1601   19.3898 C   0  0  0  0  0  0  0  0  0  0  0  0
  -26.2116  -18.4496   20.5106 C   0  0  0  0  0  0  0  0  0  0  0  0
  -25.1578  -34.1033   24.6880 C   0  0  0  0  0  0  0  0  0  0  0  0
  -24.2082  -29.5362   20.1425 C   0  0  0  0  0  0  0  0  0  0  0  0
  -22.9092  -27.0742   21.1403 C   0  0  0  0  0  0  0  0  0  0  0  0
  -23.8220  -33.3815   24.5308 C   0  0  0  0  0  0  0  0  0  0  0  0
  -24.8897  -16.8206   23.3874 C   0  0  0  0  0  0  0  0  0  0  0  0
  -23.9512  -31.9214   24.9530 C   0  0  0  0  0  0  0  0  0  0  0  0
  -24.9374  -15.3363   23.0175 C   0  0  0  0  0  0  0  0  0  0  0  0
  -24.5376  -17.6938   22.1844 C   0  0  0  0  0  0  0  0  0  0  0  0
  -25.4277  -16.0028   20.6295 C   0  0  0  0  0  0  0  0  0  0  0  0
  -24.9621  -31.1793   24.0705 C   0  0  1  0  0  0  0  0  0  0  0  0
  -23.0882  -29.5820   21.1773 C   0  0  1  0  0  0  0  0  0  0  0  0
  -25.8422  -15.0891   21.7944 C   0  0  2  0  0  0  0  0  0  0  0  0
  -17.0904  -25.4268   18.5765 C   0  0  0  0  0  0  0  0  0  0  0  0
  -20.2583  -27.3462   24.0676 C   0  0  0  0  0  0  0  0  0  0  0  0
  -18.5483  -25.8757   22.9805 C   0  0  0  0  0  0  0  0  0  0  0  0
  -18.2829  -28.3551   22.9123 C   0  0  0  0  0  0  0  0  0  0  0  0
  -20.1059  -26.5719   16.5587 C   0  0  0  0  0  0  0  0  0  0  0  0
  -31.2528  -19.3532   15.3503 C   0  0  0  0  0  0  0  0  0  0  0  0
  -27.8954  -24.4058   18.9036 C   0  0  0  0  0  0  0  0  0  1  0  0
  -20.0667  -27.2600   21.4942 C   0  0  1  0  0  0  0  0  0  0  0  0
  -18.3199  -26.2708   18.2787 C   0  0  2  0  0  0  0  0  0  0  0  0
  -19.3161  -27.2089   22.8549 C   0  0  0  0  0  0  0  0  0  0  0  0
  -24.7502  -12.8881   21.5834 N   0  0  0  0  0  0  0  0  0  0  0  0
  -28.0553  -20.1723   19.0673 N   0  0  0  0  0  0  0  0  0  0  0  0
  -29.0216  -22.2661   18.6871 N   0  0  0  0  0  0  0  0  0  0  0  0
  -25.8570  -13.6261   21.3925 N   0  0  0  0  0  0  0  0  0  0  0  0
  -22.2426  -28.3868   21.1481 N   0  0  0  0  0  0  0  0  0  0  0  0
  -25.4388  -17.4079   21.0659 N   0  0  0  0  0  0  0  0  0  0  0  0
  -28.0791  -13.5227   20.5787 N   0  0  0  0  0  0  0  0  0  0  0  0
  -26.5525   -9.3151   19.9777 N   0  0  0  0  0  0  0  0  0  0  0  0
  -27.0554  -18.0520   19.4740 N   0  0  0  0  0  0  0  0  0  0  0  0
  -24.3705  -30.8502   22.7914 N   0  0  0  0  0  0  0  0  0  0  0  0
  -19.1965  -27.1595   20.3276 N   0  0  0  0  0  0  0  0  0  0  0  0
  -18.9028  -25.8124   16.9860 N   0  3  0  0  0  0  0  0  0  0  0  0
  -28.3705  -10.6899   19.7262 O   0  0  0  0  0  0  0  0  0  0  0  0
  -23.3198  -28.8682   23.4161 O   0  0  0  0  0  0  0  0  0  0  0  0
  -20.2711  -29.6177   21.3332 O   0  0  0  0  0  0  0  0  0  0  0  0
  -20.1987  -25.2735   19.4245 O   0  0  0  0  0  0  0  0  0  0  0  0
  -26.1509  -19.6038   20.9423 O   0  0  0  0  0  0  0  0  0  0  0  0
  -21.4662   -7.4418   21.2645 O   0  0  0  0  0  0  0  0  0  0  0  0
  -30.3572  -18.4867   16.0459 O   0  0  0  0  0  0  0  0  0  0  0  0
  -26.9507  -24.5828   19.9583 O   0  0  0  0  0  0  0  0  0  1  0  0
  -23.2828   -2.5585   23.0693 F   0  0  0  0  0  0  0  0  0  0  0  0
  -20.3273   -6.2335   23.4748 F   0  0  0  0  0  0  0  0  0  0  0  0
  1  2  1  0  0  0  0
  1  5  2  0  0  0  0
  2  6  2  0  0  0  0
  3  8  2  0  0  0  0
  3 17  1  0  0  0  0
  4  9  1  0  0  0  0
  4 17  2  0  0  0  0
  5 19  1  0  0  0  0
  6 21  1  0  0  0  0
  7 10  2  0  0  0  0
  7 20  1  0  0  0  0
  8 23  1  0  0  0  0
  9 23  2  0  0  0  0
 10 24  1  0  0  0  0
 11 12  2  0  0  0  0
 11 25  1  0  0  0  0
 12 27  1  0  0  0  0
 13 22  1  0  0  0  0
 13 24  2  0  0  0  0
 14 26  2  0  0  0  0
 14 30  1  0  0  0  0
 15 26  1  0  0  0  0
 15 31  2  0  0  0  0
 16 27  2  0  0  0  0
 16 28  1  0  0  0  0
 17 29  1  0  0  0  0
 18 29  1  0  0  0  0
 18 32  2  0  0  0  0
 18 34  1  0  0  0  0
 19 21  2  0  0  0  0
 19 39  1  0  0  0  0
 20 22  2  0  0  0  0
 20 40  1  0  0  0  0
 21 48  1  0  0  0  0
 22 41  1  0  0  0  0
 23 78  1  0  0  0  0
 24 80  1  0  0  0  0
 25 28  2  0  0  0  0
 25 78  1  0  0  0  0
 26 79  1  0  0  0  0
 27 81  1  0  0  0  0
 28 82  1  0  0  0  0
 29 61  2  0  0  0  0
 30 62  2  0  0  0  0
 30 63  1  0  0  0  0
 31 62  1  0  0  0  0
 31 69  1  0  0  0  0
 32 64  1  0  0  0  0
 32 67  1  0  0  0  0
 33 57  1  0  0  0  0
 33 63  2  0  0  0  0
 34 68  1  0  0  0  0
 34 73  2  0  0  0  0
 35 49  1  0  0  0  0
 35 70  1  0  0  0  0
 35 74  2  0  0  0  0
 36 58  1  0  0  0  0
 36 65  1  0  0  0  0
 36 75  2  0  0  0  0
 37 59  1  0  0  0  0
 37 71  1  0  0  0  0
 37 76  2  0  0  0  0
 38 66  1  0  0  0  0
 38 69  1  0  0  0  0
 38 77  2  0  0  0  0
 39 42  1  0  0  0  0
 40 49  1  0  0  0  0
 41 65  1  0  0  0  0
 42 44  1  0  0  0  0
 43 45  1  0  0  0  0
 43 46  1  0  0  0  0
 44 48  1  0  0  0  0
 45 50  1  0  0  0  0
 46 66  1  0  0  0  0
 47 50  1  0  0  0  0
 47 66  1  0  0  0  0
 48 70  1  0  0  0  0
 49 65  1  0  0  0  0
 50 64  1  0  0  0  0
 51 59  1  0  0  0  0
 52 60  1  0  0  0  0
 53 60  1  0  0  0  0
 54 60  1  0  0  0  0
 55 72  1  0  0  0  0
 56 79  1  0  0  0  0
 57 80  1  0  0  0  0
 58 60  1  0  0  0  0
 58 71  1  0  0  0  0
 59 72  1  0  0  0  0
 61 64  1  0  0  0  0
M  CHG  1  72   1
M  ISO  4  38 100  57 101  69 100  80 101
M  END
> <Batch ID>
0117

> <Smiles>
CNC(C)C(=O)NC(C(=O)N1Cc2cc([101O:1][101CH:1]=CNc3cc(OC)cc([100NH:0][100C:0](=O)N4CCCC(n5nc(-c6ccc(Oc7ccc(F)cc7F)cc6)c(C(N)=O)c5N)C4)n3)ccc2CC1C(=O)NC1CCCc2ccccc21)C(C)(C)C

> <Shape>
0.301

> <Color>
0.078

> <Negative vol penalty>
0.000

$$$$

  -OEChem-04052301463D

 85 93  0     1  0  0  0  0  0999 V2000
  -28.1832  -33.0942   27.1908 C   0  0  0  0  0  0  0  0  0  0  0  0
  -28.3122  -32.0106   26.3280 C   0  0  0  0  0  0  0  0  0  0  0  0
  -23.9515   -9.8350   22.5087 C   0  0  0  0  0  0  0  0  0  0  0  0
  -23.9557  -11.3224   24.4126 C   0  0  0  0  0  0  0  0  0  0  0  0
  -26.9157  -33.5456   27.5565 C   0  0  0  0  0  0  0  0  0  0  0  0
  -27.1737  -31.3770   25.8311 C   0  0  0  0  0  0  0  0  0  0  0  0
  -27.4906  -30.4249   20.8674 C   0  0  0  0  0  0  0  0  0  0  0  0
  -23.3368   -8.8490   23.2803 C   0  0  0  0  0  0  0  0  0  0  0  0
  -23.3410  -10.3364   25.1842 C   0  0  0  0  0  0  0  0  0  0  0  0
  -28.2612  -29.3306   20.4769 C   0  0  0  0  0  0  0  0  0  0  0  0
  -20.2272   -8.1448   24.4059 C   0  0  0  0  0  0  0  0  0  0  0  0
  -19.1547   -7.4545   23.8412 C   0  0  0  0  0  0  0  0  0  0  0  0
  -28.4901  -20.9254   21.7854 C   0  0  0  0  0  0  0  0  0  0  0  0
  -26.2548  -28.0152   20.2252 C   0  0  0  0  0  0  0  0  0  0  0  0
  -30.6605  -19.1782   21.9237 C   0  0  0  0  0  0  0  0  0  0  0  0
  -20.3635   -5.3769   24.0851 C   0  0  0  0  0  0  0  0  0  0  0  0
  -24.2610  -11.0718   23.0748 C   0  0  0  0  0  0  0  0  0  0  0  0
  -28.3112  -19.5684   21.5166 C   0  0  0  0  0  0  0  0  0  0  0  0
  -24.2644  -13.0826   21.5050 C   0  0  0  0  0  0  0  0  0  0  0  0
  -25.7611  -32.9233   27.0562 C   0  0  0  0  0  0  0  0  0  0  0  0
  -26.0947  -30.3192   20.9504 C   0  0  0  0  0  0  0  0  0  0  0  0
  -25.8896  -31.8197   26.1914 C   0  0  0  0  0  0  0  0  0  0  0  0
  -25.4686  -29.1103   20.6146 C   0  0  0  0  0  0  0  0  0  0  0  0
  -29.3964  -18.6948   21.5858 C   0  0  0  0  0  0  0  0  0  0  0  0
  -23.0315   -9.0997   24.6181 C   0  0  0  0  0  0  0  0  0  0  0  0
  -27.6435  -28.1247   20.1585 C   0  0  0  0  0  0  0  0  0  0  0  0
  -21.3679   -7.4511   24.8101 C   0  0  0  0  0  0  0  0  0  0  0  0
  -29.7542  -21.4088   22.1232 C   0  0  0  0  0  0  0  0  0  0  0  0
  -19.2228   -6.0705   23.6809 C   0  0  0  0  0  0  0  0  0  0  0  0
  -30.8393  -20.5352   22.1924 C   0  0  0  0  0  0  0  0  0  0  0  0
  -21.4360   -6.0672   24.6498 C   0  0  0  0  0  0  0  0  0  0  0  0
  -24.8965  -12.0905   22.2784 C   0  0  0  0  0  0  0  0  0  0  0  0
  -25.2985  -13.7943   20.9478 C   0  0  0  0  0  0  0  0  0  0  0  0
  -26.3112  -19.5130   20.0981 C   0  0  0  0  0  0  0  0  0  0  0  0
  -26.9755  -19.1002   21.1664 C   0  0  0  0  0  0  0  0  0  0  0  0
  -30.1081  -25.5224   20.3693 C   0  0  0  0  0  0  0  0  0  0  0  0
  -30.4343  -24.8821   21.5016 C   0  0  0  0  0  0  0  0  0  0  0  0
  -22.8674  -13.3379   21.3080 C   0  0  0  0  0  0  0  0  0  0  0  0
  -23.9596  -30.5927   23.2892 C   0  0  0  0  0  0  0  0  0  0  0  0
  -21.8347  -30.2782   20.8585 C   0  0  0  0  0  0  0  0  0  0  0  0
  -21.1887  -29.1513   17.7027 C   0  0  0  0  0  0  0  0  0  0  0  0
  -30.2382  -16.3321   21.3503 C   0  0  0  0  0  0  0  0  0  0  0  0
  -24.4126  -33.4171   27.5172 C   0  0  0  0  0  0  0  0  0  0  0  0
  -25.2757  -31.5166   21.3475 C   0  0  0  0  0  0  0  0  0  0  0  0
  -23.9718  -28.9509   20.6680 C   0  0  0  0  0  0  0  0  0  0  0  0
  -23.2555  -32.9267   26.6506 C   0  0  0  0  0  0  0  0  0  0  0  0
  -30.2624  -12.8159   20.7908 C   0  0  0  0  0  0  0  0  0  0  0  0
  -23.3877  -31.4314   26.3798 C   0  0  0  0  0  0  0  0  0  0  0  0
  -28.8165  -12.3954   21.0643 C   0  0  0  0  0  0  0  0  0  0  0  0
  -30.7191  -13.9250   21.7369 C   0  0  0  0  0  0  0  0  0  0  0  0
  -28.3964  -14.6815   22.0564 C   0  0  0  0  0  0  0  0  0  0  0  0
  -24.6784  -31.1218   25.6118 C   0  0  1  0  0  0  0  0  0  0  0  0
  -23.9003  -31.1455   21.8933 C   0  0  1  0  0  0  0  0  0  0  0  0
  -27.8702  -13.6118   21.0855 C   0  0  2  0  0  0  0  0  0  0  0  0
  -19.3503  -29.0056   16.0008 C   0  0  0  0  0  0  0  0  0  0  0  0
  -20.5599  -27.9976   22.4344 C   0  0  0  0  0  0  0  0  0  0  0  0
  -19.3913  -27.2932   20.3353 C   0  0  0  0  0  0  0  0  0  0  0  0
  -18.9310  -29.5366   21.3241 C   0  0  0  0  0  0  0  0  0  0  0  0
  -22.7092  -30.7751   15.7508 C   0  0  0  0  0  0  0  0  0  0  0  0
  -29.7121  -26.9617   20.3150 C   0  0  0  0  0  0  0  0  0  1  0  0
  -30.8417  -23.4459   21.5547 C   0  0  0  0  0  0  0  0  0  0  0  0
  -21.1475  -29.1162   20.1829 C   0  0  1  0  0  0  0  0  0  0  0  0
  -20.5298  -29.8197   16.5096 C   0  0  2  0  0  0  0  0  0  0  0  0
  -20.0358  -28.4880   21.0699 C   0  0  0  0  0  0  0  0  0  0  0  0
  -26.2290  -12.1623   22.2200 N   0  0  0  0  0  0  0  0  0  0  0  0
  -26.4426  -13.2080   21.4032 N   0  0  0  0  0  0  0  0  0  0  0  0
  -23.2150  -30.1487   21.0681 N   0  0  0  0  0  0  0  0  0  0  0  0
  -29.7769  -15.0457   21.7010 N   0  0  0  0  0  0  0  0  0  0  0  0
  -25.3317  -14.8582   20.1174 N   0  0  0  0  0  0  0  0  0  0  0  0
  -21.9393  -12.5108   21.9552 N   0  0  0  0  0  0  0  0  0  0  0  0
  -29.2460  -17.3115   21.3182 N   0  0  0  0  0  0  0  0  0  0  0  0
  -24.5249  -31.4528   24.2113 N   0  0  0  0  0  0  0  0  0  0  0  0
  -20.6748  -29.6140   18.8956 N   0  0  0  0  0  0  0  0  0  0  0  0
  -21.5088  -29.9748   15.3967 N   0  3  0  0  0  0  0  0  0  0  0  0
  -22.4543  -14.2616   20.5666 O   0  0  0  0  0  0  0  0  0  0  0  0
  -23.5233  -29.4697   23.5134 O   0  0  0  0  0  0  0  0  0  0  0  0
  -21.1726  -31.2675   21.1818 O   0  0  0  0  0  0  0  0  0  0  0  0
  -22.0685  -28.3008   17.5878 O   0  0  0  0  0  0  0  0  0  0  0  0
  -31.4210  -16.5435   21.0706 O   0  0  0  0  0  0  0  0  0  0  0  0
  -22.4315   -8.1378   25.3713 O   0  0  0  0  0  0  0  0  0  0  0  0
  -28.3934  -27.0549   19.7777 O   0  0  0  0  0  0  0  0  0  1  0  0
  -29.9290  -22.7428   22.3861 O   0  0  0  0  0  0  0  0  0  0  0  0
  -18.1922   -5.4076   23.1400 F   0  0  0  0  0  0  0  0  0  0  0  0
  -32.0562  -20.9940   22.5159 F   0  0  0  0  0  0  0  0  0  0  0  0
  -22.5287   -5.3952   25.0373 F   0  0  0  0  0  0  0  0  0  0  0  0
  1  2  1  0  0  0  0
  1  5  2  0  0  0  0
  2  6  2  0  0  0  0
  3  8  2  0  0  0  0
  3 17  1  0  0  0  0
  4  9  1  0  0  0  0
  4 17  2  0  0  0  0
  5 20  1  0  0  0  0
  6 22  1  0  0  0  0
  7 10  2  0  0  0  0
  7 21  1  0  0  0  0
  8 25  1  0  0  0  0
  9 25  2  0  0  0  0
 10 26  1  0  0  0  0
 11 12  2  0  0  0  0
 11 27  1  0  0  0  0
 12 29  1  0  0  0  0
 13 18  1  0  0  0  0
 13 28  2  0  0  0  0
 14 23  1  0  0  0  0
 14 26  2  0  0  0  0
 15 24  1  0  0  0  0
 15 30  2  0  0  0  0
 16 29  2  0  0  0  0
 16 31  1  0  0  0  0
 17 32  1  0  0  0  0
 18 24  2  0  0  0  0
 18 35  1  0  0  0  0
 19 32  1  0  0  0  0
 19 33  2  0  0  0  0
 19 38  1  0  0  0  0
 20 22  2  0  0  0  0
 20 43  1  0  0  0  0
 21 23  2  0  0  0  0
 21 44  1  0  0  0  0
 22 52  1  0  0  0  0
 23 45  1  0  0  0  0
 24 71  1  0  0  0  0
 25 80  1  0  0  0  0
 26 81  1  0  0  0  0
 27 31  2  0  0  0  0
 27 80  1  0  0  0  0
 28 30  1  0  0  0  0
 28 82  1  0  0  0  0
 29 83  1  0  0  0  0
 30 84  1  0  0  0  0
 31 85  1  0  0  0  0
 32 65  2  0  0  0  0
 33 66  1  0  0  0  0
 33 69  1  0  0  0  0
 34 35  2  0  0  0  0
 36 37  2  0  0  0  0
 36 60  1  0  0  0  0
 37 61  1  0  0  0  0
 38 70  1  0  0  0  0
 38 75  2  0  0  0  0
 39 53  1  0  0  0  0
 39 72  1  0  0  0  0
 39 76  2  0  0  0  0
 40 62  1  0  0  0  0
 40 67  1  0  0  0  0
 40 77  2  0  0  0  0
 41 63  1  0  0  0  0
 41 73  1  0  0  0  0
 41 78  2  0  0  0  0
 42 68  1  0  0  0  0
 42 71  1  0  0  0  0
 42 79  2  0  0  0  0
 43 46  1  0  0  0  0
 44 53  1  0  0  0  0
 45 67  1  0  0  0  0
 46 48  1  0  0  0  0
 47 49  1  0  0  0  0
 47 50  1  0  0  0  0
 48 52  1  0  0  0  0
 49 54  1  0  0  0  0
 50 68  1  0  0  0  0
 51 54  1  0  0  0  0
 51 68  1  0  0  0  0
 52 72  1  0  0  0  0
 53 67  1  0  0  0  0
 54 66  1  0  0  0  0
 55 63  1  0  0  0  0
 56 64  1  0  0  0  0
 57 64  1  0  0  0  0
 58 64  1  0  0  0  0
 59 74  1  0  0  0  0
 60 81  1  0  0  0  0
 61 82  1  0  0  0  0
 62 64  1  0  0  0  0
 62 73  1  0  0  0  0
 63 74  1  0  0  0  0
 65 66  1  0  0  0  0
M  CHG  1  74   1
M  ISO  4  42 100  60 101  71 100  81 101
M  END
> <Batch ID>
0117

> <Smiles>
C=Cc1cc(OCC=C[101CH2:1][101O:1]c2ccc3c(c2)CN(C(=O)C(NC(=O)C(C)NC)C(C)(C)C)C(C(=O)NC2CCCc4ccccc42)C3)c(F)cc1[100NH:0][100C:0](=O)N1CCCC(n2nc(-c3ccc(Oc4ccc(F)cc4F)cc3)c(C(N)=O)c2N)C1

> <Shape>
0.305

> <Color>
0.132

> <Negative vol penalty>
0.000

$$$$

  -OEChem-04052301463D

 87 95  0     1  0  0  0  0  0999 V2000
  -29.6001  -28.4851   12.7287 C   0  0  0  0  0  0  0  0  0  0  0  0
  -29.9771  -27.4797   13.6133 C   0  0  0  0  0  0  0  0  0  0  0  0
  -23.2003   -9.7978   19.9286 C   0  0  0  0  0  0  0  0  0  0  0  0
  -23.5696   -9.9839   22.3089 C   0  0  0  0  0  0  0  0  0  0  0  0
  -29.3934  -29.7822   13.1964 C   0  0  0  0  0  0  0  0  0  0  0  0
  -30.1487  -27.7711   14.9661 C   0  0  0  0  0  0  0  0  0  0  0  0
  -28.0250  -24.3039   17.9849 C   0  0  0  0  0  0  0  0  0  0  0  0
  -22.4426   -8.6452   20.1362 C   0  0  0  0  0  0  0  0  0  0  0  0
  -22.8118   -8.8314   22.5166 C   0  0  0  0  0  0  0  0  0  0  0  0
  -28.7156  -23.1059   18.1628 C   0  0  0  0  0  0  0  0  0  0  0  0
  -23.2406   -5.4877   22.2577 C   0  0  0  0  0  0  0  0  0  0  0  0
  -23.7439   -4.5315   23.1396 C   0  0  0  0  0  0  0  0  0  0  0  0
  -28.7953  -14.8167   25.4090 C   0  0  0  0  0  0  0  0  0  0  0  0
  -30.6935  -14.9688   23.3703 C   0  0  0  0  0  0  0  0  0  0  0  0
  -29.5446  -23.9055   20.2824 C   0  0  0  0  0  0  0  0  0  0  0  0
  -21.7809   -4.7773   24.5264 C   0  0  0  0  0  0  0  0  0  0  0  0
  -23.7638  -10.4671   21.0149 C   0  0  0  0  0  0  0  0  0  0  0  0
  -29.1926  -13.6600   24.7385 C   0  0  0  0  0  0  0  0  0  0  0  0
  -29.3469  -16.0495   25.0603 C   0  0  0  0  0  0  0  0  0  0  0  0
  -30.1417  -13.7360   23.7191 C   0  0  0  0  0  0  0  0  0  0  0  0
  -24.0830  -12.9861   20.7693 C   0  0  0  0  0  0  0  0  0  0  0  0
  -29.5531  -30.0875   14.5573 C   0  0  0  0  0  0  0  0  0  0  0  0
  -28.0980  -25.3177   18.9509 C   0  0  0  0  0  0  0  0  0  0  0  0
  -29.9452  -29.0738   15.4522 C   0  0  0  0  0  0  0  0  0  0  0  0
  -28.8519  -25.1144   20.1155 C   0  0  0  0  0  0  0  0  0  0  0  0
  -22.2483   -8.1621   21.4302 C   0  0  0  0  0  0  0  0  0  0  0  0
  -29.4778  -22.9076   19.3103 C   0  0  0  0  0  0  0  0  0  0  0  0
  -22.0075   -6.0889   22.5102 C   0  0  0  0  0  0  0  0  0  0  0  0
  -30.2961  -16.1255   24.0409 C   0  0  0  0  0  0  0  0  0  0  0  0
  -23.0141   -4.1762   24.2740 C   0  0  0  0  0  0  0  0  0  0  0  0
  -21.2776   -5.7337   23.6445 C   0  0  0  0  0  0  0  0  0  0  0  0
  -24.5471  -11.6574   20.8010 C   0  0  0  0  0  0  0  0  0  0  0  0
  -25.2090  -13.7376   20.5367 C   0  0  0  0  0  0  0  0  0  0  0  0
  -28.6628  -11.8918   26.3533 C   0  0  0  0  0  0  0  0  0  0  0  0
  -27.6541  -17.6506   25.8259 C   0  0  0  0  0  0  0  0  0  0  0  0
  -28.5958  -12.3883   25.1275 C   0  0  0  0  0  0  0  0  0  0  0  0
  -28.9137  -17.2438   25.7733 C   0  0  0  0  0  0  0  0  0  0  0  0
  -30.5834  -12.5508   22.9932 C   0  0  0  0  0  0  0  0  0  0  0  0
  -22.7532  -13.4956   20.9353 C   0  0  0  0  0  0  0  0  0  0  0  0
  -31.0250  -12.6345   21.5821 C   0  0  0  0  0  0  0  0  0  0  0  0
  -29.1531  -28.3160   18.9809 C   0  0  0  0  0  0  0  0  0  0  0  0
  -27.8902  -28.3189   21.9688 C   0  0  0  0  0  0  0  0  0  0  0  0
  -26.9250  -26.5267   24.7079 C   0  0  0  0  0  0  0  0  0  0  0  0
  -29.3645  -31.5144   15.0081 C   0  0  0  0  0  0  0  0  0  0  0  0
  -27.3257  -26.5937   18.7566 C   0  0  0  0  0  0  0  0  0  0  0  0
  -28.9466  -26.1634   21.1922 C   0  0  0  0  0  0  0  0  0  0  0  0
  -29.2027  -31.6594   16.5191 C   0  0  0  0  0  0  0  0  0  0  0  0
  -29.5039  -13.5236   18.4592 C   0  0  0  0  0  0  0  0  0  0  0  0
  -30.2600  -30.8383   17.2504 C   0  0  0  0  0  0  0  0  0  0  0  0
  -28.0223  -13.2295   18.6918 C   0  0  0  0  0  0  0  0  0  0  0  0
  -30.3933  -12.5327   19.2032 C   0  0  0  0  0  0  0  0  0  0  0  0
  -28.6321  -12.1631   20.9091 C   0  0  0  0  0  0  0  0  0  0  0  0
  -30.1172  -29.3453   16.9310 C   0  0  1  0  0  0  0  0  0  0  0  0
  -27.8854  -27.7600   19.5652 C   0  0  1  0  0  0  0  0  0  0  0  0
  -27.7025  -13.1603   20.1957 C   0  0  2  0  0  0  0  0  0  0  0  0
  -25.9651  -26.8098   27.0092 C   0  0  0  0  0  0  0  0  0  0  0  0
  -30.6031  -29.2832   22.9791 C   0  0  0  0  0  0  0  0  0  0  0  0
  -29.8920  -28.6408   25.2920 C   0  0  0  0  0  0  0  0  0  0  0  0
  -28.6357  -30.3992   24.0461 C   0  0  0  0  0  0  0  0  0  0  0  0
  -24.5341  -24.9176   24.0347 C   0  0  0  0  0  0  0  0  0  0  0  0
  -30.4315  -19.7785   20.8673 C   0  0  0  0  0  0  0  0  0  0  0  0
  -30.6216  -19.2611   22.2889 C   0  0  0  0  0  0  0  0  0  0  0  0
  -30.3501  -21.2988   20.8290 C   0  0  0  0  0  0  0  0  0  1  0  0
  -30.6601  -17.7401   22.3332 C   0  0  0  0  0  0  0  0  0  0  0  0
  -28.4046  -27.9805   23.3471 C   0  0  1  0  0  0  0  0  0  0  0  0
  -25.6562  -26.5645   25.5405 C   0  0  2  0  0  0  0  0  0  0  0  0
  -29.3838  -29.0567   23.8951 C   0  0  0  0  0  0  0  0  0  0  0  0
  -25.8651  -11.5667   20.6041 N   0  0  0  0  0  0  0  0  0  0  0  0
  -30.6210  -11.3617   23.5259 N   0  0  0  0  0  0  0  0  0  0  0  0
  -26.2388  -12.8479   20.4464 N   0  0  0  0  0  0  0  0  0  0  0  0
  -30.0396  -12.4651   20.6197 N   0  0  0  0  0  0  0  0  0  0  0  0
  -28.1785  -27.3964   20.9531 N   0  0  0  0  0  0  0  0  0  0  0  0
  -25.4086  -15.0660   20.4026 N   0  0  0  0  0  0  0  0  0  0  0  0
  -21.7130  -12.5852   21.1671 N   0  0  0  0  0  0  0  0  0  0  0  0
  -29.0222  -28.7702   17.6824 N   0  0  0  0  0  0  0  0  0  0  0  0
  -27.2268  -27.7645   24.1806 N   0  0  0  0  0  0  0  0  0  0  0  0
  -24.9216  -25.2730   25.4241 N   0  3  0  0  0  0  0  0  0  0  0  0
  -22.4923  -14.7204   20.8634 O   0  0  0  0  0  0  0  0  0  0  0  0
  -32.2192  -12.8449   21.4148 O   0  0  0  0  0  0  0  0  0  0  0  0
  -30.1740  -28.3330   19.6584 O   0  0  0  0  0  0  0  0  0  0  0  0
  -27.2500  -29.3599   21.8009 O   0  0  0  0  0  0  0  0  0  0  0  0
  -27.5845  -25.5025   24.5449 O   0  0  0  0  0  0  0  0  0  0  0  0
  -21.5088   -7.0376   21.6332 O   0  0  0  0  0  0  0  0  0  0  0  0
  -30.1534  -21.7395   19.4861 O   0  0  0  0  0  0  0  0  0  1  0  0
  -30.8534  -17.3241   23.6780 O   0  0  0  0  0  0  0  0  0  0  0  0
  -23.4968   -3.2568   25.1200 F   0  0  0  0  0  0  0  0  0  0  0  0
  -20.0918   -6.3069   23.8917 F   0  0  0  0  0  0  0  0  0  0  0  0
  1  2  1  0  0  0  0
  1  5  2  0  0  0  0
  2  6  2  0  0  0  0
  3  8  2  0  0  0  0
  3 17  1  0  0  0  0
  4  9  1  0  0  0  0
  4 17  2  0  0  0  0
  5 22  1  0  0  0  0
  6 24  1  0  0  0  0
  7 10  2  0  0  0  0
  7 23  1  0  0  0  0
  8 26  1  0  0  0  0
  9 26  2  0  0  0  0
 10 27  1  0  0  0  0
 11 12  2  0  0  0  0
 11 28  1  0  0  0  0
 12 30  1  0  0  0  0
 13 18  2  0  0  0  0
 13 19  1  0  0  0  0
 14 20  2  0  0  0  0
 14 29  1  0  0  0  0
 15 25  1  0  0  0  0
 15 27  2  0  0  0  0
 16 30  2  0  0  0  0
 16 31  1  0  0  0  0
 17 32  1  0  0  0  0
 18 20  1  0  0  0  0
 18 36  1  0  0  0  0
 19 29  2  0  0  0  0
 19 37  1  0  0  0  0
 20 38  1  0  0  0  0
 21 32  1  0  0  0  0
 21 33  2  0  0  0  0
 21 39  1  0  0  0  0
 22 24  2  0  0  0  0
 22 44  1  0  0  0  0
 23 25  2  0  0  0  0
 23 45  1  0  0  0  0
 24 53  1  0  0  0  0
 25 46  1  0  0  0  0
 26 83  1  0  0  0  0
 27 84  1  0  0  0  0
 28 31  2  0  0  0  0
 28 83  1  0  0  0  0
 29 85  1  0  0  0  0
 30 86  1  0  0  0  0
 31 87  1  0  0  0  0
 32 68  2  0  0  0  0
 33 70  1  0  0  0  0
 33 73  1  0  0  0  0
 34 36  2  0  0  0  0
 35 37  2  0  0  0  0
 38 40  1  0  0  0  0
 38 69  2  0  0  0  0
 39 74  1  0  0  0  0
 39 78  2  0  0  0  0
 40 71  1  0  0  0  0
 40 79  2  0  0  0  0
 41 54  1  0  0  0  0
 41 75  1  0  0  0  0
 41 80  2  0  0  0  0
 42 65  1  0  0  0  0
 42 72  1  0  0  0  0
 42 81  2  0  0  0  0
 43 66  1  0  0  0  0
 43 76  1  0  0  0  0
 43 82  2  0  0  0  0
 44 47  1  0  0  0  0
 45 54  1  0  0  0  0
 46 72  1  0  0  0  0
 47 49  1  0  0  0  0
 48 50  1  0  0  0  0
 48 51  1  0  0  0  0
 49 53  1  0  0  0  0
 50 55  1  0  0  0  0
 51 71  1  0  0  0  0
 52 55  1  0  0  0  0
 52 71  1  0  0  0  0
 53 75  1  0  0  0  0
 54 72  1  0  0  0  0
 55 70  1  0  0  0  0
 56 66  1  0  0  0  0
 57 67  1  0  0  0  0
 58 67  1  0  0  0  0
 59 67  1  0  0  0  0
 60 77  1  0  0  0  0
 61 62  1  0  0  0  0
 61 63  1  0  0  0  0
 62 64  1  0  0  0  0
 63 84  1  0  0  0  0
 64 85  1  0  0  0  0
 65 67  1  0  0  0  0
 65 76  1  0  0  0  0
 66 77  1  0  0  0  0
 68 70  1  0  0  0  0
M  CHG  1  77   1
M  ISO  4  38 100  40 100  63 101  84 101
M  END
> <Batch ID>
0117

> <Smiles>
C=Cc1cc(C=C)c([100C:0](=N)[100C:0](=O)N2CCCC(n3nc(-c4ccc(Oc5ccc(F)cc5F)cc4)c(C(N)=O)c3N)C2)cc1OCCC[101CH2:1][101O:1]c1ccc2c(c1)CN(C(=O)C(NC(=O)C(C)NC)C(C)(C)C)C(C(=O)NC1CCCc3ccccc31)C2

> <Shape>
0.233

> <Color>
0.177

> <Negative vol penalty>
0.000

$$$$

  -OEChem-04052301463D

 95104  0     1  0  0  0  0  0999 V2000
  -32.3438  -32.1698   23.5547 C   0  0  0  0  0  0  0  0  0  0  0  0
  -31.8138  -31.0369   22.9454 C   0  0  0  0  0  0  0  0  0  0  0  0
  -22.9079   -9.8798   19.9705 C   0  0  0  0  0  0  0  0  0  0  0  0
  -24.6061   -9.0704   21.4865 C   0  0  0  0  0  0  0  0  0  0  0  0
  -31.6319  -32.8136   24.5659 C   0  0  0  0  0  0  0  0  0  0  0  0
  -30.5720  -30.5466   23.3478 C   0  0  0  0  0  0  0  0  0  0  0  0
  -26.3449  -27.8785   19.8096 C   0  0  0  0  0  0  0  0  0  0  0  0
  -21.9191   -9.3198   20.7792 C   0  0  0  0  0  0  0  0  0  0  0  0
  -23.6172   -8.5103   22.2952 C   0  0  0  0  0  0  0  0  0  0  0  0
  -26.0255  -26.5417   19.5758 C   0  0  0  0  0  0  0  0  0  0  0  0
  -21.6660   -5.7492   22.2940 C   0  0  0  0  0  0  0  0  0  0  0  0
  -21.8700   -4.4513   22.7624 C   0  0  0  0  0  0  0  0  0  0  0  0
  -27.8618  -18.8253   19.2450 C   0  0  0  0  0  0  0  0  0  0  0  0
  -24.2860  -26.6721   21.2420 C   0  0  0  0  0  0  0  0  0  0  0  0
  -25.2747  -19.3474   18.3411 C   0  0  0  0  0  0  0  0  0  0  0  0
  -21.7664   -5.2563   25.0381 C   0  0  0  0  0  0  0  0  0  0  0  0
  -24.2515   -9.7551   20.3241 C   0  0  0  0  0  0  0  0  0  0  0  0
  -27.4935  -20.1249   18.8972 C   0  0  0  0  0  0  0  0  0  0  0  0
  -25.5382  -10.0333   18.1390 C   0  0  0  0  0  0  0  0  0  0  0  0
  -30.3764  -32.3366   24.9742 C   0  0  0  0  0  0  0  0  0  0  0  0
  -25.6433  -28.6203   20.7708 C   0  0  0  0  0  0  0  0  0  0  0  0
  -29.8432  -31.1840   24.3664 C   0  0  0  0  0  0  0  0  0  0  0  0
  -24.5968  -28.0189   21.4844 C   0  0  0  0  0  0  0  0  0  0  0  0
  -26.2000  -20.3860   18.4453 C   0  0  0  0  0  0  0  0  0  0  0  0
  -26.9365  -17.7867   19.1408 C   0  0  0  0  0  0  0  0  0  0  0  0
  -22.2737   -8.6350   21.9416 C   0  0  0  0  0  0  0  0  0  0  0  0
  -24.9979  -25.9375   20.2940 C   0  0  0  0  0  0  0  0  0  0  0  0
  -21.5122   -6.8007   23.1976 C   0  0  0  0  0  0  0  0  0  0  0  0
  -25.6429  -18.0477   18.6889 C   0  0  0  0  0  0  0  0  0  0  0  0
  -21.9202   -4.2048   24.1344 C   0  0  0  0  0  0  0  0  0  0  0  0
  -21.5624   -6.5542   24.5696 C   0  0  0  0  0  0  0  0  0  0  0  0
  -25.2735  -10.3329   19.4888 C   0  0  0  0  0  0  0  0  0  0  0  0
  -26.5967  -10.8439   17.8086 C   0  0  0  0  0  0  0  0  0  0  0  0
  -23.5154  -21.6007   16.2318 C   0  0  0  0  0  0  0  0  0  0  0  0
  -29.2541  -21.4267   17.9467 C   0  0  0  0  0  0  0  0  0  0  0  0
  -28.4878  -21.1844   19.0179 C   0  0  0  0  0  0  0  0  0  0  0  0
  -24.8857   -9.1054   17.2623 C   0  0  0  0  0  0  0  0  0  0  0  0
  -26.4259  -30.0984   23.4738 C   0  0  0  0  0  0  0  0  0  0  0  0
  -23.3470  -31.1124   23.3542 C   0  0  0  0  0  0  0  0  0  0  0  0
  -20.0090  -31.5791   22.8189 C   0  0  0  0  0  0  0  0  0  0  0  0
  -28.5739  -16.0562   19.9598 C   0  0  0  0  0  0  0  0  0  0  0  0
  -29.6655  -33.0386   26.1041 C   0  0  0  0  0  0  0  0  0  0  0  0
  -25.9824  -30.0689   20.9922 C   0  0  0  0  0  0  0  0  0  0  0  0
  -23.7996  -28.7774   22.5128 C   0  0  0  0  0  0  0  0  0  0  0  0
  -23.1281  -22.7356   17.1553 C   0  0  0  0  0  0  0  0  0  0  0  0
  -24.9548  -21.4906   15.7678 C   0  0  0  0  0  0  0  0  0  0  0  0
  -28.1872  -32.6740   26.2136 C   0  0  0  0  0  0  0  0  0  0  0  0
  -23.4655  -22.4070   18.6068 C   0  0  0  0  0  0  0  0  0  0  0  0
  -30.4032  -13.0090   19.7470 C   0  0  0  0  0  0  0  0  0  0  0  0
  -28.0011  -31.1634   26.1133 C   0  0  0  0  0  0  0  0  0  0  0  0
  -29.3199  -11.9504   19.5277 C   0  0  0  0  0  0  0  0  0  0  0  0
  -25.9768  -22.1343   16.6994 C   0  0  0  0  0  0  0  0  0  0  0  0
  -29.9351  -14.1116   20.6951 C   0  0  0  0  0  0  0  0  0  0  0  0
  -27.5799  -13.6887   20.1089 C   0  0  0  0  0  0  0  0  0  0  0  0
  -28.4880  -30.6362   24.7582 C   0  0  1  0  0  0  0  0  0  0  0  0
  -25.5424  -30.5833   22.3594 C   0  0  1  0  0  0  0  0  0  0  0  0
  -27.9820  -12.5914   19.1099 C   0  0  2  0  0  0  0  0  0  0  0  0
  -24.9550  -22.4926   18.9890 C   0  0  2  0  0  0  0  0  0  0  0  0
  -28.6766  -21.9786   20.2784 C   0  0  0  0  0  0  0  0  0  0  0  0
  -23.4963  -14.5530   20.9884 C   0  0  0  0  0  0  0  0  0  0  0  0
  -17.9915  -32.6933   23.8118 C   0  0  0  0  0  0  0  0  0  0  0  0
  -22.2058  -15.9500   17.5969 C   0  0  0  0  0  0  0  0  0  0  0  0
  -23.1746  -28.9148   25.4639 C   0  0  0  0  0  0  0  0  0  0  0  0
  -20.7580  -29.4938   25.7691 C   0  0  0  0  0  0  0  0  0  0  0  0
  -22.5179  -31.1891   26.2706 C   0  0  0  0  0  0  0  0  0  0  0  0
  -19.6275  -33.2800   20.4272 C   0  0  0  0  0  0  0  0  0  0  0  0
  -25.4495  -23.9424   19.0809 C   0  0  0  0  0  0  0  0  0  1  0  0
  -23.1573  -14.6354   19.5070 C   0  0  0  0  0  0  0  0  0  0  0  0
  -23.5335  -17.1724   19.3521 C   0  0  0  0  0  0  0  0  0  0  0  0
  -22.0275  -30.5860   23.8648 C   0  0  1  0  0  0  0  0  0  0  0  0
  -19.1512  -32.8314   22.8377 C   0  0  2  0  0  0  0  0  0  0  0  0
  -22.5809  -15.9999   19.0825 C   0  0  1  0  0  0  0  0  0  0  0  0
  -22.1295  -30.0386   25.3165 C   0  0  0  0  0  0  0  0  0  0  0  0
  -26.0975  -11.2612   19.9822 N   0  0  0  0  0  0  0  0  0  0  0  0
  -26.8904  -11.5519   18.9367 N   0  0  0  0  0  0  0  0  0  0  0  0
  -25.8031  -21.6826   18.0884 N   0  0  3  0  0  0  0  0  0  0  0  0
  -24.1733  -30.1894   22.6977 N   0  0  0  0  0  0  0  0  0  0  0  0
  -28.6645  -14.6750   20.2337 N   0  0  0  0  0  0  0  0  0  0  0  0
  -27.2956  -11.0129   16.6661 N   0  0  0  0  0  0  0  0  0  0  0  0
  -23.8153   -8.3521   17.7635 N   0  0  0  0  0  0  0  0  0  0  0  0
  -27.3260  -16.4715   19.4963 N   0  0  0  0  0  0  0  0  0  0  0  0
  -27.5116  -30.9150   23.7270 N   0  0  0  0  0  0  0  0  0  0  0  0
  -21.0647  -31.6699   23.7011 N   0  0  0  0  0  0  0  0  0  0  0  0
  -18.5960  -33.0994   21.4809 N   0  3  0  0  0  0  0  0  0  0  0  0
  -22.6692  -20.7972   15.8334 O   0  0  0  0  0  0  0  0  0  0  0  0
  -25.2517   -8.9370   16.0744 O   0  0  0  0  0  0  0  0  0  0  0  0
  -26.1428  -29.0611   24.0616 O   0  0  0  0  0  0  0  0  0  0  0  0
  -23.6310  -32.3006   23.5251 O   0  0  0  0  0  0  0  0  0  0  0  0
  -19.7646  -30.6151   22.0967 O   0  0  0  0  0  0  0  0  0  0  0  0
  -29.5406  -16.8100   20.0983 O   0  0  0  0  0  0  0  0  0  0  0  0
  -21.3090   -8.0886   22.7311 O   0  0  0  0  0  0  0  0  0  0  0  0
  -24.6845  -24.6326   20.0682 O   0  0  0  0  0  0  0  0  0  1  0  0
  -24.7250  -17.0460   18.5793 O   0  0  0  0  0  0  0  0  0  0  0  0
  -22.1146   -2.9582   24.5841 F   0  0  0  0  0  0  0  0  0  0  0  0
  -21.4141   -7.5601   25.4426 F   0  0  0  0  0  0  0  0  0  0  0  0
  1  2  1  0  0  0  0
  1  5  2  0  0  0  0
  2  6  2  0  0  0  0
  3  8  2  0  0  0  0
  3 17  1  0  0  0  0
  4  9  1  0  0  0  0
  4 17  2  0  0  0  0
  5 20  1  0  0  0  0
  6 22  1  0  0  0  0
  7 10  2  0  0  0  0
  7 21  1  0  0  0  0
  8 26  1  0  0  0  0
  9 26  2  0  0  0  0
 10 27  1  0  0  0  0
 11 12  2  0  0  0  0
 11 28  1  0  0  0  0
 12 30  1  0  0  0  0
 13 18  1  0  0  0  0
 13 25  2  0  0  0  0
 14 23  1  0  0  0  0
 14 27  2  0  0  0  0
 15 24  1  0  0  0  0
 15 29  2  0  0  0  0
 16 30  2  0  0  0  0
 16 31  1  0  0  0  0
 17 32  1  0  0  0  0
 18 24  2  0  0  0  0
 18 36  1  0  0  0  0
 19 32  1  0  0  0  0
 19 33  2  0  0  0  0
 19 37  1  0  0  0  0
 20 22  2  0  0  0  0
 20 42  1  0  0  0  0
 21 23  2  0  0  0  0
 21 43  1  0  0  0  0
 22 55  1  0  0  0  0
 23 44  1  0  0  0  0
 24 76  1  0  0  0  0
 25 29  1  0  0  0  0
 25 81  1  0  0  0  0
 26 91  1  0  0  0  0
 27 92  1  0  0  0  0
 28 31  2  0  0  0  0
 28 91  1  0  0  0  0
 29 93  1  0  0  0  0
 30 94  1  0  0  0  0
 31 95  1  0  0  0  0
 32 74  2  0  0  0  0
 33 75  1  0  0  0  0
 33 79  1  0  0  0  0
 34 45  1  0  0  0  0
 34 46  1  0  0  0  0
 34 85  2  0  0  0  0
 35 36  2  0  0  0  0
 36 59  1  0  0  0  0
 37 80  1  0  0  0  0
 37 86  2  0  0  0  0
 38 56  1  0  0  0  0
 38 82  1  0  0  0  0
 38 87  2  0  0  0  0
 39 70  1  0  0  0  0
 39 77  1  0  0  0  0
 39 88  2  0  0  0  0
 40 71  1  0  0  0  0
 40 83  1  0  0  0  0
 40 89  2  0  0  0  0
 41 78  1  0  0  0  0
 41 81  1  0  0  0  0
 41 90  2  0  0  0  0
 42 47  1  0  0  0  0
 43 56  1  0  0  0  0
 44 77  1  0  0  0  0
 45 48  1  0  0  0  0
 46 52  1  0  0  0  0
 47 50  1  0  0  0  0
 48 58  1  0  0  0  0
 49 51  1  0  0  0  0
 49 53  1  0  0  0  0
 50 55  1  0  0  0  0
 51 57  1  0  0  0  0
 52 76  1  0  0  0  0
 53 78  1  0  0  0  0
 54 57  1  0  0  0  0
 54 78  1  0  0  0  0
 55 82  1  0  0  0  0
 56 77  1  0  0  0  0
 57 75  1  0  0  0  0
 58 67  1  0  0  0  0
 58 76  1  0  0  0  0
 60 68  1  0  0  0  0
 61 71  1  0  0  0  0
 62 72  1  0  0  0  0
 63 73  1  0  0  0  0
 64 73  1  0  0  0  0
 65 73  1  0  0  0  0
 66 84  1  0  0  0  0
 67 92  1  0  0  0  0
 68 72  1  0  0  0  0
 69 72  1  0  0  0  0
 69 93  1  0  0  0  0
 70 73  1  0  0  0  0
 70 83  1  0  0  0  0
 71 84  1  0  0  0  0
 74 75  1  0  0  0  0
M  CHG  1  84   1
M  ISO  4  41 100  67 101  81 100  92 101
M  END
> <Batch ID>
0117

> <Smiles>
C=C(C)c1cc([100NH:0][100C:0](=O)N2CCCC(n3nc(-c4ccc(Oc5ccc(F)cc5F)cc4)c(C(N)=O)c3N)C2)c(OCC(C)CC)cc1N1CCC(=O)CCC1[101CH2:1][101O:1]c1ccc2c(c1)CN(C(=O)C(NC(=O)C(C)NC)C(C)(C)C)C(C(=O)NC1CCCc3ccccc31)C2

> <Shape>
0.251

> <Color>
0.088

> <Negative vol penalty>
0.000

$$$$

  -OEChem-04052301463D

 84 92  0     1  0  0  0  0  0999 V2000
  -26.6854  -33.9420   26.2396 C   0  0  0  0  0  0  0  0  0  0  0  0
  -27.1067  -32.7734   25.6132 C   0  0  0  0  0  0  0  0  0  0  0  0
  -25.3208  -14.8800   21.2354 C   0  0  0  0  0  0  0  0  0  0  0  0
  -27.3265  -14.4350   19.9641 C   0  0  0  0  0  0  0  0  0  0  0  0
  -25.3290  -34.1483   26.4878 C   0  0  0  0  0  0  0  0  0  0  0  0
  -26.1720  -31.8100   25.2357 C   0  0  0  0  0  0  0  0  0  0  0  0
  -26.9973  -30.0261   20.5686 C   0  0  0  0  0  0  0  0  0  0  0  0
  -25.0795  -13.5098   21.3344 C   0  0  0  0  0  0  0  0  0  0  0  0
  -27.0852  -13.0647   20.0632 C   0  0  0  0  0  0  0  0  0  0  0  0
  -28.0162  -29.0866   20.4170 C   0  0  0  0  0  0  0  0  0  0  0  0
  -23.7436  -10.1392   21.6137 C   0  0  0  0  0  0  0  0  0  0  0  0
  -22.4440   -9.6895   21.3807 C   0  0  0  0  0  0  0  0  0  0  0  0
  -29.0659  -21.5579   16.1189 C   0  0  0  0  0  0  0  0  0  0  0  0
  -31.4539  -21.2390   16.2991 C   0  0  0  0  0  0  0  0  0  0  0  0
  -30.1103  -19.6415   15.0826 C   0  0  0  0  0  0  0  0  0  0  0  0
  -26.3753  -27.3184   20.4029 C   0  0  0  0  0  0  0  0  0  0  0  0
  -22.5296  -10.6009   19.1448 C   0  0  0  0  0  0  0  0  0  0  0  0
  -26.4443  -15.3427   20.5502 C   0  0  0  0  0  0  0  0  0  0  0  0
  -30.3098  -21.9840   16.5845 C   0  0  0  0  0  0  0  0  0  0  0  0
  -28.9662  -20.3865   15.3680 C   0  0  0  0  0  0  0  0  0  0  0  0
  -27.4356  -17.5575   21.3371 C   0  0  0  0  0  0  0  0  0  0  0  0
  -24.3763  -33.1913   26.1045 C   0  0  0  0  0  0  0  0  0  0  0  0
  -25.6584  -29.6173   20.6496 C   0  0  0  0  0  0  0  0  0  0  0  0
  -24.8018  -32.0031   25.4803 C   0  0  0  0  0  0  0  0  0  0  0  0
  -25.3411  -28.2549   20.5530 C   0  0  0  0  0  0  0  0  0  0  0  0
  -25.9617  -12.6021   20.7484 C   0  0  0  0  0  0  0  0  0  0  0  0
  -27.7055  -27.7323   20.3371 C   0  0  0  0  0  0  0  0  0  0  0  0
  -24.4362  -10.8198   20.6123 C   0  0  0  0  0  0  0  0  0  0  0  0
  -21.8370   -9.9203   20.1462 C   0  0  0  0  0  0  0  0  0  0  0  0
  -31.3542  -20.0677   15.5482 C   0  0  0  0  0  0  0  0  0  0  0  0
  -23.8292  -11.0506   19.3779 C   0  0  0  0  0  0  0  0  0  0  0  0
  -26.6937  -16.7580   20.4470 C   0  0  0  0  0  0  0  0  0  0  0  0
  -27.3746  -18.8192   20.7977 C   0  0  0  0  0  0  0  0  0  0  0  0
  -30.4148  -23.2218   17.3772 C   0  0  0  0  0  0  0  0  0  0  0  0
  -29.3938  -23.7992   18.0257 C   0  0  0  0  0  0  0  0  0  0  0  0
  -27.6693  -19.9412   14.8831 C   0  0  0  0  0  0  0  0  0  0  0  0
  -28.1187  -17.1924   22.5436 C   0  0  0  0  0  0  0  0  0  0  0  0
  -29.6035  -25.0604   18.7945 C   0  0  0  0  0  0  0  0  0  0  0  0
  -26.4347  -20.7076   15.1686 C   0  0  0  0  0  0  0  0  0  0  0  0
  -23.3774  -29.8301   22.8531 C   0  0  0  0  0  0  0  0  0  0  0  0
  -21.5300  -28.5722   20.5021 C   0  0  0  0  0  0  0  0  0  0  0  0
  -21.3475  -26.7439   17.6262 C   0  0  0  0  0  0  0  0  0  0  0  0
  -22.9258  -33.4375   26.4365 C   0  0  0  0  0  0  0  0  0  0  0  0
  -24.5689  -30.6452   20.7863 C   0  0  0  0  0  0  0  0  0  0  0  0
  -23.9179  -27.7658   20.6142 C   0  0  0  0  0  0  0  0  0  0  0  0
  -21.9634  -32.5356   25.6679 C   0  0  0  0  0  0  0  0  0  0  0  0
  -24.5976  -21.6236   18.1084 C   0  0  0  0  0  0  0  0  0  0  0  0
  -22.4440  -31.0883   25.7040 C   0  0  0  0  0  0  0  0  0  0  0  0
  -24.9655  -20.5293   19.1099 C   0  0  0  0  0  0  0  0  0  0  0  0
  -24.5295  -21.0783   16.6856 C   0  0  0  0  0  0  0  0  0  0  0  0
  -26.1531  -19.2895   17.2449 C   0  0  0  0  0  0  0  0  0  0  0  0
  -23.8157  -30.9456   25.0336 C   0  0  1  0  0  0  0  0  0  0  0  0
  -23.2811  -30.0765   21.3740 C   0  0  1  0  0  0  0  0  0  0  0  0
  -26.2586  -19.8083   18.6896 C   0  0  2  0  0  0  0  0  0  0  0  0
  -19.6963  -25.8529   15.9598 C   0  0  0  0  0  0  0  0  0  0  0  0
  -20.7053  -26.4027   22.4829 C   0  0  0  0  0  0  0  0  0  0  0  0
  -19.8552  -25.0583   20.5495 C   0  0  0  0  0  0  0  0  0  0  0  0
  -18.8438  -27.2802   21.0620 C   0  0  0  0  0  0  0  0  0  0  0  0
  -22.5814  -28.2721   15.4124 C   0  0  0  0  0  0  0  0  0  0  0  0
  -28.3750  -25.6158   19.4837 C   0  0  0  0  0  0  0  0  0  1  0  0
  -21.1636  -27.1753   20.0623 C   0  0  1  0  0  0  0  0  0  0  0  0
  -20.6296  -27.0003   16.3135 C   0  0  2  0  0  0  0  0  0  0  0  0
  -20.1691  -26.4879   21.0399 C   0  0  0  0  0  0  0  0  0  0  0  0
  -26.1978  -17.4534   19.4202 N   0  0  0  0  0  0  0  0  0  0  0  0
  -27.5030  -18.8574   14.1742 N   0  0  0  0  0  0  0  0  0  0  0  0
  -26.6287  -18.7032   19.6617 N   0  0  0  0  0  0  0  0  0  0  0  0
  -25.7576  -20.3694   16.3319 N   0  0  0  0  0  0  0  0  0  0  0  0
  -22.8886  -28.8090   20.7547 N   0  0  0  0  0  0  0  0  0  0  0  0
  -27.8867  -20.0054   21.1890 N   0  0  0  0  0  0  0  0  0  0  0  0
  -28.0806  -15.8528   22.9538 N   0  0  0  0  0  0  0  0  0  0  0  0
  -23.6779  -30.9578   23.5930 N   0  0  0  0  0  0  0  0  0  0  0  0
  -20.6709  -27.2941   18.6943 N   0  0  0  0  0  0  0  0  0  0  0  0
  -21.6151  -27.1626   15.2073 N   0  3  0  0  0  0  0  0  0  0  0  0
  -28.7307  -18.0323   23.2461 O   0  0  0  0  0  0  0  0  0  0  0  0
  -30.7003  -25.6086   18.8620 O   0  0  0  0  0  0  0  0  0  0  0  0
  -26.1417  -21.5622   14.3426 O   0  0  0  0  0  0  0  0  0  0  0  0
  -23.1913  -28.7007   23.2909 O   0  0  0  0  0  0  0  0  0  0  0  0
  -20.6442  -29.4239   20.6105 O   0  0  0  0  0  0  0  0  0  0  0  0
  -22.4010  -26.1150   17.6976 O   0  0  0  0  0  0  0  0  0  0  0  0
  -25.7267  -11.2650   20.8450 O   0  0  0  0  0  0  0  0  0  0  0  0
  -28.6981  -26.8131   20.1897 O   0  0  0  0  0  0  0  0  0  1  0  0
  -20.5895   -9.4870   19.9220 F   0  0  0  0  0  0  0  0  0  0  0  0
  -32.4527  -19.3519   15.2730 F   0  0  0  0  0  0  0  0  0  0  0  0
  -24.4900  -11.7029   18.4116 F   0  0  0  0  0  0  0  0  0  0  0  0
  1  2  1  0  0  0  0
  1  5  2  0  0  0  0
  2  6  2  0  0  0  0
  3  8  2  0  0  0  0
  3 18  1  0  0  0  0
  4  9  1  0  0  0  0
  4 18  2  0  0  0  0
  5 22  1  0  0  0  0
  6 24  1  0  0  0  0
  7 10  2  0  0  0  0
  7 23  1  0  0  0  0
  8 26  1  0  0  0  0
  9 26  2  0  0  0  0
 10 27  1  0  0  0  0
 11 12  2  0  0  0  0
 11 28  1  0  0  0  0
 12 29  1  0  0  0  0
 13 19  2  0  0  0  0
 13 20  1  0  0  0  0
 14 19  1  0  0  0  0
 14 30  2  0  0  0  0
 15 20  2  0  0  0  0
 15 30  1  0  0  0  0
 16 25  1  0  0  0  0
 16 27  2  0  0  0  0
 17 29  2  0  0  0  0
 17 31  1  0  0  0  0
 18 32  1  0  0  0  0
 19 34  1  0  0  0  0
 20 36  1  0  0  0  0
 21 32  1  0  0  0  0
 21 33  2  0  0  0  0
 21 37  1  0  0  0  0
 22 24  2  0  0  0  0
 22 43  1  0  0  0  0
 23 25  2  0  0  0  0
 23 44  1  0  0  0  0
 24 52  1  0  0  0  0
 25 45  1  0  0  0  0
 26 80  1  0  0  0  0
 27 81  1  0  0  0  0
 28 31  2  0  0  0  0
 28 80  1  0  0  0  0
 29 82  1  0  0  0  0
 30 83  1  0  0  0  0
 31 84  1  0  0  0  0
 32 64  2  0  0  0  0
 33 66  1  0  0  0  0
 33 69  1  0  0  0  0
 34 35  2  0  0  0  0
 35 38  1  0  0  0  0
 36 39  1  0  0  0  0
 36 65  2  0  0  0  0
 37 70  1  0  0  0  0
 37 74  2  0  0  0  0
 38 60  1  0  0  0  0
 38 75  2  0  0  0  0
 39 67  1  0  0  0  0
 39 76  2  0  0  0  0
 40 53  1  0  0  0  0
 40 71  1  0  0  0  0
 40 77  2  0  0  0  0
 41 61  1  0  0  0  0
 41 68  1  0  0  0  0
 41 78  2  0  0  0  0
 42 62  1  0  0  0  0
 42 72  1  0  0  0  0
 42 79  2  0  0  0  0
 43 46  1  0  0  0  0
 44 53  1  0  0  0  0
 45 68  1  0  0  0  0
 46 48  1  0  0  0  0
 47 49  1  0  0  0  0
 47 50  1  0  0  0  0
 48 52  1  0  0  0  0
 49 54  1  0  0  0  0
 50 67  1  0  0  0  0
 51 54  1  0  0  0  0
 51 67  1  0  0  0  0
 52 71  1  0  0  0  0
 53 68  1  0  0  0  0
 54 66  1  0  0  0  0
 55 62  1  0  0  0  0
 56 63  1  0  0  0  0
 57 63  1  0  0  0  0
 58 63  1  0  0  0  0
 59 73  1  0  0  0  0
 60 81  1  0  0  0  0
 61 63  1  0  0  0  0
 61 72  1  0  0  0  0
 62 73  1  0  0  0  0
 64 66  1  0  0  0  0
M  CHG  1  73   1
M  ISO  4  36 100  39 100  60 101  81 101
M  END
> <Batch ID>
0117

> <Smiles>
CNC(C)C(=O)NC(C(=O)N1Cc2cc([101O:1][101CH2:1]C(=O)C=Cc3cc(F)cc([100C:0](=N)[100C:0](=O)N4CCCC(n5nc(-c6ccc(Oc7ccc(F)cc7F)cc6)c(C(N)=O)c5N)C4)c3)ccc2CC1C(=O)NC1CCCc2ccccc21)C(C)(C)C

> <Shape>
0.249

> <Color>
0.083

> <Negative vol penalty>
0.000

$$$$

  -OEChem-04052301463D

 84 92  0     1  0  0  0  0  0999 V2000
  -17.0511  -31.1190   23.1830 C   0  0  0  0  0  0  0  0  0  0  0  0
  -18.1241  -31.2632   22.3093 C   0  0  0  0  0  0  0  0  0  0  0  0
  -24.2812   -9.5484   22.1370 C   0  0  0  0  0  0  0  0  0  0  0  0
  -23.9925   -9.1753   19.7675 C   0  0  0  0  0  0  0  0  0  0  0  0
  -29.1817  -21.2059   21.3270 C   0  0  0  0  0  0  0  0  0  0  0  0
  -17.1772  -30.3118   24.3127 C   0  0  0  0  0  0  0  0  0  0  0  0
  -19.3242  -30.6010   22.5654 C   0  0  0  0  0  0  0  0  0  0  0  0
  -24.8265  -27.5069   19.1789 C   0  0  0  0  0  0  0  0  0  0  0  0
  -29.3942  -22.5692   21.1223 C   0  0  0  0  0  0  0  0  0  0  0  0
  -23.2162   -8.6876   22.4024 C   0  0  0  0  0  0  0  0  0  0  0  0
  -22.9274   -8.3145   20.0328 C   0  0  0  0  0  0  0  0  0  0  0  0
  -26.2198  -27.5342   19.1396 C   0  0  0  0  0  0  0  0  0  0  0  0
  -22.6835   -5.3513   22.5357 C   0  0  0  0  0  0  0  0  0  0  0  0
  -22.8478   -4.4109   23.5527 C   0  0  0  0  0  0  0  0  0  0  0  0
  -26.2966  -26.1032   21.0800 C   0  0  0  0  0  0  0  0  0  0  0  0
  -31.3725  -22.0668   19.8296 C   0  0  0  0  0  0  0  0  0  0  0  0
  -20.9703   -5.3639   24.7374 C   0  0  0  0  0  0  0  0  0  0  0  0
  -24.6694   -9.7923   20.8196 C   0  0  0  0  0  0  0  0  0  0  0  0
  -30.0647  -20.2731   20.7831 C   0  0  0  0  0  0  0  0  0  0  0  0
  -27.1304  -10.3410   20.4324 C   0  0  0  0  0  0  0  0  0  0  0  0
  -18.3763  -29.6317   24.5777 C   0  0  0  0  0  0  0  0  0  0  0  0
  -24.1566  -26.7852   20.1774 C   0  0  0  0  0  0  0  0  0  0  0  0
  -19.4669  -29.7850   23.7005 C   0  0  0  0  0  0  0  0  0  0  0  0
  -24.8947  -26.0662   21.1283 C   0  0  0  0  0  0  0  0  0  0  0  0
  -31.1600  -20.7035   20.0344 C   0  0  0  0  0  0  0  0  0  0  0  0
  -30.4895  -22.9997   20.3736 C   0  0  0  0  0  0  0  0  0  0  0  0
  -22.5393   -8.0707   21.3503 C   0  0  0  0  0  0  0  0  0  0  0  0
  -26.9551  -26.8346   20.0919 C   0  0  0  0  0  0  0  0  0  0  0  0
  -21.6625   -6.2981   22.6196 C   0  0  0  0  0  0  0  0  0  0  0  0
  -21.9912   -4.4171   24.6535 C   0  0  0  0  0  0  0  0  0  0  0  0
  -20.8059   -6.3043   23.7205 C   0  0  0  0  0  0  0  0  0  0  0  0
  -25.7691  -10.6817   20.5448 C   0  0  0  0  0  0  0  0  0  0  0  0
  -27.7616  -11.5317   20.1672 C   0  0  0  0  0  0  0  0  0  0  0  0
  -29.8154  -18.8564   21.0148 C   0  0  0  0  0  0  0  0  0  0  0  0
  -28.5999  -18.2922   21.1665 C   0  0  0  0  0  0  0  0  0  0  0  0
  -30.1448  -24.8787   19.1187 C   0  0  0  0  0  0  0  0  0  0  0  0
  -27.7673   -9.0625   20.5565 C   0  0  0  0  0  0  0  0  0  0  0  0
  -28.5107  -16.8345   21.3856 C   0  0  0  0  0  0  0  0  0  0  0  0
  -22.1571  -27.5384   22.5308 C   0  0  0  0  0  0  0  0  0  0  0  0
  -21.9833  -24.3191   22.8890 C   0  0  0  0  0  0  0  0  0  0  0  0
  -23.4422  -21.2692   22.4232 C   0  0  0  0  0  0  0  0  0  0  0  0
  -18.4807  -28.8079   25.8368 C   0  0  0  0  0  0  0  0  0  0  0  0
  -22.6531  -26.7441   20.1900 C   0  0  0  0  0  0  0  0  0  0  0  0
  -24.2235  -25.2595   22.2087 C   0  0  0  0  0  0  0  0  0  0  0  0
  -19.6634  -27.8428   25.8369 C   0  0  0  0  0  0  0  0  0  0  0  0
  -25.9043  -16.0540   18.9301 C   0  0  0  0  0  0  0  0  0  0  0  0
  -20.9305  -28.5512   25.3683 C   0  0  0  0  0  0  0  0  0  0  0  0
  -25.7199  -14.5568   19.1634 C   0  0  0  0  0  0  0  0  0  0  0  0
  -26.2387  -16.7971   20.2226 C   0  0  0  0  0  0  0  0  0  0  0  0
  -27.2320  -14.7381   21.1786 C   0  0  0  0  0  0  0  0  0  0  0  0
  -20.7768  -29.0632   23.9310 C   0  0  1  0  0  0  0  0  0  0  0  0
  -22.0764  -26.3955   21.5587 C   0  0  1  0  0  0  0  0  0  0  0  0
  -26.9413  -13.9637   19.8836 C   0  0  1  0  0  0  0  0  0  0  0  0
  -32.1260  -19.7319   19.4361 C   0  0  0  0  0  0  0  0  0  0  0  0
  -30.9957  -26.4736   17.4454 C   0  0  0  0  0  0  0  0  0  0  0  0
  -23.0769  -18.8243   22.8548 C   0  0  0  0  0  0  0  0  0  0  0  0
  -22.7025  -24.7325   25.8252 C   0  0  0  0  0  0  0  0  0  0  0  0
  -23.2494  -22.2932   25.9626 C   0  0  0  0  0  0  0  0  0  0  0  0
  -20.9262  -23.0200   25.4174 C   0  0  0  0  0  0  0  0  0  0  0  0
  -23.4856  -20.6338   19.5330 C   0  0  0  0  0  0  0  0  0  0  0  0
  -28.9287  -27.0110   18.7766 C   0  0  0  0  0  0  0  0  0  1  0  0
  -30.3034  -26.3479   18.7969 C   0  0  1  0  0  0  0  0  0  0  0  0
  -22.7479  -23.2891   23.6850 C   0  0  1  0  0  0  0  0  0  0  0  0
  -22.8970  -19.9663   21.8668 C   0  0  2  0  0  0  0  0  0  0  0  0
  -22.4194  -23.3504   25.2035 C   0  0  0  0  0  0  0  0  0  0  0  0
  -25.5477  -11.9867   20.3659 N   0  0  0  0  0  0  0  0  0  0  0  0
  -30.7042  -24.3729   20.1693 N   0  0  0  0  0  0  0  0  0  0  0  0
  -26.7784  -12.4765   20.1383 N   0  0  0  0  0  0  0  0  0  0  0  0
  -27.3730  -16.1759   20.9227 N   0  0  0  0  0  0  0  0  0  0  0  0
  -22.7514  -25.2557   22.1828 N   0  0  0  0  0  0  0  0  0  0  0  0
  -29.0562  -11.8522   19.9582 N   0  0  0  0  0  0  0  0  0  0  0  0
  -26.9703   -7.9428   20.8307 N   0  0  0  0  0  0  0  0  0  0  0  0
  -20.9288  -27.9757   22.9882 N   0  0  0  0  0  0  0  0  0  0  0  0
  -22.4640  -22.0000   23.0638 N   0  0  0  0  0  0  0  0  0  0  0  0
  -23.5998  -19.6087   20.6022 N   0  3  0  0  0  0  0  0  0  0  0  0
  -29.0086   -8.9200   20.4444 O   0  0  0  0  0  0  0  0  0  0  0  0
  -29.4484  -16.2890   21.9703 O   0  0  0  0  0  0  0  0  0  0  0  0
  -23.2529  -27.9891   22.8438 O   0  0  0  0  0  0  0  0  0  0  0  0
  -20.7501  -24.2892   22.8878 O   0  0  0  0  0  0  0  0  0  0  0  0
  -24.6189  -21.6034   22.3048 O   0  0  0  0  0  0  0  0  0  0  0  0
  -21.5001   -7.2305   21.6088 O   0  0  0  0  0  0  0  0  0  0  0  0
  -28.3153  -26.8601   20.0562 O   0  0  0  0  0  0  0  0  0  1  0  0
  -22.1483   -3.5130   25.6293 F   0  0  0  0  0  0  0  0  0  0  0  0
  -19.8226   -7.2107   23.8061 F   0  0  0  0  0  0  0  0  0  0  0  0
  1  2  1  0  0  0  0
  1  6  2  0  0  0  0
  2  7  2  0  0  0  0
  3 10  2  0  0  0  0
  3 18  1  0  0  0  0
  4 11  1  0  0  0  0
  4 18  2  0  0  0  0
  5  9  2  0  0  0  0
  5 19  1  0  0  0  0
  6 21  1  0  0  0  0
  7 23  1  0  0  0  0
  8 12  2  0  0  0  0
  8 22  1  0  0  0  0
  9 26  1  0  0  0  0
 10 27  1  0  0  0  0
 11 27  2  0  0  0  0
 12 28  1  0  0  0  0
 13 14  2  0  0  0  0
 13 29  1  0  0  0  0
 14 30  1  0  0  0  0
 15 24  1  0  0  0  0
 15 28  2  0  0  0  0
 16 25  1  0  0  0  0
 16 26  2  0  0  0  0
 17 30  2  0  0  0  0
 17 31  1  0  0  0  0
 18 32  1  0  0  0  0
 19 25  2  0  0  0  0
 19 34  1  0  0  0  0
 20 32  1  0  0  0  0
 20 33  2  0  0  0  0
 20 37  1  0  0  0  0
 21 23  2  0  0  0  0
 21 42  1  0  0  0  0
 22 24  2  0  0  0  0
 22 43  1  0  0  0  0
 23 51  1  0  0  0  0
 24 44  1  0  0  0  0
 25 54  1  0  0  0  0
 26 67  1  0  0  0  0
 27 81  1  0  0  0  0
 28 82  1  0  0  0  0
 29 31  2  0  0  0  0
 29 81  1  0  0  0  0
 30 83  1  0  0  0  0
 31 84  1  0  0  0  0
 32 66  2  0  0  0  0
 33 68  1  0  0  0  0
 33 71  1  0  0  0  0
 34 35  2  0  0  0  0
 35 38  1  0  0  0  0
 36 62  1  0  0  0  0
 36 67  2  0  0  0  0
 37 72  1  0  0  0  0
 37 76  2  0  0  0  0
 38 69  1  0  0  0  0
 38 77  2  0  0  0  0
 39 52  1  0  0  0  0
 39 73  1  0  0  0  0
 39 78  2  0  0  0  0
 40 63  1  0  0  0  0
 40 70  1  0  0  0  0
 40 79  2  0  0  0  0
 41 64  1  0  0  0  0
 41 74  1  0  0  0  0
 41 80  2  0  0  0  0
 42 45  1  0  0  0  0
 43 52  1  0  0  0  0
 44 70  1  0  0  0  0
 45 47  1  0  0  0  0
 46 48  1  0  0  0  0
 46 49  1  0  0  0  0
 47 51  1  0  0  0  0
 48 53  1  0  0  0  0
 49 69  1  0  0  0  0
 50 53  1  0  0  0  0
 50 69  1  0  0  0  0
 51 73  1  0  0  0  0
 52 70  1  0  0  0  0
 53 68  1  0  0  0  0
 55 62  1  0  0  0  0
 56 64  1  0  0  0  0
 57 65  1  0  0  0  0
 58 65  1  0  0  0  0
 59 65  1  0  0  0  0
 60 75  1  0  0  0  0
 61 62  1  0  0  0  0
 61 82  1  0  0  0  0
 63 65  1  0  0  0  0
 63 74  1  0  0  0  0
 64 75  1  0  0  0  0
 66 68  1  0  0  0  0
M  CHG  1  75   1
M  ISO  4  35 100  38 100  61 101  82 101
M  END
> <Batch ID>
0117

> <Smiles>
CNC(C)C(=O)NC(C(=O)N1Cc2cc([101O:1][101CH2:1]C(C)=CNc3ccc(C=[100CH:0][100C:0](=O)N4CCCC(n5nc(-c6ccc(Oc7ccc(F)cc7F)cc6)c(C(N)=O)c5N)C4)c(C)c3)ccc2CC1C(=O)NC1CCCc2ccccc21)C(C)(C)C

> <Shape>
0.255

> <Color>
0.109

> <Negative vol penalty>
0.000

$$$$

  -OEChem-04052301463D

 88 96  0     1  0  0  0  0  0999 V2000
  -30.0115  -35.4481   18.8828 C   0  0  0  0  0  0  0  0  0  0  0  0
  -29.5827  -34.2178   18.3951 C   0  0  0  0  0  0  0  0  0  0  0  0
  -24.7500   -8.5657   20.8321 C   0  0  0  0  0  0  0  0  0  0  0  0
  -23.1055  -10.2793   20.3892 C   0  0  0  0  0  0  0  0  0  0  0  0
  -29.9559  -35.7122   20.2507 C   0  0  0  0  0  0  0  0  0  0  0  0
  -29.0990  -33.2504   19.2752 C   0  0  0  0  0  0  0  0  0  0  0  0
  -24.6291  -29.2035   18.2031 C   0  0  0  0  0  0  0  0  0  0  0  0
  -23.7300   -7.6684   21.1483 C   0  0  0  0  0  0  0  0  0  0  0  0
  -22.0854   -9.3821   20.7054 C   0  0  0  0  0  0  0  0  0  0  0  0
  -24.6495  -27.8611   17.8272 C   0  0  0  0  0  0  0  0  0  0  0  0
  -21.7009   -7.0295   23.7749 C   0  0  0  0  0  0  0  0  0  0  0  0
  -21.8592   -6.2461   24.9180 C   0  0  0  0  0  0  0  0  0  0  0  0
  -28.4780  -19.4534   20.0928 C   0  0  0  0  0  0  0  0  0  0  0  0
  -24.4304  -27.2160   20.1413 C   0  0  0  0  0  0  0  0  0  0  0  0
  -27.9709  -19.5600   17.3516 C   0  0  0  0  0  0  0  0  0  0  0  0
  -21.7325   -4.2478   23.5661 C   0  0  0  0  0  0  0  0  0  0  0  0
  -24.4378   -9.8711   20.4526 C   0  0  0  0  0  0  0  0  0  0  0  0
  -28.4014  -20.6864   19.4452 C   0  0  0  0  0  0  0  0  0  0  0  0
  -26.0649  -11.0224   18.8604 C   0  0  0  0  0  0  0  0  0  0  0  0
  -29.4623  -34.7511   21.1469 C   0  0  0  0  0  0  0  0  0  0  0  0
  -24.5200  -29.5627   19.5542 C   0  0  0  0  0  0  0  0  0  0  0  0
  -29.0380  -33.5013   20.6565 C   0  0  0  0  0  0  0  0  0  0  0  0
  -24.4062  -28.5637   20.5315 C   0  0  0  0  0  0  0  0  0  0  0  0
  -28.3012  -18.2736   19.3698 C   0  0  0  0  0  0  0  0  0  0  0  0
  -22.3977   -8.0766   21.0850 C   0  0  0  0  0  0  0  0  0  0  0  0
  -24.5530  -26.8671   18.7966 C   0  0  0  0  0  0  0  0  0  0  0  0
  -21.5583   -6.4221   22.5273 C   0  0  0  0  0  0  0  0  0  0  0  0
  -28.1478  -20.7397   18.0747 C   0  0  0  0  0  0  0  0  0  0  0  0
  -21.8750   -4.8552   24.8136 C   0  0  0  0  0  0  0  0  0  0  0  0
  -28.0476  -18.3270   17.9993 C   0  0  0  0  0  0  0  0  0  0  0  0
  -21.5741   -5.0312   22.4229 C   0  0  0  0  0  0  0  0  0  0  0  0
  -25.4911  -10.7986   20.1263 C   0  0  0  0  0  0  0  0  0  0  0  0
  -27.0138  -11.9909   19.0799 C   0  0  0  0  0  0  0  0  0  0  0  0
  -27.1786  -24.6391   22.2573 C   0  0  0  0  0  0  0  0  0  0  0  0
  -28.5926  -21.9042   20.2213 C   0  0  0  0  0  0  0  0  0  0  0  0
  -27.9976  -23.8242   21.5799 C   0  0  0  0  0  0  0  0  0  0  0  0
  -25.7667  -10.4097   17.5989 C   0  0  0  0  0  0  0  0  0  0  0  0
  -27.6248  -22.6109   20.8546 C   0  0  0  0  0  0  0  0  0  0  0  0
  -26.3574  -31.1439   21.6103 C   0  0  0  0  0  0  0  0  0  0  0  0
  -23.7862  -30.8151   23.5606 C   0  0  0  0  0  0  0  0  0  0  0  0
  -20.9540  -29.0841   24.3537 C   0  0  0  0  0  0  0  0  0  0  0  0
  -28.6268  -16.7962   21.3842 C   0  0  0  0  0  0  0  0  0  0  0  0
  -29.4656  -35.0647   22.6222 C   0  0  0  0  0  0  0  0  0  0  0  0
  -24.4726  -31.0155   19.9409 C   0  0  0  0  0  0  0  0  0  0  0  0
  -24.2668  -28.8969   21.9937 C   0  0  0  0  0  0  0  0  0  0  0  0
  -28.5898  -34.1248   23.4467 C   0  0  0  0  0  0  0  0  0  0  0  0
  -28.8637  -13.8710   23.4002 C   0  0  0  0  0  0  0  0  0  0  0  0
  -28.8417  -32.6740   23.0487 C   0  0  0  0  0  0  0  0  0  0  0  0
  -28.0546  -12.8293   22.6240 C   0  0  0  0  0  0  0  0  0  0  0  0
  -28.2406  -15.2623   23.3007 C   0  0  0  0  0  0  0  0  0  0  0  0
  -27.1711  -14.6879   21.1570 C   0  0  0  0  0  0  0  0  0  0  0  0
  -28.4837  -32.4355   21.5768 C   0  0  1  0  0  0  0  0  0  0  0  0
  -24.8754  -31.2612   21.3917 C   0  0  1  0  0  0  0  0  0  0  0  0
  -27.7954  -13.2830   21.1740 C   0  0  2  0  0  0  0  0  0  0  0  0
  -26.1718  -22.2063   20.8654 C   0  0  0  0  0  0  0  0  0  0  0  0
  -19.0810  -29.0297   26.0229 C   0  0  0  0  0  0  0  0  0  0  0  0
  -25.6686  -29.5956   25.6293 C   0  0  0  0  0  0  0  0  0  0  0  0
  -23.6595  -28.7134   26.8349 C   0  0  0  0  0  0  0  0  0  0  0  0
  -23.9701  -31.1739   26.5665 C   0  0  0  0  0  0  0  0  0  0  0  0
  -18.9151  -29.5241   22.2541 C   0  0  0  0  0  0  0  0  0  0  0  0
  -25.8394  -23.7942   17.3723 C   0  0  0  0  0  0  0  0  0  0  0  0
  -26.6555  -23.3976   16.1470 C   0  0  0  0  0  0  0  0  0  0  0  0
  -25.3134  -25.2190   17.2598 C   0  0  0  0  0  0  0  0  0  1  0  0
  -27.2174  -21.9891   16.2777 C   0  0  0  0  0  0  0  0  0  0  0  0
  -23.3266  -29.7795   24.5582 C   0  0  1  0  0  0  0  0  0  0  0  0
  -19.5445  -29.5498   24.6711 C   0  0  2  0  0  0  0  0  0  0  0  0
  -24.1607  -29.8089   25.8699 C   0  0  0  0  0  0  0  0  0  0  0  0
  -26.0306  -11.5633   21.0794 N   0  0  0  0  0  0  0  0  0  0  0  0
  -26.9533  -12.2769   20.4121 N   0  0  0  0  0  0  0  0  0  0  0  0
  -24.2317  -30.3316   22.3222 N   0  0  0  0  0  0  0  0  0  0  0  0
  -28.0281  -15.6265   21.8982 N   0  0  0  0  0  0  0  0  0  0  0  0
  -27.8857  -12.6171   18.2613 N   0  0  0  0  0  0  0  0  0  0  0  0
  -24.7628   -9.4329   17.5513 N   0  0  0  0  0  0  0  0  0  0  0  0
  -28.3811  -17.0226   20.0303 N   0  0  0  0  0  0  0  0  0  0  0  0
  -27.0497  -32.3241   21.4171 N   0  0  0  0  0  0  0  0  0  0  0  0
  -21.8986  -30.0058   24.7529 N   0  0  0  0  0  0  0  0  0  0  0  0
  -18.5929  -29.0675   23.6306 N   0  3  0  0  0  0  0  0  0  0  0  0
  -26.3839  -10.7074   16.5483 O   0  0  0  0  0  0  0  0  0  0  0  0
  -26.8370  -30.0631   21.9320 O   0  0  0  0  0  0  0  0  0  0  0  0
  -23.7446  -32.0094   23.8662 O   0  0  0  0  0  0  0  0  0  0  0  0
  -21.1934  -28.0083   23.8096 O   0  0  0  0  0  0  0  0  0  0  0  0
  -29.3297  -17.5277   22.0862 O   0  0  0  0  0  0  0  0  0  0  0  0
  -21.4020   -7.2013   21.3932 O   0  0  0  0  0  0  0  0  0  0  0  0
  -24.5733  -25.5560   18.4324 O   0  0  0  0  0  0  0  0  0  1  0  0
  -28.0700  -21.9378   17.4132 O   0  0  0  0  0  0  0  0  0  0  0  0
  -22.0286   -4.1031   25.9113 F   0  0  0  0  0  0  0  0  0  0  0  0
  -27.8771  -17.1993   17.2945 F   0  0  0  0  0  0  0  0  0  0  0  0
  -21.4388   -4.4420   21.2270 F   0  0  0  0  0  0  0  0  0  0  0  0
  1  2  1  0  0  0  0
  1  5  2  0  0  0  0
  2  6  2  0  0  0  0
  3  8  2  0  0  0  0
  3 17  1  0  0  0  0
  4  9  1  0  0  0  0
  4 17  2  0  0  0  0
  5 20  1  0  0  0  0
  6 22  1  0  0  0  0
  7 10  2  0  0  0  0
  7 21  1  0  0  0  0
  8 25  1  0  0  0  0
  9 25  2  0  0  0  0
 10 26  1  0  0  0  0
 11 12  2  0  0  0  0
 11 27  1  0  0  0  0
 12 29  1  0  0  0  0
 13 18  1  0  0  0  0
 13 24  2  0  0  0  0
 14 23  1  0  0  0  0
 14 26  2  0  0  0  0
 15 28  1  0  0  0  0
 15 30  2  0  0  0  0
 16 29  2  0  0  0  0
 16 31  1  0  0  0  0
 17 32  1  0  0  0  0
 18 28  2  0  0  0  0
 18 35  1  0  0  0  0
 19 32  1  0  0  0  0
 19 33  2  0  0  0  0
 19 37  1  0  0  0  0
 20 22  2  0  0  0  0
 20 43  1  0  0  0  0
 21 23  2  0  0  0  0
 21 44  1  0  0  0  0
 22 52  1  0  0  0  0
 23 45  1  0  0  0  0
 24 30  1  0  0  0  0
 24 74  1  0  0  0  0
 25 83  1  0  0  0  0
 26 84  1  0  0  0  0
 27 31  2  0  0  0  0
 27 83  1  0  0  0  0
 28 85  1  0  0  0  0
 29 86  1  0  0  0  0
 30 87  1  0  0  0  0
 31 88  1  0  0  0  0
 32 68  2  0  0  0  0
 33 69  1  0  0  0  0
 33 72  1  0  0  0  0
 34 36  2  0  0  0  0
 35 38  2  0  0  0  0
 36 38  1  0  0  0  0
 37 73  1  0  0  0  0
 37 78  2  0  0  0  0
 38 55  1  0  0  0  0
 39 53  1  0  0  0  0
 39 75  1  0  0  0  0
 39 79  2  0  0  0  0
 40 65  1  0  0  0  0
 40 70  1  0  0  0  0
 40 80  2  0  0  0  0
 41 66  1  0  0  0  0
 41 76  1  0  0  0  0
 41 81  2  0  0  0  0
 42 71  1  0  0  0  0
 42 74  1  0  0  0  0
 42 82  2  0  0  0  0
 43 46  1  0  0  0  0
 44 53  1  0  0  0  0
 45 70  1  0  0  0  0
 46 48  1  0  0  0  0
 47 49  1  0  0  0  0
 47 50  1  0  0  0  0
 48 52  1  0  0  0  0
 49 54  1  0  0  0  0
 50 71  1  0  0  0  0
 51 54  1  0  0  0  0
 51 71  1  0  0  0  0
 52 75  1  0  0  0  0
 53 70  1  0  0  0  0
 54 69  1  0  0  0  0
 56 66  1  0  0  0  0
 57 67  1  0  0  0  0
 58 67  1  0  0  0  0
 59 67  1  0  0  0  0
 60 77  1  0  0  0  0
 61 62  1  0  0  0  0
 61 63  1  0  0  0  0
 62 64  1  0  0  0  0
 63 84  1  0  0  0  0
 64 85  1  0  0  0  0
 65 67  1  0  0  0  0
 65 76  1  0  0  0  0
 66 77  1  0  0  0  0
 68 69  1  0  0  0  0
M  CHG  1  77   1
M  ISO  4  42 100  63 101  74 100  84 101
M  END
> <Batch ID>
0117

> <Smiles>
C=CC(C)=Cc1cc([100NH:0][100C:0](=O)N2CCCC(n3nc(-c4ccc(Oc5ccc(F)cc5F)cc4)c(C(N)=O)c3N)C2)c(F)cc1OCCC[101CH2:1][101O:1]c1ccc2c(c1)CN(C(=O)C(NC(=O)C(C)NC)C(C)(C)C)C(C(=O)NC1CCCc3ccccc31)C2

> <Shape>
0.277

> <Color>
0.099

> <Negative vol penalty>
0.000

$$$$

  -OEChem-04052301463D

 84 92  0     1  0  0  0  0  0999 V2000
  -31.1522  -32.9331   23.7464 C   0  0  0  0  0  0  0  0  0  0  0  0
  -30.6324  -31.6964   23.3779 C   0  0  0  0  0  0  0  0  0  0  0  0
  -24.5780   -9.1056   22.0866 C   0  0  0  0  0  0  0  0  0  0  0  0
  -23.5053   -9.5425   19.9663 C   0  0  0  0  0  0  0  0  0  0  0  0
  -23.6428  -18.7373   15.4635 C   0  0  0  0  0  0  0  0  0  0  0  0
  -30.3334  -33.8749   24.3680 C   0  0  0  0  0  0  0  0  0  0  0  0
  -29.2936  -31.4004   23.6318 C   0  0  0  0  0  0  0  0  0  0  0  0
  -27.0055  -29.2088   19.6813 C   0  0  0  0  0  0  0  0  0  0  0  0
  -23.7798  -17.3767   15.1883 C   0  0  0  0  0  0  0  0  0  0  0  0
  -23.4388   -8.4297   22.5236 C   0  0  0  0  0  0  0  0  0  0  0  0
  -22.3661   -8.8666   20.4033 C   0  0  0  0  0  0  0  0  0  0  0  0
  -27.2576  -27.8539   19.4708 C   0  0  0  0  0  0  0  0  0  0  0  0
  -22.0320   -5.3847   22.0974 C   0  0  0  0  0  0  0  0  0  0  0  0
  -22.2121   -4.1642   22.7482 C   0  0  0  0  0  0  0  0  0  0  0  0
  -25.1233  -18.5031   17.3584 C   0  0  0  0  0  0  0  0  0  0  0  0
  -25.1557  -27.3059   20.5199 C   0  0  0  0  0  0  0  0  0  0  0  0
  -21.1281   -5.0534   24.7158 C   0  0  0  0  0  0  0  0  0  0  0  0
  -24.6112   -9.6621   20.8079 C   0  0  0  0  0  0  0  0  0  0  0  0
  -24.3146  -19.3005   16.5485 C   0  0  0  0  0  0  0  0  0  0  0  0
  -26.8955   -9.8130   19.6824 C   0  0  0  0  0  0  0  0  0  0  0  0
  -28.9814  -33.5940   24.6209 C   0  0  0  0  0  0  0  0  0  0  0  0
  -25.8296  -29.6226   20.3236 C   0  0  0  0  0  0  0  0  0  0  0  0
  -28.4563  -32.3389   24.2586 C   0  0  0  0  0  0  0  0  0  0  0  0
  -24.8898  -28.6668   20.7351 C   0  0  0  0  0  0  0  0  0  0  0  0
  -24.5885  -16.5793   15.9982 C   0  0  0  0  0  0  0  0  0  0  0  0
  -25.2602  -17.1425   17.0832 C   0  0  0  0  0  0  0  0  0  0  0  0
  -22.3329   -8.3102   21.6820 C   0  0  0  0  0  0  0  0  0  0  0  0
  -26.3340  -26.9020   19.8927 C   0  0  0  0  0  0  0  0  0  0  0  0
  -21.4000   -6.4396   22.7558 C   0  0  0  0  0  0  0  0  0  0  0  0
  -21.7602   -3.9986   24.0574 C   0  0  0  0  0  0  0  0  0  0  0  0
  -20.9480   -6.2740   24.0650 C   0  0  0  0  0  0  0  0  0  0  0  0
  -25.7875  -10.3609   20.3561 C   0  0  0  0  0  0  0  0  0  0  0  0
  -27.7348  -10.8807   19.4769 C   0  0  0  0  0  0  0  0  0  0  0  0
  -24.1692  -20.7381   16.8376 C   0  0  0  0  0  0  0  0  0  0  0  0
  -25.0264  -21.4549   17.5790 C   0  0  0  0  0  0  0  0  0  0  0  0
  -25.8033  -23.5684   18.6488 C   0  0  0  0  0  0  0  0  0  0  0  0
  -25.6896  -24.8702   18.9297 C   0  0  0  0  0  0  0  0  0  1  0  0
  -27.1440   -8.4600   19.2784 C   0  0  0  0  0  0  0  0  0  0  0  0
  -24.7720  -22.9034   17.8105 C   0  0  0  0  0  0  0  0  0  0  0  0
  -25.1736  -31.1927   23.0084 C   0  0  0  0  0  0  0  0  0  0  0  0
  -22.1332  -31.0552   21.8861 C   0  0  0  0  0  0  0  0  0  0  0  0
  -19.8482  -29.4872   19.8944 C   0  0  0  0  0  0  0  0  0  0  0  0
  -26.8160  -16.7680   19.0289 C   0  0  0  0  0  0  0  0  0  0  0  0
  -28.1474  -34.6259   25.3379 C   0  0  0  0  0  0  0  0  0  0  0  0
  -25.5601  -31.0894   20.5192 C   0  0  0  0  0  0  0  0  0  0  0  0
  -23.6027  -29.0601   21.4111 C   0  0  0  0  0  0  0  0  0  0  0  0
  -26.6453  -34.3750   25.2329 C   0  0  0  0  0  0  0  0  0  0  0  0
  -28.9376  -15.1154   21.3623 C   0  0  0  0  0  0  0  0  0  0  0  0
  -26.3274  -32.9107   25.5182 C   0  0  0  0  0  0  0  0  0  0  0  0
  -28.4755  -13.6577   21.3032 C   0  0  0  0  0  0  0  0  0  0  0  0
  -27.7676  -16.0875   21.2212 C   0  0  0  0  0  0  0  0  0  0  0  0
  -26.4530  -14.4088   19.9871 C   0  0  0  0  0  0  0  0  0  0  0  0
  -27.0028  -31.9899   24.4947 C   0  0  1  0  0  0  0  0  0  0  0  0
  -24.5688  -31.3698   21.6444 C   0  0  1  0  0  0  0  0  0  0  0  0
  -27.6044  -13.3925   20.0597 C   0  0  2  0  0  0  0  0  0  0  0  0
  -24.7157  -15.1247   15.6805 C   0  0  0  0  0  0  0  0  0  0  0  0
  -17.4345  -29.5811   19.2142 C   0  0  0  0  0  0  0  0  0  0  0  0
  -21.3336  -29.8279   24.5627 C   0  0  0  0  0  0  0  0  0  0  0  0
  -19.1907  -29.0846   23.5027 C   0  0  0  0  0  0  0  0  0  0  0  0
  -19.7214  -31.5165   23.6662 C   0  0  0  0  0  0  0  0  0  0  0  0
  -20.5460  -29.9424   17.0546 C   0  0  0  0  0  0  0  0  0  0  0  0
  -20.9885  -30.0796   22.0164 C   0  0  1  0  0  0  0  0  0  0  0  0
  -18.8505  -30.0288   18.8866 C   0  0  2  0  0  0  0  0  0  0  0  0
  -20.3336  -30.1193   23.4260 C   0  0  0  0  0  0  0  0  0  0  0  0
  -25.9088  -11.6746   20.5648 N   0  0  0  0  0  0  0  0  0  0  0  0
  -27.1031  -11.9611   20.0192 N   0  0  0  0  0  0  0  0  0  0  0  0
  -23.3878  -30.5061   21.5855 N   0  0  0  0  0  0  0  0  0  0  0  0
  -26.9901  -15.7782   20.0193 N   0  0  0  0  0  0  0  0  0  0  0  0
  -28.9440  -10.9914   18.8871 N   0  0  0  0  0  0  0  0  0  0  0  0
  -26.1768   -7.4879   19.5683 N   0  0  0  0  0  0  0  0  0  0  0  0
  -26.0866  -16.3488   17.9167 N   0  0  0  0  0  0  0  0  0  0  0  0
  -26.2705  -31.9986   23.2464 N   0  0  0  0  0  0  0  0  0  0  0  0
  -20.0708  -30.3787   20.9225 N   0  0  0  0  0  0  0  0  0  0  0  0
  -19.1886  -29.5525   17.5156 N   0  3  0  0  0  0  0  0  0  0  0  0
  -28.1999   -8.1200   18.6928 O   0  0  0  0  0  0  0  0  0  0  0  0
  -23.8025  -23.4951   17.3521 O   0  0  0  0  0  0  0  0  0  0  0  0
  -24.6806  -30.3856   23.7877 O   0  0  0  0  0  0  0  0  0  0  0  0
  -21.9206  -32.2608   22.0381 O   0  0  0  0  0  0  0  0  0  0  0  0
  -20.3744  -28.3821   19.7829 O   0  0  0  0  0  0  0  0  0  0  0  0
  -27.3028  -17.8955   19.1456 O   0  0  0  0  0  0  0  0  0  0  0  0
  -21.2212   -7.6505   22.1081 O   0  0  0  0  0  0  0  0  0  0  0  0
  -26.5779  -25.5788   19.6890 O   0  0  0  0  0  0  0  0  0  1  0  0
  -21.9318   -2.8260   24.6817 F   0  0  0  0  0  0  0  0  0  0  0  0
  -20.3391   -7.2834   24.7023 F   0  0  0  0  0  0  0  0  0  0  0  0
  1  2  1  0  0  0  0
  1  6  2  0  0  0  0
  2  7  2  0  0  0  0
  3 10  2  0  0  0  0
  3 18  1  0  0  0  0
  4 11  1  0  0  0  0
  4 18  2  0  0  0  0
  5  9  2  0  0  0  0
  5 19  1  0  0  0  0
  6 21  1  0  0  0  0
  7 23  1  0  0  0  0
  8 12  2  0  0  0  0
  8 22  1  0  0  0  0
  9 25  1  0  0  0  0
 10 27  1  0  0  0  0
 11 27  2  0  0  0  0
 12 28  1  0  0  0  0
 13 14  2  0  0  0  0
 13 29  1  0  0  0  0
 14 30  1  0  0  0  0
 15 19  2  0  0  0  0
 15 26  1  0  0  0  0
 16 24  1  0  0  0  0
 16 28  2  0  0  0  0
 17 30  2  0  0  0  0
 17 31  1  0  0  0  0
 18 32  1  0  0  0  0
 19 34  1  0  0  0  0
 20 32  1  0  0  0  0
 20 33  2  0  0  0  0
 20 38  1  0  0  0  0
 21 23  2  0  0  0  0
 21 44  1  0  0  0  0
 22 24  2  0  0  0  0
 22 45  1  0  0  0  0
 23 53  1  0  0  0  0
 24 46  1  0  0  0  0
 25 26  2  0  0  0  0
 25 56  1  0  0  0  0
 26 71  1  0  0  0  0
 27 81  1  0  0  0  0
 28 82  1  0  0  0  0
 29 31  2  0  0  0  0
 29 81  1  0  0  0  0
 30 83  1  0  0  0  0
 31 84  1  0  0  0  0
 32 65  2  0  0  0  0
 33 66  1  0  0  0  0
 33 69  1  0  0  0  0
 34 35  2  0  0  0  0
 35 39  1  0  0  0  0
 36 37  2  0  0  0  0
 36 39  1  0  0  0  0
 37 82  1  0  0  0  0
 38 70  1  0  0  0  0
 38 75  2  0  0  0  0
 39 76  2  0  0  0  0
 40 54  1  0  0  0  0
 40 72  1  0  0  0  0
 40 77  2  0  0  0  0
 41 62  1  0  0  0  0
 41 67  1  0  0  0  0
 41 78  2  0  0  0  0
 42 63  1  0  0  0  0
 42 73  1  0  0  0  0
 42 79  2  0  0  0  0
 43 68  1  0  0  0  0
 43 71  1  0  0  0  0
 43 80  2  0  0  0  0
 44 47  1  0  0  0  0
 45 54  1  0  0  0  0
 46 67  1  0  0  0  0
 47 49  1  0  0  0  0
 48 50  1  0  0  0  0
 48 51  1  0  0  0  0
 49 53  1  0  0  0  0
 50 55  1  0  0  0  0
 51 68  1  0  0  0  0
 52 55  1  0  0  0  0
 52 68  1  0  0  0  0
 53 72  1  0  0  0  0
 54 67  1  0  0  0  0
 55 66  1  0  0  0  0
 57 63  1  0  0  0  0
 58 64  1  0  0  0  0
 59 64  1  0  0  0  0
 60 64  1  0  0  0  0
 61 74  1  0  0  0  0
 62 64  1  0  0  0  0
 62 73  1  0  0  0  0
 63 74  1  0  0  0  0
 65 66  1  0  0  0  0
M  CHG  1  74   1
M  ISO  4  37 101  43 100  71 100  82 101
M  END
> <Batch ID>
0117

> <Smiles>
CNC(C)C(=O)NC(C(=O)N1Cc2cc([101O:1][101CH:1]=CC(=O)C=Cc3ccc(C)c([100NH:0][100C:0](=O)N4CCCC(n5nc(-c6ccc(Oc7ccc(F)cc7F)cc6)c(C(N)=O)c5N)C4)c3)ccc2CC1C(=O)NC1CCCc2ccccc21)C(C)(C)C

> <Shape>
0.256

> <Color>
0.104

> <Negative vol penalty>
0.000

$$$$

  -OEChem-04052301463D

 85 93  0     1  0  0  0  0  0999 V2000
  -25.5501  -31.5217   25.6484 C   0  0  0  0  0  0  0  0  0  0  0  0
  -26.3542  -30.4617   25.2420 C   0  0  0  0  0  0  0  0  0  0  0  0
  -23.2026   -9.6986   20.1047 C   0  0  0  0  0  0  0  0  0  0  0  0
  -23.8146   -9.9949   22.4231 C   0  0  0  0  0  0  0  0  0  0  0  0
  -24.7542  -32.1883   24.7177 C   0  0  0  0  0  0  0  0  0  0  0  0
  -26.3621  -30.0670   23.9046 C   0  0  0  0  0  0  0  0  0  0  0  0
  -31.0399  -29.2352   22.1522 C   0  0  0  0  0  0  0  0  0  0  0  0
  -22.4820   -8.5527   20.4413 C   0  0  0  0  0  0  0  0  0  0  0  0
  -23.0939   -8.8491   22.7597 C   0  0  0  0  0  0  0  0  0  0  0  0
  -31.6468  -28.0302   22.5039 C   0  0  0  0  0  0  0  0  0  0  0  0
  -23.1417   -5.3136   21.1466 C   0  0  0  0  0  0  0  0  0  0  0  0
  -23.3013   -4.1879   20.3387 C   0  0  0  0  0  0  0  0  0  0  0  0
  -29.4780  -18.1051   22.3799 C   0  0  0  0  0  0  0  0  0  0  0  0
  -31.0747  -27.1189   20.3449 C   0  0  0  0  0  0  0  0  0  0  0  0
  -31.6267  -17.6516   21.3727 C   0  0  0  0  0  0  0  0  0  0  0  0
  -20.9399   -4.2188   19.8290 C   0  0  0  0  0  0  0  0  0  0  0  0
  -23.8689  -10.4197   21.0956 C   0  0  0  0  0  0  0  0  0  0  0  0
  -29.9069  -19.3888   22.7170 C   0  0  0  0  0  0  0  0  0  0  0  0
  -24.1359  -12.9265   20.7056 C   0  0  0  0  0  0  0  0  0  0  0  0
  -24.7597  -31.8077   23.3665 C   0  0  0  0  0  0  0  0  0  0  0  0
  -30.4354  -29.3876   20.8961 C   0  0  0  0  0  0  0  0  0  0  0  0
  -25.5646  -30.7282   22.9552 C   0  0  0  0  0  0  0  0  0  0  0  0
  -30.4632  -28.3276   19.9787 C   0  0  0  0  0  0  0  0  0  0  0  0
  -32.0556  -18.9354   21.7097 C   0  0  0  0  0  0  0  0  0  0  0  0
  -30.3379  -17.2365   21.7078 C   0  0  0  0  0  0  0  0  0  0  0  0
  -22.4277   -8.1280   21.7688 C   0  0  0  0  0  0  0  0  0  0  0  0
  -31.6617  -26.9709   21.6013 C   0  0  0  0  0  0  0  0  0  0  0  0
  -21.8811   -5.8919   21.2958 C   0  0  0  0  0  0  0  0  0  0  0  0
  -31.1957  -19.8040   22.3819 C   0  0  0  0  0  0  0  0  0  0  0  0
  -22.2005   -3.6405   19.6798 C   0  0  0  0  0  0  0  0  0  0  0  0
  -20.7802   -5.3445   20.6370 C   0  0  0  0  0  0  0  0  0  0  0  0
  -24.6139  -11.6031   20.7484 C   0  0  0  0  0  0  0  0  0  0  0  0
  -25.2241  -13.6725   20.3239 C   0  0  0  0  0  0  0  0  0  0  0  0
  -27.8035  -20.6298   22.9430 C   0  0  0  0  0  0  0  0  0  0  0  0
  -28.9882  -20.2761   23.4183 C   0  0  0  0  0  0  0  0  0  0  0  0
  -22.8253  -13.4360   20.9859 C   0  0  0  0  0  0  0  0  0  0  0  0
  -27.4796  -29.9761   19.8859 C   0  0  0  0  0  0  0  0  0  0  0  0
  -31.9139  -23.4203   22.2799 C   0  0  0  0  0  0  0  0  0  0  0  0
  -28.9214  -30.1409   16.9848 C   0  0  0  0  0  0  0  0  0  0  0  0
  -31.5568  -29.2570   15.0049 C   0  0  0  0  0  0  0  0  0  0  0  0
  -30.6315  -14.9457   20.7015 C   0  0  0  0  0  0  0  0  0  0  0  0
  -23.8468  -32.5278   22.4058 C   0  0  0  0  0  0  0  0  0  0  0  0
  -29.8085  -30.7027   20.5219 C   0  0  0  0  0  0  0  0  0  0  0  0
  -29.8460  -28.4470   18.6100 C   0  0  0  0  0  0  0  0  0  0  0  0
  -24.1959  -32.2892   20.9390 C   0  0  0  0  0  0  0  0  0  0  0  0
  -29.7485  -12.2374   18.5654 C   0  0  0  0  0  0  0  0  0  0  0  0
  -24.4363  -30.8050   20.6821 C   0  0  0  0  0  0  0  0  0  0  0  0
  -28.2947  -11.9398   18.9394 C   0  0  0  0  0  0  0  0  0  0  0  0
  -30.5775  -12.6366   19.7850 C   0  0  0  0  0  0  0  0  0  0  0  0
  -28.5642  -13.4370   20.9576 C   0  0  0  0  0  0  0  0  0  0  0  0
  -25.6192  -30.2865   21.5088 C   0  0  1  0  0  0  0  0  0  0  0  0
  -28.7724  -30.5755   19.4094 C   0  0  1  0  0  0  0  0  0  0  0  0
  -27.6743  -13.0934   19.7519 C   0  0  2  0  0  0  0  0  0  0  0  0
  -33.4389  -19.3610   21.3419 C   0  0  0  0  0  0  0  0  0  0  0  0
  -32.4378  -29.5106   12.6690 C   0  0  0  0  0  0  0  0  0  0  0  0
  -26.8924  -28.0862   15.9991 C   0  0  0  0  0  0  0  0  0  0  0  0
  -28.3701  -27.6798   14.0194 C   0  0  0  0  0  0  0  0  0  0  0  0
  -27.3716  -29.9362   14.3859 C   0  0  0  0  0  0  0  0  0  0  0  0
  -33.9999  -30.6333   15.9516 C   0  0  0  0  0  0  0  0  0  0  0  0
  -31.7202  -24.6060   21.3570 C   0  0  0  0  0  0  0  0  0  1  0  0
  -31.4047  -22.0906   21.7626 C   0  0  0  0  0  0  0  0  0  0  0  0
  -29.2429  -29.1493   15.8929 C   0  0  1  0  0  0  0  0  0  0  0  0
  -32.4415  -30.0746   14.0812 C   0  0  2  0  0  0  0  0  0  0  0  0
  -27.9793  -28.7097   15.1008 C   0  0  0  0  0  0  0  0  0  0  0  0
  -25.9053  -11.5105   20.4199 N   0  0  0  0  0  0  0  0  0  0  0  0
  -26.2479  -12.7851   20.1670 N   0  0  0  0  0  0  0  0  0  0  0  0
  -29.2397  -29.7507   18.2934 N   0  0  0  0  0  0  0  0  0  0  0  0
  -29.9308  -13.7372   20.5028 N   0  0  0  0  0  0  0  0  0  0  0  0
  -25.3956  -14.9945   20.1104 N   0  0  0  0  0  0  0  0  0  0  0  0
  -21.8239  -12.5317   21.3651 N   0  0  0  0  0  0  0  0  0  0  0  0
  -29.9038  -15.9312   21.3678 N   0  0  0  0  0  0  0  0  0  0  0  0
  -26.8720  -30.6858   20.9042 N   0  0  0  0  0  0  0  0  0  0  0  0
  -30.2778  -29.7678   15.0715 N   0  0  0  0  0  0  0  0  0  0  0  0
  -33.8455  -30.0816   14.5809 N   0  3  0  0  0  0  0  0  0  0  0  0
  -22.5462  -14.6549   20.8868 O   0  0  0  0  0  0  0  0  0  0  0  0
  -27.0633  -28.9469   19.3672 O   0  0  0  0  0  0  0  0  0  0  0  0
  -32.4506  -23.5307   23.3812 O   0  0  0  0  0  0  0  0  0  0  0  0
  -28.4133  -31.2248   16.6870 O   0  0  0  0  0  0  0  0  0  0  0  0
  -31.9590  -28.2623   15.6043 O   0  0  0  0  0  0  0  0  0  0  0  0
  -31.7820  -15.1048   20.2855 O   0  0  0  0  0  0  0  0  0  0  0  0
  -21.7244   -7.0100   22.0977 O   0  0  0  0  0  0  0  0  0  0  0  0
  -32.2527  -25.7935   21.9424 O   0  0  0  0  0  0  0  0  0  1  0  0
  -31.6274  -21.0674   22.7098 O   0  0  0  0  0  0  0  0  0  0  0  0
  -22.3542   -2.5603   18.9028 F   0  0  0  0  0  0  0  0  0  0  0  0
  -19.5670   -5.8964   20.7756 F   0  0  0  0  0  0  0  0  0  0  0  0
  1  2  1  0  0  0  0
  1  5  2  0  0  0  0
  2  6  2  0  0  0  0
  3  8  2  0  0  0  0
  3 17  1  0  0  0  0
  4  9  1  0  0  0  0
  4 17  2  0  0  0  0
  5 20  1  0  0  0  0
  6 22  1  0  0  0  0
  7 10  2  0  0  0  0
  7 21  1  0  0  0  0
  8 26  1  0  0  0  0
  9 26  2  0  0  0  0
 10 27  1  0  0  0  0
 11 12  2  0  0  0  0
 11 28  1  0  0  0  0
 12 30  1  0  0  0  0
 13 18  1  0  0  0  0
 13 25  2  0  0  0  0
 14 23  1  0  0  0  0
 14 27  2  0  0  0  0
 15 24  2  0  0  0  0
 15 25  1  0  0  0  0
 16 30  2  0  0  0  0
 16 31  1  0  0  0  0
 17 32  1  0  0  0  0
 18 29  2  0  0  0  0
 18 35  1  0  0  0  0
 19 32  1  0  0  0  0
 19 33  2  0  0  0  0
 19 36  1  0  0  0  0
 20 22  2  0  0  0  0
 20 42  1  0  0  0  0
 21 23  2  0  0  0  0
 21 43  1  0  0  0  0
 22 51  1  0  0  0  0
 23 44  1  0  0  0  0
 24 29  1  0  0  0  0
 24 54  1  0  0  0  0
 25 71  1  0  0  0  0
 26 81  1  0  0  0  0
 27 82  1  0  0  0  0
 28 31  2  0  0  0  0
 28 81  1  0  0  0  0
 29 83  1  0  0  0  0
 30 84  1  0  0  0  0
 31 85  1  0  0  0  0
 32 65  2  0  0  0  0
 33 66  1  0  0  0  0
 33 69  1  0  0  0  0
 34 35  2  0  0  0  0
 36 70  1  0  0  0  0
 36 75  2  0  0  0  0
 37 52  1  0  0  0  0
 37 72  1  0  0  0  0
 37 76  2  0  0  0  0
 38 60  1  0  0  0  0
 38 61  1  0  0  0  0
 38 77  2  0  0  0  0
 39 62  1  0  0  0  0
 39 67  1  0  0  0  0
 39 78  2  0  0  0  0
 40 63  1  0  0  0  0
 40 73  1  0  0  0  0
 40 79  2  0  0  0  0
 41 68  1  0  0  0  0
 41 71  1  0  0  0  0
 41 80  2  0  0  0  0
 42 45  1  0  0  0  0
 43 52  1  0  0  0  0
 44 67  1  0  0  0  0
 45 47  1  0  0  0  0
 46 48  1  0  0  0  0
 46 49  1  0  0  0  0
 47 51  1  0  0  0  0
 48 53  1  0  0  0  0
 49 68  1  0  0  0  0
 50 53  1  0  0  0  0
 50 68  1  0  0  0  0
 51 72  1  0  0  0  0
 52 67  1  0  0  0  0
 53 66  1  0  0  0  0
 55 63  1  0  0  0  0
 56 64  1  0  0  0  0
 57 64  1  0  0  0  0
 58 64  1  0  0  0  0
 59 74  1  0  0  0  0
 60 82  1  0  0  0  0
 61 83  1  0  0  0  0
 62 64  1  0  0  0  0
 62 73  1  0  0  0  0
 63 74  1  0  0  0  0
 65 66  1  0  0  0  0
M  CHG  1  74   1
M  ISO  4  41 100  60 101  71 100  82 101
M  END
> <Batch ID>
0117

> <Smiles>
C=Cc1cc([100NH:0][100C:0](=O)N2CCCC(n3nc(-c4ccc(Oc5ccc(F)cc5F)cc4)c(C(N)=O)c3N)C2)cc(C)c1OCC(=O)[101CH2:1][101O:1]c1ccc2c(c1)CN(C(=O)C(NC(=O)C(C)NC)C(C)(C)C)C(C(=O)NC1CCCc3ccccc31)C2

> <Shape>
0.256

> <Color>
0.177

> <Negative vol penalty>
0.000

$$$$

  -OEChem-04052301463D

 88 96  0     1  0  0  0  0  0999 V2000
  -17.5527  -30.6835   23.5416 C   0  0  0  0  0  0  0  0  0  0  0  0
  -18.9413  -30.7418   23.4793 C   0  0  0  0  0  0  0  0  0  0  0  0
  -24.5422  -14.0833   20.1133 C   0  0  0  0  0  0  0  0  0  0  0  0
  -26.5753  -14.0314   21.4175 C   0  0  0  0  0  0  0  0  0  0  0  0
  -16.8993  -29.4630   23.3759 C   0  0  0  0  0  0  0  0  0  0  0  0
  -19.6773  -29.5794   23.2523 C   0  0  0  0  0  0  0  0  0  0  0  0
  -24.8987  -29.0869   20.0899 C   0  0  0  0  0  0  0  0  0  0  0  0
  -24.5302  -12.6890   20.0765 C   0  0  0  0  0  0  0  0  0  0  0  0
  -26.5632  -12.6370   21.3808 C   0  0  0  0  0  0  0  0  0  0  0  0
  -26.2340  -29.0308   20.4869 C   0  0  0  0  0  0  0  0  0  0  0  0
  -23.7671   -9.1372   19.9458 C   0  0  0  0  0  0  0  0  0  0  0  0
  -22.5547   -8.4925   20.1905 C   0  0  0  0  0  0  0  0  0  0  0  0
  -30.5060  -23.9095   21.0688 C   0  0  0  0  0  0  0  0  0  0  0  0
  -26.1570  -26.6219   20.3841 C   0  0  0  0  0  0  0  0  0  0  0  0
  -29.1280  -23.3014   22.9579 C   0  0  0  0  0  0  0  0  0  0  0  0
  -22.4591   -9.5041   22.3824 C   0  0  0  0  0  0  0  0  0  0  0  0
  -25.5648  -14.7545   20.7837 C   0  0  0  0  0  0  0  0  0  0  0  0
  -31.2475  -24.7640   21.8847 C   0  0  0  0  0  0  0  0  0  0  0  0
  -30.9293  -24.8871   23.2372 C   0  0  0  0  0  0  0  0  0  0  0  0
  -24.9797  -17.0254   21.7879 C   0  0  0  0  0  0  0  0  0  0  0  0
  -17.6272  -28.2867   23.1371 C   0  0  0  0  0  0  0  0  0  0  0  0
  -24.1781  -27.9086   19.8472 C   0  0  0  0  0  0  0  0  0  0  0  0
  -19.0331  -28.3419   23.0845 C   0  0  0  0  0  0  0  0  0  0  0  0
  -24.8134  -26.6659   19.9817 C   0  0  0  0  0  0  0  0  0  0  0  0
  -29.4462  -23.1783   21.6054 C   0  0  0  0  0  0  0  0  0  0  0  0
  -25.5406  -11.9659   20.7102 C   0  0  0  0  0  0  0  0  0  0  0  0
  -26.8625  -27.7981   20.6368 C   0  0  0  0  0  0  0  0  0  0  0  0
  -24.3256   -9.9653   20.9195 C   0  0  0  0  0  0  0  0  0  0  0  0
  -21.9006   -8.6759   21.4088 C   0  0  0  0  0  0  0  0  0  0  0  0
  -29.8696  -24.1558   23.7738 C   0  0  0  0  0  0  0  0  0  0  0  0
  -23.6716  -10.1488   22.1377 C   0  0  0  0  0  0  0  0  0  0  0  0
  -25.5782  -16.1948   20.8216 C   0  0  0  0  0  0  0  0  0  0  0  0
  -25.2776  -18.3013   21.3760 C   0  0  0  0  0  0  0  0  0  0  0  0
  -33.3758  -24.9437   20.6793 C   0  0  0  0  0  0  0  0  0  0  0  0
  -32.3480  -25.5126   21.2904 C   0  0  0  0  0  0  0  0  0  0  0  0
  -29.6655  -27.6168   22.8840 C   0  0  0  0  0  0  0  0  0  0  0  0
  -28.4363  -27.6775   22.3629 C   0  0  0  0  0  0  0  0  0  1  0  0
  -31.6932  -25.7834   24.1335 C   0  0  0  0  0  0  0  0  0  0  0  0
  -24.2223  -16.6749   22.9538 C   0  0  0  0  0  0  0  0  0  0  0  0
  -29.8382  -27.5348   24.3617 C   0  0  0  0  0  0  0  0  0  0  0  0
  -21.6017  -26.5520   21.1221 C   0  0  0  0  0  0  0  0  0  0  0  0
  -21.9810  -24.4485   18.6820 C   0  0  0  0  0  0  0  0  0  0  0  0
  -24.0698  -22.9956   16.4076 C   0  0  0  0  0  0  0  0  0  0  0  0
  -28.8754  -22.0716   19.4155 C   0  0  0  0  0  0  0  0  0  0  0  0
  -16.8792  -26.9831   23.0113 C   0  0  0  0  0  0  0  0  0  0  0  0
  -22.7461  -27.9870   19.3938 C   0  0  0  0  0  0  0  0  0  0  0  0
  -24.0899  -25.3723   19.7136 C   0  0  0  0  0  0  0  0  0  0  0  0
  -17.7126  -25.8590   22.4014 C   0  0  0  0  0  0  0  0  0  0  0  0
  -27.2557  -19.9822   17.0305 C   0  0  0  0  0  0  0  0  0  0  0  0
  -19.0916  -25.8039   23.0512 C   0  0  0  0  0  0  0  0  0  0  0  0
  -26.6257  -18.8790   17.8837 C   0  0  0  0  0  0  0  0  0  0  0  0
  -28.6132  -20.4180   17.5792 C   0  0  0  0  0  0  0  0  0  0  0  0
  -27.9858  -19.6977   19.8500 C   0  0  0  0  0  0  0  0  0  0  0  0
  -19.8651  -27.1068   22.8153 C   0  0  1  0  0  0  0  0  0  0  0  0
  -21.9606  -26.7090   19.6715 C   0  0  1  0  0  0  0  0  0  0  0  0
  -26.5877  -19.2712   19.3737 C   0  0  2  0  0  0  0  0  0  0  0  0
  -24.0996  -21.2844   14.5723 C   0  0  0  0  0  0  0  0  0  0  0  0
  -21.9406  -22.2183   20.7640 C   0  0  0  0  0  0  0  0  0  0  0  0
  -22.9062  -20.6839   19.0374 C   0  0  0  0  0  0  0  0  0  0  0  0
  -20.6648  -21.7161   18.6725 C   0  0  0  0  0  0  0  0  0  0  0  0
  -31.5572  -27.2329   26.0740 C   0  0  0  0  0  0  0  0  0  0  0  0
  -24.8720  -25.0054   14.3887 C   0  0  0  0  0  0  0  0  0  0  0  0
  -22.7360  -23.1549   18.4933 C   0  0  1  0  0  0  0  0  0  0  0  0
  -23.9241  -22.7555   14.9158 C   0  0  2  0  0  0  0  0  0  0  0  0
  -22.0753  -21.9674   19.2488 C   0  0  0  0  0  0  0  0  0  0  0  0
  -26.2085  -16.8851   19.8675 N   0  0  0  0  0  0  0  0  0  0  0  0
  -26.0076  -18.1629   20.2323 N   0  0  0  0  0  0  0  0  0  0  0  0
  -22.6893  -25.5011   19.2787 N   0  0  0  0  0  0  0  0  0  0  0  0
  -28.4991  -20.7787   18.9940 N   0  0  0  0  0  0  0  0  0  0  0  0
  -24.9836  -19.5170   21.8840 N   0  0  0  0  0  0  0  0  0  0  0  0
  -24.0100  -15.3172   23.2293 N   0  0  0  0  0  0  0  0  0  0  0  0
  -28.6924  -22.3102   20.7771 N   0  0  0  0  0  0  0  0  0  0  0  0
  -20.4011  -27.1401   21.4714 N   0  0  0  0  0  0  0  0  0  0  0  0
  -22.8517  -22.9563   17.0526 N   0  0  0  0  0  0  0  0  0  0  0  0
  -30.9958  -26.8368   24.7878 N   0  0  0  0  0  0  0  0  0  0  0  0
  -24.9441  -23.5388   14.1629 N   0  3  0  0  0  0  0  0  0  0  0  0
  -32.9024  -25.5810   24.2446 O   0  0  0  0  0  0  0  0  0  0  0  0
  -23.7339  -17.5404   23.7193 O   0  0  0  0  0  0  0  0  0  0  0  0
  -29.0021  -28.0238   25.1205 O   0  0  0  0  0  0  0  0  0  0  0  0
  -22.3574  -25.9411   21.8687 O   0  0  0  0  0  0  0  0  0  0  0  0
  -20.8082  -24.5245   18.3071 O   0  0  0  0  0  0  0  0  0  0  0  0
  -25.1559  -23.1943   16.9473 O   0  0  0  0  0  0  0  0  0  0  0  0
  -29.3013  -22.9146   18.6217 O   0  0  0  0  0  0  0  0  0  0  0  0
  -25.5290  -10.6053   20.6748 O   0  0  0  0  0  0  0  0  0  0  0  0
  -28.1656  -27.7404   21.0248 O   0  0  0  0  0  0  0  0  0  1  0  0
  -20.7355   -8.0580   21.6430 F   0  0  0  0  0  0  0  0  0  0  0  0
  -29.5533  -24.2651   25.0722 F   0  0  0  0  0  0  0  0  0  0  0  0
  -24.2026  -10.9441   23.0765 F   0  0  0  0  0  0  0  0  0  0  0  0
  1  2  1  0  0  0  0
  1  5  2  0  0  0  0
  2  6  2  0  0  0  0
  3  8  2  0  0  0  0
  3 17  1  0  0  0  0
  4  9  1  0  0  0  0
  4 17  2  0  0  0  0
  5 21  1  0  0  0  0
  6 23  1  0  0  0  0
  7 10  2  0  0  0  0
  7 22  1  0  0  0  0
  8 26  1  0  0  0  0
  9 26  2  0  0  0  0
 10 27  1  0  0  0  0
 11 12  2  0  0  0  0
 11 28  1  0  0  0  0
 12 29  1  0  0  0  0
 13 18  1  0  0  0  0
 13 25  2  0  0  0  0
 14 24  1  0  0  0  0
 14 27  2  0  0  0  0
 15 25  1  0  0  0  0
 15 30  2  0  0  0  0
 16 29  2  0  0  0  0
 16 31  1  0  0  0  0
 17 32  1  0  0  0  0
 18 19  2  0  0  0  0
 18 35  1  0  0  0  0
 19 30  1  0  0  0  0
 19 38  1  0  0  0  0
 20 32  1  0  0  0  0
 20 33  2  0  0  0  0
 20 39  1  0  0  0  0
 21 23  2  0  0  0  0
 21 45  1  0  0  0  0
 22 24  2  0  0  0  0
 22 46  1  0  0  0  0
 23 54  1  0  0  0  0
 24 47  1  0  0  0  0
 25 72  1  0  0  0  0
 26 84  1  0  0  0  0
 27 85  1  0  0  0  0
 28 31  2  0  0  0  0
 28 84  1  0  0  0  0
 29 86  1  0  0  0  0
 30 87  1  0  0  0  0
 31 88  1  0  0  0  0
 32 66  2  0  0  0  0
 33 67  1  0  0  0  0
 33 70  1  0  0  0  0
 34 35  2  0  0  0  0
 36 37  2  0  0  0  0
 36 40  1  0  0  0  0
 37 85  1  0  0  0  0
 38 75  1  0  0  0  0
 38 77  2  0  0  0  0
 39 71  1  0  0  0  0
 39 78  2  0  0  0  0
 40 75  1  0  0  0  0
 40 79  2  0  0  0  0
 41 55  1  0  0  0  0
 41 73  1  0  0  0  0
 41 80  2  0  0  0  0
 42 63  1  0  0  0  0
 42 68  1  0  0  0  0
 42 81  2  0  0  0  0
 43 64  1  0  0  0  0
 43 74  1  0  0  0  0
 43 82  2  0  0  0  0
 44 69  1  0  0  0  0
 44 72  1  0  0  0  0
 44 83  2  0  0  0  0
 45 48  1  0  0  0  0
 46 55  1  0  0  0  0
 47 68  1  0  0  0  0
 48 50  1  0  0  0  0
 49 51  1  0  0  0  0
 49 52  1  0  0  0  0
 50 54  1  0  0  0  0
 51 56  1  0  0  0  0
 52 69  1  0  0  0  0
 53 56  1  0  0  0  0
 53 69  1  0  0  0  0
 54 73  1  0  0  0  0
 55 68  1  0  0  0  0
 56 67  1  0  0  0  0
 57 64  1  0  0  0  0
 58 65  1  0  0  0  0
 59 65  1  0  0  0  0
 60 65  1  0  0  0  0
 61 75  1  0  0  0  0
 62 76  1  0  0  0  0
 63 65  1  0  0  0  0
 63 74  1  0  0  0  0
 64 76  1  0  0  0  0
 66 67  1  0  0  0  0
M  CHG  1  76   1
M  ISO  4  37 101  44 100  72 100  85 101
M  END
> <Batch ID>
0117

> <Smiles>
C=Cc1cc([100NH:0][100C:0](=O)N2CCCC(n3nc(-c4ccc(Oc5ccc(F)cc5F)cc4)c(C(N)=O)c3N)C2)cc(F)c1C(=O)N(C)C(=O)C=[101CH:1][101O:1]c1ccc2c(c1)CN(C(=O)C(NC(=O)C(C)NC)C(C)(C)C)C(C(=O)NC1CCCc3ccccc31)C2

> <Shape>
0.215

> <Color>
0.085

> <Negative vol penalty>
0.000

$$$$

  -OEChem-04052301463D

 86 94  0     1  0  0  0  0  0999 V2000
  -25.8350  -31.8355   24.1316 C   0  0  0  0  0  0  0  0  0  0  0  0
  -26.3170  -30.6428   24.6613 C   0  0  0  0  0  0  0  0  0  0  0  0
  -23.2093   -9.7347   20.0622 C   0  0  0  0  0  0  0  0  0  0  0  0
  -23.8277  -10.0077   22.3817 C   0  0  0  0  0  0  0  0  0  0  0  0
  -25.3131  -31.8623   22.8390 C   0  0  0  0  0  0  0  0  0  0  0  0
  -26.2763  -29.4759   23.8990 C   0  0  0  0  0  0  0  0  0  0  0  0
  -30.5937  -26.8410   24.1484 C   0  0  0  0  0  0  0  0  0  0  0  0
  -22.5025   -8.5768   20.3869 C   0  0  0  0  0  0  0  0  0  0  0  0
  -23.1209   -8.8499   22.7064 C   0  0  0  0  0  0  0  0  0  0  0  0
  -30.8077  -26.0764   25.2943 C   0  0  0  0  0  0  0  0  0  0  0  0
  -19.8999   -7.9575   23.2060 C   0  0  0  0  0  0  0  0  0  0  0  0
  -19.0758   -7.9971   24.3307 C   0  0  0  0  0  0  0  0  0  0  0  0
  -30.0164  -18.9331   23.6920 C   0  0  0  0  0  0  0  0  0  0  0  0
  -30.1037  -24.1017   24.1009 C   0  0  0  0  0  0  0  0  0  0  0  0
  -31.7247  -17.1133   22.4460 C   0  0  0  0  0  0  0  0  0  0  0  0
  -20.3534   -6.2065   25.3298 C   0  0  0  0  0  0  0  0  0  0  0  0
  -23.8719  -10.4501   21.0595 C   0  0  0  0  0  0  0  0  0  0  0  0
  -29.4942  -17.9463   22.8558 C   0  0  0  0  0  0  0  0  0  0  0  0
  -24.1102  -12.9645   20.7009 C   0  0  0  0  0  0  0  0  0  0  0  0
  -25.2748  -30.6972   22.0570 C   0  0  0  0  0  0  0  0  0  0  0  0
  -30.1219  -26.2426   22.9712 C   0  0  0  0  0  0  0  0  0  0  0  0
  -25.7521  -29.4868   22.5953 C   0  0  0  0  0  0  0  0  0  0  0  0
  -29.8870  -24.8606   22.9406 C   0  0  0  0  0  0  0  0  0  0  0  0
  -31.3928  -19.0100   23.9052 C   0  0  0  0  0  0  0  0  0  0  0  0
  -30.3484  -17.0364   22.2328 C   0  0  0  0  0  0  0  0  0  0  0  0
  -22.4583   -8.1344   21.7090 C   0  0  0  0  0  0  0  0  0  0  0  0
  -30.5600  -24.7070   25.2716 C   0  0  0  0  0  0  0  0  0  0  0  0
  -20.9507   -7.0423   23.1432 C   0  0  0  0  0  0  0  0  0  0  0  0
  -19.3026   -7.1216   25.3926 C   0  0  0  0  0  0  0  0  0  0  0  0
  -32.2469  -18.1001   23.2822 C   0  0  0  0  0  0  0  0  0  0  0  0
  -21.1775   -6.1668   24.2051 C   0  0  0  0  0  0  0  0  0  0  0  0
  -24.6027  -11.6459   20.7247 C   0  0  0  0  0  0  0  0  0  0  0  0
  -25.1888  -13.7271   20.3245 C   0  0  0  0  0  0  0  0  0  0  0  0
  -27.3530  -18.8834   22.1124 C   0  0  0  0  0  0  0  0  0  0  0  0
  -28.0505  -17.8979   22.6555 C   0  0  0  0  0  0  0  0  0  0  0  0
  -31.6069  -21.8095   27.0385 C   0  0  0  0  0  0  0  0  0  0  0  0
  -31.6736  -22.9378   26.3205 C   0  0  0  0  0  0  0  0  0  1  0  0
  -32.0261  -19.6782   25.9980 C   0  0  0  0  0  0  0  0  0  0  0  0
  -22.7955  -13.4561   20.9932 C   0  0  0  0  0  0  0  0  0  0  0  0
  -27.5165  -26.5654   21.1792 C   0  0  0  0  0  0  0  0  0  0  0  0
  -29.0856  -24.5137   19.2169 C   0  0  0  0  0  0  0  0  0  0  0  0
  -31.4468  -22.0747   18.8658 C   0  0  0  0  0  0  0  0  0  0  0  0
  -30.5836  -15.0537   20.6966 C   0  0  0  0  0  0  0  0  0  0  0  0
  -24.6580  -30.7654   20.6824 C   0  0  0  0  0  0  0  0  0  0  0  0
  -29.9216  -27.0768   21.7358 C   0  0  0  0  0  0  0  0  0  0  0  0
  -29.3991  -24.1665   21.6962 C   0  0  0  0  0  0  0  0  0  0  0  0
  -24.9950  -29.5638   19.8032 C   0  0  0  0  0  0  0  0  0  0  0  0
  -29.7209  -12.3638   18.5293 C   0  0  0  0  0  0  0  0  0  0  0  0
  -24.8080  -28.2646   20.5802 C   0  0  0  0  0  0  0  0  0  0  0  0
  -28.2719  -12.0457   18.9053 C   0  0  0  0  0  0  0  0  0  0  0  0
  -30.5507  -12.7562   19.7504 C   0  0  0  0  0  0  0  0  0  0  0  0
  -28.5338  -13.5196   20.9415 C   0  0  0  0  0  0  0  0  0  0  0  0
  -25.7479  -28.2053   21.7904 C   0  0  1  0  0  0  0  0  0  0  0  0
  -28.9493  -26.4489   20.7419 C   0  0  1  0  0  0  0  0  0  0  0  0
  -27.6426  -13.1819   19.7351 C   0  0  2  0  0  0  0  0  0  0  0  0
  -34.0194  -20.9984   26.6161 C   0  0  0  0  0  0  0  0  0  0  0  0
  -32.4776  -20.5636   17.1479 C   0  0  0  0  0  0  0  0  0  0  0  0
  -26.6000  -22.7452   19.2845 C   0  0  0  0  0  0  0  0  0  0  0  0
  -27.9927  -20.8729   18.3774 C   0  0  0  0  0  0  0  0  0  0  0  0
  -27.6731  -22.9510   17.0350 C   0  0  0  0  0  0  0  0  0  0  0  0
  -34.1338  -23.2437   19.2811 C   0  0  0  0  0  0  0  0  0  0  0  0
  -32.5816  -20.6622   27.0010 C   0  0  1  0  0  0  0  0  0  0  0  0
  -29.1598  -23.0122   19.0789 C   0  0  1  0  0  0  0  0  0  0  0  0
  -32.5747  -21.9013   17.8647 C   0  0  2  0  0  0  0  0  0  0  0  0
  -27.8638  -22.4084   18.4681 C   0  0  0  0  0  0  0  0  0  0  0  0
  -25.8936  -11.5715   20.3898 N   0  0  0  0  0  0  0  0  0  0  0  0
  -31.9169  -20.0024   24.7501 N   0  0  0  0  0  0  0  0  0  0  0  0
  -26.2213  -12.8529   20.1520 N   0  0  0  0  0  0  0  0  0  0  0  0
  -29.2124  -25.0263   20.5158 N   0  0  0  0  0  0  0  0  0  0  0  0
  -29.8952  -13.8404   20.4851 N   0  0  0  0  0  0  0  0  0  0  0  0
  -25.3451  -15.0534   20.1274 N   0  0  0  0  0  0  0  0  0  0  0  0
  -21.8055  -12.5362   21.3646 N   0  0  0  0  0  0  0  0  0  0  0  0
  -29.8482  -16.0226   21.3785 N   0  0  0  0  0  0  0  0  0  0  0  0
  -27.0908  -27.8660   21.3712 N   0  0  0  0  0  0  0  0  0  0  0  0
  -30.3687  -22.7320   18.3118 N   0  0  0  0  0  0  0  0  0  0  0  0
  -33.8942  -21.9706   18.5539 N   0  3  0  0  0  0  0  0  0  0  0  0
  -22.5028  -14.6731   20.9109 O   0  0  0  0  0  0  0  0  0  0  0  0
  -26.8463  -25.5506   21.3298 O   0  0  0  0  0  0  0  0  0  0  0  0
  -28.9283  -25.2066   18.2086 O   0  0  0  0  0  0  0  0  0  0  0  0
  -31.5138  -21.6646   20.0225 O   0  0  0  0  0  0  0  0  0  0  0  0
  -31.7306  -15.2306   20.2780 O   0  0  0  0  0  0  0  0  0  0  0  0
  -21.7685   -7.0048   22.0262 O   0  0  0  0  0  0  0  0  0  0  0  0
  -30.7674  -23.9584   26.3890 O   0  0  0  0  0  0  0  0  0  1  0  0
  -18.5121   -7.1608   26.4732 F   0  0  0  0  0  0  0  0  0  0  0  0
  -33.5709  -18.1669   23.4801 F   0  0  0  0  0  0  0  0  0  0  0  0
  -22.1862   -5.2862   24.1510 F   0  0  0  0  0  0  0  0  0  0  0  0
  1  2  1  0  0  0  0
  1  5  2  0  0  0  0
  2  6  2  0  0  0  0
  3  8  2  0  0  0  0
  3 17  1  0  0  0  0
  4  9  1  0  0  0  0
  4 17  2  0  0  0  0
  5 20  1  0  0  0  0
  6 22  1  0  0  0  0
  7 10  2  0  0  0  0
  7 21  1  0  0  0  0
  8 26  1  0  0  0  0
  9 26  2  0  0  0  0
 10 27  1  0  0  0  0
 11 12  2  0  0  0  0
 11 28  1  0  0  0  0
 12 29  1  0  0  0  0
 13 18  1  0  0  0  0
 13 24  2  0  0  0  0
 14 23  1  0  0  0  0
 14 27  2  0  0  0  0
 15 25  1  0  0  0  0
 15 30  2  0  0  0  0
 16 29  2  0  0  0  0
 16 31  1  0  0  0  0
 17 32  1  0  0  0  0
 18 25  2  0  0  0  0
 18 35  1  0  0  0  0
 19 32  1  0  0  0  0
 19 33  2  0  0  0  0
 19 39  1  0  0  0  0
 20 22  2  0  0  0  0
 20 44  1  0  0  0  0
 21 23  2  0  0  0  0
 21 45  1  0  0  0  0
 22 53  1  0  0  0  0
 23 46  1  0  0  0  0
 24 30  1  0  0  0  0
 24 67  1  0  0  0  0
 25 73  1  0  0  0  0
 26 82  1  0  0  0  0
 27 83  1  0  0  0  0
 28 31  2  0  0  0  0
 28 82  1  0  0  0  0
 29 84  1  0  0  0  0
 30 85  1  0  0  0  0
 31 86  1  0  0  0  0
 32 66  2  0  0  0  0
 33 68  1  0  0  0  0
 33 71  1  0  0  0  0
 34 35  2  0  0  0  0
 36 37  2  0  0  0  0
 36 62  1  0  0  0  0
 37 83  1  0  0  0  0
 38 62  1  0  0  0  0
 38 67  2  0  0  0  0
 39 72  1  0  0  0  0
 39 77  2  0  0  0  0
 40 54  1  0  0  0  0
 40 74  1  0  0  0  0
 40 78  2  0  0  0  0
 41 63  1  0  0  0  0
 41 69  1  0  0  0  0
 41 79  2  0  0  0  0
 42 64  1  0  0  0  0
 42 75  1  0  0  0  0
 42 80  2  0  0  0  0
 43 70  1  0  0  0  0
 43 73  1  0  0  0  0
 43 81  2  0  0  0  0
 44 47  1  0  0  0  0
 45 54  1  0  0  0  0
 46 69  1  0  0  0  0
 47 49  1  0  0  0  0
 48 50  1  0  0  0  0
 48 51  1  0  0  0  0
 49 53  1  0  0  0  0
 50 55  1  0  0  0  0
 51 70  1  0  0  0  0
 52 55  1  0  0  0  0
 52 70  1  0  0  0  0
 53 74  1  0  0  0  0
 54 69  1  0  0  0  0
 55 68  1  0  0  0  0
 56 62  1  0  0  0  0
 57 64  1  0  0  0  0
 58 65  1  0  0  0  0
 59 65  1  0  0  0  0
 60 65  1  0  0  0  0
 61 76  1  0  0  0  0
 63 65  1  0  0  0  0
 63 75  1  0  0  0  0
 64 76  1  0  0  0  0
 66 68  1  0  0  0  0
M  CHG  1  76   1
M  ISO  4  37 101  43 100  73 100  83 101
M  END
> <Batch ID>
0117

> <Smiles>
C=Cc1cc(NC=C(C)C=[101CH:1][101O:1]c2ccc3c(c2)CN(C(=O)C(NC(=O)C(C)NC)C(C)(C)C)C(C(=O)NC2CCCc4ccccc42)C3)c(F)cc1[100NH:0][100C:0](=O)N1CCCC(n2nc(-c3ccc(Oc4ccc(F)cc4F)cc3)c(C(N)=O)c2N)C1

> <Shape>
0.296

> <Color>
0.189

> <Negative vol penalty>
0.000

$$$$

  -OEChem-04052301463D

 84 92  0     1  0  0  0  0  0999 V2000
  -21.2316   -8.9585   24.5677 C   0  0  0  0  0  0  0  0  0  0  0  0
  -22.3708   -9.6913   24.8849 C   0  0  0  0  0  0  0  0  0  0  0  0
  -26.0799  -28.7445   21.6465 C   0  0  0  0  0  0  0  0  0  0  0  0
  -26.1933  -28.6429   19.2353 C   0  0  0  0  0  0  0  0  0  0  0  0
  -21.0040   -8.5610   23.2508 C   0  0  0  0  0  0  0  0  0  0  0  0
  -23.2837  -10.0261   23.8855 C   0  0  0  0  0  0  0  0  0  0  0  0
  -24.8016  -14.8486   24.1773 C   0  0  0  0  0  0  0  0  0  0  0  0
  -24.8572  -29.4103   21.5609 C   0  0  0  0  0  0  0  0  0  0  0  0
  -24.9706  -29.3086   19.1497 C   0  0  0  0  0  0  0  0  0  0  0  0
  -25.7574  -15.1579   25.1440 C   0  0  0  0  0  0  0  0  0  0  0  0
  -21.8789  -31.4560   21.9711 C   0  0  0  0  0  0  0  0  0  0  0  0
  -21.6856  -32.5682   22.7903 C   0  0  0  0  0  0  0  0  0  0  0  0
  -30.3552  -19.6567   22.5715 C   0  0  0  0  0  0  0  0  0  0  0  0
  -29.0575  -20.1170   24.9978 C   0  0  0  0  0  0  0  0  0  0  0  0
  -27.4763  -15.1061   23.4524 C   0  0  0  0  0  0  0  0  0  0  0  0
  -23.5729  -33.6615   21.7511 C   0  0  0  0  0  0  0  0  0  0  0  0
  -26.7480  -28.3609   20.4836 C   0  0  0  0  0  0  0  0  0  0  0  0
  -30.7244  -18.9364   23.7075 C   0  0  0  0  0  0  0  0  0  0  0  0
  -30.0755  -19.1665   24.9206 C   0  0  0  0  0  0  0  0  0  0  0  0
  -29.1958  -28.1448   21.1688 C   0  0  0  0  0  0  0  0  0  0  0  0
  -21.9098   -8.8995   22.2331 C   0  0  0  0  0  0  0  0  0  0  0  0
  -25.1782  -14.6546   22.8405 C   0  0  0  0  0  0  0  0  0  0  0  0
  -23.0688   -9.6317   22.5540 C   0  0  0  0  0  0  0  0  0  0  0  0
  -26.5230  -14.7969   22.4702 C   0  0  0  0  0  0  0  0  0  0  0  0
  -29.3371  -20.6072   22.6486 C   0  0  0  0  0  0  0  0  0  0  0  0
  -24.3025  -29.6923   20.3126 C   0  0  0  0  0  0  0  0  0  0  0  0
  -27.0954  -15.2838   24.7822 C   0  0  0  0  0  0  0  0  0  0  0  0
  -22.9192  -31.4464   21.0419 C   0  0  0  0  0  0  0  0  0  0  0  0
  -22.5326  -33.6710   22.6803 C   0  0  0  0  0  0  0  0  0  0  0  0
  -28.6883  -20.8373   23.8618 C   0  0  0  0  0  0  0  0  0  0  0  0
  -23.7662  -32.5492   20.9319 C   0  0  0  0  0  0  0  0  0  0  0  0
  -28.0114  -27.6736   20.5713 C   0  0  0  0  0  0  0  0  0  0  0  0
  -30.0999  -27.1267   20.9886 C   0  0  0  0  0  0  0  0  0  0  0  0
  -31.7511  -16.9230   22.7550 C   0  0  0  0  0  0  0  0  0  0  0  0
  -31.7915  -17.9503   23.5895 C   0  0  0  0  0  0  0  0  0  0  0  0
  -29.7054  -17.1490   26.4098 C   0  0  0  0  0  0  0  0  0  0  0  0
  -28.7575  -16.7312   25.5651 C   0  0  0  0  0  0  0  0  0  1  0  0
  -30.4406  -18.4207   26.1572 C   0  0  0  0  0  0  0  0  0  0  0  0
  -29.4555  -29.3914   21.8278 C   0  0  0  0  0  0  0  0  0  0  0  0
  -25.0382  -12.2205   20.8012 C   0  0  0  0  0  0  0  0  0  0  0  0
  -26.1000  -14.4386   18.6859 C   0  0  0  0  0  0  0  0  0  0  0  0
  -27.7440  -17.3817   18.1544 C   0  0  0  0  0  0  0  0  0  0  0  0
  -29.5080  -21.2314   20.2140 C   0  0  0  0  0  0  0  0  0  0  0  0
  -21.6450   -8.4070   20.8324 C   0  0  0  0  0  0  0  0  0  0  0  0
  -24.1313  -14.3478   21.8050 C   0  0  0  0  0  0  0  0  0  0  0  0
  -26.9762  -14.6186   21.0449 C   0  0  0  0  0  0  0  0  0  0  0  0
  -22.4720   -9.1239   19.7682 C   0  0  0  0  0  0  0  0  0  0  0  0
  -31.1299  -23.5156   18.0165 C   0  0  0  0  0  0  0  0  0  0  0  0
  -23.9312   -9.2209   20.2018 C   0  0  0  0  0  0  0  0  0  0  0  0
  -30.6267  -24.8844   18.4806 C   0  0  0  0  0  0  0  0  0  0  0  0
  -30.0413  -22.4483   18.1140 C   0  0  0  0  0  0  0  0  0  0  0  0
  -28.8919  -23.7077   19.8922 C   0  0  0  0  0  0  0  0  0  0  0  0
  -24.0699  -10.0355   21.4935 C   0  0  1  0  0  0  0  0  0  0  0  0
  -24.6996  -13.6651   20.5648 C   0  0  1  0  0  0  0  0  0  0  0  0
  -29.9720  -24.8016   19.8734 C   0  0  2  0  0  0  0  0  0  0  0  0
  -28.4867  -18.9189   16.3152 C   0  0  0  0  0  0  0  0  0  0  0  0
  -28.3630  -12.5127   17.9933 C   0  0  0  0  0  0  0  0  0  0  0  0
  -29.5635  -14.4234   16.9088 C   0  0  0  0  0  0  0  0  0  0  0  0
  -27.3504  -13.6823   16.0283 C   0  0  0  0  0  0  0  0  0  0  0  0
  -26.1177  -19.6181   19.2092 C   0  0  0  0  0  0  0  0  0  0  0  0
  -27.4570  -14.9187   18.2310 C   0  0  1  0  0  0  0  0  0  0  0  0
  -27.3887  -18.5970   17.3169 C   0  0  2  0  0  0  0  0  0  0  0  0
  -28.1755  -13.8858   17.3176 C   0  0  0  0  0  0  0  0  0  0  0  0
  -28.1476  -26.4513   20.0504 N   0  0  0  0  0  0  0  0  0  0  0  0
  -31.3193  -18.9211   26.9661 N   0  0  0  0  0  0  0  0  0  0  0  0
  -29.4283  -26.1459   20.3199 N   0  0  0  0  0  0  0  0  0  0  0  0
  -25.9160  -14.3133   20.0701 N   0  0  0  0  0  0  0  0  0  0  0  0
  -29.4698  -22.4248   19.4623 N   0  0  0  0  0  0  0  0  0  0  0  0
  -31.3959  -26.9837   21.3384 N   0  0  0  0  0  0  0  0  0  0  0  0
  -29.9209  -30.4683   21.0609 N   0  0  0  0  0  0  0  0  0  0  0  0
  -28.9642  -21.3383   21.4936 N   0  0  0  0  0  0  0  0  0  0  0  0
  -23.9662  -11.4513   21.2118 N   0  0  0  0  0  0  0  0  0  0  0  0
  -27.2417  -16.2199   17.6073 N   0  0  0  0  0  0  0  0  0  0  0  0
  -27.1861  -19.7870   18.1908 N   0  3  0  0  0  0  0  0  0  0  0  0
  -29.2957  -29.5410   23.0629 O   0  0  0  0  0  0  0  0  0  0  0  0
  -26.1867  -11.8320   20.6228 O   0  0  0  0  0  0  0  0  0  0  0  0
  -25.2328  -14.1910   17.8443 O   0  0  0  0  0  0  0  0  0  0  0  0
  -28.4044  -17.4552   19.1883 O   0  0  0  0  0  0  0  0  0  0  0  0
  -30.0123  -20.1983   19.7663 O   0  0  0  0  0  0  0  0  0  0  0  0
  -23.1093  -30.3417   20.2288 O   0  0  0  0  0  0  0  0  0  0  0  0
  -28.0305  -15.5850   25.7239 O   0  0  0  0  0  0  0  0  0  1  0  0
  -22.3460  -34.7396   23.4660 F   0  0  0  0  0  0  0  0  0  0  0  0
  -27.7085  -21.7484   23.9472 F   0  0  0  0  0  0  0  0  0  0  0  0
  -24.7666  -32.5463   20.0403 F   0  0  0  0  0  0  0  0  0  0  0  0
  1  2  1  0  0  0  0
  1  5  2  0  0  0  0
  2  6  2  0  0  0  0
  3  8  2  0  0  0  0
  3 17  1  0  0  0  0
  4  9  1  0  0  0  0
  4 17  2  0  0  0  0
  5 21  1  0  0  0  0
  6 23  1  0  0  0  0
  7 10  2  0  0  0  0
  7 22  1  0  0  0  0
  8 26  1  0  0  0  0
  9 26  2  0  0  0  0
 10 27  1  0  0  0  0
 11 12  2  0  0  0  0
 11 28  1  0  0  0  0
 12 29  1  0  0  0  0
 13 18  1  0  0  0  0
 13 25  2  0  0  0  0
 14 19  1  0  0  0  0
 14 30  2  0  0  0  0
 15 24  1  0  0  0  0
 15 27  2  0  0  0  0
 16 29  2  0  0  0  0
 16 31  1  0  0  0  0
 17 32  1  0  0  0  0
 18 19  2  0  0  0  0
 18 35  1  0  0  0  0
 19 38  1  0  0  0  0
 20 32  1  0  0  0  0
 20 33  2  0  0  0  0
 20 39  1  0  0  0  0
 21 23  2  0  0  0  0
 21 44  1  0  0  0  0
 22 24  2  0  0  0  0
 22 45  1  0  0  0  0
 23 53  1  0  0  0  0
 24 46  1  0  0  0  0
 25 30  1  0  0  0  0
 25 71  1  0  0  0  0
 26 80  1  0  0  0  0
 27 81  1  0  0  0  0
 28 31  2  0  0  0  0
 28 80  1  0  0  0  0
 29 82  1  0  0  0  0
 30 83  1  0  0  0  0
 31 84  1  0  0  0  0
 32 64  2  0  0  0  0
 33 66  1  0  0  0  0
 33 69  1  0  0  0  0
 34 35  2  0  0  0  0
 36 37  2  0  0  0  0
 36 38  1  0  0  0  0
 37 81  1  0  0  0  0
 38 65  2  0  0  0  0
 39 70  1  0  0  0  0
 39 75  2  0  0  0  0
 40 54  1  0  0  0  0
 40 72  1  0  0  0  0
 40 76  2  0  0  0  0
 41 61  1  0  0  0  0
 41 67  1  0  0  0  0
 41 77  2  0  0  0  0
 42 62  1  0  0  0  0
 42 73  1  0  0  0  0
 42 78  2  0  0  0  0
 43 68  1  0  0  0  0
 43 71  1  0  0  0  0
 43 79  2  0  0  0  0
 44 47  1  0  0  0  0
 45 54  1  0  0  0  0
 46 67  1  0  0  0  0
 47 49  1  0  0  0  0
 48 50  1  0  0  0  0
 48 51  1  0  0  0  0
 49 53  1  0  0  0  0
 50 55  1  0  0  0  0
 51 68  1  0  0  0  0
 52 55  1  0  0  0  0
 52 68  1  0  0  0  0
 53 72  1  0  0  0  0
 54 67  1  0  0  0  0
 55 66  1  0  0  0  0
 56 62  1  0  0  0  0
 57 63  1  0  0  0  0
 58 63  1  0  0  0  0
 59 63  1  0  0  0  0
 60 74  1  0  0  0  0
 61 63  1  0  0  0  0
 61 73  1  0  0  0  0
 62 74  1  0  0  0  0
 64 66  1  0  0  0  0
M  CHG  1  74   1
M  ISO  4  37 101  43 100  71 100  81 101
M  END
> <Batch ID>
0117

> <Smiles>
C=Cc1cc([100NH:0][100C:0](=O)N2CCCC(n3nc(-c4ccc(Oc5ccc(F)cc5F)cc4)c(C(N)=O)c3N)C2)c(F)cc1C(=N)C=[101CH:1][101O:1]c1ccc2c(c1)CN(C(=O)C(NC(=O)C(C)NC)C(C)(C)C)C(C(=O)NC1CCCc3ccccc31)C2

> <Shape>
0.233

> <Color>
0.071

> <Negative vol penalty>
0.000

$$$$

  -OEChem-04052301463D

 84 92  0     1  0  0  0  0  0999 V2000
  -26.2117  -37.9886   22.0821 C   0  0  0  0  0  0  0  0  0  0  0  0
  -26.9517  -36.8890   21.6595 C   0  0  0  0  0  0  0  0  0  0  0  0
  -23.8251   -9.5674   21.6790 C   0  0  0  0  0  0  0  0  0  0  0  0
  -24.2483  -10.8112   23.7066 C   0  0  0  0  0  0  0  0  0  0  0  0
  -25.2377  -37.8348   23.0679 C   0  0  0  0  0  0  0  0  0  0  0  0
  -26.7189  -35.6350   22.2233 C   0  0  0  0  0  0  0  0  0  0  0  0
  -27.0717  -30.2089   19.4058 C   0  0  0  0  0  0  0  0  0  0  0  0
  -23.3031   -8.5163   22.4328 C   0  0  0  0  0  0  0  0  0  0  0  0
  -23.7262   -9.7601   24.4603 C   0  0  0  0  0  0  0  0  0  0  0  0
  -28.0721  -29.2388   19.3604 C   0  0  0  0  0  0  0  0  0  0  0  0
  -20.4075   -7.7863   24.0188 C   0  0  0  0  0  0  0  0  0  0  0  0
  -19.2155   -7.2065   23.5843 C   0  0  0  0  0  0  0  0  0  0  0  0
  -28.5122  -20.5458   20.3105 C   0  0  0  0  0  0  0  0  0  0  0  0
  -26.9793  -28.0372   21.1440 C   0  0  0  0  0  0  0  0  0  0  0  0
  -20.3317   -5.0749   23.3665 C   0  0  0  0  0  0  0  0  0  0  0  0
  -30.7010  -20.0986   19.4948 C   0  0  0  0  0  0  0  0  0  0  0  0
  -24.2978  -10.7149   22.3159 C   0  0  0  0  0  0  0  0  0  0  0  0
  -29.7104  -21.0213   19.7895 C   0  0  0  0  0  0  0  0  0  0  0  0
  -24.1346  -12.9004   21.0103 C   0  0  0  0  0  0  0  0  0  0  0  0
  -24.9862  -36.5765   23.6371 C   0  0  0  0  0  0  0  0  0  0  0  0
  -26.0217  -30.1059   20.3295 C   0  0  0  0  0  0  0  0  0  0  0  0
  -25.7416  -35.4645   23.2185 C   0  0  0  0  0  0  0  0  0  0  0  0
  -25.9655  -29.0059   21.1973 C   0  0  0  0  0  0  0  0  0  0  0  0
  -23.2536   -8.6126   23.8234 C   0  0  0  0  0  0  0  0  0  0  0  0
  -28.0275  -28.1543   20.2315 C   0  0  0  0  0  0  0  0  0  0  0  0
  -21.5616   -7.0103   24.1270 C   0  0  0  0  0  0  0  0  0  0  0  0
  -28.3436  -19.1813   20.5180 C   0  0  0  0  0  0  0  0  0  0  0  0
  -19.1776   -5.8509   23.2582 C   0  0  0  0  0  0  0  0  0  0  0  0
  -21.5236   -5.6547   23.8009 C   0  0  0  0  0  0  0  0  0  0  0  0
  -24.8377  -11.8008   21.5379 C   0  0  0  0  0  0  0  0  0  0  0  0
  -29.3954  -18.3409   20.1904 C   0  0  0  0  0  0  0  0  0  0  0  0
  -25.0915  -13.6391   20.3584 C   0  0  0  0  0  0  0  0  0  0  0  0
  -29.9208  -22.4615   19.5586 C   0  0  0  0  0  0  0  0  0  0  0  0
  -29.2134  -23.4375   20.1445 C   0  0  0  0  0  0  0  0  0  0  0  0
  -22.7410  -13.2250   21.1015 C   0  0  0  0  0  0  0  0  0  0  0  0
  -29.4995  -24.8685   19.8346 C   0  0  0  0  0  0  0  0  0  0  0  0
  -24.9911  -31.8757   22.7605 C   0  0  0  0  0  0  0  0  0  0  0  0
  -22.5629  -29.7250   22.7890 C   0  0  0  0  0  0  0  0  0  0  0  0
  -21.4573  -26.5930   22.0047 C   0  0  0  0  0  0  0  0  0  0  0  0
  -30.1571  -15.9401   20.1395 C   0  0  0  0  0  0  0  0  0  0  0  0
  -23.9559  -36.4685   24.7333 C   0  0  0  0  0  0  0  0  0  0  0  0
  -24.9360  -31.1467   20.3477 C   0  0  0  0  0  0  0  0  0  0  0  0
  -24.8487  -28.8384   22.1939 C   0  0  0  0  0  0  0  0  0  0  0  0
  -23.5121  -35.0349   25.0129 C   0  0  0  0  0  0  0  0  0  0  0  0
  -29.8875  -12.5193   19.1895 C   0  0  0  0  0  0  0  0  0  0  0  0
  -24.7218  -34.1107   25.1087 C   0  0  0  0  0  0  0  0  0  0  0  0
  -28.4918  -12.1179   19.6724 C   0  0  0  0  0  0  0  0  0  0  0  0
  -30.5650  -13.4889   20.1563 C   0  0  0  0  0  0  0  0  0  0  0  0
  -28.3809  -14.2793   20.9774 C   0  0  0  0  0  0  0  0  0  0  0  0
  -25.5012  -34.0834   23.7884 C   0  0  1  0  0  0  0  0  0  0  0  0
  -24.1907  -31.2096   21.6773 C   0  0  1  0  0  0  0  0  0  0  0  0
  -27.6329  -13.3541   20.0036 C   0  0  2  0  0  0  0  0  0  0  0  0
  -19.4385  -25.1136   22.1867 C   0  0  0  0  0  0  0  0  0  0  0  0
  -23.1606  -29.2775   25.7475 C   0  0  0  0  0  0  0  0  0  0  0  0
  -21.8063  -27.1750   25.6314 C   0  0  0  0  0  0  0  0  0  0  0  0
  -20.7274  -29.3780   25.1783 C   0  0  0  0  0  0  0  0  0  0  0  0
  -21.2346  -26.3390   19.0645 C   0  0  0  0  0  0  0  0  0  0  0  0
  -26.1623  -19.6761   21.3259 C   0  0  0  0  0  0  0  0  0  0  0  0
  -28.6342  -25.8781   20.5588 C   0  0  0  0  0  0  0  0  0  1  0  0
  -22.3154  -28.4010   23.4707 C   0  0  1  0  0  0  0  0  0  0  0  0
  -20.1890  -26.1142   21.3216 C   0  0  2  0  0  0  0  0  0  0  0  0
  -22.0246  -28.5617   24.9896 C   0  0  0  0  0  0  0  0  0  0  0  0
  -30.5740  -18.7658   19.6825 N   0  0  0  0  0  0  0  0  0  0  0  0
  -26.1407  -11.8340   21.2462 N   0  0  0  0  0  0  0  0  0  0  0  0
  -26.2639  -12.9633   20.5282 N   0  0  0  0  0  0  0  0  0  0  0  0
  -23.8142  -29.8857   22.1773 N   0  0  0  0  0  0  0  0  0  0  0  0
  -29.6947  -14.6370   20.4201 N   0  0  0  0  0  0  0  0  0  0  0  0
  -25.0360  -14.7944   19.6621 N   0  0  0  0  0  0  0  0  0  0  0  0
  -21.8977  -12.3573   21.8088 N   0  0  0  0  0  0  0  0  0  0  0  0
  -29.2306  -16.9492   20.4001 N   0  0  0  0  0  0  0  0  0  0  0  0
  -24.8259  -33.2463   22.8201 N   0  0  0  0  0  0  0  0  0  0  0  0
  -21.2447  -27.7507   22.7229 N   0  0  0  0  0  0  0  0  0  0  0  0
  -20.5153  -25.4607   20.0226 N   0  3  0  0  0  0  0  0  0  0  0  0
  -22.2550  -14.2455   20.5574 O   0  0  0  0  0  0  0  0  0  0  0  0
  -30.3789  -25.2017   19.0449 O   0  0  0  0  0  0  0  0  0  0  0  0
  -25.7045  -31.1962   23.4892 O   0  0  0  0  0  0  0  0  0  0  0  0
  -21.6759  -30.5823   22.7928 O   0  0  0  0  0  0  0  0  0  0  0  0
  -22.5285  -25.9975   21.9135 O   0  0  0  0  0  0  0  0  0  0  0  0
  -31.2816  -16.1437   19.6747 O   0  0  0  0  0  0  0  0  0  0  0  0
  -22.7440   -7.5872   24.5592 O   0  0  0  0  0  0  0  0  0  0  0  0
  -27.1741  -18.7138   21.0267 O   0  0  0  0  0  0  0  0  0  0  0  0
  -29.0030  -27.2064   20.1898 O   0  0  0  0  0  0  0  0  0  1  0  0
  -18.0325   -5.2939   22.8426 F   0  0  0  0  0  0  0  0  0  0  0  0
  -22.6289   -4.9039   23.9041 F   0  0  0  0  0  0  0  0  0  0  0  0
  1  2  1  0  0  0  0
  1  5  2  0  0  0  0
  2  6  2  0  0  0  0
  3  8  2  0  0  0  0
  3 17  1  0  0  0  0
  4  9  1  0  0  0  0
  4 17  2  0  0  0  0
  5 20  1  0  0  0  0
  6 22  1  0  0  0  0
  7 10  2  0  0  0  0
  7 21  1  0  0  0  0
  8 24  1  0  0  0  0
  9 24  2  0  0  0  0
 10 25  1  0  0  0  0
 11 12  2  0  0  0  0
 11 26  1  0  0  0  0
 12 28  1  0  0  0  0
 13 18  2  0  0  0  0
 13 27  1  0  0  0  0
 14 23  1  0  0  0  0
 14 25  2  0  0  0  0
 15 28  2  0  0  0  0
 15 29  1  0  0  0  0
 16 18  1  0  0  0  0
 16 63  2  0  0  0  0
 17 30  1  0  0  0  0
 18 33  1  0  0  0  0
 19 30  1  0  0  0  0
 19 32  2  0  0  0  0
 19 35  1  0  0  0  0
 20 22  2  0  0  0  0
 20 41  1  0  0  0  0
 21 23  2  0  0  0  0
 21 42  1  0  0  0  0
 22 50  1  0  0  0  0
 23 43  1  0  0  0  0
 24 80  1  0  0  0  0
 25 82  1  0  0  0  0
 26 29  2  0  0  0  0
 26 80  1  0  0  0  0
 27 31  2  0  0  0  0
 27 81  1  0  0  0  0
 28 83  1  0  0  0  0
 29 84  1  0  0  0  0
 30 64  2  0  0  0  0
 31 63  1  0  0  0  0
 31 70  1  0  0  0  0
 32 65  1  0  0  0  0
 32 68  1  0  0  0  0
 33 34  2  0  0  0  0
 34 36  1  0  0  0  0
 35 69  1  0  0  0  0
 35 74  2  0  0  0  0
 36 59  1  0  0  0  0
 36 75  2  0  0  0  0
 37 51  1  0  0  0  0
 37 71  1  0  0  0  0
 37 76  2  0  0  0  0
 38 60  1  0  0  0  0
 38 66  1  0  0  0  0
 38 77  2  0  0  0  0
 39 61  1  0  0  0  0
 39 72  1  0  0  0  0
 39 78  2  0  0  0  0
 40 67  1  0  0  0  0
 40 70  1  0  0  0  0
 40 79  2  0  0  0  0
 41 44  1  0  0  0  0
 42 51  1  0  0  0  0
 43 66  1  0  0  0  0
 44 46  1  0  0  0  0
 45 47  1  0  0  0  0
 45 48  1  0  0  0  0
 46 50  1  0  0  0  0
 47 52  1  0  0  0  0
 48 67  1  0  0  0  0
 49 52  1  0  0  0  0
 49 67  1  0  0  0  0
 50 71  1  0  0  0  0
 51 66  1  0  0  0  0
 52 65  1  0  0  0  0
 53 61  1  0  0  0  0
 54 62  1  0  0  0  0
 55 62  1  0  0  0  0
 56 62  1  0  0  0  0
 57 73  1  0  0  0  0
 58 81  1  0  0  0  0
 59 82  1  0  0  0  0
 60 62  1  0  0  0  0
 60 72  1  0  0  0  0
 61 73  1  0  0  0  0
 64 65  1  0  0  0  0
M  CHG  1  73   1
M  ISO  4  40 100  59 101  70 100  82 101
M  END
> <Batch ID>
0117

> <Smiles>
CNC(C)C(=O)NC(C(=O)N1Cc2cc([101O:1][101CH2:1]C(=O)C=Cc3cnc([100NH:0][100C:0](=O)N4CCCC(n5nc(-c6ccc(Oc7ccc(F)cc7F)cc6)c(C(N)=O)c5N)C4)c(OC)c3)ccc2CC1C(=O)NC1CCCc2ccccc21)C(C)(C)C

> <Shape>
0.385

> <Color>
0.150

> <Negative vol penalty>
0.000

$$$$

  -OEChem-04052301463D

 84 92  0     1  0  0  0  0  0999 V2000
  -23.7876   -6.9619   24.4302 C   0  0  0  0  0  0  0  0  0  0  0  0
  -24.9706   -7.6906   24.3598 C   0  0  0  0  0  0  0  0  0  0  0  0
  -25.5259  -29.5719   21.7540 C   0  0  0  0  0  0  0  0  0  0  0  0
  -23.9109  -30.0846   20.0318 C   0  0  0  0  0  0  0  0  0  0  0  0
  -22.8035   -7.1370   23.4582 C   0  0  0  0  0  0  0  0  0  0  0  0
  -25.1706   -8.5940   23.3166 C   0  0  0  0  0  0  0  0  0  0  0  0
  -28.1746  -13.9240   23.5874 C   0  0  0  0  0  0  0  0  0  0  0  0
  -25.3750  -30.8559   22.2777 C   0  0  0  0  0  0  0  0  0  0  0  0
  -23.7600  -31.3686   20.5555 C   0  0  0  0  0  0  0  0  0  0  0  0
  -29.4730  -14.2880   23.2333 C   0  0  0  0  0  0  0  0  0  0  0  0
  -23.1563  -32.5084   24.2217 C   0  0  0  0  0  0  0  0  0  0  0  0
  -23.0252  -32.6332   25.6047 C   0  0  0  0  0  0  0  0  0  0  0  0
  -27.9796  -20.6574   21.0215 C   0  0  0  0  0  0  0  0  0  0  0  0
  -28.6671  -15.0590   21.0943 C   0  0  0  0  0  0  0  0  0  0  0  0
  -25.0138  -34.0037   25.6696 C   0  0  0  0  0  0  0  0  0  0  0  0
  -24.7938  -29.1863   20.6310 C   0  0  0  0  0  0  0  0  0  0  0  0
  -28.1475  -19.6378   21.9886 C   0  0  0  0  0  0  0  0  0  0  0  0
  -24.2160  -26.7094   20.4343 C   0  0  0  0  0  0  0  0  0  0  0  0
  -22.9875   -8.0500   22.4079 C   0  0  0  0  0  0  0  0  0  0  0  0
  -27.1126  -14.1151   22.6919 C   0  0  0  0  0  0  0  0  0  0  0  0
  -24.1886   -8.7804   22.3288 C   0  0  0  0  0  0  0  0  0  0  0  0
  -27.3557  -14.6990   21.4405 C   0  0  0  0  0  0  0  0  0  0  0  0
  -24.4921  -31.7542   21.6784 C   0  0  0  0  0  0  0  0  0  0  0  0
  -29.7199  -14.8529   21.9855 C   0  0  0  0  0  0  0  0  0  0  0  0
  -24.2162  -33.1313   23.5625 C   0  0  0  0  0  0  0  0  0  0  0  0
  -23.9539  -33.3808   26.3287 C   0  0  0  0  0  0  0  0  0  0  0  0
  -25.1449  -33.8789   24.2865 C   0  0  0  0  0  0  0  0  0  0  0  0
  -24.9496  -27.8603   20.0892 C   0  0  0  0  0  0  0  0  0  0  0  0
  -29.1133  -20.6358   20.2429 C   0  0  0  0  0  0  0  0  0  0  0  0
  -24.7424  -25.7169   19.6441 C   0  0  0  0  0  0  0  0  0  0  0  0
  -29.3718  -19.0657   21.7319 C   0  0  0  0  0  0  0  0  0  0  0  0
  -27.2536  -19.2684   23.0153 C   0  0  0  0  0  0  0  0  0  0  0  0
  -29.5180  -21.4534   19.0854 C   0  0  0  0  0  0  0  0  0  0  0  0
  -27.0749  -18.0135   23.5574 C   0  0  0  0  0  0  0  0  0  0  0  0
  -23.1537  -26.5515   21.3842 C   0  0  0  0  0  0  0  0  0  0  0  0
  -25.0470  -12.1990   21.2201 C   0  0  0  0  0  0  0  0  0  0  0  0
  -23.7326  -15.0026   20.2535 C   0  0  0  0  0  0  0  0  0  0  0  0
  -24.1443  -18.3323   19.6283 C   0  0  0  0  0  0  0  0  0  0  0  0
  -29.2045  -23.1165   17.5275 C   0  0  0  0  0  0  0  0  0  0  0  0
  -21.9151   -8.1703   21.3543 C   0  0  0  0  0  0  0  0  0  0  0  0
  -25.7136  -13.7418   23.0994 C   0  0  0  0  0  0  0  0  0  0  0  0
  -26.2471  -14.9439   20.4508 C   0  0  0  0  0  0  0  0  0  0  0  0
  -22.0480   -9.4216   20.4900 C   0  0  0  0  0  0  0  0  0  0  0  0
  -27.9067  -25.9505   15.7138 C   0  0  0  0  0  0  0  0  0  0  0  0
  -23.4911   -9.6019   20.0301 C   0  0  0  0  0  0  0  0  0  0  0  0
  -26.9883  -26.6240   16.7334 C   0  0  0  0  0  0  0  0  0  0  0  0
  -29.1300  -25.3326   16.3844 C   0  0  0  0  0  0  0  0  0  0  0  0
  -27.8768  -25.0451   18.5047 C   0  0  0  0  0  0  0  0  0  0  0  0
  -24.4323   -9.7881   21.2264 C   0  0  1  0  0  0  0  0  0  0  0  0
  -24.7871  -13.5083   21.9101 C   0  0  1  0  0  0  0  0  0  0  0  0
  -26.6154  -25.6530   17.8678 C   0  0  1  0  0  0  0  0  0  0  0  0
  -26.1065  -17.6659   24.6410 C   0  0  0  0  0  0  0  0  0  0  0  0
  -23.5062  -20.6886   19.0469 C   0  0  0  0  0  0  0  0  0  0  0  0
  -33.1256  -15.8630   22.4517 C   0  0  0  0  0  0  0  0  0  0  0  0
  -23.9339  -13.9658   17.3909 C   0  0  0  0  0  0  0  0  0  0  0  0
  -23.5892  -16.3129   16.5906 C   0  0  0  0  0  0  0  0  0  0  0  0
  -21.8083  -15.1747   17.9156 C   0  0  0  0  0  0  0  0  0  0  0  0
  -23.5595  -18.9940   22.4530 C   0  0  0  0  0  0  0  0  0  0  0  0
  -31.3670  -17.5775   21.9051 C   0  0  0  0  0  0  0  0  0  0  0  0
  -23.9272  -15.9240   19.0736 C   0  0  1  0  0  0  0  0  0  0  0  0
  -23.3187  -19.5418   20.0280 C   0  0  2  0  0  0  0  0  0  0  0  0
  -31.6370  -16.1792   22.4559 C   0  0  1  0  0  0  0  0  0  1  0  0
  -23.3360  -15.3381   17.7603 C   0  0  0  0  0  0  0  0  0  0  0  0
  -25.8719  -27.6223   19.1529 N   0  0  0  0  0  0  0  0  0  0  0  0
  -28.7610  -22.3906   18.6165 N   0  0  0  0  0  0  0  0  0  0  0  0
  -25.7214  -26.3105   18.9029 N   0  0  0  0  0  0  0  0  0  0  0  0
  -24.8975  -14.5561   20.8933 N   0  0  0  0  0  0  0  0  0  0  0  0
  -28.7372  -24.4427   17.4778 N   0  0  0  0  0  0  0  0  0  0  0  0
  -24.4588  -24.4031   19.5180 N   0  0  0  0  0  0  0  0  0  0  0  0
  -22.7355  -27.6742   22.1115 N   0  0  0  0  0  0  0  0  0  0  0  0
  -30.0662  -18.0332   22.3400 N   0  0  0  0  0  0  0  0  0  0  0  0
  -24.3338  -11.1368   21.7419 N   0  0  0  0  0  0  0  0  0  0  0  0
  -23.3597  -17.2106   19.4625 N   0  0  0  0  0  0  0  0  0  0  0  0
  -23.7154  -20.0143   21.3846 N   0  3  0  0  0  0  0  0  0  0  0  0
  -22.6030  -25.4441   21.5938 O   0  0  0  0  0  0  0  0  0  0  0  0
  -25.8352  -12.1561   20.2828 O   0  0  0  0  0  0  0  0  0  0  0  0
  -22.5888  -14.6963   20.5994 O   0  0  0  0  0  0  0  0  0  0  0  0
  -25.3628  -18.3787   19.4747 O   0  0  0  0  0  0  0  0  0  0  0  0
  -29.9540  -22.6641   16.6588 O   0  0  0  0  0  0  0  0  0  0  0  0
  -29.9669  -19.6683   20.6692 O   0  0  0  0  0  0  0  0  0  0  0  0
  -24.3445  -33.0071   22.1893 O   0  0  0  0  0  0  0  0  0  0  0  0
  -30.9864  -15.2084   21.6370 O   0  0  0  0  0  0  0  0  0  1  0  0
  -23.8270  -33.5018   27.6566 F   0  0  0  0  0  0  0  0  0  0  0  0
  -26.1645  -34.4806   23.6587 F   0  0  0  0  0  0  0  0  0  0  0  0
  1  2  1  0  0  0  0
  1  5  2  0  0  0  0
  2  6  2  0  0  0  0
  3  8  2  0  0  0  0
  3 16  1  0  0  0  0
  4  9  1  0  0  0  0
  4 16  2  0  0  0  0
  5 19  1  0  0  0  0
  6 21  1  0  0  0  0
  7 10  2  0  0  0  0
  7 20  1  0  0  0  0
  8 23  1  0  0  0  0
  9 23  2  0  0  0  0
 10 24  1  0  0  0  0
 11 12  2  0  0  0  0
 11 25  1  0  0  0  0
 12 26  1  0  0  0  0
 13 17  1  0  0  0  0
 13 29  2  0  0  0  0
 14 22  1  0  0  0  0
 14 24  2  0  0  0  0
 15 26  2  0  0  0  0
 15 27  1  0  0  0  0
 16 28  1  0  0  0  0
 17 31  2  0  0  0  0
 17 32  1  0  0  0  0
 18 28  1  0  0  0  0
 18 30  2  0  0  0  0
 18 35  1  0  0  0  0
 19 21  2  0  0  0  0
 19 40  1  0  0  0  0
 20 22  2  0  0  0  0
 20 41  1  0  0  0  0
 21 49  1  0  0  0  0
 22 42  1  0  0  0  0
 23 81  1  0  0  0  0
 24 82  1  0  0  0  0
 25 27  2  0  0  0  0
 25 81  1  0  0  0  0
 26 83  1  0  0  0  0
 27 84  1  0  0  0  0
 28 64  2  0  0  0  0
 29 33  1  0  0  0  0
 29 80  1  0  0  0  0
 30 66  1  0  0  0  0
 30 69  1  0  0  0  0
 31 71  1  0  0  0  0
 31 80  1  0  0  0  0
 32 34  2  0  0  0  0
 33 65  2  0  0  0  0
 34 52  1  0  0  0  0
 35 70  1  0  0  0  0
 35 75  2  0  0  0  0
 36 50  1  0  0  0  0
 36 72  1  0  0  0  0
 36 76  2  0  0  0  0
 37 60  1  0  0  0  0
 37 67  1  0  0  0  0
 37 77  2  0  0  0  0
 38 61  1  0  0  0  0
 38 73  1  0  0  0  0
 38 78  2  0  0  0  0
 39 65  1  0  0  0  0
 39 68  1  0  0  0  0
 39 79  2  0  0  0  0
 40 43  1  0  0  0  0
 41 50  1  0  0  0  0
 42 67  1  0  0  0  0
 43 45  1  0  0  0  0
 44 46  1  0  0  0  0
 44 47  1  0  0  0  0
 45 49  1  0  0  0  0
 46 51  1  0  0  0  0
 47 68  1  0  0  0  0
 48 51  1  0  0  0  0
 48 68  1  0  0  0  0
 49 72  1  0  0  0  0
 50 67  1  0  0  0  0
 51 66  1  0  0  0  0
 53 61  1  0  0  0  0
 54 62  1  0  0  0  0
 55 63  1  0  0  0  0
 56 63  1  0  0  0  0
 57 63  1  0  0  0  0
 58 74  1  0  0  0  0
 59 62  1  0  0  0  0
 59 71  1  0  0  0  0
 60 63  1  0  0  0  0
 60 73  1  0  0  0  0
 61 74  1  0  0  0  0
 62 82  1  0  0  0  0
 64 66  1  0  0  0  0
M  CHG  1  74   1
M  ISO  4  39 100  62 101  65 100  82 101
M  END
> <Batch ID>
0117

> <Smiles>
CC=Cc1cc(C=[100N:0][100C:0](=O)N2CCCC(n3nc(-c4ccc(Oc5ccc(F)cc5F)cc4)c(C(N)=O)c3N)C2)oc1NC[101CH:1](C)[101O:1]c1ccc2c(c1)CN(C(=O)C(NC(=O)C(C)NC)C(C)(C)C)C(C(=O)NC1CCCc3ccccc31)C2

> <Shape>
0.249

> <Color>
0.083

> <Negative vol penalty>
0.000

$$$$

  -OEChem-04052301463D

 87 95  0     1  0  0  0  0  0999 V2000
  -32.0107  -32.7056   15.8028 C   0  0  0  0  0  0  0  0  0  0  0  0
  -31.7262  -31.3438   15.7958 C   0  0  0  0  0  0  0  0  0  0  0  0
  -24.1631  -15.4365   23.1617 C   0  0  0  0  0  0  0  0  0  0  0  0
  -23.3680  -15.9282   20.9339 C   0  0  0  0  0  0  0  0  0  0  0  0
  -31.8319  -33.4479   16.9694 C   0  0  0  0  0  0  0  0  0  0  0  0
  -31.2637  -30.7233   16.9557 C   0  0  0  0  0  0  0  0  0  0  0  0
  -26.9407  -25.4349   19.1145 C   0  0  0  0  0  0  0  0  0  0  0  0
  -23.4907  -16.5571   23.6491 C   0  0  0  0  0  0  0  0  0  0  0  0
  -22.6955  -17.0488   21.4213 C   0  0  0  0  0  0  0  0  0  0  0  0
  -26.9469  -24.3034   19.9290 C   0  0  0  0  0  0  0  0  0  0  0  0
  -21.0646  -20.2419   22.0165 C   0  0  0  0  0  0  0  0  0  0  0  0
  -21.1721  -21.4287   21.2916 C   0  0  0  0  0  0  0  0  0  0  0  0
  -32.8549  -18.4925   24.1856 C   0  0  0  0  0  0  0  0  0  0  0  0
  -30.6631  -17.8482   22.5845 C   0  0  0  0  0  0  0  0  0  0  0  0
  -26.6004  -25.7018   21.8639 C   0  0  0  0  0  0  0  0  0  0  0  0
  -23.5677  -21.4024   21.6037 C   0  0  0  0  0  0  0  0  0  0  0  0
  -24.1018  -15.1220   21.8041 C   0  0  0  0  0  0  0  0  0  0  0  0
  -32.9508  -17.4571   23.2559 C   0  0  0  0  0  0  0  0  0  0  0  0
  -31.8549  -17.1350   22.4553 C   0  0  0  0  0  0  0  0  0  0  0  0
  -24.2958  -12.6538   21.1892 C   0  0  0  0  0  0  0  0  0  0  0  0
  -31.3578  -32.8382   18.1416 C   0  0  0  0  0  0  0  0  0  0  0  0
  -26.7750  -26.7114   19.6707 C   0  0  0  0  0  0  0  0  0  0  0  0
  -31.0797  -31.4579   18.1395 C   0  0  0  0  0  0  0  0  0  0  0  0
  -26.5900  -26.8477   21.0539 C   0  0  0  0  0  0  0  0  0  0  0  0
  -22.7568  -17.3633   22.7789 C   0  0  0  0  0  0  0  0  0  0  0  0
  -26.7796  -24.4370   21.3043 C   0  0  0  0  0  0  0  0  0  0  0  0
  -22.2087  -19.6354   22.5352 C   0  0  0  0  0  0  0  0  0  0  0  0
  -31.6631  -19.2058   24.3148 C   0  0  0  0  0  0  0  0  0  0  0  0
  -30.5672  -18.8836   23.5143 C   0  0  0  0  0  0  0  0  0  0  0  0
  -22.4236  -22.0089   21.0851 C   0  0  0  0  0  0  0  0  0  0  0  0
  -23.4602  -20.2156   22.3288 C   0  0  0  0  0  0  0  0  0  0  0  0
  -24.7967  -13.9648   21.2999 C   0  0  0  0  0  0  0  0  0  0  0  0
  -25.3367  -11.9324   20.6575 C   0  0  0  0  0  0  0  0  0  0  0  0
  -35.3695  -17.3238   22.8721 C   0  0  0  0  0  0  0  0  0  0  0  0
  -34.2162  -16.7388   23.1550 C   0  0  0  0  0  0  0  0  0  0  0  0
  -31.9099  -16.0612   21.4697 C   0  0  0  0  0  0  0  0  0  0  0  0
  -31.1042  -14.9811   21.4484 C   0  0  0  0  0  0  0  0  0  0  0  0
  -23.0051  -12.1346   21.5357 C   0  0  0  0  0  0  0  0  0  0  0  0
  -31.2785  -13.9809   20.3738 C   0  0  0  0  0  0  0  0  0  0  0  0
  -28.5483  -29.3459   19.8080 C   0  0  0  0  0  0  0  0  0  0  0  0
  -25.8786  -30.6043   21.1539 C   0  0  0  0  0  0  0  0  0  0  0  0
  -22.9704  -30.0777   22.8603 C   0  0  0  0  0  0  0  0  0  0  0  0
  -31.2254  -33.6722   19.3912 C   0  0  0  0  0  0  0  0  0  0  0  0
  -26.7440  -27.9197   18.7754 C   0  0  0  0  0  0  0  0  0  0  0  0
  -26.3880  -28.1940   21.6982 C   0  0  0  0  0  0  0  0  0  0  0  0
  -30.3751  -33.0146   20.4751 C   0  0  0  0  0  0  0  0  0  0  0  0
  -29.1954  -12.4379   17.8368 C   0  0  0  0  0  0  0  0  0  0  0  0
  -30.7793  -31.5552   20.6586 C   0  0  0  0  0  0  0  0  0  0  0  0
  -27.7903  -12.6669   18.4025 C   0  0  0  0  0  0  0  0  0  0  0  0
  -30.2716  -12.2757   18.9056 C   0  0  0  0  0  0  0  0  0  0  0  0
  -28.8161  -13.4247   20.5785 C   0  0  0  0  0  0  0  0  0  0  0  0
  -30.5526  -30.7539   19.3710 C   0  0  1  0  0  0  0  0  0  0  0  0
  -27.0819  -29.2147   19.5076 C   0  0  1  0  0  0  0  0  0  0  0  0
  -27.7413  -12.5347   19.9316 C   0  0  1  0  0  0  0  0  0  0  0  0
  -31.8382  -22.5679   25.5874 C   0  0  0  0  0  0  0  0  0  0  0  0
  -21.0180  -31.3041   23.8511 C   0  0  0  0  0  0  0  0  0  0  0  0
  -27.6286  -31.5001   23.4873 C   0  0  0  0  0  0  0  0  0  0  0  0
  -25.5429  -31.8445   24.8287 C   0  0  0  0  0  0  0  0  0  0  0  0
  -25.9254  -33.1790   22.7561 C   0  0  0  0  0  0  0  0  0  0  0  0
  -21.0467  -28.6673   21.1084 C   0  0  0  0  0  0  0  0  0  0  0  0
  -28.0976  -21.4637   22.8776 C   0  0  0  0  0  0  0  0  0  0  0  0
  -32.4905  -21.3033   25.0709 C   0  0  0  0  0  0  0  0  0  0  0  0
  -27.5735  -22.2252   21.6703 C   0  0  0  0  0  0  0  0  0  1  0  0
  -28.9292  -20.2569   22.4719 C   0  0  0  0  0  0  0  0  0  0  0  0
  -25.3463  -30.7256   22.5614 C   0  0  1  0  0  0  0  0  0  0  0  0
  -21.5588  -30.5844   22.6254 C   0  0  2  0  0  0  0  0  0  0  0  0
  -26.1165  -31.7870   23.3968 C   0  0  0  0  0  0  0  0  0  0  0  0
  -26.0577  -14.0728   20.8732 N   0  0  0  0  0  0  0  0  0  0  0  0
  -26.3581  -12.8205   20.4891 N   0  0  0  0  0  0  0  0  0  0  0  0
  -30.1457  -13.2749   19.9667 N   0  0  0  0  0  0  0  0  0  0  0  0
  -26.3717  -29.3458   20.7813 N   0  0  0  0  0  0  0  0  0  0  0  0
  -25.4688  -10.6314   20.3225 N   0  0  0  0  0  0  0  0  0  0  0  0
  -22.0530  -13.0133   22.0703 N   0  0  0  0  0  0  0  0  0  0  0  0
  -29.1491  -30.4385   19.2125 N   0  0  0  0  0  0  0  0  0  0  0  0
  -23.9165  -30.9866   22.4360 N   0  0  0  0  0  0  0  0  0  0  0  0
  -20.6473  -29.4492   22.3068 N   0  3  0  0  0  0  0  0  0  0  0  0
  -22.7104  -10.9239   21.3914 O   0  0  0  0  0  0  0  0  0  0  0  0
  -32.4076  -13.8325   19.9047 O   0  0  0  0  0  0  0  0  0  0  0  0
  -29.0939  -28.5179   20.5282 O   0  0  0  0  0  0  0  0  0  0  0  0
  -25.8511  -31.5879   20.4101 O   0  0  0  0  0  0  0  0  0  0  0  0
  -23.2098  -28.9865   23.3726 O   0  0  0  0  0  0  0  0  0  0  0  0
  -22.1004  -18.4568   23.2541 O   0  0  0  0  0  0  0  0  0  0  0  0
  -26.7859  -23.3343   22.1017 O   0  0  0  0  0  0  0  0  0  1  0  0
  -31.5818  -20.2150   25.2262 O   0  0  0  0  0  0  0  0  0  0  0  0
  -29.3911  -19.5775   23.6316 O   0  0  0  0  0  0  0  0  0  0  0  0
  -22.5269  -23.1477   20.3876 F   0  0  0  0  0  0  0  0  0  0  0  0
  -24.5630  -19.6370   22.8236 F   0  0  0  0  0  0  0  0  0  0  0  0
  1  2  1  0  0  0  0
  1  5  2  0  0  0  0
  2  6  2  0  0  0  0
  3  8  2  0  0  0  0
  3 17  1  0  0  0  0
  4  9  1  0  0  0  0
  4 17  2  0  0  0  0
  5 21  1  0  0  0  0
  6 23  1  0  0  0  0
  7 10  2  0  0  0  0
  7 22  1  0  0  0  0
  8 25  1  0  0  0  0
  9 25  2  0  0  0  0
 10 26  1  0  0  0  0
 11 12  2  0  0  0  0
 11 27  1  0  0  0  0
 12 30  1  0  0  0  0
 13 18  1  0  0  0  0
 13 28  2  0  0  0  0
 14 19  1  0  0  0  0
 14 29  2  0  0  0  0
 15 24  1  0  0  0  0
 15 26  2  0  0  0  0
 16 30  2  0  0  0  0
 16 31  1  0  0  0  0
 17 32  1  0  0  0  0
 18 19  2  0  0  0  0
 18 35  1  0  0  0  0
 19 36  1  0  0  0  0
 20 32  1  0  0  0  0
 20 33  2  0  0  0  0
 20 38  1  0  0  0  0
 21 23  2  0  0  0  0
 21 43  1  0  0  0  0
 22 24  2  0  0  0  0
 22 44  1  0  0  0  0
 23 52  1  0  0  0  0
 24 45  1  0  0  0  0
 25 82  1  0  0  0  0
 26 83  1  0  0  0  0
 27 31  2  0  0  0  0
 27 82  1  0  0  0  0
 28 29  1  0  0  0  0
 28 84  1  0  0  0  0
 29 85  1  0  0  0  0
 30 86  1  0  0  0  0
 31 87  1  0  0  0  0
 32 68  2  0  0  0  0
 33 69  1  0  0  0  0
 33 72  1  0  0  0  0
 34 35  2  0  0  0  0
 36 37  2  0  0  0  0
 37 39  1  0  0  0  0
 38 73  1  0  0  0  0
 38 77  2  0  0  0  0
 39 70  1  0  0  0  0
 39 78  2  0  0  0  0
 40 53  1  0  0  0  0
 40 74  1  0  0  0  0
 40 79  2  0  0  0  0
 41 65  1  0  0  0  0
 41 71  1  0  0  0  0
 41 80  2  0  0  0  0
 42 66  1  0  0  0  0
 42 75  1  0  0  0  0
 42 81  2  0  0  0  0
 43 46  1  0  0  0  0
 44 53  1  0  0  0  0
 45 71  1  0  0  0  0
 46 48  1  0  0  0  0
 47 49  1  0  0  0  0
 47 50  1  0  0  0  0
 48 52  1  0  0  0  0
 49 54  1  0  0  0  0
 50 70  1  0  0  0  0
 51 54  1  0  0  0  0
 51 70  1  0  0  0  0
 52 74  1  0  0  0  0
 53 71  1  0  0  0  0
 54 69  1  0  0  0  0
 55 62  1  0  0  0  0
 56 66  1  0  0  0  0
 57 67  1  0  0  0  0
 58 67  1  0  0  0  0
 59 67  1  0  0  0  0
 60 76  1  0  0  0  0
 61 63  1  0  0  0  0
 61 64  1  0  0  0  0
 62 84  1  0  0  0  0
 63 83  1  0  0  0  0
 64 85  1  0  0  0  0
 65 67  1  0  0  0  0
 65 75  1  0  0  0  0
 66 76  1  0  0  0  0
 68 69  1  0  0  0  0
M  CHG  1  76   1
M  ISO  4  37 100  39 100  63 101  83 101
M  END
> <Batch ID>
0117

> <Smiles>
C=Cc1cc(OCC)c(OCC[101CH2:1][101O:1]c2ccc3c(c2)CN(C(=O)C(NC(=O)C(C)NC)C(C)(C)C)C(C(=O)NC2CCCc4ccccc42)C3)cc1C=[100CH:0][100C:0](=O)N1CCCC(n2nc(-c3ccc(Oc4ccc(F)cc4F)cc3)c(C(N)=O)c2N)C1

> <Shape>
0.227

> <Color>
0.109

> <Negative vol penalty>
0.000

$$$$

  -OEChem-04052301463D

 82 90  0     1  0  0  0  0  0999 V2000
  -22.1744  -18.5435   26.0163 C   0  0  0  0  0  0  0  0  0  0  0  0
  -23.2804  -19.1039   25.3853 C   0  0  0  0  0  0  0  0  0  0  0  0
  -24.0126  -13.9261   20.9635 C   0  0  0  0  0  0  0  0  0  0  0  0
  -26.2825  -13.7531   20.1544 C   0  0  0  0  0  0  0  0  0  0  0  0
  -20.8911  -18.9778   25.6873 C   0  0  0  0  0  0  0  0  0  0  0  0
  -23.1034  -20.0984   24.4239 C   0  0  0  0  0  0  0  0  0  0  0  0
  -26.7777  -24.8796   23.3538 C   0  0  0  0  0  0  0  0  0  0  0  0
  -23.7810  -12.6003   20.5974 C   0  0  0  0  0  0  0  0  0  0  0  0
  -26.0509  -12.4272   19.7883 C   0  0  0  0  0  0  0  0  0  0  0  0
  -27.7743  -25.1028   22.4047 C   0  0  0  0  0  0  0  0  0  0  0  0
  -22.7012   -9.1512   20.2058 C   0  0  0  0  0  0  0  0  0  0  0  0
  -22.0334   -8.3339   21.1177 C   0  0  0  0  0  0  0  0  0  0  0  0
  -26.1775  -26.2489   21.0062 C   0  0  0  0  0  0  0  0  0  0  0  0
  -23.7890   -8.7043   22.7356 C   0  0  0  0  0  0  0  0  0  0  0  0
  -30.3307  -22.4952   20.3387 C   0  0  0  0  0  0  0  0  0  0  0  0
  -25.2634  -14.5026   20.7419 C   0  0  0  0  0  0  0  0  0  0  0  0
  -25.9805  -16.3418   22.3577 C   0  0  0  0  0  0  0  0  0  0  0  0
  -20.6989  -19.9849   24.7284 C   0  0  0  0  0  0  0  0  0  0  0  0
  -25.4688  -25.3307   23.1309 C   0  0  0  0  0  0  0  0  0  0  0  0
  -21.8162  -20.5457   24.0808 C   0  0  0  0  0  0  0  0  0  0  0  0
  -25.1667  -26.0324   21.9552 C   0  0  0  0  0  0  0  0  0  0  0  0
  -24.8001  -11.8508   20.0099 C   0  0  0  0  0  0  0  0  0  0  0  0
  -27.4737  -25.7850   21.2294 C   0  0  0  0  0  0  0  0  0  0  0  0
  -23.9131   -9.7451   20.5588 C   0  0  0  0  0  0  0  0  0  0  0  0
  -22.5772   -8.1104   22.3826 C   0  0  0  0  0  0  0  0  0  0  0  0
  -24.4569   -9.5216   21.8237 C   0  0  0  0  0  0  0  0  0  0  0  0
  -25.5030  -15.8723   21.1194 C   0  0  0  0  0  0  0  0  0  0  0  0
  -31.2179  -23.5009   20.0422 C   0  0  0  0  0  0  0  0  0  0  0  0
  -29.3578  -22.5737   19.3242 C   0  0  0  0  0  0  0  0  0  0  0  0
  -26.0329  -17.7064   22.2105 C   0  0  0  0  0  0  0  0  0  0  0  0
  -29.5423  -26.7259   20.6761 C   0  0  0  0  0  0  0  0  0  1  0  0
  -26.3441  -15.6098   23.5357 C   0  0  0  0  0  0  0  0  0  0  0  0
  -30.5717  -27.0156   19.8651 C   0  0  0  0  0  0  0  0  0  0  0  0
  -22.6325  -23.9268   22.8339 C   0  0  0  0  0  0  0  0  0  0  0  0
  -21.5577  -26.9870   22.7873 C   0  0  0  0  0  0  0  0  0  0  0  0
  -22.2162  -30.2800   22.1795 C   0  0  0  0  0  0  0  0  0  0  0  0
  -27.2362  -21.7380   18.2534 C   0  0  0  0  0  0  0  0  0  0  0  0
  -19.2901  -20.3883   24.3718 C   0  0  0  0  0  0  0  0  0  0  0  0
  -24.4113  -25.1054   24.1765 C   0  0  0  0  0  0  0  0  0  0  0  0
  -23.7817  -26.5550   21.6771 C   0  0  0  0  0  0  0  0  0  0  0  0
  -19.2087  -21.7105   23.6131 C   0  0  0  0  0  0  0  0  0  0  0  0
  -23.8838  -20.9690   19.1740 C   0  0  0  0  0  0  0  0  0  0  0  0
  -20.2422  -21.7470   22.4918 C   0  0  0  0  0  0  0  0  0  0  0  0
  -24.0045  -19.6223   19.8909 C   0  0  0  0  0  0  0  0  0  0  0  0
  -24.8548  -21.0752   17.9994 C   0  0  0  0  0  0  0  0  0  0  0  0
  -26.3788  -19.4452   19.0432 C   0  0  0  0  0  0  0  0  0  0  0  0
  -21.6664  -21.6441   23.0507 C   0  0  1  0  0  0  0  0  0  0  0  0
  -22.9941  -25.1588   23.6143 C   0  0  1  0  0  0  0  0  0  0  0  0
  -25.4659  -19.3166   20.2735 C   0  0  2  0  0  0  0  0  0  0  0  0
  -32.4517  -23.9359   20.7221 C   0  0  0  0  0  0  0  0  0  0  0  0
  -31.7365  -27.8223   20.3666 C   0  0  0  0  0  0  0  0  0  0  0  0
  -21.1288  -32.5416   22.1938 C   0  0  0  0  0  0  0  0  0  0  0  0
  -20.1257  -26.3123   20.1789 C   0  0  0  0  0  0  0  0  0  0  0  0
  -19.8728  -28.7682   19.7636 C   0  0  0  0  0  0  0  0  0  0  0  0
  -18.8012  -27.7259   21.7606 C   0  0  0  0  0  0  0  0  0  0  0  0
  -24.0951  -31.2987   24.2267 C   0  0  0  0  0  0  0  0  0  0  0  0
  -30.6196  -26.5895   18.4135 C   0  0  0  0  0  0  0  0  0  0  0  0
  -31.3533  -25.2625   18.1744 C   0  0  0  0  0  0  0  0  0  0  0  0
  -21.3121  -28.0176   21.7119 C   0  0  1  0  0  0  0  0  0  0  0  0
  -21.9354  -31.5303   22.9934 C   0  0  2  0  0  0  0  0  0  0  0  0
  -20.0537  -27.6946   20.8578 C   0  0  0  0  0  0  0  0  0  0  0  0
  -25.2687  -16.8585   20.2496 N   0  0  0  0  0  0  0  0  0  0  0  0
  -29.6035  -23.5521   18.4488 N   0  0  0  0  0  0  0  0  0  0  0  0
  -30.7408  -24.0977   18.9124 N   0  0  0  0  0  0  0  0  0  0  0  0
  -25.6003  -17.9614   20.9424 N   0  0  0  0  0  0  0  0  0  0  0  0
  -22.7808  -26.3041   22.7272 N   0  0  0  0  0  0  0  0  0  0  0  0
  -26.2199  -20.7768   18.4379 N   0  0  0  0  0  0  0  0  0  0  0  0
  -26.4064  -18.7010   23.0433 N   0  0  0  0  0  0  0  0  0  0  0  0
  -26.2299  -14.2131   23.5163 N   0  0  0  0  0  0  0  0  0  0  0  0
  -28.2340  -21.7161   19.2274 N   0  0  0  0  0  0  0  0  0  0  0  0
  -22.0866  -22.9151   23.6007 N   0  0  0  0  0  0  0  0  0  0  0  0
  -21.2597  -29.3091   22.3885 N   0  0  0  0  0  0  0  0  0  0  0  0
  -23.2128  -32.1735   23.4121 N   0  3  0  0  0  0  0  0  0  0  0  0
  -26.7424  -16.1788   24.5803 O   0  0  0  0  0  0  0  0  0  0  0  0
  -22.8325  -23.8968   21.6252 O   0  0  0  0  0  0  0  0  0  0  0  0
  -20.6992  -26.8000   23.6531 O   0  0  0  0  0  0  0  0  0  0  0  0
  -23.1849  -30.1765   21.4303 O   0  0  0  0  0  0  0  0  0  0  0  0
  -27.2082  -22.5405   17.3169 O   0  0  0  0  0  0  0  0  0  0  0  0
  -24.5746  -10.5569   19.6527 O   0  0  0  0  0  0  0  0  0  0  0  0
  -28.4444  -26.0035   20.3011 O   0  0  0  0  0  0  0  0  0  1  0  0
  -21.9349   -7.3268   23.2586 F   0  0  0  0  0  0  0  0  0  0  0  0
  -25.6202  -10.0903   22.1690 F   0  0  0  0  0  0  0  0  0  0  0  0
  1  2  1  0  0  0  0
  1  5  2  0  0  0  0
  2  6  2  0  0  0  0
  3  8  2  0  0  0  0
  3 16  1  0  0  0  0
  4  9  1  0  0  0  0
  4 16  2  0  0  0  0
  5 18  1  0  0  0  0
  6 20  1  0  0  0  0
  7 10  2  0  0  0  0
  7 19  1  0  0  0  0
  8 22  1  0  0  0  0
  9 22  2  0  0  0  0
 10 23  1  0  0  0  0
 11 12  2  0  0  0  0
 11 24  1  0  0  0  0
 12 25  1  0  0  0  0
 13 21  1  0  0  0  0
 13 23  2  0  0  0  0
 14 25  2  0  0  0  0
 14 26  1  0  0  0  0
 15 28  2  0  0  0  0
 15 29  1  0  0  0  0
 16 27  1  0  0  0  0
 17 27  1  0  0  0  0
 17 30  2  0  0  0  0
 17 32  1  0  0  0  0
 18 20  2  0  0  0  0
 18 38  1  0  0  0  0
 19 21  2  0  0  0  0
 19 39  1  0  0  0  0
 20 47  1  0  0  0  0
 21 40  1  0  0  0  0
 22 79  1  0  0  0  0
 23 80  1  0  0  0  0
 24 26  2  0  0  0  0
 24 79  1  0  0  0  0
 25 81  1  0  0  0  0
 26 82  1  0  0  0  0
 27 62  2  0  0  0  0
 28 50  1  0  0  0  0
 28 64  1  0  0  0  0
 29 63  2  0  0  0  0
 29 70  1  0  0  0  0
 30 65  1  0  0  0  0
 30 68  1  0  0  0  0
 31 33  2  0  0  0  0
 31 80  1  0  0  0  0
 32 69  1  0  0  0  0
 32 74  2  0  0  0  0
 33 51  1  0  0  0  0
 33 57  1  0  0  0  0
 34 48  1  0  0  0  0
 34 71  1  0  0  0  0
 34 75  2  0  0  0  0
 35 59  1  0  0  0  0
 35 66  1  0  0  0  0
 35 76  2  0  0  0  0
 36 60  1  0  0  0  0
 36 72  1  0  0  0  0
 36 77  2  0  0  0  0
 37 67  1  0  0  0  0
 37 70  1  0  0  0  0
 37 78  2  0  0  0  0
 38 41  1  0  0  0  0
 39 48  1  0  0  0  0
 40 66  1  0  0  0  0
 41 43  1  0  0  0  0
 42 44  1  0  0  0  0
 42 45  1  0  0  0  0
 43 47  1  0  0  0  0
 44 49  1  0  0  0  0
 45 67  1  0  0  0  0
 46 49  1  0  0  0  0
 46 67  1  0  0  0  0
 47 71  1  0  0  0  0
 48 66  1  0  0  0  0
 49 65  1  0  0  0  0
 52 60  1  0  0  0  0
 53 61  1  0  0  0  0
 54 61  1  0  0  0  0
 55 61  1  0  0  0  0
 56 73  1  0  0  0  0
 57 58  1  0  0  0  0
 58 64  1  0  0  0  0
 59 61  1  0  0  0  0
 59 72  1  0  0  0  0
 60 73  1  0  0  0  0
 62 65  1  0  0  0  0
 63 64  1  0  0  0  0
M  CHG  1  73   1
M  ISO  4  31 101  37 100  70 100  80 101
M  END
> <Batch ID>
0117

> <Smiles>
CNC(C)C(=O)NC(C(=O)N1Cc2cc([101O:1][101CH:1]=C(C)CCn3nc([100NH:0][100C:0](=O)N4CCCC(n5nc(-c6ccc(Oc7ccc(F)cc7F)cc6)c(C(N)=O)c5N)C4)cc3C)ccc2CC1C(=O)NC1CCCc2ccccc21)C(C)(C)C

> <Shape>
0.211

> <Color>
0.067

> <Negative vol penalty>
0.000

$$$$

  -OEChem-04052301463D

 84 92  0     1  0  0  0  0  0999 V2000
  -23.2614   -7.8042   21.7356 C   0  0  0  0  0  0  0  0  0  0  0  0
  -24.1453   -8.7824   21.2915 C   0  0  0  0  0  0  0  0  0  0  0  0
  -20.3632  -24.6883   21.8936 C   0  0  0  0  0  0  0  0  0  0  0  0
  -20.9151  -26.8499   20.9663 C   0  0  0  0  0  0  0  0  0  0  0  0
  -21.9076   -8.1042   21.8819 C   0  0  0  0  0  0  0  0  0  0  0  0
  -23.6758  -10.0609   20.9923 C   0  0  0  0  0  0  0  0  0  0  0  0
  -26.6300  -15.3586   21.8364 C   0  0  0  0  0  0  0  0  0  0  0  0
  -19.1207  -25.1781   22.2961 C   0  0  0  0  0  0  0  0  0  0  0  0
  -19.6725  -27.3398   21.3687 C   0  0  0  0  0  0  0  0  0  0  0  0
  -27.3597  -16.1737   20.9722 C   0  0  0  0  0  0  0  0  0  0  0  0
  -18.2319  -28.4332   24.2253 C   0  0  0  0  0  0  0  0  0  0  0  0
  -18.1975  -29.6825   24.8447 C   0  0  0  0  0  0  0  0  0  0  0  0
  -25.4004  -17.5334   20.6098 C   0  0  0  0  0  0  0  0  0  0  0  0
  -16.7559  -30.5117   23.0921 C   0  0  0  0  0  0  0  0  0  0  0  0
  -21.2604  -25.5243   21.2288 C   0  0  0  0  0  0  0  0  0  0  0  0
  -22.8612  -24.4109   19.5840 C   0  0  0  0  0  0  0  0  0  0  0  0
  -21.4229   -9.3897   21.5936 C   0  0  0  0  0  0  0  0  0  0  0  0
  -25.2748  -15.6189   22.0857 C   0  0  0  0  0  0  0  0  0  0  0  0
  -22.3141  -10.3779   21.1336 C   0  0  0  0  0  0  0  0  0  0  0  0
  -24.6563  -16.7217   21.4795 C   0  0  0  0  0  0  0  0  0  0  0  0
  -29.2062  -24.7324   17.3779 C   0  0  0  0  0  0  0  0  0  0  0  0
  -29.2201  -23.4089   16.8505 C   0  0  0  0  0  0  0  0  0  0  0  0
  -18.7754  -26.5038   22.0336 C   0  0  0  0  0  0  0  0  0  0  0  0
  -26.7442  -17.2596   20.3565 C   0  0  0  0  0  0  0  0  0  0  0  0
  -17.5284  -28.2232   23.0392 C   0  0  0  0  0  0  0  0  0  0  0  0
  -17.4595  -30.7217   24.2781 C   0  0  0  0  0  0  0  0  0  0  0  0
  -16.7904  -29.2624   22.4726 C   0  0  0  0  0  0  0  0  0  0  0  0
  -22.5442  -25.0190   20.8134 C   0  0  0  0  0  0  0  0  0  0  0  0
  -29.2777  -24.7420   18.7536 C   0  0  0  0  0  0  0  0  0  0  0  0
  -24.1983  -24.1129   19.6829 C   0  0  0  0  0  0  0  0  0  0  0  0
  -29.3019  -22.4572   17.8432 C   0  0  0  0  0  0  0  0  0  0  0  0
  -22.0220  -24.1397   18.4535 C   0  0  0  0  0  0  0  0  0  0  0  0
  -29.2901  -25.8531   19.6506 C   0  0  0  0  0  0  0  0  0  0  0  0
  -29.3720  -25.6814   21.1193 C   0  0  0  0  0  0  0  0  0  0  0  0
  -22.5613  -14.0341   21.6069 C   0  0  0  0  0  0  0  0  0  0  0  0
  -21.2769  -16.5131   23.2584 C   0  0  0  0  0  0  0  0  0  0  0  0
  -29.4263  -20.1478   18.8409 C   0  0  0  0  0  0  0  0  0  0  0  0
  -21.5257  -19.7661   24.2596 C   0  0  0  0  0  0  0  0  0  0  0  0
  -19.9435   -9.6533   21.7217 C   0  0  0  0  0  0  0  0  0  0  0  0
  -24.5085  -14.7459   23.0413 C   0  0  0  0  0  0  0  0  0  0  0  0
  -23.2092  -17.0560   21.7297 C   0  0  0  0  0  0  0  0  0  0  0  0
  -19.5888  -11.1379   21.7417 C   0  0  0  0  0  0  0  0  0  0  0  0
  -27.3166  -24.1958   23.6541 C   0  0  0  0  0  0  0  0  0  0  0  0
  -20.3285  -11.8785   20.6321 C   0  0  0  0  0  0  0  0  0  0  0  0
  -25.9124  -24.2639   23.0547 C   0  0  0  0  0  0  0  0  0  0  0  0
  -28.1577  -25.4004   23.2441 C   0  0  0  0  0  0  0  0  0  0  0  0
  -26.8423  -25.6664   21.1590 C   0  0  0  0  0  0  0  0  0  0  0  0
  -21.8471  -11.7834   20.8226 C   0  0  1  0  0  0  0  0  0  0  0  0
  -22.9997  -14.8010   22.8223 C   0  0  1  0  0  0  0  0  0  0  0  0
  -25.9720  -24.4525   21.5284 C   0  0  2  0  0  0  0  0  0  0  0  0
  -29.1244  -25.9571   16.5427 C   0  0  0  0  0  0  0  0  0  0  0  0
  -29.1542  -23.0907   15.4020 C   0  0  0  0  0  0  0  0  0  0  0  0
  -20.3035  -21.5229   25.5701 C   0  0  0  0  0  0  0  0  0  0  0  0
  -19.3346  -16.8910   20.9357 C   0  0  0  0  0  0  0  0  0  0  0  0
  -18.8074  -19.1661   21.8379 C   0  0  0  0  0  0  0  0  0  0  0  0
  -18.3098  -17.1388   23.2035 C   0  0  0  0  0  0  0  0  0  0  0  0
  -23.7454  -20.0283   26.1995 C   0  0  0  0  0  0  0  0  0  0  0  0
  -29.4440  -18.7124   18.3278 C   0  0  0  0  0  0  0  0  0  0  0  0
  -28.8253  -17.7217   19.3023 C   0  0  0  0  0  0  0  0  0  1  0  0
  -20.7116  -17.8638   22.8911 C   0  0  1  0  0  0  0  0  0  0  0  0
  -21.3475  -20.4182   25.6188 C   0  0  2  0  0  0  0  0  0  0  0  0
  -19.3176  -17.7578   22.2106 C   0  0  0  0  0  0  0  0  0  0  0  0
  -23.5953  -25.1029   21.6333 N   0  0  0  0  0  0  0  0  0  0  0  0
  -29.2330  -27.1160   19.2698 N   0  0  0  0  0  0  0  0  0  0  0  0
  -24.5858  -24.5435   20.9176 N   0  0  0  0  0  0  0  0  0  0  0  0
  -28.1635  -25.5716   21.7927 N   0  0  0  0  0  0  0  0  0  0  0  0
  -22.5007  -16.1689   22.6671 N   0  0  0  0  0  0  0  0  0  0  0  0
  -25.0686  -23.5270   18.8333 N   0  0  0  0  0  0  0  0  0  0  0  0
  -20.6722  -24.5115   18.5189 N   0  0  0  0  0  0  0  0  0  0  0  0
  -29.3425  -21.0440   17.7787 N   0  0  0  0  0  0  0  0  0  0  0  0
  -22.2860  -12.7022   21.8511 N   0  0  0  0  0  0  0  0  0  0  0  0
  -20.7199  -18.6565   24.1158 N   0  0  0  0  0  0  0  0  0  0  0  0
  -22.6349  -21.0083   26.0830 N   0  3  0  0  0  0  0  0  0  0  0  0
  -22.4523  -23.5693   17.4225 O   0  0  0  0  0  0  0  0  0  0  0  0
  -30.5038  -25.6549   21.5848 O   0  0  0  0  0  0  0  0  0  0  0  0
  -22.4775  -14.6086   20.5277 O   0  0  0  0  0  0  0  0  0  0  0  0
  -20.6590  -15.7929   24.0466 O   0  0  0  0  0  0  0  0  0  0  0  0
  -29.4814  -20.4143   20.0369 O   0  0  0  0  0  0  0  0  0  0  0  0
  -22.2995  -20.2001   23.4089 O   0  0  0  0  0  0  0  0  0  0  0  0
  -17.5630  -26.9821   22.4259 O   0  0  0  0  0  0  0  0  0  0  0  0
  -27.4541  -18.0564   19.5120 O   0  0  0  0  0  0  0  0  0  1  0  0
  -17.4252  -31.9209   24.8739 F   0  0  0  0  0  0  0  0  0  0  0  0
  -16.1116  -29.0663   21.3340 F   0  0  0  0  0  0  0  0  0  0  0  0
  -29.3612  -23.1600   19.4036 S   0  0  0  0  0  0  0  0  0  0  0  0
  1  2  1  0  0  0  0
  1  5  2  0  0  0  0
  2  6  2  0  0  0  0
  3  8  2  0  0  0  0
  3 15  1  0  0  0  0
  4  9  1  0  0  0  0
  4 15  2  0  0  0  0
  5 17  1  0  0  0  0
  6 19  1  0  0  0  0
  7 10  2  0  0  0  0
  7 18  1  0  0  0  0
  8 23  1  0  0  0  0
  9 23  2  0  0  0  0
 10 24  1  0  0  0  0
 11 12  2  0  0  0  0
 11 25  1  0  0  0  0
 12 26  1  0  0  0  0
 13 20  1  0  0  0  0
 13 24  2  0  0  0  0
 14 26  2  0  0  0  0
 14 27  1  0  0  0  0
 15 28  1  0  0  0  0
 16 28  1  0  0  0  0
 16 30  2  0  0  0  0
 16 32  1  0  0  0  0
 17 19  2  0  0  0  0
 17 39  1  0  0  0  0
 18 20  2  0  0  0  0
 18 40  1  0  0  0  0
 19 48  1  0  0  0  0
 20 41  1  0  0  0  0
 21 22  1  0  0  0  0
 21 29  2  0  0  0  0
 21 51  1  0  0  0  0
 22 31  2  0  0  0  0
 22 52  1  0  0  0  0
 23 80  1  0  0  0  0
 24 81  1  0  0  0  0
 25 27  2  0  0  0  0
 25 80  1  0  0  0  0
 26 82  1  0  0  0  0
 27 83  1  0  0  0  0
 28 63  2  0  0  0  0
 29 33  1  0  0  0  0
 29 84  1  0  0  0  0
 30 65  1  0  0  0  0
 30 68  1  0  0  0  0
 31 70  1  0  0  0  0
 31 84  1  0  0  0  0
 32 69  1  0  0  0  0
 32 74  2  0  0  0  0
 33 34  1  0  0  0  0
 33 64  2  0  0  0  0
 34 66  1  0  0  0  0
 34 75  2  0  0  0  0
 35 49  1  0  0  0  0
 35 71  1  0  0  0  0
 35 76  2  0  0  0  0
 36 60  1  0  0  0  0
 36 67  1  0  0  0  0
 36 77  2  0  0  0  0
 37 58  1  0  0  0  0
 37 70  1  0  0  0  0
 37 78  2  0  0  0  0
 38 61  1  0  0  0  0
 38 72  1  0  0  0  0
 38 79  2  0  0  0  0
 39 42  1  0  0  0  0
 40 49  1  0  0  0  0
 41 67  1  0  0  0  0
 42 44  1  0  0  0  0
 43 45  1  0  0  0  0
 43 46  1  0  0  0  0
 44 48  1  0  0  0  0
 45 50  1  0  0  0  0
 46 66  1  0  0  0  0
 47 50  1  0  0  0  0
 47 66  1  0  0  0  0
 48 71  1  0  0  0  0
 49 67  1  0  0  0  0
 50 65  1  0  0  0  0
 53 61  1  0  0  0  0
 54 62  1  0  0  0  0
 55 62  1  0  0  0  0
 56 62  1  0  0  0  0
 57 73  1  0  0  0  0
 58 59  1  0  0  0  0
 59 81  1  0  0  0  0
 60 62  1  0  0  0  0
 60 72  1  0  0  0  0
 61 73  1  0  0  0  0
 63 65  1  0  0  0  0
M  CHG  1  73   1
M  ISO  4  33 100  34 100  59 101  81 101
M  END
> <Batch ID>
0117

> <Smiles>
CNC(C)C(=O)NC(C(=O)N1Cc2cc([101O:1][101CH2:1]CC(=O)Nc3sc([100C:0](=N)[100C:0](=O)N4CCCC(n5nc(-c6ccc(Oc7ccc(F)cc7F)cc6)c(C(N)=O)c5N)C4)c(C)c3C)ccc2CC1C(=O)NC1CCCc2ccccc21)C(C)(C)C

> <Shape>
0.189

> <Color>
0.092

> <Negative vol penalty>
0.000

$$$$

  -OEChem-04052301463D

 85 93  0     1  0  0  0  0  0999 V2000
  -22.8436  -28.0285   15.0758 C   0  0  0  0  0  0  0  0  0  0  0  0
  -23.1565  -27.2008   16.1492 C   0  0  0  0  0  0  0  0  0  0  0  0
  -23.0760   -9.8602   19.9458 C   0  0  0  0  0  0  0  0  0  0  0  0
  -23.8322   -9.8774   22.2403 C   0  0  0  0  0  0  0  0  0  0  0  0
  -22.3921  -27.4749   13.8785 C   0  0  0  0  0  0  0  0  0  0  0  0
  -23.0171  -25.8188   16.0263 C   0  0  0  0  0  0  0  0  0  0  0  0
  -26.9800  -23.2912   17.9110 C   0  0  0  0  0  0  0  0  0  0  0  0
  -22.3322   -8.7078   20.1995 C   0  0  0  0  0  0  0  0  0  0  0  0
  -23.0884   -8.7250   22.4941 C   0  0  0  0  0  0  0  0  0  0  0  0
  -27.0470  -23.1539   19.2968 C   0  0  0  0  0  0  0  0  0  0  0  0
  -19.8596   -7.9285   23.0949 C   0  0  0  0  0  0  0  0  0  0  0  0
  -19.1008   -7.8933   24.2648 C   0  0  0  0  0  0  0  0  0  0  0  0
  -29.5126  -17.8918   22.3504 C   0  0  0  0  0  0  0  0  0  0  0  0
  -26.1763  -20.9119   19.1107 C   0  0  0  0  0  0  0  0  0  0  0  0
  -31.1475  -17.6962   20.5824 C   0  0  0  0  0  0  0  0  0  0  0  0
  -20.3418   -5.9596   25.0116 C   0  0  0  0  0  0  0  0  0  0  0  0
  -23.8261  -10.4450   20.9662 C   0  0  0  0  0  0  0  0  0  0  0  0
  -29.6810  -19.2764   22.3530 C   0  0  0  0  0  0  0  0  0  0  0  0
  -30.5826  -19.8710   21.4702 C   0  0  0  0  0  0  0  0  0  0  0  0
  -24.1671  -12.9697   20.8358 C   0  0  0  0  0  0  0  0  0  0  0  0
  -22.2563  -26.0848   13.7376 C   0  0  0  0  0  0  0  0  0  0  0  0
  -26.4996  -22.2420   17.1142 C   0  0  0  0  0  0  0  0  0  0  0  0
  -22.5622  -25.2461   14.8264 C   0  0  0  0  0  0  0  0  0  0  0  0
  -26.1066  -21.0375   17.7148 C   0  0  0  0  0  0  0  0  0  0  0  0
  -31.3159  -19.0809   20.5849 C   0  0  0  0  0  0  0  0  0  0  0  0
  -30.2459  -17.1016   21.4652 C   0  0  0  0  0  0  0  0  0  0  0  0
  -22.3384   -8.1403   21.4737 C   0  0  0  0  0  0  0  0  0  0  0  0
  -26.6424  -21.9652   19.8971 C   0  0  0  0  0  0  0  0  0  0  0  0
  -20.8594   -6.9792   22.8833 C   0  0  0  0  0  0  0  0  0  0  0  0
  -19.3419   -6.9089   25.2231 C   0  0  0  0  0  0  0  0  0  0  0  0
  -21.1006   -5.9948   23.8416 C   0  0  0  0  0  0  0  0  0  0  0  0
  -24.5951  -11.6350   20.7046 C   0  0  0  0  0  0  0  0  0  0  0  0
  -25.2595  -13.7181   20.4711 C   0  0  0  0  0  0  0  0  0  0  0  0
  -28.8920  -20.0741   23.2976 C   0  0  0  0  0  0  0  0  0  0  0  0
  -30.7699  -21.3201   21.4630 C   0  0  0  0  0  0  0  0  0  0  0  0
  -22.8957  -13.4868   21.2505 C   0  0  0  0  0  0  0  0  0  0  0  0
  -27.6766  -20.6065   23.0646 C   0  0  0  0  0  0  0  0  0  0  0  0
  -24.0404  -21.8737   15.1342 C   0  0  0  0  0  0  0  0  0  0  0  0
  -25.4531  -19.0159   14.5345 C   0  0  0  0  0  0  0  0  0  0  0  0
  -27.5277  -16.5277   15.6077 C   0  0  0  0  0  0  0  0  0  0  0  0
  -30.7250  -14.7666   20.6500 C   0  0  0  0  0  0  0  0  0  0  0  0
  -21.7196  -25.5357   12.4395 C   0  0  0  0  0  0  0  0  0  0  0  0
  -26.4587  -22.3963   15.6185 C   0  0  0  0  0  0  0  0  0  0  0  0
  -25.6024  -19.8738   16.9024 C   0  0  0  0  0  0  0  0  0  0  0  0
  -21.9565  -24.0375   12.2676 C   0  0  0  0  0  0  0  0  0  0  0  0
  -29.6154  -12.3421   18.2904 C   0  0  0  0  0  0  0  0  0  0  0  0
  -21.5813  -23.2880   13.5421 C   0  0  0  0  0  0  0  0  0  0  0  0
  -28.1752  -12.0518   18.7189 C   0  0  0  0  0  0  0  0  0  0  0  0
  -30.5285  -12.5765   19.4925 C   0  0  0  0  0  0  0  0  0  0  0  0
  -28.6190  -13.3062   20.8676 C   0  0  0  0  0  0  0  0  0  0  0  0
  -22.4476  -23.7406   14.7236 C   0  0  1  0  0  0  0  0  0  0  0  0
  -25.4694  -21.4488   14.9470 C   0  0  1  0  0  0  0  0  0  0  0  0
  -27.6481  -13.1274   19.6890 C   0  0  2  0  0  0  0  0  0  0  0  0
  -32.2899  -19.6872   19.6271 C   0  0  0  0  0  0  0  0  0  0  0  0
  -31.8253  -21.8805   22.3664 C   0  0  0  0  0  0  0  0  0  0  0  0
  -26.9809  -21.3958   24.1433 C   0  0  0  0  0  0  0  0  0  0  0  0
  -28.4577  -14.3023   14.9146 C   0  0  0  0  0  0  0  0  0  0  0  0
  -22.7777  -17.6991   15.1813 C   0  0  0  0  0  0  0  0  0  0  0  0
  -23.9849  -15.5171   15.4047 C   0  0  0  0  0  0  0  0  0  0  0  0
  -23.9761  -16.7174   13.2179 C   0  0  0  0  0  0  0  0  0  0  0  0
  -30.3093  -17.5353   15.6863 C   0  0  0  0  0  0  0  0  0  0  0  0
  -26.9285  -20.5149   21.7601 C   0  0  0  0  0  0  0  0  0  1  0  0
  -25.3581  -17.6310   15.1277 C   0  0  1  0  0  0  0  0  0  0  0  0
  -28.6752  -15.8075   14.9228 C   0  0  2  0  0  0  0  0  0  0  0  0
  -24.0318  -16.9136   14.7487 C   0  0  0  0  0  0  0  0  0  0  0  0
  -25.8607  -11.5379   20.2887 N   0  0  0  0  0  0  0  0  0  0  0  0
  -26.2373  -12.8211   20.1554 N   0  0  0  0  0  0  0  0  0  0  0  0
  -25.5753  -20.0757   15.4444 N   0  0  0  0  0  0  0  0  0  0  0  0
  -29.9677  -13.6109   20.3645 N   0  0  0  0  0  0  0  0  0  0  0  0
  -25.4695  -15.0493   20.3926 N   0  0  0  0  0  0  0  0  0  0  0  0
  -21.8836  -12.5787   21.5900 N   0  0  0  0  0  0  0  0  0  0  0  0
  -30.0760  -15.6949   21.4634 N   0  0  0  0  0  0  0  0  0  0  0  0
  -23.7606  -23.1366   14.6483 N   0  0  0  0  0  0  0  0  0  0  0  0
  -26.5621  -16.9229   14.7062 N   0  0  0  0  0  0  0  0  0  0  0  0
  -29.9585  -16.0931   15.6246 N   0  3  0  0  0  0  0  0  0  0  0  0
  -30.1223  -22.1058   20.7749 O   0  0  0  0  0  0  0  0  0  0  0  0
  -22.6589  -14.7176   21.3021 O   0  0  0  0  0  0  0  0  0  0  0  0
  -23.2497  -21.1115   15.6779 O   0  0  0  0  0  0  0  0  0  0  0  0
  -25.4273  -19.1518   13.3087 O   0  0  0  0  0  0  0  0  0  0  0  0
  -27.4898  -16.7171   16.8214 O   0  0  0  0  0  0  0  0  0  0  0  0
  -31.8548  -14.9338   20.1835 O   0  0  0  0  0  0  0  0  0  0  0  0
  -21.6125   -7.0159   21.7217 O   0  0  0  0  0  0  0  0  0  0  0  0
  -26.7062  -21.8288   21.2496 O   0  0  0  0  0  0  0  0  0  1  0  0
  -18.6142   -6.8762   26.3472 F   0  0  0  0  0  0  0  0  0  0  0  0
  -22.0606   -5.0808   23.6445 F   0  0  0  0  0  0  0  0  0  0  0  0
  1  2  1  0  0  0  0
  1  5  2  0  0  0  0
  2  6  2  0  0  0  0
  3  8  2  0  0  0  0
  3 17  1  0  0  0  0
  4  9  1  0  0  0  0
  4 17  2  0  0  0  0
  5 21  1  0  0  0  0
  6 23  1  0  0  0  0
  7 10  2  0  0  0  0
  7 22  1  0  0  0  0
  8 27  1  0  0  0  0
  9 27  2  0  0  0  0
 10 28  1  0  0  0  0
 11 12  2  0  0  0  0
 11 29  1  0  0  0  0
 12 30  1  0  0  0  0
 13 18  1  0  0  0  0
 13 26  2  0  0  0  0
 14 24  1  0  0  0  0
 14 28  2  0  0  0  0
 15 25  2  0  0  0  0
 15 26  1  0  0  0  0
 16 30  2  0  0  0  0
 16 31  1  0  0  0  0
 17 32  1  0  0  0  0
 18 19  2  0  0  0  0
 18 34  1  0  0  0  0
 19 25  1  0  0  0  0
 19 35  1  0  0  0  0
 20 32  1  0  0  0  0
 20 33  2  0  0  0  0
 20 36  1  0  0  0  0
 21 23  2  0  0  0  0
 21 42  1  0  0  0  0
 22 24  2  0  0  0  0
 22 43  1  0  0  0  0
 23 51  1  0  0  0  0
 24 44  1  0  0  0  0
 25 54  1  0  0  0  0
 26 72  1  0  0  0  0
 27 82  1  0  0  0  0
 28 83  1  0  0  0  0
 29 31  2  0  0  0  0
 29 82  1  0  0  0  0
 30 84  1  0  0  0  0
 31 85  1  0  0  0  0
 32 66  2  0  0  0  0
 33 67  1  0  0  0  0
 33 70  1  0  0  0  0
 34 37  2  0  0  0  0
 35 55  1  0  0  0  0
 35 76  2  0  0  0  0
 36 71  1  0  0  0  0
 36 77  2  0  0  0  0
 37 56  1  0  0  0  0
 37 62  1  0  0  0  0
 38 52  1  0  0  0  0
 38 73  1  0  0  0  0
 38 78  2  0  0  0  0
 39 63  1  0  0  0  0
 39 68  1  0  0  0  0
 39 79  2  0  0  0  0
 40 64  1  0  0  0  0
 40 74  1  0  0  0  0
 40 80  2  0  0  0  0
 41 69  1  0  0  0  0
 41 72  1  0  0  0  0
 41 81  2  0  0  0  0
 42 45  1  0  0  0  0
 43 52  1  0  0  0  0
 44 68  1  0  0  0  0
 45 47  1  0  0  0  0
 46 48  1  0  0  0  0
 46 49  1  0  0  0  0
 47 51  1  0  0  0  0
 48 53  1  0  0  0  0
 49 69  1  0  0  0  0
 50 53  1  0  0  0  0
 50 69  1  0  0  0  0
 51 73  1  0  0  0  0
 52 68  1  0  0  0  0
 53 67  1  0  0  0  0
 57 64  1  0  0  0  0
 58 65  1  0  0  0  0
 59 65  1  0  0  0  0
 60 65  1  0  0  0  0
 61 75  1  0  0  0  0
 62 83  1  0  0  0  0
 63 65  1  0  0  0  0
 63 74  1  0  0  0  0
 64 75  1  0  0  0  0
 66 67  1  0  0  0  0
M  CHG  1  75   1
M  ISO  4  41 100  62 101  72 100  83 101
M  END
> <Batch ID>
0117

> <Smiles>
CNC(C)C(=O)NC(C(=O)N1Cc2cc([101O:1][101CH2:1]C(C)=Cc3cc([100NH:0][100C:0](=O)N4CCCC(n5nc(-c6ccc(Oc7ccc(F)cc7F)cc6)c(C(N)=O)c5N)C4)cc(C)c3C(C)=O)ccc2CC1C(=O)NC1CCCc2ccccc21)C(C)(C)C

> <Shape>
0.192

> <Color>
0.192

> <Negative vol penalty>
0.000

$$$$

  -OEChem-04052301463D

 87 95  0     1  0  0  0  0  0999 V2000
  -27.5672  -31.0986   27.3141 C   0  0  0  0  0  0  0  0  0  0  0  0
  -28.1782  -30.2319   26.4137 C   0  0  0  0  0  0  0  0  0  0  0  0
  -22.6395  -10.6410   20.9203 C   0  0  0  0  0  0  0  0  0  0  0  0
  -24.5829   -9.3296   21.5036 C   0  0  0  0  0  0  0  0  0  0  0  0
  -26.1763  -31.1512   27.3949 C   0  0  0  0  0  0  0  0  0  0  0  0
  -27.3986  -29.4163   25.5942 C   0  0  0  0  0  0  0  0  0  0  0  0
  -28.6442  -27.7056   19.8472 C   0  0  0  0  0  0  0  0  0  0  0  0
  -21.8492   -9.4927   20.9715 C   0  0  0  0  0  0  0  0  0  0  0  0
  -23.7927   -8.1813   21.5548 C   0  0  0  0  0  0  0  0  0  0  0  0
  -29.1946  -26.5411   19.3136 C   0  0  0  0  0  0  0  0  0  0  0  0
  -21.6232   -6.7469   23.7127 C   0  0  0  0  0  0  0  0  0  0  0  0
  -21.8030   -5.8861   24.7953 C   0  0  0  0  0  0  0  0  0  0  0  0
  -29.9371  -16.9265   22.8454 C   0  0  0  0  0  0  0  0  0  0  0  0
  -30.1267  -17.2727   20.0837 C   0  0  0  0  0  0  0  0  0  0  0  0
  -26.9760  -25.6928   18.8922 C   0  0  0  0  0  0  0  0  0  0  0  0
  -22.4030   -4.1037   23.2786 C   0  0  0  0  0  0  0  0  0  0  0  0
  -24.0063  -10.5594   21.1863 C   0  0  0  0  0  0  0  0  0  0  0  0
  -30.3068  -15.8554   22.0320 C   0  0  0  0  0  0  0  0  0  0  0  0
  -30.4016  -16.0285   20.6512 C   0  0  0  0  0  0  0  0  0  0  0  0
  -25.1047  -12.6317   22.1896 C   0  0  0  0  0  0  0  0  0  0  0  0
  -25.3791  -30.3428   26.5692 C   0  0  0  0  0  0  0  0  0  0  0  0
  -27.2531  -27.8681   19.9175 C   0  0  0  0  0  0  0  0  0  0  0  0
  -25.9957  -29.4571   25.6650 C   0  0  0  0  0  0  0  0  0  0  0  0
  -26.4105  -26.8614   19.4248 C   0  0  0  0  0  0  0  0  0  0  0  0
  -22.4258   -8.2629   21.2888 C   0  0  0  0  0  0  0  0  0  0  0  0
  -28.3604  -25.5333   18.8386 C   0  0  0  0  0  0  0  0  0  0  0  0
  -21.8332   -6.2861   22.4129 C   0  0  0  0  0  0  0  0  0  0  0  0
  -29.6622  -18.1708   22.2780 C   0  0  0  0  0  0  0  0  0  0  0  0
  -29.7570  -18.3439   20.8972 C   0  0  0  0  0  0  0  0  0  0  0  0
  -22.1929   -4.5645   24.5783 C   0  0  0  0  0  0  0  0  0  0  0  0
  -22.2231   -4.9646   22.1959 C   0  0  0  0  0  0  0  0  0  0  0  0
  -24.8233  -11.7451   21.1330 C   0  0  0  0  0  0  0  0  0  0  0  0
  -25.9180  -13.5863   21.6295 C   0  0  0  0  0  0  0  0  0  0  0  0
  -31.5156  -14.3938   23.5869 C   0  0  0  0  0  0  0  0  0  0  0  0
  -30.5871  -14.5699   22.6592 C   0  0  0  0  0  0  0  0  0  0  0  0
  -30.2605  -22.4901   18.6981 C   0  0  0  0  0  0  0  0  0  0  0  0
  -30.4263  -21.6557   19.7347 C   0  0  0  0  0  0  0  0  0  0  0  0
  -30.7831  -14.9337   19.7664 C   0  0  0  0  0  0  0  0  0  0  0  0
  -24.6699  -12.5956   23.5554 C   0  0  0  0  0  0  0  0  0  0  0  0
  -30.2842  -14.8621   18.3738 C   0  0  0  0  0  0  0  0  0  0  0  0
  -25.1556  -28.2508   22.2750 C   0  0  0  0  0  0  0  0  0  0  0  0
  -23.0715  -28.6829   19.8271 C   0  0  0  0  0  0  0  0  0  0  0  0
  -22.2957  -28.1279   16.5504 C   0  0  0  0  0  0  0  0  0  0  0  0
  -23.8801  -30.4003   26.7258 C   0  0  0  0  0  0  0  0  0  0  0  0
  -26.6754  -29.1416   20.4714 C   0  0  0  0  0  0  0  0  0  0  0  0
  -24.9107  -26.9956   19.4588 C   0  0  0  0  0  0  0  0  0  0  0  0
  -23.1213  -29.7746   25.5584 C   0  0  0  0  0  0  0  0  0  0  0  0
  -27.0787  -14.5195   16.8042 C   0  0  0  0  0  0  0  0  0  0  0  0
  -23.7258  -28.4230   25.1919 C   0  0  0  0  0  0  0  0  0  0  0  0
  -26.2412  -13.8046   17.8641 C   0  0  0  0  0  0  0  0  0  0  0  0
  -28.5327  -14.0602   16.8383 C   0  0  0  0  0  0  0  0  0  0  0  0
  -28.3440  -13.4914   19.2444 C   0  0  0  0  0  0  0  0  0  0  0  0
  -25.1839  -28.5746   24.7418 C   0  0  1  0  0  0  0  0  0  0  0  0
  -25.2407  -28.9818   20.9650 C   0  0  1  0  0  0  0  0  0  0  0  0
  -26.8752  -13.9495   19.2590 C   0  0  2  0  0  0  0  0  0  0  0  0
  -20.5074  -28.5723   14.8469 C   0  0  0  0  0  0  0  0  0  0  0  0
  -21.3351  -26.5136   21.0877 C   0  0  0  0  0  0  0  0  0  0  0  0
  -20.1037  -26.3345   18.9153 C   0  0  0  0  0  0  0  0  0  0  0  0
  -20.0681  -28.4759   20.1942 C   0  0  0  0  0  0  0  0  0  0  0  0
  -24.1534  -29.6597   14.8295 C   0  0  0  0  0  0  0  0  0  0  0  0
  -30.3511  -20.0308   23.5901 C   0  0  0  0  0  0  0  0  0  0  0  0
  -30.1560  -23.9738   18.8362 C   0  0  0  0  0  0  0  0  0  1  0  0
  -30.5426  -20.1729   19.5959 C   0  0  0  0  0  0  0  0  0  0  0  0
  -22.1867  -27.7782   19.0040 C   0  0  1  0  0  0  0  0  0  0  0  0
  -21.8106  -29.0634   15.4577 C   0  0  2  0  0  0  0  0  0  0  0  0
  -20.9516  -27.2719   19.8013 C   0  0  0  0  0  0  0  0  0  0  0  0
  -25.4100  -12.1045   19.9882 N   0  0  0  0  0  0  0  0  0  0  0  0
  -31.5742  -13.9645   20.1322 N   0  0  0  0  0  0  0  0  0  0  0  0
  -26.0681  -13.2276   20.3222 N   0  0  0  0  0  0  0  0  0  0  0  0
  -29.0925  -14.1769   18.1834 N   0  0  0  0  0  0  0  0  0  0  0  0
  -24.3939  -28.2567   20.0156 N   0  0  0  0  0  0  0  0  0  0  0  0
  -26.5121  -14.6892   22.1325 N   0  0  0  0  0  0  0  0  0  0  0  0
  -23.8373  -11.5448   23.9640 N   0  0  0  0  0  0  0  0  0  0  0  0
  -25.2446  -29.0708   23.3837 N   0  0  0  0  0  0  0  0  0  0  0  0
  -21.8530  -28.5233   17.7950 N   0  0  0  0  0  0  0  0  0  0  0  0
  -22.8284  -29.1658   14.3740 N   0  3  0  0  0  0  0  0  0  0  0  0
  -24.9963  -13.4783   24.3848 O   0  0  0  0  0  0  0  0  0  0  0  0
  -30.9810  -15.4181   17.5349 O   0  0  0  0  0  0  0  0  0  0  0  0
  -25.0179  -27.0331   22.2796 O   0  0  0  0  0  0  0  0  0  0  0  0
  -22.6085  -29.7328   20.2800 O   0  0  0  0  0  0  0  0  0  0  0  0
  -22.9941  -27.1427   16.3223 O   0  0  0  0  0  0  0  0  0  0  0  0
  -21.6550   -7.1422   21.3391 O   0  0  0  0  0  0  0  0  0  0  0  0
  -29.3015  -19.2095   23.0826 O   0  0  0  0  0  0  0  0  0  0  0  0
  -28.8950  -24.3953   18.3179 O   0  0  0  0  0  0  0  0  0  1  0  0
  -29.4893  -19.5618   20.3277 O   0  0  0  0  0  0  0  0  0  0  0  0
  -22.3670   -3.7384   25.6182 F   0  0  0  0  0  0  0  0  0  0  0  0
  -22.4275   -4.5166   20.9496 F   0  0  0  0  0  0  0  0  0  0  0  0
  1  2  1  0  0  0  0
  1  5  2  0  0  0  0
  2  6  2  0  0  0  0
  3  8  2  0  0  0  0
  3 17  1  0  0  0  0
  4  9  1  0  0  0  0
  4 17  2  0  0  0  0
  5 21  1  0  0  0  0
  6 23  1  0  0  0  0
  7 10  2  0  0  0  0
  7 22  1  0  0  0  0
  8 25  1  0  0  0  0
  9 25  2  0  0  0  0
 10 26  1  0  0  0  0
 11 12  2  0  0  0  0
 11 27  1  0  0  0  0
 12 30  1  0  0  0  0
 13 18  1  0  0  0  0
 13 28  2  0  0  0  0
 14 19  1  0  0  0  0
 14 29  2  0  0  0  0
 15 24  1  0  0  0  0
 15 26  2  0  0  0  0
 16 30  2  0  0  0  0
 16 31  1  0  0  0  0
 17 32  1  0  0  0  0
 18 19  2  0  0  0  0
 18 35  1  0  0  0  0
 19 38  1  0  0  0  0
 20 32  1  0  0  0  0
 20 33  2  0  0  0  0
 20 39  1  0  0  0  0
 21 23  2  0  0  0  0
 21 44  1  0  0  0  0
 22 24  2  0  0  0  0
 22 45  1  0  0  0  0
 23 53  1  0  0  0  0
 24 46  1  0  0  0  0
 25 82  1  0  0  0  0
 26 84  1  0  0  0  0
 27 31  2  0  0  0  0
 27 82  1  0  0  0  0
 28 29  1  0  0  0  0
 28 83  1  0  0  0  0
 29 85  1  0  0  0  0
 30 86  1  0  0  0  0
 31 87  1  0  0  0  0
 32 67  2  0  0  0  0
 33 69  1  0  0  0  0
 33 72  1  0  0  0  0
 34 35  2  0  0  0  0
 36 37  2  0  0  0  0
 36 62  1  0  0  0  0
 37 63  1  0  0  0  0
 38 40  1  0  0  0  0
 38 68  2  0  0  0  0
 39 73  1  0  0  0  0
 39 77  2  0  0  0  0
 40 70  1  0  0  0  0
 40 78  2  0  0  0  0
 41 54  1  0  0  0  0
 41 74  1  0  0  0  0
 41 79  2  0  0  0  0
 42 64  1  0  0  0  0
 42 71  1  0  0  0  0
 42 80  2  0  0  0  0
 43 65  1  0  0  0  0
 43 75  1  0  0  0  0
 43 81  2  0  0  0  0
 44 47  1  0  0  0  0
 45 54  1  0  0  0  0
 46 71  1  0  0  0  0
 47 49  1  0  0  0  0
 48 50  1  0  0  0  0
 48 51  1  0  0  0  0
 49 53  1  0  0  0  0
 50 55  1  0  0  0  0
 51 70  1  0  0  0  0
 52 55  1  0  0  0  0
 52 70  1  0  0  0  0
 53 74  1  0  0  0  0
 54 71  1  0  0  0  0
 55 69  1  0  0  0  0
 56 65  1  0  0  0  0
 57 66  1  0  0  0  0
 58 66  1  0  0  0  0
 59 66  1  0  0  0  0
 60 76  1  0  0  0  0
 61 83  1  0  0  0  0
 62 84  1  0  0  0  0
 63 85  1  0  0  0  0
 64 66  1  0  0  0  0
 64 75  1  0  0  0  0
 65 76  1  0  0  0  0
 67 69  1  0  0  0  0
M  CHG  1  76   1
M  ISO  4  38 100  40 100  62 101  84 101
M  END
> <Batch ID>
0117

> <Smiles>
C=Cc1cc(OC)c(OCC=C[101CH2:1][101O:1]c2ccc3c(c2)CN(C(=O)C(NC(=O)C(C)NC)C(C)(C)C)C(C(=O)NC2CCCc4ccccc42)C3)cc1[100C:0](=N)[100C:0](=O)N1CCCC(n2nc(-c3ccc(Oc4ccc(F)cc4F)cc3)c(C(N)=O)c2N)C1

> <Shape>
0.305

> <Color>
0.115

> <Negative vol penalty>
0.000

$$$$

  -OEChem-04052301463D

 89 98  0     1  0  0  0  0  0999 V2000
  -25.6923  -37.0185   22.7326 C   0  0  0  0  0  0  0  0  0  0  0  0
  -26.6073  -36.1504   23.3196 C   0  0  0  0  0  0  0  0  0  0  0  0
  -24.6754   -8.5861   21.3662 C   0  0  0  0  0  0  0  0  0  0  0  0
  -23.1752  -10.4795   21.4083 C   0  0  0  0  0  0  0  0  0  0  0  0
  -24.4919  -36.5245   22.2237 C   0  0  0  0  0  0  0  0  0  0  0  0
  -26.3219  -34.7878   23.3990 C   0  0  0  0  0  0  0  0  0  0  0  0
  -30.4034  -28.6622   20.7825 C   0  0  0  0  0  0  0  0  0  0  0  0
  -23.9102   -7.9580   22.3488 C   0  0  0  0  0  0  0  0  0  0  0  0
  -22.4100   -9.8513   22.3908 C   0  0  0  0  0  0  0  0  0  0  0  0
  -30.9571  -27.5087   20.2264 C   0  0  0  0  0  0  0  0  0  0  0  0
  -21.0100   -6.2280   22.5202 C   0  0  0  0  0  0  0  0  0  0  0  0
  -20.7059   -4.8786   22.3409 C   0  0  0  0  0  0  0  0  0  0  0  0
  -25.6406  -19.5860   20.0184 C   0  0  0  0  0  0  0  0  0  0  0  0
  -28.3080  -18.7692   20.0338 C   0  0  0  0  0  0  0  0  0  0  0  0
  -28.7695  -26.4805   20.1543 C   0  0  0  0  0  0  0  0  0  0  0  0
  -21.8414   -4.3482   24.4064 C   0  0  0  0  0  0  0  0  0  0  0  0
  -24.3080   -9.8470   20.8960 C   0  0  0  0  0  0  0  0  0  0  0  0
  -25.9537  -18.2275   20.0611 C   0  0  0  0  0  0  0  0  0  0  0  0
  -27.9949  -20.1278   19.9911 C   0  0  0  0  0  0  0  0  0  0  0  0
  -24.9368  -10.3999   18.4864 C   0  0  0  0  0  0  0  0  0  0  0  0
  -24.1959  -35.1538   22.2882 C   0  0  0  0  0  0  0  0  0  0  0  0
  -29.0267  -28.7350   21.0126 C   0  0  0  0  0  0  0  0  0  0  0  0
  -25.1159  -34.2751   22.8916 C   0  0  0  0  0  0  0  0  0  0  0  0
  -28.2074  -27.6379   20.6995 C   0  0  0  0  0  0  0  0  0  0  0  0
  -26.6611  -20.5362   19.9834 C   0  0  0  0  0  0  0  0  0  0  0  0
  -27.2874  -17.8190   20.0688 C   0  0  0  0  0  0  0  0  0  0  0  0
  -22.7774   -8.5905   22.8611 C   0  0  0  0  0  0  0  0  0  0  0  0
  -30.1421  -26.4206   19.9134 C   0  0  0  0  0  0  0  0  0  0  0  0
  -21.7299   -6.6375   23.6426 C   0  0  0  0  0  0  0  0  0  0  0  0
  -21.1216   -3.9387   23.2840 C   0  0  0  0  0  0  0  0  0  0  0  0
  -22.1455   -5.6976   24.5857 C   0  0  0  0  0  0  0  0  0  0  0  0
  -25.0984  -10.4966   19.8815 C   0  0  0  0  0  0  0  0  0  0  0  0
  -25.9282  -11.1979   17.9698 C   0  0  0  0  0  0  0  0  0  0  0  0
  -30.2207  -23.6225   17.7414 C   0  0  0  0  0  0  0  0  0  0  0  0
  -23.9614  -17.1396   19.1324 C   0  0  0  0  0  0  0  0  0  0  0  0
  -24.8600  -17.2634   20.0966 C   0  0  0  0  0  0  0  0  0  0  0  0
  -30.2466  -24.9038   18.1353 C   0  0  0  0  0  0  0  0  0  1  0  0
  -29.0883  -21.1069   19.9547 C   0  0  0  0  0  0  0  0  0  0  0  0
  -23.9765   -9.6554   17.7254 C   0  0  0  0  0  0  0  0  0  0  0  0
  -26.1347  -30.7827   22.2451 C   0  0  0  0  0  0  0  0  0  0  0  0
  -25.1745  -29.3056   19.7339 C   0  0  0  0  0  0  0  0  0  0  0  0
  -24.6417  -27.8309   16.7043 C   0  0  0  0  0  0  0  0  0  0  0  0
  -28.9198  -15.9011   20.1228 C   0  0  0  0  0  0  0  0  0  0  0  0
  -22.8647  -34.6732   21.7670 C   0  0  0  0  0  0  0  0  0  0  0  0
  -28.3957  -29.9340   21.6667 C   0  0  0  0  0  0  0  0  0  0  0  0
  -26.7368  -27.7481   20.9964 C   0  0  0  0  0  0  0  0  0  0  0  0
  -29.7290  -23.2073   16.3778 C   0  0  0  0  0  0  0  0  0  0  0  0
  -30.6564  -22.4944   18.6392 C   0  0  0  0  0  0  0  0  0  0  0  0
  -22.8033  -33.1629   21.5538 C   0  0  0  0  0  0  0  0  0  0  0  0
  -28.6579  -22.1218   16.5024 C   0  0  0  0  0  0  0  0  0  0  0  0
  -30.3163  -12.8369   18.9662 C   0  0  0  0  0  0  0  0  0  0  0  0
  -23.3773  -32.4295   22.7618 C   0  0  0  0  0  0  0  0  0  0  0  0
  -29.1208  -11.8819   18.9368 C   0  0  0  0  0  0  0  0  0  0  0  0
  -29.1220  -20.9815   17.4081 C   0  0  0  0  0  0  0  0  0  0  0  0
  -30.2447  -13.7990   20.1507 C   0  0  0  0  0  0  0  0  0  0  0  0
  -27.7913  -13.5927   20.2380 C   0  0  0  0  0  0  0  0  0  0  0  0
  -24.8533  -32.7871   22.9742 C   0  0  1  0  0  0  0  0  0  0  0  0
  -26.9841  -30.2390   21.1341 C   0  0  1  0  0  0  0  0  0  0  0  0
  -27.7858  -12.6472   19.0257 C   0  0  2  0  0  0  0  0  0  0  0  0
  -26.2979  -21.9848   19.9375 C   0  0  0  0  0  0  0  0  0  0  0  0
  -22.8781  -27.5246   14.9456 C   0  0  0  0  0  0  0  0  0  0  0  0
  -23.7719  -27.2544   21.5029 C   0  0  0  0  0  0  0  0  0  0  0  0
  -22.6803  -26.3327   19.4469 C   0  0  0  0  0  0  0  0  0  0  0  0
  -22.2352  -28.6859   20.1450 C   0  0  0  0  0  0  0  0  0  0  0  0
  -26.2901  -29.1822   14.6510 C   0  0  0  0  0  0  0  0  0  0  0  0
  -24.4888  -28.0883   19.1669 C   0  0  1  0  0  0  0  0  0  0  0  0
  -24.0545  -28.3681   15.4116 C   0  0  2  0  0  0  0  0  0  0  0  0
  -23.3224  -27.5919   20.0673 C   0  0  0  0  0  0  0  0  0  0  0  0
  -26.1126  -11.2932   20.2291 N   0  0  0  0  0  0  0  0  0  0  0  0
  -26.5974  -11.7041   19.0450 N   0  0  0  0  0  0  0  0  0  0  0  0
  -29.5749  -21.5073   18.7067 N   0  0  0  0  0  0  0  0  0  0  0  0
  -26.2443  -29.0791   20.6083 N   0  0  0  0  0  0  0  0  0  0  0  0
  -28.9543  -14.4913   20.1678 N   0  0  0  0  0  0  0  0  0  0  0  0
  -26.2841  -11.5089   16.7053 N   0  0  0  0  0  0  0  0  0  0  0  0
  -23.0280   -8.8876   18.4148 N   0  0  0  0  0  0  0  0  0  0  0  0
  -27.6364  -16.4464   20.1112 N   0  0  0  0  0  0  0  0  0  0  0  0
  -25.6871  -32.0725   22.0315 N   0  0  0  0  0  0  0  0  0  0  0  0
  -24.0873  -28.4411   17.8095 N   0  0  0  0  0  0  0  0  0  0  0  0
  -25.0860  -28.3710   14.3360 N   0  3  0  0  0  0  0  0  0  0  0  0
  -29.4892  -21.5128   21.0446 O   0  0  0  0  0  0  0  0  0  0  0  0
  -23.9702   -9.6575   16.4711 O   0  0  0  0  0  0  0  0  0  0  0  0
  -25.9006  -30.0839   23.2242 O   0  0  0  0  0  0  0  0  0  0  0  0
  -24.7709  -30.4279   19.4163 O   0  0  0  0  0  0  0  0  0  0  0  0
  -25.5032  -26.9547   16.7311 O   0  0  0  0  0  0  0  0  0  0  0  0
  -29.9524  -16.5741   20.0691 O   0  0  0  0  0  0  0  0  0  0  0  0
  -22.0303   -7.9777   23.8196 O   0  0  0  0  0  0  0  0  0  0  0  0
  -30.6886  -25.2993   19.3666 O   0  0  0  0  0  0  0  0  0  1  0  0
  -20.8281   -2.6431   23.1124 F   0  0  0  0  0  0  0  0  0  0  0  0
  -22.8363   -6.0852   25.6666 F   0  0  0  0  0  0  0  0  0  0  0  0
  1  2  1  0  0  0  0
  1  5  2  0  0  0  0
  2  6  2  0  0  0  0
  3  8  2  0  0  0  0
  3 17  1  0  0  0  0
  4  9  1  0  0  0  0
  4 17  2  0  0  0  0
  5 21  1  0  0  0  0
  6 23  1  0  0  0  0
  7 10  2  0  0  0  0
  7 22  1  0  0  0  0
  8 27  1  0  0  0  0
  9 27  2  0  0  0  0
 10 28  1  0  0  0  0
 11 12  2  0  0  0  0
 11 29  1  0  0  0  0
 12 30  1  0  0  0  0
 13 18  1  0  0  0  0
 13 25  2  0  0  0  0
 14 19  2  0  0  0  0
 14 26  1  0  0  0  0
 15 24  1  0  0  0  0
 15 28  2  0  0  0  0
 16 30  2  0  0  0  0
 16 31  1  0  0  0  0
 17 32  1  0  0  0  0
 18 26  2  0  0  0  0
 18 36  1  0  0  0  0
 19 25  1  0  0  0  0
 19 38  1  0  0  0  0
 20 32  1  0  0  0  0
 20 33  2  0  0  0  0
 20 39  1  0  0  0  0
 21 23  2  0  0  0  0
 21 44  1  0  0  0  0
 22 24  2  0  0  0  0
 22 45  1  0  0  0  0
 23 57  1  0  0  0  0
 24 46  1  0  0  0  0
 25 60  1  0  0  0  0
 26 76  1  0  0  0  0
 27 86  1  0  0  0  0
 28 87  1  0  0  0  0
 29 31  2  0  0  0  0
 29 86  1  0  0  0  0
 30 88  1  0  0  0  0
 31 89  1  0  0  0  0
 32 69  2  0  0  0  0
 33 70  1  0  0  0  0
 33 74  1  0  0  0  0
 34 37  2  0  0  0  0
 34 47  1  0  0  0  0
 34 48  1  0  0  0  0
 35 36  2  0  0  0  0
 37 87  1  0  0  0  0
 38 71  1  0  0  0  0
 38 80  2  0  0  0  0
 39 75  1  0  0  0  0
 39 81  2  0  0  0  0
 40 58  1  0  0  0  0
 40 77  1  0  0  0  0
 40 82  2  0  0  0  0
 41 66  1  0  0  0  0
 41 72  1  0  0  0  0
 41 83  2  0  0  0  0
 42 67  1  0  0  0  0
 42 78  1  0  0  0  0
 42 84  2  0  0  0  0
 43 73  1  0  0  0  0
 43 76  1  0  0  0  0
 43 85  2  0  0  0  0
 44 49  1  0  0  0  0
 45 58  1  0  0  0  0
 46 72  1  0  0  0  0
 47 50  1  0  0  0  0
 48 71  1  0  0  0  0
 49 52  1  0  0  0  0
 50 54  1  0  0  0  0
 51 53  1  0  0  0  0
 51 55  1  0  0  0  0
 52 57  1  0  0  0  0
 53 59  1  0  0  0  0
 54 71  1  0  0  0  0
 55 73  1  0  0  0  0
 56 59  1  0  0  0  0
 56 73  1  0  0  0  0
 57 77  1  0  0  0  0
 58 72  1  0  0  0  0
 59 70  1  0  0  0  0
 61 67  1  0  0  0  0
 62 68  1  0  0  0  0
 63 68  1  0  0  0  0
 64 68  1  0  0  0  0
 65 79  1  0  0  0  0
 66 68  1  0  0  0  0
 66 78  1  0  0  0  0
 67 79  1  0  0  0  0
 69 70  1  0  0  0  0
M  CHG  1  79   1
M  ISO  4  37 101  43 100  76 100  87 101
M  END
> <Batch ID>
0117

> <Smiles>
C=Cc1cc(C)c(C(=O)N2CCCC(=[101CH:1][101O:1]c3ccc4c(c3)CN(C(=O)C(NC(=O)C(C)NC)C(C)(C)C)C(C(=O)NC3CCCc5ccccc53)C4)C2)cc1[100NH:0][100C:0](=O)N1CCCC(n2nc(-c3ccc(Oc4ccc(F)cc4F)cc3)c(C(N)=O)c2N)C1

> <Shape>
0.332

> <Color>
0.083

> <Negative vol penalty>
0.000

$$$$

  -OEChem-04052301463D

 84 92  0     1  0  0  0  0  0999 V2000
  -21.8913  -19.1566   33.2796 C   0  0  0  0  0  0  0  0  0  0  0  0
  -23.0875  -18.6905   32.7434 C   0  0  0  0  0  0  0  0  0  0  0  0
  -22.9925   -9.9046   19.9969 C   0  0  0  0  0  0  0  0  0  0  0  0
  -23.7749   -9.9448   22.2824 C   0  0  0  0  0  0  0  0  0  0  0  0
  -21.7713  -20.4938   33.6554 C   0  0  0  0  0  0  0  0  0  0  0  0
  -24.1641  -19.5619   32.5817 C   0  0  0  0  0  0  0  0  0  0  0  0
  -28.5454  -17.5432   34.1223 C   0  0  0  0  0  0  0  0  0  0  0  0
  -22.2348   -8.7673   20.2763 C   0  0  0  0  0  0  0  0  0  0  0  0
  -23.0171   -8.8076   22.5618 C   0  0  0  0  0  0  0  0  0  0  0  0
  -29.1630  -16.6327   33.2659 C   0  0  0  0  0  0  0  0  0  0  0  0
  -23.2551   -5.4716   22.0664 C   0  0  0  0  0  0  0  0  0  0  0  0
  -23.8630   -4.4515   22.7982 C   0  0  0  0  0  0  0  0  0  0  0  0
  -31.3928  -14.7748   23.5795 C   0  0  0  0  0  0  0  0  0  0  0  0
  -30.6558  -18.3688   32.5065 C   0  0  0  0  0  0  0  0  0  0  0  0
  -29.4069  -15.7314   25.2895 C   0  0  0  0  0  0  0  0  0  0  0  0
  -22.1810   -4.6826   24.5172 C   0  0  0  0  0  0  0  0  0  0  0  0
  -23.7626  -10.4933   20.9999 C   0  0  0  0  0  0  0  0  0  0  0  0
  -30.2705  -15.4159   23.0552 C   0  0  0  0  0  0  0  0  0  0  0  0
  -24.1392  -13.0105   20.8276 C   0  0  0  0  0  0  0  0  0  0  0  0
  -22.8502  -21.3798   33.5072 C   0  0  0  0  0  0  0  0  0  0  0  0
  -28.9720  -18.8782   34.1693 C   0  0  0  0  0  0  0  0  0  0  0  0
  -24.0580  -20.9126   32.9547 C   0  0  0  0  0  0  0  0  0  0  0  0
  -30.0437  -19.2936   33.3662 C   0  0  0  0  0  0  0  0  0  0  0  0
  -29.2775  -15.8942   23.9101 C   0  0  0  0  0  0  0  0  0  0  0  0
  -22.2470   -8.2188   21.5587 C   0  0  0  0  0  0  0  0  0  0  0  0
  -30.2164  -17.0462   32.4557 C   0  0  0  0  0  0  0  0  0  0  0  0
  -22.1103   -6.0972   22.5599 C   0  0  0  0  0  0  0  0  0  0  0  0
  -30.5293  -15.0902   25.8138 C   0  0  0  0  0  0  0  0  0  0  0  0
  -23.3259   -4.0570   24.0236 C   0  0  0  0  0  0  0  0  0  0  0  0
  -31.5222  -14.6119   24.9588 C   0  0  0  0  0  0  0  0  0  0  0  0
  -21.5732   -5.7027   23.7853 C   0  0  0  0  0  0  0  0  0  0  0  0
  -24.5460  -11.6677   20.7118 C   0  0  0  0  0  0  0  0  0  0  0  0
  -25.2383  -13.7369   20.4394 C   0  0  0  0  0  0  0  0  0  0  0  0
  -31.3505  -15.6486   29.3367 C   0  0  0  0  0  0  0  0  0  0  0  0
  -30.8006  -16.4246   30.2778 C   0  0  0  0  0  0  0  0  0  1  0  0
  -30.1599  -15.5703   21.6109 C   0  0  0  0  0  0  0  0  0  0  0  0
  -22.8804  -13.5526   21.2485 C   0  0  0  0  0  0  0  0  0  0  0  0
  -30.7621  -14.5851   20.6835 C   0  0  0  0  0  0  0  0  0  0  0  0
  -27.6220  -21.6876   33.5463 C   0  0  0  0  0  0  0  0  0  0  0  0
  -30.4119  -22.8502   34.7241 C   0  0  0  0  0  0  0  0  0  0  0  0
  -33.7253  -22.3375   35.3606 C   0  0  0  0  0  0  0  0  0  0  0  0
  -22.6577  -22.8274   33.8838 C   0  0  0  0  0  0  0  0  0  0  0  0
  -28.3129  -19.8415   35.1180 C   0  0  0  0  0  0  0  0  0  0  0  0
  -30.5527  -20.7109   33.3940 C   0  0  0  0  0  0  0  0  0  0  0  0
  -23.9671  -23.5987   34.0276 C   0  0  0  0  0  0  0  0  0  0  0  0
  -29.5353  -12.2931   18.2140 C   0  0  0  0  0  0  0  0  0  0  0  0
  -24.8897  -23.3089   32.8478 C   0  0  0  0  0  0  0  0  0  0  0  0
  -28.1070  -12.0070   18.6765 C   0  0  0  0  0  0  0  0  0  0  0  0
  -30.4738  -12.5037   19.3977 C   0  0  0  0  0  0  0  0  0  0  0  0
  -28.5921  -13.2901   20.8081 C   0  0  0  0  0  0  0  0  0  0  0  0
  -25.2564  -21.8212   32.7867 C   0  0  1  0  0  0  0  0  0  0  0  0
  -28.4918  -21.3002   34.7086 C   0  0  1  0  0  0  0  0  0  0  0  0
  -27.6093  -13.0993   19.6397 C   0  0  2  0  0  0  0  0  0  0  0  0
  -28.0649  -16.5831   23.3747 C   0  0  0  0  0  0  0  0  0  0  0  0
  -35.7524  -23.4848   36.2946 C   0  0  0  0  0  0  0  0  0  0  0  0
  -30.6799  -24.4668   32.1502 C   0  0  0  0  0  0  0  0  0  0  0  0
  -33.0946  -24.8227   32.7074 C   0  0  0  0  0  0  0  0  0  0  0  0
  -31.3230  -25.7002   34.2286 C   0  0  0  0  0  0  0  0  0  0  0  0
  -34.0109  -20.3305   37.5169 C   0  0  0  0  0  0  0  0  0  0  0  0
  -31.3152  -15.9719   27.8780 C   0  0  0  0  0  0  0  0  0  0  0  0
  -31.7538  -23.2108   34.1339 C   0  0  1  0  0  0  0  0  0  0  0  0
  -34.5632  -22.5879   36.6015 C   0  0  2  0  0  0  0  0  0  0  0  0
  -31.7022  -24.5238   33.3029 C   0  0  0  0  0  0  0  0  0  0  0  0
  -25.8052  -11.5456   20.2834 N   0  0  0  0  0  0  0  0  0  0  0  0
  -29.5343  -16.5650   21.0447 N   0  0  0  0  0  0  0  0  0  0  0  0
  -26.1991  -12.8209   20.1266 N   0  0  0  0  0  0  0  0  0  0  0  0
  -29.9541  -13.5203   20.3101 N   0  0  0  0  0  0  0  0  0  0  0  0
  -29.8715  -21.6168   34.3336 N   0  0  0  0  0  0  0  0  0  0  0  0
  -25.4670  -15.0636   20.3385 N   0  0  0  0  0  0  0  0  0  0  0  0
  -21.8590  -12.6648   21.6130 N   0  0  0  0  0  0  0  0  0  0  0  0
  -26.2702  -21.5098   33.7714 N   0  0  0  0  0  0  0  0  0  0  0  0
  -32.6940  -23.2458   35.2489 N   0  0  0  0  0  0  0  0  0  0  0  0
  -35.0749  -21.3000   37.1496 N   0  3  0  0  0  0  0  0  0  0  0  0
  -22.6623  -14.7873   21.2842 O   0  0  0  0  0  0  0  0  0  0  0  0
  -31.9152  -14.8166   20.3441 O   0  0  0  0  0  0  0  0  0  0  0  0
  -28.1388  -22.1176   32.5218 O   0  0  0  0  0  0  0  0  0  0  0  0
  -29.8668  -23.6308   35.5083 O   0  0  0  0  0  0  0  0  0  0  0  0
  -33.9643  -21.4294   34.5677 O   0  0  0  0  0  0  0  0  0  0  0  0
  -21.5075   -7.1092   21.8318 O   0  0  0  0  0  0  0  0  0  0  0  0
  -30.8206  -16.1597   31.6184 O   0  0  0  0  0  0  0  0  0  1  0  0
  -30.6547  -14.9315   27.1692 O   0  0  0  0  0  0  0  0  0  0  0  0
  -23.9088   -3.0764   24.7256 F   0  0  0  0  0  0  0  0  0  0  0  0
  -32.6020  -13.9936   25.4565 F   0  0  0  0  0  0  0  0  0  0  0  0
  -20.4729   -6.2992   24.2641 F   0  0  0  0  0  0  0  0  0  0  0  0
  1  2  1  0  0  0  0
  1  5  2  0  0  0  0
  2  6  2  0  0  0  0
  3  8  2  0  0  0  0
  3 17  1  0  0  0  0
  4  9  1  0  0  0  0
  4 17  2  0  0  0  0
  5 20  1  0  0  0  0
  6 22  1  0  0  0  0
  7 10  2  0  0  0  0
  7 21  1  0  0  0  0
  8 25  1  0  0  0  0
  9 25  2  0  0  0  0
 10 26  1  0  0  0  0
 11 12  2  0  0  0  0
 11 27  1  0  0  0  0
 12 29  1  0  0  0  0
 13 18  2  0  0  0  0
 13 30  1  0  0  0  0
 14 23  1  0  0  0  0
 14 26  2  0  0  0  0
 15 24  2  0  0  0  0
 15 28  1  0  0  0  0
 16 29  2  0  0  0  0
 16 31  1  0  0  0  0
 17 32  1  0  0  0  0
 18 24  1  0  0  0  0
 18 36  1  0  0  0  0
 19 32  1  0  0  0  0
 19 33  2  0  0  0  0
 19 37  1  0  0  0  0
 20 22  2  0  0  0  0
 20 42  1  0  0  0  0
 21 23  2  0  0  0  0
 21 43  1  0  0  0  0
 22 51  1  0  0  0  0
 23 44  1  0  0  0  0
 24 54  1  0  0  0  0
 25 79  1  0  0  0  0
 26 80  1  0  0  0  0
 27 31  2  0  0  0  0
 27 79  1  0  0  0  0
 28 30  2  0  0  0  0
 28 81  1  0  0  0  0
 29 82  1  0  0  0  0
 30 83  1  0  0  0  0
 31 84  1  0  0  0  0
 32 64  2  0  0  0  0
 33 66  1  0  0  0  0
 33 69  1  0  0  0  0
 34 35  2  0  0  0  0
 34 60  1  0  0  0  0
 35 80  1  0  0  0  0
 36 38  1  0  0  0  0
 36 65  2  0  0  0  0
 37 70  1  0  0  0  0
 37 74  2  0  0  0  0
 38 67  1  0  0  0  0
 38 75  2  0  0  0  0
 39 52  1  0  0  0  0
 39 71  1  0  0  0  0
 39 76  2  0  0  0  0
 40 61  1  0  0  0  0
 40 68  1  0  0  0  0
 40 77  2  0  0  0  0
 41 62  1  0  0  0  0
 41 72  1  0  0  0  0
 41 78  2  0  0  0  0
 42 45  1  0  0  0  0
 43 52  1  0  0  0  0
 44 68  1  0  0  0  0
 45 47  1  0  0  0  0
 46 48  1  0  0  0  0
 46 49  1  0  0  0  0
 47 51  1  0  0  0  0
 48 53  1  0  0  0  0
 49 67  1  0  0  0  0
 50 53  1  0  0  0  0
 50 67  1  0  0  0  0
 51 71  1  0  0  0  0
 52 68  1  0  0  0  0
 53 66  1  0  0  0  0
 55 62  1  0  0  0  0
 56 63  1  0  0  0  0
 57 63  1  0  0  0  0
 58 63  1  0  0  0  0
 59 73  1  0  0  0  0
 60 81  1  0  0  0  0
 61 63  1  0  0  0  0
 61 72  1  0  0  0  0
 62 73  1  0  0  0  0
 64 66  1  0  0  0  0
M  CHG  1  73   1
M  ISO  4  35 101  36 100  38 100  80 101
M  END
> <Batch ID>
0117

> <Smiles>
CNC(C)C(=O)NC(C(=O)N1Cc2cc([101O:1][101CH:1]=CCOc3cc(C)c([100C:0](=N)[100C:0](=O)N4CCCC(n5nc(-c6ccc(Oc7ccc(F)cc7F)cc6)c(C(N)=O)c5N)C4)cc3F)ccc2CC1C(=O)NC1CCCc2ccccc21)C(C)(C)C

> <Shape>
0.167

> <Color>
0.195

> <Negative vol penalty>
0.000

$$$$

  -OEChem-04052301463D

 84 92  0     1  0  0  0  0  0999 V2000
  -32.3508  -32.7643   21.5363 C   0  0  0  0  0  0  0  0  0  0  0  0
  -31.9091  -31.4455   21.5013 C   0  0  0  0  0  0  0  0  0  0  0  0
  -24.6893   -8.8311   21.5001 C   0  0  0  0  0  0  0  0  0  0  0  0
  -23.1418  -10.5572   20.8197 C   0  0  0  0  0  0  0  0  0  0  0  0
  -31.6165  -33.7260   22.2289 C   0  0  0  0  0  0  0  0  0  0  0  0
  -30.7333  -31.0876   22.1599 C   0  0  0  0  0  0  0  0  0  0  0  0
  -27.7673  -28.0944   19.3512 C   0  0  0  0  0  0  0  0  0  0  0  0
  -23.7590   -8.3626   22.4277 C   0  0  0  0  0  0  0  0  0  0  0  0
  -22.2114  -10.0886   21.7473 C   0  0  0  0  0  0  0  0  0  0  0  0
  -28.1202  -26.7484   19.2649 C   0  0  0  0  0  0  0  0  0  0  0  0
  -21.6528   -6.4884   24.7227 C   0  0  0  0  0  0  0  0  0  0  0  0
  -21.4484   -5.1107   24.7970 C   0  0  0  0  0  0  0  0  0  0  0  0
  -26.4574  -26.2120   20.9281 C   0  0  0  0  0  0  0  0  0  0  0  0
  -25.6880  -18.0195   18.8215 C   0  0  0  0  0  0  0  0  0  0  0  0
  -27.7369  -18.7864   19.8468 C   0  0  0  0  0  0  0  0  0  0  0  0
  -20.7538   -5.0890   22.4831 C   0  0  0  0  0  0  0  0  0  0  0  0
  -24.3808   -9.9284   20.6961 C   0  0  0  0  0  0  0  0  0  0  0  0
  -25.8917  -20.3162   19.5431 C   0  0  0  0  0  0  0  0  0  0  0  0
  -25.4819  -10.0104   18.3964 C   0  0  0  0  0  0  0  0  0  0  0  0
  -30.4260  -33.3816   22.8883 C   0  0  0  0  0  0  0  0  0  0  0  0
  -26.7625  -28.5115   20.2360 C   0  0  0  0  0  0  0  0  0  0  0  0
  -29.9831  -32.0453   22.8632 C   0  0  0  0  0  0  0  0  0  0  0  0
  -26.0918  -27.5635   21.0219 C   0  0  0  0  0  0  0  0  0  0  0  0
  -25.1409  -19.2950   18.9609 C   0  0  0  0  0  0  0  0  0  0  0  0
  -27.1898  -20.0619   19.9861 C   0  0  0  0  0  0  0  0  0  0  0  0
  -26.9860  -17.7652   19.2645 C   0  0  0  0  0  0  0  0  0  0  0  0
  -22.5200   -8.9913   22.5513 C   0  0  0  0  0  0  0  0  0  0  0  0
  -27.4672  -25.8073   20.0555 C   0  0  0  0  0  0  0  0  0  0  0  0
  -21.4076   -7.1665   23.5286 C   0  0  0  0  0  0  0  0  0  0  0  0
  -20.9989   -4.4109   23.6772 C   0  0  0  0  0  0  0  0  0  0  0  0
  -20.9581   -6.4668   22.4088 C   0  0  0  0  0  0  0  0  0  0  0  0
  -25.3416  -10.4132   19.7380 C   0  0  0  0  0  0  0  0  0  0  0  0
  -26.5283  -10.7619   17.9200 C   0  0  0  0  0  0  0  0  0  0  0  0
  -24.6663  -22.0517   20.7685 C   0  0  0  0  0  0  0  0  0  0  0  0
  -25.3176  -21.6508   19.6892 C   0  0  0  0  0  0  0  0  0  0  0  0
  -28.6986  -21.7646   19.7651 C   0  0  0  0  0  0  0  0  0  0  0  0
  -24.7333   -9.0436   17.6478 C   0  0  0  0  0  0  0  0  0  0  0  0
  -26.6544  -30.4449   22.7568 C   0  0  0  0  0  0  0  0  0  0  0  0
  -23.4664  -29.8768   22.5661 C   0  0  0  0  0  0  0  0  0  0  0  0
  -20.9467  -27.8205   21.5320 C   0  0  0  0  0  0  0  0  0  0  0  0
  -28.8138  -16.0490   19.5100 C   0  0  0  0  0  0  0  0  0  0  0  0
  -29.6913  -34.4464   23.6636 C   0  0  0  0  0  0  0  0  0  0  0  0
  -26.3751  -29.9636   20.2978 C   0  0  0  0  0  0  0  0  0  0  0  0
  -24.9922  -27.9570   21.9730 C   0  0  0  0  0  0  0  0  0  0  0  0
  -28.2584  -34.0601   24.0212 C   0  0  0  0  0  0  0  0  0  0  0  0
  -30.5405  -12.9384   19.3688 C   0  0  0  0  0  0  0  0  0  0  0  0
  -28.2118  -32.6421   24.5813 C   0  0  0  0  0  0  0  0  0  0  0  0
  -29.4160  -11.9015   19.3192 C   0  0  0  0  0  0  0  0  0  0  0  0
  -30.1834  -14.1196   20.2694 C   0  0  0  0  0  0  0  0  0  0  0  0
  -27.7767  -13.7304   19.9150 C   0  0  0  0  0  0  0  0  0  0  0  0
  -28.6995  -31.6230   23.5444 C   0  0  1  0  0  0  0  0  0  0  0  0
  -25.6917  -30.3444   21.6075 C   0  0  1  0  0  0  0  0  0  0  0  0
  -28.0638  -12.5529   18.9690 C   0  0  2  0  0  0  0  0  0  0  0  0
  -23.7466  -19.5277   18.4722 C   0  0  0  0  0  0  0  0  0  0  0  0
  -18.4467  -27.6039   21.5531 C   0  0  0  0  0  0  0  0  0  0  0  0
  -23.5655  -29.0476   25.5008 C   0  0  0  0  0  0  0  0  0  0  0  0
  -21.3271  -27.9673   25.1990 C   0  0  0  0  0  0  0  0  0  0  0  0
  -21.5767  -30.4279   24.8734 C   0  0  0  0  0  0  0  0  0  0  0  0
  -20.8027  -27.8556   18.5761 C   0  0  0  0  0  0  0  0  0  0  0  0
  -29.5669  -22.8813   20.2800 C   0  0  0  0  0  0  0  0  0  0  0  0
  -29.1632  -24.1949   19.6319 C   0  0  0  0  0  0  0  0  0  1  0  0
  -22.5276  -28.8462   23.1454 C   0  0  1  0  0  0  0  0  0  0  0  0
  -19.6579  -28.1051   20.7820 C   0  0  2  0  0  0  0  0  0  0  0  0
  -22.2712  -29.0648   24.6632 C   0  0  0  0  0  0  0  0  0  0  0  0
  -26.2281  -11.3478   20.0912 N   0  0  0  0  0  0  0  0  0  0  0  0
  -27.9710  -21.0692   20.5768 N   0  0  0  0  0  0  0  0  0  0  0  0
  -26.9355  -11.5385   18.9646 N   0  0  0  0  0  0  0  0  0  0  0  0
  -24.6539  -29.3896   22.0020 N   0  0  0  0  0  0  0  0  0  0  0  0
  -28.8926  -14.6886   19.8759 N   0  0  0  0  0  0  0  0  0  0  0  0
  -27.1306  -10.8274   16.7136 N   0  0  0  0  0  0  0  0  0  0  0  0
  -23.6912   -8.3617   18.2908 N   0  0  0  0  0  0  0  0  0  0  0  0
  -27.5416  -16.4693   19.1235 N   0  0  0  0  0  0  0  0  0  0  0  0
  -27.6665  -31.3657   22.5640 N   0  0  0  0  0  0  0  0  0  0  0  0
  -21.3224  -28.8847   22.3242 N   0  0  0  0  0  0  0  0  0  0  0  0
  -19.6758  -27.4380   19.4495 N   0  3  0  0  0  0  0  0  0  0  0  0
  -24.9918   -8.7799   16.4490 O   0  0  0  0  0  0  0  0  0  0  0  0
  -26.4902  -29.7402   23.7458 O   0  0  0  0  0  0  0  0  0  0  0  0
  -23.1542  -31.0695   22.6061 O   0  0  0  0  0  0  0  0  0  0  0  0
  -21.5571  -26.7587   21.4284 O   0  0  0  0  0  0  0  0  0  0  0  0
  -29.8075  -16.7800   19.5115 O   0  0  0  0  0  0  0  0  0  0  0  0
  -21.6118   -8.5343   23.4562 O   0  0  0  0  0  0  0  0  0  0  0  0
  -27.8102  -24.4930   19.9737 O   0  0  0  0  0  0  0  0  0  1  0  0
  -20.8041   -3.0876   23.7482 F   0  0  0  0  0  0  0  0  0  0  0  0
  -20.7220   -7.1126   21.2586 F   0  0  0  0  0  0  0  0  0  0  0  0
  1  2  1  0  0  0  0
  1  5  2  0  0  0  0
  2  6  2  0  0  0  0
  3  8  2  0  0  0  0
  3 17  1  0  0  0  0
  4  9  1  0  0  0  0
  4 17  2  0  0  0  0
  5 20  1  0  0  0  0
  6 22  1  0  0  0  0
  7 10  2  0  0  0  0
  7 21  1  0  0  0  0
  8 27  1  0  0  0  0
  9 27  2  0  0  0  0
 10 28  1  0  0  0  0
 11 12  2  0  0  0  0
 11 29  1  0  0  0  0
 12 30  1  0  0  0  0
 13 23  1  0  0  0  0
 13 28  2  0  0  0  0
 14 24  2  0  0  0  0
 14 26  1  0  0  0  0
 15 25  1  0  0  0  0
 15 26  2  0  0  0  0
 16 30  2  0  0  0  0
 16 31  1  0  0  0  0
 17 32  1  0  0  0  0
 18 24  1  0  0  0  0
 18 25  2  0  0  0  0
 18 35  1  0  0  0  0
 19 32  1  0  0  0  0
 19 33  2  0  0  0  0
 19 37  1  0  0  0  0
 20 22  2  0  0  0  0
 20 42  1  0  0  0  0
 21 23  2  0  0  0  0
 21 43  1  0  0  0  0
 22 51  1  0  0  0  0
 23 44  1  0  0  0  0
 24 54  1  0  0  0  0
 25 66  1  0  0  0  0
 26 72  1  0  0  0  0
 27 81  1  0  0  0  0
 28 82  1  0  0  0  0
 29 31  2  0  0  0  0
 29 81  1  0  0  0  0
 30 83  1  0  0  0  0
 31 84  1  0  0  0  0
 32 65  2  0  0  0  0
 33 67  1  0  0  0  0
 33 70  1  0  0  0  0
 34 35  2  0  0  0  0
 36 60  1  0  0  0  0
 36 66  2  0  0  0  0
 37 71  1  0  0  0  0
 37 76  2  0  0  0  0
 38 52  1  0  0  0  0
 38 73  1  0  0  0  0
 38 77  2  0  0  0  0
 39 62  1  0  0  0  0
 39 68  1  0  0  0  0
 39 78  2  0  0  0  0
 40 63  1  0  0  0  0
 40 74  1  0  0  0  0
 40 79  2  0  0  0  0
 41 69  1  0  0  0  0
 41 72  1  0  0  0  0
 41 80  2  0  0  0  0
 42 45  1  0  0  0  0
 43 52  1  0  0  0  0
 44 68  1  0  0  0  0
 45 47  1  0  0  0  0
 46 48  1  0  0  0  0
 46 49  1  0  0  0  0
 47 51  1  0  0  0  0
 48 53  1  0  0  0  0
 49 69  1  0  0  0  0
 50 53  1  0  0  0  0
 50 69  1  0  0  0  0
 51 73  1  0  0  0  0
 52 68  1  0  0  0  0
 53 67  1  0  0  0  0
 55 63  1  0  0  0  0
 56 64  1  0  0  0  0
 57 64  1  0  0  0  0
 58 64  1  0  0  0  0
 59 75  1  0  0  0  0
 60 61  1  0  0  0  0
 61 82  1  0  0  0  0
 62 64  1  0  0  0  0
 62 74  1  0  0  0  0
 63 75  1  0  0  0  0
 65 67  1  0  0  0  0
M  CHG  1  75   1
M  ISO  4  41 100  61 101  72 100  82 101
M  END
> <Batch ID>
0117

> <Smiles>
C=Cc1c(C)cc([100NH:0][100C:0](=O)N2CCCC(n3nc(-c4ccc(Oc5ccc(F)cc5F)cc4)c(C(N)=O)c3N)C2)cc1NC=C[101CH2:1][101O:1]c1ccc2c(c1)CN(C(=O)C(NC(=O)C(C)NC)C(C)(C)C)C(C(=O)NC1CCCc3ccccc31)C2

> <Shape>
0.278

> <Color>
0.082

> <Negative vol penalty>
0.000

$$$$

  -OEChem-04052301463D

 85 93  0     1  0  0  0  0  0999 V2000
  -17.6186  -26.1824   20.6838 C   0  0  0  0  0  0  0  0  0  0  0  0
  -18.9265  -26.0276   20.2358 C   0  0  0  0  0  0  0  0  0  0  0  0
  -26.6866  -12.0882   21.6915 C   0  0  0  0  0  0  0  0  0  0  0  0
  -26.0696  -13.1167   19.5943 C   0  0  0  0  0  0  0  0  0  0  0  0
  -17.3352  -27.0893   21.7042 C   0  0  0  0  0  0  0  0  0  0  0  0
  -19.9517  -26.7804   20.8072 C   0  0  0  0  0  0  0  0  0  0  0  0
  -24.0655  -24.0067   21.8214 C   0  0  0  0  0  0  0  0  0  0  0  0
  -25.5237  -11.3189   21.6564 C   0  0  0  0  0  0  0  0  0  0  0  0
  -24.9067  -12.3473   19.5591 C   0  0  0  0  0  0  0  0  0  0  0  0
  -24.9020  -23.6934   20.7509 C   0  0  0  0  0  0  0  0  0  0  0  0
  -24.0427   -9.1765   18.7718 C   0  0  0  0  0  0  0  0  0  0  0  0
  -23.7087   -8.5643   17.5638 C   0  0  0  0  0  0  0  0  0  0  0  0
  -26.3942  -25.4727   21.4039 C   0  0  0  0  0  0  0  0  0  0  0  0
  -21.6208   -9.7792   17.5252 C   0  0  0  0  0  0  0  0  0  0  0  0
  -26.9596  -12.9872   20.6605 C   0  0  0  0  0  0  0  0  0  0  0  0
  -29.4187  -13.4472   20.1616 C   0  0  0  0  0  0  0  0  0  0  0  0
  -18.3589  -27.8466   22.2950 C   0  0  0  0  0  0  0  0  0  0  0  0
  -24.3821  -25.0642   22.6862 C   0  0  0  0  0  0  0  0  0  0  0  0
  -19.6816  -27.6993   21.8355 C   0  0  0  0  0  0  0  0  0  0  0  0
  -25.5614  -25.7958   22.4861 C   0  0  0  0  0  0  0  0  0  0  0  0
  -24.6337  -11.4484   20.5902 C   0  0  0  0  0  0  0  0  0  0  0  0
  -26.0650  -24.4283   20.5403 C   0  0  0  0  0  0  0  0  0  0  0  0
  -23.1656  -10.0901   19.3565 C   0  0  0  0  0  0  0  0  0  0  0  0
  -22.4978   -8.8656   16.9405 C   0  0  0  0  0  0  0  0  0  0  0  0
  -21.9547  -10.3914   18.7332 C   0  0  0  0  0  0  0  0  0  0  0  0
  -28.1605  -13.7827   20.6965 C   0  0  0  0  0  0  0  0  0  0  0  0
  -30.2156  -14.5266   20.4555 C   0  0  0  0  0  0  0  0  0  0  0  0
  -29.5558  -22.5799   20.0206 C   0  0  0  0  0  0  0  0  0  0  0  0
  -29.4447  -22.5598   21.3496 C   0  0  0  0  0  0  0  0  0  0  0  0
  -29.7399  -23.7872   22.1294 C   0  0  0  0  0  0  0  0  0  0  0  0
  -30.2429  -24.9143   19.9412 C   0  0  0  0  0  0  0  0  0  0  0  0
  -27.1125  -25.0910   18.5568 C   0  0  0  0  0  0  0  0  0  1  0  0
  -29.8303  -12.2656   19.4615 C   0  0  0  0  0  0  0  0  0  0  0  0
  -27.8950  -24.9292   17.4785 C   0  0  0  0  0  0  0  0  0  0  0  0
  -22.9949  -27.8156   23.4668 C   0  0  0  0  0  0  0  0  0  0  0  0
  -25.4083  -27.9704   25.6287 C   0  0  0  0  0  0  0  0  0  0  0  0
  -28.5555  -27.0076   26.5315 C   0  0  0  0  0  0  0  0  0  0  0  0
  -28.7608  -20.2286   21.4144 C   0  0  0  0  0  0  0  0  0  0  0  0
  -17.9970  -28.8487   23.3625 C   0  0  0  0  0  0  0  0  0  0  0  0
  -23.4830  -25.3724   23.8520 C   0  0  0  0  0  0  0  0  0  0  0  0
  -25.9569  -26.9276   23.3978 C   0  0  0  0  0  0  0  0  0  0  0  0
  -19.1959  -29.3359   24.1722 C   0  0  0  0  0  0  0  0  0  0  0  0
  -30.7549  -18.0418   23.6282 C   0  0  0  0  0  0  0  0  0  0  0  0
  -20.3526  -29.7001   23.2469 C   0  0  0  0  0  0  0  0  0  0  0  0
  -30.3743  -16.6628   23.0978 C   0  0  0  0  0  0  0  0  0  0  0  0
  -29.5962  -19.0335   23.5316 C   0  0  0  0  0  0  0  0  0  0  0  0
  -28.6417  -17.7645   21.6286 C   0  0  0  0  0  0  0  0  0  0  0  0
  -20.8247  -28.4799   22.4472 C   0  0  1  0  0  0  0  0  0  0  0  0
  -23.6401  -26.7999   24.3667 C   0  0  1  0  0  0  0  0  0  0  0  0
  -29.8099  -16.7674   21.6730 C   0  0  2  0  0  0  0  0  0  0  0  0
  -28.0949  -26.0562   16.5040 C   0  0  0  0  0  0  0  0  0  0  0  0
  -30.2727  -27.3275   28.3332 C   0  0  0  0  0  0  0  0  0  0  0  0
  -26.0729  -30.7272   24.5024 C   0  0  0  0  0  0  0  0  0  0  0  0
  -28.2982  -30.5787   25.6400 C   0  0  0  0  0  0  0  0  0  0  0  0
  -26.2034  -30.5592   26.9942 C   0  0  0  0  0  0  0  0  0  0  0  0
  -30.4234  -26.1194   22.0927 C   0  0  0  0  0  0  0  0  0  0  0  0
  -28.5418  -24.1285   27.2168 C   0  0  0  0  0  0  0  0  0  0  0  0
  -28.6442  -23.6460   17.1909 C   0  0  0  0  0  0  0  0  0  0  0  0
  -30.0159  -23.5742   17.8595 C   0  0  0  0  0  0  0  0  0  0  0  0
  -26.8132  -28.5231   25.6250 C   0  0  1  0  0  0  0  0  0  0  0  0
  -29.1102  -26.4790   27.8420 C   0  0  2  0  0  0  0  0  0  0  0  0
  -26.8388  -30.0770   25.6719 C   0  0  0  0  0  0  0  0  0  0  0  0
  -28.1536  -14.9813   21.2857 N   0  0  0  0  0  0  0  0  0  0  0  0
  -29.4174  -15.4084   21.1229 N   0  0  0  0  0  0  0  0  0  0  0  0
  -29.9384  -23.6948   19.2905 N   0  0  0  0  0  0  0  0  0  0  0  0
  -30.1249  -24.8945   21.3576 N   0  0  0  0  0  0  0  0  0  0  0  0
  -25.0419  -27.1944   24.5199 N   0  0  0  0  0  0  0  0  0  0  0  0
  -29.0275  -19.0721   22.1745 N   0  0  0  0  0  0  0  0  0  0  0  0
  -31.5142  -14.7978   20.2056 N   0  0  0  0  0  0  0  0  0  0  0  0
  -28.8848  -11.2540   19.2445 N   0  0  0  0  0  0  0  0  0  0  0  0
  -29.0642  -21.4388   22.0324 N   0  0  0  0  0  0  0  0  0  0  0  0
  -21.6408  -27.6179   23.2752 N   0  0  0  0  0  0  0  0  0  0  0  0
  -27.5077  -27.8803   26.7354 N   0  0  0  0  0  0  0  0  0  0  0  0
  -29.5891  -25.0778   27.6741 N   0  3  0  0  0  0  0  0  0  0  0  0
  -29.6398  -23.7838   23.3555 O   0  0  0  0  0  0  0  0  0  0  0  0
  -30.5855  -25.9204   19.3127 O   0  0  0  0  0  0  0  0  0  0  0  0
  -31.0061  -12.1043   19.0553 O   0  0  0  0  0  0  0  0  0  0  0  0
  -23.6750  -28.7131   22.9834 O   0  0  0  0  0  0  0  0  0  0  0  0
  -24.6659  -28.2121   26.5837 O   0  0  0  0  0  0  0  0  0  0  0  0
  -29.0091  -26.6819   25.4366 O   0  0  0  0  0  0  0  0  0  0  0  0
  -28.2801  -20.1767   20.2765 O   0  0  0  0  0  0  0  0  0  0  0  0
  -23.4989  -10.6977   20.5555 O   0  0  0  0  0  0  0  0  0  0  0  0
  -26.8829  -24.1249   19.4958 O   0  0  0  0  0  0  0  0  0  1  0  0
  -22.1780   -8.2788   15.7797 F   0  0  0  0  0  0  0  0  0  0  0  0
  -21.1086  -11.2692   19.2896 F   0  0  0  0  0  0  0  0  0  0  0  0
  1  2  1  0  0  0  0
  1  5  2  0  0  0  0
  2  6  2  0  0  0  0
  3  8  2  0  0  0  0
  3 15  1  0  0  0  0
  4  9  1  0  0  0  0
  4 15  2  0  0  0  0
  5 17  1  0  0  0  0
  6 19  1  0  0  0  0
  7 10  2  0  0  0  0
  7 18  1  0  0  0  0
  8 21  1  0  0  0  0
  9 21  2  0  0  0  0
 10 22  1  0  0  0  0
 11 12  2  0  0  0  0
 11 23  1  0  0  0  0
 12 24  1  0  0  0  0
 13 20  1  0  0  0  0
 13 22  2  0  0  0  0
 14 24  2  0  0  0  0
 14 25  1  0  0  0  0
 15 26  1  0  0  0  0
 16 26  1  0  0  0  0
 16 27  2  0  0  0  0
 16 33  1  0  0  0  0
 17 19  2  0  0  0  0
 17 39  1  0  0  0  0
 18 20  2  0  0  0  0
 18 40  1  0  0  0  0
 19 48  1  0  0  0  0
 20 41  1  0  0  0  0
 21 82  1  0  0  0  0
 22 83  1  0  0  0  0
 23 25  2  0  0  0  0
 23 82  1  0  0  0  0
 24 84  1  0  0  0  0
 25 85  1  0  0  0  0
 26 63  2  0  0  0  0
 27 64  1  0  0  0  0
 27 69  1  0  0  0  0
 28 29  2  0  0  0  0
 28 65  1  0  0  0  0
 29 30  1  0  0  0  0
 29 71  1  0  0  0  0
 30 66  1  0  0  0  0
 30 75  2  0  0  0  0
 31 65  1  0  0  0  0
 31 66  1  0  0  0  0
 31 76  2  0  0  0  0
 32 34  2  0  0  0  0
 32 83  1  0  0  0  0
 33 70  1  0  0  0  0
 33 77  2  0  0  0  0
 34 51  1  0  0  0  0
 34 58  1  0  0  0  0
 35 49  1  0  0  0  0
 35 72  1  0  0  0  0
 35 78  2  0  0  0  0
 36 60  1  0  0  0  0
 36 67  1  0  0  0  0
 36 79  2  0  0  0  0
 37 61  1  0  0  0  0
 37 73  1  0  0  0  0
 37 80  2  0  0  0  0
 38 68  1  0  0  0  0
 38 71  1  0  0  0  0
 38 81  2  0  0  0  0
 39 42  1  0  0  0  0
 40 49  1  0  0  0  0
 41 67  1  0  0  0  0
 42 44  1  0  0  0  0
 43 45  1  0  0  0  0
 43 46  1  0  0  0  0
 44 48  1  0  0  0  0
 45 50  1  0  0  0  0
 46 68  1  0  0  0  0
 47 50  1  0  0  0  0
 47 68  1  0  0  0  0
 48 72  1  0  0  0  0
 49 67  1  0  0  0  0
 50 64  1  0  0  0  0
 52 61  1  0  0  0  0
 53 62  1  0  0  0  0
 54 62  1  0  0  0  0
 55 62  1  0  0  0  0
 56 66  1  0  0  0  0
 57 74  1  0  0  0  0
 58 59  1  0  0  0  0
 59 65  1  0  0  0  0
 60 62  1  0  0  0  0
 60 73  1  0  0  0  0
 61 74  1  0  0  0  0
 63 64  1  0  0  0  0
M  CHG  1  74   1
M  ISO  4  32 101  38 100  71 100  83 101
M  END
> <Batch ID>
0117

> <Smiles>
CNC(C)C(=O)NC(C(=O)N1Cc2cc([101O:1][101CH:1]=C(C)CCn3cc([100NH:0][100C:0](=O)N4CCCC(n5nc(-c6ccc(Oc7ccc(F)cc7F)cc6)c(C(N)=O)c5N)C4)c(=O)n(C)c3=O)ccc2CC1C(=O)NC1CCCc2ccccc21)C(C)(C)C

> <Shape>
0.266

> <Color>
0.077

> <Negative vol penalty>
0.000

$$$$

  -OEChem-04052301463D

 87 95  0     1  0  0  0  0  0999 V2000
  -27.7323  -18.6999   18.0616 C   0  0  0  0  0  0  0  0  0  0  0  0
  -26.7904  -19.7023   17.8535 C   0  0  0  0  0  0  0  0  0  0  0  0
  -24.7597  -16.4251   19.2937 C   0  0  0  0  0  0  0  0  0  0  0  0
  -25.7873  -15.8692   21.4084 C   0  0  0  0  0  0  0  0  0  0  0  0
  -28.6575  -18.8185   19.0978 C   0  0  0  0  0  0  0  0  0  0  0  0
  -26.7724  -20.8235   18.6823 C   0  0  0  0  0  0  0  0  0  0  0  0
  -25.3328  -27.8397   18.5524 C   0  0  0  0  0  0  0  0  0  0  0  0
  -25.8679  -15.9116   18.6202 C   0  0  0  0  0  0  0  0  0  0  0  0
  -26.8956  -15.3557   20.7349 C   0  0  0  0  0  0  0  0  0  0  0  0
  -24.5741  -28.7962   19.2257 C   0  0  0  0  0  0  0  0  0  0  0  0
  -29.8378  -13.5701   19.5630 C   0  0  0  0  0  0  0  0  0  0  0  0
  -30.3474  -12.3444   19.9914 C   0  0  0  0  0  0  0  0  0  0  0  0
  -20.5266  -27.4762   22.2057 C   0  0  0  0  0  0  0  0  0  0  0  0
  -26.2714  -28.9308   20.9346 C   0  0  0  0  0  0  0  0  0  0  0  0
  -18.8520  -28.9146   23.1875 C   0  0  0  0  0  0  0  0  0  0  0  0
  -28.2247  -11.2946   19.5128 C   0  0  0  0  0  0  0  0  0  0  0  0
  -24.7194  -16.4040   20.6879 C   0  0  0  0  0  0  0  0  0  0  0  0
  -19.6612  -26.3886   22.3231 C   0  0  0  0  0  0  0  0  0  0  0  0
  -22.4133  -16.2373   21.7657 C   0  0  0  0  0  0  0  0  0  0  0  0
  -28.6570  -19.9462   19.9338 C   0  0  0  0  0  0  0  0  0  0  0  0
  -26.5635  -27.4129   19.0717 C   0  0  0  0  0  0  0  0  0  0  0  0
  -27.6976  -20.9567   19.7316 C   0  0  0  0  0  0  0  0  0  0  0  0
  -27.0449  -27.9707   20.2647 C   0  0  0  0  0  0  0  0  0  0  0  0
  -18.3912  -26.5640   22.8726 C   0  0  0  0  0  0  0  0  0  0  0  0
  -20.1220  -28.7392   22.6380 C   0  0  0  0  0  0  0  0  0  0  0  0
  -26.9359  -15.3769   19.3407 C   0  0  0  0  0  0  0  0  0  0  0  0
  -25.0420  -29.3398   20.4185 C   0  0  0  0  0  0  0  0  0  0  0  0
  -28.5216  -13.6581   19.1095 C   0  0  0  0  0  0  0  0  0  0  0  0
  -17.9865  -27.8270   23.3048 C   0  0  0  0  0  0  0  0  0  0  0  0
  -29.5409  -11.2067   19.9663 C   0  0  0  0  0  0  0  0  0  0  0  0
  -27.7151  -12.5203   19.0844 C   0  0  0  0  0  0  0  0  0  0  0  0
  -23.5751  -16.9348   21.3843 C   0  0  0  0  0  0  0  0  0  0  0  0
  -21.6364  -17.1810   22.3922 C   0  0  0  0  0  0  0  0  0  0  0  0
  -20.1147  -25.0826   21.8620 C   0  0  0  0  0  0  0  0  0  0  0  0
  -21.1765  -24.4087   22.3485 C   0  0  0  0  0  0  0  0  0  0  0  0
  -22.1148  -29.7311   23.1573 C   0  0  0  0  0  0  0  0  0  0  0  0
  -22.0673  -14.8596   21.5712 C   0  0  0  0  0  0  0  0  0  0  0  0
  -21.5041  -23.0853   21.7810 C   0  0  0  0  0  0  0  0  0  0  0  0
  -27.7279  -24.6345   20.0859 C   0  0  0  0  0  0  0  0  0  0  0  0
  -30.4932  -26.3164   20.3016 C   0  0  0  0  0  0  0  0  0  0  0  0
  -32.0206  -29.3499   20.6363 C   0  0  0  0  0  0  0  0  0  0  0  0
  -29.6465  -20.0077   21.0703 C   0  0  0  0  0  0  0  0  0  0  0  0
  -27.3823  -26.3999   18.3195 C   0  0  0  0  0  0  0  0  0  0  0  0
  -28.3693  -27.5612   20.8537 C   0  0  0  0  0  0  0  0  0  0  0  0
  -29.8001  -21.4034   21.6694 C   0  0  0  0  0  0  0  0  0  0  0  0
  -21.9368  -21.2229   24.9077 C   0  0  0  0  0  0  0  0  0  0  0  0
  -28.4324  -22.0346   21.9097 C   0  0  0  0  0  0  0  0  0  0  0  0
  -22.3487  -19.8519   24.3782 C   0  0  0  0  0  0  0  0  0  0  0  0
  -22.4656  -22.3569   24.0308 C   0  0  0  0  0  0  0  0  0  0  0  0
  -22.5040  -20.8508   22.0634 C   0  0  0  0  0  0  0  0  0  0  0  0
  -27.6621  -22.1997   20.5940 C   0  0  1  0  0  0  0  0  0  0  0  0
  -28.3812  -25.6622   19.2057 C   0  0  1  0  0  0  0  0  0  0  0  0
  -21.9432  -19.6933   22.9043 C   0  0  1  0  0  0  0  0  0  0  0  0
  -17.3743  -24.8903   24.4383 C   0  0  0  0  0  0  0  0  0  0  0  0
  -23.3571  -31.3648   24.5194 C   0  0  0  0  0  0  0  0  0  0  0  0
  -34.2913  -30.4025   20.8193 C   0  0  0  0  0  0  0  0  0  0  0  0
  -30.6933  -25.3755   23.1972 C   0  0  0  0  0  0  0  0  0  0  0  0
  -32.3944  -27.1701   23.5897 C   0  0  0  0  0  0  0  0  0  0  0  0
  -32.8562  -25.3551   21.9419 C   0  0  0  0  0  0  0  0  0  0  0  0
  -31.6148  -30.9302   18.1671 C   0  0  0  0  0  0  0  0  0  0  0  0
  -16.4223  -29.3427   24.2595 C   0  0  0  0  0  0  0  0  0  0  0  0
  -17.4493  -25.4082   23.0065 C   0  0  0  0  0  0  0  0  0  0  0  0
  -24.4310  -30.3174   22.4986 C   0  0  0  0  0  0  0  0  0  1  0  0
  -23.1337  -30.8474   23.1038 C   0  0  1  0  0  0  0  0  0  0  0  0
  -31.1610  -27.1428   21.3741 C   0  0  1  0  0  0  0  0  0  0  0  0
  -33.1710  -29.9875   19.8783 C   0  0  2  0  0  0  0  0  0  0  0  0
  -31.7503  -26.2674   22.5159 C   0  0  0  0  0  0  0  0  0  0  0  0
  -23.5434  -18.2222   21.7386 N   0  0  0  0  0  0  0  0  0  0  0  0
  -20.9931  -29.8352   22.5219 N   0  0  0  0  0  0  0  0  0  0  0  0
  -22.3521  -18.3412   22.3493 N   0  0  0  0  0  0  0  0  0  0  0  0
  -22.1150  -22.1525   22.6172 N   0  0  0  0  0  0  0  0  0  0  0  0
  -29.1302  -26.5629   20.0843 N   0  0  0  0  0  0  0  0  0  0  0  0
  -20.4178  -17.1232   22.9701 N   0  0  0  0  0  0  0  0  0  0  0  0
  -22.9805  -14.0285   20.9081 N   0  0  0  0  0  0  0  0  0  0  0  0
  -28.1593  -23.3418   19.8572 N   0  0  0  0  0  0  0  0  0  0  0  0
  -32.1445  -27.9777   20.6929 N   0  0  0  0  0  0  0  0  0  0  0  0
  -32.7011  -31.1967   19.1448 N   0  3  0  0  0  0  0  0  0  0  0  0
  -20.9734  -14.3835   21.9590 O   0  0  0  0  0  0  0  0  0  0  0  0
  -21.2208  -22.8880   20.5980 O   0  0  0  0  0  0  0  0  0  0  0  0
  -26.8952  -24.9884   20.9123 O   0  0  0  0  0  0  0  0  0  0  0  0
  -31.1582  -25.4879   19.6747 O   0  0  0  0  0  0  0  0  0  0  0  0
  -31.1058  -30.0039   21.1320 O   0  0  0  0  0  0  0  0  0  0  0  0
  -28.0174  -14.8755   18.6838 O   0  0  0  0  0  0  0  0  0  0  0  0
  -16.7502  -28.0182   23.8453 O   0  0  0  0  0  0  0  0  0  0  0  0
  -24.3031  -30.2730   21.0780 O   0  0  0  0  0  0  0  0  0  1  0  0
  -30.0309  -10.0294   20.3763 F   0  0  0  0  0  0  0  0  0  0  0  0
  -26.4502  -12.5984   18.6487 F   0  0  0  0  0  0  0  0  0  0  0  0
  1  2  1  0  0  0  0
  1  5  2  0  0  0  0
  2  6  2  0  0  0  0
  3  8  2  0  0  0  0
  3 17  1  0  0  0  0
  4  9  1  0  0  0  0
  4 17  2  0  0  0  0
  5 20  1  0  0  0  0
  6 22  1  0  0  0  0
  7 10  2  0  0  0  0
  7 21  1  0  0  0  0
  8 26  1  0  0  0  0
  9 26  2  0  0  0  0
 10 27  1  0  0  0  0
 11 12  2  0  0  0  0
 11 28  1  0  0  0  0
 12 30  1  0  0  0  0
 13 18  2  0  0  0  0
 13 25  1  0  0  0  0
 14 23  1  0  0  0  0
 14 27  2  0  0  0  0
 15 25  2  0  0  0  0
 15 29  1  0  0  0  0
 16 30  2  0  0  0  0
 16 31  1  0  0  0  0
 17 32  1  0  0  0  0
 18 24  1  0  0  0  0
 18 34  1  0  0  0  0
 19 32  1  0  0  0  0
 19 33  2  0  0  0  0
 19 37  1  0  0  0  0
 20 22  2  0  0  0  0
 20 42  1  0  0  0  0
 21 23  2  0  0  0  0
 21 43  1  0  0  0  0
 22 51  1  0  0  0  0
 23 44  1  0  0  0  0
 24 29  2  0  0  0  0
 24 62  1  0  0  0  0
 25 69  1  0  0  0  0
 26 83  1  0  0  0  0
 27 85  1  0  0  0  0
 28 31  2  0  0  0  0
 28 83  1  0  0  0  0
 29 84  1  0  0  0  0
 30 86  1  0  0  0  0
 31 87  1  0  0  0  0
 32 68  2  0  0  0  0
 33 70  1  0  0  0  0
 33 73  1  0  0  0  0
 34 35  2  0  0  0  0
 35 38  1  0  0  0  0
 36 64  1  0  0  0  0
 36 69  2  0  0  0  0
 37 74  1  0  0  0  0
 37 78  2  0  0  0  0
 38 71  1  0  0  0  0
 38 79  2  0  0  0  0
 39 52  1  0  0  0  0
 39 75  1  0  0  0  0
 39 80  2  0  0  0  0
 40 65  1  0  0  0  0
 40 72  1  0  0  0  0
 40 81  2  0  0  0  0
 41 66  1  0  0  0  0
 41 76  1  0  0  0  0
 41 82  2  0  0  0  0
 42 45  1  0  0  0  0
 43 52  1  0  0  0  0
 44 72  1  0  0  0  0
 45 47  1  0  0  0  0
 46 48  1  0  0  0  0
 46 49  1  0  0  0  0
 47 51  1  0  0  0  0
 48 53  1  0  0  0  0
 49 71  1  0  0  0  0
 50 53  1  0  0  0  0
 50 71  1  0  0  0  0
 51 75  1  0  0  0  0
 52 72  1  0  0  0  0
 53 70  1  0  0  0  0
 54 62  1  0  0  0  0
 55 64  1  0  0  0  0
 56 66  1  0  0  0  0
 57 67  1  0  0  0  0
 58 67  1  0  0  0  0
 59 67  1  0  0  0  0
 60 77  1  0  0  0  0
 61 84  1  0  0  0  0
 63 64  1  0  0  0  0
 63 85  1  0  0  0  0
 65 67  1  0  0  0  0
 65 76  1  0  0  0  0
 66 77  1  0  0  0  0
 68 70  1  0  0  0  0
M  CHG  1  77   1
M  ISO  4  35 100  38 100  63 101  85 101
M  END
> <Batch ID>
0117

> <Smiles>
CCc1c(C=[100CH:0][100C:0](=O)N2CCCC(n3nc(-c4ccc(Oc5ccc(F)cc5F)cc4)c(C(N)=O)c3N)C2)cc(NC=C(C)[101CH2:1][101O:1]c2ccc3c(c2)CN(C(=O)C(NC(=O)C(C)NC)C(C)(C)C)C(C(=O)NC2CCCc4ccccc42)C3)cc1OC

> <Shape>
0.267

> <Color>
0.066

> <Negative vol penalty>
0.000

$$$$

  -OEChem-04052301463D

 84 92  0     1  0  0  0  0  0999 V2000
  -37.8733  -21.3711   16.7285 C   0  0  0  0  0  0  0  0  0  0  0  0
  -36.7946  -21.2151   17.5931 C   0  0  0  0  0  0  0  0  0  0  0  0
  -23.2801   -9.7640   19.9538 C   0  0  0  0  0  0  0  0  0  0  0  0
  -23.7263   -9.9587   22.3202 C   0  0  0  0  0  0  0  0  0  0  0  0
  -38.5133  -22.6058   16.6299 C   0  0  0  0  0  0  0  0  0  0  0  0
  -36.3560  -22.2937   18.3605 C   0  0  0  0  0  0  0  0  0  0  0  0
  -31.3138  -22.7632   18.3487 C   0  0  0  0  0  0  0  0  0  0  0  0
  -22.5505   -8.5983   20.1872 C   0  0  0  0  0  0  0  0  0  0  0  0
  -22.9967   -8.7930   22.5537 C   0  0  0  0  0  0  0  0  0  0  0  0
  -30.5916  -21.8962   19.1676 C   0  0  0  0  0  0  0  0  0  0  0  0
  -19.4648   -7.7707   21.2946 C   0  0  0  0  0  0  0  0  0  0  0  0
  -18.2368   -7.6340   20.6473 C   0  0  0  0  0  0  0  0  0  0  0  0
  -30.1803  -15.1232   22.9718 C   0  0  0  0  0  0  0  0  0  0  0  0
  -30.3803  -23.6418   20.8191 C   0  0  0  0  0  0  0  0  0  0  0  0
  -19.0360   -5.6333   19.5538 C   0  0  0  0  0  0  0  0  0  0  0  0
  -23.8680  -10.4442   21.0203 C   0  0  0  0  0  0  0  0  0  0  0  0
  -30.2778  -13.8071   23.5090 C   0  0  0  0  0  0  0  0  0  0  0  0
  -24.1338  -12.9683   20.7634 C   0  0  0  0  0  0  0  0  0  0  0  0
  -38.0762  -23.7026   17.3892 C   0  0  0  0  0  0  0  0  0  0  0  0
  -31.5844  -24.0749   18.7643 C   0  0  0  0  0  0  0  0  0  0  0  0
  -36.9916  -23.5439   18.2729 C   0  0  0  0  0  0  0  0  0  0  0  0
  -31.1039  -24.5243   20.0025 C   0  0  0  0  0  0  0  0  0  0  0  0
  -22.4088   -8.1128   21.4872 C   0  0  0  0  0  0  0  0  0  0  0  0
  -30.1273  -22.3346   20.4043 C   0  0  0  0  0  0  0  0  0  0  0  0
  -20.4784   -6.8388   21.0714 C   0  0  0  0  0  0  0  0  0  0  0  0
  -18.0224   -6.5653   19.7769 C   0  0  0  0  0  0  0  0  0  0  0  0
  -20.2640   -5.7701   20.2010 C   0  0  0  0  0  0  0  0  0  0  0  0
  -24.6223  -11.6481   20.7797 C   0  0  0  0  0  0  0  0  0  0  0  0
  -29.9062  -13.7605   24.8346 C   0  0  0  0  0  0  0  0  0  0  0  0
  -25.2376  -13.7395   20.4927 C   0  0  0  0  0  0  0  0  0  0  0  0
  -29.7375  -16.0324   23.9073 C   0  0  0  0  0  0  0  0  0  0  0  0
  -28.7541  -12.1846   26.3194 C   0  0  0  0  0  0  0  0  0  0  0  0
  -29.8647  -12.6559   25.7153 C   0  0  0  0  0  0  0  0  0  0  0  0
  -30.7124  -12.6507   22.7662 C   0  0  0  0  0  0  0  0  0  0  0  0
  -22.8014  -13.4541   20.9742 C   0  0  0  0  0  0  0  0  0  0  0  0
  -31.1045  -12.7410   21.3409 C   0  0  0  0  0  0  0  0  0  0  0  0
  -34.2261  -25.7378   19.3643 C   0  0  0  0  0  0  0  0  0  0  0  0
  -29.4909  -19.4036   22.4316 C   0  0  0  0  0  0  0  0  0  0  0  0
  -32.1354  -28.1950   19.7020 C   0  0  0  0  0  0  0  0  0  0  0  0
  -28.9501  -29.2167   20.3778 C   0  0  0  0  0  0  0  0  0  0  0  0
  -38.8296  -25.0049   17.2838 C   0  0  0  0  0  0  0  0  0  0  0  0
  -32.3417  -25.0060   17.8577 C   0  0  0  0  0  0  0  0  0  0  0  0
  -31.3501  -25.9292   20.4863 C   0  0  0  0  0  0  0  0  0  0  0  0
  -38.0663  -26.1979   17.8535 C   0  0  0  0  0  0  0  0  0  0  0  0
  -29.4630  -13.6002   18.2711 C   0  0  0  0  0  0  0  0  0  0  0  0
  -37.4737  -25.8514   19.2157 C   0  0  0  0  0  0  0  0  0  0  0  0
  -27.9956  -13.2800   18.5537 C   0  0  0  0  0  0  0  0  0  0  0  0
  -30.3946  -12.6260   18.9848 C   0  0  0  0  0  0  0  0  0  0  0  0
  -28.6989  -12.2265   20.7494 C   0  0  0  0  0  0  0  0  0  0  0  0
  -36.4708  -24.6968   19.1034 C   0  0  1  0  0  0  0  0  0  0  0  0
  -33.0012  -26.1616   18.6041 C   0  0  1  0  0  0  0  0  0  0  0  0
  -27.7281  -13.2064   20.0676 C   0  0  2  0  0  0  0  0  0  0  0  0
  -27.5552  -31.2888   20.6179 C   0  0  0  0  0  0  0  0  0  0  0  0
  -33.3779  -28.7112   22.4405 C   0  0  0  0  0  0  0  0  0  0  0  0
  -31.3810  -30.1118   23.0052 C   0  0  0  0  0  0  0  0  0  0  0  0
  -32.8730  -30.7732   21.1186 C   0  0  0  0  0  0  0  0  0  0  0  0
  -27.1703  -28.4163   18.1528 C   0  0  0  0  0  0  0  0  0  0  0  0
  -29.7219  -20.0985   21.1054 C   0  0  0  0  0  0  0  0  0  1  0  0
  -29.7918  -17.9191   22.4606 C   0  0  0  0  0  0  0  0  0  0  0  0
  -31.3456  -28.7766   20.8495 C   0  0  1  0  0  0  0  0  0  0  0  0
  -28.0366  -30.2012   19.6703 C   0  0  2  0  0  0  0  0  0  0  0  0
  -32.2412  -29.5661   21.8455 C   0  0  0  0  0  0  0  0  0  0  0  0
  -25.9342  -11.5807   20.5384 N   0  0  0  0  0  0  0  0  0  0  0  0
  -30.7983  -11.4449   23.2781 N   0  0  0  0  0  0  0  0  0  0  0  0
  -26.2795  -12.8682   20.3678 N   0  0  0  0  0  0  0  0  0  0  0  0
  -30.0902  -12.5533   20.4124 N   0  0  0  0  0  0  0  0  0  0  0  0
  -32.1009  -26.7999   19.5666 N   0  0  0  0  0  0  0  0  0  0  0  0
  -25.4090  -15.0711   20.3515 N   0  0  0  0  0  0  0  0  0  0  0  0
  -21.7861  -12.5255   21.2413 N   0  0  0  0  0  0  0  0  0  0  0  0
  -35.2098  -25.1721   18.5758 N   0  0  0  0  0  0  0  0  0  0  0  0
  -30.2772  -29.5685   20.2498 N   0  0  0  0  0  0  0  0  0  0  0  0
  -26.8445  -29.4972   19.1185 N   0  3  0  0  0  0  0  0  0  0  0  0
  -22.5165  -14.6740   20.9109 O   0  0  0  0  0  0  0  0  0  0  0  0
  -32.2884  -12.9725   21.1333 O   0  0  0  0  0  0  0  0  0  0  0  0
  -34.2756  -25.9126   20.5762 O   0  0  0  0  0  0  0  0  0  0  0  0
  -29.0839  -20.0073   23.4231 O   0  0  0  0  0  0  0  0  0  0  0  0
  -32.7542  -28.9512   18.9491 O   0  0  0  0  0  0  0  0  0  0  0  0
  -28.5284  -28.2358   20.9866 O   0  0  0  0  0  0  0  0  0  0  0  0
  -21.6967   -6.9755   21.7154 O   0  0  0  0  0  0  0  0  0  0  0  0
  -29.4227  -21.4902   21.2058 O   0  0  0  0  0  0  0  0  0  1  0  0
  -29.5277  -17.3806   23.7389 O   0  0  0  0  0  0  0  0  0  0  0  0
  -16.8426   -6.4332   19.1566 F   0  0  0  0  0  0  0  0  0  0  0  0
  -21.2336   -4.8710   19.9836 F   0  0  0  0  0  0  0  0  0  0  0  0
  -29.4419  -15.2989   25.4262 S   0  0  0  0  0  0  0  0  0  0  0  0
  1  2  1  0  0  0  0
  1  5  2  0  0  0  0
  2  6  2  0  0  0  0
  3  8  2  0  0  0  0
  3 16  1  0  0  0  0
  4  9  1  0  0  0  0
  4 16  2  0  0  0  0
  5 19  1  0  0  0  0
  6 21  1  0  0  0  0
  7 10  2  0  0  0  0
  7 20  1  0  0  0  0
  8 23  1  0  0  0  0
  9 23  2  0  0  0  0
 10 24  1  0  0  0  0
 11 12  2  0  0  0  0
 11 25  1  0  0  0  0
 12 26  1  0  0  0  0
 13 17  1  0  0  0  0
 13 31  2  0  0  0  0
 14 22  1  0  0  0  0
 14 24  2  0  0  0  0
 15 26  2  0  0  0  0
 15 27  1  0  0  0  0
 16 28  1  0  0  0  0
 17 29  2  0  0  0  0
 17 34  1  0  0  0  0
 18 28  1  0  0  0  0
 18 30  2  0  0  0  0
 18 35  1  0  0  0  0
 19 21  2  0  0  0  0
 19 41  1  0  0  0  0
 20 22  2  0  0  0  0
 20 42  1  0  0  0  0
 21 50  1  0  0  0  0
 22 43  1  0  0  0  0
 23 79  1  0  0  0  0
 24 80  1  0  0  0  0
 25 27  2  0  0  0  0
 25 79  1  0  0  0  0
 26 82  1  0  0  0  0
 27 83  1  0  0  0  0
 28 63  2  0  0  0  0
 29 33  1  0  0  0  0
 29 84  1  0  0  0  0
 30 65  1  0  0  0  0
 30 68  1  0  0  0  0
 31 81  1  0  0  0  0
 31 84  1  0  0  0  0
 32 33  2  0  0  0  0
 34 36  1  0  0  0  0
 34 64  2  0  0  0  0
 35 69  1  0  0  0  0
 35 73  2  0  0  0  0
 36 66  1  0  0  0  0
 36 74  2  0  0  0  0
 37 51  1  0  0  0  0
 37 70  1  0  0  0  0
 37 75  2  0  0  0  0
 38 58  1  0  0  0  0
 38 59  1  0  0  0  0
 38 76  2  0  0  0  0
 39 60  1  0  0  0  0
 39 67  1  0  0  0  0
 39 77  2  0  0  0  0
 40 61  1  0  0  0  0
 40 71  1  0  0  0  0
 40 78  2  0  0  0  0
 41 44  1  0  0  0  0
 42 51  1  0  0  0  0
 43 67  1  0  0  0  0
 44 46  1  0  0  0  0
 45 47  1  0  0  0  0
 45 48  1  0  0  0  0
 46 50  1  0  0  0  0
 47 52  1  0  0  0  0
 48 66  1  0  0  0  0
 49 52  1  0  0  0  0
 49 66  1  0  0  0  0
 50 70  1  0  0  0  0
 51 67  1  0  0  0  0
 52 65  1  0  0  0  0
 53 61  1  0  0  0  0
 54 62  1  0  0  0  0
 55 62  1  0  0  0  0
 56 62  1  0  0  0  0
 57 72  1  0  0  0  0
 58 80  1  0  0  0  0
 59 81  1  0  0  0  0
 60 62  1  0  0  0  0
 60 71  1  0  0  0  0
 61 72  1  0  0  0  0
 63 65  1  0  0  0  0
M  CHG  1  72   1
M  ISO  4  34 100  36 100  58 101  80 101
M  END
> <Batch ID>
0117

> <Smiles>
C=Cc1sc(OCC(=O)[101CH2:1][101O:1]c2ccc3c(c2)CN(C(=O)C(NC(=O)C(C)NC)C(C)(C)C)C(C(=O)NC2CCCc4ccccc42)C3)cc1[100C:0](=N)[100C:0](=O)N1CCCC(n2nc(-c3ccc(Oc4ccc(F)cc4F)cc3)c(C(N)=O)c2N)C1

> <Shape>
0.200

> <Color>
0.168

> <Negative vol penalty>
0.000

$$$$

  -OEChem-04052301463D

 81 89  0     1  0  0  0  0  0999 V2000
  -28.3396  -36.7782   19.8513 C   0  0  0  0  0  0  0  0  0  0  0  0
  -28.6734  -35.4438   19.6433 C   0  0  0  0  0  0  0  0  0  0  0  0
  -23.9031   -9.3307   20.3714 C   0  0  0  0  0  0  0  0  0  0  0  0
  -22.8730  -11.2732   21.3726 C   0  0  0  0  0  0  0  0  0  0  0  0
  -28.2267  -20.3381   18.5240 C   0  0  0  0  0  0  0  0  0  0  0  0
  -27.4837  -37.1269   20.8953 C   0  0  0  0  0  0  0  0  0  0  0  0
  -28.1523  -34.4573   20.4799 C   0  0  0  0  0  0  0  0  0  0  0  0
  -26.5821  -28.7502   18.9087 C   0  0  0  0  0  0  0  0  0  0  0  0
  -28.2259  -18.9532   18.6901 C   0  0  0  0  0  0  0  0  0  0  0  0
  -22.9472   -8.5131   20.9741 C   0  0  0  0  0  0  0  0  0  0  0  0
  -21.9170  -10.4556   21.9753 C   0  0  0  0  0  0  0  0  0  0  0  0
  -27.2444  -27.5290   19.0264 C   0  0  0  0  0  0  0  0  0  0  0  0
  -22.3732   -7.1888   24.0304 C   0  0  0  0  0  0  0  0  0  0  0  0
  -22.8180   -6.0203   24.6487 C   0  0  0  0  0  0  0  0  0  0  0  0
  -26.0628  -27.0933   21.0839 C   0  0  0  0  0  0  0  0  0  0  0  0
  -29.9487  -19.1540   20.3721 C   0  0  0  0  0  0  0  0  0  0  0  0
  -21.4387   -4.7081   23.1611 C   0  0  0  0  0  0  0  0  0  0  0  0
  -23.8660  -10.7108   20.5706 C   0  0  0  0  0  0  0  0  0  0  0  0
  -29.0885  -21.1310   19.2819 C   0  0  0  0  0  0  0  0  0  0  0  0
  -24.7741  -12.1665   18.6828 C   0  0  0  0  0  0  0  0  0  0  0  0
  -26.9443  -36.1433   21.7391 C   0  0  0  0  0  0  0  0  0  0  0  0
  -25.6616  -29.1577   19.8850 C   0  0  0  0  0  0  0  0  0  0  0  0
  -27.2895  -34.7933   21.5369 C   0  0  0  0  0  0  0  0  0  0  0  0
  -25.3882  -28.3189   20.9749 C   0  0  0  0  0  0  0  0  0  0  0  0
  -29.9495  -20.5389   20.2059 C   0  0  0  0  0  0  0  0  0  0  0  0
  -29.0869  -18.3611   19.6141 C   0  0  0  0  0  0  0  0  0  0  0  0
  -21.9542   -9.0755   21.7761 C   0  0  0  0  0  0  0  0  0  0  0  0
  -26.9870  -26.7017   20.1156 C   0  0  0  0  0  0  0  0  0  0  0  0
  -21.4611   -7.1170   22.9775 C   0  0  0  0  0  0  0  0  0  0  0  0
  -22.3508   -4.7799   24.2141 C   0  0  0  0  0  0  0  0  0  0  0  0
  -20.9939   -5.8767   22.5429 C   0  0  0  0  0  0  0  0  0  0  0  0
  -24.8535  -11.5559   19.9487 C   0  0  0  0  0  0  0  0  0  0  0  0
  -25.9550  -12.8571   18.5600 C   0  0  0  0  0  0  0  0  0  0  0  0
  -29.0652  -22.5899   19.0837 C   0  0  0  0  0  0  0  0  0  0  0  0
  -27.9908  -23.3767   19.2507 C   0  0  0  0  0  0  0  0  0  0  0  0
  -23.7265  -12.1142   17.7053 C   0  0  0  0  0  0  0  0  0  0  0  0
  -25.4790  -31.5949   21.9173 C   0  0  0  0  0  0  0  0  0  0  0  0
  -22.5501  -30.3483   22.5417 C   0  0  0  0  0  0  0  0  0  0  0  0
  -20.4976  -27.6218   22.5221 C   0  0  0  0  0  0  0  0  0  0  0  0
  -29.8788  -16.2073   20.6534 C   0  0  0  0  0  0  0  0  0  0  0  0
  -26.0610  -36.5734   22.8835 C   0  0  0  0  0  0  0  0  0  0  0  0
  -24.9357  -30.4658   19.7296 C   0  0  0  0  0  0  0  0  0  0  0  0
  -24.3940  -28.7011   22.0398 C   0  0  0  0  0  0  0  0  0  0  0  0
  -25.2544  -35.4299   23.4934 C   0  0  0  0  0  0  0  0  0  0  0  0
  -30.1523  -12.7338   21.3865 C   0  0  0  0  0  0  0  0  0  0  0  0
  -26.1452  -34.2140   23.7280 C   0  0  0  0  0  0  0  0  0  0  0  0
  -28.7916  -12.1679   20.9736 C   0  0  0  0  0  0  0  0  0  0  0  0
  -30.0243  -14.1257   22.0028 C   0  0  0  0  0  0  0  0  0  0  0  0
  -27.9285  -14.5349   20.7743 C   0  0  0  0  0  0  0  0  0  0  0  0
  -26.7249  -33.6920   22.4078 C   0  0  1  0  0  0  0  0  0  0  0  0
  -24.3997  -31.0122   21.0493 C   0  0  1  0  0  0  0  0  0  0  0  0
  -28.0131  -13.1613   20.0889 C   0  0  2  0  0  0  0  0  0  0  0  0
  -30.8859  -21.3572   21.0355 C   0  0  0  0  0  0  0  0  0  0  0  0
  -18.1707  -26.9034   23.1276 C   0  0  0  0  0  0  0  0  0  0  0  0
  -23.3291  -30.3199   25.4917 C   0  0  0  0  0  0  0  0  0  0  0  0
  -21.4174  -28.7583   25.9097 C   0  0  0  0  0  0  0  0  0  0  0  0
  -20.9819  -31.0552   25.0396 C   0  0  0  0  0  0  0  0  0  0  0  0
  -19.8726  -26.8846   19.7248 C   0  0  0  0  0  0  0  0  0  0  0  0
  -28.0123  -24.8544   19.0237 C   0  0  0  0  0  0  0  0  0  1  0  0
  -22.0083  -29.3240   23.5094 C   0  0  1  0  0  0  0  0  0  0  0  0
  -19.0748  -27.4356   22.0267 C   0  0  2  0  0  0  0  0  0  0  0  0
  -21.9544  -29.8577   24.9687 C   0  0  0  0  0  0  0  0  0  0  0  0
  -25.9947  -11.8339   20.5846 N   0  0  0  0  0  0  0  0  0  0  0  0
  -26.6433  -12.6268   19.7147 N   0  0  0  0  0  0  0  0  0  0  0  0
  -23.7145  -29.9928   21.8464 N   0  0  0  0  0  0  0  0  0  0  0  0
  -29.2794  -15.0133   21.1071 N   0  0  0  0  0  0  0  0  0  0  0  0
  -26.4613  -13.6327   17.5779 N   0  0  0  0  0  0  0  0  0  0  0  0
  -22.5818  -11.3582   17.9925 N   0  0  0  0  0  0  0  0  0  0  0  0
  -29.0880  -16.9540   19.7807 N   0  0  0  0  0  0  0  0  0  0  0  0
  -25.7280  -32.9337   21.6828 N   0  0  0  0  0  0  0  0  0  0  0  0
  -20.7158  -28.9045   22.9784 N   0  0  0  0  0  0  0  0  0  0  0  0
  -19.0444  -26.4746   20.8880 N   0  3  0  0  0  0  0  0  0  0  0  0
  -23.8103  -12.7066   16.6028 O   0  0  0  0  0  0  0  0  0  0  0  0
  -26.0428  -30.8829   22.7400 O   0  0  0  0  0  0  0  0  0  0  0  0
  -21.9578  -31.4213   22.4025 O   0  0  0  0  0  0  0  0  0  0  0  0
  -21.3310  -26.7185   22.5092 O   0  0  0  0  0  0  0  0  0  0  0  0
  -31.0209  -16.5291   20.9911 O   0  0  0  0  0  0  0  0  0  0  0  0
  -21.0211   -8.2780   22.3642 O   0  0  0  0  0  0  0  0  0  0  0  0
  -27.6325  -25.5095   20.2332 O   0  0  0  0  0  0  0  0  0  1  0  0
  -22.7792   -3.6578   24.8069 F   0  0  0  0  0  0  0  0  0  0  0  0
  -20.1185   -5.8013   21.5310 F   0  0  0  0  0  0  0  0  0  0  0  0
  1  2  1  0  0  0  0
  1  6  2  0  0  0  0
  2  7  2  0  0  0  0
  3 10  2  0  0  0  0
  3 18  1  0  0  0  0
  4 11  1  0  0  0  0
  4 18  2  0  0  0  0
  5  9  2  0  0  0  0
  5 19  1  0  0  0  0
  6 21  1  0  0  0  0
  7 23  1  0  0  0  0
  8 12  2  0  0  0  0
  8 22  1  0  0  0  0
  9 26  1  0  0  0  0
 10 27  1  0  0  0  0
 11 27  2  0  0  0  0
 12 28  1  0  0  0  0
 13 14  2  0  0  0  0
 13 29  1  0  0  0  0
 14 30  1  0  0  0  0
 15 24  1  0  0  0  0
 15 28  2  0  0  0  0
 16 25  1  0  0  0  0
 16 26  2  0  0  0  0
 17 30  2  0  0  0  0
 17 31  1  0  0  0  0
 18 32  1  0  0  0  0
 19 25  2  0  0  0  0
 19 34  1  0  0  0  0
 20 32  1  0  0  0  0
 20 33  2  0  0  0  0
 20 36  1  0  0  0  0
 21 23  2  0  0  0  0
 21 41  1  0  0  0  0
 22 24  2  0  0  0  0
 22 42  1  0  0  0  0
 23 50  1  0  0  0  0
 24 43  1  0  0  0  0
 25 53  1  0  0  0  0
 26 69  1  0  0  0  0
 27 78  1  0  0  0  0
 28 79  1  0  0  0  0
 29 31  2  0  0  0  0
 29 78  1  0  0  0  0
 30 80  1  0  0  0  0
 31 81  1  0  0  0  0
 32 63  2  0  0  0  0
 33 64  1  0  0  0  0
 33 67  1  0  0  0  0
 34 35  2  0  0  0  0
 35 59  1  0  0  0  0
 36 68  1  0  0  0  0
 36 73  2  0  0  0  0
 37 51  1  0  0  0  0
 37 70  1  0  0  0  0
 37 74  2  0  0  0  0
 38 60  1  0  0  0  0
 38 65  1  0  0  0  0
 38 75  2  0  0  0  0
 39 61  1  0  0  0  0
 39 71  1  0  0  0  0
 39 76  2  0  0  0  0
 40 66  1  0  0  0  0
 40 69  1  0  0  0  0
 40 77  2  0  0  0  0
 41 44  1  0  0  0  0
 42 51  1  0  0  0  0
 43 65  1  0  0  0  0
 44 46  1  0  0  0  0
 45 47  1  0  0  0  0
 45 48  1  0  0  0  0
 46 50  1  0  0  0  0
 47 52  1  0  0  0  0
 48 66  1  0  0  0  0
 49 52  1  0  0  0  0
 49 66  1  0  0  0  0
 50 70  1  0  0  0  0
 51 65  1  0  0  0  0
 52 64  1  0  0  0  0
 54 61  1  0  0  0  0
 55 62  1  0  0  0  0
 56 62  1  0  0  0  0
 57 62  1  0  0  0  0
 58 72  1  0  0  0  0
 59 79  1  0  0  0  0
 60 62  1  0  0  0  0
 60 71  1  0  0  0  0
 61 72  1  0  0  0  0
 63 64  1  0  0  0  0
M  CHG  1  72   1
M  ISO  4  40 100  59 101  69 100  79 101
M  END
> <Batch ID>
0117

> <Smiles>
CNC(C)C(=O)NC(C(=O)N1Cc2cc([101O:1][101CH2:1]C=Cc3ccc([100NH:0][100C:0](=O)N4CCCC(n5nc(-c6ccc(Oc7ccc(F)cc7F)cc6)c(C(N)=O)c5N)C4)cc3C)ccc2CC1C(=O)NC1CCCc2ccccc21)C(C)(C)C

> <Shape>
0.342

> <Color>
0.091

> <Negative vol penalty>
0.000

$$$$

  -OEChem-04052301463D

 83 91  0     1  0  0  0  0  0999 V2000
  -24.7371  -10.9763   17.4871 C   0  0  0  0  0  0  0  0  0  0  0  0
  -23.8057  -12.0096   17.4719 C   0  0  0  0  0  0  0  0  0  0  0  0
  -30.1567  -28.3724   18.8638 C   0  0  0  0  0  0  0  0  0  0  0  0
  -29.8585  -27.0870   20.8877 C   0  0  0  0  0  0  0  0  0  0  0  0
  -25.6098  -10.8419   18.5661 C   0  0  0  0  0  0  0  0  0  0  0  0
  -23.7458  -12.9085   18.5362 C   0  0  0  0  0  0  0  0  0  0  0  0
  -22.4076  -18.8775   18.2430 C   0  0  0  0  0  0  0  0  0  0  0  0
  -31.5389  -28.2177   18.9692 C   0  0  0  0  0  0  0  0  0  0  0  0
  -31.2407  -26.9323   20.9931 C   0  0  0  0  0  0  0  0  0  0  0  0
  -21.2308  -19.5876   18.4771 C   0  0  0  0  0  0  0  0  0  0  0  0
  -34.6716  -25.8928   21.5984 C   0  0  0  0  0  0  0  0  0  0  0  0
  -35.1612  -24.6238   21.9077 C   0  0  0  0  0  0  0  0  0  0  0  0
  -20.0583  -26.9841   22.2284 C   0  0  0  0  0  0  0  0  0  0  0  0
  -17.7398  -27.2801   22.8400 C   0  0  0  0  0  0  0  0  0  0  0  0
  -21.9639  -20.0484   20.7287 C   0  0  0  0  0  0  0  0  0  0  0  0
  -19.2587  -29.1573   22.9177 C   0  0  0  0  0  0  0  0  0  0  0  0
  -34.1362  -23.7405   19.9060 C   0  0  0  0  0  0  0  0  0  0  0  0
  -29.3165  -27.8071   19.8231 C   0  0  0  0  0  0  0  0  0  0  0  0
  -18.7792  -26.4570   22.4064 C   0  0  0  0  0  0  0  0  0  0  0  0
  -26.9866  -27.1197   19.0442 C   0  0  0  0  0  0  0  0  0  0  0  0
  -25.5670  -11.7453   19.6397 C   0  0  0  0  0  0  0  0  0  0  0  0
  -23.3681  -18.7381   19.2552 C   0  0  0  0  0  0  0  0  0  0  0  0
  -24.6178  -12.7852   19.6312 C   0  0  0  0  0  0  0  0  0  0  0  0
  -23.1531  -19.3382   20.5041 C   0  0  0  0  0  0  0  0  0  0  0  0
  -20.2981  -28.3342   22.4841 C   0  0  0  0  0  0  0  0  0  0  0  0
  -32.0810  -27.4976   20.0338 C   0  0  0  0  0  0  0  0  0  0  0  0
  -21.0075  -20.1707   19.7210 C   0  0  0  0  0  0  0  0  0  0  0  0
  -33.9143  -26.0856   20.4429 C   0  0  0  0  0  0  0  0  0  0  0  0
  -34.8935  -23.5477   21.0615 C   0  0  0  0  0  0  0  0  0  0  0  0
  -17.9796  -28.6302   23.0956 C   0  0  0  0  0  0  0  0  0  0  0  0
  -33.6466  -25.0095   19.5968 C   0  0  0  0  0  0  0  0  0  0  0  0
  -27.8886  -27.9671   19.7151 C   0  0  0  0  0  0  0  0  0  0  0  0
  -25.7587  -27.7046   19.2357 C   0  0  0  0  0  0  0  0  0  0  0  0
  -18.5256  -25.0303   22.1373 C   0  0  0  0  0  0  0  0  0  0  0  0
  -19.3080  -24.2469   21.3756 C   0  0  0  0  0  0  0  0  0  0  0  0
  -19.9622  -22.1822   20.2971 C   0  0  0  0  0  0  0  0  0  1  0  0
  -27.2363  -25.9118   18.3133 C   0  0  0  0  0  0  0  0  0  0  0  0
  -19.0854  -22.8336   21.0798 C   0  0  0  0  0  0  0  0  0  0  0  0
  -24.6271  -16.2805   20.8296 C   0  0  0  0  0  0  0  0  0  0  0  0
  -26.5512  -18.5715   22.0832 C   0  0  0  0  0  0  0  0  0  0  0  0
  -27.0179  -21.8654   22.8439 C   0  0  0  0  0  0  0  0  0  0  0  0
  -22.0042  -30.1875   22.5133 C   0  0  0  0  0  0  0  0  0  0  0  0
  -26.4989  -11.5315   20.8061 C   0  0  0  0  0  0  0  0  0  0  0  0
  -24.6443  -17.9917   18.9783 C   0  0  0  0  0  0  0  0  0  0  0  0
  -24.1620  -19.2350   21.6177 C   0  0  0  0  0  0  0  0  0  0  0  0
  -26.6214  -12.7487   21.7191 C   0  0  0  0  0  0  0  0  0  0  0  0
  -24.5295  -32.2527   21.0867 C   0  0  0  0  0  0  0  0  0  0  0  0
  -25.2429  -13.3215   22.0328 C   0  0  0  0  0  0  0  0  0  0  0  0
  -25.5543  -31.2521   20.5475 C   0  0  0  0  0  0  0  0  0  0  0  0
  -23.9101  -31.7780   22.4000 C   0  0  0  0  0  0  0  0  0  0  0  0
  -24.3623  -29.4257   21.8244 C   0  0  0  0  0  0  0  0  0  0  0  0
  -24.5385  -13.7950   20.7556 C   0  0  1  0  0  0  0  0  0  0  0  0
  -25.3222  -17.4771   20.2443 C   0  0  1  0  0  0  0  0  0  0  0  0
  -24.9660  -29.8297   20.4693 C   0  0  2  0  0  0  0  0  0  0  0  0
  -17.8786  -22.1480   21.6630 C   0  0  0  0  0  0  0  0  0  0  0  0
  -28.2174  -23.9290   23.6187 C   0  0  0  0  0  0  0  0  0  0  0  0
  -25.7335  -17.5695   24.8468 C   0  0  0  0  0  0  0  0  0  0  0  0
  -26.6253  -19.7027   25.8074 C   0  0  0  0  0  0  0  0  0  0  0  0
  -28.1587  -18.1355   24.6178 C   0  0  0  0  0  0  0  0  0  0  0  0
  -28.0916  -22.3979   20.1379 C   0  0  0  0  0  0  0  0  0  0  0  0
  -26.4855  -19.4829   23.2848 C   0  0  1  0  0  0  0  0  0  0  0  0
  -28.1900  -22.7990   22.6013 C   0  0  2  0  0  0  0  0  0  0  0  0
  -26.7306  -18.7231   24.6191 C   0  0  0  0  0  0  0  0  0  0  0  0
  -27.2852  -29.0110   20.2897 N   0  0  0  0  0  0  0  0  0  0  0  0
  -25.9909  -28.8234   19.9804 N   0  0  0  0  0  0  0  0  0  0  0  0
  -25.3912  -18.4895   21.3000 N   0  0  0  0  0  0  0  0  0  0  0  0
  -23.3697  -30.4252   22.2491 N   0  0  0  0  0  0  0  0  0  0  0  0
  -24.5139  -27.3660   18.8381 N   0  0  0  0  0  0  0  0  0  0  0  0
  -28.5564  -25.4514   18.2145 N   0  0  0  0  0  0  0  0  0  0  0  0
  -21.5974  -28.8701   22.3042 N   0  0  0  0  0  0  0  0  0  0  0  0
  -25.0705  -15.0714   20.3286 N   0  0  0  0  0  0  0  0  0  0  0  0
  -27.4319  -20.5634   23.0299 N   0  0  0  0  0  0  0  0  0  0  0  0
  -28.1034  -23.3958   21.2384 N   0  3  0  0  0  0  0  0  0  0  0  0
  -26.3181  -25.2689   17.7501 O   0  0  0  0  0  0  0  0  0  0  0  0
  -23.7542  -16.4421   21.6744 O   0  0  0  0  0  0  0  0  0  0  0  0
  -27.5958  -17.9604   21.8441 O   0  0  0  0  0  0  0  0  0  0  0  0
  -25.8519  -22.2531   22.8699 O   0  0  0  0  0  0  0  0  0  0  0  0
  -21.2453  -31.0921   22.8706 O   0  0  0  0  0  0  0  0  0  0  0  0
  -33.4297  -27.3462   20.1369 O   0  0  0  0  0  0  0  0  0  0  0  0
  -19.8595  -20.8637   19.9524 O   0  0  0  0  0  0  0  0  0  1  0  0
  -35.3650  -22.3295   21.3578 F   0  0  0  0  0  0  0  0  0  0  0  0
  -16.9825  -29.4203   23.5146 F   0  0  0  0  0  0  0  0  0  0  0  0
  -32.9207  -25.1889   18.4847 F   0  0  0  0  0  0  0  0  0  0  0  0
  1  2  1  0  0  0  0
  1  5  2  0  0  0  0
  2  6  2  0  0  0  0
  3  8  2  0  0  0  0
  3 18  1  0  0  0  0
  4  9  1  0  0  0  0
  4 18  2  0  0  0  0
  5 21  1  0  0  0  0
  6 23  1  0  0  0  0
  7 10  2  0  0  0  0
  7 22  1  0  0  0  0
  8 26  1  0  0  0  0
  9 26  2  0  0  0  0
 10 27  1  0  0  0  0
 11 12  2  0  0  0  0
 11 28  1  0  0  0  0
 12 29  1  0  0  0  0
 13 19  2  0  0  0  0
 13 25  1  0  0  0  0
 14 19  1  0  0  0  0
 14 30  2  0  0  0  0
 15 24  1  0  0  0  0
 15 27  2  0  0  0  0
 16 25  2  0  0  0  0
 16 30  1  0  0  0  0
 17 29  2  0  0  0  0
 17 31  1  0  0  0  0
 18 32  1  0  0  0  0
 19 34  1  0  0  0  0
 20 32  1  0  0  0  0
 20 33  2  0  0  0  0
 20 37  1  0  0  0  0
 21 23  2  0  0  0  0
 21 43  1  0  0  0  0
 22 24  2  0  0  0  0
 22 44  1  0  0  0  0
 23 52  1  0  0  0  0
 24 45  1  0  0  0  0
 25 70  1  0  0  0  0
 26 79  1  0  0  0  0
 27 80  1  0  0  0  0
 28 31  2  0  0  0  0
 28 79  1  0  0  0  0
 29 81  1  0  0  0  0
 30 82  1  0  0  0  0
 31 83  1  0  0  0  0
 32 64  2  0  0  0  0
 33 65  1  0  0  0  0
 33 68  1  0  0  0  0
 34 35  2  0  0  0  0
 35 38  1  0  0  0  0
 36 38  2  0  0  0  0
 36 80  1  0  0  0  0
 37 69  1  0  0  0  0
 37 74  2  0  0  0  0
 38 55  1  0  0  0  0
 39 53  1  0  0  0  0
 39 71  1  0  0  0  0
 39 75  2  0  0  0  0
 40 61  1  0  0  0  0
 40 66  1  0  0  0  0
 40 76  2  0  0  0  0
 41 62  1  0  0  0  0
 41 72  1  0  0  0  0
 41 77  2  0  0  0  0
 42 67  1  0  0  0  0
 42 70  1  0  0  0  0
 42 78  2  0  0  0  0
 43 46  1  0  0  0  0
 44 53  1  0  0  0  0
 45 66  1  0  0  0  0
 46 48  1  0  0  0  0
 47 49  1  0  0  0  0
 47 50  1  0  0  0  0
 48 52  1  0  0  0  0
 49 54  1  0  0  0  0
 50 67  1  0  0  0  0
 51 54  1  0  0  0  0
 51 67  1  0  0  0  0
 52 71  1  0  0  0  0
 53 66  1  0  0  0  0
 54 65  1  0  0  0  0
 56 62  1  0  0  0  0
 57 63  1  0  0  0  0
 58 63  1  0  0  0  0
 59 63  1  0  0  0  0
 60 73  1  0  0  0  0
 61 63  1  0  0  0  0
 61 72  1  0  0  0  0
 62 73  1  0  0  0  0
 64 65  1  0  0  0  0
M  CHG  1  73   1
M  ISO  4  36 101  42 100  70 100  80 101
M  END
> <Batch ID>
0117

> <Smiles>
CNC(C)C(=O)NC(C(=O)N1Cc2cc([101O:1][101CH:1]=C(C)C=Cc3cc(F)cc([100NH:0][100C:0](=O)N4CCCC(n5nc(-c6ccc(Oc7ccc(F)cc7F)cc6)c(C(N)=O)c5N)C4)c3)ccc2CC1C(=O)NC1CCCc2ccccc21)C(C)(C)C

> <Shape>
0.199

> <Color>
0.086

> <Negative vol penalty>
0.000

$$$$

  -OEChem-04052301463D

 84 92  0     1  0  0  0  0  0999 V2000
  -24.3299  -21.2387   18.4991 C   0  0  0  0  0  0  0  0  0  0  0  0
  -25.4693  -21.3196   19.2931 C   0  0  0  0  0  0  0  0  0  0  0  0
  -23.1405   -9.7733   20.1135 C   0  0  0  0  0  0  0  0  0  0  0  0
  -23.8189  -10.0297   22.4181 C   0  0  0  0  0  0  0  0  0  0  0  0
  -23.9060  -22.3520   17.7746 C   0  0  0  0  0  0  0  0  0  0  0  0
  -26.1862  -22.5136   19.3624 C   0  0  0  0  0  0  0  0  0  0  0  0
  -27.4972  -23.7203   24.1026 C   0  0  0  0  0  0  0  0  0  0  0  0
  -22.4097   -8.6355   20.4553 C   0  0  0  0  0  0  0  0  0  0  0  0
  -23.0881   -8.8919   22.7598 C   0  0  0  0  0  0  0  0  0  0  0  0
  -28.5844  -23.0440   24.6543 C   0  0  0  0  0  0  0  0  0  0  0  0
  -19.8560   -8.0887   23.3335 C   0  0  0  0  0  0  0  0  0  0  0  0
  -19.0592   -8.1513   24.4766 C   0  0  0  0  0  0  0  0  0  0  0  0
  -29.9986  -24.9385   24.1745 C   0  0  0  0  0  0  0  0  0  0  0  0
  -30.2592  -18.7817   23.5756 C   0  0  0  0  0  0  0  0  0  0  0  0
  -31.9068  -16.9243   22.3035 C   0  0  0  0  0  0  0  0  0  0  0  0
  -20.3094   -6.3263   25.4479 C   0  0  0  0  0  0  0  0  0  0  0  0
  -23.8452  -10.4704   21.0949 C   0  0  0  0  0  0  0  0  0  0  0  0
  -24.1444  -12.9772   20.7288 C   0  0  0  0  0  0  0  0  0  0  0  0
  -24.6125  -23.5631   17.8426 C   0  0  0  0  0  0  0  0  0  0  0  0
  -27.6552  -25.0087   23.5720 C   0  0  0  0  0  0  0  0  0  0  0  0
  -25.7721  -23.6438   18.6371 C   0  0  0  0  0  0  0  0  0  0  0  0
  -28.9113  -25.6300   23.6190 C   0  0  0  0  0  0  0  0  0  0  0  0
  -29.7018  -17.8048   22.7507 C   0  0  0  0  0  0  0  0  0  0  0  0
  -32.4642  -17.9013   23.1284 C   0  0  0  0  0  0  0  0  0  0  0  0
  -31.6404  -18.8300   23.7644 C   0  0  0  0  0  0  0  0  0  0  0  0
  -30.5255  -16.8761   22.1146 C   0  0  0  0  0  0  0  0  0  0  0  0
  -22.3834   -8.1947   21.7784 C   0  0  0  0  0  0  0  0  0  0  0  0
  -29.8360  -23.6519   24.6877 C   0  0  0  0  0  0  0  0  0  0  0  0
  -20.8795   -7.1449   23.2475 C   0  0  0  0  0  0  0  0  0  0  0  0
  -19.2859   -7.2701   25.5339 C   0  0  0  0  0  0  0  0  0  0  0  0
  -21.1062   -6.2637   24.3048 C   0  0  0  0  0  0  0  0  0  0  0  0
  -24.6007  -11.6456   20.7425 C   0  0  0  0  0  0  0  0  0  0  0  0
  -25.2346  -13.7098   20.3273 C   0  0  0  0  0  0  0  0  0  0  0  0
  -32.5020  -20.9319   24.0185 C   0  0  0  0  0  0  0  0  0  0  0  0
  -22.8506  -13.5049   21.0505 C   0  0  0  0  0  0  0  0  0  0  0  0
  -27.2956  -26.3088   20.6937 C   0  0  0  0  0  0  0  0  0  0  0  0
  -27.8827  -29.0678   22.2954 C   0  0  0  0  0  0  0  0  0  0  0  0
  -29.2717  -30.6038   25.0080 C   0  0  0  0  0  0  0  0  0  0  0  0
  -30.6710  -14.8873   20.5751 C   0  0  0  0  0  0  0  0  0  0  0  0
  -24.1426  -24.7256   17.0046 C   0  0  0  0  0  0  0  0  0  0  0  0
  -26.4667  -25.7353   23.0046 C   0  0  0  0  0  0  0  0  0  0  0  0
  -29.1293  -27.0198   23.0809 C   0  0  0  0  0  0  0  0  0  0  0  0
  -24.7456  -26.0633   17.4259 C   0  0  0  0  0  0  0  0  0  0  0  0
  -29.6854  -12.2217   18.4304 C   0  0  0  0  0  0  0  0  0  0  0  0
  -26.2502  -25.9278   17.6369 C   0  0  0  0  0  0  0  0  0  0  0  0
  -28.2371  -11.9437   18.8396 C   0  0  0  0  0  0  0  0  0  0  0  0
  -30.5533  -12.5913   19.6320 C   0  0  0  0  0  0  0  0  0  0  0  0
  -28.5858  -13.4103   20.8680 C   0  0  0  0  0  0  0  0  0  0  0  0
  -26.5624  -24.9287   18.7576 C   0  0  1  0  0  0  0  0  0  0  0  0
  -26.8532  -26.8412   22.0273 C   0  0  1  0  0  0  0  0  0  0  0  0
  -27.6584  -13.0970   19.6825 C   0  0  2  0  0  0  0  0  0  0  0  0
  -33.9459  -17.9331   23.3153 C   0  0  0  0  0  0  0  0  0  0  0  0
  -27.7927  -18.3590   21.2227 C   0  0  0  0  0  0  0  0  0  0  0  0
  -29.6233  -32.8723   26.0218 C   0  0  0  0  0  0  0  0  0  0  0  0
  -30.0892  -29.6307   20.2645 C   0  0  0  0  0  0  0  0  0  0  0  0
  -30.9992  -31.3548   21.8354 C   0  0  0  0  0  0  0  0  0  0  0  0
  -28.7088  -31.6220   20.8840 C   0  0  0  0  0  0  0  0  0  0  0  0
  -27.7376  -29.8850   27.4347 C   0  0  0  0  0  0  0  0  0  0  0  0
  -28.2192  -17.7766   22.5665 C   0  0  0  0  0  0  0  0  0  0  0  0
  -33.0804  -22.0726   24.8123 C   0  0  0  0  0  0  0  0  0  0  0  0
  -32.1874  -23.2959   24.6911 C   0  0  0  0  0  0  0  0  0  1  0  0
  -29.1205  -29.8572   22.6470 C   0  0  1  0  0  0  0  0  0  0  0  0
  -28.7240  -31.6472   25.9649 C   0  0  2  0  0  0  0  0  0  0  0  0
  -29.7261  -30.5892   21.4162 C   0  0  0  0  0  0  0  0  0  0  0  0
  -25.8811  -11.5355   20.3783 N   0  0  0  0  0  0  0  0  0  0  0  0
  -32.1845  -19.8209   24.5988 N   0  0  0  0  0  0  0  0  0  0  0  0
  -26.2385  -12.8074   20.1320 N   0  0  0  0  0  0  0  0  0  0  0  0
  -27.9377  -27.6867   22.5306 N   0  0  0  0  0  0  0  0  0  0  0  0
  -29.9448  -13.6934   20.3804 N   0  0  0  0  0  0  0  0  0  0  0  0
  -25.4228  -15.0312   20.1255 N   0  0  0  0  0  0  0  0  0  0  0  0
  -21.8444  -12.6127   21.4453 N   0  0  0  0  0  0  0  0  0  0  0  0
  -29.9783  -15.8763   21.2728 N   0  0  0  0  0  0  0  0  0  0  0  0
  -26.3451  -25.5375   20.0524 N   0  0  0  0  0  0  0  0  0  0  0  0
  -28.7421  -30.7432   23.7426 N   0  0  0  0  0  0  0  0  0  0  0  0
  -28.6124  -31.0819   27.3393 N   0  3  0  0  0  0  0  0  0  0  0  0
  -22.5898  -14.7295   20.9739 O   0  0  0  0  0  0  0  0  0  0  0  0
  -28.4158  -26.5789   20.2767 O   0  0  0  0  0  0  0  0  0  0  0  0
  -26.9006  -29.6560   21.8359 O   0  0  0  0  0  0  0  0  0  0  0  0
  -30.0905  -29.7527   25.3481 O   0  0  0  0  0  0  0  0  0  0  0  0
  -31.8126  -15.0324   20.1304 O   0  0  0  0  0  0  0  0  0  0  0  0
  -21.6702   -7.0846   22.1123 O   0  0  0  0  0  0  0  0  0  0  0  0
  -30.8990  -22.9938   25.2250 O   0  0  0  0  0  0  0  0  0  1  0  0
  -18.5216   -7.3313   26.6322 F   0  0  0  0  0  0  0  0  0  0  0  0
  -22.0888   -5.3556   24.2285 F   0  0  0  0  0  0  0  0  0  0  0  0
  1  2  1  0  0  0  0
  1  5  2  0  0  0  0
  2  6  2  0  0  0  0
  3  8  2  0  0  0  0
  3 17  1  0  0  0  0
  4  9  1  0  0  0  0
  4 17  2  0  0  0  0
  5 19  1  0  0  0  0
  6 21  1  0  0  0  0
  7 10  2  0  0  0  0
  7 20  1  0  0  0  0
  8 27  1  0  0  0  0
  9 27  2  0  0  0  0
 10 28  1  0  0  0  0
 11 12  2  0  0  0  0
 11 29  1  0  0  0  0
 12 30  1  0  0  0  0
 13 22  1  0  0  0  0
 13 28  2  0  0  0  0
 14 23  1  0  0  0  0
 14 25  2  0  0  0  0
 15 24  2  0  0  0  0
 15 26  1  0  0  0  0
 16 30  2  0  0  0  0
 16 31  1  0  0  0  0
 17 32  1  0  0  0  0
 18 32  1  0  0  0  0
 18 33  2  0  0  0  0
 18 35  1  0  0  0  0
 19 21  2  0  0  0  0
 19 40  1  0  0  0  0
 20 22  2  0  0  0  0
 20 41  1  0  0  0  0
 21 49  1  0  0  0  0
 22 42  1  0  0  0  0
 23 26  2  0  0  0  0
 23 59  1  0  0  0  0
 24 25  1  0  0  0  0
 24 52  1  0  0  0  0
 25 66  1  0  0  0  0
 26 72  1  0  0  0  0
 27 81  1  0  0  0  0
 28 82  1  0  0  0  0
 29 31  2  0  0  0  0
 29 81  1  0  0  0  0
 30 83  1  0  0  0  0
 31 84  1  0  0  0  0
 32 65  2  0  0  0  0
 33 67  1  0  0  0  0
 33 70  1  0  0  0  0
 34 60  1  0  0  0  0
 34 66  2  0  0  0  0
 35 71  1  0  0  0  0
 35 76  2  0  0  0  0
 36 50  1  0  0  0  0
 36 73  1  0  0  0  0
 36 77  2  0  0  0  0
 37 62  1  0  0  0  0
 37 68  1  0  0  0  0
 37 78  2  0  0  0  0
 38 63  1  0  0  0  0
 38 74  1  0  0  0  0
 38 79  2  0  0  0  0
 39 69  1  0  0  0  0
 39 72  1  0  0  0  0
 39 80  2  0  0  0  0
 40 43  1  0  0  0  0
 41 50  1  0  0  0  0
 42 68  1  0  0  0  0
 43 45  1  0  0  0  0
 44 46  1  0  0  0  0
 44 47  1  0  0  0  0
 45 49  1  0  0  0  0
 46 51  1  0  0  0  0
 47 69  1  0  0  0  0
 48 51  1  0  0  0  0
 48 69  1  0  0  0  0
 49 73  1  0  0  0  0
 50 68  1  0  0  0  0
 51 67  1  0  0  0  0
 53 59  1  0  0  0  0
 54 63  1  0  0  0  0
 55 64  1  0  0  0  0
 56 64  1  0  0  0  0
 57 64  1  0  0  0  0
 58 75  1  0  0  0  0
 60 61  1  0  0  0  0
 61 82  1  0  0  0  0
 62 64  1  0  0  0  0
 62 74  1  0  0  0  0
 63 75  1  0  0  0  0
 65 67  1  0  0  0  0
M  CHG  1  75   1
M  ISO  4  39 100  61 101  72 100  82 101
M  END
> <Batch ID>
0117

> <Smiles>
CCc1cc(NC=C[101CH2:1][101O:1]c2ccc3c(c2)CN(C(=O)C(NC(=O)C(C)NC)C(C)(C)C)C(C(=O)NC2CCCc4ccccc42)C3)c(C)cc1[100NH:0][100C:0](=O)N1CCCC(n2nc(-c3ccc(Oc4ccc(F)cc4F)cc3)c(C(N)=O)c2N)C1

> <Shape>
0.221

> <Color>
0.205

> <Negative vol penalty>
0.000

$$$$

  -OEChem-04052301463D

 87 95  0     1  0  0  0  0  0999 V2000
  -23.1715  -23.7972   19.8156 C   0  0  0  0  0  0  0  0  0  0  0  0
  -23.9458  -22.9994   20.6517 C   0  0  0  0  0  0  0  0  0  0  0  0
  -23.0014   -9.8925   19.9851 C   0  0  0  0  0  0  0  0  0  0  0  0
  -23.7194   -9.9560   22.2911 C   0  0  0  0  0  0  0  0  0  0  0  0
  -23.5405  -25.1208   19.5788 C   0  0  0  0  0  0  0  0  0  0  0  0
  -25.0904  -23.5243   21.2508 C   0  0  0  0  0  0  0  0  0  0  0  0
  -27.2835  -22.1792   26.8084 C   0  0  0  0  0  0  0  0  0  0  0  0
  -22.2341   -8.7594   20.2552 C   0  0  0  0  0  0  0  0  0  0  0  0
  -22.9521   -8.8229   22.5612 C   0  0  0  0  0  0  0  0  0  0  0  0
  -28.2926  -21.3169   27.2351 C   0  0  0  0  0  0  0  0  0  0  0  0
  -23.1980   -5.4815   22.1082 C   0  0  0  0  0  0  0  0  0  0  0  0
  -23.7832   -4.4684   22.8676 C   0  0  0  0  0  0  0  0  0  0  0  0
  -29.8467  -23.1616   27.2679 C   0  0  0  0  0  0  0  0  0  0  0  0
  -32.4434  -17.0931   23.9268 C   0  0  0  0  0  0  0  0  0  0  0  0
  -22.0542   -4.7203   24.5362 C   0  0  0  0  0  0  0  0  0  0  0  0
  -23.7441  -10.4908   21.0031 C   0  0  0  0  0  0  0  0  0  0  0  0
  -24.1299  -13.0054   20.8146 C   0  0  0  0  0  0  0  0  0  0  0  0
  -24.6848  -25.6650   20.1830 C   0  0  0  0  0  0  0  0  0  0  0  0
  -27.5516  -23.5393   26.5974 C   0  0  0  0  0  0  0  0  0  0  0  0
  -25.4758  -24.8559   21.0209 C   0  0  0  0  0  0  0  0  0  0  0  0
  -28.8387  -24.0395   26.8410 C   0  0  0  0  0  0  0  0  0  0  0  0
  -30.0892  -17.8110   22.6135 C   0  0  0  0  0  0  0  0  0  0  0  0
  -31.8654  -18.3403   24.1634 C   0  0  0  0  0  0  0  0  0  0  0  0
  -30.6673  -16.5638   22.3769 C   0  0  0  0  0  0  0  0  0  0  0  0
  -22.2094   -8.2247   21.5433 C   0  0  0  0  0  0  0  0  0  0  0  0
  -29.5751  -21.8076   27.4622 C   0  0  0  0  0  0  0  0  0  0  0  0
  -22.0409   -6.1141   22.5628 C   0  0  0  0  0  0  0  0  0  0  0  0
  -30.6883  -18.6993   23.5067 C   0  0  0  0  0  0  0  0  0  0  0  0
  -23.2113   -4.0878   24.0816 C   0  0  0  0  0  0  0  0  0  0  0  0
  -31.8444  -16.2049   23.0336 C   0  0  0  0  0  0  0  0  0  0  0  0
  -21.4690   -5.7335   23.7767 C   0  0  0  0  0  0  0  0  0  0  0  0
  -24.5374  -11.6609   20.7245 C   0  0  0  0  0  0  0  0  0  0  0  0
  -25.2408  -13.7261   20.4497 C   0  0  0  0  0  0  0  0  0  0  0  0
  -28.4525  -17.9975   19.4374 C   0  0  0  0  0  0  0  0  0  0  0  0
  -29.0509  -18.5910   20.4763 C   0  0  0  0  0  0  0  0  0  0  0  0
  -32.1032  -19.1230   26.2978 C   0  0  0  0  0  0  0  0  0  0  0  0
  -22.8607  -13.5538   21.1942 C   0  0  0  0  0  0  0  0  0  0  0  0
  -27.4430  -25.4836   24.0850 C   0  0  0  0  0  0  0  0  0  0  0  0
  -28.1036  -27.7545   26.3051 C   0  0  0  0  0  0  0  0  0  0  0  0
  -29.4224  -28.5259   29.3568 C   0  0  0  0  0  0  0  0  0  0  0  0
  -30.7194  -14.6887   20.6954 C   0  0  0  0  0  0  0  0  0  0  0  0
  -25.0698  -27.0869   19.8596 C   0  0  0  0  0  0  0  0  0  0  0  0
  -26.4456  -24.4615   26.1627 C   0  0  0  0  0  0  0  0  0  0  0  0
  -29.1732  -25.4954   26.6488 C   0  0  0  0  0  0  0  0  0  0  0  0
  -26.0897  -27.6775   20.8297 C   0  0  0  0  0  0  0  0  0  0  0  0
  -29.6084  -12.2232   18.3794 C   0  0  0  0  0  0  0  0  0  0  0  0
  -27.2285  -26.6920   21.0724 C   0  0  0  0  0  0  0  0  0  0  0  0
  -28.1566  -11.9677   18.7904 C   0  0  0  0  0  0  0  0  0  0  0  0
  -30.5052  -12.4732   19.5906 C   0  0  0  0  0  0  0  0  0  0  0  0
  -28.5857  -13.2692   20.9139 C   0  0  0  0  0  0  0  0  0  0  0  0
  -26.7106  -25.3965   21.7087 C   0  0  1  0  0  0  0  0  0  0  0  0
  -26.9564  -25.7294   25.4852 C   0  0  1  0  0  0  0  0  0  0  0  0
  -27.6317  -13.0763   19.7238 C   0  0  2  0  0  0  0  0  0  0  0  0
  -29.8529  -30.4718   30.8818 C   0  0  0  0  0  0  0  0  0  0  0  0
  -30.4564  -28.6014   24.5567 C   0  0  0  0  0  0  0  0  0  0  0  0
  -31.3769  -29.8506   26.5214 C   0  0  0  0  0  0  0  0  0  0  0  0
  -29.1673  -30.4952   25.5597 C   0  0  0  0  0  0  0  0  0  0  0  0
  -27.7067  -27.3881   31.4829 C   0  0  0  0  0  0  0  0  0  0  0  0
  -30.5363  -20.9939   22.9006 C   0  0  0  0  0  0  0  0  0  0  0  0
  -28.8266  -18.2046   21.9132 C   0  0  0  0  0  0  0  0  0  0  0  0
  -32.7031  -20.0072   27.3581 C   0  0  0  0  0  0  0  0  0  0  0  0
  -31.8958  -21.2882   27.4846 C   0  0  0  0  0  0  0  0  0  1  0  0
  -29.3649  -28.3499   26.8829 C   0  0  1  0  0  0  0  0  0  0  0  0
  -28.8846  -29.3614   30.5045 C   0  0  2  0  0  0  0  0  0  0  0  0
  -30.0858  -29.2964   25.8820 C   0  0  0  0  0  0  0  0  0  0  0  0
  -25.8079  -11.5323   20.3330 N   0  0  0  0  0  0  0  0  0  0  0  0
  -32.4812  -19.2241   25.0654 N   0  0  0  0  0  0  0  0  0  0  0  0
  -26.2083  -12.8053   20.1737 N   0  0  0  0  0  0  0  0  0  0  0  0
  -28.0594  -26.3559   26.2167 N   0  0  0  0  0  0  0  0  0  0  0  0
  -29.9475  -13.5386   20.4264 N   0  0  0  0  0  0  0  0  0  0  0  0
  -25.4745  -15.0512   20.3412 N   0  0  0  0  0  0  0  0  0  0  0  0
  -21.8279  -12.6715   21.5394 N   0  0  0  0  0  0  0  0  0  0  0  0
  -30.0727  -15.6481   21.4738 N   0  0  0  0  0  0  0  0  0  0  0  0
  -26.4594  -25.5920   23.1205 N   0  0  0  0  0  0  0  0  0  0  0  0
  -28.9779  -28.9884   28.1362 N   0  0  0  0  0  0  0  0  0  0  0  0
  -28.6577  -28.5077   31.7047 N   0  3  0  0  0  0  0  0  0  0  0  0
  -22.6439  -14.7893   21.2106 O   0  0  0  0  0  0  0  0  0  0  0  0
  -28.6237  -25.2169   23.8938 O   0  0  0  0  0  0  0  0  0  0  0  0
  -27.1884  -28.5024   25.9521 O   0  0  0  0  0  0  0  0  0  0  0  0
  -30.1658  -27.5619   29.5258 O   0  0  0  0  0  0  0  0  0  0  0  0
  -31.8595  -14.8252   20.2442 O   0  0  0  0  0  0  0  0  0  0  0  0
  -21.4606   -7.1192   21.8073 O   0  0  0  0  0  0  0  0  0  0  0  0
  -30.1235  -19.9191   23.7406 O   0  0  0  0  0  0  0  0  0  0  0  0
  -30.5620  -20.9680   27.8781 O   0  0  0  0  0  0  0  0  0  1  0  0
  -23.7726   -3.1139   24.8100 F   0  0  0  0  0  0  0  0  0  0  0  0
  -32.4098  -15.0090   22.8147 F   0  0  0  0  0  0  0  0  0  0  0  0
  -20.3567   -6.3367   24.2180 F   0  0  0  0  0  0  0  0  0  0  0  0
  1  2  1  0  0  0  0
  1  5  2  0  0  0  0
  2  6  2  0  0  0  0
  3  8  2  0  0  0  0
  3 16  1  0  0  0  0
  4  9  1  0  0  0  0
  4 16  2  0  0  0  0
  5 18  1  0  0  0  0
  6 20  1  0  0  0  0
  7 10  2  0  0  0  0
  7 19  1  0  0  0  0
  8 25  1  0  0  0  0
  9 25  2  0  0  0  0
 10 26  1  0  0  0  0
 11 12  2  0  0  0  0
 11 27  1  0  0  0  0
 12 29  1  0  0  0  0
 13 21  1  0  0  0  0
 13 26  2  0  0  0  0
 14 23  2  0  0  0  0
 14 30  1  0  0  0  0
 15 29  2  0  0  0  0
 15 31  1  0  0  0  0
 16 32  1  0  0  0  0
 17 32  1  0  0  0  0
 17 33  2  0  0  0  0
 17 37  1  0  0  0  0
 18 20  2  0  0  0  0
 18 42  1  0  0  0  0
 19 21  2  0  0  0  0
 19 43  1  0  0  0  0
 20 51  1  0  0  0  0
 21 44  1  0  0  0  0
 22 24  1  0  0  0  0
 22 28  2  0  0  0  0
 22 60  1  0  0  0  0
 23 28  1  0  0  0  0
 23 67  1  0  0  0  0
 24 30  2  0  0  0  0
 24 73  1  0  0  0  0
 25 82  1  0  0  0  0
 26 84  1  0  0  0  0
 27 31  2  0  0  0  0
 27 82  1  0  0  0  0
 28 83  1  0  0  0  0
 29 85  1  0  0  0  0
 30 86  1  0  0  0  0
 31 87  1  0  0  0  0
 32 66  2  0  0  0  0
 33 68  1  0  0  0  0
 33 71  1  0  0  0  0
 34 35  2  0  0  0  0
 35 60  1  0  0  0  0
 36 61  1  0  0  0  0
 36 67  2  0  0  0  0
 37 72  1  0  0  0  0
 37 77  2  0  0  0  0
 38 52  1  0  0  0  0
 38 74  1  0  0  0  0
 38 78  2  0  0  0  0
 39 63  1  0  0  0  0
 39 69  1  0  0  0  0
 39 79  2  0  0  0  0
 40 64  1  0  0  0  0
 40 75  1  0  0  0  0
 40 80  2  0  0  0  0
 41 70  1  0  0  0  0
 41 73  1  0  0  0  0
 41 81  2  0  0  0  0
 42 45  1  0  0  0  0
 43 52  1  0  0  0  0
 44 69  1  0  0  0  0
 45 47  1  0  0  0  0
 46 48  1  0  0  0  0
 46 49  1  0  0  0  0
 47 51  1  0  0  0  0
 48 53  1  0  0  0  0
 49 70  1  0  0  0  0
 50 53  1  0  0  0  0
 50 70  1  0  0  0  0
 51 74  1  0  0  0  0
 52 69  1  0  0  0  0
 53 68  1  0  0  0  0
 54 64  1  0  0  0  0
 55 65  1  0  0  0  0
 56 65  1  0  0  0  0
 57 65  1  0  0  0  0
 58 76  1  0  0  0  0
 59 83  1  0  0  0  0
 61 62  1  0  0  0  0
 62 84  1  0  0  0  0
 63 65  1  0  0  0  0
 63 75  1  0  0  0  0
 64 76  1  0  0  0  0
 66 68  1  0  0  0  0
M  CHG  1  76   1
M  ISO  4  41 100  62 101  73 100  84 101
M  END
> <Batch ID>
0117

> <Smiles>
C=CCc1c([100NH:0][100C:0](=O)N2CCCC(n3nc(-c4ccc(Oc5ccc(F)cc5F)cc4)c(C(N)=O)c3N)C2)c(F)cc(NC=C[101CH2:1][101O:1]c2ccc3c(c2)CN(C(=O)C(NC(=O)C(C)NC)C(C)(C)C)C(C(=O)NC2CCCc4ccccc42)C3)c1OC

> <Shape>
0.213

> <Color>
0.194

> <Negative vol penalty>
0.000

$$$$

  -OEChem-04052301463D

 82 90  0     1  0  0  0  0  0999 V2000
  -28.9481  -37.0081   21.4472 C   0  0  0  0  0  0  0  0  0  0  0  0
  -28.9585  -35.9586   20.5340 C   0  0  0  0  0  0  0  0  0  0  0  0
  -24.2237   -9.6019   22.1858 C   0  0  0  0  0  0  0  0  0  0  0  0
  -24.3650   -8.9011   19.8780 C   0  0  0  0  0  0  0  0  0  0  0  0
  -28.6998  -36.7549   22.7956 C   0  0  0  0  0  0  0  0  0  0  0  0
  -28.7217  -34.6551   20.9690 C   0  0  0  0  0  0  0  0  0  0  0  0
  -25.7810  -28.4935   18.8002 C   0  0  0  0  0  0  0  0  0  0  0  0
  -23.1113   -8.7802   22.3673 C   0  0  0  0  0  0  0  0  0  0  0  0
  -23.2527   -8.0793   20.0595 C   0  0  0  0  0  0  0  0  0  0  0  0
  -26.0846  -27.1378   18.6826 C   0  0  0  0  0  0  0  0  0  0  0  0
  -22.4973   -5.4917   22.8593 C   0  0  0  0  0  0  0  0  0  0  0  0
  -22.4546   -4.7030   24.0089 C   0  0  0  0  0  0  0  0  0  0  0  0
  -25.5888  -26.8299   21.0232 C   0  0  0  0  0  0  0  0  0  0  0  0
  -31.3842  -21.9991   19.9878 C   0  0  0  0  0  0  0  0  0  0  0  0
  -20.4115   -5.8004   24.6860 C   0  0  0  0  0  0  0  0  0  0  0  0
  -24.8505   -9.6624   20.9412 C   0  0  0  0  0  0  0  0  0  0  0  0
  -27.3512  -10.1665   20.9404 C   0  0  0  0  0  0  0  0  0  0  0  0
  -28.4503  -35.4489   23.2458 C   0  0  0  0  0  0  0  0  0  0  0  0
  -25.3890  -29.0305   20.0349 C   0  0  0  0  0  0  0  0  0  0  0  0
  -28.4712  -34.3840   22.3249 C   0  0  0  0  0  0  0  0  0  0  0  0
  -25.2784  -28.1921   21.1533 C   0  0  0  0  0  0  0  0  0  0  0  0
  -31.6057  -20.6668   20.4111 C   0  0  0  0  0  0  0  0  0  0  0  0
  -22.6258   -8.0188   21.3041 C   0  0  0  0  0  0  0  0  0  0  0  0
  -25.9913  -26.3063   19.7948 C   0  0  0  0  0  0  0  0  0  0  0  0
  -21.4971   -6.4349   22.6230 C   0  0  0  0  0  0  0  0  0  0  0  0
  -21.4117   -4.8573   24.9222 C   0  0  0  0  0  0  0  0  0  0  0  0
  -20.4542   -6.5892   23.5364 C   0  0  0  0  0  0  0  0  0  0  0  0
  -25.9993  -10.5115   20.7530 C   0  0  0  0  0  0  0  0  0  0  0  0
  -30.0271  -22.1194   19.7993 C   0  0  0  0  0  0  0  0  0  0  0  0
  -30.3680  -20.0680   20.4513 C   0  0  0  0  0  0  0  0  0  0  0  0
  -28.0437  -11.3124   20.6339 C   0  0  0  0  0  0  0  0  0  0  0  0
  -29.2896  -23.3153   19.3586 C   0  0  0  0  0  0  0  0  0  0  0  0
  -30.0616  -18.7353   20.8156 C   0  0  0  0  0  0  0  0  0  0  0  0
  -28.8189  -18.1510   20.8284 C   0  0  0  0  0  0  0  0  0  0  0  0
  -27.9628  -23.3798   19.1670 C   0  0  0  0  0  0  0  0  0  0  0  0
  -27.9294   -8.9215   21.3544 C   0  0  0  0  0  0  0  0  0  0  0  0
  -28.6625  -16.7375   21.2263 C   0  0  0  0  0  0  0  0  0  0  0  0
  -26.5697  -31.2326   21.9996 C   0  0  0  0  0  0  0  0  0  0  0  0
  -23.7970  -30.7263   23.6053 C   0  0  0  0  0  0  0  0  0  0  0  0
  -21.1953  -28.6314   24.3050 C   0  0  0  0  0  0  0  0  0  0  0  0
  -28.2338  -35.2183   24.7204 C   0  0  0  0  0  0  0  0  0  0  0  0
  -25.0392  -30.4897   20.1391 C   0  0  0  0  0  0  0  0  0  0  0  0
  -24.8425  -28.7155   22.4967 C   0  0  0  0  0  0  0  0  0  0  0  0
  -27.6214  -33.8571   25.0406 C   0  0  0  0  0  0  0  0  0  0  0  0
  -26.5332  -15.6075   18.4656 C   0  0  0  0  0  0  0  0  0  0  0  0
  -28.3374  -32.7544   24.2671 C   0  0  0  0  0  0  0  0  0  0  0  0
  -26.2798  -14.1563   18.8652 C   0  0  0  0  0  0  0  0  0  0  0  0
  -26.6406  -16.5252   19.6825 C   0  0  0  0  0  0  0  0  0  0  0  0
  -27.4019  -14.6252   21.0792 C   0  0  0  0  0  0  0  0  0  0  0  0
  -28.1942  -32.9596   22.7542 C   0  0  1  0  0  0  0  0  0  0  0  0
  -25.1467  -31.0297   21.5618 C   0  0  1  0  0  0  0  0  0  0  0  0
  -27.3372  -13.6764   19.8721 C   0  0  1  0  0  0  0  0  0  0  0  0
  -33.1468  -19.9333   22.2478 C   0  0  0  0  0  0  0  0  0  0  0  0
  -19.1033  -28.4806   25.6828 C   0  0  0  0  0  0  0  0  0  0  0  0
  -25.4795  -30.2242   26.1006 C   0  0  0  0  0  0  0  0  0  0  0  0
  -23.4691  -29.1731   27.1598 C   0  0  0  0  0  0  0  0  0  0  0  0
  -23.4118  -31.5756   26.4912 C   0  0  0  0  0  0  0  0  0  0  0  0
  -19.4939  -28.3433   21.9006 C   0  0  0  0  0  0  0  0  0  0  0  0
  -32.9114  -20.0615   20.7390 C   0  0  0  0  0  0  0  0  0  0  0  0
  -27.2593  -24.6153   18.7046 C   0  0  0  0  0  0  0  0  0  1  0  0
  -23.3528  -29.7896   24.7027 C   0  0  1  0  0  0  0  0  0  0  0  0
  -19.6954  -28.8634   24.3353 C   0  0  2  0  0  0  0  0  0  0  0  0
  -23.9384  -30.1808   26.0888 C   0  0  0  0  0  0  0  0  0  0  0  0
  -25.8402  -11.7775   20.3583 N   0  0  0  0  0  0  0  0  0  0  0  0
  -27.1011  -12.2382   20.2952 N   0  0  0  0  0  0  0  0  0  0  0  0
  -27.6156  -16.0142   20.6577 N   0  0  0  0  0  0  0  0  0  0  0  0
  -24.5174  -30.1504   22.5492 N   0  0  0  0  0  0  0  0  0  0  0  0
  -29.3607  -11.6084   20.6240 N   0  0  0  0  0  0  0  0  0  0  0  0
  -27.0737   -7.8461   21.6293 N   0  0  0  0  0  0  0  0  0  0  0  0
  -26.8816  -32.5426   22.3096 N   0  0  0  0  0  0  0  0  0  0  0  0
  -21.8949  -29.7670   24.6548 N   0  0  0  0  0  0  0  0  0  0  0  0
  -19.0245  -28.0529   23.2799 N   0  3  0  0  0  0  0  0  0  0  0  0
  -29.1672   -8.7721   21.4927 O   0  0  0  0  0  0  0  0  0  0  0  0
  -29.4667  -16.2842   22.0427 O   0  0  0  0  0  0  0  0  0  0  0  0
  -27.3281  -30.2716   22.0537 O   0  0  0  0  0  0  0  0  0  0  0  0
  -23.5090  -31.9235   23.6786 O   0  0  0  0  0  0  0  0  0  0  0  0
  -21.6961  -27.5499   24.0049 O   0  0  0  0  0  0  0  0  0  0  0  0
  -29.4003  -20.9468   20.0799 O   0  0  0  0  0  0  0  0  0  0  0  0
  -21.5405   -7.2167   21.4808 O   0  0  0  0  0  0  0  0  0  0  0  0
  -26.2876  -24.9829   19.6829 O   0  0  0  0  0  0  0  0  0  1  0  0
  -21.3701   -4.0987   26.0254 F   0  0  0  0  0  0  0  0  0  0  0  0
  -19.4899   -7.4928   23.3143 F   0  0  0  0  0  0  0  0  0  0  0  0
  1  2  1  0  0  0  0
  1  5  2  0  0  0  0
  2  6  2  0  0  0  0
  3  8  2  0  0  0  0
  3 16  1  0  0  0  0
  4  9  1  0  0  0  0
  4 16  2  0  0  0  0
  5 18  1  0  0  0  0
  6 20  1  0  0  0  0
  7 10  2  0  0  0  0
  7 19  1  0  0  0  0
  8 23  1  0  0  0  0
  9 23  2  0  0  0  0
 10 24  1  0  0  0  0
 11 12  2  0  0  0  0
 11 25  1  0  0  0  0
 12 26  1  0  0  0  0
 13 21  1  0  0  0  0
 13 24  2  0  0  0  0
 14 22  1  0  0  0  0
 14 29  2  0  0  0  0
 15 26  2  0  0  0  0
 15 27  1  0  0  0  0
 16 28  1  0  0  0  0
 17 28  1  0  0  0  0
 17 31  2  0  0  0  0
 17 36  1  0  0  0  0
 18 20  2  0  0  0  0
 18 41  1  0  0  0  0
 19 21  2  0  0  0  0
 19 42  1  0  0  0  0
 20 50  1  0  0  0  0
 21 43  1  0  0  0  0
 22 30  2  0  0  0  0
 22 59  1  0  0  0  0
 23 79  1  0  0  0  0
 24 80  1  0  0  0  0
 25 27  2  0  0  0  0
 25 79  1  0  0  0  0
 26 81  1  0  0  0  0
 27 82  1  0  0  0  0
 28 64  2  0  0  0  0
 29 32  1  0  0  0  0
 29 78  1  0  0  0  0
 30 33  1  0  0  0  0
 30 78  1  0  0  0  0
 31 65  1  0  0  0  0
 31 68  1  0  0  0  0
 32 35  2  0  0  0  0
 33 34  2  0  0  0  0
 34 37  1  0  0  0  0
 35 60  1  0  0  0  0
 36 69  1  0  0  0  0
 36 73  2  0  0  0  0
 37 66  1  0  0  0  0
 37 74  2  0  0  0  0
 38 51  1  0  0  0  0
 38 70  1  0  0  0  0
 38 75  2  0  0  0  0
 39 61  1  0  0  0  0
 39 67  1  0  0  0  0
 39 76  2  0  0  0  0
 40 62  1  0  0  0  0
 40 71  1  0  0  0  0
 40 77  2  0  0  0  0
 41 44  1  0  0  0  0
 42 51  1  0  0  0  0
 43 67  1  0  0  0  0
 44 46  1  0  0  0  0
 45 47  1  0  0  0  0
 45 48  1  0  0  0  0
 46 50  1  0  0  0  0
 47 52  1  0  0  0  0
 48 66  1  0  0  0  0
 49 52  1  0  0  0  0
 49 66  1  0  0  0  0
 50 70  1  0  0  0  0
 51 67  1  0  0  0  0
 52 65  1  0  0  0  0
 53 59  1  0  0  0  0
 54 62  1  0  0  0  0
 55 63  1  0  0  0  0
 56 63  1  0  0  0  0
 57 63  1  0  0  0  0
 58 72  1  0  0  0  0
 60 80  1  0  0  0  0
 61 63  1  0  0  0  0
 61 71  1  0  0  0  0
 62 72  1  0  0  0  0
 64 65  1  0  0  0  0
M  CHG  1  72   1
M  ISO  4  34 100  37 100  60 101  80 101
M  END
> <Batch ID>
0117

> <Smiles>
CCc1cc(C=C[101CH2:1][101O:1]c2ccc3c(c2)CN(C(=O)C(NC(=O)C(C)NC)C(C)(C)C)C(C(=O)NC2CCCc4ccccc42)C3)oc1C=[100CH:0][100C:0](=O)N1CCCC(n2nc(-c3ccc(Oc4ccc(F)cc4F)cc3)c(C(N)=O)c2N)C1

> <Shape>
0.280

> <Color>
0.127

> <Negative vol penalty>
0.000

$$$$

  -OEChem-04052301463D

 84 92  0     1  0  0  0  0  0999 V2000
  -28.1439  -23.6787   17.9593 C   0  0  0  0  0  0  0  0  0  0  0  0
  -26.9220  -24.0349   18.5210 C   0  0  0  0  0  0  0  0  0  0  0  0
  -27.3229  -15.3949   22.0192 C   0  0  0  0  0  0  0  0  0  0  0  0
  -25.4886  -15.9029   20.5312 C   0  0  0  0  0  0  0  0  0  0  0  0
  -29.3296  -24.1724   18.5018 C   0  0  0  0  0  0  0  0  0  0  0  0
  -26.8852  -24.8843   19.6263 C   0  0  0  0  0  0  0  0  0  0  0  0
  -23.3524  -28.4864   19.1912 C   0  0  0  0  0  0  0  0  0  0  0  0
  -27.1971  -14.0402   21.7120 C   0  0  0  0  0  0  0  0  0  0  0  0
  -25.3628  -14.5481   20.2239 C   0  0  0  0  0  0  0  0  0  0  0  0
  -22.0316  -28.1163   19.4407 C   0  0  0  0  0  0  0  0  0  0  0  0
  -28.0772  -11.9655   19.1913 C   0  0  0  0  0  0  0  0  0  0  0  0
  -29.2445  -11.2503   18.9237 C   0  0  0  0  0  0  0  0  0  0  0  0
  -22.1921  -29.0592   21.6553 C   0  0  0  0  0  0  0  0  0  0  0  0
  -18.9292  -23.1887   22.2356 C   0  0  0  0  0  0  0  0  0  0  0  0
  -28.7632   -9.7727   20.7737 C   0  0  0  0  0  0  0  0  0  0  0  0
  -26.4687  -16.3263   21.4289 C   0  0  0  0  0  0  0  0  0  0  0  0
  -27.3974  -18.6772   21.0851 C   0  0  0  0  0  0  0  0  0  0  0  0
  -29.3068  -25.0361   19.6083 C   0  0  0  0  0  0  0  0  0  0  0  0
  -24.1077  -29.1371   20.1774 C   0  0  0  0  0  0  0  0  0  0  0  0
  -28.0717  -25.3891   20.1848 C   0  0  0  0  0  0  0  0  0  0  0  0
  -23.5214  -29.4388   21.4149 C   0  0  0  0  0  0  0  0  0  0  0  0
  -20.0630  -22.3259   22.2254 C   0  0  0  0  0  0  0  0  0  0  0  0
  -26.2170  -13.6168   20.8143 C   0  0  0  0  0  0  0  0  0  0  0  0
  -21.4521  -28.4001   20.6739 C   0  0  0  0  0  0  0  0  0  0  0  0
  -27.2530  -11.5844   20.2501 C   0  0  0  0  0  0  0  0  0  0  0  0
  -29.5875  -10.1539   19.7149 C   0  0  0  0  0  0  0  0  0  0  0  0
  -27.5960  -10.4880   21.0413 C   0  0  0  0  0  0  0  0  0  0  0  0
  -26.5978  -17.7258   21.7464 C   0  0  0  0  0  0  0  0  0  0  0  0
  -18.8123  -23.8758   23.4238 C   0  0  0  0  0  0  0  0  0  0  0  0
  -27.1696  -19.8489   21.7646 C   0  0  0  0  0  0  0  0  0  0  0  0
  -20.7698  -22.3865   23.4064 C   0  0  0  0  0  0  0  0  0  0  0  0
  -28.2682  -18.5162   19.9575 C   0  0  0  0  0  0  0  0  0  0  0  0
  -26.7658  -28.4548   21.7813 C   0  0  0  0  0  0  0  0  0  0  0  0
  -18.6906  -26.7259   22.3259 C   0  0  0  0  0  0  0  0  0  0  0  0
  -26.3941  -31.4725   22.9115 C   0  0  0  0  0  0  0  0  0  0  0  0
  -24.2961  -34.0836   23.5652 C   0  0  0  0  0  0  0  0  0  0  0  0
  -22.5945  -21.8370   25.0541 C   0  0  0  0  0  0  0  0  0  0  0  0
  -30.6168  -25.5066   20.1890 C   0  0  0  0  0  0  0  0  0  0  0  0
  -25.5227  -29.5536   19.8831 C   0  0  0  0  0  0  0  0  0  0  0  0
  -24.2831  -30.1537   22.4999 C   0  0  0  0  0  0  0  0  0  0  0  0
  -30.4724  -26.7006   21.1291 C   0  0  0  0  0  0  0  0  0  0  0  0
  -25.9795  -21.4916   26.1027 C   0  0  0  0  0  0  0  0  0  0  0  0
  -29.3250  -26.4734   22.1082 C   0  0  0  0  0  0  0  0  0  0  0  0
  -26.5965  -20.5782   25.0410 C   0  0  0  0  0  0  0  0  0  0  0  0
  -24.5368  -21.1007   26.4181 C   0  0  0  0  0  0  0  0  0  0  0  0
  -24.2686  -20.0864   24.1891 C   0  0  0  0  0  0  0  0  0  0  0  0
  -27.9894  -26.3280   21.3688 C   0  0  1  0  0  0  0  0  0  0  0  0
  -26.3610  -29.7529   21.1420 C   0  0  1  0  0  0  0  0  0  0  0  0
  -25.7001  -20.4814   23.7910 C   0  0  2  0  0  0  0  0  0  0  0  0
  -21.2857  -23.4068   19.6670 C   0  0  0  0  0  0  0  0  0  0  0  0
  -24.2763  -36.4022   24.5249 C   0  0  0  0  0  0  0  0  0  0  0  0
  -26.5727  -30.3066   25.7256 C   0  0  0  0  0  0  0  0  0  0  0  0
  -25.6149  -32.4488   26.5986 C   0  0  0  0  0  0  0  0  0  0  0  0
  -27.8068  -32.4585   25.4076 C   0  0  0  0  0  0  0  0  0  0  0  0
  -23.3660  -35.2574   21.0125 C   0  0  0  0  0  0  0  0  0  0  0  0
  -20.4303  -21.4694   21.0721 C   0  0  0  0  0  0  0  0  0  0  0  0
  -17.7588  -24.8780   23.8305 C   0  0  0  0  0  0  0  0  0  0  0  0
  -18.2259  -26.3307   23.7202 C   0  0  0  0  0  0  0  0  0  0  0  0
  -19.8212  -27.7345   22.2718 C   0  0  0  0  0  0  0  0  0  1  0  0
  -21.6073  -22.0462   20.2646 C   0  0  0  0  0  0  0  0  0  0  0  0
  -25.6811  -32.0931   24.0886 C   0  0  1  0  0  0  0  0  0  0  0  0
  -24.4085  -35.5666   23.2611 C   0  0  2  0  0  0  0  0  0  0  0  0
  -26.4049  -31.8115   25.4355 C   0  0  0  0  0  0  0  0  0  0  0  0
  -25.9133  -18.2479   22.7676 N   0  0  0  0  0  0  0  0  0  0  0  0
  -26.2823  -19.5401   22.7532 N   0  0  0  0  0  0  0  0  0  0  0  0
  -25.6655  -30.5347   22.1663 N   0  0  0  0  0  0  0  0  0  0  0  0
  -23.7463  -21.0330   25.1870 N   0  0  0  0  0  0  0  0  0  0  0  0
  -27.6439  -21.1030   21.6069 N   0  0  0  0  0  0  0  0  0  0  0  0
  -28.3854  -17.2446   19.3801 N   0  0  0  0  0  0  0  0  0  0  0  0
  -21.9425  -21.7120   23.8278 N   0  0  0  0  0  0  0  0  0  0  0  0
  -27.4975  -27.6243   20.9541 N   0  0  0  0  0  0  0  0  0  0  0  0
  -25.5323  -33.5101   23.7750 N   0  0  0  0  0  0  0  0  0  0  0  0
  -23.3403  -35.9826   22.3088 N   0  3  0  0  0  0  0  0  0  0  0  0
  -28.9355  -19.4683   19.4865 O   0  0  0  0  0  0  0  0  0  0  0  0
  -26.4396  -28.2243   22.9399 O   0  0  0  0  0  0  0  0  0  0  0  0
  -18.2108  -26.2376   21.3041 O   0  0  0  0  0  0  0  0  0  0  0  0
  -27.5525  -31.8128   22.6582 O   0  0  0  0  0  0  0  0  0  0  0  0
  -23.2190  -33.4937   23.6155 O   0  0  0  0  0  0  0  0  0  0  0  0
  -22.2298  -22.6017   25.9509 O   0  0  0  0  0  0  0  0  0  0  0  0
  -26.0941  -12.2949   20.5140 O   0  0  0  0  0  0  0  0  0  0  0  0
  -20.1633  -28.0394   20.9203 O   0  0  0  0  0  0  0  0  0  1  0  0
  -30.7076   -9.4663   19.4569 F   0  0  0  0  0  0  0  0  0  0  0  0
  -26.8075  -10.1163   22.0591 F   0  0  0  0  0  0  0  0  0  0  0  0
  -20.0663  -23.4800   24.5207 S   0  0  0  0  0  0  0  0  0  0  0  0
  1  2  1  0  0  0  0
  1  5  2  0  0  0  0
  2  6  2  0  0  0  0
  3  8  2  0  0  0  0
  3 16  1  0  0  0  0
  4  9  1  0  0  0  0
  4 16  2  0  0  0  0
  5 18  1  0  0  0  0
  6 20  1  0  0  0  0
  7 10  2  0  0  0  0
  7 19  1  0  0  0  0
  8 23  1  0  0  0  0
  9 23  2  0  0  0  0
 10 24  1  0  0  0  0
 11 12  2  0  0  0  0
 11 25  1  0  0  0  0
 12 26  1  0  0  0  0
 13 21  1  0  0  0  0
 13 24  2  0  0  0  0
 14 22  1  0  0  0  0
 14 29  2  0  0  0  0
 15 26  2  0  0  0  0
 15 27  1  0  0  0  0
 16 28  1  0  0  0  0
 17 28  1  0  0  0  0
 17 30  2  0  0  0  0
 17 32  1  0  0  0  0
 18 20  2  0  0  0  0
 18 38  1  0  0  0  0
 19 21  2  0  0  0  0
 19 39  1  0  0  0  0
 20 47  1  0  0  0  0
 21 40  1  0  0  0  0
 22 31  2  0  0  0  0
 22 56  1  0  0  0  0
 23 80  1  0  0  0  0
 24 81  1  0  0  0  0
 25 27  2  0  0  0  0
 25 80  1  0  0  0  0
 26 82  1  0  0  0  0
 27 83  1  0  0  0  0
 28 64  2  0  0  0  0
 29 57  1  0  0  0  0
 29 84  1  0  0  0  0
 30 65  1  0  0  0  0
 30 68  1  0  0  0  0
 31 70  1  0  0  0  0
 31 84  1  0  0  0  0
 32 69  1  0  0  0  0
 32 74  2  0  0  0  0
 33 48  1  0  0  0  0
 33 71  1  0  0  0  0
 33 75  2  0  0  0  0
 34 58  1  0  0  0  0
 34 59  1  0  0  0  0
 34 76  2  0  0  0  0
 35 61  1  0  0  0  0
 35 66  1  0  0  0  0
 35 77  2  0  0  0  0
 36 62  1  0  0  0  0
 36 72  1  0  0  0  0
 36 78  2  0  0  0  0
 37 67  1  0  0  0  0
 37 70  1  0  0  0  0
 37 79  2  0  0  0  0
 38 41  1  0  0  0  0
 39 48  1  0  0  0  0
 40 66  1  0  0  0  0
 41 43  1  0  0  0  0
 42 44  1  0  0  0  0
 42 45  1  0  0  0  0
 43 47  1  0  0  0  0
 44 49  1  0  0  0  0
 45 67  1  0  0  0  0
 46 49  1  0  0  0  0
 46 67  1  0  0  0  0
 47 71  1  0  0  0  0
 48 66  1  0  0  0  0
 49 65  1  0  0  0  0
 50 60  1  0  0  0  0
 51 62  1  0  0  0  0
 52 63  1  0  0  0  0
 53 63  1  0  0  0  0
 54 63  1  0  0  0  0
 55 73  1  0  0  0  0
 56 60  1  0  0  0  0
 57 58  1  0  0  0  0
 59 81  1  0  0  0  0
 61 63  1  0  0  0  0
 61 72  1  0  0  0  0
 62 73  1  0  0  0  0
 64 65  1  0  0  0  0
M  CHG  1  73   1
M  ISO  4  37 100  59 101  70 100  81 101
M  END
> <Batch ID>
0117

> <Smiles>
CCCc1cc(CCC(=O)[101CH2:1][101O:1]c2ccc3c(c2)CN(C(=O)C(NC(=O)C(C)NC)C(C)(C)C)C(C(=O)NC2CCCc4ccccc42)C3)sc1[100NH:0][100C:0](=O)N1CCCC(n2nc(-c3ccc(Oc4ccc(F)cc4F)cc3)c(C(N)=O)c2N)C1

> <Shape>
0.273

> <Color>
0.064

> <Negative vol penalty>
0.000

$$$$

  -OEChem-04052301463D

 83 91  0     1  0  0  0  0  0999 V2000
  -16.7557  -29.4713   22.6855 C   0  0  0  0  0  0  0  0  0  0  0  0
  -17.8352  -29.6080   21.8187 C   0  0  0  0  0  0  0  0  0  0  0  0
  -25.4007  -14.4673   22.3729 C   0  0  0  0  0  0  0  0  0  0  0  0
  -25.8541  -13.4507   20.2286 C   0  0  0  0  0  0  0  0  0  0  0  0
  -16.9776  -29.2327   24.0412 C   0  0  0  0  0  0  0  0  0  0  0  0
  -19.1374  -29.5073   22.3073 C   0  0  0  0  0  0  0  0  0  0  0  0
  -23.9835  -27.1353   19.4100 C   0  0  0  0  0  0  0  0  0  0  0  0
  -24.2856  -13.6438   22.5276 C   0  0  0  0  0  0  0  0  0  0  0  0
  -24.7390  -12.6271   20.3833 C   0  0  0  0  0  0  0  0  0  0  0  0
  -25.0308  -27.7206   18.6999 C   0  0  0  0  0  0  0  0  0  0  0  0
  -23.9449   -9.8009   22.0574 C   0  0  0  0  0  0  0  0  0  0  0  0
  -24.0910   -8.4494   21.7452 C   0  0  0  0  0  0  0  0  0  0  0  0
  -26.4069  -27.6458   20.6799 C   0  0  0  0  0  0  0  0  0  0  0  0
  -32.6152  -26.6548   19.3373 C   0  0  0  0  0  0  0  0  0  0  0  0
  -22.3680   -8.6515   20.0637 C   0  0  0  0  0  0  0  0  0  0  0  0
  -26.1849  -14.3708   21.2234 C   0  0  0  0  0  0  0  0  0  0  0  0
  -28.6568  -14.9512   21.4699 C   0  0  0  0  0  0  0  0  0  0  0  0
  -18.2830  -29.1194   24.5449 C   0  0  0  0  0  0  0  0  0  0  0  0
  -24.1366  -26.8103   20.7655 C   0  0  0  0  0  0  0  0  0  0  0  0
  -19.3769  -29.2683   23.6712 C   0  0  0  0  0  0  0  0  0  0  0  0
  -25.3608  -27.0541   21.4042 C   0  0  0  0  0  0  0  0  0  0  0  0
  -32.7978  -25.4030   19.9721 C   0  0  0  0  0  0  0  0  0  0  0  0
  -23.9548  -12.7236   21.5328 C   0  0  0  0  0  0  0  0  0  0  0  0
  -26.2418  -27.9786   19.3356 C   0  0  0  0  0  0  0  0  0  0  0  0
  -23.0102  -10.5778   21.3729 C   0  0  0  0  0  0  0  0  0  0  0  0
  -23.3026   -7.8747   20.7483 C   0  0  0  0  0  0  0  0  0  0  0  0
  -22.2218  -10.0031   20.3761 C   0  0  0  0  0  0  0  0  0  0  0  0
  -27.3366  -15.2217   21.0627 C   0  0  0  0  0  0  0  0  0  0  0  0
  -31.5740  -24.7761   19.9397 C   0  0  0  0  0  0  0  0  0  0  0  0
  -31.2927  -26.7034   18.9621 C   0  0  0  0  0  0  0  0  0  0  0  0
  -29.3675  -16.0640   21.0916 C   0  0  0  0  0  0  0  0  0  0  0  0
  -31.2409  -23.4992   20.4513 C   0  0  0  0  0  0  0  0  0  0  0  0
  -30.0155  -22.8825   20.3894 C   0  0  0  0  0  0  0  0  0  0  0  0
  -29.6136  -27.3489   17.5520 C   0  0  0  0  0  0  0  0  0  0  0  0
  -29.1927  -13.7972   22.1308 C   0  0  0  0  0  0  0  0  0  0  0  0
  -29.8277  -21.5355   20.9648 C   0  0  0  0  0  0  0  0  0  0  0  0
  -22.7270  -27.7233   23.4642 C   0  0  0  0  0  0  0  0  0  0  0  0
  -24.5781  -25.3965   24.7610 C   0  0  0  0  0  0  0  0  0  0  0  0
  -27.3855  -23.4686   24.5414 C   0  0  0  0  0  0  0  0  0  0  0  0
  -18.4737  -28.9081   26.0260 C   0  0  0  0  0  0  0  0  0  0  0  0
  -23.0061  -26.1548   21.5103 C   0  0  0  0  0  0  0  0  0  0  0  0
  -25.5829  -26.7054   22.8525 C   0  0  0  0  0  0  0  0  0  0  0  0
  -19.8787  -28.4420   26.3989 C   0  0  0  0  0  0  0  0  0  0  0  0
  -28.0960  -19.9557   18.1475 C   0  0  0  0  0  0  0  0  0  0  0  0
  -20.9286  -29.2838   25.6806 C   0  0  0  0  0  0  0  0  0  0  0  0
  -27.8123  -18.5685   18.7177 C   0  0  0  0  0  0  0  0  0  0  0  0
  -28.0296  -21.0400   19.2219 C   0  0  0  0  0  0  0  0  0  0  0  0
  -28.6268  -19.3836   20.9655 C   0  0  0  0  0  0  0  0  0  0  0  0
  -20.8038  -29.1408   24.1590 C   0  0  1  0  0  0  0  0  0  0  0  0
  -23.1014  -26.3370   23.0219 C   0  0  1  0  0  0  0  0  0  0  0  0
  -28.7347  -18.2714   19.9106 C   0  0  1  0  0  0  0  0  0  0  0  0
  -34.0581  -24.8923   20.5464 C   0  0  0  0  0  0  0  0  0  0  0  0
  -28.9206  -28.0710   15.3012 C   0  0  0  0  0  0  0  0  0  0  0  0
  -29.0239  -21.6645   25.1400 C   0  0  0  0  0  0  0  0  0  0  0  0
  -25.6046  -27.4860   26.7333 C   0  0  0  0  0  0  0  0  0  0  0  0
  -27.4970  -25.9402   27.2786 C   0  0  0  0  0  0  0  0  0  0  0  0
  -25.1465  -25.2412   27.7360 C   0  0  0  0  0  0  0  0  0  0  0  0
  -25.9495  -21.4616   22.9078 C   0  0  0  0  0  0  0  0  0  0  0  0
  -27.3368  -28.2790   17.2459 C   0  0  0  0  0  0  0  0  0  1  0  0
  -28.7913  -28.3646   16.7907 C   0  0  1  0  0  0  0  0  0  0  0  0
  -25.9681  -25.3385   25.3470 C   0  0  1  0  0  0  0  0  0  0  0  0
  -27.5979  -21.9753   24.7127 C   0  0  2  0  0  0  0  0  0  0  0  0
  -26.0495  -26.0099   26.7469 C   0  0  0  0  0  0  0  0  0  0  0  0
  -27.2132  -16.4129   20.4713 N   0  0  0  0  0  0  0  0  0  0  0  0
  -30.5989  -27.7291   18.2986 N   0  0  0  0  0  0  0  0  0  0  0  0
  -28.4649  -16.9009   20.5042 N   0  0  0  0  0  0  0  0  0  0  0  0
  -28.8748  -20.7049   20.3778 N   0  0  0  0  0  0  0  0  0  0  0  0
  -24.4453  -26.0720   23.5395 N   0  0  0  0  0  0  0  0  0  0  0  0
  -30.6702  -16.3984   21.2077 N   0  0  0  0  0  0  0  0  0  0  0  0
  -28.3233  -12.7444   22.4469 N   0  0  0  0  0  0  0  0  0  0  0  0
  -21.3791  -27.8874   23.7202 N   0  0  0  0  0  0  0  0  0  0  0  0
  -26.3578  -23.9326   25.3350 N   0  0  0  0  0  0  0  0  0  0  0  0
  -27.3252  -21.2631   23.4323 N   0  3  0  0  0  0  0  0  0  0  0  0
  -30.4035  -13.7095   22.4468 O   0  0  0  0  0  0  0  0  0  0  0  0
  -30.5238  -21.2293   21.9345 O   0  0  0  0  0  0  0  0  0  0  0  0
  -23.5970  -28.5803   23.5670 O   0  0  0  0  0  0  0  0  0  0  0  0
  -23.6457  -24.8560   25.3612 O   0  0  0  0  0  0  0  0  0  0  0  0
  -28.0659  -24.1554   23.7826 O   0  0  0  0  0  0  0  0  0  0  0  0
  -30.6511  -25.5621   19.3256 O   0  0  0  0  0  0  0  0  0  0  0  0
  -22.8669  -11.9197   21.6836 O   0  0  0  0  0  0  0  0  0  0  0  0
  -27.2655  -28.5505   18.6451 O   0  0  0  0  0  0  0  0  0  1  0  0
  -23.4441   -6.5771   20.4475 F   0  0  0  0  0  0  0  0  0  0  0  0
  -21.3230  -10.7447   19.7142 F   0  0  0  0  0  0  0  0  0  0  0  0
  1  2  1  0  0  0  0
  1  5  2  0  0  0  0
  2  6  2  0  0  0  0
  3  8  2  0  0  0  0
  3 16  1  0  0  0  0
  4  9  1  0  0  0  0
  4 16  2  0  0  0  0
  5 18  1  0  0  0  0
  6 20  1  0  0  0  0
  7 10  2  0  0  0  0
  7 19  1  0  0  0  0
  8 23  1  0  0  0  0
  9 23  2  0  0  0  0
 10 24  1  0  0  0  0
 11 12  2  0  0  0  0
 11 25  1  0  0  0  0
 12 26  1  0  0  0  0
 13 21  1  0  0  0  0
 13 24  2  0  0  0  0
 14 22  1  0  0  0  0
 14 30  2  0  0  0  0
 15 26  2  0  0  0  0
 15 27  1  0  0  0  0
 16 28  1  0  0  0  0
 17 28  1  0  0  0  0
 17 31  2  0  0  0  0
 17 35  1  0  0  0  0
 18 20  2  0  0  0  0
 18 40  1  0  0  0  0
 19 21  2  0  0  0  0
 19 41  1  0  0  0  0
 20 49  1  0  0  0  0
 21 42  1  0  0  0  0
 22 29  2  0  0  0  0
 22 52  1  0  0  0  0
 23 80  1  0  0  0  0
 24 81  1  0  0  0  0
 25 27  2  0  0  0  0
 25 80  1  0  0  0  0
 26 82  1  0  0  0  0
 27 83  1  0  0  0  0
 28 64  2  0  0  0  0
 29 32  1  0  0  0  0
 29 79  1  0  0  0  0
 30 65  1  0  0  0  0
 30 79  1  0  0  0  0
 31 66  1  0  0  0  0
 31 69  1  0  0  0  0
 32 33  2  0  0  0  0
 33 36  1  0  0  0  0
 34 60  1  0  0  0  0
 34 65  2  0  0  0  0
 35 70  1  0  0  0  0
 35 74  2  0  0  0  0
 36 67  1  0  0  0  0
 36 75  2  0  0  0  0
 37 50  1  0  0  0  0
 37 71  1  0  0  0  0
 37 76  2  0  0  0  0
 38 61  1  0  0  0  0
 38 68  1  0  0  0  0
 38 77  2  0  0  0  0
 39 62  1  0  0  0  0
 39 72  1  0  0  0  0
 39 78  2  0  0  0  0
 40 43  1  0  0  0  0
 41 50  1  0  0  0  0
 42 68  1  0  0  0  0
 43 45  1  0  0  0  0
 44 46  1  0  0  0  0
 44 47  1  0  0  0  0
 45 49  1  0  0  0  0
 46 51  1  0  0  0  0
 47 67  1  0  0  0  0
 48 51  1  0  0  0  0
 48 67  1  0  0  0  0
 49 71  1  0  0  0  0
 50 68  1  0  0  0  0
 51 66  1  0  0  0  0
 53 60  1  0  0  0  0
 54 62  1  0  0  0  0
 55 63  1  0  0  0  0
 56 63  1  0  0  0  0
 57 63  1  0  0  0  0
 58 73  1  0  0  0  0
 59 60  1  0  0  0  0
 59 81  1  0  0  0  0
 61 63  1  0  0  0  0
 61 72  1  0  0  0  0
 62 73  1  0  0  0  0
 64 66  1  0  0  0  0
M  CHG  1  73   1
M  ISO  4  33 100  36 100  59 101  81 101
M  END
> <Batch ID>
0117

> <Smiles>
CNC(C)C(=O)NC(C(=O)N1Cc2cc([101O:1][101CH2:1]C(C)=CNc3cc(C)c(C=[100CH:0][100C:0](=O)N4CCCC(n5nc(-c6ccc(Oc7ccc(F)cc7F)cc6)c(C(N)=O)c5N)C4)o3)ccc2CC1C(=O)NC1CCCc2ccccc21)C(C)(C)C

> <Shape>
0.232

> <Color>
0.081

> <Negative vol penalty>
0.000

$$$$

  -OEChem-04052301463D

 81 89  0     1  0  0  0  0  0999 V2000
  -22.2353   -7.6349   21.8931 C   0  0  0  0  0  0  0  0  0  0  0  0
  -23.2469   -8.4183   21.3467 C   0  0  0  0  0  0  0  0  0  0  0  0
  -23.2666  -31.1304   22.0718 C   0  0  0  0  0  0  0  0  0  0  0  0
  -22.7360  -28.8939   22.8157 C   0  0  0  0  0  0  0  0  0  0  0  0
  -20.9876   -8.1966   22.1604 C   0  0  0  0  0  0  0  0  0  0  0  0
  -23.0109   -9.7636   21.0662 C   0  0  0  0  0  0  0  0  0  0  0  0
  -27.0155  -14.3753   21.5145 C   0  0  0  0  0  0  0  0  0  0  0  0
  -21.9276  -31.3379   21.7405 C   0  0  0  0  0  0  0  0  0  0  0  0
  -21.3970  -29.1013   22.4844 C   0  0  0  0  0  0  0  0  0  0  0  0
  -27.8039  -15.0283   20.5680 C   0  0  0  0  0  0  0  0  0  0  0  0
  -18.7153  -30.6637   23.8215 C   0  0  0  0  0  0  0  0  0  0  0  0
  -17.7507  -30.2555   24.7426 C   0  0  0  0  0  0  0  0  0  0  0  0
  -26.1240  -16.7475   20.3638 C   0  0  0  0  0  0  0  0  0  0  0  0
  -28.0267  -21.1980   20.8223 C   0  0  0  0  0  0  0  0  0  0  0  0
  -16.8102  -28.7597   23.0949 C   0  0  0  0  0  0  0  0  0  0  0  0
  -23.6708  -29.9084   22.6093 C   0  0  0  0  0  0  0  0  0  0  0  0
  -25.6751  -29.9566   24.1868 C   0  0  0  0  0  0  0  0  0  0  0  0
  -20.7391   -9.5520   21.8920 C   0  0  0  0  0  0  0  0  0  0  0  0
  -25.7685  -14.8986   21.8853 C   0  0  0  0  0  0  0  0  0  0  0  0
  -21.7582  -10.3437   21.3289 C   0  0  0  0  0  0  0  0  0  0  0  0
  -25.3229  -16.1005   21.3171 C   0  0  0  0  0  0  0  0  0  0  0  0
  -27.9146  -22.4816   21.4305 C   0  0  0  0  0  0  0  0  0  0  0  0
  -20.9929  -30.3234   21.9469 C   0  0  0  0  0  0  0  0  0  0  0  0
  -27.3569  -16.2131   19.9904 C   0  0  0  0  0  0  0  0  0  0  0  0
  -18.7274  -30.1199   22.5370 C   0  0  0  0  0  0  0  0  0  0  0  0
  -16.7981  -29.3035   24.3793 C   0  0  0  0  0  0  0  0  0  0  0  0
  -17.7748  -29.1679   22.1737 C   0  0  0  0  0  0  0  0  0  0  0  0
  -25.0539  -29.6933   22.9512 C   0  0  0  0  0  0  0  0  0  0  0  0
  -28.8584  -21.2165   19.7244 C   0  0  0  0  0  0  0  0  0  0  0  0
  -26.9835  -29.5831   23.9998 C   0  0  0  0  0  0  0  0  0  0  0  0
  -28.6653  -23.4324   20.7743 C   0  0  0  0  0  0  0  0  0  0  0  0
  -29.8061  -19.1554   19.4440 C   0  0  0  0  0  0  0  0  0  0  0  0
  -25.1190  -30.4910   25.3954 C   0  0  0  0  0  0  0  0  0  0  0  0
  -22.7633  -13.8800   21.6991 C   0  0  0  0  0  0  0  0  0  0  0  0
  -22.1570  -16.5673   23.4118 C   0  0  0  0  0  0  0  0  0  0  0  0
  -23.1358  -19.7092   24.3157 C   0  0  0  0  0  0  0  0  0  0  0  0
  -29.6344  -25.7093   20.3023 C   0  0  0  0  0  0  0  0  0  0  0  0
  -19.3598  -10.1029   22.1540 C   0  0  0  0  0  0  0  0  0  0  0  0
  -24.9421  -14.1962   22.9275 C   0  0  0  0  0  0  0  0  0  0  0  0
  -24.0008  -16.7146   21.6960 C   0  0  0  0  0  0  0  0  0  0  0  0
  -19.3072  -11.6283   22.1760 C   0  0  0  0  0  0  0  0  0  0  0  0
  -30.3146  -29.1930   20.5813 C   0  0  0  0  0  0  0  0  0  0  0  0
  -20.0669  -12.2059   20.9859 C   0  0  0  0  0  0  0  0  0  0  0  0
  -29.1021  -29.7396   21.3385 C   0  0  0  0  0  0  0  0  0  0  0  0
  -29.9230  -28.0790   19.6122 C   0  0  0  0  0  0  0  0  0  0  0  0
  -27.9396  -27.5269   20.9652 C   0  0  0  0  0  0  0  0  0  0  0  0
  -21.5484  -11.8131   21.0338 C   0  0  1  0  0  0  0  0  0  0  0  0
  -23.4595  -14.5478   22.8511 C   0  0  1  0  0  0  0  0  0  0  0  0
  -28.2936  -28.6068   22.0007 C   0  0  2  0  0  0  0  0  0  0  0  0
  -27.0844  -22.7498   22.6294 C   0  0  0  0  0  0  0  0  0  0  0  0
  -22.4153  -21.6755   25.6985 C   0  0  0  0  0  0  0  0  0  0  0  0
  -20.1109  -17.3165   21.2759 C   0  0  0  0  0  0  0  0  0  0  0  0
  -20.1309  -19.6529   22.1754 C   0  0  0  0  0  0  0  0  0  0  0  0
  -19.3795  -17.7667   23.6247 C   0  0  0  0  0  0  0  0  0  0  0  0
  -25.5411  -19.5319   26.0310 C   0  0  0  0  0  0  0  0  0  0  0  0
  -30.2187  -17.9515   18.6400 C   0  0  0  0  0  0  0  0  0  0  0  0
  -29.5388  -16.7059   19.1826 C   0  0  0  0  0  0  0  0  0  1  0  0
  -21.8351  -18.0023   23.0711 C   0  0  1  0  0  0  0  0  0  0  0  0
  -23.2217  -20.3865   25.6716 C   0  0  2  0  0  0  0  0  0  0  0  0
  -20.3882  -18.1723   22.5280 C   0  0  0  0  0  0  0  0  0  0  0  0
  -25.8983  -29.1914   22.0462 N   0  0  0  0  0  0  0  0  0  0  0  0
  -29.2106  -20.1530   18.8765 N   0  0  0  0  0  0  0  0  0  0  0  0
  -27.0635  -29.1365   22.7136 N   0  0  0  0  0  0  0  0  0  0  0  0
  -23.2262  -15.9869   22.7148 N   0  0  0  0  0  0  0  0  0  0  0  0
  -29.1638  -27.0394   20.3106 N   0  0  0  0  0  0  0  0  0  0  0  0
  -28.0620  -29.5966   24.8117 N   0  0  0  0  0  0  0  0  0  0  0  0
  -23.7572  -30.8215   25.4154 N   0  0  0  0  0  0  0  0  0  0  0  0
  -28.8474  -24.8147   21.0268 N   0  0  0  0  0  0  0  0  0  0  0  0
  -22.2568  -12.6292   21.9964 N   0  0  0  0  0  0  0  0  0  0  0  0
  -22.1177  -18.7804   24.2724 N   0  0  0  0  0  0  0  0  0  0  0  0
  -24.6387  -20.7116   25.9993 N   0  3  0  0  0  0  0  0  0  0  0  0
  -25.8130  -30.6855   26.4221 O   0  0  0  0  0  0  0  0  0  0  0  0
  -22.6897  -14.4575   20.6208 O   0  0  0  0  0  0  0  0  0  0  0  0
  -21.4891  -15.9851   24.2700 O   0  0  0  0  0  0  0  0  0  0  0  0
  -23.8935  -19.9800   23.3867 O   0  0  0  0  0  0  0  0  0  0  0  0
  -30.6748  -25.3926   19.7198 O   0  0  0  0  0  0  0  0  0  0  0  0
  -19.6862  -30.5256   21.6239 O   0  0  0  0  0  0  0  0  0  0  0  0
  -28.1241  -16.8522   19.0658 O   0  0  0  0  0  0  0  0  0  1  0  0
  -15.8728  -28.9105   25.2645 F   0  0  0  0  0  0  0  0  0  0  0  0
  -17.7821  -28.6410   20.9416 F   0  0  0  0  0  0  0  0  0  0  0  0
  -29.5002  -22.7767   19.4307 S   0  0  0  0  0  0  0  0  0  0  0  0
  1  2  1  0  0  0  0
  1  5  2  0  0  0  0
  2  6  2  0  0  0  0
  3  8  2  0  0  0  0
  3 16  1  0  0  0  0
  4  9  1  0  0  0  0
  4 16  2  0  0  0  0
  5 18  1  0  0  0  0
  6 20  1  0  0  0  0
  7 10  2  0  0  0  0
  7 19  1  0  0  0  0
  8 23  1  0  0  0  0
  9 23  2  0  0  0  0
 10 24  1  0  0  0  0
 11 12  2  0  0  0  0
 11 25  1  0  0  0  0
 12 26  1  0  0  0  0
 13 21  1  0  0  0  0
 13 24  2  0  0  0  0
 14 22  1  0  0  0  0
 14 29  2  0  0  0  0
 15 26  2  0  0  0  0
 15 27  1  0  0  0  0
 16 28  1  0  0  0  0
 17 28  1  0  0  0  0
 17 30  2  0  0  0  0
 17 33  1  0  0  0  0
 18 20  2  0  0  0  0
 18 38  1  0  0  0  0
 19 21  2  0  0  0  0
 19 39  1  0  0  0  0
 20 47  1  0  0  0  0
 21 40  1  0  0  0  0
 22 31  2  0  0  0  0
 22 50  1  0  0  0  0
 23 77  1  0  0  0  0
 24 78  1  0  0  0  0
 25 27  2  0  0  0  0
 25 77  1  0  0  0  0
 26 79  1  0  0  0  0
 27 80  1  0  0  0  0
 28 61  2  0  0  0  0
 29 62  1  0  0  0  0
 29 81  1  0  0  0  0
 30 63  1  0  0  0  0
 30 66  1  0  0  0  0
 31 68  1  0  0  0  0
 31 81  1  0  0  0  0
 32 56  1  0  0  0  0
 32 62  2  0  0  0  0
 33 67  1  0  0  0  0
 33 72  2  0  0  0  0
 34 48  1  0  0  0  0
 34 69  1  0  0  0  0
 34 73  2  0  0  0  0
 35 58  1  0  0  0  0
 35 64  1  0  0  0  0
 35 74  2  0  0  0  0
 36 59  1  0  0  0  0
 36 70  1  0  0  0  0
 36 75  2  0  0  0  0
 37 65  1  0  0  0  0
 37 68  1  0  0  0  0
 37 76  2  0  0  0  0
 38 41  1  0  0  0  0
 39 48  1  0  0  0  0
 40 64  1  0  0  0  0
 41 43  1  0  0  0  0
 42 44  1  0  0  0  0
 42 45  1  0  0  0  0
 43 47  1  0  0  0  0
 44 49  1  0  0  0  0
 45 65  1  0  0  0  0
 46 49  1  0  0  0  0
 46 65  1  0  0  0  0
 47 69  1  0  0  0  0
 48 64  1  0  0  0  0
 49 63  1  0  0  0  0
 51 59  1  0  0  0  0
 52 60  1  0  0  0  0
 53 60  1  0  0  0  0
 54 60  1  0  0  0  0
 55 71  1  0  0  0  0
 56 57  1  0  0  0  0
 57 78  1  0  0  0  0
 58 60  1  0  0  0  0
 58 70  1  0  0  0  0
 59 71  1  0  0  0  0
 61 63  1  0  0  0  0
M  CHG  1  71   1
M  ISO  4  37 100  57 101  68 100  78 101
M  END
> <Batch ID>
0117

> <Smiles>
CNC(C)C(=O)NC(C(=O)N1Cc2cc([101O:1][101CH2:1]C=CNc3cc(C)c([100NH:0][100C:0](=O)N4CCCC(n5nc(-c6ccc(Oc7ccc(F)cc7F)cc6)c(C(N)=O)c5N)C4)s3)ccc2CC1C(=O)NC1CCCc2ccccc21)C(C)(C)C

> <Shape>
0.255

> <Color>
0.082

> <Negative vol penalty>
0.000

$$$$

  -OEChem-04052301463D

 82 90  0     1  0  0  0  0  0999 V2000
  -25.6702  -19.6982   13.8833 C   0  0  0  0  0  0  0  0  0  0  0  0
  -26.2697  -18.5310   14.3430 C   0  0  0  0  0  0  0  0  0  0  0  0
  -25.1779  -25.9538   20.5644 C   0  0  0  0  0  0  0  0  0  0  0  0
  -25.9731  -25.3596   22.7671 C   0  0  0  0  0  0  0  0  0  0  0  0
  -24.8953  -20.4669   14.7492 C   0  0  0  0  0  0  0  0  0  0  0  0
  -26.0848  -18.1259   15.6653 C   0  0  0  0  0  0  0  0  0  0  0  0
  -28.4804  -13.4469   18.7467 C   0  0  0  0  0  0  0  0  0  0  0  0
  -23.9895  -26.4264   21.1210 C   0  0  0  0  0  0  0  0  0  0  0  0
  -24.7847  -25.8324   23.3237 C   0  0  0  0  0  0  0  0  0  0  0  0
  -29.5905  -13.2079   19.5557 C   0  0  0  0  0  0  0  0  0  0  0  0
  -21.1022  -25.1253   22.3022 C   0  0  0  0  0  0  0  0  0  0  0  0
  -19.9075  -24.7653   21.6790 C   0  0  0  0  0  0  0  0  0  0  0  0
  -28.2320  -13.5692   21.5161 C   0  0  0  0  0  0  0  0  0  0  0  0
  -31.3000  -17.0168   22.3558 C   0  0  0  0  0  0  0  0  0  0  0  0
  -19.4011  -27.0974   21.3025 C   0  0  0  0  0  0  0  0  0  0  0  0
  -26.1698  -25.4203   21.3875 C   0  0  0  0  0  0  0  0  0  0  0  0
  -28.5788  -25.6618   20.5838 C   0  0  0  0  0  0  0  0  0  0  0  0
  -24.7115  -20.0768   16.0860 C   0  0  0  0  0  0  0  0  0  0  0  0
  -27.2382  -13.7601   19.3171 C   0  0  0  0  0  0  0  0  0  0  0  0
  -25.2866  -18.8756   16.5482 C   0  0  0  0  0  0  0  0  0  0  0  0
  -27.1072  -13.8092   20.7123 C   0  0  0  0  0  0  0  0  0  0  0  0
  -30.7325  -18.2954   22.6262 C   0  0  0  0  0  0  0  0  0  0  0  0
  -23.7928  -26.3658   22.5006 C   0  0  0  0  0  0  0  0  0  0  0  0
  -29.4671  -13.2719   20.9405 C   0  0  0  0  0  0  0  0  0  0  0  0
  -21.4465  -26.4714   22.4257 C   0  0  0  0  0  0  0  0  0  0  0  0
  -19.0569  -25.7513   21.1791 C   0  0  0  0  0  0  0  0  0  0  0  0
  -20.5959  -27.4574   21.9258 C   0  0  0  0  0  0  0  0  0  0  0  0
  -27.3974  -24.9313   20.8131 C   0  0  0  0  0  0  0  0  0  0  0  0
  -31.8841  -16.4630   23.4737 C   0  0  0  0  0  0  0  0  0  0  0  0
  -30.9044  -18.6702   23.9407 C   0  0  0  0  0  0  0  0  0  0  0  0
  -29.4430  -24.7509   20.0271 C   0  0  0  0  0  0  0  0  0  0  0  0
  -32.5684  -15.1723   23.6040 C   0  0  0  0  0  0  0  0  0  0  0  0
  -28.8691  -27.0403   20.8504 C   0  0  0  0  0  0  0  0  0  0  0  0
  -32.0262  -13.9603   23.3758 C   0  0  0  0  0  0  0  0  0  0  0  0
  -25.2857  -16.2658   19.2037 C   0  0  0  0  0  0  0  0  0  0  0  0
  -23.3212  -14.3191   20.8989 C   0  0  0  0  0  0  0  0  0  0  0  0
  -22.9945  -11.6407   22.9885 C   0  0  0  0  0  0  0  0  0  0  0  0
  -29.8454  -18.7965   20.3222 C   0  0  0  0  0  0  0  0  0  0  0  0
  -23.8565  -20.9422   16.9778 C   0  0  0  0  0  0  0  0  0  0  0  0
  -26.0443  -13.9890   18.4313 C   0  0  0  0  0  0  0  0  0  0  0  0
  -25.7910  -14.1214   21.3746 C   0  0  0  0  0  0  0  0  0  0  0  0
  -24.0819  -20.6719   18.4618 C   0  0  0  0  0  0  0  0  0  0  0  0
  -29.4833  -20.7628   17.3761 C   0  0  0  0  0  0  0  0  0  0  0  0
  -24.0094  -19.1769   18.7347 C   0  0  0  0  0  0  0  0  0  0  0  0
  -29.0207  -22.1232   17.9028 C   0  0  0  0  0  0  0  0  0  0  0  0
  -28.8844  -19.6099   18.1798 C   0  0  0  0  0  0  0  0  0  0  0  0
  -28.6247  -21.0545   20.1585 C   0  0  0  0  0  0  0  0  0  0  0  0
  -25.1245  -18.4313   17.9906 C   0  0  1  0  0  0  0  0  0  0  0  0
  -24.9467  -14.8051   19.1070 C   0  0  1  0  0  0  0  0  0  0  0  0
  -29.2532  -22.2483   19.4213 C   0  0  2  0  0  0  0  0  0  0  0  0
  -32.8630  -12.7180   23.5404 C   0  0  0  0  0  0  0  0  0  0  0  0
  -31.3599  -21.1102   24.2947 C   0  0  0  0  0  0  0  0  0  0  0  0
  -21.2672  -10.3131   24.2339 C   0  0  0  0  0  0  0  0  0  0  0  0
  -23.1021  -16.5503   22.9686 C   0  0  0  0  0  0  0  0  0  0  0  0
  -22.1861  -14.8690   24.5818 C   0  0  0  0  0  0  0  0  0  0  0  0
  -20.9524  -15.3723   22.4730 C   0  0  0  0  0  0  0  0  0  0  0  0
  -23.6726   -9.1624   21.5199 C   0  0  0  0  0  0  0  0  0  0  0  0
  -30.4677  -19.9105   24.6219 C   0  0  0  0  0  0  0  0  0  0  0  0
  -30.5910  -13.7144   22.9891 C   0  0  0  0  0  0  0  0  0  1  0  0
  -23.0983  -14.0398   22.3656 C   0  0  1  0  0  0  0  0  0  0  0  0
  -22.0687  -10.4383   22.9476 C   0  0  2  0  0  0  0  0  0  0  0  0
  -22.3601  -15.2038   23.0850 C   0  0  0  0  0  0  0  0  0  0  0  0
  -27.4984  -23.6549   20.4329 N   0  0  0  0  0  0  0  0  0  0  0  0
  -28.7535  -23.5762   19.9590 N   0  0  0  0  0  0  0  0  0  0  0  0
  -24.6544  -14.3438   20.4656 N   0  0  0  0  0  0  0  0  0  0  0  0
  -29.1477  -19.7939   19.6087 N   0  0  0  0  0  0  0  0  0  0  0  0
  -30.7179  -24.8483   19.5939 N   0  0  0  0  0  0  0  0  0  0  0  0
  -27.8679  -27.8349   21.4253 N   0  0  0  0  0  0  0  0  0  0  0  0
  -30.0656  -19.0963   21.6662 N   0  0  0  0  0  0  0  0  0  0  0  0
  -24.8975  -17.0074   18.1042 N   0  0  0  0  0  0  0  0  0  0  0  0
  -22.4049  -12.7582   22.4363 N   0  0  0  0  0  0  0  0  0  0  0  0
  -22.8543   -9.1859   22.7596 N   0  3  0  0  0  0  0  0  0  0  0  0
  -29.9778  -27.5564   20.5714 O   0  0  0  0  0  0  0  0  0  0  0  0
  -25.8558  -16.6889   20.2025 O   0  0  0  0  0  0  0  0  0  0  0  0
  -22.3479  -14.5013   20.1633 O   0  0  0  0  0  0  0  0  0  0  0  0
  -24.1260  -11.5943   23.4660 O   0  0  0  0  0  0  0  0  0  0  0  0
  -30.2437  -17.7653   19.7745 O   0  0  0  0  0  0  0  0  0  0  0  0
  -22.6334  -26.8272   23.0440 O   0  0  0  0  0  0  0  0  0  0  0  0
  -30.5491  -13.0397   21.7324 O   0  0  0  0  0  0  0  0  0  1  0  0
  -17.9103  -25.4054   20.5793 F   0  0  0  0  0  0  0  0  0  0  0  0
  -20.9218  -28.7522   22.0404 F   0  0  0  0  0  0  0  0  0  0  0  0
  -31.7471  -17.4831   24.8423 S   0  0  0  0  0  0  0  0  0  0  0  0
  1  2  1  0  0  0  0
  1  5  2  0  0  0  0
  2  6  2  0  0  0  0
  3  8  2  0  0  0  0
  3 16  1  0  0  0  0
  4  9  1  0  0  0  0
  4 16  2  0  0  0  0
  5 18  1  0  0  0  0
  6 20  1  0  0  0  0
  7 10  2  0  0  0  0
  7 19  1  0  0  0  0
  8 23  1  0  0  0  0
  9 23  2  0  0  0  0
 10 24  1  0  0  0  0
 11 12  2  0  0  0  0
 11 25  1  0  0  0  0
 12 26  1  0  0  0  0
 13 21  1  0  0  0  0
 13 24  2  0  0  0  0
 14 22  1  0  0  0  0
 14 29  2  0  0  0  0
 15 26  2  0  0  0  0
 15 27  1  0  0  0  0
 16 28  1  0  0  0  0
 17 28  1  0  0  0  0
 17 31  2  0  0  0  0
 17 33  1  0  0  0  0
 18 20  2  0  0  0  0
 18 39  1  0  0  0  0
 19 21  2  0  0  0  0
 19 40  1  0  0  0  0
 20 48  1  0  0  0  0
 21 41  1  0  0  0  0
 22 30  2  0  0  0  0
 22 69  1  0  0  0  0
 23 78  1  0  0  0  0
 24 79  1  0  0  0  0
 25 27  2  0  0  0  0
 25 78  1  0  0  0  0
 26 80  1  0  0  0  0
 27 81  1  0  0  0  0
 28 63  2  0  0  0  0
 29 32  1  0  0  0  0
 29 82  1  0  0  0  0
 30 58  1  0  0  0  0
 30 82  1  0  0  0  0
 31 64  1  0  0  0  0
 31 67  1  0  0  0  0
 32 34  2  0  0  0  0
 33 68  1  0  0  0  0
 33 73  2  0  0  0  0
 34 51  1  0  0  0  0
 34 59  1  0  0  0  0
 35 49  1  0  0  0  0
 35 70  1  0  0  0  0
 35 74  2  0  0  0  0
 36 60  1  0  0  0  0
 36 65  1  0  0  0  0
 36 75  2  0  0  0  0
 37 61  1  0  0  0  0
 37 71  1  0  0  0  0
 37 76  2  0  0  0  0
 38 66  1  0  0  0  0
 38 69  1  0  0  0  0
 38 77  2  0  0  0  0
 39 42  1  0  0  0  0
 40 49  1  0  0  0  0
 41 65  1  0  0  0  0
 42 44  1  0  0  0  0
 43 45  1  0  0  0  0
 43 46  1  0  0  0  0
 44 48  1  0  0  0  0
 45 50  1  0  0  0  0
 46 66  1  0  0  0  0
 47 50  1  0  0  0  0
 47 66  1  0  0  0  0
 48 70  1  0  0  0  0
 49 65  1  0  0  0  0
 50 64  1  0  0  0  0
 52 58  1  0  0  0  0
 53 61  1  0  0  0  0
 54 62  1  0  0  0  0
 55 62  1  0  0  0  0
 56 62  1  0  0  0  0
 57 72  1  0  0  0  0
 59 79  1  0  0  0  0
 60 62  1  0  0  0  0
 60 71  1  0  0  0  0
 61 72  1  0  0  0  0
 63 64  1  0  0  0  0
M  CHG  1  72   1
M  ISO  4  38 100  59 101  69 100  79 101
M  END
> <Batch ID>
0117

> <Smiles>
CCc1sc(C=C(C)[101CH2:1][101O:1]c2ccc3c(c2)CN(C(=O)C(NC(=O)C(C)NC)C(C)(C)C)C(C(=O)NC2CCCc4ccccc42)C3)cc1[100NH:0][100C:0](=O)N1CCCC(n2nc(-c3ccc(Oc4ccc(F)cc4F)cc3)c(C(N)=O)c2N)C1

> <Shape>
0.223

> <Color>
0.071

> <Negative vol penalty>
0.000

$$$$

  -OEChem-04052301463D

 83 92  0     1  0  0  0  0  0999 V2000
  -25.1897  -38.7086   23.5961 C   0  0  0  0  0  0  0  0  0  0  0  0
  -25.7836  -37.5870   23.0261 C   0  0  0  0  0  0  0  0  0  0  0  0
  -26.8759  -12.1443   21.0726 C   0  0  0  0  0  0  0  0  0  0  0  0
  -25.8446  -13.8185   19.6689 C   0  0  0  0  0  0  0  0  0  0  0  0
  -24.1670  -38.5551   24.5312 C   0  0  0  0  0  0  0  0  0  0  0  0
  -25.3557  -36.3112   23.3918 C   0  0  0  0  0  0  0  0  0  0  0  0
  -25.0502  -31.3605   19.7997 C   0  0  0  0  0  0  0  0  0  0  0  0
  -25.6149  -11.6690   21.4322 C   0  0  0  0  0  0  0  0  0  0  0  0
  -24.5835  -13.3432   20.0285 C   0  0  0  0  0  0  0  0  0  0  0  0
  -25.9054  -30.2731   19.6264 C   0  0  0  0  0  0  0  0  0  0  0  0
  -23.2149   -9.7060   20.0832 C   0  0  0  0  0  0  0  0  0  0  0  0
  -23.0179   -8.3252   20.0815 C   0  0  0  0  0  0  0  0  0  0  0  0
  -24.5876  -28.9950   21.1913 C   0  0  0  0  0  0  0  0  0  0  0  0
  -22.4765   -8.3995   22.4349 C   0  0  0  0  0  0  0  0  0  0  0  0
  -26.9908  -13.2192   20.1910 C   0  0  0  0  0  0  0  0  0  0  0  0
  -29.0838  -13.2883   18.7341 C   0  0  0  0  0  0  0  0  0  0  0  0
  -23.7198  -37.2769   24.9013 C   0  0  0  0  0  0  0  0  0  0  0  0
  -23.9617  -31.2767   20.6799 C   0  0  0  0  0  0  0  0  0  0  0  0
  -24.3269  -36.1405   24.3337 C   0  0  0  0  0  0  0  0  0  0  0  0
  -23.7185  -30.0818   21.3721 C   0  0  0  0  0  0  0  0  0  0  0  0
  -24.4687  -12.2684   20.9102 C   0  0  0  0  0  0  0  0  0  0  0  0
  -25.6758  -29.0911   20.3245 C   0  0  0  0  0  0  0  0  0  0  0  0
  -23.0428  -10.4337   21.2608 C   0  0  0  0  0  0  0  0  0  0  0  0
  -22.6487   -7.6719   21.2573 C   0  0  0  0  0  0  0  0  0  0  0  0
  -22.6735   -9.7804   22.4366 C   0  0  0  0  0  0  0  0  0  0  0  0
  -28.2932  -13.7110   19.8195 C   0  0  0  0  0  0  0  0  0  0  0  0
  -28.9527  -21.5839   19.1001 C   0  0  0  0  0  0  0  0  0  0  0  0
  -30.2188  -14.0573   18.8160 C   0  0  0  0  0  0  0  0  0  0  0  0
  -29.8594  -21.0926   20.0159 C   0  0  0  0  0  0  0  0  0  0  0  0
  -29.2922  -23.4222   20.2470 C   0  0  0  0  0  0  0  0  0  0  0  0
  -28.4781  -26.9252   20.9088 C   0  0  0  0  0  0  0  0  0  0  0  0
  -27.5940  -27.9258   20.9828 C   0  0  0  0  0  0  0  0  0  1  0  0
  -28.8161  -12.2897   17.7407 C   0  0  0  0  0  0  0  0  0  0  0  0
  -23.0979  -32.8033   23.3308 C   0  0  0  0  0  0  0  0  0  0  0  0
  -20.3925  -31.0452   22.9961 C   0  0  0  0  0  0  0  0  0  0  0  0
  -18.8887  -28.2541   21.7331 C   0  0  0  0  0  0  0  0  0  0  0  0
  -31.3493  -19.4276   21.1797 C   0  0  0  0  0  0  0  0  0  0  0  0
  -22.6435  -37.1603   25.9514 C   0  0  0  0  0  0  0  0  0  0  0  0
  -23.0330  -32.4496   20.8354 C   0  0  0  0  0  0  0  0  0  0  0  0
  -22.5522  -29.9339   22.3134 C   0  0  0  0  0  0  0  0  0  0  0  0
  -29.6782  -26.7707   21.7885 C   0  0  0  0  0  0  0  0  0  0  0  0
  -28.3510  -25.7299   20.0130 C   0  0  0  0  0  0  0  0  0  0  0  0
  -21.9925  -35.7806   26.0057 C   0  0  0  0  0  0  0  0  0  0  0  0
  -32.9610  -16.3596   21.9963 C   0  0  0  0  0  0  0  0  0  0  0  0
  -23.0558  -34.6872   25.9824 C   0  0  0  0  0  0  0  0  0  0  0  0
  -32.0218  -15.2939   21.4267 C   0  0  0  0  0  0  0  0  0  0  0  0
  -29.8516  -25.2563   21.8635 C   0  0  0  0  0  0  0  0  0  0  0  0
  -32.1898  -17.5471   22.5698 C   0  0  0  0  0  0  0  0  0  0  0  0
  -30.2784  -17.0911   21.0839 C   0  0  0  0  0  0  0  0  0  0  0  0
  -23.8735  -34.7404   24.6862 C   0  0  1  0  0  0  0  0  0  0  0  0
  -22.2537  -32.4250   22.1467 C   0  0  1  0  0  0  0  0  0  0  0  0
  -31.0111  -15.9048   20.4363 C   0  0  2  0  0  0  0  0  0  0  0  0
  -28.3136  -20.8157   18.0119 C   0  0  0  0  0  0  0  0  0  0  0  0
  -16.6768  -27.0714   21.6575 C   0  0  0  0  0  0  0  0  0  0  0  0
  -20.8082  -30.0895   25.8638 C   0  0  0  0  0  0  0  0  0  0  0  0
  -19.1775  -28.2444   25.4114 C   0  0  0  0  0  0  0  0  0  0  0  0
  -18.4367  -30.6225   25.2753 C   0  0  0  0  0  0  0  0  0  0  0  0
  -18.7448  -28.4664   18.7847 C   0  0  0  0  0  0  0  0  0  0  0  0
  -19.9357  -29.6858   23.4676 C   0  0  1  0  0  0  0  0  0  0  0  0
  -17.5927  -28.0684   20.9648 C   0  0  2  0  0  0  0  0  0  0  0  0
  -19.6127  -29.6637   24.9883 C   0  0  0  0  0  0  0  0  0  0  0  0
  -28.8767  -14.6738   20.5383 N   0  0  0  0  0  0  0  0  0  0  0  0
  -28.6259  -22.9195   19.2313 N   0  0  0  0  0  0  0  0  0  0  0  0
  -30.0460  -14.8623   19.9033 N   0  0  0  0  0  0  0  0  0  0  0  0
  -29.2036  -24.7367   20.6616 N   0  0  3  0  0  0  0  0  0  0  0  0
  -21.6763  -31.1109   22.4364 N   0  0  0  0  0  0  0  0  0  0  0  0
  -31.2549  -18.0763   21.5744 N   0  0  0  0  0  0  0  0  0  0  0  0
  -31.3379  -14.1166   18.0633 N   0  0  0  0  0  0  0  0  0  0  0  0
  -27.6014  -11.5933   17.8037 N   0  0  0  0  0  0  0  0  0  0  0  0
  -30.4291  -19.8089   20.2037 N   0  0  0  0  0  0  0  0  0  0  0  0
  -23.1247  -34.1599   23.5922 N   0  0  0  0  0  0  0  0  0  0  0  0
  -18.8136  -29.3131   22.6129 N   0  0  0  0  0  0  0  0  0  0  0  0
  -17.8733  -27.5710   19.5882 N   0  3  0  0  0  0  0  0  0  0  0  0
  -29.6369  -12.0115   16.8338 O   0  0  0  0  0  0  0  0  0  0  0  0
  -23.6806  -31.9290   23.9614 O   0  0  0  0  0  0  0  0  0  0  0  0
  -19.6352  -32.0119   23.1133 O   0  0  0  0  0  0  0  0  0  0  0  0
  -19.8684  -27.5297   21.5717 O   0  0  0  0  0  0  0  0  0  0  0  0
  -32.2026  -20.1834   21.6515 O   0  0  0  0  0  0  0  0  0  0  0  0
  -23.2379  -11.8046   21.2607 O   0  0  0  0  0  0  0  0  0  0  0  0
  -26.5094  -28.0285   20.1577 O   0  0  0  0  0  0  0  0  0  1  0  0
  -22.4580   -6.3461   21.2552 F   0  0  0  0  0  0  0  0  0  0  0  0
  -22.5055  -10.4742   23.5707 F   0  0  0  0  0  0  0  0  0  0  0  0
  -30.3301  -22.3454   21.0884 S   0  0  0  0  0  0  0  0  0  0  0  0
  1  2  1  0  0  0  0
  1  5  2  0  0  0  0
  2  6  2  0  0  0  0
  3  8  2  0  0  0  0
  3 15  1  0  0  0  0
  4  9  1  0  0  0  0
  4 15  2  0  0  0  0
  5 17  1  0  0  0  0
  6 19  1  0  0  0  0
  7 10  2  0  0  0  0
  7 18  1  0  0  0  0
  8 21  1  0  0  0  0
  9 21  2  0  0  0  0
 10 22  1  0  0  0  0
 11 12  2  0  0  0  0
 11 23  1  0  0  0  0
 12 24  1  0  0  0  0
 13 20  1  0  0  0  0
 13 22  2  0  0  0  0
 14 24  2  0  0  0  0
 14 25  1  0  0  0  0
 15 26  1  0  0  0  0
 16 26  1  0  0  0  0
 16 28  2  0  0  0  0
 16 33  1  0  0  0  0
 17 19  2  0  0  0  0
 17 38  1  0  0  0  0
 18 20  2  0  0  0  0
 18 39  1  0  0  0  0
 19 50  1  0  0  0  0
 20 40  1  0  0  0  0
 21 79  1  0  0  0  0
 22 80  1  0  0  0  0
 23 25  2  0  0  0  0
 23 79  1  0  0  0  0
 24 81  1  0  0  0  0
 25 82  1  0  0  0  0
 26 62  2  0  0  0  0
 27 29  2  0  0  0  0
 27 53  1  0  0  0  0
 27 63  1  0  0  0  0
 28 64  1  0  0  0  0
 28 68  1  0  0  0  0
 29 70  1  0  0  0  0
 29 83  1  0  0  0  0
 30 63  2  0  0  0  0
 30 65  1  0  0  0  0
 30 83  1  0  0  0  0
 31 32  2  0  0  0  0
 31 41  1  0  0  0  0
 31 42  1  0  0  0  0
 32 80  1  0  0  0  0
 33 69  1  0  0  0  0
 33 74  2  0  0  0  0
 34 51  1  0  0  0  0
 34 71  1  0  0  0  0
 34 75  2  0  0  0  0
 35 59  1  0  0  0  0
 35 66  1  0  0  0  0
 35 76  2  0  0  0  0
 36 60  1  0  0  0  0
 36 72  1  0  0  0  0
 36 77  2  0  0  0  0
 37 67  1  0  0  0  0
 37 70  1  0  0  0  0
 37 78  2  0  0  0  0
 38 43  1  0  0  0  0
 39 51  1  0  0  0  0
 40 66  1  0  0  0  0
 41 47  1  0  0  0  0
 42 65  1  0  0  0  0
 43 45  1  0  0  0  0
 44 46  1  0  0  0  0
 44 48  1  0  0  0  0
 45 50  1  0  0  0  0
 46 52  1  0  0  0  0
 47 65  1  0  0  0  0
 48 67  1  0  0  0  0
 49 52  1  0  0  0  0
 49 67  1  0  0  0  0
 50 71  1  0  0  0  0
 51 66  1  0  0  0  0
 52 64  1  0  0  0  0
 54 60  1  0  0  0  0
 55 61  1  0  0  0  0
 56 61  1  0  0  0  0
 57 61  1  0  0  0  0
 58 73  1  0  0  0  0
 59 61  1  0  0  0  0
 59 72  1  0  0  0  0
 60 73  1  0  0  0  0
 62 64  1  0  0  0  0
M  CHG  1  73   1
M  ISO  4  32 101  37 100  70 100  80 101
M  END
> <Batch ID>
0117

> <Smiles>
CNC(C)C(=O)NC(C(=O)N1Cc2cc([101O:1][101CH:1]=C3CCN(c4nc(C)c([100NH:0][100C:0](=O)N5CCCC(n6nc(-c7ccc(Oc8ccc(F)cc8F)cc7)c(C(N)=O)c6N)C5)s4)C3)ccc2CC1C(=O)NC1CCCc2ccccc21)C(C)(C)C

> <Shape>
0.332

> <Color>
0.082

> <Negative vol penalty>
0.000

$$$$

  -OEChem-04052301463D

 84 92  0     1  0  0  0  0  0999 V2000
  -29.5559  -26.1949   14.5546 C   0  0  0  0  0  0  0  0  0  0  0  0
  -28.2709  -26.2516   15.0847 C   0  0  0  0  0  0  0  0  0  0  0  0
  -26.5749  -17.8912   18.9050 C   0  0  0  0  0  0  0  0  0  0  0  0
  -28.0924  -17.4841   20.7403 C   0  0  0  0  0  0  0  0  0  0  0  0
  -30.6613  -26.3289   15.3936 C   0  0  0  0  0  0  0  0  0  0  0  0
  -28.0906  -26.4413   16.4543 C   0  0  0  0  0  0  0  0  0  0  0  0
  -24.4992  -29.8593   17.4861 C   0  0  0  0  0  0  0  0  0  0  0  0
  -26.3945  -16.5169   18.7492 C   0  0  0  0  0  0  0  0  0  0  0  0
  -27.9121  -16.1097   20.5845 C   0  0  0  0  0  0  0  0  0  0  0  0
  -23.1733  -29.4425   17.3767 C   0  0  0  0  0  0  0  0  0  0  0  0
  -29.0290  -13.6675   18.5305 C   0  0  0  0  0  0  0  0  0  0  0  0
  -30.1642  -12.8575   18.5603 C   0  0  0  0  0  0  0  0  0  0  0  0
  -21.8817  -24.4511   21.9304 C   0  0  0  0  0  0  0  0  0  0  0  0
  -20.9420  -26.6761   21.9844 C   0  0  0  0  0  0  0  0  0  0  0  0
  -23.0713  -29.1587   19.7700 C   0  0  0  0  0  0  0  0  0  0  0  0
  -22.8526  -26.1380   23.3618 C   0  0  0  0  0  0  0  0  0  0  0  0
  -29.2690  -11.6732   20.4665 C   0  0  0  0  0  0  0  0  0  0  0  0
  -27.4239  -18.3748   19.9005 C   0  0  0  0  0  0  0  0  0  0  0  0
  -20.9316  -25.3722   21.4893 C   0  0  0  0  0  0  0  0  0  0  0  0
  -28.1148  -20.6990   19.1078 C   0  0  0  0  0  0  0  0  0  0  0  0
  -30.4944  -26.5300   16.7729 C   0  0  0  0  0  0  0  0  0  0  0  0
  -25.1256  -29.9185   18.7394 C   0  0  0  0  0  0  0  0  0  0  0  0
  -29.1949  -26.5768   17.3128 C   0  0  0  0  0  0  0  0  0  0  0  0
  -24.4044  -29.5790   19.8930 C   0  0  0  0  0  0  0  0  0  0  0  0
  -22.8422  -24.8340   22.8667 C   0  0  0  0  0  0  0  0  0  0  0  0
  -27.0631  -15.6261   19.5889 C   0  0  0  0  0  0  0  0  0  0  0  0
  -22.4600  -29.0893   18.5184 C   0  0  0  0  0  0  0  0  0  0  0  0
  -28.0139  -13.4805   19.4688 C   0  0  0  0  0  0  0  0  0  0  0  0
  -30.2841  -11.8603   19.5283 C   0  0  0  0  0  0  0  0  0  0  0  0
  -21.9025  -27.0591   22.9207 C   0  0  0  0  0  0  0  0  0  0  0  0
  -28.1339  -12.4833   20.4367 C   0  0  0  0  0  0  0  0  0  0  0  0
  -27.6110  -19.7944   20.0616 C   0  0  0  0  0  0  0  0  0  0  0  0
  -28.0936  -21.9160   19.7442 C   0  0  0  0  0  0  0  0  0  0  0  0
  -20.0611  -26.0433   18.5141 C   0  0  0  0  0  0  0  0  0  0  0  0
  -19.9046  -24.9633   20.4919 C   0  0  0  0  0  0  0  0  0  0  0  0
  -28.5618  -20.4606   17.7666 C   0  0  0  0  0  0  0  0  0  0  0  0
  -27.6256  -28.4736   20.0682 C   0  0  0  0  0  0  0  0  0  0  0  0
  -27.0349  -30.5401   22.4978 C   0  0  0  0  0  0  0  0  0  0  0  0
  -24.7915  -32.5271   24.1305 C   0  0  0  0  0  0  0  0  0  0  0  0
  -24.8287  -24.1158   24.2394 C   0  0  0  0  0  0  0  0  0  0  0  0
  -31.7202  -26.6223   17.6466 C   0  0  0  0  0  0  0  0  0  0  0  0
  -26.5482  -30.3958   18.8433 C   0  0  0  0  0  0  0  0  0  0  0  0
  -25.0246  -29.6448   21.2639 C   0  0  0  0  0  0  0  0  0  0  0  0
  -31.4382  -27.1953   19.0331 C   0  0  0  0  0  0  0  0  0  0  0  0
  -28.3780  -23.8645   24.1097 C   0  0  0  0  0  0  0  0  0  0  0  0
  -30.2043  -26.5369   19.6420 C   0  0  0  0  0  0  0  0  0  0  0  0
  -28.6301  -22.8793   22.9660 C   0  0  0  0  0  0  0  0  0  0  0  0
  -27.1363  -23.4905   24.9171 C   0  0  0  0  0  0  0  0  0  0  0  0
  -26.1667  -22.3151   22.9812 C   0  0  0  0  0  0  0  0  0  0  0  0
  -28.9582  -26.8061   18.7898 C   0  0  1  0  0  0  0  0  0  0  0  0
  -27.2444  -29.9262   20.1169 C   0  0  1  0  0  0  0  0  0  0  0  0
  -27.3700  -22.6872   22.0996 C   0  0  2  0  0  0  0  0  0  0  0  0
  -23.9478  -34.2119   25.7879 C   0  0  0  0  0  0  0  0  0  0  0  0
  -26.9618  -28.1282   24.3651 C   0  0  0  0  0  0  0  0  0  0  0  0
  -25.8454  -29.5748   26.0766 C   0  0  0  0  0  0  0  0  0  0  0  0
  -28.1470  -30.1272   25.2891 C   0  0  0  0  0  0  0  0  0  0  0  0
  -25.3777  -34.7847   22.3089 C   0  0  0  0  0  0  0  0  0  0  0  0
  -19.6381  -27.0682   17.4972 C   0  0  0  0  0  0  0  0  0  0  0  0
  -20.7891  -28.0174   17.2088 C   0  0  0  0  0  0  0  0  0  1  0  0
  -26.1830  -30.5100   23.7437 C   0  0  1  0  0  0  0  0  0  0  0  0
  -24.8834  -33.9627   24.6151 C   0  0  2  0  0  0  0  0  0  0  0  0
  -26.7729  -29.5818   24.8427 C   0  0  0  0  0  0  0  0  0  0  0  0
  -27.2932  -20.3861   21.2161 N   0  0  0  0  0  0  0  0  0  0  0  0
  -19.4169  -25.9144   19.6286 N   0  0  0  0  0  0  0  0  0  0  0  0
  -27.5981  -21.6756   20.9920 N   0  0  0  0  0  0  0  0  0  0  0  0
  -26.4201  -30.1115   21.3129 N   0  0  0  0  0  0  0  0  0  0  0  0
  -25.9815  -23.3294   24.0309 N   0  0  0  0  0  0  0  0  0  0  0  0
  -28.4509  -23.1576   19.3527 N   0  0  0  0  0  0  0  0  0  0  0  0
  -29.9128  -20.1518   17.5575 N   0  0  0  0  0  0  0  0  0  0  0  0
  -23.8076  -23.8987   23.3148 N   0  0  0  0  0  0  0  0  0  0  0  0
  -28.4672  -28.1475   19.0219 N   0  0  0  0  0  0  0  0  0  0  0  0
  -26.0185  -31.8987   24.1594 N   0  0  0  0  0  0  0  0  0  0  0  0
  -19.4318  -23.7684   20.4382 N   0  3  0  0  0  0  0  0  0  0  0  0
  -24.5223  -34.9040   23.5176 N   0  3  0  0  0  0  0  0  0  0  0  0
  -27.7896  -20.5359   16.7809 O   0  0  0  0  0  0  0  0  0  0  0  0
  -27.1896  -27.7057   20.9179 O   0  0  0  0  0  0  0  0  0  0  0  0
  -28.2008  -30.9364   22.5718 O   0  0  0  0  0  0  0  0  0  0  0  0
  -23.7360  -32.0132   23.7665 O   0  0  0  0  0  0  0  0  0  0  0  0
  -24.7634  -24.9421   25.1532 O   0  0  0  0  0  0  0  0  0  0  0  0
  -26.8872  -14.2850   19.4374 O   0  0  0  0  0  0  0  0  0  0  0  0
  -21.1659  -28.6816   18.4143 O   0  0  0  0  0  0  0  0  0  1  0  0
  -31.3736  -11.0815   19.5558 F   0  0  0  0  0  0  0  0  0  0  0  0
  -21.9107  -28.3104   23.3984 F   0  0  0  0  0  0  0  0  0  0  0  0
  -27.1614  -12.2981   21.3399 F   0  0  0  0  0  0  0  0  0  0  0  0
  1  2  1  0  0  0  0
  1  5  2  0  0  0  0
  2  6  2  0  0  0  0
  3  8  2  0  0  0  0
  3 18  1  0  0  0  0
  4  9  1  0  0  0  0
  4 18  2  0  0  0  0
  5 21  1  0  0  0  0
  6 23  1  0  0  0  0
  7 10  2  0  0  0  0
  7 22  1  0  0  0  0
  8 26  1  0  0  0  0
  9 26  2  0  0  0  0
 10 27  1  0  0  0  0
 11 12  2  0  0  0  0
 11 28  1  0  0  0  0
 12 29  1  0  0  0  0
 13 19  2  0  0  0  0
 13 25  1  0  0  0  0
 14 19  1  0  0  0  0
 14 30  2  0  0  0  0
 15 24  1  0  0  0  0
 15 27  2  0  0  0  0
 16 25  2  0  0  0  0
 16 30  1  0  0  0  0
 17 29  2  0  0  0  0
 17 31  1  0  0  0  0
 18 32  1  0  0  0  0
 19 35  1  0  0  0  0
 20 32  1  0  0  0  0
 20 33  2  0  0  0  0
 20 36  1  0  0  0  0
 21 23  2  0  0  0  0
 21 41  1  0  0  0  0
 22 24  2  0  0  0  0
 22 42  1  0  0  0  0
 23 50  1  0  0  0  0
 24 43  1  0  0  0  0
 25 70  1  0  0  0  0
 26 80  1  0  0  0  0
 27 81  1  0  0  0  0
 28 31  2  0  0  0  0
 28 80  1  0  0  0  0
 29 82  1  0  0  0  0
 30 83  1  0  0  0  0
 31 84  1  0  0  0  0
 32 63  2  0  0  0  0
 33 65  1  0  0  0  0
 33 68  1  0  0  0  0
 34 58  1  0  0  0  0
 34 64  2  0  0  0  0
 35 64  1  0  0  0  0
 35 73  2  0  0  0  0
 36 69  1  0  0  0  0
 36 75  2  0  0  0  0
 37 51  1  0  0  0  0
 37 71  1  0  0  0  0
 37 76  2  0  0  0  0
 38 60  1  0  0  0  0
 38 66  1  0  0  0  0
 38 77  2  0  0  0  0
 39 61  1  0  0  0  0
 39 72  1  0  0  0  0
 39 78  2  0  0  0  0
 40 67  1  0  0  0  0
 40 70  1  0  0  0  0
 40 79  2  0  0  0  0
 41 44  1  0  0  0  0
 42 51  1  0  0  0  0
 43 66  1  0  0  0  0
 44 46  1  0  0  0  0
 45 47  1  0  0  0  0
 45 48  1  0  0  0  0
 46 50  1  0  0  0  0
 47 52  1  0  0  0  0
 48 67  1  0  0  0  0
 49 52  1  0  0  0  0
 49 67  1  0  0  0  0
 50 71  1  0  0  0  0
 51 66  1  0  0  0  0
 52 65  1  0  0  0  0
 53 61  1  0  0  0  0
 54 62  1  0  0  0  0
 55 62  1  0  0  0  0
 56 62  1  0  0  0  0
 57 74  1  0  0  0  0
 58 59  1  0  0  0  0
 59 81  1  0  0  0  0
 60 62  1  0  0  0  0
 60 72  1  0  0  0  0
 61 74  1  0  0  0  0
 63 65  1  0  0  0  0
M  CHG  2  73   1  74   1
M  ISO  4  40 100  59 101  70 100  81 101
M  END
> <Batch ID>
0117

> <Smiles>
CNC(C)C(=O)NC(C(=O)N1Cc2cc([101O:1][101CH2:1]CC=NC(=N)c3cc(F)cc([100NH:0][100C:0](=O)N4CCCC(n5nc(-c6ccc(Oc7ccc(F)cc7F)cc6)c(C(N)=O)c5N)C4)c3)ccc2CC1C(=O)NC1CCCc2ccccc21)C(C)(C)C

> <Shape>
0.252

> <Color>
0.052

> <Negative vol penalty>
0.000

$$$$

  -OEChem-04052301463D

 83 91  0     1  0  0  0  0  0999 V2000
  -33.1922  -25.3906   19.1564 C   0  0  0  0  0  0  0  0  0  0  0  0
  -31.8487  -25.7217   19.0213 C   0  0  0  0  0  0  0  0  0  0  0  0
  -27.8546  -17.2201   18.9216 C   0  0  0  0  0  0  0  0  0  0  0  0
  -27.7468  -17.6361   21.2991 C   0  0  0  0  0  0  0  0  0  0  0  0
  -33.8809  -25.7470   20.3139 C   0  0  0  0  0  0  0  0  0  0  0  0
  -31.1966  -26.4199   20.0383 C   0  0  0  0  0  0  0  0  0  0  0  0
  -26.6076  -27.9372   19.1208 C   0  0  0  0  0  0  0  0  0  0  0  0
  -28.5954  -18.3895   18.7506 C   0  0  0  0  0  0  0  0  0  0  0  0
  -28.4877  -18.8054   21.1281 C   0  0  0  0  0  0  0  0  0  0  0  0
  -25.5238  -27.0628   19.0541 C   0  0  0  0  0  0  0  0  0  0  0  0
  -30.0425  -22.0875   21.2723 C   0  0  0  0  0  0  0  0  0  0  0  0
  -29.6102  -23.2325   21.9412 C   0  0  0  0  0  0  0  0  0  0  0  0
  -24.8212  -27.7758   21.2489 C   0  0  0  0  0  0  0  0  0  0  0  0
  -22.5841  -21.7736   19.0061 C   0  0  0  0  0  0  0  0  0  0  0  0
  -20.1723  -21.6397   19.0558 C   0  0  0  0  0  0  0  0  0  0  0  0
  -27.5023  -23.1234   20.7656 C   0  0  0  0  0  0  0  0  0  0  0  0
  -27.4302  -16.8434   20.1959 C   0  0  0  0  0  0  0  0  0  0  0  0
  -27.1617  -14.3426   20.6221 C   0  0  0  0  0  0  0  0  0  0  0  0
  -33.2330  -26.4390   21.3504 C   0  0  0  0  0  0  0  0  0  0  0  0
  -26.8128  -28.7309   20.2585 C   0  0  0  0  0  0  0  0  0  0  0  0
  -31.8808  -26.8096   21.2039 C   0  0  0  0  0  0  0  0  0  0  0  0
  -25.9070  -28.6614   21.3265 C   0  0  0  0  0  0  0  0  0  0  0  0
  -22.6631  -20.3840   19.0964 C   0  0  0  0  0  0  0  0  0  0  0  0
  -20.2513  -20.2500   19.1461 C   0  0  0  0  0  0  0  0  0  0  0  0
  -21.3387  -22.4015   18.9858 C   0  0  0  0  0  0  0  0  0  0  0  0
  -21.4968  -19.6221   19.1664 C   0  0  0  0  0  0  0  0  0  0  0  0
  -28.9120  -19.1821   19.8538 C   0  0  0  0  0  0  0  0  0  0  0  0
  -24.6320  -26.9799   20.1194 C   0  0  0  0  0  0  0  0  0  0  0  0
  -29.2048  -21.4604   20.3500 C   0  0  0  0  0  0  0  0  0  0  0  0
  -28.3401  -23.7505   21.6879 C   0  0  0  0  0  0  0  0  0  0  0  0
  -27.9347  -21.9783   20.0967 C   0  0  0  0  0  0  0  0  0  0  0  0
  -26.6644  -15.6359   20.3731 C   0  0  0  0  0  0  0  0  0  0  0  0
  -26.0403  -13.5545   20.7101 C   0  0  0  0  0  0  0  0  0  0  0  0
  -21.2459  -24.4364   20.0230 C   0  0  0  0  0  0  0  0  0  0  0  0
  -28.5163  -13.8939   20.7616 C   0  0  0  0  0  0  0  0  0  0  0  0
  -29.1162  -28.9785   22.4350 C   0  0  0  0  0  0  0  0  0  0  0  0
  -27.3417  -31.4932   23.4597 C   0  0  0  0  0  0  0  0  0  0  0  0
  -24.2901  -33.0131   23.6170 C   0  0  0  0  0  0  0  0  0  0  0  0
  -22.1933  -17.4511   20.2577 C   0  0  0  0  0  0  0  0  0  0  0  0
  -34.0284  -26.8069   22.5781 C   0  0  0  0  0  0  0  0  0  0  0  0
  -27.9718  -29.6887   20.3038 C   0  0  0  0  0  0  0  0  0  0  0  0
  -26.0713  -29.5068   22.5621 C   0  0  0  0  0  0  0  0  0  0  0  0
  -33.1485  -27.1474   23.7765 C   0  0  0  0  0  0  0  0  0  0  0  0
  -21.5958  -13.9101   18.8541 C   0  0  0  0  0  0  0  0  0  0  0  0
  -32.0761  -28.1458   23.3671 C   0  0  0  0  0  0  0  0  0  0  0  0
  -23.0467  -13.5334   19.1260 C   0  0  0  0  0  0  0  0  0  0  0  0
  -21.4226  -15.4253   18.9126 C   0  0  0  0  0  0  0  0  0  0  0  0
  -22.6175  -15.1450   21.0865 C   0  0  0  0  0  0  0  0  0  0  0  0
  -31.1428  -27.5419   22.3100 C   0  0  1  0  0  0  0  0  0  0  0  0
  -28.3732  -30.0742   21.7242 C   0  0  1  0  0  0  0  0  0  0  0  0
  -23.5067  -14.0221   20.5141 C   0  0  2  0  0  0  0  0  0  0  0  0
  -24.0119  -19.7401   19.1186 C   0  0  0  0  0  0  0  0  0  0  0  0
  -18.9843  -19.4606   19.2178 C   0  0  0  0  0  0  0  0  0  0  0  0
  -23.1446  -35.0392   24.5551 C   0  0  0  0  0  0  0  0  0  0  0  0
  -27.3688  -30.2214   26.2331 C   0  0  0  0  0  0  0  0  0  0  0  0
  -25.4750  -31.7311   26.8675 C   0  0  0  0  0  0  0  0  0  0  0  0
  -27.6794  -32.7029   26.2203 C   0  0  0  0  0  0  0  0  0  0  0  0
  -23.5340  -33.9762   20.9226 C   0  0  0  0  0  0  0  0  0  0  0  0
  -21.1773  -25.9398   20.0540 C   0  0  0  0  0  0  0  0  0  0  0  0
  -22.3948  -26.5012   20.7689 C   0  0  0  0  0  0  0  0  0  1  0  0
  -26.2084  -31.6728   24.4406 C   0  0  1  0  0  0  0  0  0  0  0  0
  -23.8637  -34.4460   23.3535 C   0  0  2  0  0  0  0  0  0  0  0  0
  -26.6806  -31.5646   25.9180 C   0  0  0  0  0  0  0  0  0  0  0  0
  -25.3308  -15.6715   20.3070 N   0  0  0  0  0  0  0  0  0  0  0  0
  -21.2589  -23.8014   18.8967 N   0  0  0  0  0  0  0  0  0  0  0  0
  -24.9807  -14.3909   20.5156 N   0  0  0  0  0  0  0  0  0  0  0  0
  -27.2236  -30.4232   22.5613 N   0  0  0  0  0  0  0  0  0  0  0  0
  -22.0981  -16.0510   20.0589 N   0  0  0  0  0  0  0  0  0  0  0  0
  -25.8671  -12.2345   20.9339 N   0  0  0  0  0  0  0  0  0  0  0  0
  -29.5477  -14.8355   20.6428 N   0  0  0  0  0  0  0  0  0  0  0  0
  -21.5773  -18.2097   19.2586 N   0  0  0  0  0  0  0  0  0  0  0  0
  -30.2756  -28.5799   21.7977 N   0  0  0  0  0  0  0  0  0  0  0  0
  -25.5773  -32.9451   24.1068 N   0  0  0  0  0  0  0  0  0  0  0  0
  -22.9469  -34.5062   22.1802 N   0  3  0  0  0  0  0  0  0  0  0  0
  -28.8044  -12.6907   20.9685 O   0  0  0  0  0  0  0  0  0  0  0  0
  -28.6712  -28.5292   23.4847 O   0  0  0  0  0  0  0  0  0  0  0  0
  -28.2932  -32.2778   23.4847 O   0  0  0  0  0  0  0  0  0  0  0  0
  -23.5536  -32.0507   23.4125 O   0  0  0  0  0  0  0  0  0  0  0  0
  -22.7711  -17.9286   21.2365 O   0  0  0  0  0  0  0  0  0  0  0  0
  -29.6352  -20.3232   19.6873 O   0  0  0  0  0  0  0  0  0  0  0  0
  -23.5737  -26.1267   20.0572 O   0  0  0  0  0  0  0  0  0  1  0  0
  -27.9245  -24.8493   22.3315 F   0  0  0  0  0  0  0  0  0  0  0  0
  -27.1249  -21.3796   19.2126 F   0  0  0  0  0  0  0  0  0  0  0  0
  1  2  1  0  0  0  0
  1  5  2  0  0  0  0
  2  6  2  0  0  0  0
  3  8  2  0  0  0  0
  3 17  1  0  0  0  0
  4  9  1  0  0  0  0
  4 17  2  0  0  0  0
  5 19  1  0  0  0  0
  6 21  1  0  0  0  0
  7 10  2  0  0  0  0
  7 20  1  0  0  0  0
  8 27  1  0  0  0  0
  9 27  2  0  0  0  0
 10 28  1  0  0  0  0
 11 12  2  0  0  0  0
 11 29  1  0  0  0  0
 12 30  1  0  0  0  0
 13 22  1  0  0  0  0
 13 28  2  0  0  0  0
 14 23  2  0  0  0  0
 14 25  1  0  0  0  0
 15 24  1  0  0  0  0
 15 25  2  0  0  0  0
 16 30  2  0  0  0  0
 16 31  1  0  0  0  0
 17 32  1  0  0  0  0
 18 32  1  0  0  0  0
 18 33  2  0  0  0  0
 18 35  1  0  0  0  0
 19 21  2  0  0  0  0
 19 40  1  0  0  0  0
 20 22  2  0  0  0  0
 20 41  1  0  0  0  0
 21 49  1  0  0  0  0
 22 42  1  0  0  0  0
 23 26  1  0  0  0  0
 23 52  1  0  0  0  0
 24 26  2  0  0  0  0
 24 53  1  0  0  0  0
 25 65  1  0  0  0  0
 26 71  1  0  0  0  0
 27 80  1  0  0  0  0
 28 81  1  0  0  0  0
 29 31  2  0  0  0  0
 29 80  1  0  0  0  0
 30 82  1  0  0  0  0
 31 83  1  0  0  0  0
 32 64  2  0  0  0  0
 33 66  1  0  0  0  0
 33 69  1  0  0  0  0
 34 59  1  0  0  0  0
 34 65  2  0  0  0  0
 35 70  1  0  0  0  0
 35 75  2  0  0  0  0
 36 50  1  0  0  0  0
 36 72  1  0  0  0  0
 36 76  2  0  0  0  0
 37 61  1  0  0  0  0
 37 67  1  0  0  0  0
 37 77  2  0  0  0  0
 38 62  1  0  0  0  0
 38 73  1  0  0  0  0
 38 78  2  0  0  0  0
 39 68  1  0  0  0  0
 39 71  1  0  0  0  0
 39 79  2  0  0  0  0
 40 43  1  0  0  0  0
 41 50  1  0  0  0  0
 42 67  1  0  0  0  0
 43 45  1  0  0  0  0
 44 46  1  0  0  0  0
 44 47  1  0  0  0  0
 45 49  1  0  0  0  0
 46 51  1  0  0  0  0
 47 68  1  0  0  0  0
 48 51  1  0  0  0  0
 48 68  1  0  0  0  0
 49 72  1  0  0  0  0
 50 67  1  0  0  0  0
 51 66  1  0  0  0  0
 54 62  1  0  0  0  0
 55 63  1  0  0  0  0
 56 63  1  0  0  0  0
 57 63  1  0  0  0  0
 58 74  1  0  0  0  0
 59 60  1  0  0  0  0
 60 81  1  0  0  0  0
 61 63  1  0  0  0  0
 61 73  1  0  0  0  0
 62 74  1  0  0  0  0
 64 66  1  0  0  0  0
M  CHG  1  74   1
M  ISO  4  39 100  60 101  71 100  81 101
M  END
> <Batch ID>
0117

> <Smiles>
CNC(C)C(=O)NC(C(=O)N1Cc2cc([101O:1][101CH2:1]C=CNc3cc(C)c([100NH:0][100C:0](=O)N4CCCC(n5nc(-c6ccc(Oc7ccc(F)cc7F)cc6)c(C(N)=O)c5N)C4)c(C)c3)ccc2CC1C(=O)NC1CCCc2ccccc21)C(C)(C)C

> <Shape>
0.239

> <Color>
0.095

> <Negative vol penalty>
0.000

$$$$

  -OEChem-04052301463D

 86 94  0     1  0  0  0  0  0999 V2000
  -28.4200  -35.4831   24.5554 C   0  0  0  0  0  0  0  0  0  0  0  0
  -28.6744  -34.2236   24.0222 C   0  0  0  0  0  0  0  0  0  0  0  0
  -24.1402   -9.6376   21.7396 C   0  0  0  0  0  0  0  0  0  0  0  0
  -24.5051  -10.9152   23.7575 C   0  0  0  0  0  0  0  0  0  0  0  0
  -27.2454  -35.7116   25.2709 C   0  0  0  0  0  0  0  0  0  0  0  0
  -27.7548  -33.1915   24.2052 C   0  0  0  0  0  0  0  0  0  0  0  0
  -26.9095  -30.5668   19.9577 C   0  0  0  0  0  0  0  0  0  0  0  0
  -23.6973   -8.5578   22.5034 C   0  0  0  0  0  0  0  0  0  0  0  0
  -24.0621   -9.8353   24.5213 C   0  0  0  0  0  0  0  0  0  0  0  0
  -27.8739  -29.6316   19.5845 C   0  0  0  0  0  0  0  0  0  0  0  0
  -20.8749   -7.6464   24.1272 C   0  0  0  0  0  0  0  0  0  0  0  0
  -19.7185   -6.9880   23.7094 C   0  0  0  0  0  0  0  0  0  0  0  0
  -26.5112  -27.8675   20.5065 C   0  0  0  0  0  0  0  0  0  0  0  0
  -28.4874  -21.0044   20.7915 C   0  0  0  0  0  0  0  0  0  0  0  0
  -30.5561  -20.3784   21.8712 C   0  0  0  0  0  0  0  0  0  0  0  0
  -20.9693   -4.9331   23.4855 C   0  0  0  0  0  0  0  0  0  0  0  0
  -24.5442  -10.8163   22.3667 C   0  0  0  0  0  0  0  0  0  0  0  0
  -24.2224  -12.9808   21.0556 C   0  0  0  0  0  0  0  0  0  0  0  0
  -26.3064  -34.6844   25.4545 C   0  0  0  0  0  0  0  0  0  0  0  0
  -25.7418  -30.1599   20.6189 C   0  0  0  0  0  0  0  0  0  0  0  0
  -26.5671  -33.4062   24.9250 C   0  0  0  0  0  0  0  0  0  0  0  0
  -25.5324  -28.7992   20.8847 C   0  0  0  0  0  0  0  0  0  0  0  0
  -28.2880  -19.6791   20.4052 C   0  0  0  0  0  0  0  0  0  0  0  0
  -29.6216  -21.3541   21.5245 C   0  0  0  0  0  0  0  0  0  0  0  0
  -29.2225  -18.7034   20.7519 C   0  0  0  0  0  0  0  0  0  0  0  0
  -23.6582   -8.6566   23.8942 C   0  0  0  0  0  0  0  0  0  0  0  0
  -27.6761  -28.2821   19.8615 C   0  0  0  0  0  0  0  0  0  0  0  0
  -22.0787   -6.9482   24.2241 C   0  0  0  0  0  0  0  0  0  0  0  0
  -19.7656   -5.6313   23.3886 C   0  0  0  0  0  0  0  0  0  0  0  0
  -30.3566  -19.0530   21.4849 C   0  0  0  0  0  0  0  0  0  0  0  0
  -22.1258   -5.5916   23.9032 C   0  0  0  0  0  0  0  0  0  0  0  0
  -25.0024  -11.9319   21.5783 C   0  0  0  0  0  0  0  0  0  0  0  0
  -25.1210  -13.7779   20.3894 C   0  0  0  0  0  0  0  0  0  0  0  0
  -30.1290  -25.6788   20.2793 C   0  0  0  0  0  0  0  0  0  0  0  0
  -29.1937  -26.6140   20.4822 C   0  0  0  0  0  0  0  0  0  1  0  0
  -30.4811  -23.4265   21.0794 C   0  0  0  0  0  0  0  0  0  0  0  0
  -22.8118  -13.2138   21.1626 C   0  0  0  0  0  0  0  0  0  0  0  0
  -24.4527  -30.7517   23.4635 C   0  0  0  0  0  0  0  0  0  0  0  0
  -21.9722  -29.0416   22.2613 C   0  0  0  0  0  0  0  0  0  0  0  0
  -20.8784  -26.6977   20.0349 C   0  0  0  0  0  0  0  0  0  0  0  0
  -30.0218  -16.4049   20.1005 C   0  0  0  0  0  0  0  0  0  0  0  0
  -25.0731  -34.9665   26.2756 C   0  0  0  0  0  0  0  0  0  0  0  0
  -24.6990  -31.1780   20.9909 C   0  0  0  0  0  0  0  0  0  0  0  0
  -24.2865  -28.3085   21.5742 C   0  0  0  0  0  0  0  0  0  0  0  0
  -23.9749  -33.9202   26.1044 C   0  0  0  0  0  0  0  0  0  0  0  0
  -29.9657  -12.9697   19.1659 C   0  0  0  0  0  0  0  0  0  0  0  0
  -24.5585  -32.5138   26.1959 C   0  0  0  0  0  0  0  0  0  0  0  0
  -28.6053  -12.4797   19.6672 C   0  0  0  0  0  0  0  0  0  0  0  0
  -30.5897  -13.9857   20.1209 C   0  0  0  0  0  0  0  0  0  0  0  0
  -28.3685  -14.6348   20.9659 C   0  0  0  0  0  0  0  0  0  0  0  0
  -25.5823  -32.2678   25.0810 C   0  0  1  0  0  0  0  0  0  0  0  0
  -23.7837  -30.7112   22.1186 C   0  0  1  0  0  0  0  0  0  0  0  0
  -27.6712  -13.6584   20.0046 C   0  0  2  0  0  0  0  0  0  0  0  0
  -26.1328  -18.7465   17.3407 C   0  0  0  0  0  0  0  0  0  0  0  0
  -18.8052  -25.4808   19.3151 C   0  0  0  0  0  0  0  0  0  0  0  0
  -22.1504  -27.2752   24.7428 C   0  0  0  0  0  0  0  0  0  0  0  0
  -20.7546  -25.5749   23.5474 C   0  0  0  0  0  0  0  0  0  0  0  0
  -19.8209  -27.8376   24.0278 C   0  0  0  0  0  0  0  0  0  0  0  0
  -21.0457  -27.7967   17.2921 C   0  0  0  0  0  0  0  0  0  0  0  0
  -27.0638  -19.3331   19.6210 C   0  0  0  0  0  0  0  0  0  0  0  0
  -30.7433  -24.8755   21.3805 C   0  0  0  0  0  0  0  0  0  0  0  0
  -27.3734  -19.1313   18.1311 C   0  0  0  0  0  0  0  0  0  0  0  0
  -21.5910  -27.5810   22.2409 C   0  0  1  0  0  0  0  0  0  0  0  0
  -19.6984  -26.6889   19.0799 C   0  0  2  0  0  0  0  0  0  0  0  0
  -21.1037  -27.0763   23.6285 C   0  0  0  0  0  0  0  0  0  0  0  0
  -26.2969  -12.0491   21.2706 N   0  0  0  0  0  0  0  0  0  0  0  0
  -29.8226  -22.6892   21.9135 N   0  0  0  0  0  0  0  0  0  0  0  0
  -26.3372  -13.1810   20.5472 N   0  0  0  0  0  0  0  0  0  0  0  0
  -23.2993  -29.3432   21.9238 N   0  0  0  0  0  0  0  0  0  0  0  0
  -29.6493  -15.0754   20.3913 N   0  0  0  0  0  0  0  0  0  0  0  0
  -24.9815  -14.9240   19.6899 N   0  0  0  0  0  0  0  0  0  0  0  0
  -22.0357  -12.2958   21.8833 N   0  0  0  0  0  0  0  0  0  0  0  0
  -29.0344  -17.3522   20.3689 N   0  0  0  0  0  0  0  0  0  0  0  0
  -24.9101  -32.0040   23.8268 N   0  0  0  0  0  0  0  0  0  0  0  0
  -20.6098  -27.4301   21.1719 N   0  0  0  0  0  0  0  0  0  0  0  0
  -20.1748  -26.6535   17.6683 N   0  3  0  0  0  0  0  0  0  0  0  0
  -22.2534  -14.1979   20.6210 O   0  0  0  0  0  0  0  0  0  0  0  0
  -24.5455  -29.7233   24.1233 O   0  0  0  0  0  0  0  0  0  0  0  0
  -21.1220  -29.8844   22.5586 O   0  0  0  0  0  0  0  0  0  0  0  0
  -21.9316  -26.1103   19.7979 O   0  0  0  0  0  0  0  0  0  0  0  0
  -31.1250  -16.6797   19.6214 O   0  0  0  0  0  0  0  0  0  0  0  0
  -23.2258   -7.6032   24.6398 O   0  0  0  0  0  0  0  0  0  0  0  0
  -28.6161  -27.3673   19.4990 O   0  0  0  0  0  0  0  0  0  1  0  0
  -18.6546   -4.9988   22.9889 F   0  0  0  0  0  0  0  0  0  0  0  0
  -31.2616  -18.1241   21.8252 F   0  0  0  0  0  0  0  0  0  0  0  0
  -23.2790   -4.9153   23.9955 F   0  0  0  0  0  0  0  0  0  0  0  0
  1  2  1  0  0  0  0
  1  5  2  0  0  0  0
  2  6  2  0  0  0  0
  3  8  2  0  0  0  0
  3 17  1  0  0  0  0
  4  9  1  0  0  0  0
  4 17  2  0  0  0  0
  5 19  1  0  0  0  0
  6 21  1  0  0  0  0
  7 10  2  0  0  0  0
  7 20  1  0  0  0  0
  8 26  1  0  0  0  0
  9 26  2  0  0  0  0
 10 27  1  0  0  0  0
 11 12  2  0  0  0  0
 11 28  1  0  0  0  0
 12 29  1  0  0  0  0
 13 22  1  0  0  0  0
 13 27  2  0  0  0  0
 14 23  1  0  0  0  0
 14 24  2  0  0  0  0
 15 24  1  0  0  0  0
 15 30  2  0  0  0  0
 16 29  2  0  0  0  0
 16 31  1  0  0  0  0
 17 32  1  0  0  0  0
 18 32  1  0  0  0  0
 18 33  2  0  0  0  0
 18 37  1  0  0  0  0
 19 21  2  0  0  0  0
 19 42  1  0  0  0  0
 20 22  2  0  0  0  0
 20 43  1  0  0  0  0
 21 51  1  0  0  0  0
 22 44  1  0  0  0  0
 23 25  2  0  0  0  0
 23 60  1  0  0  0  0
 24 67  1  0  0  0  0
 25 30  1  0  0  0  0
 25 73  1  0  0  0  0
 26 82  1  0  0  0  0
 27 83  1  0  0  0  0
 28 31  2  0  0  0  0
 28 82  1  0  0  0  0
 29 84  1  0  0  0  0
 30 85  1  0  0  0  0
 31 86  1  0  0  0  0
 32 66  2  0  0  0  0
 33 68  1  0  0  0  0
 33 71  1  0  0  0  0
 34 35  2  0  0  0  0
 34 61  1  0  0  0  0
 35 83  1  0  0  0  0
 36 61  1  0  0  0  0
 36 67  2  0  0  0  0
 37 72  1  0  0  0  0
 37 77  2  0  0  0  0
 38 52  1  0  0  0  0
 38 74  1  0  0  0  0
 38 78  2  0  0  0  0
 39 63  1  0  0  0  0
 39 69  1  0  0  0  0
 39 79  2  0  0  0  0
 40 64  1  0  0  0  0
 40 75  1  0  0  0  0
 40 80  2  0  0  0  0
 41 70  1  0  0  0  0
 41 73  1  0  0  0  0
 41 81  2  0  0  0  0
 42 45  1  0  0  0  0
 43 52  1  0  0  0  0
 44 69  1  0  0  0  0
 45 47  1  0  0  0  0
 46 48  1  0  0  0  0
 46 49  1  0  0  0  0
 47 51  1  0  0  0  0
 48 53  1  0  0  0  0
 49 70  1  0  0  0  0
 50 53  1  0  0  0  0
 50 70  1  0  0  0  0
 51 74  1  0  0  0  0
 52 69  1  0  0  0  0
 53 68  1  0  0  0  0
 54 62  1  0  0  0  0
 55 64  1  0  0  0  0
 56 65  1  0  0  0  0
 57 65  1  0  0  0  0
 58 65  1  0  0  0  0
 59 76  1  0  0  0  0
 60 62  1  0  0  0  0
 63 65  1  0  0  0  0
 63 75  1  0  0  0  0
 64 76  1  0  0  0  0
 66 68  1  0  0  0  0
M  CHG  1  76   1
M  ISO  4  35 101  41 100  73 100  83 101
M  END
> <Batch ID>
0117

> <Smiles>
CCCc1cc(NC=CC=[101CH:1][101O:1]c2ccc3c(c2)CN(C(=O)C(NC(=O)C(C)NC)C(C)(C)C)C(C(=O)NC2CCCc4ccccc42)C3)cc(F)c1[100NH:0][100C:0](=O)N1CCCC(n2nc(-c3ccc(Oc4ccc(F)cc4F)cc3)c(C(N)=O)c2N)C1

> <Shape>
0.364

> <Color>
0.123

> <Negative vol penalty>
0.000

$$$$

  -OEChem-04052301463D

 88 96  0     1  0  0  0  0  0999 V2000
  -21.5295  -12.2876   21.0571 C   0  0  0  0  0  0  0  0  0  0  0  0
  -21.7117  -13.5362   21.6428 C   0  0  0  0  0  0  0  0  0  0  0  0
  -24.4421  -26.1447   20.3105 C   0  0  0  0  0  0  0  0  0  0  0  0
  -23.6391  -27.1844   18.2828 C   0  0  0  0  0  0  0  0  0  0  0  0
  -22.6226  -11.5980   20.5341 C   0  0  0  0  0  0  0  0  0  0  0  0
  -22.9874  -14.0956   21.7069 C   0  0  0  0  0  0  0  0  0  0  0  0
  -23.0306  -18.9892   20.4046 C   0  0  0  0  0  0  0  0  0  0  0  0
  -23.8300  -24.9476   19.9391 C   0  0  0  0  0  0  0  0  0  0  0  0
  -23.0270  -25.9872   17.9114 C   0  0  0  0  0  0  0  0  0  0  0  0
  -22.5888  -19.9057   21.3578 C   0  0  0  0  0  0  0  0  0  0  0  0
  -20.2111  -24.2839   18.6861 C   0  0  0  0  0  0  0  0  0  0  0  0
  -18.9067  -24.3477   18.1963 C   0  0  0  0  0  0  0  0  0  0  0  0
  -20.4354  -27.9473   23.3805 C   0  0  0  0  0  0  0  0  0  0  0  0
  -18.7589  -26.3861   22.6131 C   0  0  0  0  0  0  0  0  0  0  0  0
  -24.8785  -20.4162   21.9196 C   0  0  0  0  0  0  0  0  0  0  0  0
  -19.6417  -23.3721   16.1118 C   0  0  0  0  0  0  0  0  0  0  0  0
  -24.3466  -27.2631   19.4823 C   0  0  0  0  0  0  0  0  0  0  0  0
  -19.7228  -28.9973   22.8013 C   0  0  0  0  0  0  0  0  0  0  0  0
  -18.0463  -27.4360   22.0339 C   0  0  0  0  0  0  0  0  0  0  0  0
  -26.2879  -28.9163   19.5601 C   0  0  0  0  0  0  0  0  0  0  0  0
  -23.9109  -12.1534   20.5832 C   0  0  0  0  0  0  0  0  0  0  0  0
  -24.4020  -18.7710   20.2090 C   0  0  0  0  0  0  0  0  0  0  0  0
  -24.0990  -13.4122   21.1853 C   0  0  0  0  0  0  0  0  0  0  0  0
  -25.3352  -19.4983   20.9615 C   0  0  0  0  0  0  0  0  0  0  0  0
  -18.5283  -28.7416   22.1281 C   0  0  0  0  0  0  0  0  0  0  0  0
  -23.1225  -24.8689   18.7396 C   0  0  0  0  0  0  0  0  0  0  0  0
  -23.5127  -20.6172   22.1175 C   0  0  0  0  0  0  0  0  0  0  0  0
  -21.2309  -23.7642   17.8888 C   0  0  0  0  0  0  0  0  0  0  0  0
  -19.9535  -26.6417   23.2864 C   0  0  0  0  0  0  0  0  0  0  0  0
  -18.6220  -23.8918   16.9091 C   0  0  0  0  0  0  0  0  0  0  0  0
  -20.9462  -23.3083   16.6016 C   0  0  0  0  0  0  0  0  0  0  0  0
  -24.9782  -28.5002   19.8657 C   0  0  0  0  0  0  0  0  0  0  0  0
  -26.4013  -30.1524   20.1480 C   0  0  0  0  0  0  0  0  0  0  0  0
  -14.5177  -26.2175   21.5140 C   0  0  0  0  0  0  0  0  0  0  0  0
  -15.6852  -26.4951   22.1027 C   0  0  0  0  0  0  0  0  0  0  0  0
  -20.2516  -30.3498   22.9161 C   0  0  0  0  0  0  0  0  0  0  0  0
  -16.8023  -27.1377   21.3370 C   0  0  0  0  0  0  0  0  0  0  0  0
  -27.3105  -28.2455   18.8117 C   0  0  0  0  0  0  0  0  0  0  0  0
  -21.1729  -30.9046   21.8978 C   0  0  0  0  0  0  0  0  0  0  0  0
  -26.3414  -16.2710   20.5133 C   0  0  0  0  0  0  0  0  0  0  0  0
  -21.8258  -23.5457   23.4250 C   0  0  0  0  0  0  0  0  0  0  0  0
  -28.5182  -18.2954   19.2150 C   0  0  0  0  0  0  0  0  0  0  0  0
  -29.5018  -21.5128   18.6421 C   0  0  0  0  0  0  0  0  0  0  0  0
  -25.0689  -11.3496   20.0471 C   0  0  0  0  0  0  0  0  0  0  0  0
  -24.8627  -17.7985   19.1581 C   0  0  0  0  0  0  0  0  0  0  0  0
  -26.8187  -19.3156   20.7758 C   0  0  0  0  0  0  0  0  0  0  0  0
  -26.3312  -12.1772   19.8190 C   0  0  0  0  0  0  0  0  0  0  0  0
  -24.3010  -30.6864   23.8531 C   0  0  0  0  0  0  0  0  0  0  0  0
  -26.6095  -13.0696   21.0243 C   0  0  0  0  0  0  0  0  0  0  0  0
  -25.2482  -31.5311   23.0068 C   0  0  0  0  0  0  0  0  0  0  0  0
  -22.8656  -31.1853   23.7447 C   0  0  0  0  0  0  0  0  0  0  0  0
  -23.3113  -32.0302   21.4420 C   0  0  0  0  0  0  0  0  0  0  0  0
  -25.4636  -14.0630   21.2515 C   0  0  1  0  0  0  0  0  0  0  0  0
  -26.2767  -17.2805   19.4022 C   0  0  1  0  0  0  0  0  0  0  0  0
  -24.7954  -31.6282   21.5399 C   0  0  2  0  0  0  0  0  0  0  0  0
  -17.7642  -29.8682   21.5056 C   0  0  0  0  0  0  0  0  0  0  0  0
  -31.3437  -22.8514   17.5872 C   0  0  0  0  0  0  0  0  0  0  0  0
  -30.3275  -17.6748   21.5923 C   0  0  0  0  0  0  0  0  0  0  0  0
  -31.6813  -19.6960   21.0006 C   0  0  0  0  0  0  0  0  0  0  0  0
  -31.5052  -17.7995   19.3896 C   0  0  0  0  0  0  0  0  0  0  0  0
  -27.6389  -22.7811   16.7238 C   0  0  0  0  0  0  0  0  0  0  0  0
  -21.8418  -22.1671   22.7970 C   0  0  0  0  0  0  0  0  0  1  0  0
  -20.5485  -24.3396   23.2430 C   0  0  0  0  0  0  0  0  0  0  0  0
  -29.5042  -19.2992   19.7622 C   0  0  1  0  0  0  0  0  0  0  0  0
  -29.9799  -22.2106   17.3815 C   0  0  2  0  0  0  0  0  0  0  0  0
  -30.7266  -18.6196   20.4413 C   0  0  0  0  0  0  0  0  0  0  0  0
  -24.3077  -29.3989   20.5914 N   0  0  0  0  0  0  0  0  0  0  0  0
  -19.9556  -31.1511   23.9018 N   0  0  0  0  0  0  0  0  0  0  0  0
  -25.1996  -30.3920   20.7469 N   0  0  0  0  0  0  0  0  0  0  0  0
  -22.4295  -31.2937   22.3497 N   0  0  0  0  0  0  0  0  0  0  0  0
  -27.2194  -18.3487   19.7405 N   0  0  0  0  0  0  0  0  0  0  0  0
  -27.4108  -31.0469   20.2060 N   0  0  0  0  0  0  0  0  0  0  0  0
  -27.0267  -26.9815   18.2769 N   0  0  0  0  0  0  0  0  0  0  0  0
  -25.5491  -15.1575   20.3086 N   0  0  0  0  0  0  0  0  0  0  0  0
  -29.8504  -20.1787   18.6509 N   0  0  0  0  0  0  0  0  0  0  0  0
  -29.0163  -23.2746   16.9812 N   0  3  0  0  0  0  0  0  0  0  0  0
  -16.6581  -27.4315   20.1416 O   0  0  0  0  0  0  0  0  0  0  0  0
  -28.4478  -28.7449   18.6368 O   0  0  0  0  0  0  0  0  0  0  0  0
  -20.7280  -30.9593   20.7587 O   0  0  0  0  0  0  0  0  0  0  0  0
  -27.0582  -16.4858   21.4837 O   0  0  0  0  0  0  0  0  0  0  0  0
  -22.7904  -23.9927   24.0437 O   0  0  0  0  0  0  0  0  0  0  0  0
  -28.8850  -17.4983   18.3481 O   0  0  0  0  0  0  0  0  0  0  0  0
  -28.8842  -22.0939   19.5317 O   0  0  0  0  0  0  0  0  0  0  0  0
  -22.5253  -23.7008   18.3768 O   0  0  0  0  0  0  0  0  0  0  0  0
  -23.0841  -21.5119   23.0490 O   0  0  0  0  0  0  0  0  0  1  0  0
  -20.6559  -25.6067   23.8568 O   0  0  0  0  0  0  0  0  0  0  0  0
  -17.3690  -23.9517   16.4394 F   0  0  0  0  0  0  0  0  0  0  0  0
  -21.9215  -22.8070   15.8314 F   0  0  0  0  0  0  0  0  0  0  0  0
  1  2  1  0  0  0  0
  1  5  2  0  0  0  0
  2  6  2  0  0  0  0
  3  8  2  0  0  0  0
  3 17  1  0  0  0  0
  4  9  1  0  0  0  0
  4 17  2  0  0  0  0
  5 21  1  0  0  0  0
  6 23  1  0  0  0  0
  7 10  2  0  0  0  0
  7 22  1  0  0  0  0
  8 26  1  0  0  0  0
  9 26  2  0  0  0  0
 10 27  1  0  0  0  0
 11 12  2  0  0  0  0
 11 28  1  0  0  0  0
 12 30  1  0  0  0  0
 13 18  2  0  0  0  0
 13 29  1  0  0  0  0
 14 19  1  0  0  0  0
 14 29  2  0  0  0  0
 15 24  1  0  0  0  0
 15 27  2  0  0  0  0
 16 30  2  0  0  0  0
 16 31  1  0  0  0  0
 17 32  1  0  0  0  0
 18 25  1  0  0  0  0
 18 36  1  0  0  0  0
 19 25  2  0  0  0  0
 19 37  1  0  0  0  0
 20 32  1  0  0  0  0
 20 33  2  0  0  0  0
 20 38  1  0  0  0  0
 21 23  2  0  0  0  0
 21 44  1  0  0  0  0
 22 24  2  0  0  0  0
 22 45  1  0  0  0  0
 23 53  1  0  0  0  0
 24 46  1  0  0  0  0
 25 56  1  0  0  0  0
 26 84  1  0  0  0  0
 27 85  1  0  0  0  0
 28 31  2  0  0  0  0
 28 84  1  0  0  0  0
 29 86  1  0  0  0  0
 30 87  1  0  0  0  0
 31 88  1  0  0  0  0
 32 67  2  0  0  0  0
 33 69  1  0  0  0  0
 33 72  1  0  0  0  0
 34 35  2  0  0  0  0
 35 37  1  0  0  0  0
 36 39  1  0  0  0  0
 36 68  2  0  0  0  0
 37 77  2  0  0  0  0
 38 73  1  0  0  0  0
 38 78  2  0  0  0  0
 39 70  1  0  0  0  0
 39 79  2  0  0  0  0
 40 54  1  0  0  0  0
 40 74  1  0  0  0  0
 40 80  2  0  0  0  0
 41 62  1  0  0  0  0
 41 63  1  0  0  0  0
 41 81  2  0  0  0  0
 42 64  1  0  0  0  0
 42 71  1  0  0  0  0
 42 82  2  0  0  0  0
 43 65  1  0  0  0  0
 43 75  1  0  0  0  0
 43 83  2  0  0  0  0
 44 47  1  0  0  0  0
 45 54  1  0  0  0  0
 46 71  1  0  0  0  0
 47 49  1  0  0  0  0
 48 50  1  0  0  0  0
 48 51  1  0  0  0  0
 49 53  1  0  0  0  0
 50 55  1  0  0  0  0
 51 70  1  0  0  0  0
 52 55  1  0  0  0  0
 52 70  1  0  0  0  0
 53 74  1  0  0  0  0
 54 71  1  0  0  0  0
 55 69  1  0  0  0  0
 57 65  1  0  0  0  0
 58 66  1  0  0  0  0
 59 66  1  0  0  0  0
 60 66  1  0  0  0  0
 61 76  1  0  0  0  0
 62 85  1  0  0  0  0
 63 86  1  0  0  0  0
 64 66  1  0  0  0  0
 64 75  1  0  0  0  0
 65 76  1  0  0  0  0
 67 69  1  0  0  0  0
M  CHG  1  76   1
M  ISO  4  36 100  39 100  62 101  85 101
M  END
> <Batch ID>
0117

> <Smiles>
C=CC(=O)c1cc(OCC(=O)[101CH2:1][101O:1]c2ccc3c(c2)CN(C(=O)C(NC(=O)C(C)NC)C(C)(C)C)C(C(=O)NC2CCCc4ccccc42)C3)cc([100C:0](=N)[100C:0](=O)N2CCCC(n3nc(-c4ccc(Oc5ccc(F)cc5F)cc4)c(C(N)=O)c3N)C2)c1C

> <Shape>
0.246

> <Color>
0.066

> <Negative vol penalty>
0.000

$$$$

  -OEChem-04052301463D

 86 94  0     1  0  0  0  0  0999 V2000
  -29.0238  -29.1587   14.3272 C   0  0  0  0  0  0  0  0  0  0  0  0
  -28.4344  -28.4296   15.3549 C   0  0  0  0  0  0  0  0  0  0  0  0
  -23.1603   -9.7876   19.9203 C   0  0  0  0  0  0  0  0  0  0  0  0
  -23.8965   -9.8270   22.2211 C   0  0  0  0  0  0  0  0  0  0  0  0
  -30.3882  -29.0252   14.0729 C   0  0  0  0  0  0  0  0  0  0  0  0
  -29.2088  -27.5656   16.1284 C   0  0  0  0  0  0  0  0  0  0  0  0
  -28.5251  -26.3494   22.0915 C   0  0  0  0  0  0  0  0  0  0  0  0
  -22.4677   -8.6013   20.1622 C   0  0  0  0  0  0  0  0  0  0  0  0
  -23.2038   -8.6407   22.4630 C   0  0  0  0  0  0  0  0  0  0  0  0
  -27.9111  -25.2975   22.7699 C   0  0  0  0  0  0  0  0  0  0  0  0
  -20.0099   -7.6949   23.0331 C   0  0  0  0  0  0  0  0  0  0  0  0
  -19.2441   -7.6190   24.1964 C   0  0  0  0  0  0  0  0  0  0  0  0
  -30.0453  -24.1920   22.9751 C   0  0  0  0  0  0  0  0  0  0  0  0
  -30.1926  -20.1212   21.5521 C   0  0  0  0  0  0  0  0  0  0  0  0
  -30.8609  -17.9774   20.6608 C   0  0  0  0  0  0  0  0  0  0  0  0
  -20.5658   -5.7398   24.9439 C   0  0  0  0  0  0  0  0  0  0  0  0
  -23.8747  -10.4005   20.9498 C   0  0  0  0  0  0  0  0  0  0  0  0
  -24.1014  -12.9388   20.8347 C   0  0  0  0  0  0  0  0  0  0  0  0
  -31.1816  -28.1664   14.8498 C   0  0  0  0  0  0  0  0  0  0  0  0
  -29.9044  -26.3253   21.8399 C   0  0  0  0  0  0  0  0  0  0  0  0
  -30.5848  -27.4195   15.8834 C   0  0  0  0  0  0  0  0  0  0  0  0
  -30.6748  -25.2460   22.2956 C   0  0  0  0  0  0  0  0  0  0  0  0
  -29.3122  -19.4835   22.4260 C   0  0  0  0  0  0  0  0  0  0  0  0
  -30.9670  -19.3682   20.6694 C   0  0  0  0  0  0  0  0  0  0  0  0
  -29.9805  -17.3396   21.5347 C   0  0  0  0  0  0  0  0  0  0  0  0
  -22.4895   -8.0278   21.4336 C   0  0  0  0  0  0  0  0  0  0  0  0
  -28.6706  -24.2172   23.2093 C   0  0  0  0  0  0  0  0  0  0  0  0
  -21.0537   -6.7932   22.8251 C   0  0  0  0  0  0  0  0  0  0  0  0
  -19.5221   -6.6415   25.1519 C   0  0  0  0  0  0  0  0  0  0  0  0
  -21.3316   -5.8157   23.7806 C   0  0  0  0  0  0  0  0  0  0  0  0
  -29.2062  -18.0927   22.4173 C   0  0  0  0  0  0  0  0  0  0  0  0
  -24.5908  -11.6257   20.7004 C   0  0  0  0  0  0  0  0  0  0  0  0
  -25.1616  -13.7380   20.4827 C   0  0  0  0  0  0  0  0  0  0  0  0
  -32.7556  -22.5239   17.6173 C   0  0  0  0  0  0  0  0  0  0  0  0
  -33.0218  -21.7729   18.6919 C   0  0  0  0  0  0  0  0  0  0  0  0
  -27.3774  -20.6169   22.8694 C   0  0  0  0  0  0  0  0  0  0  0  0
  -22.8045  -13.3953   21.2413 C   0  0  0  0  0  0  0  0  0  0  0  0
  -31.7068  -26.3017   19.2217 C   0  0  0  0  0  0  0  0  0  0  0  0
  -34.1299  -26.5924   21.3586 C   0  0  0  0  0  0  0  0  0  0  0  0
  -35.2535  -26.1216   24.5465 C   0  0  0  0  0  0  0  0  0  0  0  0
  -30.5720  -15.0332   20.7121 C   0  0  0  0  0  0  0  0  0  0  0  0
  -32.6429  -28.0196   14.5068 C   0  0  0  0  0  0  0  0  0  0  0  0
  -30.5561  -27.4804   21.1303 C   0  0  0  0  0  0  0  0  0  0  0  0
  -32.1624  -25.1817   22.0686 C   0  0  0  0  0  0  0  0  0  0  0  0
  -33.4656  -27.3653   15.6138 C   0  0  0  0  0  0  0  0  0  0  0  0
  -29.5930  -12.5733   18.3314 C   0  0  0  0  0  0  0  0  0  0  0  0
  -32.7535  -26.1261   16.1467 C   0  0  0  0  0  0  0  0  0  0  0  0
  -28.1641  -12.2155   18.7466 C   0  0  0  0  0  0  0  0  0  0  0  0
  -30.4847  -12.8426   19.5422 C   0  0  0  0  0  0  0  0  0  0  0  0
  -28.5330  -13.4773   20.9050 C   0  0  0  0  0  0  0  0  0  0  0  0
  -31.3963  -26.4907   16.7603 C   0  0  1  0  0  0  0  0  0  0  0  0
  -31.8836  -27.1083   20.4771 C   0  0  1  0  0  0  0  0  0  0  0  0
  -27.5808  -13.2608   19.7175 C   0  0  2  0  0  0  0  0  0  0  0  0
  -37.2898  -26.4220   25.9820 C   0  0  0  0  0  0  0  0  0  0  0  0
  -35.4086  -24.1496   20.0518 C   0  0  0  0  0  0  0  0  0  0  0  0
  -36.8821  -23.9311   22.0640 C   0  0  0  0  0  0  0  0  0  0  0  0
  -37.0117  -25.9762   20.6416 C   0  0  0  0  0  0  0  0  0  0  0  0
  -33.8378  -27.9742   26.3693 C   0  0  0  0  0  0  0  0  0  0  0  0
  -32.0146  -21.4338   19.7413 C   0  0  0  0  0  0  0  0  0  0  0  0
  -26.4476  -21.4240   23.7354 C   0  0  0  0  0  0  0  0  0  0  0  0
  -26.7138  -22.9074   23.5426 C   0  0  0  0  0  0  0  0  0  1  0  0
  -34.9975  -25.6266   22.1291 C   0  0  1  0  0  0  0  0  0  0  0  0
  -35.9878  -27.0444   25.5024 C   0  0  2  0  0  0  0  0  0  0  0  0
  -36.0466  -24.9209   21.2244 C   0  0  0  0  0  0  0  0  0  0  0  0
  -25.8628  -11.5884   20.2946 N   0  0  0  0  0  0  0  0  0  0  0  0
  -28.5328  -20.2438   23.3139 N   0  0  0  0  0  0  0  0  0  0  0  0
  -26.1816  -12.8881   20.1708 N   0  0  0  0  0  0  0  0  0  0  0  0
  -32.7522  -26.3322   21.3645 N   0  0  0  0  0  0  0  0  0  0  0  0
  -29.8704  -13.8457   20.4146 N   0  0  0  0  0  0  0  0  0  0  0  0
  -25.3113  -15.0778   20.4126 N   0  0  0  0  0  0  0  0  0  0  0  0
  -21.8322  -12.4403   21.5680 N   0  0  0  0  0  0  0  0  0  0  0  0
  -29.8748  -15.9267   21.5246 N   0  0  0  0  0  0  0  0  0  0  0  0
  -31.8569  -20.0131   19.7853 N   0  0  0  0  0  0  0  0  0  0  0  0
  -31.5746  -27.0643   18.0770 N   0  0  0  0  0  0  0  0  0  0  0  0
  -35.5748  -26.3871   23.2322 N   0  0  0  0  0  0  0  0  0  0  0  0
  -35.1406  -27.3378   26.6928 N   0  3  0  0  0  0  0  0  0  0  0  0
  -22.5115  -14.6137   21.2971 O   0  0  0  0  0  0  0  0  0  0  0  0
  -31.6930  -25.0781   19.2867 O   0  0  0  0  0  0  0  0  0  0  0  0
  -34.6546  -27.5466   20.7791 O   0  0  0  0  0  0  0  0  0  0  0  0
  -34.4758  -25.2497   24.9280 O   0  0  0  0  0  0  0  0  0  0  0  0
  -31.6967  -15.2540   20.2557 O   0  0  0  0  0  0  0  0  0  0  0  0
  -21.8136   -6.8703   21.6700 O   0  0  0  0  0  0  0  0  0  0  0  0
  -28.0737  -23.1888   23.8711 O   0  0  0  0  0  0  0  0  0  1  0  0
  -18.7876   -6.5697   26.2697 F   0  0  0  0  0  0  0  0  0  0  0  0
  -22.3338   -4.9474   23.5869 F   0  0  0  0  0  0  0  0  0  0  0  0
  -28.3587  -17.4807   23.2585 F   0  0  0  0  0  0  0  0  0  0  0  0
  1  2  1  0  0  0  0
  1  5  2  0  0  0  0
  2  6  2  0  0  0  0
  3  8  2  0  0  0  0
  3 17  1  0  0  0  0
  4  9  1  0  0  0  0
  4 17  2  0  0  0  0
  5 19  1  0  0  0  0
  6 21  1  0  0  0  0
  7 10  2  0  0  0  0
  7 20  1  0  0  0  0
  8 26  1  0  0  0  0
  9 26  2  0  0  0  0
 10 27  1  0  0  0  0
 11 12  2  0  0  0  0
 11 28  1  0  0  0  0
 12 29  1  0  0  0  0
 13 22  1  0  0  0  0
 13 27  2  0  0  0  0
 14 23  2  0  0  0  0
 14 24  1  0  0  0  0
 15 24  2  0  0  0  0
 15 25  1  0  0  0  0
 16 29  2  0  0  0  0
 16 30  1  0  0  0  0
 17 32  1  0  0  0  0
 18 32  1  0  0  0  0
 18 33  2  0  0  0  0
 18 37  1  0  0  0  0
 19 21  2  0  0  0  0
 19 42  1  0  0  0  0
 20 22  2  0  0  0  0
 20 43  1  0  0  0  0
 21 51  1  0  0  0  0
 22 44  1  0  0  0  0
 23 31  1  0  0  0  0
 23 66  1  0  0  0  0
 24 73  1  0  0  0  0
 25 31  2  0  0  0  0
 25 72  1  0  0  0  0
 26 82  1  0  0  0  0
 27 83  1  0  0  0  0
 28 30  2  0  0  0  0
 28 82  1  0  0  0  0
 29 84  1  0  0  0  0
 30 85  1  0  0  0  0
 31 86  1  0  0  0  0
 32 65  2  0  0  0  0
 33 67  1  0  0  0  0
 33 70  1  0  0  0  0
 34 35  2  0  0  0  0
 35 59  1  0  0  0  0
 36 60  1  0  0  0  0
 36 66  2  0  0  0  0
 37 71  1  0  0  0  0
 37 77  2  0  0  0  0
 38 52  1  0  0  0  0
 38 74  1  0  0  0  0
 38 78  2  0  0  0  0
 39 62  1  0  0  0  0
 39 68  1  0  0  0  0
 39 79  2  0  0  0  0
 40 63  1  0  0  0  0
 40 75  1  0  0  0  0
 40 80  2  0  0  0  0
 41 69  1  0  0  0  0
 41 72  1  0  0  0  0
 41 81  2  0  0  0  0
 42 45  1  0  0  0  0
 43 52  1  0  0  0  0
 44 68  1  0  0  0  0
 45 47  1  0  0  0  0
 46 48  1  0  0  0  0
 46 49  1  0  0  0  0
 47 51  1  0  0  0  0
 48 53  1  0  0  0  0
 49 69  1  0  0  0  0
 50 53  1  0  0  0  0
 50 69  1  0  0  0  0
 51 74  1  0  0  0  0
 52 68  1  0  0  0  0
 53 67  1  0  0  0  0
 54 63  1  0  0  0  0
 55 64  1  0  0  0  0
 56 64  1  0  0  0  0
 57 64  1  0  0  0  0
 58 76  1  0  0  0  0
 59 73  1  0  0  0  0
 60 61  1  0  0  0  0
 61 83  1  0  0  0  0
 62 64  1  0  0  0  0
 62 75  1  0  0  0  0
 63 76  1  0  0  0  0
 65 67  1  0  0  0  0
M  CHG  1  76   1
M  ISO  4  41 100  61 101  72 100  83 101
M  END
> <Batch ID>
0117

> <Smiles>
C=CCNc1cc(NC=C[101CH2:1][101O:1]c2ccc3c(c2)CN(C(=O)C(NC(=O)C(C)NC)C(C)(C)C)C(C(=O)NC2CCCc4ccccc42)C3)c(F)c([100NH:0][100C:0](=O)N2CCCC(n3nc(-c4ccc(Oc5ccc(F)cc5F)cc4)c(C(N)=O)c3N)C2)c1

> <Shape>
0.214

> <Color>
0.190

> <Negative vol penalty>
0.000

$$$$

  -OEChem-04052301463D

 89 98  0     1  0  0  0  0  0999 V2000
  -24.2291   -7.9479   23.5907 C   0  0  0  0  0  0  0  0  0  0  0  0
  -25.4295   -8.4282   23.0770 C   0  0  0  0  0  0  0  0  0  0  0  0
  -23.2621  -29.1459   23.5044 C   0  0  0  0  0  0  0  0  0  0  0  0
  -22.0480  -30.4906   21.9060 C   0  0  0  0  0  0  0  0  0  0  0  0
  -33.6966  -27.6160   19.4114 C   0  0  0  0  0  0  0  0  0  0  0  0
  -23.0200   -8.3456   23.0217 C   0  0  0  0  0  0  0  0  0  0  0  0
  -25.4215   -9.3055   21.9933 C   0  0  0  0  0  0  0  0  0  0  0  0
  -33.8690  -26.2586   19.1414 C   0  0  0  0  0  0  0  0  0  0  0  0
  -28.5372  -16.4364   21.3077 C   0  0  0  0  0  0  0  0  0  0  0  0
  -22.1440  -29.1274   24.3381 C   0  0  0  0  0  0  0  0  0  0  0  0
  -20.9299  -30.4721   22.7397 C   0  0  0  0  0  0  0  0  0  0  0  0
  -28.9082  -17.7679   21.1193 C   0  0  0  0  0  0  0  0  0  0  0  0
  -18.4324  -28.3287   23.5073 C   0  0  0  0  0  0  0  0  0  0  0  0
  -17.1920  -28.0797   22.9200 C   0  0  0  0  0  0  0  0  0  0  0  0
  -31.3702  -27.2193   19.9169 C   0  0  0  0  0  0  0  0  0  0  0  0
  -27.1426  -18.0403   19.4894 C   0  0  0  0  0  0  0  0  0  0  0  0
  -16.3955  -30.2259   23.6922 C   0  0  0  0  0  0  0  0  0  0  0  0
  -23.2141  -29.8275   22.2883 C   0  0  0  0  0  0  0  0  0  0  0  0
  -32.4488  -28.0956   19.8011 C   0  0  0  0  0  0  0  0  0  0  0  0
  -24.6873  -28.9270   20.4104 C   0  0  0  0  0  0  0  0  0  0  0  0
  -22.9967   -9.2359   21.9366 C   0  0  0  0  0  0  0  0  0  0  0  0
  -32.7946  -25.3664   19.2659 C   0  0  0  0  0  0  0  0  0  0  0  0
  -27.4564  -15.9055   20.5982 C   0  0  0  0  0  0  0  0  0  0  0  0
  -24.2110   -9.7144   21.4083 C   0  0  0  0  0  0  0  0  0  0  0  0
  -31.5304  -25.8548   19.6392 C   0  0  0  0  0  0  0  0  0  0  0  0
  -26.7585  -16.7108   19.6832 C   0  0  0  0  0  0  0  0  0  0  0  0
  -20.9779  -29.7905   23.9558 C   0  0  0  0  0  0  0  0  0  0  0  0
  -28.2127  -18.5678   20.2122 C   0  0  0  0  0  0  0  0  0  0  0  0
  -18.6544  -29.5264   24.1871 C   0  0  0  0  0  0  0  0  0  0  0  0
  -16.1735  -29.0283   23.0124 C   0  0  0  0  0  0  0  0  0  0  0  0
  -17.6359  -30.4749   24.2795 C   0  0  0  0  0  0  0  0  0  0  0  0
  -24.3690  -29.8475   21.4269 C   0  0  0  0  0  0  0  0  0  0  0  0
  -25.8743  -29.3844   19.8924 C   0  0  0  0  0  0  0  0  0  0  0  0
  -25.2842  -22.1011   17.2352 C   0  0  0  0  0  0  0  0  0  0  0  0
  -32.2681  -29.5292   20.0910 C   0  0  0  0  0  0  0  0  0  0  0  0
  -26.5041  -21.5780   17.3848 C   0  0  0  0  0  0  0  0  0  0  0  0
  -23.9738  -27.7626   19.9735 C   0  0  0  0  0  0  0  0  0  0  0  0
  -26.9366  -21.0068   18.6915 C   0  0  0  0  0  0  0  0  0  0  0  0
  -25.2777  -12.9262   19.9252 C   0  0  0  0  0  0  0  0  0  0  0  0
  -23.4362  -15.3785   19.9980 C   0  0  0  0  0  0  0  0  0  0  0  0
  -21.7075  -18.2626   20.5731 C   0  0  0  0  0  0  0  0  0  0  0  0
  -31.0281  -31.3661   20.7070 C   0  0  0  0  0  0  0  0  0  0  0  0
  -21.6672   -9.6000   21.3248 C   0  0  0  0  0  0  0  0  0  0  0  0
  -32.9943  -23.9095   18.9339 C   0  0  0  0  0  0  0  0  0  0  0  0
  -27.0604  -14.4594   20.7239 C   0  0  0  0  0  0  0  0  0  0  0  0
  -25.6244  -16.0873   18.9164 C   0  0  0  0  0  0  0  0  0  0  0  0
  -30.3592  -24.9242   19.7983 C   0  0  0  0  0  0  0  0  0  0  0  0
  -21.7296  -10.8260   20.4173 C   0  0  0  0  0  0  0  0  0  0  0  0
  -28.3223  -33.7472   20.5904 C   0  0  0  0  0  0  0  0  0  0  0  0
  -22.9219  -10.7293   19.4708 C   0  0  0  0  0  0  0  0  0  0  0  0
  -27.0808  -32.8698   20.7498 C   0  0  0  0  0  0  0  0  0  0  0  0
  -29.4965  -33.2086   21.4019 C   0  0  0  0  0  0  0  0  0  0  0  0
  -28.5952  -30.9031   21.2580 C   0  0  0  0  0  0  0  0  0  0  0  0
  -31.9222  -23.0032   19.5289 C   0  0  0  0  0  0  0  0  0  0  0  0
  -24.2424  -10.6870   20.2494 C   0  0  1  0  0  0  0  0  0  0  0  0
  -25.5419  -14.2370   20.6058 C   0  0  1  0  0  0  0  0  0  0  0  0
  -27.3985  -31.3986   20.4281 C   0  0  1  0  0  0  0  0  0  0  0  0
  -19.3742  -19.1853   20.6167 C   0  0  0  0  0  0  0  0  0  0  0  0
  -23.3967  -15.4127   16.9482 C   0  0  0  0  0  0  0  0  0  0  0  0
  -21.5847  -17.1366   17.0616 C   0  0  0  0  0  0  0  0  0  0  0  0
  -21.2022  -14.8631   18.0142 C   0  0  0  0  0  0  0  0  0  0  0  0
  -21.9206  -18.9808   23.4363 C   0  0  0  0  0  0  0  0  0  0  0  0
  -29.4229  -21.4936   18.4693 C   0  0  0  0  0  0  0  0  0  0  0  0
  -29.4530  -22.6107   19.5087 C   0  0  0  0  0  0  0  0  0  0  0  0
  -28.3498  -20.4370   18.7476 C   0  0  1  0  0  0  0  0  0  1  0  0
  -22.7461  -16.4659   19.2139 C   0  0  1  0  0  0  0  0  0  0  0  0
  -20.4909  -18.5536   21.4332 C   0  0  2  0  0  0  0  0  0  0  0  0
  -22.2575  -15.9740   17.8222 C   0  0  0  0  0  0  0  0  0  0  0  0
  -25.2802  -30.8163   21.5490 N   0  0  0  0  0  0  0  0  0  0  0  0
  -31.1244  -30.0113   20.4525 N   0  0  0  0  0  0  0  0  0  0  0  0
  -26.1829  -30.5071   20.6026 N   0  0  0  0  0  0  0  0  0  0  0  0
  -24.8172  -15.2432   19.8112 N   0  0  0  0  0  0  0  0  0  0  0  0
  -29.7468  -31.7999   21.0938 N   0  0  0  0  0  0  0  0  0  0  0  0
  -26.6737  -28.9317   18.9033 N   0  0  0  0  0  0  0  0  0  0  0  0
  -22.7707  -27.4367   20.6143 N   0  0  0  0  0  0  0  0  0  0  0  0
  -24.6006  -12.0116   20.7092 N   0  0  0  0  0  0  0  0  0  0  0  0
  -21.6841  -16.9777   20.0734 N   0  0  0  0  0  0  0  0  0  0  0  0
  -30.5673  -23.5603   19.1722 N   0  3  1  0  0  0  0  0  0  0  0  0
  -20.8495  -19.4859   22.5393 N   0  3  0  0  0  0  0  0  0  0  0  0
  -24.3991  -27.0236   19.0535 O   0  0  0  0  0  0  0  0  0  0  0  0
  -26.1834  -20.9803   19.6626 O   0  0  0  0  0  0  0  0  0  0  0  0
  -25.6582  -12.7562   18.7729 O   0  0  0  0  0  0  0  0  0  0  0  0
  -22.7704  -14.6634   20.7521 O   0  0  0  0  0  0  0  0  0  0  0  0
  -22.5884  -19.0934   20.3624 O   0  0  0  0  0  0  0  0  0  0  0  0
  -31.9744  -32.1517   20.6155 O   0  0  0  0  0  0  0  0  0  0  0  0
  -19.8866  -29.7725   24.7690 O   0  0  0  0  0  0  0  0  0  0  0  0
  -28.5773  -19.8682   20.0364 O   0  0  0  0  0  0  0  0  0  1  0  0
  -14.9829  -28.7896   22.4470 F   0  0  0  0  0  0  0  0  0  0  0  0
  -17.8435  -31.6278   24.9303 F   0  0  0  0  0  0  0  0  0  0  0  0
  1  2  1  0  0  0  0
  1  6  2  0  0  0  0
  2  7  2  0  0  0  0
  3 10  2  0  0  0  0
  3 18  1  0  0  0  0
  4 11  1  0  0  0  0
  4 18  2  0  0  0  0
  5  8  2  0  0  0  0
  5 19  1  0  0  0  0
  6 21  1  0  0  0  0
  7 24  1  0  0  0  0
  8 22  1  0  0  0  0
  9 12  2  0  0  0  0
  9 23  1  0  0  0  0
 10 27  1  0  0  0  0
 11 27  2  0  0  0  0
 12 28  1  0  0  0  0
 13 14  2  0  0  0  0
 13 29  1  0  0  0  0
 14 30  1  0  0  0  0
 15 19  2  0  0  0  0
 15 25  1  0  0  0  0
 16 26  1  0  0  0  0
 16 28  2  0  0  0  0
 17 30  2  0  0  0  0
 17 31  1  0  0  0  0
 18 32  1  0  0  0  0
 19 35  1  0  0  0  0
 20 32  1  0  0  0  0
 20 33  2  0  0  0  0
 20 37  1  0  0  0  0
 21 24  2  0  0  0  0
 21 43  1  0  0  0  0
 22 25  2  0  0  0  0
 22 44  1  0  0  0  0
 23 26  2  0  0  0  0
 23 45  1  0  0  0  0
 24 55  1  0  0  0  0
 25 47  1  0  0  0  0
 26 46  1  0  0  0  0
 27 86  1  0  0  0  0
 28 87  1  0  0  0  0
 29 31  2  0  0  0  0
 29 86  1  0  0  0  0
 30 88  1  0  0  0  0
 31 89  1  0  0  0  0
 32 69  2  0  0  0  0
 33 71  1  0  0  0  0
 33 74  1  0  0  0  0
 34 36  2  0  0  0  0
 35 70  2  0  0  0  0
 36 38  1  0  0  0  0
 37 75  1  0  0  0  0
 37 80  2  0  0  0  0
 38 65  1  0  0  0  0
 38 81  2  0  0  0  0
 39 56  1  0  0  0  0
 39 76  1  0  0  0  0
 39 82  2  0  0  0  0
 40 66  1  0  0  0  0
 40 72  1  0  0  0  0
 40 83  2  0  0  0  0
 41 67  1  0  0  0  0
 41 77  1  0  0  0  0
 41 84  2  0  0  0  0
 42 70  1  0  0  0  0
 42 73  1  0  0  0  0
 42 85  2  0  0  0  0
 43 48  1  0  0  0  0
 44 54  1  0  0  0  0
 45 56  1  0  0  0  0
 46 72  1  0  0  0  0
 47 78  1  0  0  0  0
 48 50  1  0  0  0  0
 49 51  1  0  0  0  0
 49 52  1  0  0  0  0
 50 55  1  0  0  0  0
 51 57  1  0  0  0  0
 52 73  1  0  0  0  0
 53 57  1  0  0  0  0
 53 73  1  0  0  0  0
 54 78  1  0  0  0  0
 55 76  1  0  0  0  0
 56 72  1  0  0  0  0
 57 71  1  0  0  0  0
 58 67  1  0  0  0  0
 59 68  1  0  0  0  0
 60 68  1  0  0  0  0
 61 68  1  0  0  0  0
 62 79  1  0  0  0  0
 63 64  1  0  0  0  0
 63 65  1  0  0  0  0
 64 78  1  0  0  0  0
 65 87  1  0  0  0  0
 66 68  1  0  0  0  0
 66 77  1  0  0  0  0
 67 79  1  0  0  0  0
 69 71  1  0  0  0  0
M  CHG  2  78   1  79   1
M  ISO  4  42 100  65 101  70 100  87 101
M  END
> <Batch ID>
0117

> <Smiles>
C=CC(=O)[101CH:1](CCN1CCc2ccc(C=[100N:0][100C:0](=O)N3CCCC(n4nc(-c5ccc(Oc6ccc(F)cc6F)cc5)c(C(N)=O)c4N)C3)cc2C1)[101O:1]c1ccc2c(c1)CN(C(=O)C(NC(=O)C(C)NC)C(C)(C)C)C(C(=O)NC1CCCc3ccccc31)C2

> <Shape>
0.264

> <Color>
0.056

> <Negative vol penalty>
0.000

$$$$

  -OEChem-04052301463D

 83 91  0     1  0  0  0  0  0999 V2000
  -19.6867  -34.0068   23.3104 C   0  0  0  0  0  0  0  0  0  0  0  0
  -21.0007  -33.7151   22.9585 C   0  0  0  0  0  0  0  0  0  0  0  0
  -27.3469  -12.3124   21.4517 C   0  0  0  0  0  0  0  0  0  0  0  0
  -27.2457  -13.1052   19.1717 C   0  0  0  0  0  0  0  0  0  0  0  0
  -18.8681  -33.0069   23.8338 C   0  0  0  0  0  0  0  0  0  0  0  0
  -21.4972  -32.4235   23.1308 C   0  0  0  0  0  0  0  0  0  0  0  0
  -25.5443  -29.5284   19.5607 C   0  0  0  0  0  0  0  0  0  0  0  0
  -26.5023  -11.2529   21.1208 C   0  0  0  0  0  0  0  0  0  0  0  0
  -26.4010  -12.0456   18.8408 C   0  0  0  0  0  0  0  0  0  0  0  0
  -26.9198  -29.3303   19.6718 C   0  0  0  0  0  0  0  0  0  0  0  0
  -24.0831   -8.5427   20.9589 C   0  0  0  0  0  0  0  0  0  0  0  0
  -23.0332   -8.2519   21.8299 C   0  0  0  0  0  0  0  0  0  0  0  0
  -26.5222  -27.1677   20.6640 C   0  0  0  0  0  0  0  0  0  0  0  0
  -29.1165  -23.5606   19.0784 C   0  0  0  0  0  0  0  0  0  0  0  0
  -29.5462  -21.6703   17.6366 C   0  0  0  0  0  0  0  0  0  0  0  0
  -31.2006  -23.4161   17.8649 C   0  0  0  0  0  0  0  0  0  0  0  0
  -22.1424  -10.4730   21.4977 C   0  0  0  0  0  0  0  0  0  0  0  0
  -27.7186  -13.2386   20.4772 C   0  0  0  0  0  0  0  0  0  0  0  0
  -29.9972  -14.3499   20.7614 C   0  0  0  0  0  0  0  0  0  0  0  0
  -19.3519  -31.7000   24.0036 C   0  0  0  0  0  0  0  0  0  0  0  0
  -24.6457  -28.5507   20.0113 C   0  0  0  0  0  0  0  0  0  0  0  0
  -20.6847  -31.4055   23.6582 C   0  0  0  0  0  0  0  0  0  0  0  0
  -25.1357  -27.3548   20.5552 C   0  0  0  0  0  0  0  0  0  0  0  0
  -28.7082  -22.3486   18.5217 C   0  0  0  0  0  0  0  0  0  0  0  0
  -30.3626  -24.0944   18.7500 C   0  0  0  0  0  0  0  0  0  0  0  0
  -30.7924  -22.2041   17.3081 C   0  0  0  0  0  0  0  0  0  0  0  0
  -26.0293  -11.1195   19.8154 C   0  0  0  0  0  0  0  0  0  0  0  0
  -27.4090  -28.1510   20.2261 C   0  0  0  0  0  0  0  0  0  0  0  0
  -24.1627   -9.7987   20.3573 C   0  0  0  0  0  0  0  0  0  0  0  0
  -22.0629   -9.2170   22.0993 C   0  0  0  0  0  0  0  0  0  0  0  0
  -23.1923  -10.7638   20.6267 C   0  0  0  0  0  0  0  0  0  0  0  0
  -28.5907  -14.3336   20.8185 C   0  0  0  0  0  0  0  0  0  0  0  0
  -30.3434  -15.6102   21.1834 C   0  0  0  0  0  0  0  0  0  0  0  0
  -30.4575  -26.3757   18.6422 C   0  0  0  0  0  0  0  0  0  0  0  0
  -30.9092  -13.3179   20.3626 C   0  0  0  0  0  0  0  0  0  0  0  0
  -22.3735  -28.4448   22.2316 C   0  0  0  0  0  0  0  0  0  0  0  0
  -21.8049  -25.5178   20.9544 C   0  0  0  0  0  0  0  0  0  0  0  0
  -22.9917  -22.8423   19.1994 C   0  0  0  0  0  0  0  0  0  0  0  0
  -27.4492  -20.8518   21.1742 C   0  0  0  0  0  0  0  0  0  0  0  0
  -18.4439  -30.6639   24.6173 C   0  0  0  0  0  0  0  0  0  0  0  0
  -23.1651  -28.7682   19.8599 C   0  0  0  0  0  0  0  0  0  0  0  0
  -24.2132  -26.2653   21.0352 C   0  0  0  0  0  0  0  0  0  0  0  0
  -18.9326  -29.2314   24.4186 C   0  0  0  0  0  0  0  0  0  0  0  0
  -28.8191  -19.1677   23.9962 C   0  0  0  0  0  0  0  0  0  0  0  0
  -20.4195  -29.1249   24.7419 C   0  0  0  0  0  0  0  0  0  0  0  0
  -29.0428  -17.7393   23.4967 C   0  0  0  0  0  0  0  0  0  0  0  0
  -27.5512  -19.7802   23.4053 C   0  0  0  0  0  0  0  0  0  0  0  0
  -27.6941  -18.3084   21.4337 C   0  0  0  0  0  0  0  0  0  0  0  0
  -21.2521  -30.0105   23.8070 C   0  0  1  0  0  0  0  0  0  0  0  0
  -22.3356  -27.9241   20.8227 C   0  0  1  0  0  0  0  0  0  0  0  0
  -28.9908  -17.6685   21.9586 C   0  0  2  0  0  0  0  0  0  0  0  0
  -22.3046  -20.5847   18.3458 C   0  0  0  0  0  0  0  0  0  0  0  0
  -22.0657  -24.3758   23.7718 C   0  0  0  0  0  0  0  0  0  0  0  0
  -22.3224  -22.1038   22.7519 C   0  0  0  0  0  0  0  0  0  0  0  0
  -20.2117  -23.3895   22.4139 C   0  0  0  0  0  0  0  0  0  0  0  0
  -23.4476  -23.6388   16.3858 C   0  0  0  0  0  0  0  0  0  0  0  0
  -27.3757  -21.7786   18.8732 C   0  0  0  0  0  0  0  0  0  0  0  0
  -30.8315  -27.7421   19.1511 C   0  0  0  0  0  0  0  0  0  0  0  0
  -29.5810  -28.5801   19.3577 C   0  0  0  0  0  0  0  0  0  1  0  0
  -22.3139  -24.1206   21.2146 C   0  0  1  0  0  0  0  0  0  0  0  0
  -22.4125  -22.0682   18.0290 C   0  0  2  0  0  0  0  0  0  0  0  0
  -21.7460  -23.5186   22.5309 C   0  0  0  0  0  0  0  0  0  0  0  0
  -28.0785  -15.4917   21.2434 N   0  0  0  0  0  0  0  0  0  0  0  0
  -30.7736  -25.3152   19.3110 N   0  0  0  0  0  0  0  0  0  0  0  0
  -29.1690  -16.2474   21.4573 N   0  0  0  0  0  0  0  0  0  0  0  0
  -22.7738  -26.5278   20.8716 N   0  0  0  0  0  0  0  0  0  0  0  0
  -27.5651  -19.6824   21.9437 N   0  0  0  0  0  0  0  0  0  0  0  0
  -31.6395  -21.5184   16.4129 N   0  0  0  0  0  0  0  0  0  0  0  0
  -31.5349  -16.2245   21.3434 N   0  0  0  0  0  0  0  0  0  0  0  0
  -30.3849  -12.0830   19.9572 N   0  0  0  0  0  0  0  0  0  0  0  0
  -21.3972  -29.3818   22.5116 N   0  0  0  0  0  0  0  0  0  0  0  0
  -22.0031  -23.3438   20.0194 N   0  0  0  0  0  0  0  0  0  0  0  0
  -27.4778  -20.6708   19.7968 N   0  0  0  0  0  0  0  0  0  0  0  0
  -23.2740  -22.2299   16.8238 N   0  3  0  0  0  0  0  0  0  0  0  0
  -32.1529  -13.4806   20.3812 O   0  0  0  0  0  0  0  0  0  0  0  0
  -23.2246  -28.0264   23.0077 O   0  0  0  0  0  0  0  0  0  0  0  0
  -20.5928  -25.7050   20.8221 O   0  0  0  0  0  0  0  0  0  0  0  0
  -24.2003  -22.9845   19.3712 O   0  0  0  0  0  0  0  0  0  0  0  0
  -27.3344  -21.9745   21.6774 O   0  0  0  0  0  0  0  0  0  0  0  0
  -25.2052  -10.0856   19.4921 O   0  0  0  0  0  0  0  0  0  0  0  0
  -28.7512  -27.9554   20.3362 O   0  0  0  0  0  0  0  0  0  1  0  0
  -21.0539   -8.9371   22.9346 F   0  0  0  0  0  0  0  0  0  0  0  0
  -23.2628  -11.9717   20.0508 F   0  0  0  0  0  0  0  0  0  0  0  0
  1  2  1  0  0  0  0
  1  5  2  0  0  0  0
  2  6  2  0  0  0  0
  3  8  2  0  0  0  0
  3 18  1  0  0  0  0
  4  9  1  0  0  0  0
  4 18  2  0  0  0  0
  5 20  1  0  0  0  0
  6 22  1  0  0  0  0
  7 10  2  0  0  0  0
  7 21  1  0  0  0  0
  8 27  1  0  0  0  0
  9 27  2  0  0  0  0
 10 28  1  0  0  0  0
 11 12  2  0  0  0  0
 11 29  1  0  0  0  0
 12 30  1  0  0  0  0
 13 23  1  0  0  0  0
 13 28  2  0  0  0  0
 14 24  1  0  0  0  0
 14 25  2  0  0  0  0
 15 24  2  0  0  0  0
 15 26  1  0  0  0  0
 16 25  1  0  0  0  0
 16 26  2  0  0  0  0
 17 30  2  0  0  0  0
 17 31  1  0  0  0  0
 18 32  1  0  0  0  0
 19 32  1  0  0  0  0
 19 33  2  0  0  0  0
 19 35  1  0  0  0  0
 20 22  2  0  0  0  0
 20 40  1  0  0  0  0
 21 23  2  0  0  0  0
 21 41  1  0  0  0  0
 22 49  1  0  0  0  0
 23 42  1  0  0  0  0
 24 57  1  0  0  0  0
 25 64  1  0  0  0  0
 26 68  1  0  0  0  0
 27 80  1  0  0  0  0
 28 81  1  0  0  0  0
 29 31  2  0  0  0  0
 29 80  1  0  0  0  0
 30 82  1  0  0  0  0
 31 83  1  0  0  0  0
 32 63  2  0  0  0  0
 33 65  1  0  0  0  0
 33 69  1  0  0  0  0
 34 58  1  0  0  0  0
 34 64  2  0  0  0  0
 35 70  1  0  0  0  0
 35 75  2  0  0  0  0
 36 50  1  0  0  0  0
 36 71  1  0  0  0  0
 36 76  2  0  0  0  0
 37 60  1  0  0  0  0
 37 66  1  0  0  0  0
 37 77  2  0  0  0  0
 38 61  1  0  0  0  0
 38 72  1  0  0  0  0
 38 78  2  0  0  0  0
 39 67  1  0  0  0  0
 39 73  1  0  0  0  0
 39 79  2  0  0  0  0
 40 43  1  0  0  0  0
 41 50  1  0  0  0  0
 42 66  1  0  0  0  0
 43 45  1  0  0  0  0
 44 46  1  0  0  0  0
 44 47  1  0  0  0  0
 45 49  1  0  0  0  0
 46 51  1  0  0  0  0
 47 67  1  0  0  0  0
 48 51  1  0  0  0  0
 48 67  1  0  0  0  0
 49 71  1  0  0  0  0
 50 66  1  0  0  0  0
 51 65  1  0  0  0  0
 52 61  1  0  0  0  0
 53 62  1  0  0  0  0
 54 62  1  0  0  0  0
 55 62  1  0  0  0  0
 56 74  1  0  0  0  0
 57 73  1  0  0  0  0
 58 59  1  0  0  0  0
 59 81  1  0  0  0  0
 60 62  1  0  0  0  0
 60 72  1  0  0  0  0
 61 74  1  0  0  0  0
 63 65  1  0  0  0  0
M  CHG  1  74   1
M  ISO  4  39 100  59 101  73 100  81 101
M  END
> <Batch ID>
0117

> <Smiles>
CNC(C)C(=O)NC(C(=O)N1Cc2cc([101O:1][101CH2:1]C=CNc3cc(N)cc(C[100NH:0][100C:0](=O)N4CCCC(n5nc(-c6ccc(Oc7ccc(F)cc7F)cc6)c(C(N)=O)c5N)C4)c3)ccc2CC1C(=O)NC1CCCc2ccccc21)C(C)(C)C

> <Shape>
0.261

> <Color>
0.092

> <Negative vol penalty>
0.000

$$$$

  -OEChem-04052301463D

 83 91  0     1  0  0  0  0  0999 V2000
  -22.3681  -19.3766   21.1189 C   0  0  0  0  0  0  0  0  0  0  0  0
  -23.6512  -19.8043   21.4448 C   0  0  0  0  0  0  0  0  0  0  0  0
  -23.3635   -9.8166   21.6519 C   0  0  0  0  0  0  0  0  0  0  0  0
  -23.9856  -10.9561   23.6894 C   0  0  0  0  0  0  0  0  0  0  0  0
  -21.4371  -20.2864   20.6195 C   0  0  0  0  0  0  0  0  0  0  0  0
  -24.0043  -21.1420   21.2705 C   0  0  0  0  0  0  0  0  0  0  0  0
  -26.5496  -23.0113   25.2292 C   0  0  0  0  0  0  0  0  0  0  0  0
  -22.7018   -8.8420   22.3989 C   0  0  0  0  0  0  0  0  0  0  0  0
  -23.3238   -9.9816   24.4365 C   0  0  0  0  0  0  0  0  0  0  0  0
  -27.8989  -22.6764   25.3344 C   0  0  0  0  0  0  0  0  0  0  0  0
  -23.9138   -6.8242   25.4919 C   0  0  0  0  0  0  0  0  0  0  0  0
  -24.5672   -6.3123   26.6129 C   0  0  0  0  0  0  0  0  0  0  0  0
  -28.4974  -24.8217   24.4078 C   0  0  0  0  0  0  0  0  0  0  0  0
  -29.3336  -18.6536   21.0487 C   0  0  0  0  0  0  0  0  0  0  0  0
  -31.6100  -17.8498   20.9533 C   0  0  0  0  0  0  0  0  0  0  0  0
  -22.7609   -7.0854   28.0188 C   0  0  0  0  0  0  0  0  0  0  0  0
  -24.0054  -10.8736   22.2971 C   0  0  0  0  0  0  0  0  0  0  0  0
  -24.1488  -13.0781   21.0215 C   0  0  0  0  0  0  0  0  0  0  0  0
  -21.7760  -21.6378   20.4481 C   0  0  0  0  0  0  0  0  0  0  0  0
  -26.1632  -24.2518   24.7016 C   0  0  0  0  0  0  0  0  0  0  0  0
  -23.0773  -22.0704   20.7670 C   0  0  0  0  0  0  0  0  0  0  0  0
  -27.1427  -25.1710   24.2994 C   0  0  0  0  0  0  0  0  0  0  0  0
  -29.7935  -19.9087   21.4473 C   0  0  0  0  0  0  0  0  0  0  0  0
  -32.0699  -19.1050   21.3519 C   0  0  0  0  0  0  0  0  0  0  0  0
  -31.1616  -20.1344   21.5989 C   0  0  0  0  0  0  0  0  0  0  0  0
  -30.2419  -17.6241   20.8017 C   0  0  0  0  0  0  0  0  0  0  0  0
  -22.6820   -8.9245   23.7912 C   0  0  0  0  0  0  0  0  0  0  0  0
  -28.8730  -23.5804   24.9210 C   0  0  0  0  0  0  0  0  0  0  0  0
  -22.6840   -7.4669   25.6344 C   0  0  0  0  0  0  0  0  0  0  0  0
  -23.9908   -6.4429   27.8763 C   0  0  0  0  0  0  0  0  0  0  0  0
  -22.1075   -7.5974   26.8978 C   0  0  0  0  0  0  0  0  0  0  0  0
  -24.6896  -11.8803   21.5261 C   0  0  0  0  0  0  0  0  0  0  0  0
  -25.1962  -13.6788   20.3668 C   0  0  0  0  0  0  0  0  0  0  0  0
  -31.7413  -21.5750   23.2762 C   0  0  0  0  0  0  0  0  0  0  0  0
  -22.8186  -13.6011   21.1346 C   0  0  0  0  0  0  0  0  0  0  0  0
  -24.4740  -25.1873   22.1767 C   0  0  0  0  0  0  0  0  0  0  0  0
  -24.8442  -28.1232   23.5057 C   0  0  0  0  0  0  0  0  0  0  0  0
  -26.6510  -30.1691   25.5542 C   0  0  0  0  0  0  0  0  0  0  0  0
  -30.5407  -15.2196   20.1122 C   0  0  0  0  0  0  0  0  0  0  0  0
  -20.7503  -22.5745   19.8605 C   0  0  0  0  0  0  0  0  0  0  0  0
  -24.7043  -24.6085   24.6197 C   0  0  0  0  0  0  0  0  0  0  0  0
  -26.7807  -26.5237   23.7449 C   0  0  0  0  0  0  0  0  0  0  0  0
  -21.0888  -24.0498   20.0581 C   0  0  0  0  0  0  0  0  0  0  0  0
  -29.7645  -11.8887   19.1225 C   0  0  0  0  0  0  0  0  0  0  0  0
  -22.5487  -24.3146   19.7041 C   0  0  0  0  0  0  0  0  0  0  0  0
  -28.3305  -11.6881   19.6181 C   0  0  0  0  0  0  0  0  0  0  0  0
  -30.5866  -12.7352   20.0927 C   0  0  0  0  0  0  0  0  0  0  0  0
  -28.5503  -13.8236   20.9517 C   0  0  0  0  0  0  0  0  0  0  0  0
  -23.4905  -23.5183   20.6153 C   0  0  1  0  0  0  0  0  0  0  0  0
  -24.4118  -25.6951   23.5895 C   0  0  1  0  0  0  0  0  0  0  0  0
  -27.6648  -13.0314   19.9759 C   0  0  2  0  0  0  0  0  0  0  0  0
  -28.7999  -20.9937   21.7068 C   0  0  0  0  0  0  0  0  0  0  0  0
  -33.5400  -19.3213   21.5075 C   0  0  0  0  0  0  0  0  0  0  0  0
  -26.7300  -32.5260   26.4123 C   0  0  0  0  0  0  0  0  0  0  0  0
  -25.9516  -29.0608   20.8215 C   0  0  0  0  0  0  0  0  0  0  0  0
  -26.8729  -31.0772   21.9849 C   0  0  0  0  0  0  0  0  0  0  0  0
  -24.4102  -30.6830   21.9382 C   0  0  0  0  0  0  0  0  0  0  0  0
  -26.3285  -29.2818   28.3591 C   0  0  0  0  0  0  0  0  0  0  0  0
  -32.2422  -22.8837   23.8259 C   0  0  0  0  0  0  0  0  0  0  0  0
  -31.0763  -23.8292   24.0611 C   0  0  0  0  0  0  0  0  0  1  0  0
  -25.8715  -29.2240   23.3970 C   0  0  1  0  0  0  0  0  0  0  0  0
  -26.2258  -31.1135   26.6641 C   0  0  2  0  0  0  0  0  0  0  0  0
  -25.7836  -29.9851   22.0440 C   0  0  0  0  0  0  0  0  0  0  0  0
  -25.9803  -11.7273   21.2182 N   0  0  0  0  0  0  0  0  0  0  0  0
  -31.6251  -21.3984   22.0006 N   0  0  0  0  0  0  0  0  0  0  0  0
  -26.2592  -12.8369   20.5130 N   0  0  0  0  0  0  0  0  0  0  0  0
  -25.3408  -26.8235   23.6789 N   0  0  0  0  0  0  0  0  0  0  0  0
  -29.8962  -13.9939   20.3821 N   0  0  0  0  0  0  0  0  0  0  0  0
  -25.3024  -14.8397   19.6860 N   0  0  0  0  0  0  0  0  0  0  0  0
  -21.8654  -12.8555   21.8417 N   0  0  0  0  0  0  0  0  0  0  0  0
  -29.7743  -16.3492   20.3974 N   0  0  0  0  0  0  0  0  0  0  0  0
  -23.5964  -24.1534   21.9114 N   0  0  0  0  0  0  0  0  0  0  0  0
  -25.6889  -30.0701   24.5714 N   0  0  0  0  0  0  0  0  0  0  0  0
  -26.7639  -30.6489   27.9739 N   0  3  0  0  0  0  0  0  0  0  0  0
  -22.4809  -14.6892   20.6098 O   0  0  0  0  0  0  0  0  0  0  0  0
  -25.2588  -25.6969   21.3855 O   0  0  0  0  0  0  0  0  0  0  0  0
  -23.6452  -28.4069   23.4464 O   0  0  0  0  0  0  0  0  0  0  0  0
  -27.7303  -29.5812   25.5568 O   0  0  0  0  0  0  0  0  0  0  0  0
  -31.6778  -15.2638   19.6357 O   0  0  0  0  0  0  0  0  0  0  0  0
  -22.0362   -7.9739   24.5204 O   0  0  0  0  0  0  0  0  0  0  0  0
  -30.1906  -23.2557   25.0219 O   0  0  0  0  0  0  0  0  0  1  0  0
  -24.6176   -5.9498   28.9525 F   0  0  0  0  0  0  0  0  0  0  0  0
  -20.9257   -8.2127   27.0408 F   0  0  0  0  0  0  0  0  0  0  0  0
  1  2  1  0  0  0  0
  1  5  2  0  0  0  0
  2  6  2  0  0  0  0
  3  8  2  0  0  0  0
  3 17  1  0  0  0  0
  4  9  1  0  0  0  0
  4 17  2  0  0  0  0
  5 19  1  0  0  0  0
  6 21  1  0  0  0  0
  7 10  2  0  0  0  0
  7 20  1  0  0  0  0
  8 27  1  0  0  0  0
  9 27  2  0  0  0  0
 10 28  1  0  0  0  0
 11 12  2  0  0  0  0
 11 29  1  0  0  0  0
 12 30  1  0  0  0  0
 13 22  1  0  0  0  0
 13 28  2  0  0  0  0
 14 23  2  0  0  0  0
 14 26  1  0  0  0  0
 15 24  1  0  0  0  0
 15 26  2  0  0  0  0
 16 30  2  0  0  0  0
 16 31  1  0  0  0  0
 17 32  1  0  0  0  0
 18 32  1  0  0  0  0
 18 33  2  0  0  0  0
 18 35  1  0  0  0  0
 19 21  2  0  0  0  0
 19 40  1  0  0  0  0
 20 22  2  0  0  0  0
 20 41  1  0  0  0  0
 21 49  1  0  0  0  0
 22 42  1  0  0  0  0
 23 25  1  0  0  0  0
 23 52  1  0  0  0  0
 24 25  2  0  0  0  0
 24 53  1  0  0  0  0
 25 65  1  0  0  0  0
 26 71  1  0  0  0  0
 27 80  1  0  0  0  0
 28 81  1  0  0  0  0
 29 31  2  0  0  0  0
 29 80  1  0  0  0  0
 30 82  1  0  0  0  0
 31 83  1  0  0  0  0
 32 64  2  0  0  0  0
 33 66  1  0  0  0  0
 33 69  1  0  0  0  0
 34 59  1  0  0  0  0
 34 65  2  0  0  0  0
 35 70  1  0  0  0  0
 35 75  2  0  0  0  0
 36 50  1  0  0  0  0
 36 72  1  0  0  0  0
 36 76  2  0  0  0  0
 37 61  1  0  0  0  0
 37 67  1  0  0  0  0
 37 77  2  0  0  0  0
 38 62  1  0  0  0  0
 38 73  1  0  0  0  0
 38 78  2  0  0  0  0
 39 68  1  0  0  0  0
 39 71  1  0  0  0  0
 39 79  2  0  0  0  0
 40 43  1  0  0  0  0
 41 50  1  0  0  0  0
 42 67  1  0  0  0  0
 43 45  1  0  0  0  0
 44 46  1  0  0  0  0
 44 47  1  0  0  0  0
 45 49  1  0  0  0  0
 46 51  1  0  0  0  0
 47 68  1  0  0  0  0
 48 51  1  0  0  0  0
 48 68  1  0  0  0  0
 49 72  1  0  0  0  0
 50 67  1  0  0  0  0
 51 66  1  0  0  0  0
 54 62  1  0  0  0  0
 55 63  1  0  0  0  0
 56 63  1  0  0  0  0
 57 63  1  0  0  0  0
 58 74  1  0  0  0  0
 59 60  1  0  0  0  0
 60 81  1  0  0  0  0
 61 63  1  0  0  0  0
 61 73  1  0  0  0  0
 62 74  1  0  0  0  0
 64 66  1  0  0  0  0
M  CHG  1  74   1
M  ISO  4  39 100  60 101  71 100  81 101
M  END
> <Batch ID>
0117

> <Smiles>
CNC(C)C(=O)NC(C(=O)N1Cc2cc([101O:1][101CH2:1]C=CNc3c(C)cc([100NH:0][100C:0](=O)N4CCCC(n5nc(-c6ccc(Oc7ccc(F)cc7F)cc6)c(C(N)=O)c5N)C4)cc3C)ccc2CC1C(=O)NC1CCCc2ccccc21)C(C)(C)C

> <Shape>
0.194

> <Color>
0.140

> <Negative vol penalty>
0.000

$$$$

  -OEChem-04052301463D

 85 93  0     1  0  0  0  0  0999 V2000
  -27.1175  -30.2569   30.5393 C   0  0  0  0  0  0  0  0  0  0  0  0
  -27.4549  -29.5908   29.3654 C   0  0  0  0  0  0  0  0  0  0  0  0
  -23.3851   -9.6492   19.8987 C   0  0  0  0  0  0  0  0  0  0  0  0
  -23.9482   -9.8237   22.2417 C   0  0  0  0  0  0  0  0  0  0  0  0
  -26.2905  -31.3782   30.4901 C   0  0  0  0  0  0  0  0  0  0  0  0
  -26.9644  -30.0452   28.1417 C   0  0  0  0  0  0  0  0  0  0  0  0
  -30.5240  -30.1528   24.5413 C   0  0  0  0  0  0  0  0  0  0  0  0
  -22.7558   -8.4282   20.1409 C   0  0  0  0  0  0  0  0  0  0  0  0
  -23.3189   -8.6027   22.4839 C   0  0  0  0  0  0  0  0  0  0  0  0
  -30.8643  -28.9389   23.9459 C   0  0  0  0  0  0  0  0  0  0  0  0
  -20.1606   -7.4633   22.8683 C   0  0  0  0  0  0  0  0  0  0  0  0
  -19.3190   -7.3785   23.9774 C   0  0  0  0  0  0  0  0  0  0  0  0
  -31.1276  -18.1356   21.8639 C   0  0  0  0  0  0  0  0  0  0  0  0
  -29.4628  -29.4787   22.0582 C   0  0  0  0  0  0  0  0  0  0  0  0
  -28.9402  -18.3396   22.8693 C   0  0  0  0  0  0  0  0  0  0  0  0
  -20.7029   -5.6227   24.8933 C   0  0  0  0  0  0  0  0  0  0  0  0
  -23.9814  -10.3469   20.9491 C   0  0  0  0  0  0  0  0  0  0  0  0
  -31.4465  -19.4227   22.2965 C   0  0  0  0  0  0  0  0  0  0  0  0
  -24.0496  -12.8888   20.7442 C   0  0  0  0  0  0  0  0  0  0  0  0
  -25.7975  -31.8523   29.2642 C   0  0  0  0  0  0  0  0  0  0  0  0
  -29.6404  -31.0354   23.9034 C   0  0  0  0  0  0  0  0  0  0  0  0
  -26.1289  -31.1732   28.0762 C   0  0  0  0  0  0  0  0  0  0  0  0
  -29.1148  -30.7042   22.6464 C   0  0  0  0  0  0  0  0  0  0  0  0
  -29.8744  -17.5940   22.1502 C   0  0  0  0  0  0  0  0  0  0  0  0
  -29.2592  -19.6267   23.3020 C   0  0  0  0  0  0  0  0  0  0  0  0
  -22.7226   -7.9049   21.4335 C   0  0  0  0  0  0  0  0  0  0  0  0
  -30.3315  -28.6004   22.7055 C   0  0  0  0  0  0  0  0  0  0  0  0
  -21.2734   -6.6277   22.7717 C   0  0  0  0  0  0  0  0  0  0  0  0
  -30.5124  -20.1682   23.0156 C   0  0  0  0  0  0  0  0  0  0  0  0
  -19.5902   -6.4582   24.9899 C   0  0  0  0  0  0  0  0  0  0  0  0
  -21.5445   -5.7074   23.7842 C   0  0  0  0  0  0  0  0  0  0  0  0
  -24.6322  -11.6080   20.6994 C   0  0  0  0  0  0  0  0  0  0  0  0
  -25.0780  -13.7448   20.4341 C   0  0  0  0  0  0  0  0  0  0  0  0
  -33.2015  -20.1582   20.7491 C   0  0  0  0  0  0  0  0  0  0  0  0
  -32.7626  -19.9640   21.9836 C   0  0  0  0  0  0  0  0  0  0  0  0
  -22.6996  -13.2706   21.0398 C   0  0  0  0  0  0  0  0  0  0  0  0
  -26.7859  -32.2467   24.6022 C   0  0  0  0  0  0  0  0  0  0  0  0
  -27.3014  -33.9918   21.9168 C   0  0  0  0  0  0  0  0  0  0  0  0
  -28.9049  -34.2905   18.9191 C   0  0  0  0  0  0  0  0  0  0  0  0
  -30.3614  -15.4132   20.9869 C   0  0  0  0  0  0  0  0  0  0  0  0
  -24.8684  -33.0403   29.2660 C   0  0  0  0  0  0  0  0  0  0  0  0
  -29.3042  -32.3528   24.5466 C   0  0  0  0  0  0  0  0  0  0  0  0
  -28.1778  -31.6259   21.9108 C   0  0  0  0  0  0  0  0  0  0  0  0
  -24.6947  -33.6798   27.8908 C   0  0  0  0  0  0  0  0  0  0  0  0
  -29.7204  -12.8059   18.6485 C   0  0  0  0  0  0  0  0  0  0  0  0
  -24.4456  -32.6101   26.8323 C   0  0  0  0  0  0  0  0  0  0  0  0
  -28.2915  -12.3672   18.9773 C   0  0  0  0  0  0  0  0  0  0  0  0
  -30.5024  -13.1799   19.9064 C   0  0  0  0  0  0  0  0  0  0  0  0
  -28.4197  -13.7302   21.1016 C   0  0  0  0  0  0  0  0  0  0  0  0
  -25.6368  -31.6502   26.7270 C   0  0  1  0  0  0  0  0  0  0  0  0
  -27.9922  -32.9462   24.0426 C   0  0  1  0  0  0  0  0  0  0  0  0
  -27.5724  -13.4055   19.8606 C   0  0  2  0  0  0  0  0  0  0  0  0
  -29.0951  -35.8078   16.9294 C   0  0  0  0  0  0  0  0  0  0  0  0
  -24.6029  -32.9937   20.9008 C   0  0  0  0  0  0  0  0  0  0  0  0
  -25.2703  -33.7381   18.6055 C   0  0  0  0  0  0  0  0  0  0  0  0
  -25.0605  -35.4098   20.4451 C   0  0  0  0  0  0  0  0  0  0  0  0
  -31.7919  -34.7391   19.3913 C   0  0  0  0  0  0  0  0  0  0  0  0
  -30.6122  -25.0095   22.3156 C   0  0  0  0  0  0  0  0  0  0  0  0
  -30.9041  -23.8165   23.2191 C   0  0  0  0  0  0  0  0  0  0  0  0
  -30.9673  -26.3268   22.9924 C   0  0  0  0  0  0  0  0  0  1  0  0
  -30.5096  -22.5024   22.5600 C   0  0  0  0  0  0  0  0  0  0  0  0
  -27.0124  -33.8029   20.4472 C   0  0  1  0  0  0  0  0  0  0  0  0
  -29.6631  -35.4471   18.2932 C   0  0  2  0  0  0  0  0  0  0  0  0
  -25.5026  -33.9677   20.1141 C   0  0  0  0  0  0  0  0  0  0  0  0
  -25.9299  -11.6425   20.3855 N   0  0  0  0  0  0  0  0  0  0  0  0
  -26.1713  -12.9554   20.2301 N   0  0  0  0  0  0  0  0  0  0  0  0
  -27.8743  -32.8997   22.5838 N   0  0  0  0  0  0  0  0  0  0  0  0
  -29.7622  -14.1705   20.6910 N   0  0  0  0  0  0  0  0  0  0  0  0
  -28.3026  -20.3688   24.0290 N   0  0  0  0  0  0  0  0  0  0  0  0
  -25.1446  -15.0882   20.3188 N   0  0  0  0  0  0  0  0  0  0  0  0
  -21.7705  -12.2643   21.3373 N   0  0  0  0  0  0  0  0  0  0  0  0
  -29.5502  -16.2865   21.7107 N   0  0  0  0  0  0  0  0  0  0  0  0
  -26.7156  -32.2633   25.9822 N   0  0  0  0  0  0  0  0  0  0  0  0
  -27.8858  -34.7308   19.7369 N   0  0  0  0  0  0  0  0  0  0  0  0
  -31.1010  -35.0932   18.1247 N   0  3  0  0  0  0  0  0  0  0  0  0
  -22.3243  -14.4675   21.0240 O   0  0  0  0  0  0  0  0  0  0  0  0
  -25.9779  -31.7314   23.8385 O   0  0  0  0  0  0  0  0  0  0  0  0
  -27.0354  -35.0711   22.4516 O   0  0  0  0  0  0  0  0  0  0  0  0
  -29.1860  -33.1140   18.7012 O   0  0  0  0  0  0  0  0  0  0  0  0
  -31.4994  -15.6931   20.6015 O   0  0  0  0  0  0  0  0  0  0  0  0
  -22.1084   -6.7136   21.6703 O   0  0  0  0  0  0  0  0  0  0  0  0
  -30.6615  -27.4159   22.1225 O   0  0  0  0  0  0  0  0  0  1  0  0
  -30.8196  -21.4337   23.4436 O   0  0  0  0  0  0  0  0  0  0  0  0
  -18.7828   -6.3780   26.0557 F   0  0  0  0  0  0  0  0  0  0  0  0
  -22.6127   -4.9029   23.6975 F   0  0  0  0  0  0  0  0  0  0  0  0
  1  2  1  0  0  0  0
  1  5  2  0  0  0  0
  2  6  2  0  0  0  0
  3  8  2  0  0  0  0
  3 17  1  0  0  0  0
  4  9  1  0  0  0  0
  4 17  2  0  0  0  0
  5 20  1  0  0  0  0
  6 22  1  0  0  0  0
  7 10  2  0  0  0  0
  7 21  1  0  0  0  0
  8 26  1  0  0  0  0
  9 26  2  0  0  0  0
 10 27  1  0  0  0  0
 11 12  2  0  0  0  0
 11 28  1  0  0  0  0
 12 30  1  0  0  0  0
 13 18  1  0  0  0  0
 13 24  2  0  0  0  0
 14 23  1  0  0  0  0
 14 27  2  0  0  0  0
 15 24  1  0  0  0  0
 15 25  2  0  0  0  0
 16 30  2  0  0  0  0
 16 31  1  0  0  0  0
 17 32  1  0  0  0  0
 18 29  2  0  0  0  0
 18 35  1  0  0  0  0
 19 32  1  0  0  0  0
 19 33  2  0  0  0  0
 19 36  1  0  0  0  0
 20 22  2  0  0  0  0
 20 41  1  0  0  0  0
 21 23  2  0  0  0  0
 21 42  1  0  0  0  0
 22 50  1  0  0  0  0
 23 43  1  0  0  0  0
 24 72  1  0  0  0  0
 25 29  1  0  0  0  0
 25 69  1  0  0  0  0
 26 81  1  0  0  0  0
 27 82  1  0  0  0  0
 28 31  2  0  0  0  0
 28 81  1  0  0  0  0
 29 83  1  0  0  0  0
 30 84  1  0  0  0  0
 31 85  1  0  0  0  0
 32 65  2  0  0  0  0
 33 66  1  0  0  0  0
 33 70  1  0  0  0  0
 34 35  2  0  0  0  0
 36 71  1  0  0  0  0
 36 76  2  0  0  0  0
 37 51  1  0  0  0  0
 37 73  1  0  0  0  0
 37 77  2  0  0  0  0
 38 62  1  0  0  0  0
 38 67  1  0  0  0  0
 38 78  2  0  0  0  0
 39 63  1  0  0  0  0
 39 74  1  0  0  0  0
 39 79  2  0  0  0  0
 40 68  1  0  0  0  0
 40 72  1  0  0  0  0
 40 80  2  0  0  0  0
 41 44  1  0  0  0  0
 42 51  1  0  0  0  0
 43 67  1  0  0  0  0
 44 46  1  0  0  0  0
 45 47  1  0  0  0  0
 45 48  1  0  0  0  0
 46 50  1  0  0  0  0
 47 52  1  0  0  0  0
 48 68  1  0  0  0  0
 49 52  1  0  0  0  0
 49 68  1  0  0  0  0
 50 73  1  0  0  0  0
 51 67  1  0  0  0  0
 52 66  1  0  0  0  0
 53 63  1  0  0  0  0
 54 64  1  0  0  0  0
 55 64  1  0  0  0  0
 56 64  1  0  0  0  0
 57 75  1  0  0  0  0
 58 59  1  0  0  0  0
 58 60  1  0  0  0  0
 59 61  1  0  0  0  0
 60 82  1  0  0  0  0
 61 83  1  0  0  0  0
 62 64  1  0  0  0  0
 62 74  1  0  0  0  0
 63 75  1  0  0  0  0
 65 66  1  0  0  0  0
M  CHG  1  75   1
M  ISO  4  40 100  60 101  72 100  82 101
M  END
> <Batch ID>
0117

> <Smiles>
C=Cc1cc([100NH:0][100C:0](=O)N2CCCC(n3nc(-c4ccc(Oc5ccc(F)cc5F)cc4)c(C(N)=O)c3N)C2)cc(N)c1OCCC[101CH2:1][101O:1]c1ccc2c(c1)CN(C(=O)C(NC(=O)C(C)NC)C(C)(C)C)C(C(=O)NC1CCCc3ccccc31)C2

> <Shape>
0.234

> <Color>
0.173

> <Negative vol penalty>
0.000

$$$$

  -OEChem-04052301463D

 83 91  0     1  0  0  0  0  0999 V2000
  -31.6709  -32.7446   25.6128 C   0  0  0  0  0  0  0  0  0  0  0  0
  -31.3896  -31.7374   24.6953 C   0  0  0  0  0  0  0  0  0  0  0  0
  -24.5961   -8.8484   21.9079 C   0  0  0  0  0  0  0  0  0  0  0  0
  -23.0924   -9.6334   20.1876 C   0  0  0  0  0  0  0  0  0  0  0  0
  -30.6847  -33.1727   26.5005 C   0  0  0  0  0  0  0  0  0  0  0  0
  -30.1221  -31.1568   24.6659 C   0  0  0  0  0  0  0  0  0  0  0  0
  -27.1171  -29.1254   19.7313 C   0  0  0  0  0  0  0  0  0  0  0  0
  -23.5518   -8.1338   22.4947 C   0  0  0  0  0  0  0  0  0  0  0  0
  -22.0480   -8.9189   20.7744 C   0  0  0  0  0  0  0  0  0  0  0  0
  -26.9577  -27.8510   19.1889 C   0  0  0  0  0  0  0  0  0  0  0  0
  -21.9192   -5.2209   21.9632 C   0  0  0  0  0  0  0  0  0  0  0  0
  -22.1760   -3.9101   22.3649 C   0  0  0  0  0  0  0  0  0  0  0  0
  -24.8484  -27.6321   20.3387 C   0  0  0  0  0  0  0  0  0  0  0  0
  -23.9798  -17.1558   16.8262 C   0  0  0  0  0  0  0  0  0  0  0  0
  -23.9054  -19.3987   15.9504 C   0  0  0  0  0  0  0  0  0  0  0  0
  -21.6218   -4.4992   24.6416 C   0  0  0  0  0  0  0  0  0  0  0  0
  -24.3664   -9.5982   20.7543 C   0  0  0  0  0  0  0  0  0  0  0  0
  -26.3372   -9.8810   19.1595 C   0  0  0  0  0  0  0  0  0  0  0  0
  -29.4016  -32.6038   26.4754 C   0  0  0  0  0  0  0  0  0  0  0  0
  -26.1469  -29.6593   20.5916 C   0  0  0  0  0  0  0  0  0  0  0  0
  -29.1182  -31.5768   25.5550 C   0  0  0  0  0  0  0  0  0  0  0  0
  -24.9966  -28.9146   20.8887 C   0  0  0  0  0  0  0  0  0  0  0  0
  -23.4486  -18.0843   15.9362 C   0  0  0  0  0  0  0  0  0  0  0  0
  -22.2777   -8.1691   21.9280 C   0  0  0  0  0  0  0  0  0  0  0  0
  -25.8246  -27.1030   19.4949 C   0  0  0  0  0  0  0  0  0  0  0  0
  -21.5138   -6.1710   22.9007 C   0  0  0  0  0  0  0  0  0  0  0  0
  -22.0272   -3.5492   23.7041 C   0  0  0  0  0  0  0  0  0  0  0  0
  -21.3650   -5.8101   24.2398 C   0  0  0  0  0  0  0  0  0  0  0  0
  -25.4447  -10.3370   20.1480 C   0  0  0  0  0  0  0  0  0  0  0  0
  -27.1646  -10.9516   18.9236 C   0  0  0  0  0  0  0  0  0  0  0  0
  -24.9622  -17.5684   17.7151 C   0  0  0  0  0  0  0  0  0  0  0  0
  -24.8895  -19.7546   16.8615 C   0  0  0  0  0  0  0  0  0  0  0  0
  -26.5389  -23.6578   18.7799 C   0  0  0  0  0  0  0  0  0  0  0  0
  -26.6840  -22.8006   17.7589 C   0  0  0  0  0  0  0  0  0  0  0  0
  -26.4117   -8.6038   18.5122 C   0  0  0  0  0  0  0  0  0  0  0  0
  -26.1189  -30.6153   23.6230 C   0  0  0  0  0  0  0  0  0  0  0  0
  -23.1097  -31.5758   22.8850 C   0  0  0  0  0  0  0  0  0  0  0  0
  -20.3641  -31.2249   20.8887 C   0  0  0  0  0  0  0  0  0  0  0  0
  -26.4934  -16.8525   19.5831 C   0  0  0  0  0  0  0  0  0  0  0  0
  -28.3824  -33.0666   27.4863 C   0  0  0  0  0  0  0  0  0  0  0  0
  -26.3210  -31.0462   21.1472 C   0  0  0  0  0  0  0  0  0  0  0  0
  -23.9161  -29.4503   21.7908 C   0  0  0  0  0  0  0  0  0  0  0  0
  -26.9524  -32.6603   27.1393 C   0  0  0  0  0  0  0  0  0  0  0  0
  -28.9985  -14.8137   21.0814 C   0  0  0  0  0  0  0  0  0  0  0  0
  -26.8995  -31.1924   26.7277 C   0  0  0  0  0  0  0  0  0  0  0  0
  -28.4555  -13.3923   20.9167 C   0  0  0  0  0  0  0  0  0  0  0  0
  -27.8826  -15.8178   21.3648 C   0  0  0  0  0  0  0  0  0  0  0  0
  -26.2300  -14.3793   20.2384 C   0  0  0  0  0  0  0  0  0  0  0  0
  -27.7478  -30.9396   25.4756 C   0  0  1  0  0  0  0  0  0  0  0  0
  -25.5158  -31.2851   22.4207 C   0  0  1  0  0  0  0  0  0  0  0  0
  -27.3096  -13.3426   19.8871 C   0  0  2  0  0  0  0  0  0  0  0  0
  -18.0451  -32.1231   20.5526 C   0  0  0  0  0  0  0  0  0  0  0  0
  -22.1410  -29.9686   25.2910 C   0  0  0  0  0  0  0  0  0  0  0  0
  -19.8197  -30.1119   24.3641 C   0  0  0  0  0  0  0  0  0  0  0  0
  -21.0342  -32.1933   25.0086 C   0  0  0  0  0  0  0  0  0  0  0  0
  -21.0048  -32.1818   18.1624 C   0  0  0  0  0  0  0  0  0  0  0  0
  -26.8531  -25.1154   18.6901 C   0  0  0  0  0  0  0  0  0  1  0  0
  -26.3589  -21.3451   17.8450 C   0  0  0  0  0  0  0  0  0  0  0  0
  -21.7422  -30.9379   22.9314 C   0  0  1  0  0  0  0  0  0  0  0  0
  -19.5096  -32.2478   20.1621 C   0  0  2  0  0  0  0  0  0  0  0  0
  -21.2054  -30.7918   24.3833 C   0  0  0  0  0  0  0  0  0  0  0  0
  -25.6828  -11.5990   20.5151 N   0  0  0  0  0  0  0  0  0  0  0  0
  -26.7344  -11.9450   19.7532 N   0  0  0  0  0  0  0  0  0  0  0  0
  -25.3838  -18.8403   17.7074 N   0  3  0  0  0  0  0  0  0  0  0  0
  -24.1352  -30.8088   22.3143 N   0  0  0  0  0  0  0  0  0  0  0  0
  -26.8348  -15.7162   20.3466 N   0  0  0  0  0  0  0  0  0  0  0  0
  -22.4481  -17.6941   15.0225 N   0  0  0  0  0  0  0  0  0  0  0  0
  -28.2110  -11.1308   18.0897 N   0  0  0  0  0  0  0  0  0  0  0  0
  -25.4845   -7.6167   18.8732 N   0  0  0  0  0  0  0  0  0  0  0  0
  -25.5069  -16.6272   18.6235 N   0  0  0  0  0  0  0  0  0  0  0  0
  -27.0478  -31.3896   24.2915 N   0  0  0  0  0  0  0  0  0  0  0  0
  -20.8898  -31.7356   22.0566 N   0  0  0  0  0  0  0  0  0  0  0  0
  -19.6204  -32.0617   18.6876 N   0  3  0  0  0  0  0  0  0  0  0  0
  -27.2851   -8.3402   17.6513 O   0  0  0  0  0  0  0  0  0  0  0  0
  -25.7664  -29.4806   23.9227 O   0  0  0  0  0  0  0  0  0  0  0  0
  -23.2608  -32.7155   23.3321 O   0  0  0  0  0  0  0  0  0  0  0  0
  -20.5440  -30.0854   20.4646 O   0  0  0  0  0  0  0  0  0  0  0  0
  -27.0554  -17.9382   19.7484 O   0  0  0  0  0  0  0  0  0  0  0  0
  -21.2585   -7.4717   22.5002 O   0  0  0  0  0  0  0  0  0  0  0  0
  -25.6668  -25.8585   18.9674 O   0  0  0  0  0  0  0  0  0  1  0  0
  -25.3513  -21.0450   16.8894 O   0  0  0  0  0  0  0  0  0  0  0  0
  -22.2724   -2.2900   24.0894 F   0  0  0  0  0  0  0  0  0  0  0  0
  -20.9747   -6.7181   25.1448 F   0  0  0  0  0  0  0  0  0  0  0  0
  1  2  1  0  0  0  0
  1  5  2  0  0  0  0
  2  6  2  0  0  0  0
  3  8  2  0  0  0  0
  3 17  1  0  0  0  0
  4  9  1  0  0  0  0
  4 17  2  0  0  0  0
  5 19  1  0  0  0  0
  6 21  1  0  0  0  0
  7 10  2  0  0  0  0
  7 20  1  0  0  0  0
  8 24  1  0  0  0  0
  9 24  2  0  0  0  0
 10 25  1  0  0  0  0
 11 12  2  0  0  0  0
 11 26  1  0  0  0  0
 12 27  1  0  0  0  0
 13 22  1  0  0  0  0
 13 25  2  0  0  0  0
 14 23  1  0  0  0  0
 14 31  2  0  0  0  0
 15 23  2  0  0  0  0
 15 32  1  0  0  0  0
 16 27  2  0  0  0  0
 16 28  1  0  0  0  0
 17 29  1  0  0  0  0
 18 29  1  0  0  0  0
 18 30  2  0  0  0  0
 18 35  1  0  0  0  0
 19 21  2  0  0  0  0
 19 40  1  0  0  0  0
 20 22  2  0  0  0  0
 20 41  1  0  0  0  0
 21 49  1  0  0  0  0
 22 42  1  0  0  0  0
 23 67  1  0  0  0  0
 24 79  1  0  0  0  0
 25 80  1  0  0  0  0
 26 28  2  0  0  0  0
 26 79  1  0  0  0  0
 27 82  1  0  0  0  0
 28 83  1  0  0  0  0
 29 62  2  0  0  0  0
 30 63  1  0  0  0  0
 30 68  1  0  0  0  0
 31 64  1  0  0  0  0
 31 70  1  0  0  0  0
 32 64  2  0  0  0  0
 32 81  1  0  0  0  0
 33 34  2  0  0  0  0
 33 57  1  0  0  0  0
 34 58  1  0  0  0  0
 35 69  1  0  0  0  0
 35 74  2  0  0  0  0
 36 50  1  0  0  0  0
 36 71  1  0  0  0  0
 36 75  2  0  0  0  0
 37 59  1  0  0  0  0
 37 65  1  0  0  0  0
 37 76  2  0  0  0  0
 38 60  1  0  0  0  0
 38 72  1  0  0  0  0
 38 77  2  0  0  0  0
 39 66  1  0  0  0  0
 39 70  1  0  0  0  0
 39 78  2  0  0  0  0
 40 43  1  0  0  0  0
 41 50  1  0  0  0  0
 42 65  1  0  0  0  0
 43 45  1  0  0  0  0
 44 46  1  0  0  0  0
 44 47  1  0  0  0  0
 45 49  1  0  0  0  0
 46 51  1  0  0  0  0
 47 66  1  0  0  0  0
 48 51  1  0  0  0  0
 48 66  1  0  0  0  0
 49 71  1  0  0  0  0
 50 65  1  0  0  0  0
 51 63  1  0  0  0  0
 52 60  1  0  0  0  0
 53 61  1  0  0  0  0
 54 61  1  0  0  0  0
 55 61  1  0  0  0  0
 56 73  1  0  0  0  0
 57 80  1  0  0  0  0
 58 81  1  0  0  0  0
 59 61  1  0  0  0  0
 59 72  1  0  0  0  0
 60 73  1  0  0  0  0
 62 63  1  0  0  0  0
M  CHG  2  64   1  73   1
M  ISO  4  39 100  57 101  70 100  80 101
M  END
> <Batch ID>
0117

> <Smiles>
CNC(C)C(=O)NC(C(=O)N1Cc2cc([101O:1][101CH2:1]C=CCOc3cc(N)cc([100NH:0][100C:0](=O)N4CCCC(n5nc(-c6ccc(Oc7ccc(F)cc7F)cc6)c(C(N)=O)c5N)C4)n3)ccc2CC1C(=O)NC1CCCc2ccccc21)C(C)(C)C

> <Shape>
0.251

> <Color>
0.093

> <Negative vol penalty>
0.000

$$$$

  -OEChem-04052301463D

 85 93  0     1  0  0  0  0  0999 V2000
  -30.2527  -31.7785   25.7787 C   0  0  0  0  0  0  0  0  0  0  0  0
  -29.8164  -30.7160   24.9937 C   0  0  0  0  0  0  0  0  0  0  0  0
  -24.5173   -8.0936   21.3996 C   0  0  0  0  0  0  0  0  0  0  0  0
  -24.2487   -9.8632   23.0224 C   0  0  0  0  0  0  0  0  0  0  0  0
  -29.3238  -32.6072   26.4067 C   0  0  0  0  0  0  0  0  0  0  0  0
  -28.4508  -30.4810   24.8371 C   0  0  0  0  0  0  0  0  0  0  0  0
  -27.1851  -29.5115   20.0305 C   0  0  0  0  0  0  0  0  0  0  0  0
  -24.0569   -7.1664   22.3344 C   0  0  0  0  0  0  0  0  0  0  0  0
  -23.7882   -8.9360   23.9572 C   0  0  0  0  0  0  0  0  0  0  0  0
  -27.4535  -28.2316   19.5472 C   0  0  0  0  0  0  0  0  0  0  0  0
  -21.0830   -6.1689   23.5970 C   0  0  0  0  0  0  0  0  0  0  0  0
  -20.1459   -5.2283   23.1697 C   0  0  0  0  0  0  0  0  0  0  0  0
  -25.1440  -27.6246   19.8896 C   0  0  0  0  0  0  0  0  0  0  0  0
  -21.6700   -3.4460   23.7506 C   0  0  0  0  0  0  0  0  0  0  0  0
  -30.4291  -19.0424   20.2168 C   0  0  0  0  0  0  0  0  0  0  0  0
  -24.6133   -9.4420   21.7436 C   0  0  0  0  0  0  0  0  0  0  0  0
  -24.3187  -11.1309   19.8545 C   0  0  0  0  0  0  0  0  0  0  0  0
  -27.9461  -32.3881   26.2499 C   0  0  0  0  0  0  0  0  0  0  0  0
  -25.8944  -29.8548   20.4580 C   0  0  0  0  0  0  0  0  0  0  0  0
  -27.5027  -31.3068   25.4646 C   0  0  0  0  0  0  0  0  0  0  0  0
  -24.8613  -28.9103   20.3756 C   0  0  0  0  0  0  0  0  0  0  0  0
  -28.2017  -19.1966   21.0361 C   0  0  0  0  0  0  0  0  0  0  0  0
  -28.1135  -17.8106   20.9693 C   0  0  0  0  0  0  0  0  0  0  0  0
  -29.3781  -19.8320   20.6545 C   0  0  0  0  0  0  0  0  0  0  0  0
  -23.6923   -7.5876   23.6132 C   0  0  0  0  0  0  0  0  0  0  0  0
  -26.4335  -27.2870   19.4794 C   0  0  0  0  0  0  0  0  0  0  0  0
  -22.3137   -5.7481   24.1010 C   0  0  0  0  0  0  0  0  0  0  0  0
  -20.4394   -3.8668   23.2465 C   0  0  0  0  0  0  0  0  0  0  0  0
  -22.6072   -4.3866   24.1779 C   0  0  0  0  0  0  0  0  0  0  0  0
  -25.0894  -10.4002   20.7786 C   0  0  0  0  0  0  0  0  0  0  0  0
  -29.2211  -17.1114   20.5173 C   0  0  0  0  0  0  0  0  0  0  0  0
  -25.2336  -11.8958   19.1731 C   0  0  0  0  0  0  0  0  0  0  0  0
  -29.1755  -21.8663   19.6321 C   0  0  0  0  0  0  0  0  0  0  0  0
  -22.9023  -11.1193   19.6321 C   0  0  0  0  0  0  0  0  0  0  0  0
  -24.6170  -30.7775   23.2185 C   0  0  0  0  0  0  0  0  0  0  0  0
  -21.9548  -31.1720   21.4075 C   0  0  0  0  0  0  0  0  0  0  0  0
  -20.2121  -30.3307   18.5965 C   0  0  0  0  0  0  0  0  0  0  0  0
  -30.1418  -14.8191   20.0238 C   0  0  0  0  0  0  0  0  0  0  0  0
  -26.9804  -33.2820   26.9867 C   0  0  0  0  0  0  0  0  0  0  0  0
  -25.6153  -31.2479   20.9518 C   0  0  0  0  0  0  0  0  0  0  0  0
  -23.4541  -29.2350   20.8029 C   0  0  0  0  0  0  0  0  0  0  0  0
  -25.5481  -33.1912   26.4663 C   0  0  0  0  0  0  0  0  0  0  0  0
  -30.1173  -11.6405   18.4195 C   0  0  0  0  0  0  0  0  0  0  0  0
  -25.1378  -31.7334   26.2839 C   0  0  0  0  0  0  0  0  0  0  0  0
  -28.7433  -11.0667   18.7730 C   0  0  0  0  0  0  0  0  0  0  0  0
  -30.7117  -12.4421   19.5762 C   0  0  0  0  0  0  0  0  0  0  0  0
  -28.4658  -12.9195   20.4691 C   0  0  0  0  0  0  0  0  0  0  0  0
  -26.0295  -31.0345   25.2506 C   0  0  1  0  0  0  0  0  0  0  0  0
  -24.3789  -31.3299   21.8416 C   0  0  1  0  0  0  0  0  0  0  0  0
  -27.7983  -12.1584   19.3121 C   0  0  2  0  0  0  0  0  0  0  0  0
  -27.0373  -20.0043   21.5148 C   0  0  0  0  0  0  0  0  0  0  0  0
  -26.0390  -16.6478   20.1749 C   0  0  0  0  0  0  0  0  0  0  0  0
  -18.0499  -30.7891   17.4082 C   0  0  0  0  0  0  0  0  0  0  0  0
  -20.4815  -29.4048   23.4117 C   0  0  0  0  0  0  0  0  0  0  0  0
  -18.6593  -29.1231   21.7180 C   0  0  0  0  0  0  0  0  0  0  0  0
  -19.1828  -31.3896   22.6189 C   0  0  0  0  0  0  0  0  0  0  0  0
  -21.6117  -31.3997   16.2180 C   0  0  0  0  0  0  0  0  0  0  0  0
  -26.8599  -17.1078   21.3758 C   0  0  0  0  0  0  0  0  0  0  0  0
  -29.2942  -23.3643   19.5627 C   0  0  0  0  0  0  0  0  0  0  0  0
  -27.9335  -24.0068   19.3216 C   0  0  0  0  0  0  0  0  0  0  0  0
  -28.0090  -25.5253   19.2148 C   0  0  0  0  0  0  0  0  0  1  0  0
  -20.7938  -30.2937   21.0078 C   0  0  1  0  0  0  0  0  0  0  0  0
  -19.5119  -31.1821   17.5529 C   0  0  2  0  0  0  0  0  0  0  0  0
  -19.8062  -30.0458   22.1828 C   0  0  0  0  0  0  0  0  0  0  0  0
  -30.3808  -17.6937   20.1381 N   0  0  0  0  0  0  0  0  0  0  0  0
  -26.3936  -10.6760   20.6944 N   0  0  0  0  0  0  0  0  0  0  0  0
  -29.5163  -21.2292   20.7043 N   0  0  0  0  0  0  0  0  0  0  0  0
  -26.4494  -11.5885   19.7093 N   0  0  0  0  0  0  0  0  0  0  0  0
  -23.2327  -30.6086   21.2844 N   0  0  0  0  0  0  0  0  0  0  0  0
  -29.7625  -13.4601   20.0317 N   0  0  0  0  0  0  0  0  0  0  0  0
  -25.1086  -12.7944   18.1735 N   0  0  0  0  0  0  0  0  0  0  0  0
  -22.1090  -10.2747   20.4206 N   0  0  0  0  0  0  0  0  0  0  0  0
  -29.1458  -15.6982   20.4475 N   0  0  0  0  0  0  0  0  0  0  0  0
  -25.6354  -31.4067   23.9087 N   0  0  0  0  0  0  0  0  0  0  0  0
  -20.1875  -30.9247   19.8406 N   0  0  0  0  0  0  0  0  0  0  0  0
  -20.1741  -31.0253   16.2271 N   0  3  0  0  0  0  0  0  0  0  0  0
  -22.3582  -11.8244   18.7488 O   0  0  0  0  0  0  0  0  0  0  0  0
  -23.9268  -29.8502   23.6251 O   0  0  0  0  0  0  0  0  0  0  0  0
  -21.7362  -32.3183   21.8073 O   0  0  0  0  0  0  0  0  0  0  0  0
  -20.7260  -29.2453   18.3350 O   0  0  0  0  0  0  0  0  0  0  0  0
  -31.2582  -15.1790   19.6415 O   0  0  0  0  0  0  0  0  0  0  0  0
  -23.2427   -6.6832   24.5256 O   0  0  0  0  0  0  0  0  0  0  0  0
  -26.6929  -26.0368   19.0086 O   0  0  0  0  0  0  0  0  0  1  0  0
  -19.5387   -2.9636   22.8376 F   0  0  0  0  0  0  0  0  0  0  0  0
  -23.7873   -3.9763   24.6623 F   0  0  0  0  0  0  0  0  0  0  0  0
  1  2  1  0  0  0  0
  1  5  2  0  0  0  0
  2  6  2  0  0  0  0
  3  8  2  0  0  0  0
  3 16  1  0  0  0  0
  4  9  1  0  0  0  0
  4 16  2  0  0  0  0
  5 18  1  0  0  0  0
  6 20  1  0  0  0  0
  7 10  2  0  0  0  0
  7 19  1  0  0  0  0
  8 25  1  0  0  0  0
  9 25  2  0  0  0  0
 10 26  1  0  0  0  0
 11 12  2  0  0  0  0
 11 27  1  0  0  0  0
 12 28  1  0  0  0  0
 13 21  1  0  0  0  0
 13 26  2  0  0  0  0
 14 28  2  0  0  0  0
 14 29  1  0  0  0  0
 15 24  2  0  0  0  0
 15 65  1  0  0  0  0
 16 30  1  0  0  0  0
 17 30  1  0  0  0  0
 17 32  2  0  0  0  0
 17 34  1  0  0  0  0
 18 20  2  0  0  0  0
 18 39  1  0  0  0  0
 19 21  2  0  0  0  0
 19 40  1  0  0  0  0
 20 48  1  0  0  0  0
 21 41  1  0  0  0  0
 22 23  2  0  0  0  0
 22 24  1  0  0  0  0
 22 51  1  0  0  0  0
 23 31  1  0  0  0  0
 23 58  1  0  0  0  0
 24 67  1  0  0  0  0
 25 82  1  0  0  0  0
 26 83  1  0  0  0  0
 27 29  2  0  0  0  0
 27 82  1  0  0  0  0
 28 84  1  0  0  0  0
 29 85  1  0  0  0  0
 30 66  2  0  0  0  0
 31 65  2  0  0  0  0
 31 73  1  0  0  0  0
 32 68  1  0  0  0  0
 32 71  1  0  0  0  0
 33 59  1  0  0  0  0
 33 67  2  0  0  0  0
 34 72  1  0  0  0  0
 34 77  2  0  0  0  0
 35 49  1  0  0  0  0
 35 74  1  0  0  0  0
 35 78  2  0  0  0  0
 36 62  1  0  0  0  0
 36 69  1  0  0  0  0
 36 79  2  0  0  0  0
 37 63  1  0  0  0  0
 37 75  1  0  0  0  0
 37 80  2  0  0  0  0
 38 70  1  0  0  0  0
 38 73  1  0  0  0  0
 38 81  2  0  0  0  0
 39 42  1  0  0  0  0
 40 49  1  0  0  0  0
 41 69  1  0  0  0  0
 42 44  1  0  0  0  0
 43 45  1  0  0  0  0
 43 46  1  0  0  0  0
 44 48  1  0  0  0  0
 45 50  1  0  0  0  0
 46 70  1  0  0  0  0
 47 50  1  0  0  0  0
 47 70  1  0  0  0  0
 48 74  1  0  0  0  0
 49 69  1  0  0  0  0
 50 68  1  0  0  0  0
 52 58  1  0  0  0  0
 53 63  1  0  0  0  0
 54 64  1  0  0  0  0
 55 64  1  0  0  0  0
 56 64  1  0  0  0  0
 57 76  1  0  0  0  0
 59 60  1  0  0  0  0
 60 61  1  0  0  0  0
 61 83  1  0  0  0  0
 62 64  1  0  0  0  0
 62 75  1  0  0  0  0
 63 76  1  0  0  0  0
 66 68  1  0  0  0  0
M  CHG  1  76   1
M  ISO  4  38 100  61 101  73 100  83 101
M  END
> <Batch ID>
0117

> <Smiles>
CCc1c([100NH:0][100C:0](=O)N2CCCC(n3nc(-c4ccc(Oc5ccc(F)cc5F)cc4)c(C(N)=O)c3N)C2)ncc(NC=CC[101CH2:1][101O:1]c2ccc3c(c2)CN(C(=O)C(NC(=O)C(C)NC)C(C)(C)C)C(C(=O)NC2CCCc4ccccc42)C3)c1C

> <Shape>
0.345

> <Color>
0.113

> <Negative vol penalty>
0.000

$$$$

  -OEChem-04052301463D

 87 95  0     1  0  0  0  0  0999 V2000
  -17.8938  -27.2248   22.8534 C   0  0  0  0  0  0  0  0  0  0  0  0
  -18.7608  -26.2458   22.3789 C   0  0  0  0  0  0  0  0  0  0  0  0
  -21.1251  -17.2156   18.8787 C   0  0  0  0  0  0  0  0  0  0  0  0
  -19.8773  -16.5925   20.8514 C   0  0  0  0  0  0  0  0  0  0  0  0
  -18.3613  -28.5192   23.0774 C   0  0  0  0  0  0  0  0  0  0  0  0
  -20.0956  -26.5608   22.1271 C   0  0  0  0  0  0  0  0  0  0  0  0
  -24.9495  -22.9072   22.9003 C   0  0  0  0  0  0  0  0  0  0  0  0
  -19.9553  -17.6966   18.2906 C   0  0  0  0  0  0  0  0  0  0  0  0
  -18.7075  -17.0736   20.2634 C   0  0  0  0  0  0  0  0  0  0  0  0
  -25.6845  -22.1234   22.0119 C   0  0  0  0  0  0  0  0  0  0  0  0
  -17.2486  -16.4175   16.7215 C   0  0  0  0  0  0  0  0  0  0  0  0
  -17.0055  -16.0767   15.3910 C   0  0  0  0  0  0  0  0  0  0  0  0
  -32.2913  -15.5100   21.8412 C   0  0  0  0  0  0  0  0  0  0  0  0
  -29.8484  -15.4824   20.4941 C   0  0  0  0  0  0  0  0  0  0  0  0
  -27.2924  -23.9066   21.7785 C   0  0  0  0  0  0  0  0  0  0  0  0
  -16.9904  -18.4178   14.7941 C   0  0  0  0  0  0  0  0  0  0  0  0
  -21.0861  -16.6635   20.1590 C   0  0  0  0  0  0  0  0  0  0  0  0
  -31.5467  -14.3326   21.7711 C   0  0  0  0  0  0  0  0  0  0  0  0
  -30.3253  -14.3188   21.0976 C   0  0  0  0  0  0  0  0  0  0  0  0
  -23.2012  -16.8850   21.5679 C   0  0  0  0  0  0  0  0  0  0  0  0
  -19.7048  -28.8478   22.8373 C   0  0  0  0  0  0  0  0  0  0  0  0
  -25.3753  -24.2029   23.2266 C   0  0  0  0  0  0  0  0  0  0  0  0
  -20.5812  -27.8610   22.3468 C   0  0  0  0  0  0  0  0  0  0  0  0
  -26.5623  -24.7038   22.6733 C   0  0  0  0  0  0  0  0  0  0  0  0
  -18.7465  -17.6256   18.9830 C   0  0  0  0  0  0  0  0  0  0  0  0
  -26.8546  -22.6241   21.4487 C   0  0  0  0  0  0  0  0  0  0  0  0
  -17.3626  -17.7585   17.0884 C   0  0  0  0  0  0  0  0  0  0  0  0
  -31.8143  -16.6737   21.2377 C   0  0  0  0  0  0  0  0  0  0  0  0
  -30.5930  -16.6599   20.5642 C   0  0  0  0  0  0  0  0  0  0  0  0
  -16.8764  -17.0768   14.4273 C   0  0  0  0  0  0  0  0  0  0  0  0
  -17.2335  -18.7586   16.1247 C   0  0  0  0  0  0  0  0  0  0  0  0
  -22.2941  -16.1659   20.7668 C   0  0  0  0  0  0  0  0  0  0  0  0
  -24.1719  -15.9695   21.8938 C   0  0  0  0  0  0  0  0  0  0  0  0
  -32.3062  -13.0420   23.7135 C   0  0  0  0  0  0  0  0  0  0  0  0
  -32.0759  -13.1357   22.4127 C   0  0  0  0  0  0  0  0  0  0  0  0
  -29.5078  -13.0963   21.0023 C   0  0  0  0  0  0  0  0  0  0  0  0
  -23.1692  -18.2577   21.9807 C   0  0  0  0  0  0  0  0  0  0  0  0
  -24.1633  -27.1194   22.8678 C   0  0  0  0  0  0  0  0  0  0  0  0
  -28.8060  -19.7975   20.2941 C   0  0  0  0  0  0  0  0  0  0  0  0
  -26.7466  -27.9863   24.6277 C   0  0  0  0  0  0  0  0  0  0  0  0
  -29.9163  -27.2680   25.6688 C   0  0  0  0  0  0  0  0  0  0  0  0
  -27.6598  -11.9009   20.3338 C   0  0  0  0  0  0  0  0  0  0  0  0
  -20.1528  -30.2722   23.0494 C   0  0  0  0  0  0  0  0  0  0  0  0
  -24.5854  -25.0256   24.2072 C   0  0  0  0  0  0  0  0  0  0  0  0
  -27.0734  -26.0808   23.0066 C   0  0  0  0  0  0  0  0  0  0  0  0
  -21.6697  -30.4305   23.1135 C   0  0  0  0  0  0  0  0  0  0  0  0
  -24.3177  -10.9551   21.3038 C   0  0  0  0  0  0  0  0  0  0  0  0
  -22.3354  -29.6590   21.9784 C   0  0  0  0  0  0  0  0  0  0  0  0
  -23.5609  -12.2830   21.2814 C   0  0  0  0  0  0  0  0  0  0  0  0
  -25.3793  -10.8970   20.2097 C   0  0  0  0  0  0  0  0  0  0  0  0
  -25.5923  -13.3675   20.2246 C   0  0  0  0  0  0  0  0  0  0  0  0
  -22.0419  -28.1577   22.0852 C   0  0  1  0  0  0  0  0  0  0  0  0
  -24.8386  -26.5238   24.0707 C   0  0  1  0  0  0  0  0  0  0  0  0
  -24.5336  -13.4746   21.3353 C   0  0  1  0  0  0  0  0  0  0  0  0
  -31.7837  -28.1841   27.0727 C   0  0  0  0  0  0  0  0  0  0  0  0
  -27.4253  -29.9798   22.4197 C   0  0  0  0  0  0  0  0  0  0  0  0
  -29.7273  -30.1615   23.3872 C   0  0  0  0  0  0  0  0  0  0  0  0
  -27.7487  -30.8465   24.7432 C   0  0  0  0  0  0  0  0  0  0  0  0
  -29.8458  -24.9367   27.4906 C   0  0  0  0  0  0  0  0  0  0  0  0
  -32.3027  -18.6751   22.4260 C   0  0  0  0  0  0  0  0  0  0  0  0
  -27.5191  -20.4468   20.7604 C   0  0  0  0  0  0  0  0  0  1  0  0
  -28.8664  -18.2887   20.4161 C   0  0  0  0  0  0  0  0  0  0  0  0
  -28.1670  -28.3902   24.3142 C   0  0  1  0  0  0  0  0  0  0  0  0
  -30.5534  -27.2906   27.0465 C   0  0  2  0  0  0  0  0  0  0  0  0
  -28.2567  -29.8192   23.7081 C   0  0  0  0  0  0  0  0  0  0  0  0
  -22.6562  -14.8919   20.5941 N   0  0  0  0  0  0  0  0  0  0  0  0
  -28.3735  -13.0831   20.3821 N   0  0  0  0  0  0  0  0  0  0  0  0
  -23.8018  -14.8033   21.2912 N   0  0  0  0  0  0  0  0  0  0  0  0
  -26.2625  -26.8491   23.9656 N   0  0  0  0  0  0  0  0  0  0  0  0
  -26.2634  -12.0617   20.2721 N   0  0  0  0  0  0  0  0  0  0  0  0
  -25.2974  -16.0565   22.6341 N   0  0  0  0  0  0  0  0  0  0  0  0
  -22.0999  -19.0582   21.5563 N   0  0  0  0  0  0  0  0  0  0  0  0
  -22.8722  -27.5517   23.1039 N   0  0  0  0  0  0  0  0  0  0  0  0
  -28.9229  -28.2168   25.5499 N   0  0  0  0  0  0  0  0  0  0  0  0
  -30.9625  -25.9157   27.4506 N   0  3  0  0  0  0  0  0  0  0  0  0
  -24.0709  -18.7637   22.6909 O   0  0  0  0  0  0  0  0  0  0  0  0
  -24.7692  -27.1834   21.8046 O   0  0  0  0  0  0  0  0  0  0  0  0
  -29.7437  -20.4547   19.8448 O   0  0  0  0  0  0  0  0  0  0  0  0
  -26.0932  -28.6509   25.4357 O   0  0  0  0  0  0  0  0  0  0  0  0
  -30.2675  -26.4893   24.7852 O   0  0  0  0  0  0  0  0  0  0  0  0
  -28.1804  -10.7829   20.3372 O   0  0  0  0  0  0  0  0  0  0  0  0
  -17.6048  -18.0951   18.4096 O   0  0  0  0  0  0  0  0  0  0  0  0
  -32.5501  -17.8180   21.3133 O   0  0  0  0  0  0  0  0  0  0  0  0
  -27.5736  -21.8614   20.5808 O   0  0  0  0  0  0  0  0  0  1  0  0
  -30.1123  -17.8004   19.9655 O   0  0  0  0  0  0  0  0  0  0  0  0
  -16.6444  -16.7494   13.1494 F   0  0  0  0  0  0  0  0  0  0  0  0
  -17.3433  -20.0485   16.4709 F   0  0  0  0  0  0  0  0  0  0  0  0
  1  2  1  0  0  0  0
  1  5  2  0  0  0  0
  2  6  2  0  0  0  0
  3  8  2  0  0  0  0
  3 17  1  0  0  0  0
  4  9  1  0  0  0  0
  4 17  2  0  0  0  0
  5 21  1  0  0  0  0
  6 23  1  0  0  0  0
  7 10  2  0  0  0  0
  7 22  1  0  0  0  0
  8 25  1  0  0  0  0
  9 25  2  0  0  0  0
 10 26  1  0  0  0  0
 11 12  2  0  0  0  0
 11 27  1  0  0  0  0
 12 30  1  0  0  0  0
 13 18  1  0  0  0  0
 13 28  2  0  0  0  0
 14 19  1  0  0  0  0
 14 29  2  0  0  0  0
 15 24  1  0  0  0  0
 15 26  2  0  0  0  0
 16 30  2  0  0  0  0
 16 31  1  0  0  0  0
 17 32  1  0  0  0  0
 18 19  2  0  0  0  0
 18 35  1  0  0  0  0
 19 36  1  0  0  0  0
 20 32  1  0  0  0  0
 20 33  2  0  0  0  0
 20 37  1  0  0  0  0
 21 23  2  0  0  0  0
 21 43  1  0  0  0  0
 22 24  2  0  0  0  0
 22 44  1  0  0  0  0
 23 52  1  0  0  0  0
 24 45  1  0  0  0  0
 25 82  1  0  0  0  0
 26 84  1  0  0  0  0
 27 31  2  0  0  0  0
 27 82  1  0  0  0  0
 28 29  1  0  0  0  0
 28 83  1  0  0  0  0
 29 85  1  0  0  0  0
 30 86  1  0  0  0  0
 31 87  1  0  0  0  0
 32 66  2  0  0  0  0
 33 68  1  0  0  0  0
 33 71  1  0  0  0  0
 34 35  2  0  0  0  0
 36 67  2  0  0  0  0
 37 72  1  0  0  0  0
 37 76  2  0  0  0  0
 38 53  1  0  0  0  0
 38 73  1  0  0  0  0
 38 77  2  0  0  0  0
 39 61  1  0  0  0  0
 39 62  1  0  0  0  0
 39 78  2  0  0  0  0
 40 63  1  0  0  0  0
 40 69  1  0  0  0  0
 40 79  2  0  0  0  0
 41 64  1  0  0  0  0
 41 74  1  0  0  0  0
 41 80  2  0  0  0  0
 42 67  1  0  0  0  0
 42 70  1  0  0  0  0
 42 81  2  0  0  0  0
 43 46  1  0  0  0  0
 44 53  1  0  0  0  0
 45 69  1  0  0  0  0
 46 48  1  0  0  0  0
 47 49  1  0  0  0  0
 47 50  1  0  0  0  0
 48 52  1  0  0  0  0
 49 54  1  0  0  0  0
 50 70  1  0  0  0  0
 51 54  1  0  0  0  0
 51 70  1  0  0  0  0
 52 73  1  0  0  0  0
 53 69  1  0  0  0  0
 54 68  1  0  0  0  0
 55 64  1  0  0  0  0
 56 65  1  0  0  0  0
 57 65  1  0  0  0  0
 58 65  1  0  0  0  0
 59 75  1  0  0  0  0
 60 83  1  0  0  0  0
 61 84  1  0  0  0  0
 62 85  1  0  0  0  0
 63 65  1  0  0  0  0
 63 74  1  0  0  0  0
 64 75  1  0  0  0  0
 66 68  1  0  0  0  0
M  CHG  1  75   1
M  ISO  4  42 100  61 101  67 100  84 101
M  END
> <Batch ID>
0117

> <Smiles>
C=Cc1cc(OC)c(OCC(=O)[101CH2:1][101O:1]c2ccc3c(c2)CN(C(=O)C(NC(=O)C(C)NC)C(C)(C)C)C(C(=O)NC2CCCc4ccccc42)C3)cc1C=[100N:0][100C:0](=O)N1CCCC(n2nc(-c3ccc(Oc4ccc(F)cc4F)cc3)c(C(N)=O)c2N)C1

> <Shape>
0.197

> <Color>
0.079

> <Negative vol penalty>
0.000

$$$$

  -OEChem-04052301463D

 87 95  0     1  0  0  0  0  0999 V2000
  -20.1191   -8.6455   18.9703 C   0  0  0  0  0  0  0  0  0  0  0  0
  -20.0053  -10.0106   19.2135 C   0  0  0  0  0  0  0  0  0  0  0  0
  -29.4604  -28.4521   21.0876 C   0  0  0  0  0  0  0  0  0  0  0  0
  -27.7591  -27.4972   19.6626 C   0  0  0  0  0  0  0  0  0  0  0  0
  -21.1640   -7.9214   19.5427 C   0  0  0  0  0  0  0  0  0  0  0  0
  -20.9359  -10.6521   20.0301 C   0  0  0  0  0  0  0  0  0  0  0  0
  -23.0427  -16.3704   19.4235 C   0  0  0  0  0  0  0  0  0  0  0  0
  -30.3514  -27.4543   20.6926 C   0  0  0  0  0  0  0  0  0  0  0  0
  -28.6501  -26.4994   19.2675 C   0  0  0  0  0  0  0  0  0  0  0  0
  -22.6982  -17.5682   20.0483 C   0  0  0  0  0  0  0  0  0  0  0  0
  -29.8616  -23.6023   20.5208 C   0  0  0  0  0  0  0  0  0  0  0  0
  -29.3903  -22.2901   20.4842 C   0  0  0  0  0  0  0  0  0  0  0  0
  -21.6849  -26.0242   23.8227 C   0  0  0  0  0  0  0  0  0  0  0  0
  -24.5052  -17.2628   21.6169 C   0  0  0  0  0  0  0  0  0  0  0  0
  -19.0907  -25.4371   22.9812 C   0  0  0  0  0  0  0  0  0  0  0  0
  -29.8905  -22.1762   18.1233 C   0  0  0  0  0  0  0  0  0  0  0  0
  -28.1642  -28.4735   20.5727 C   0  0  0  0  0  0  0  0  0  0  0  0
  -20.8377  -27.0510   23.4062 C   0  0  0  0  0  0  0  0  0  0  0  0
  -27.0474  -30.7584   20.3732 C   0  0  0  0  0  0  0  0  0  0  0  0
  -22.1134   -8.5562   20.3590 C   0  0  0  0  0  0  0  0  0  0  0  0
  -24.1161  -15.6031   19.8983 C   0  0  0  0  0  0  0  0  0  0  0  0
  -21.9938   -9.9355   20.6151 C   0  0  0  0  0  0  0  0  0  0  0  0
  -24.8629  -16.0569   20.9948 C   0  0  0  0  0  0  0  0  0  0  0  0
  -19.5406  -26.7575   22.9854 C   0  0  0  0  0  0  0  0  0  0  0  0
  -29.9463  -26.4780   19.7825 C   0  0  0  0  0  0  0  0  0  0  0  0
  -23.4276  -18.0131   21.1469 C   0  0  0  0  0  0  0  0  0  0  0  0
  -30.3473  -24.2016   19.3586 C   0  0  0  0  0  0  0  0  0  0  0  0
  -21.2351  -24.7038   23.8184 C   0  0  0  0  0  0  0  0  0  0  0  0
  -19.9380  -24.4103   23.3977 C   0  0  0  0  0  0  0  0  0  0  0  0
  -29.4048  -21.5769   19.2855 C   0  0  0  0  0  0  0  0  0  0  0  0
  -30.3618  -23.4885   18.1599 C   0  0  0  0  0  0  0  0  0  0  0  0
  -27.2431  -29.5037   20.9808 C   0  0  0  0  0  0  0  0  0  0  0  0
  -26.0732  -31.3593   21.1324 C   0  0  0  0  0  0  0  0  0  0  0  0
  -23.7886  -21.3645   22.3832 C   0  0  0  0  0  0  0  0  0  0  0  0
  -23.6579  -22.0971   23.4988 C   0  0  0  0  0  0  0  0  0  0  0  0
  -21.3335  -28.4208   23.4191 C   0  0  0  0  0  0  0  0  0  0  0  0
  -27.6889  -31.3297   19.2253 C   0  0  0  0  0  0  0  0  0  0  0  0
  -21.7934  -29.0606   24.6730 C   0  0  0  0  0  0  0  0  0  0  0  0
  -24.4225  -12.6772   21.1021 C   0  0  0  0  0  0  0  0  0  0  0  0
  -27.5877  -13.3731   20.9628 C   0  0  0  0  0  0  0  0  0  0  0  0
  -30.0298  -15.7559   20.8911 C   0  0  0  0  0  0  0  0  0  0  0  0
  -23.1983   -7.7227   20.9938 C   0  0  0  0  0  0  0  0  0  0  0  0
  -24.4918  -14.3267   19.1968 C   0  0  0  0  0  0  0  0  0  0  0  0
  -26.0368  -15.2803   21.5309 C   0  0  0  0  0  0  0  0  0  0  0  0
  -24.3579   -8.5490   21.5441 C   0  0  0  0  0  0  0  0  0  0  0  0
  -24.2983  -31.4661   25.5648 C   0  0  0  0  0  0  0  0  0  0  0  0
  -23.8342   -9.7321   22.3521 C   0  0  0  0  0  0  0  0  0  0  0  0
  -25.3383  -31.3212   24.4543 C   0  0  0  0  0  0  0  0  0  0  0  0
  -23.6458  -30.1281   25.8968 C   0  0  0  0  0  0  0  0  0  0  0  0
  -24.0718  -29.2988   23.5991 C   0  0  0  0  0  0  0  0  0  0  0  0
  -22.9977  -10.6718   21.4753 C   0  0  1  0  0  0  0  0  0  0  0  0
  -25.2825  -13.3685   20.0823 C   0  0  1  0  0  0  0  0  0  0  0  0
  -24.7328  -30.6347   23.2171 C   0  0  2  0  0  0  0  0  0  0  0  0
  -18.4804  -27.8890   21.0151 C   0  0  0  0  0  0  0  0  0  0  0  0
  -32.5243  -16.0184   20.8151 C   0  0  0  0  0  0  0  0  0  0  0  0
  -27.7535  -12.6293   23.9174 C   0  0  0  0  0  0  0  0  0  0  0  0
  -29.9686  -13.7921   24.0141 C   0  0  0  0  0  0  0  0  0  0  0  0
  -29.6651  -11.8124   22.5271 C   0  0  0  0  0  0  0  0  0  0  0  0
  -29.9156  -17.2002   18.3104 C   0  0  0  0  0  0  0  0  0  0  0  0
  -19.6912  -22.3753   22.1920 C   0  0  0  0  0  0  0  0  0  0  0  0
  -18.6128  -27.8379   22.5340 C   0  0  0  0  0  0  0  0  0  0  0  0
  -24.1479  -19.9146   22.3804 C   0  0  0  0  0  0  0  0  0  1  0  0
  -23.2872  -23.5441   23.5026 C   0  0  0  0  0  0  0  0  0  0  0  0
  -28.5845  -14.0105   21.9005 C   0  0  1  0  0  0  0  0  0  0  0  0
  -31.2453  -15.9260   19.9977 C   0  0  2  0  0  0  0  0  0  0  0  0
  -28.9697  -13.0750   23.0811 C   0  0  0  0  0  0  0  0  0  0  0  0
  -26.4565  -29.3173   22.0440 N   0  0  0  0  0  0  0  0  0  0  0  0
  -21.4076  -29.1635   22.3494 N   0  0  0  0  0  0  0  0  0  0  0  0
  -25.7571  -30.4629   22.1106 N   0  0  0  0  0  0  0  0  0  0  0  0
  -23.1139  -29.4870   24.6959 N   0  0  0  0  0  0  0  0  0  0  0  0
  -26.3609  -14.0355   20.8147 N   0  0  0  0  0  0  0  0  0  0  0  0
  -25.4646  -32.5616   21.0519 N   0  0  0  0  0  0  0  0  0  0  0  0
  -28.6677  -30.5764   18.5628 N   0  0  0  0  0  0  0  0  0  0  0  0
  -23.8582  -11.4976   20.6555 N   0  0  0  0  0  0  0  0  0  0  0  0
  -29.7131  -14.4266   21.0750 N   0  0  0  0  0  0  0  0  0  0  0  0
  -31.1186  -17.1663   19.1813 N   0  3  0  0  0  0  0  0  0  0  0  0
  -27.4143  -32.4809   18.8094 O   0  0  0  0  0  0  0  0  0  0  0  0
  -20.9545  -29.1449   25.5605 O   0  0  0  0  0  0  0  0  0  0  0  0
  -24.2825  -13.1762   22.2126 O   0  0  0  0  0  0  0  0  0  0  0  0
  -27.8893  -12.3299   20.3778 O   0  0  0  0  0  0  0  0  0  0  0  0
  -29.4243  -16.7071   21.3801 O   0  0  0  0  0  0  0  0  0  0  0  0
  -30.8155  -25.5043   19.3967 O   0  0  0  0  0  0  0  0  0  0  0  0
  -19.4877  -23.1246   23.3883 O   0  0  0  0  0  0  0  0  0  0  0  0
  -23.0930  -19.1816   21.7590 O   0  0  0  0  0  0  0  0  0  1  0  0
  -22.0774  -23.7037   24.2301 O   0  0  0  0  0  0  0  0  0  0  0  0
  -28.9536  -20.3162   19.2509 F   0  0  0  0  0  0  0  0  0  0  0  0
  -30.8283  -24.0585   17.0403 F   0  0  0  0  0  0  0  0  0  0  0  0
  1  2  1  0  0  0  0
  1  5  2  0  0  0  0
  2  6  2  0  0  0  0
  3  8  2  0  0  0  0
  3 17  1  0  0  0  0
  4  9  1  0  0  0  0
  4 17  2  0  0  0  0
  5 20  1  0  0  0  0
  6 22  1  0  0  0  0
  7 10  2  0  0  0  0
  7 21  1  0  0  0  0
  8 25  1  0  0  0  0
  9 25  2  0  0  0  0
 10 26  1  0  0  0  0
 11 12  2  0  0  0  0
 11 27  1  0  0  0  0
 12 30  1  0  0  0  0
 13 18  1  0  0  0  0
 13 28  2  0  0  0  0
 14 23  1  0  0  0  0
 14 26  2  0  0  0  0
 15 24  1  0  0  0  0
 15 29  2  0  0  0  0
 16 30  2  0  0  0  0
 16 31  1  0  0  0  0
 17 32  1  0  0  0  0
 18 24  2  0  0  0  0
 18 36  1  0  0  0  0
 19 32  1  0  0  0  0
 19 33  2  0  0  0  0
 19 37  1  0  0  0  0
 20 22  2  0  0  0  0
 20 42  1  0  0  0  0
 21 23  2  0  0  0  0
 21 43  1  0  0  0  0
 22 51  1  0  0  0  0
 23 44  1  0  0  0  0
 24 61  1  0  0  0  0
 25 82  1  0  0  0  0
 26 84  1  0  0  0  0
 27 31  2  0  0  0  0
 27 82  1  0  0  0  0
 28 29  1  0  0  0  0
 28 85  1  0  0  0  0
 29 83  1  0  0  0  0
 30 86  1  0  0  0  0
 31 87  1  0  0  0  0
 32 67  2  0  0  0  0
 33 69  1  0  0  0  0
 33 72  1  0  0  0  0
 34 35  2  0  0  0  0
 34 62  1  0  0  0  0
 35 63  1  0  0  0  0
 36 38  1  0  0  0  0
 36 68  2  0  0  0  0
 37 73  1  0  0  0  0
 37 77  2  0  0  0  0
 38 70  1  0  0  0  0
 38 78  2  0  0  0  0
 39 52  1  0  0  0  0
 39 74  1  0  0  0  0
 39 79  2  0  0  0  0
 40 64  1  0  0  0  0
 40 71  1  0  0  0  0
 40 80  2  0  0  0  0
 41 65  1  0  0  0  0
 41 75  1  0  0  0  0
 41 81  2  0  0  0  0
 42 45  1  0  0  0  0
 43 52  1  0  0  0  0
 44 71  1  0  0  0  0
 45 47  1  0  0  0  0
 46 48  1  0  0  0  0
 46 49  1  0  0  0  0
 47 51  1  0  0  0  0
 48 53  1  0  0  0  0
 49 70  1  0  0  0  0
 50 53  1  0  0  0  0
 50 70  1  0  0  0  0
 51 74  1  0  0  0  0
 52 71  1  0  0  0  0
 53 69  1  0  0  0  0
 54 61  1  0  0  0  0
 55 65  1  0  0  0  0
 56 66  1  0  0  0  0
 57 66  1  0  0  0  0
 58 66  1  0  0  0  0
 59 76  1  0  0  0  0
 60 83  1  0  0  0  0
 62 84  1  0  0  0  0
 63 85  1  0  0  0  0
 64 66  1  0  0  0  0
 64 75  1  0  0  0  0
 65 76  1  0  0  0  0
 67 69  1  0  0  0  0
M  CHG  1  76   1
M  ISO  4  36 100  38 100  62 101  84 101
M  END
> <Batch ID>
0117

> <Smiles>
CCc1cc(OC)c(OCC=C[101CH2:1][101O:1]c2ccc3c(c2)CN(C(=O)C(NC(=O)C(C)NC)C(C)(C)C)C(C(=O)NC2CCCc4ccccc42)C3)cc1[100C:0](=N)[100C:0](=O)N1CCCC(n2nc(-c3ccc(Oc4ccc(F)cc4F)cc3)c(C(N)=O)c2N)C1

> <Shape>
0.316

> <Color>
0.055

> <Negative vol penalty>
0.000

$$$$

  -OEChem-04052301463D

 83 91  0     1  0  0  0  0  0999 V2000
  -17.6016  -32.6777   23.1725 C   0  0  0  0  0  0  0  0  0  0  0  0
  -18.8822  -32.9649   22.7111 C   0  0  0  0  0  0  0  0  0  0  0  0
  -25.7288  -13.4139   21.5785 C   0  0  0  0  0  0  0  0  0  0  0  0
  -24.7156  -14.3171   19.5799 C   0  0  0  0  0  0  0  0  0  0  0  0
  -31.4201  -22.6956   16.4536 C   0  0  0  0  0  0  0  0  0  0  0  0
  -17.3511  -31.4712   23.8248 C   0  0  0  0  0  0  0  0  0  0  0  0
  -19.9135  -32.0462   22.9029 C   0  0  0  0  0  0  0  0  0  0  0  0
  -25.9026  -29.6462   19.7904 C   0  0  0  0  0  0  0  0  0  0  0  0
  -24.7249  -12.4483   21.6511 C   0  0  0  0  0  0  0  0  0  0  0  0
  -23.7117  -13.3514   19.6524 C   0  0  0  0  0  0  0  0  0  0  0  0
  -27.2504  -29.4286   20.0728 C   0  0  0  0  0  0  0  0  0  0  0  0
  -22.6307   -9.5205   22.1587 C   0  0  0  0  0  0  0  0  0  0  0  0
  -23.0132   -8.2064   22.4278 C   0  0  0  0  0  0  0  0  0  0  0  0
  -31.7100  -23.9869   16.8799 C   0  0  0  0  0  0  0  0  0  0  0  0
  -26.6832  -27.3424   21.1430 C   0  0  0  0  0  0  0  0  0  0  0  0
  -24.3677   -8.1908   20.4273 C   0  0  0  0  0  0  0  0  0  0  0  0
  -25.7242  -14.3484   20.5429 C   0  0  0  0  0  0  0  0  0  0  0  0
  -30.5573  -21.9004   17.1996 C   0  0  0  0  0  0  0  0  0  0  0  0
  -27.9933  -15.2430   19.7958 C   0  0  0  0  0  0  0  0  0  0  0  0
  -18.3777  -30.5330   24.0161 C   0  0  0  0  0  0  0  0  0  0  0  0
  -24.9321  -28.7172   20.1925 C   0  0  0  0  0  0  0  0  0  0  0  0
  -19.6769  -30.8266   23.5596 C   0  0  0  0  0  0  0  0  0  0  0  0
  -25.3240  -27.5493   20.8622 C   0  0  0  0  0  0  0  0  0  0  0  0
  -23.7164  -12.4170   20.6880 C   0  0  0  0  0  0  0  0  0  0  0  0
  -27.6406  -28.2780   20.7517 C   0  0  0  0  0  0  0  0  0  0  0  0
  -23.1167  -10.1698   21.0238 C   0  0  0  0  0  0  0  0  0  0  0  0
  -23.8817   -7.5416   21.5622 C   0  0  0  0  0  0  0  0  0  0  0  0
  -23.9853   -9.5050   20.1581 C   0  0  0  0  0  0  0  0  0  0  0  0
  -26.7606  -15.3465   20.4678 C   0  0  0  0  0  0  0  0  0  0  0  0
  -31.1161  -24.4323   18.0497 C   0  0  0  0  0  0  0  0  0  0  0  0
  -30.0151  -22.4392   18.3552 C   0  0  0  0  0  0  0  0  0  0  0  0
  -28.6118  -16.4476   20.0257 C   0  0  0  0  0  0  0  0  0  0  0  0
  -31.1821  -19.6036   16.6084 C   0  0  0  0  0  0  0  0  0  0  0  0
  -30.2641  -20.5501   16.7407 C   0  0  0  0  0  0  0  0  0  0  0  0
  -31.3921  -25.7925   18.5411 C   0  0  0  0  0  0  0  0  0  0  0  0
  -30.8605  -26.3379   19.6464 C   0  0  0  0  0  0  0  0  0  0  0  0
  -28.5312  -14.1553   19.0321 C   0  0  0  0  0  0  0  0  0  0  0  0
  -22.4178  -28.7987   22.1354 C   0  0  0  0  0  0  0  0  0  0  0  0
  -21.9211  -25.8075   20.9829 C   0  0  0  0  0  0  0  0  0  0  0  0
  -23.2293  -23.0020   19.5459 C   0  0  0  0  0  0  0  0  0  0  0  0
  -28.4933  -22.0069   20.3158 C   0  0  0  0  0  0  0  0  0  0  0  0
  -18.0695  -29.2629   24.7687 C   0  0  0  0  0  0  0  0  0  0  0  0
  -23.4852  -28.9536   19.8567 C   0  0  0  0  0  0  0  0  0  0  0  0
  -24.3234  -26.5111   21.2976 C   0  0  0  0  0  0  0  0  0  0  0  0
  -19.1334  -28.1814   24.5999 C   0  0  0  0  0  0  0  0  0  0  0  0
  -27.4216  -20.2095   23.1964 C   0  0  0  0  0  0  0  0  0  0  0  0
  -20.5281  -28.7714   24.7832 C   0  0  0  0  0  0  0  0  0  0  0  0
  -27.2555  -18.7756   22.6880 C   0  0  0  0  0  0  0  0  0  0  0  0
  -27.0002  -21.2359   22.1464 C   0  0  0  0  0  0  0  0  0  0  0  0
  -27.4734  -19.6456   20.3253 C   0  0  0  0  0  0  0  0  0  0  0  0
  -20.8163  -29.8447   23.7266 C   0  0  1  0  0  0  0  0  0  0  0  0
  -22.5281  -28.1895   20.7663 C   0  0  1  0  0  0  0  0  0  0  0  0
  -27.9466  -18.5774   21.3247 C   0  0  2  0  0  0  0  0  0  0  0  0
  -22.5843  -20.7083   18.7585 C   0  0  0  0  0  0  0  0  0  0  0  0
  -21.8254  -24.8437   23.8764 C   0  0  0  0  0  0  0  0  0  0  0  0
  -22.1364  -22.5063   23.0350 C   0  0  0  0  0  0  0  0  0  0  0  0
  -20.1139  -23.8089   22.3750 C   0  0  0  0  0  0  0  0  0  0  0  0
  -24.0270  -23.6073   16.7609 C   0  0  0  0  0  0  0  0  0  0  0  0
  -31.1608  -27.7384   20.1059 C   0  0  0  0  0  0  0  0  0  0  0  0
  -29.9089  -28.6077   20.1175 C   0  0  0  0  0  0  0  0  0  1  0  0
  -22.3589  -24.4201   21.3860 C   0  0  1  0  0  0  0  0  0  0  0  0
  -22.7678  -22.1660   18.3659 C   0  0  2  0  0  0  0  0  0  0  0  0
  -21.6275  -23.9151   22.6617 C   0  0  0  0  0  0  0  0  0  0  0  0
  -26.6036  -16.5238   21.0788 N   0  0  0  0  0  0  0  0  0  0  0  0
  -30.2731  -23.6891   18.8011 N   0  0  0  0  0  0  0  0  0  0  0  0
  -27.7459  -17.1711   20.7918 N   0  0  0  0  0  0  0  0  0  0  0  0
  -22.9200  -26.7908   20.9517 N   0  0  0  0  0  0  0  0  0  0  0  0
  -27.6982  -20.9886   20.8829 N   0  0  0  0  0  0  0  0  0  0  0  0
  -29.8066  -16.9480   19.6453 N   0  0  0  0  0  0  0  0  0  0  0  0
  -27.7635  -12.9907   18.8959 N   0  0  0  0  0  0  0  0  0  0  0  0
  -29.1344  -21.6455   19.1313 N   0  0  0  0  0  0  0  0  0  0  0  0
  -21.1453  -29.2301   22.4584 N   0  0  0  0  0  0  0  0  0  0  0  0
  -22.1668  -23.5744   20.2128 N   0  0  0  0  0  0  0  0  0  0  0  0
  -23.7663  -22.2331   17.2615 N   0  3  0  0  0  0  0  0  0  0  0  0
  -29.6661  -14.2082   18.5004 O   0  0  0  0  0  0  0  0  0  0  0  0
  -23.4130  -28.8706   22.8467 O   0  0  0  0  0  0  0  0  0  0  0  0
  -20.7378  -26.0096   20.6992 O   0  0  0  0  0  0  0  0  0  0  0  0
  -24.4135  -23.1312   19.8482 O   0  0  0  0  0  0  0  0  0  0  0  0
  -28.6195  -23.1086   20.8564 O   0  0  0  0  0  0  0  0  0  0  0  0
  -22.7367  -11.4747   20.7584 O   0  0  0  0  0  0  0  0  0  0  0  0
  -28.9555  -28.0635   21.0292 O   0  0  0  0  0  0  0  0  0  1  0  0
  -24.2501   -6.2802   21.8216 F   0  0  0  0  0  0  0  0  0  0  0  0
  -24.4564  -10.1239   19.0669 F   0  0  0  0  0  0  0  0  0  0  0  0
  1  2  1  0  0  0  0
  1  6  2  0  0  0  0
  2  7  2  0  0  0  0
  3  9  2  0  0  0  0
  3 17  1  0  0  0  0
  4 10  1  0  0  0  0
  4 17  2  0  0  0  0
  5 14  2  0  0  0  0
  5 18  1  0  0  0  0
  6 20  1  0  0  0  0
  7 22  1  0  0  0  0
  8 11  2  0  0  0  0
  8 21  1  0  0  0  0
  9 24  1  0  0  0  0
 10 24  2  0  0  0  0
 11 25  1  0  0  0  0
 12 13  2  0  0  0  0
 12 26  1  0  0  0  0
 13 27  1  0  0  0  0
 14 30  1  0  0  0  0
 15 23  1  0  0  0  0
 15 25  2  0  0  0  0
 16 27  2  0  0  0  0
 16 28  1  0  0  0  0
 17 29  1  0  0  0  0
 18 31  2  0  0  0  0
 18 34  1  0  0  0  0
 19 29  1  0  0  0  0
 19 32  2  0  0  0  0
 19 37  1  0  0  0  0
 20 22  2  0  0  0  0
 20 42  1  0  0  0  0
 21 23  2  0  0  0  0
 21 43  1  0  0  0  0
 22 51  1  0  0  0  0
 23 44  1  0  0  0  0
 24 80  1  0  0  0  0
 25 81  1  0  0  0  0
 26 28  2  0  0  0  0
 26 80  1  0  0  0  0
 27 82  1  0  0  0  0
 28 83  1  0  0  0  0
 29 64  2  0  0  0  0
 30 35  1  0  0  0  0
 30 65  2  0  0  0  0
 31 65  1  0  0  0  0
 31 71  1  0  0  0  0
 32 66  1  0  0  0  0
 32 69  1  0  0  0  0
 33 34  2  0  0  0  0
 35 36  2  0  0  0  0
 36 59  1  0  0  0  0
 37 70  1  0  0  0  0
 37 75  2  0  0  0  0
 38 52  1  0  0  0  0
 38 72  1  0  0  0  0
 38 76  2  0  0  0  0
 39 61  1  0  0  0  0
 39 67  1  0  0  0  0
 39 77  2  0  0  0  0
 40 62  1  0  0  0  0
 40 73  1  0  0  0  0
 40 78  2  0  0  0  0
 41 68  1  0  0  0  0
 41 71  1  0  0  0  0
 41 79  2  0  0  0  0
 42 45  1  0  0  0  0
 43 52  1  0  0  0  0
 44 67  1  0  0  0  0
 45 47  1  0  0  0  0
 46 48  1  0  0  0  0
 46 49  1  0  0  0  0
 47 51  1  0  0  0  0
 48 53  1  0  0  0  0
 49 68  1  0  0  0  0
 50 53  1  0  0  0  0
 50 68  1  0  0  0  0
 51 72  1  0  0  0  0
 52 67  1  0  0  0  0
 53 66  1  0  0  0  0
 54 62  1  0  0  0  0
 55 63  1  0  0  0  0
 56 63  1  0  0  0  0
 57 63  1  0  0  0  0
 58 74  1  0  0  0  0
 59 60  1  0  0  0  0
 60 81  1  0  0  0  0
 61 63  1  0  0  0  0
 61 73  1  0  0  0  0
 62 74  1  0  0  0  0
 64 66  1  0  0  0  0
M  CHG  1  74   1
M  ISO  4  41 100  60 101  71 100  81 101
M  END
> <Batch ID>
0117

> <Smiles>
C=Cc1ccc(C=CC[101CH2:1][101O:1]c2ccc3c(c2)CN(C(=O)C(NC(=O)C(C)NC)C(C)(C)C)C(C(=O)NC2CCCc4ccccc42)C3)nc1[100NH:0][100C:0](=O)N1CCCC(n2nc(-c3ccc(Oc4ccc(F)cc4F)cc3)c(C(N)=O)c2N)C1

> <Shape>
0.270

> <Color>
0.086

> <Negative vol penalty>
0.000

$$$$

  -OEChem-04052301463D

 86 95  0     1  0  0  0  0  0999 V2000
  -31.8414  -12.7187   21.5852 C   0  0  0  0  0  0  0  0  0  0  0  0
  -31.2528  -13.8488   22.1437 C   0  0  0  0  0  0  0  0  0  0  0  0
  -22.8260  -30.6283   20.6209 C   0  0  0  0  0  0  0  0  0  0  0  0
  -22.7054  -28.8452   22.2466 C   0  0  0  0  0  0  0  0  0  0  0  0
  -31.2302  -12.0748   20.5102 C   0  0  0  0  0  0  0  0  0  0  0  0
  -30.0530  -14.3362   21.6267 C   0  0  0  0  0  0  0  0  0  0  0  0
  -26.7294  -15.5543   25.2481 C   0  0  0  0  0  0  0  0  0  0  0  0
  -21.4409  -30.5792   20.4642 C   0  0  0  0  0  0  0  0  0  0  0  0
  -21.3202  -28.7961   22.0899 C   0  0  0  0  0  0  0  0  0  0  0  0
  -26.9264  -16.7642   25.9123 C   0  0  0  0  0  0  0  0  0  0  0  0
  -18.6317  -30.5481   23.1497 C   0  0  0  0  0  0  0  0  0  0  0  0
  -17.8528  -30.4702   24.3042 C   0  0  0  0  0  0  0  0  0  0  0  0
  -28.4317  -23.0851   22.6897 C   0  0  0  0  0  0  0  0  0  0  0  0
  -29.0061  -20.7975   22.1663 C   0  0  0  0  0  0  0  0  0  0  0  0
  -25.2361  -17.7908   24.5309 C   0  0  0  0  0  0  0  0  0  0  0  0
  -29.6307  -22.5759   20.6549 C   0  0  0  0  0  0  0  0  0  0  0  0
  -16.9342  -28.3694   23.5426 C   0  0  0  0  0  0  0  0  0  0  0  0
  -23.4583  -29.7612   21.5120 C   0  0  0  0  0  0  0  0  0  0  0  0
  -28.4150  -21.7298   23.0190 C   0  0  0  0  0  0  0  0  0  0  0  0
  -25.6142  -30.5967   22.5897 C   0  0  0  0  0  0  0  0  0  0  0  0
  -30.0174  -12.5490   19.9859 C   0  0  0  0  0  0  0  0  0  0  0  0
  -25.7904  -15.4562   24.2113 C   0  0  0  0  0  0  0  0  0  0  0  0
  -29.4256  -13.6988   20.5427 C   0  0  0  0  0  0  0  0  0  0  0  0
  -25.0272  -16.5779   23.8569 C   0  0  0  0  0  0  0  0  0  0  0  0
  -29.0395  -23.5081   21.5076 C   0  0  0  0  0  0  0  0  0  0  0  0
  -20.6879  -29.6632   21.1987 C   0  0  0  0  0  0  0  0  0  0  0  0
  -26.1817  -17.8834   25.5518 C   0  0  0  0  0  0  0  0  0  0  0  0
  -18.5618  -29.5367   22.1916 C   0  0  0  0  0  0  0  0  0  0  0  0
  -17.0041  -29.3808   24.5007 C   0  0  0  0  0  0  0  0  0  0  0  0
  -29.6140  -21.2205   20.9843 C   0  0  0  0  0  0  0  0  0  0  0  0
  -17.7131  -28.4473   22.3881 C   0  0  0  0  0  0  0  0  0  0  0  0
  -24.8892  -29.8111   21.6739 C   0  0  0  0  0  0  0  0  0  0  0  0
  -26.9290  -30.2836   22.3452 C   0  0  0  0  0  0  0  0  0  0  0  0
  -27.7718  -21.2820   24.2672 C   0  0  0  0  0  0  0  0  0  0  0  0
  -25.1416  -31.5263   23.5736 C   0  0  0  0  0  0  0  0  0  0  0  0
  -25.9359  -14.7724   21.1105 C   0  0  0  0  0  0  0  0  0  0  0  0
  -22.7019  -14.8942   21.3298 C   0  0  0  0  0  0  0  0  0  0  0  0
  -19.9517  -16.0637   22.9778 C   0  0  0  0  0  0  0  0  0  0  0  0
  -29.6188  -25.4717   20.0396 C   0  0  0  0  0  0  0  0  0  0  0  0
  -29.4186  -11.8472   18.7927 C   0  0  0  0  0  0  0  0  0  0  0  0
  -25.5709  -14.1371   23.5227 C   0  0  0  0  0  0  0  0  0  0  0  0
  -23.9922  -16.5198   22.7643 C   0  0  0  0  0  0  0  0  0  0  0  0
  -27.9561  -12.2077   18.5448 C   0  0  0  0  0  0  0  0  0  0  0  0
  -29.8387  -28.8155   18.8362 C   0  0  0  0  0  0  0  0  0  0  0  0
  -30.3277  -21.0980   26.8257 C   0  0  0  0  0  0  0  0  0  0  0  0
  -27.7566  -13.7176   18.6297 C   0  0  0  0  0  0  0  0  0  0  0  0
  -28.6640  -29.5232   19.5155 C   0  0  0  0  0  0  0  0  0  0  0  0
  -29.0520  -21.2518   27.6473 C   0  0  0  0  0  0  0  0  0  0  0  0
  -29.9179  -21.5557   25.4317 C   0  0  0  0  0  0  0  0  0  0  0  0
  -29.4897  -27.3788   18.4517 C   0  0  0  0  0  0  0  0  0  0  0  0
  -27.7824  -27.2632   20.2240 C   0  0  0  0  0  0  0  0  0  0  0  0
  -28.1118  -14.2434   20.0257 C   0  0  1  0  0  0  0  0  0  0  0  0
  -24.9527  -14.2827   22.1356 C   0  0  1  0  0  0  0  0  0  0  0  0
  -28.1074  -28.6924   20.6883 C   0  0  2  0  0  0  0  0  0  0  0  0
  -27.9363  -20.8198   26.6908 C   0  0  2  0  0  0  0  0  0  0  0  0
  -17.4438  -16.0253   22.8992 C   0  0  0  0  0  0  0  0  0  0  0  0
  -22.7459  -16.8939   19.0257 C   0  0  0  0  0  0  0  0  0  0  0  0
  -20.3957  -17.5219   19.6177 C   0  0  0  0  0  0  0  0  0  0  0  0
  -20.9179  -15.1921   18.8952 C   0  0  0  0  0  0  0  0  0  0  0  0
  -19.7728  -14.7659   25.6316 C   0  0  0  0  0  0  0  0  0  0  0  0
  -27.6783  -19.3206   26.7140 C   0  0  0  0  0  0  0  0  0  1  0  0
  -21.6602  -15.9767   21.1812 C   0  0  1  0  0  0  0  0  0  0  0  0
  -18.6935  -15.3647   23.4601 C   0  0  2  0  0  0  0  0  0  0  0  0
  -21.4507  -16.3981   19.6993 C   0  0  0  0  0  0  0  0  0  0  0  0
  -25.6779  -29.0558   20.9048 N   0  0  0  0  0  0  0  0  0  0  0  0
  -26.9122  -29.3655   21.3368 N   0  0  0  0  0  0  0  0  0  0  0  0
  -28.4873  -21.2083   25.3761 N   0  0  0  0  0  0  0  0  0  0  0  0
  -23.8188  -15.2091   22.1166 N   0  0  0  0  0  0  0  0  0  0  0  0
  -28.9730  -26.6515   19.6131 N   0  0  0  0  0  0  0  0  0  0  0  0
  -28.0863  -30.7070   22.8965 N   0  0  0  0  0  0  0  0  0  0  0  0
  -23.7598  -31.7288   23.6921 N   0  0  0  0  0  0  0  0  0  0  0  0
  -29.0579  -24.8850   21.1735 N   0  0  0  0  0  0  0  0  0  0  0  0
  -27.0432  -13.9596   20.9596 N   0  0  0  0  0  0  0  0  0  0  0  0
  -20.4561  -15.4773   21.8363 N   0  0  0  0  0  0  0  0  0  0  0  0
  -26.4814  -20.9610   24.2586 N   0  3  0  0  0  0  0  0  0  0  0  0
  -18.6177  -15.4027   24.9480 N   0  3  0  0  0  0  0  0  0  0  0  0
  -25.9222  -32.1709   24.3143 O   0  0  0  0  0  0  0  0  0  0  0  0
  -25.7063  -15.8101   20.5004 O   0  0  0  0  0  0  0  0  0  0  0  0
  -22.5273  -13.8067   20.7744 O   0  0  0  0  0  0  0  0  0  0  0  0
  -20.4364  -17.0352   23.5538 O   0  0  0  0  0  0  0  0  0  0  0  0
  -30.6139  -25.0304   19.4590 O   0  0  0  0  0  0  0  0  0  0  0  0
  -19.3363  -29.6152   21.0463 O   0  0  0  0  0  0  0  0  0  0  0  0
  -26.3725  -19.0658   26.1980 O   0  0  0  0  0  0  0  0  0  1  0  0
  -16.2574  -29.3053   25.6101 F   0  0  0  0  0  0  0  0  0  0  0  0
  -30.1816  -20.3252   20.1655 F   0  0  0  0  0  0  0  0  0  0  0  0
  -17.6425  -27.4721   21.4718 F   0  0  0  0  0  0  0  0  0  0  0  0
  1  2  1  0  0  0  0
  1  5  2  0  0  0  0
  2  6  2  0  0  0  0
  3  8  2  0  0  0  0
  3 18  1  0  0  0  0
  4  9  1  0  0  0  0
  4 18  2  0  0  0  0
  5 21  1  0  0  0  0
  6 23  1  0  0  0  0
  7 10  2  0  0  0  0
  7 22  1  0  0  0  0
  8 26  1  0  0  0  0
  9 26  2  0  0  0  0
 10 27  1  0  0  0  0
 11 12  2  0  0  0  0
 11 28  1  0  0  0  0
 12 29  1  0  0  0  0
 13 19  2  0  0  0  0
 13 25  1  0  0  0  0
 14 19  1  0  0  0  0
 14 30  2  0  0  0  0
 15 24  1  0  0  0  0
 15 27  2  0  0  0  0
 16 25  2  0  0  0  0
 16 30  1  0  0  0  0
 17 29  2  0  0  0  0
 17 31  1  0  0  0  0
 18 32  1  0  0  0  0
 19 34  1  0  0  0  0
 20 32  1  0  0  0  0
 20 33  2  0  0  0  0
 20 35  1  0  0  0  0
 21 23  2  0  0  0  0
 21 40  1  0  0  0  0
 22 24  2  0  0  0  0
 22 41  1  0  0  0  0
 23 52  1  0  0  0  0
 24 42  1  0  0  0  0
 25 72  1  0  0  0  0
 26 82  1  0  0  0  0
 27 83  1  0  0  0  0
 28 31  2  0  0  0  0
 28 82  1  0  0  0  0
 29 84  1  0  0  0  0
 30 85  1  0  0  0  0
 31 86  1  0  0  0  0
 32 65  2  0  0  0  0
 33 66  1  0  0  0  0
 33 70  1  0  0  0  0
 34 67  1  0  0  0  0
 34 75  2  0  0  0  0
 35 71  1  0  0  0  0
 35 77  2  0  0  0  0
 36 53  1  0  0  0  0
 36 73  1  0  0  0  0
 36 78  2  0  0  0  0
 37 62  1  0  0  0  0
 37 68  1  0  0  0  0
 37 79  2  0  0  0  0
 38 63  1  0  0  0  0
 38 74  1  0  0  0  0
 38 80  2  0  0  0  0
 39 69  1  0  0  0  0
 39 72  1  0  0  0  0
 39 81  2  0  0  0  0
 40 43  1  0  0  0  0
 41 53  1  0  0  0  0
 42 68  1  0  0  0  0
 43 46  1  0  0  0  0
 44 47  1  0  0  0  0
 44 50  1  0  0  0  0
 45 48  1  0  0  0  0
 45 49  1  0  0  0  0
 46 52  1  0  0  0  0
 47 54  1  0  0  0  0
 48 55  1  0  0  0  0
 49 67  1  0  0  0  0
 50 69  1  0  0  0  0
 51 54  1  0  0  0  0
 51 69  1  0  0  0  0
 52 73  1  0  0  0  0
 53 68  1  0  0  0  0
 54 66  1  0  0  0  0
 55 61  1  0  0  0  0
 55 67  1  0  0  0  0
 56 63  1  0  0  0  0
 57 64  1  0  0  0  0
 58 64  1  0  0  0  0
 59 64  1  0  0  0  0
 60 76  1  0  0  0  0
 61 83  1  0  0  0  0
 62 64  1  0  0  0  0
 62 74  1  0  0  0  0
 63 76  1  0  0  0  0
 65 66  1  0  0  0  0
M  CHG  2  75   1  76   1
M  ISO  4  39 100  61 101  72 100  83 101
M  END
> <Batch ID>
0117

> <Smiles>
CNC(C)C(=O)NC(C(=O)N1Cc2cc([101O:1][101CH2:1]C3CCCN3C(=N)c3cc(F)cc([100NH:0][100C:0](=O)N4CCCC(n5nc(-c6ccc(Oc7ccc(F)cc7F)cc6)c(C(N)=O)c5N)C4)c3)ccc2CC1C(=O)NC1CCCc2ccccc21)C(C)(C)C

> <Shape>
0.249

> <Color>
0.076

> <Negative vol penalty>
0.000

$$$$

  -OEChem-04052301463D

 85 93  0     1  0  0  0  0  0999 V2000
  -24.5797  -31.9768   21.5424 C   0  0  0  0  0  0  0  0  0  0  0  0
  -24.8646  -30.6186   21.6395 C   0  0  0  0  0  0  0  0  0  0  0  0
  -22.9904   -9.9616   19.9407 C   0  0  0  0  0  0  0  0  0  0  0  0
  -23.8614   -9.8429   22.1912 C   0  0  0  0  0  0  0  0  0  0  0  0
  -23.5567  -32.4150   20.7026 C   0  0  0  0  0  0  0  0  0  0  0  0
  -24.1258  -29.6976   20.8976 C   0  0  0  0  0  0  0  0  0  0  0  0
  -27.0438  -26.2076   18.6728 C   0  0  0  0  0  0  0  0  0  0  0  0
  -22.2254   -8.8194   20.1765 C   0  0  0  0  0  0  0  0  0  0  0  0
  -23.0963   -8.7006   22.4270 C   0  0  0  0  0  0  0  0  0  0  0  0
  -27.5189  -25.1702   19.4740 C   0  0  0  0  0  0  0  0  0  0  0  0
  -19.8790   -7.9662   23.1549 C   0  0  0  0  0  0  0  0  0  0  0  0
  -19.1793   -7.8939   24.3594 C   0  0  0  0  0  0  0  0  0  0  0  0
  -29.2936  -17.0712   20.0116 C   0  0  0  0  0  0  0  0  0  0  0  0
  -25.7834  -23.7266   18.6235 C   0  0  0  0  0  0  0  0  0  0  0  0
  -20.3966   -5.8911   24.9463 C   0  0  0  0  0  0  0  0  0  0  0  0
  -23.8085  -10.4734   20.9480 C   0  0  0  0  0  0  0  0  0  0  0  0
  -28.5601  -18.2915   20.0655 C   0  0  0  0  0  0  0  0  0  0  0  0
  -24.2196  -12.9909   20.9227 C   0  0  0  0  0  0  0  0  0  0  0  0
  -22.8114  -31.4998   19.9427 C   0  0  0  0  0  0  0  0  0  0  0  0
  -25.9264  -26.0152   17.8477 C   0  0  0  0  0  0  0  0  0  0  0  0
  -23.0910  -30.1239   20.0479 C   0  0  0  0  0  0  0  0  0  0  0  0
  -25.2977  -24.7624   17.8109 C   0  0  0  0  0  0  0  0  0  0  0  0
  -22.2783   -8.1889   21.4196 C   0  0  0  0  0  0  0  0  0  0  0  0
  -26.8869  -23.9303   19.4516 C   0  0  0  0  0  0  0  0  0  0  0  0
  -20.8374   -7.0009   22.8460 C   0  0  0  0  0  0  0  0  0  0  0  0
  -19.4381   -6.8564   25.2551 C   0  0  0  0  0  0  0  0  0  0  0  0
  -21.0962   -5.9634   23.7417 C   0  0  0  0  0  0  0  0  0  0  0  0
  -24.5994  -11.6529   20.7049 C   0  0  0  0  0  0  0  0  0  0  0  0
  -29.5940  -16.5921   21.2677 C   0  0  0  0  0  0  0  0  0  0  0  0
  -28.3276  -18.6986   21.3609 C   0  0  0  0  0  0  0  0  0  0  0  0
  -25.3147  -13.7255   20.5385 C   0  0  0  0  0  0  0  0  0  0  0  0
  -28.1160  -19.0103   18.9277 C   0  0  0  0  0  0  0  0  0  0  0  0
  -28.3725  -20.8921   22.0023 C   0  0  0  0  0  0  0  0  0  0  0  0
  -22.9872  -13.5221   21.4272 C   0  0  0  0  0  0  0  0  0  0  0  0
  -30.3077  -15.4101   21.6286 C   0  0  0  0  0  0  0  0  0  0  0  0
  -28.8828  -19.5396   17.9148 C   0  0  0  0  0  0  0  0  0  0  0  0
  -30.8571  -14.4787   20.6167 C   0  0  0  0  0  0  0  0  0  0  0  0
  -23.0250  -27.3005   17.6651 C   0  0  0  0  0  0  0  0  0  0  0  0
  -22.8078  -25.4709   14.9954 C   0  0  0  0  0  0  0  0  0  0  0  0
  -23.8767  -22.7290   13.2673 C   0  0  0  0  0  0  0  0  0  0  0  0
  -21.6839  -32.0169   19.0847 C   0  0  0  0  0  0  0  0  0  0  0  0
  -25.4427  -27.1364   16.9695 C   0  0  0  0  0  0  0  0  0  0  0  0
  -24.1069  -24.4985   16.9273 C   0  0  0  0  0  0  0  0  0  0  0  0
  -21.1958  -31.0086   18.0477 C   0  0  0  0  0  0  0  0  0  0  0  0
  -29.4977  -12.3688   18.0560 C   0  0  0  0  0  0  0  0  0  0  0  0
  -21.0044  -29.6365   18.6861 C   0  0  0  0  0  0  0  0  0  0  0  0
  -28.0839  -12.0733   18.5556 C   0  0  0  0  0  0  0  0  0  0  0  0
  -30.4848  -12.4892   19.2125 C   0  0  0  0  0  0  0  0  0  0  0  0
  -28.6724  -13.2089   20.7441 C   0  0  0  0  0  0  0  0  0  0  0  0
  -22.3282  -29.0962   19.2402 C   0  0  1  0  0  0  0  0  0  0  0  0
  -23.9833  -26.9818   16.5526 C   0  0  1  0  0  0  0  0  0  0  0  0
  -27.6420  -13.1079   19.6059 C   0  0  2  0  0  0  0  0  0  0  0  0
  -28.2720  -20.3008   16.7688 C   0  0  0  0  0  0  0  0  0  0  0  0
  -30.3789  -19.4011   17.8426 C   0  0  0  0  0  0  0  0  0  0  0  0
  -23.4870  -21.4718   11.1308 C   0  0  0  0  0  0  0  0  0  0  0  0
  -20.2300  -24.3154   16.1484 C   0  0  0  0  0  0  0  0  0  0  0  0
  -20.4063  -22.4493   14.4887 C   0  0  0  0  0  0  0  0  0  0  0  0
  -20.1505  -24.8007   13.6963 C   0  0  0  0  0  0  0  0  0  0  0  0
  -26.6635  -23.1604   12.3694 C   0  0  0  0  0  0  0  0  0  0  0  0
  -27.7521  -22.1762   22.4840 C   0  0  0  0  0  0  0  0  0  0  0  0
  -27.9770  -23.2777   21.4620 C   0  0  0  0  0  0  0  0  0  1  0  0
  -22.3513  -24.0630   14.6984 C   0  0  1  0  0  0  0  0  0  0  0  0
  -24.3036  -22.5531   11.8212 C   0  0  2  0  0  0  0  0  0  0  0  0
  -20.8057  -23.9123   14.7762 C   0  0  0  0  0  0  0  0  0  0  0  0
  -25.8389  -11.5412   20.2198 N   0  0  0  0  0  0  0  0  0  0  0  0
  -30.5470  -15.0363   22.8726 N   0  0  0  0  0  0  0  0  0  0  0  0
  -27.6471  -19.8364   21.8259 N   0  0  0  0  0  0  0  0  0  0  0  0
  -26.2474  -12.8183   20.1296 N   0  0  0  0  0  0  0  0  0  0  0  0
  -30.0177  -13.4518   20.2082 N   0  0  0  0  0  0  0  0  0  0  0  0
  -23.6675  -25.6283   16.0917 N   0  0  0  0  0  0  0  0  0  0  0  0
  -25.5612  -15.0526   20.5140 N   0  0  0  0  0  0  0  0  0  0  0  0
  -21.9662  -12.6270   21.7744 N   0  0  0  0  0  0  0  0  0  0  0  0
  -23.1524  -28.5814   18.1678 N   0  0  0  0  0  0  0  0  0  0  0  0
  -22.9212  -23.7140   13.4016 N   0  0  0  0  0  0  0  0  0  0  0  0
  -25.7429  -22.1735   11.7485 N   0  3  0  0  0  0  0  0  0  0  0  0
  -22.7911  -14.7550   21.5507 O   0  0  0  0  0  0  0  0  0  0  0  0
  -31.9998  -14.7156   20.2473 O   0  0  0  0  0  0  0  0  0  0  0  0
  -22.2279  -26.4480   18.0388 O   0  0  0  0  0  0  0  0  0  0  0  0
  -22.4218  -26.3961   14.2766 O   0  0  0  0  0  0  0  0  0  0  0  0
  -24.3415  -22.0571   14.1855 O   0  0  0  0  0  0  0  0  0  0  0  0
  -21.5317   -7.0744   21.6501 O   0  0  0  0  0  0  0  0  0  0  0  0
  -27.3482  -22.9162   20.2331 O   0  0  0  0  0  0  0  0  0  1  0  0
  -18.7673   -6.7880   26.4125 F   0  0  0  0  0  0  0  0  0  0  0  0
  -22.0166   -5.0338   23.4511 F   0  0  0  0  0  0  0  0  0  0  0  0
  -28.9925  -17.6118   22.5050 S   0  0  0  0  0  0  0  0  0  0  0  0
  1  2  1  0  0  0  0
  1  5  2  0  0  0  0
  2  6  2  0  0  0  0
  3  8  2  0  0  0  0
  3 16  1  0  0  0  0
  4  9  1  0  0  0  0
  4 16  2  0  0  0  0
  5 19  1  0  0  0  0
  6 21  1  0  0  0  0
  7 10  2  0  0  0  0
  7 20  1  0  0  0  0
  8 23  1  0  0  0  0
  9 23  2  0  0  0  0
 10 24  1  0  0  0  0
 11 12  2  0  0  0  0
 11 25  1  0  0  0  0
 12 26  1  0  0  0  0
 13 17  1  0  0  0  0
 13 29  2  0  0  0  0
 14 22  1  0  0  0  0
 14 24  2  0  0  0  0
 15 26  2  0  0  0  0
 15 27  1  0  0  0  0
 16 28  1  0  0  0  0
 17 30  2  0  0  0  0
 17 32  1  0  0  0  0
 18 28  1  0  0  0  0
 18 31  2  0  0  0  0
 18 34  1  0  0  0  0
 19 21  2  0  0  0  0
 19 41  1  0  0  0  0
 20 22  2  0  0  0  0
 20 42  1  0  0  0  0
 21 50  1  0  0  0  0
 22 43  1  0  0  0  0
 23 81  1  0  0  0  0
 24 82  1  0  0  0  0
 25 27  2  0  0  0  0
 25 81  1  0  0  0  0
 26 83  1  0  0  0  0
 27 84  1  0  0  0  0
 28 65  2  0  0  0  0
 29 35  1  0  0  0  0
 29 85  1  0  0  0  0
 30 67  1  0  0  0  0
 30 85  1  0  0  0  0
 31 68  1  0  0  0  0
 31 71  1  0  0  0  0
 32 36  2  0  0  0  0
 33 60  1  0  0  0  0
 33 67  2  0  0  0  0
 34 72  1  0  0  0  0
 34 76  2  0  0  0  0
 35 37  1  0  0  0  0
 35 66  2  0  0  0  0
 36 53  1  0  0  0  0
 36 54  1  0  0  0  0
 37 69  1  0  0  0  0
 37 77  2  0  0  0  0
 38 51  1  0  0  0  0
 38 73  1  0  0  0  0
 38 78  2  0  0  0  0
 39 62  1  0  0  0  0
 39 70  1  0  0  0  0
 39 79  2  0  0  0  0
 40 63  1  0  0  0  0
 40 74  1  0  0  0  0
 40 80  2  0  0  0  0
 41 44  1  0  0  0  0
 42 51  1  0  0  0  0
 43 70  1  0  0  0  0
 44 46  1  0  0  0  0
 45 47  1  0  0  0  0
 45 48  1  0  0  0  0
 46 50  1  0  0  0  0
 47 52  1  0  0  0  0
 48 69  1  0  0  0  0
 49 52  1  0  0  0  0
 49 69  1  0  0  0  0
 50 73  1  0  0  0  0
 51 70  1  0  0  0  0
 52 68  1  0  0  0  0
 55 63  1  0  0  0  0
 56 64  1  0  0  0  0
 57 64  1  0  0  0  0
 58 64  1  0  0  0  0
 59 75  1  0  0  0  0
 60 61  1  0  0  0  0
 61 82  1  0  0  0  0
 62 64  1  0  0  0  0
 62 74  1  0  0  0  0
 63 75  1  0  0  0  0
 65 68  1  0  0  0  0
M  CHG  1  75   1
M  ISO  4  35 100  37 100  61 101  82 101
M  END
> <Batch ID>
0117

> <Smiles>
CNC(C)C(=O)NC(C(=O)N1Cc2cc([101O:1][101CH2:1]C=CNc3sc([100C:0](=N)[100C:0](=O)N4CCCC(n5nc(-c6ccc(Oc7ccc(F)cc7F)cc6)c(C(N)=O)c5N)C4)cc3C=C(C)C)ccc2CC1C(=O)NC1CCCc2ccccc21)C(C)(C)C

> <Shape>
0.262

> <Color>
0.187

> <Negative vol penalty>
0.000

$$$$

  -OEChem-04052301463D

 84 92  0     1  0  0  0  0  0999 V2000
  -29.3092  -33.4467   15.9267 C   0  0  0  0  0  0  0  0  0  0  0  0
  -29.4052  -32.3144   16.7292 C   0  0  0  0  0  0  0  0  0  0  0  0
  -23.3560   -9.7746   21.0213 C   0  0  0  0  0  0  0  0  0  0  0  0
  -24.0800  -10.5148   23.2042 C   0  0  0  0  0  0  0  0  0  0  0  0
  -28.6131  -34.5656   16.3822 C   0  0  0  0  0  0  0  0  0  0  0  0
  -28.8059  -32.3006   17.9882 C   0  0  0  0  0  0  0  0  0  0  0  0
  -26.2896  -28.0006   18.8953 C   0  0  0  0  0  0  0  0  0  0  0  0
  -22.7216   -8.6774   21.6037 C   0  0  0  0  0  0  0  0  0  0  0  0
  -23.4455   -9.4176   23.7866 C   0  0  0  0  0  0  0  0  0  0  0  0
  -27.0447  -26.8838   19.2505 C   0  0  0  0  0  0  0  0  0  0  0  0
  -23.6022   -5.6538   22.8312 C   0  0  0  0  0  0  0  0  0  0  0  0
  -23.7794   -4.4084   22.2286 C   0  0  0  0  0  0  0  0  0  0  0  0
  -28.3150  -18.3733   20.8271 C   0  0  0  0  0  0  0  0  0  0  0  0
  -28.8551  -17.1313   18.8265 C   0  0  0  0  0  0  0  0  0  0  0  0
  -26.4978  -27.2592   21.5698 C   0  0  0  0  0  0  0  0  0  0  0  0
  -27.3809  -19.0413   18.7015 C   0  0  0  0  0  0  0  0  0  0  0  0
  -21.3950   -4.2388   21.8778 C   0  0  0  0  0  0  0  0  0  0  0  0
  -24.0353  -10.6932   21.8215 C   0  0  0  0  0  0  0  0  0  0  0  0
  -28.9864  -17.3227   20.2019 C   0  0  0  0  0  0  0  0  0  0  0  0
  -24.1376  -13.0970   20.9735 C   0  0  0  0  0  0  0  0  0  0  0  0
  -27.9968  -34.5620   17.6434 C   0  0  0  0  0  0  0  0  0  0  0  0
  -25.6407  -28.7628   19.8773 C   0  0  0  0  0  0  0  0  0  0  0  0
  -28.1020  -33.4210   18.4615 C   0  0  0  0  0  0  0  0  0  0  0  0
  -25.7329  -28.3837   21.2242 C   0  0  0  0  0  0  0  0  0  0  0  0
  -22.7663   -8.4989   22.9864 C   0  0  0  0  0  0  0  0  0  0  0  0
  -27.1513  -26.5146   20.5882 C   0  0  0  0  0  0  0  0  0  0  0  0
  -22.3213   -6.1916   22.9572 C   0  0  0  0  0  0  0  0  0  0  0  0
  -27.5122  -19.2326   20.0769 C   0  0  0  0  0  0  0  0  0  0  0  0
  -22.6759   -3.7009   21.7518 C   0  0  0  0  0  0  0  0  0  0  0  0
  -28.0523  -17.9906   18.0762 C   0  0  0  0  0  0  0  0  0  0  0  0
  -21.2178   -5.4841   22.4805 C   0  0  0  0  0  0  0  0  0  0  0  0
  -24.6914  -11.8265   21.2204 C   0  0  0  0  0  0  0  0  0  0  0  0
  -25.1586  -13.8099   20.3940 C   0  0  0  0  0  0  0  0  0  0  0  0
  -27.9000  -23.2839   21.9638 C   0  0  0  0  0  0  0  0  0  0  0  0
  -27.0454  -22.2504   21.9710 C   0  0  0  0  0  0  0  0  0  0  0  0
  -29.8235  -16.4265   20.9839 C   0  0  0  0  0  0  0  0  0  0  0  0
  -22.8182  -13.5888   21.2438 C   0  0  0  0  0  0  0  0  0  0  0  0
  -30.5497  -15.3015   20.3513 C   0  0  0  0  0  0  0  0  0  0  0  0
  -25.8403  -31.7741   20.8751 C   0  0  0  0  0  0  0  0  0  0  0  0
  -23.2864  -30.9324   22.6894 C   0  0  0  0  0  0  0  0  0  0  0  0
  -21.5058  -28.4507   24.2116 C   0  0  0  0  0  0  0  0  0  0  0  0
  -27.2953  -35.8122   18.1122 C   0  0  0  0  0  0  0  0  0  0  0  0
  -24.8080  -29.9491   19.4752 C   0  0  0  0  0  0  0  0  0  0  0  0
  -25.0389  -29.1566   22.3148 C   0  0  0  0  0  0  0  0  0  0  0  0
  -26.3707  -35.5812   19.3046 C   0  0  0  0  0  0  0  0  0  0  0  0
  -29.6347  -12.3082   18.6022 C   0  0  0  0  0  0  0  0  0  0  0  0
  -27.0712  -34.7424   20.3687 C   0  0  0  0  0  0  0  0  0  0  0  0
  -28.2367  -11.9999   19.1375 C   0  0  0  0  0  0  0  0  0  0  0  0
  -30.5188  -12.9324   19.6769 C   0  0  0  0  0  0  0  0  0  0  0  0
  -28.5324  -13.8547   20.8397 C   0  0  0  0  0  0  0  0  0  0  0  0
  -27.4444  -33.3587   19.8231 C   0  0  1  0  0  0  0  0  0  0  0  0
  -24.6112  -30.9523   20.6075 C   0  0  1  0  0  0  0  0  0  0  0  0
  -27.6017  -13.2486   19.7748 C   0  0  2  0  0  0  0  0  0  0  0  0
  -19.4869  -28.0750   25.6540 C   0  0  0  0  0  0  0  0  0  0  0  0
  -24.8340  -31.9466   25.1155 C   0  0  0  0  0  0  0  0  0  0  0  0
  -23.2234  -30.7040   26.5751 C   0  0  0  0  0  0  0  0  0  0  0  0
  -22.4056  -32.5442   25.1028 C   0  0  0  0  0  0  0  0  0  0  0  0
  -20.2022  -26.7732   22.1511 C   0  0  0  0  0  0  0  0  0  0  0  0
  -27.4781  -24.7101   22.1024 C   0  0  0  0  0  0  0  0  0  1  0  0
  -27.4681  -20.8233   21.8442 C   0  0  0  0  0  0  0  0  0  0  0  0
  -23.1012  -30.3450   24.0676 C   0  0  1  0  0  0  0  0  0  0  0  0
  -20.0192  -28.1440   24.2310 C   0  0  2  0  0  0  0  0  0  0  0  0
  -23.4058  -31.3713   25.1951 C   0  0  0  0  0  0  0  0  0  0  0  0
  -25.9653  -11.7345   20.8296 N   0  0  0  0  0  0  0  0  0  0  0  0
  -29.9935  -16.5472   22.2728 N   0  0  0  0  0  0  0  0  0  0  0  0
  -26.2204  -12.9563   20.3312 N   0  0  0  0  0  0  0  0  0  0  0  0
  -29.8714  -14.0925   20.2859 N   0  0  0  0  0  0  0  0  0  0  0  0
  -24.2418  -30.3124   21.8718 N   0  0  0  0  0  0  0  0  0  0  0  0
  -25.2427  -15.0774   19.9371 N   0  0  0  0  0  0  0  0  0  0  0  0
  -21.8926  -12.7238   21.8432 N   0  0  0  0  0  0  0  0  0  0  0  0
  -26.2803  -32.4998   19.7846 N   0  0  0  0  0  0  0  0  0  0  0  0
  -21.7468  -29.8039   24.1021 N   0  0  0  0  0  0  0  0  0  0  0  0
  -19.7509  -26.8381   23.5650 N   0  3  0  0  0  0  0  0  0  0  0  0
  -22.4654  -14.7554   20.9471 O   0  0  0  0  0  0  0  0  0  0  0  0
  -31.6775  -15.5601   19.9517 O   0  0  0  0  0  0  0  0  0  0  0  0
  -26.3507  -31.7527   21.9890 O   0  0  0  0  0  0  0  0  0  0  0  0
  -22.6032  -31.9012   22.3481 O   0  0  0  0  0  0  0  0  0  0  0  0
  -22.3671  -27.5774   24.2898 O   0  0  0  0  0  0  0  0  0  0  0  0
  -22.1471   -7.4285   23.5551 O   0  0  0  0  0  0  0  0  0  0  0  0
  -27.8883  -25.4253   20.9377 O   0  0  0  0  0  0  0  0  0  1  0  0
  -26.8529  -20.2655   20.6915 O   0  0  0  0  0  0  0  0  0  0  0  0
  -22.8464   -2.5057   21.1718 F   0  0  0  0  0  0  0  0  0  0  0  0
  -27.9258  -17.8068   16.7555 F   0  0  0  0  0  0  0  0  0  0  0  0
  -19.9850   -5.9963   22.5977 F   0  0  0  0  0  0  0  0  0  0  0  0
  1  2  1  0  0  0  0
  1  5  2  0  0  0  0
  2  6  2  0  0  0  0
  3  8  2  0  0  0  0
  3 18  1  0  0  0  0
  4  9  1  0  0  0  0
  4 18  2  0  0  0  0
  5 21  1  0  0  0  0
  6 23  1  0  0  0  0
  7 10  2  0  0  0  0
  7 22  1  0  0  0  0
  8 25  1  0  0  0  0
  9 25  2  0  0  0  0
 10 26  1  0  0  0  0
 11 12  2  0  0  0  0
 11 27  1  0  0  0  0
 12 29  1  0  0  0  0
 13 19  1  0  0  0  0
 13 28  2  0  0  0  0
 14 19  2  0  0  0  0
 14 30  1  0  0  0  0
 15 24  1  0  0  0  0
 15 26  2  0  0  0  0
 16 28  1  0  0  0  0
 16 30  2  0  0  0  0
 17 29  2  0  0  0  0
 17 31  1  0  0  0  0
 18 32  1  0  0  0  0
 19 36  1  0  0  0  0
 20 32  1  0  0  0  0
 20 33  2  0  0  0  0
 20 37  1  0  0  0  0
 21 23  2  0  0  0  0
 21 42  1  0  0  0  0
 22 24  2  0  0  0  0
 22 43  1  0  0  0  0
 23 51  1  0  0  0  0
 24 44  1  0  0  0  0
 25 79  1  0  0  0  0
 26 80  1  0  0  0  0
 27 31  2  0  0  0  0
 27 79  1  0  0  0  0
 28 81  1  0  0  0  0
 29 82  1  0  0  0  0
 30 83  1  0  0  0  0
 31 84  1  0  0  0  0
 32 64  2  0  0  0  0
 33 66  1  0  0  0  0
 33 69  1  0  0  0  0
 34 35  2  0  0  0  0
 34 59  1  0  0  0  0
 35 60  1  0  0  0  0
 36 38  1  0  0  0  0
 36 65  2  0  0  0  0
 37 70  1  0  0  0  0
 37 74  2  0  0  0  0
 38 67  1  0  0  0  0
 38 75  2  0  0  0  0
 39 52  1  0  0  0  0
 39 71  1  0  0  0  0
 39 76  2  0  0  0  0
 40 61  1  0  0  0  0
 40 68  1  0  0  0  0
 40 77  2  0  0  0  0
 41 62  1  0  0  0  0
 41 72  1  0  0  0  0
 41 78  2  0  0  0  0
 42 45  1  0  0  0  0
 43 52  1  0  0  0  0
 44 68  1  0  0  0  0
 45 47  1  0  0  0  0
 46 48  1  0  0  0  0
 46 49  1  0  0  0  0
 47 51  1  0  0  0  0
 48 53  1  0  0  0  0
 49 67  1  0  0  0  0
 50 53  1  0  0  0  0
 50 67  1  0  0  0  0
 51 71  1  0  0  0  0
 52 68  1  0  0  0  0
 53 66  1  0  0  0  0
 54 62  1  0  0  0  0
 55 63  1  0  0  0  0
 56 63  1  0  0  0  0
 57 63  1  0  0  0  0
 58 73  1  0  0  0  0
 59 80  1  0  0  0  0
 60 81  1  0  0  0  0
 61 63  1  0  0  0  0
 61 72  1  0  0  0  0
 62 73  1  0  0  0  0
 64 66  1  0  0  0  0
M  CHG  1  73   1
M  ISO  4  36 100  38 100  59 101  80 101
M  END
> <Batch ID>
0117

> <Smiles>
CNC(C)C(=O)NC(C(=O)N1Cc2cc([101O:1][101CH2:1]C=CCOc3cc(F)cc([100C:0](=N)[100C:0](=O)N4CCCC(n5nc(-c6ccc(Oc7ccc(F)cc7F)cc6)c(C(N)=O)c5N)C4)c3)ccc2CC1C(=O)NC1CCCc2ccccc21)C(C)(C)C

> <Shape>
0.316

> <Color>
0.177

> <Negative vol penalty>
0.000

$$$$

  -OEChem-04052301463D

 85 93  0     1  0  0  0  0  0999 V2000
  -18.0475  -24.6205   21.8377 C   0  0  0  0  0  0  0  0  0  0  0  0
  -19.4119  -24.3546   21.7818 C   0  0  0  0  0  0  0  0  0  0  0  0
  -21.8939  -14.7732   20.3642 C   0  0  0  0  0  0  0  0  0  0  0  0
  -22.7653  -15.0579   22.5995 C   0  0  0  0  0  0  0  0  0  0  0  0
  -17.6008  -25.9067   22.1378 C   0  0  0  0  0  0  0  0  0  0  0  0
  -20.3305  -25.3752   22.0249 C   0  0  0  0  0  0  0  0  0  0  0  0
  -24.0959  -23.9129   25.0791 C   0  0  0  0  0  0  0  0  0  0  0  0
  -20.6978  -14.2874   20.8923 C   0  0  0  0  0  0  0  0  0  0  0  0
  -21.5692  -14.5721   23.1277 C   0  0  0  0  0  0  0  0  0  0  0  0
  -25.1116  -23.1431   24.5140 C   0  0  0  0  0  0  0  0  0  0  0  0
  -17.9008  -15.5576   22.3052 C   0  0  0  0  0  0  0  0  0  0  0  0
  -16.7096  -16.0427   21.7655 C   0  0  0  0  0  0  0  0  0  0  0  0
  -30.9618  -18.8099   20.5787 C   0  0  0  0  0  0  0  0  0  0  0  0
  -30.8014  -17.3877   18.6324 C   0  0  0  0  0  0  0  0  0  0  0  0
  -26.5019  -25.1078   24.3515 C   0  0  0  0  0  0  0  0  0  0  0  0
  -30.7456  -19.7899   18.3810 C   0  0  0  0  0  0  0  0  0  0  0  0
  -16.0877  -13.7987   21.1214 C   0  0  0  0  0  0  0  0  0  0  0  0
  -22.9277  -15.1584   21.2178 C   0  0  0  0  0  0  0  0  0  0  0  0
  -30.9269  -17.5351   20.0137 C   0  0  0  0  0  0  0  0  0  0  0  0
  -24.4816  -16.9993   20.3785 C   0  0  0  0  0  0  0  0  0  0  0  0
  -18.5143  -26.9413   22.3942 C   0  0  0  0  0  0  0  0  0  0  0  0
  -24.2717  -25.2903   25.2750 C   0  0  0  0  0  0  0  0  0  0  0  0
  -19.8956  -26.6768   22.3274 C   0  0  0  0  0  0  0  0  0  0  0  0
  -25.4878  -25.8924   24.9217 C   0  0  0  0  0  0  0  0  0  0  0  0
  -20.5355  -14.1868   22.2741 C   0  0  0  0  0  0  0  0  0  0  0  0
  -26.3138  -23.7410   24.1474 C   0  0  0  0  0  0  0  0  0  0  0  0
  -18.1856  -14.1931   22.2529 C   0  0  0  0  0  0  0  0  0  0  0  0
  -30.8711  -19.9373   19.7624 C   0  0  0  0  0  0  0  0  0  0  0  0
  -15.8030  -15.1632   21.1737 C   0  0  0  0  0  0  0  0  0  0  0  0
  -30.7108  -18.5151   17.8160 C   0  0  0  0  0  0  0  0  0  0  0  0
  -17.2791  -13.3136   21.6610 C   0  0  0  0  0  0  0  0  0  0  0  0
  -24.1637  -15.6598   20.6728 C   0  0  0  0  0  0  0  0  0  0  0  0
  -25.7629  -16.9480   19.8864 C   0  0  0  0  0  0  0  0  0  0  0  0
  -31.0214  -16.3594   20.8647 C   0  0  0  0  0  0  0  0  0  0  0  0
  -23.6895  -18.1840   20.5359 C   0  0  0  0  0  0  0  0  0  0  0  0
  -30.9875  -14.9920   20.2970 C   0  0  0  0  0  0  0  0  0  0  0  0
  -22.8396  -27.9115   24.1877 C   0  0  0  0  0  0  0  0  0  0  0  0
  -28.7187  -22.6664   21.6530 C   0  0  0  0  0  0  0  0  0  0  0  0
  -24.8007  -29.3909   26.3062 C   0  0  0  0  0  0  0  0  0  0  0  0
  -27.6900  -29.3148   28.1208 C   0  0  0  0  0  0  0  0  0  0  0  0
  -17.9842  -28.3265   22.6678 C   0  0  0  0  0  0  0  0  0  0  0  0
  -23.1763  -26.1018   25.9104 C   0  0  0  0  0  0  0  0  0  0  0  0
  -25.7343  -27.3636   25.1297 C   0  0  0  0  0  0  0  0  0  0  0  0
  -19.0203  -29.2650   23.2811 C   0  0  0  0  0  0  0  0  0  0  0  0
  -28.6072  -13.0193   18.4806 C   0  0  0  0  0  0  0  0  0  0  0  0
  -20.3418  -29.1683   22.5254 C   0  0  0  0  0  0  0  0  0  0  0  0
  -27.2632  -13.6165   18.8963 C   0  0  0  0  0  0  0  0  0  0  0  0
  -29.6143  -13.0602   19.6254 C   0  0  0  0  0  0  0  0  0  0  0  0
  -28.4777  -15.0292   20.6151 C   0  0  0  0  0  0  0  0  0  0  0  0
  -20.9228  -27.7516   22.6094 C   0  0  1  0  0  0  0  0  0  0  0  0
  -23.2727  -27.5903   25.5902 C   0  0  1  0  0  0  0  0  0  0  0  0
  -27.4431  -15.0307   19.4763 C   0  0  2  0  0  0  0  0  0  0  0  0
  -29.0411  -30.6849   29.7317 C   0  0  0  0  0  0  0  0  0  0  0  0
  -25.7452  -31.1593   24.0061 C   0  0  0  0  0  0  0  0  0  0  0  0
  -27.7081  -31.8205   25.4125 C   0  0  0  0  0  0  0  0  0  0  0  0
  -25.3941  -32.3620   26.1705 C   0  0  0  0  0  0  0  0  0  0  0  0
  -27.4648  -27.2593   30.2382 C   0  0  0  0  0  0  0  0  0  0  0  0
  -29.6759  -23.2492   20.6238 C   0  0  0  0  0  0  0  0  0  0  0  0
  -28.1798  -23.6473   22.6760 C   0  0  0  0  0  0  0  0  0  1  0  0
  -30.1915  -22.2128   19.6358 C   0  0  0  0  0  0  0  0  0  0  0  0
  -26.1956  -29.9655   26.2506 C   0  0  1  0  0  0  0  0  0  0  0  0
  -27.9699  -29.6159   29.5822 C   0  0  2  0  0  0  0  0  0  0  0  0
  -26.2557  -31.2995   25.4541 C   0  0  0  0  0  0  0  0  0  0  0  0
  -25.1625  -14.8190   20.3911 N   0  0  0  0  0  0  0  0  0  0  0  0
  -31.1424  -16.4226   22.1632 N   0  0  0  0  0  0  0  0  0  0  0  0
  -26.1205  -15.6321   19.9145 N   0  0  0  0  0  0  0  0  0  0  0  0
  -29.7340  -14.4087   20.1761 N   0  0  0  0  0  0  0  0  0  0  0  0
  -24.6303  -28.1157   25.7487 N   0  0  0  0  0  0  0  0  0  0  0  0
  -26.6072  -17.9005   19.4367 N   0  0  0  0  0  0  0  0  0  0  0  0
  -22.3942  -18.0575   21.0561 N   0  0  0  0  0  0  0  0  0  0  0  0
  -21.5417  -27.5349   23.8995 N   0  0  0  0  0  0  0  0  0  0  0  0
  -26.6476  -30.0745   27.6335 N   0  0  0  0  0  0  0  0  0  0  0  0
  -28.4322  -28.3858   30.2851 N   0  3  0  0  0  0  0  0  0  0  0  0
  -24.1116  -19.3191   20.2091 O   0  0  0  0  0  0  0  0  0  0  0  0
  -32.0753  -14.5198   19.9938 O   0  0  0  0  0  0  0  0  0  0  0  0
  -23.6244  -28.4617   23.4241 O   0  0  0  0  0  0  0  0  0  0  0  0
  -28.3953  -21.4798   21.6612 O   0  0  0  0  0  0  0  0  0  0  0  0
  -23.8972  -30.0461   26.8314 O   0  0  0  0  0  0  0  0  0  0  0  0
  -28.3343  -28.4911   27.4752 O   0  0  0  0  0  0  0  0  0  0  0  0
  -19.3684  -13.7130   22.7898 O   0  0  0  0  0  0  0  0  0  0  0  0
  -27.3067  -22.9921   23.5950 O   0  0  0  0  0  0  0  0  0  1  0  0
  -30.9060  -21.1894   20.3177 O   0  0  0  0  0  0  0  0  0  0  0  0
  -14.6584  -15.6289   20.6569 F   0  0  0  0  0  0  0  0  0  0  0  0
  -30.5898  -18.3737   16.4896 F   0  0  0  0  0  0  0  0  0  0  0  0
  -17.5466  -12.0016   21.6089 F   0  0  0  0  0  0  0  0  0  0  0  0
  1  2  1  0  0  0  0
  1  5  2  0  0  0  0
  2  6  2  0  0  0  0
  3  8  2  0  0  0  0
  3 18  1  0  0  0  0
  4  9  1  0  0  0  0
  4 18  2  0  0  0  0
  5 21  1  0  0  0  0
  6 23  1  0  0  0  0
  7 10  2  0  0  0  0
  7 22  1  0  0  0  0
  8 25  1  0  0  0  0
  9 25  2  0  0  0  0
 10 26  1  0  0  0  0
 11 12  2  0  0  0  0
 11 27  1  0  0  0  0
 12 29  1  0  0  0  0
 13 19  1  0  0  0  0
 13 28  2  0  0  0  0
 14 19  2  0  0  0  0
 14 30  1  0  0  0  0
 15 24  1  0  0  0  0
 15 26  2  0  0  0  0
 16 28  1  0  0  0  0
 16 30  2  0  0  0  0
 17 29  2  0  0  0  0
 17 31  1  0  0  0  0
 18 32  1  0  0  0  0
 19 34  1  0  0  0  0
 20 32  1  0  0  0  0
 20 33  2  0  0  0  0
 20 35  1  0  0  0  0
 21 23  2  0  0  0  0
 21 41  1  0  0  0  0
 22 24  2  0  0  0  0
 22 42  1  0  0  0  0
 23 50  1  0  0  0  0
 24 43  1  0  0  0  0
 25 80  1  0  0  0  0
 26 81  1  0  0  0  0
 27 31  2  0  0  0  0
 27 80  1  0  0  0  0
 28 82  1  0  0  0  0
 29 83  1  0  0  0  0
 30 84  1  0  0  0  0
 31 85  1  0  0  0  0
 32 64  2  0  0  0  0
 33 66  1  0  0  0  0
 33 69  1  0  0  0  0
 34 36  1  0  0  0  0
 34 65  2  0  0  0  0
 35 70  1  0  0  0  0
 35 74  2  0  0  0  0
 36 67  1  0  0  0  0
 36 75  2  0  0  0  0
 37 51  1  0  0  0  0
 37 71  1  0  0  0  0
 37 76  2  0  0  0  0
 38 58  1  0  0  0  0
 38 59  1  0  0  0  0
 38 77  2  0  0  0  0
 39 61  1  0  0  0  0
 39 68  1  0  0  0  0
 39 78  2  0  0  0  0
 40 62  1  0  0  0  0
 40 72  1  0  0  0  0
 40 79  2  0  0  0  0
 41 44  1  0  0  0  0
 42 51  1  0  0  0  0
 43 68  1  0  0  0  0
 44 46  1  0  0  0  0
 45 47  1  0  0  0  0
 45 48  1  0  0  0  0
 46 50  1  0  0  0  0
 47 52  1  0  0  0  0
 48 67  1  0  0  0  0
 49 52  1  0  0  0  0
 49 67  1  0  0  0  0
 50 71  1  0  0  0  0
 51 68  1  0  0  0  0
 52 66  1  0  0  0  0
 53 62  1  0  0  0  0
 54 63  1  0  0  0  0
 55 63  1  0  0  0  0
 56 63  1  0  0  0  0
 57 73  1  0  0  0  0
 58 60  1  0  0  0  0
 59 81  1  0  0  0  0
 60 82  1  0  0  0  0
 61 63  1  0  0  0  0
 61 72  1  0  0  0  0
 62 73  1  0  0  0  0
 64 66  1  0  0  0  0
M  CHG  1  73   1
M  ISO  4  34 100  36 100  59 101  81 101
M  END
> <Batch ID>
0117

> <Smiles>
CNC(C)C(=O)NC(C(=O)N1Cc2cc([101O:1][101CH2:1]C(=O)CCOc3cc(F)cc([100C:0](=N)[100C:0](=O)N4CCCC(n5nc(-c6ccc(Oc7ccc(F)cc7F)cc6)c(C(N)=O)c5N)C4)c3)ccc2CC1C(=O)NC1CCCc2ccccc21)C(C)(C)C

> <Shape>
0.208

> <Color>
0.085

> <Negative vol penalty>
0.000

$$$$

  -OEChem-04052301463D

 85 93  0     1  0  0  0  0  0999 V2000
  -24.4177  -21.1828   18.4325 C   0  0  0  0  0  0  0  0  0  0  0  0
  -25.5401  -21.2611   19.2507 C   0  0  0  0  0  0  0  0  0  0  0  0
  -23.0655   -9.8017   20.0585 C   0  0  0  0  0  0  0  0  0  0  0  0
  -23.7129  -10.0445   22.3734 C   0  0  0  0  0  0  0  0  0  0  0  0
  -24.0131  -22.2965   17.6976 C   0  0  0  0  0  0  0  0  0  0  0  0
  -26.2593  -22.4528   19.3337 C   0  0  0  0  0  0  0  0  0  0  0  0
  -27.4723  -23.6618   24.0994 C   0  0  0  0  0  0  0  0  0  0  0  0
  -22.3168   -8.6715   20.3863 C   0  0  0  0  0  0  0  0  0  0  0  0
  -22.9642   -8.9142   22.7013 C   0  0  0  0  0  0  0  0  0  0  0  0
  -28.5452  -22.9827   24.6752 C   0  0  0  0  0  0  0  0  0  0  0  0
  -23.3004   -5.5565   22.4927 C   0  0  0  0  0  0  0  0  0  0  0  0
  -23.8859   -4.6141   23.3380 C   0  0  0  0  0  0  0  0  0  0  0  0
  -31.8792  -16.8501   22.3992 C   0  0  0  0  0  0  0  0  0  0  0  0
  -29.9757  -24.8717   24.2234 C   0  0  0  0  0  0  0  0  0  0  0  0
  -30.2271  -18.7215   23.6447 C   0  0  0  0  0  0  0  0  0  0  0  0
  -22.1026   -4.9387   24.9354 C   0  0  0  0  0  0  0  0  0  0  0  0
  -23.7636  -10.4882   21.0520 C   0  0  0  0  0  0  0  0  0  0  0  0
  -32.4314  -17.8216   23.2340 C   0  0  0  0  0  0  0  0  0  0  0  0
  -24.0968  -12.9924   20.6972 C   0  0  0  0  0  0  0  0  0  0  0  0
  -24.7221  -23.5054   17.7791 C   0  0  0  0  0  0  0  0  0  0  0  0
  -27.6460  -24.9489   23.5706 C   0  0  0  0  0  0  0  0  0  0  0  0
  -25.8646  -23.5833   18.5983 C   0  0  0  0  0  0  0  0  0  0  0  0
  -28.9029  -25.5661   23.6437 C   0  0  0  0  0  0  0  0  0  0  0  0
  -31.6053  -18.7572   23.8568 C   0  0  0  0  0  0  0  0  0  0  0  0
  -30.5010  -16.8143   22.1871 C   0  0  0  0  0  0  0  0  0  0  0  0
  -22.2661   -8.2277   21.7078 C   0  0  0  0  0  0  0  0  0  0  0  0
  -29.7978  -23.5865   24.7347 C   0  0  0  0  0  0  0  0  0  0  0  0
  -22.1160   -6.1901   22.8688 C   0  0  0  0  0  0  0  0  0  0  0  0
  -29.6750  -17.7499   22.8098 C   0  0  0  0  0  0  0  0  0  0  0  0
  -23.2871   -4.3052   24.5593 C   0  0  0  0  0  0  0  0  0  0  0  0
  -21.5171   -5.8812   24.0900 C   0  0  0  0  0  0  0  0  0  0  0  0
  -24.5377  -11.6555   20.7138 C   0  0  0  0  0  0  0  0  0  0  0  0
  -25.2011  -13.7134   20.3136 C   0  0  0  0  0  0  0  0  0  0  0  0
  -34.7486  -18.0230   22.4560 C   0  0  0  0  0  0  0  0  0  0  0  0
  -33.8752  -17.8333   23.4332 C   0  0  0  0  0  0  0  0  0  0  0  0
  -32.4684  -20.8566   24.1265 C   0  0  0  0  0  0  0  0  0  0  0  0
  -22.8046  -13.5340   21.0013 C   0  0  0  0  0  0  0  0  0  0  0  0
  -27.3526  -26.2461   20.6835 C   0  0  0  0  0  0  0  0  0  0  0  0
  -27.9144  -29.0054   22.2938 C   0  0  0  0  0  0  0  0  0  0  0  0
  -29.2501  -30.5406   25.0335 C   0  0  0  0  0  0  0  0  0  0  0  0
  -30.6464  -14.8279   20.6445 C   0  0  0  0  0  0  0  0  0  0  0  0
  -24.2742  -24.6683   16.9297 C   0  0  0  0  0  0  0  0  0  0  0  0
  -26.4724  -25.6787   22.9768 C   0  0  0  0  0  0  0  0  0  0  0  0
  -29.1370  -26.9544   23.1086 C   0  0  0  0  0  0  0  0  0  0  0  0
  -24.8725  -26.0045   17.3620 C   0  0  0  0  0  0  0  0  0  0  0  0
  -29.6620  -12.1793   18.4782 C   0  0  0  0  0  0  0  0  0  0  0  0
  -26.3718  -25.8643   17.6055 C   0  0  0  0  0  0  0  0  0  0  0  0
  -28.2049  -11.9169   18.8654 C   0  0  0  0  0  0  0  0  0  0  0  0
  -30.5163  -12.5358   19.6934 C   0  0  0  0  0  0  0  0  0  0  0  0
  -28.5404  -13.3741   20.9027 C   0  0  0  0  0  0  0  0  0  0  0  0
  -26.6565  -24.8658   18.7339 C   0  0  1  0  0  0  0  0  0  0  0  0
  -26.8835  -26.7819   22.0066 C   0  0  1  0  0  0  0  0  0  0  0  0
  -27.6270  -13.0746   19.7029 C   0  0  2  0  0  0  0  0  0  0  0  0
  -29.5875  -32.8093   26.0516 C   0  0  0  0  0  0  0  0  0  0  0  0
  -30.1659  -29.5581   20.3100 C   0  0  0  0  0  0  0  0  0  0  0  0
  -31.0478  -31.2813   21.8977 C   0  0  0  0  0  0  0  0  0  0  0  0
  -28.7792  -31.5549   20.8970 C   0  0  0  0  0  0  0  0  0  0  0  0
  -27.6618  -29.8303   27.4277 C   0  0  0  0  0  0  0  0  0  0  0  0
  -27.8197  -18.5056   21.5281 C   0  0  0  0  0  0  0  0  0  0  0  0
  -33.0334  -21.9965   24.9310 C   0  0  0  0  0  0  0  0  0  0  0  0
  -32.1473  -23.2226   24.7890 C   0  0  0  0  0  0  0  0  0  1  0  0
  -29.1471  -29.7912   22.6708 C   0  0  1  0  0  0  0  0  0  0  0  0
  -28.6854  -31.5872   25.9770 C   0  0  2  0  0  0  0  0  0  0  0  0
  -29.7814  -30.5195   21.4523 C   0  0  0  0  0  0  0  0  0  0  0  0
  -25.8219  -11.5318   20.3682 N   0  0  0  0  0  0  0  0  0  0  0  0
  -32.1347  -19.7475   24.7013 N   0  0  0  0  0  0  0  0  0  0  0  0
  -26.1974  -12.8001   20.1306 N   0  0  0  0  0  0  0  0  0  0  0  0
  -27.9597  -27.6245   22.5319 N   0  0  0  0  0  0  0  0  0  0  0  0
  -29.9096  -13.6429   20.4359 N   0  0  0  0  0  0  0  0  0  0  0  0
  -25.4074  -15.0331   20.1183 N   0  0  0  0  0  0  0  0  0  0  0  0
  -21.7826  -12.6524   21.3787 N   0  0  0  0  0  0  0  0  0  0  0  0
  -29.9549  -15.8229   21.3346 N   0  0  0  0  0  0  0  0  0  0  0  0
  -26.4135  -25.4771   20.0230 N   0  0  0  0  0  0  0  0  0  0  0  0
  -28.7482  -30.6800   23.7568 N   0  0  0  0  0  0  0  0  0  0  0  0
  -28.5425  -31.0242   27.3494 N   0  3  0  0  0  0  0  0  0  0  0  0
  -22.5590  -14.7617   20.9242 O   0  0  0  0  0  0  0  0  0  0  0  0
  -28.4824  -26.5120   20.2903 O   0  0  0  0  0  0  0  0  0  0  0  0
  -26.9444  -29.5962   21.8125 O   0  0  0  0  0  0  0  0  0  0  0  0
  -30.0585  -29.6872   25.3922 O   0  0  0  0  0  0  0  0  0  0  0  0
  -31.7960  -14.9611   20.2169 O   0  0  0  0  0  0  0  0  0  0  0  0
  -21.5354   -7.1250   22.0281 O   0  0  0  0  0  0  0  0  0  0  0  0
  -28.3261  -17.7335   22.6146 O   0  0  0  0  0  0  0  0  0  0  0  0
  -30.8468  -22.9255   25.2956 O   0  0  0  0  0  0  0  0  0  1  0  0
  -23.8487   -3.3990   25.3703 F   0  0  0  0  0  0  0  0  0  0  0  0
  -20.3785   -6.4858   24.4562 F   0  0  0  0  0  0  0  0  0  0  0  0
  1  2  1  0  0  0  0
  1  5  2  0  0  0  0
  2  6  2  0  0  0  0
  3  8  2  0  0  0  0
  3 17  1  0  0  0  0
  4  9  1  0  0  0  0
  4 17  2  0  0  0  0
  5 20  1  0  0  0  0
  6 22  1  0  0  0  0
  7 10  2  0  0  0  0
  7 21  1  0  0  0  0
  8 26  1  0  0  0  0
  9 26  2  0  0  0  0
 10 27  1  0  0  0  0
 11 12  2  0  0  0  0
 11 28  1  0  0  0  0
 12 30  1  0  0  0  0
 13 18  1  0  0  0  0
 13 25  2  0  0  0  0
 14 23  1  0  0  0  0
 14 27  2  0  0  0  0
 15 24  1  0  0  0  0
 15 29  2  0  0  0  0
 16 30  2  0  0  0  0
 16 31  1  0  0  0  0
 17 32  1  0  0  0  0
 18 24  2  0  0  0  0
 18 35  1  0  0  0  0
 19 32  1  0  0  0  0
 19 33  2  0  0  0  0
 19 37  1  0  0  0  0
 20 22  2  0  0  0  0
 20 42  1  0  0  0  0
 21 23  2  0  0  0  0
 21 43  1  0  0  0  0
 22 51  1  0  0  0  0
 23 44  1  0  0  0  0
 24 66  1  0  0  0  0
 25 29  1  0  0  0  0
 25 72  1  0  0  0  0
 26 81  1  0  0  0  0
 27 83  1  0  0  0  0
 28 31  2  0  0  0  0
 28 81  1  0  0  0  0
 29 82  1  0  0  0  0
 30 84  1  0  0  0  0
 31 85  1  0  0  0  0
 32 65  2  0  0  0  0
 33 67  1  0  0  0  0
 33 70  1  0  0  0  0
 34 35  2  0  0  0  0
 36 60  1  0  0  0  0
 36 66  2  0  0  0  0
 37 71  1  0  0  0  0
 37 76  2  0  0  0  0
 38 52  1  0  0  0  0
 38 73  1  0  0  0  0
 38 77  2  0  0  0  0
 39 62  1  0  0  0  0
 39 68  1  0  0  0  0
 39 78  2  0  0  0  0
 40 63  1  0  0  0  0
 40 74  1  0  0  0  0
 40 79  2  0  0  0  0
 41 69  1  0  0  0  0
 41 72  1  0  0  0  0
 41 80  2  0  0  0  0
 42 45  1  0  0  0  0
 43 52  1  0  0  0  0
 44 68  1  0  0  0  0
 45 47  1  0  0  0  0
 46 48  1  0  0  0  0
 46 49  1  0  0  0  0
 47 51  1  0  0  0  0
 48 53  1  0  0  0  0
 49 69  1  0  0  0  0
 50 53  1  0  0  0  0
 50 69  1  0  0  0  0
 51 73  1  0  0  0  0
 52 68  1  0  0  0  0
 53 67  1  0  0  0  0
 54 63  1  0  0  0  0
 55 64  1  0  0  0  0
 56 64  1  0  0  0  0
 57 64  1  0  0  0  0
 58 75  1  0  0  0  0
 59 82  1  0  0  0  0
 60 61  1  0  0  0  0
 61 83  1  0  0  0  0
 62 64  1  0  0  0  0
 62 74  1  0  0  0  0
 63 75  1  0  0  0  0
 65 67  1  0  0  0  0
M  CHG  1  75   1
M  ISO  4  41 100  61 101  72 100  83 101
M  END
> <Batch ID>
0117

> <Smiles>
C=Cc1cc([100NH:0][100C:0](=O)N2CCCC(n3nc(-c4ccc(Oc5ccc(F)cc5F)cc4)c(C(N)=O)c3N)C2)c(OC)cc1NC=C[101CH2:1][101O:1]c1ccc2c(c1)CN(C(=O)C(NC(=O)C(C)NC)C(C)(C)C)C(C(=O)NC1CCCc3ccccc31)C2

> <Shape>
0.225

> <Color>
0.208

> <Negative vol penalty>
0.000

$$$$

  -OEChem-04052301463D

 85 93  0     1  0  0  0  0  0999 V2000
  -27.4645  -23.0920   16.6460 C   0  0  0  0  0  0  0  0  0  0  0  0
  -28.2032  -22.1397   17.3409 C   0  0  0  0  0  0  0  0  0  0  0  0
  -23.7400  -29.6323   21.7431 C   0  0  0  0  0  0  0  0  0  0  0  0
  -25.8712  -30.7281   22.0500 C   0  0  0  0  0  0  0  0  0  0  0  0
  -26.0799  -23.1471   16.8000 C   0  0  0  0  0  0  0  0  0  0  0  0
  -27.5578  -21.2426   18.1911 C   0  0  0  0  0  0  0  0  0  0  0  0
  -29.2170  -16.4918   17.6239 C   0  0  0  0  0  0  0  0  0  0  0  0
  -23.1239  -30.6127   22.5207 C   0  0  0  0  0  0  0  0  0  0  0  0
  -25.2551  -31.7086   22.8275 C   0  0  0  0  0  0  0  0  0  0  0  0
  -30.4355  -16.1676   18.2187 C   0  0  0  0  0  0  0  0  0  0  0  0
  -23.3958  -34.4844   22.3193 C   0  0  0  0  0  0  0  0  0  0  0  0
  -23.7375  -35.8141   22.0731 C   0  0  0  0  0  0  0  0  0  0  0  0
  -29.2582  -15.1440   20.0586 C   0  0  0  0  0  0  0  0  0  0  0  0
  -34.2646  -21.6746   20.8848 C   0  0  0  0  0  0  0  0  0  0  0  0
  -34.7308  -19.6619   22.1373 C   0  0  0  0  0  0  0  0  0  0  0  0
  -24.5268  -36.0321   24.3461 C   0  0  0  0  0  0  0  0  0  0  0  0
  -25.1137  -29.6899   21.5078 C   0  0  0  0  0  0  0  0  0  0  0  0
  -32.6073  -19.9215   21.0145 C   0  0  0  0  0  0  0  0  0  0  0  0
  -25.9432  -28.6938   19.3106 C   0  0  0  0  0  0  0  0  0  0  0  0
  -25.4161  -22.2439   17.6451 C   0  0  0  0  0  0  0  0  0  0  0  0
  -28.0078  -16.1535   18.2483 C   0  0  0  0  0  0  0  0  0  0  0  0
  -26.1631  -21.2865   18.3576 C   0  0  0  0  0  0  0  0  0  0  0  0
  -28.0257  -15.4627   19.4684 C   0  0  0  0  0  0  0  0  0  0  0  0
  -33.0044  -21.1768   20.5538 C   0  0  0  0  0  0  0  0  0  0  0  0
  -33.4705  -19.1641   21.8063 C   0  0  0  0  0  0  0  0  0  0  0  0
  -23.8814  -31.6509   23.0629 C   0  0  0  0  0  0  0  0  0  0  0  0
  -30.4563  -15.4962   19.4377 C   0  0  0  0  0  0  0  0  0  0  0  0
  -23.6195  -33.9285   23.5789 C   0  0  0  0  0  0  0  0  0  0  0  0
  -24.3030  -36.5880   23.0865 C   0  0  0  0  0  0  0  0  0  0  0  0
  -35.1278  -20.9172   21.6765 C   0  0  0  0  0  0  0  0  0  0  0  0
  -24.1851  -34.7023   24.5923 C   0  0  0  0  0  0  0  0  0  0  0  0
  -25.7508  -28.6771   20.7051 C   0  0  0  0  0  0  0  0  0  0  0  0
  -26.5903  -27.5132   19.0391 C   0  0  0  0  0  0  0  0  0  0  0  0
  -30.3567  -19.1168   21.5645 C   0  0  0  0  0  0  0  0  0  0  0  0
  -31.2871  -19.4018   20.6686 C   0  0  0  0  0  0  0  0  0  0  0  0
  -33.3970  -16.8972   21.5218 C   0  0  0  0  0  0  0  0  0  0  0  0
  -25.5704  -29.6879   18.3470 C   0  0  0  0  0  0  0  0  0  0  0  0
  -25.5394  -17.7954   19.3950 C   0  0  0  0  0  0  0  0  0  0  0  0
  -24.2675  -14.8405   19.8118 C   0  0  0  0  0  0  0  0  0  0  0  0
  -24.7900  -11.4935   20.2258 C   0  0  0  0  0  0  0  0  0  0  0  0
  -30.5374  -23.8882   20.1468 C   0  0  0  0  0  0  0  0  0  0  0  0
  -23.9231  -22.3727   17.8158 C   0  0  0  0  0  0  0  0  0  0  0  0
  -26.7018  -16.4867   17.5807 C   0  0  0  0  0  0  0  0  0  0  0  0
  -26.7554  -15.0591   20.1698 C   0  0  0  0  0  0  0  0  0  0  0  0
  -23.2741  -21.1440   18.4478 C   0  0  0  0  0  0  0  0  0  0  0  0
  -27.4339  -23.4707   21.9611 C   0  0  0  0  0  0  0  0  0  0  0  0
  -24.0713  -20.6857   19.6649 C   0  0  0  0  0  0  0  0  0  0  0  0
  -26.7337  -24.8006   21.6761 C   0  0  0  0  0  0  0  0  0  0  0  0
  -28.9365  -23.6647   22.1418 C   0  0  0  0  0  0  0  0  0  0  0  0
  -28.9137  -25.6729   20.7134 C   0  0  0  0  0  0  0  0  0  0  0  0
  -25.4964  -20.2800   19.2702 C   0  0  1  0  0  0  0  0  0  0  0  0
  -25.5307  -16.5487   18.5563 C   0  0  1  0  0  0  0  0  0  0  0  0
  -27.3950  -25.5410   20.4984 C   0  0  2  0  0  0  0  0  0  0  0  0
  -23.5575   -9.3362   20.5786 C   0  0  0  0  0  0  0  0  0  0  0  0
  -23.7824  -15.5974   22.7275 C   0  0  0  0  0  0  0  0  0  0  0  0
  -23.4561  -13.1668   23.2315 C   0  0  0  0  0  0  0  0  0  0  0  0
  -21.9130  -14.3298   21.6539 C   0  0  0  0  0  0  0  0  0  0  0  0
  -25.8423  -10.3462   17.7088 C   0  0  0  0  0  0  0  0  0  0  0  0
  -32.1086  -22.0197   19.7033 C   0  0  0  0  0  0  0  0  0  0  0  0
  -33.0623  -15.4895   21.9366 C   0  0  0  0  0  0  0  0  0  0  0  0
  -31.6727  -15.1194   21.4462 C   0  0  0  0  0  0  0  0  0  1  0  0
  -24.2787  -13.8188   20.9230 C   0  0  1  0  0  0  0  0  0  0  0  0
  -24.1613  -10.2854   19.5553 C   0  0  2  0  0  0  0  0  0  0  0  0
  -23.3816  -14.2374   22.1220 C   0  0  0  0  0  0  0  0  0  0  0  0
  -26.2363  -27.5732   21.2793 N   0  0  0  0  0  0  0  0  0  0  0  0
  -33.0996  -17.8968   22.2862 N   0  0  0  0  0  0  0  0  0  0  0  0
  -26.7401  -26.8853   20.2405 N   0  0  0  0  0  0  0  0  0  0  0  0
  -25.5038  -15.4128   19.4800 N   0  0  0  0  0  0  0  0  0  0  0  0
  -29.5075  -24.3583   20.9786 N   0  0  0  0  0  0  0  0  0  0  0  0
  -27.0401  -26.9612   17.8921 N   0  0  0  0  0  0  0  0  0  0  0  0
  -24.9121  -30.8406   18.7966 N   0  0  0  0  0  0  0  0  0  0  0  0
  -25.4981  -18.9665   18.6627 N   0  0  0  0  0  0  0  0  0  0  0  0
  -23.9052  -12.5475   20.3125 N   0  0  0  0  0  0  0  0  0  0  0  0
  -31.0501  -22.6379   20.4702 N   0  0  0  0  0  0  0  0  0  0  0  0
  -25.1836   -9.5395   18.7682 N   0  3  0  0  0  0  0  0  0  0  0  0
  -25.7991  -29.5502   17.1213 O   0  0  0  0  0  0  0  0  0  0  0  0
  -25.5791  -17.7017   20.6162 O   0  0  0  0  0  0  0  0  0  0  0  0
  -23.2024  -15.1153   19.2536 O   0  0  0  0  0  0  0  0  0  0  0  0
  -25.9488  -11.5002   20.6353 O   0  0  0  0  0  0  0  0  0  0  0  0
  -30.9651  -24.5330   19.1833 O   0  0  0  0  0  0  0  0  0  0  0  0
  -23.2804  -32.6080   23.8215 O   0  0  0  0  0  0  0  0  0  0  0  0
  -31.6443  -15.1792   20.0207 O   0  0  0  0  0  0  0  0  0  1  0  0
  -24.6325  -37.8645   22.8494 F   0  0  0  0  0  0  0  0  0  0  0  0
  -36.3379  -21.3957   21.9941 F   0  0  0  0  0  0  0  0  0  0  0  0
  -24.4035  -34.1735   25.8040 F   0  0  0  0  0  0  0  0  0  0  0  0
  1  2  1  0  0  0  0
  1  5  2  0  0  0  0
  2  6  2  0  0  0  0
  3  8  2  0  0  0  0
  3 17  1  0  0  0  0
  4  9  1  0  0  0  0
  4 17  2  0  0  0  0
  5 20  1  0  0  0  0
  6 22  1  0  0  0  0
  7 10  2  0  0  0  0
  7 21  1  0  0  0  0
  8 26  1  0  0  0  0
  9 26  2  0  0  0  0
 10 27  1  0  0  0  0
 11 12  2  0  0  0  0
 11 28  1  0  0  0  0
 12 29  1  0  0  0  0
 13 23  1  0  0  0  0
 13 27  2  0  0  0  0
 14 24  2  0  0  0  0
 14 30  1  0  0  0  0
 15 25  1  0  0  0  0
 15 30  2  0  0  0  0
 16 29  2  0  0  0  0
 16 31  1  0  0  0  0
 17 32  1  0  0  0  0
 18 24  1  0  0  0  0
 18 25  2  0  0  0  0
 18 35  1  0  0  0  0
 19 32  1  0  0  0  0
 19 33  2  0  0  0  0
 19 37  1  0  0  0  0
 20 22  2  0  0  0  0
 20 42  1  0  0  0  0
 21 23  2  0  0  0  0
 21 43  1  0  0  0  0
 22 51  1  0  0  0  0
 23 44  1  0  0  0  0
 24 59  1  0  0  0  0
 25 66  1  0  0  0  0
 26 81  1  0  0  0  0
 27 82  1  0  0  0  0
 28 31  2  0  0  0  0
 28 81  1  0  0  0  0
 29 83  1  0  0  0  0
 30 84  1  0  0  0  0
 31 85  1  0  0  0  0
 32 65  2  0  0  0  0
 33 67  1  0  0  0  0
 33 70  1  0  0  0  0
 34 35  2  0  0  0  0
 36 60  1  0  0  0  0
 36 66  2  0  0  0  0
 37 71  1  0  0  0  0
 37 76  2  0  0  0  0
 38 52  1  0  0  0  0
 38 72  1  0  0  0  0
 38 77  2  0  0  0  0
 39 62  1  0  0  0  0
 39 68  1  0  0  0  0
 39 78  2  0  0  0  0
 40 63  1  0  0  0  0
 40 73  1  0  0  0  0
 40 79  2  0  0  0  0
 41 69  1  0  0  0  0
 41 74  1  0  0  0  0
 41 80  2  0  0  0  0
 42 45  1  0  0  0  0
 43 52  1  0  0  0  0
 44 68  1  0  0  0  0
 45 47  1  0  0  0  0
 46 48  1  0  0  0  0
 46 49  1  0  0  0  0
 47 51  1  0  0  0  0
 48 53  1  0  0  0  0
 49 69  1  0  0  0  0
 50 53  1  0  0  0  0
 50 69  1  0  0  0  0
 51 72  1  0  0  0  0
 52 68  1  0  0  0  0
 53 67  1  0  0  0  0
 54 63  1  0  0  0  0
 55 64  1  0  0  0  0
 56 64  1  0  0  0  0
 57 64  1  0  0  0  0
 58 75  1  0  0  0  0
 59 74  1  0  0  0  0
 60 61  1  0  0  0  0
 61 82  1  0  0  0  0
 62 64  1  0  0  0  0
 62 73  1  0  0  0  0
 63 75  1  0  0  0  0
 65 67  1  0  0  0  0
M  CHG  1  75   1
M  ISO  4  41 100  61 101  74 100  82 101
M  END
> <Batch ID>
0117

> <Smiles>
C=Cc1c(C[100NH:0][100C:0](=O)N2CCCC(n3nc(-c4ccc(Oc5ccc(F)cc5F)cc4)c(C(N)=O)c3N)C2)cc(F)cc1NC=C[101CH2:1][101O:1]c1ccc2c(c1)CN(C(=O)C(NC(=O)C(C)NC)C(C)(C)C)C(C(=O)NC1CCCc3ccccc31)C2

> <Shape>
0.197

> <Color>
0.077

> <Negative vol penalty>
0.000

$$$$

  -OEChem-04052301463D

 84 92  0     1  0  0  0  0  0999 V2000
  -21.4134  -36.9532   19.1973 C   0  0  0  0  0  0  0  0  0  0  0  0
  -22.6382  -36.7161   19.8129 C   0  0  0  0  0  0  0  0  0  0  0  0
  -25.3001   -9.3297   20.6965 C   0  0  0  0  0  0  0  0  0  0  0  0
  -25.7487  -10.1232   22.9339 C   0  0  0  0  0  0  0  0  0  0  0  0
  -20.3242  -36.1278   19.4737 C   0  0  0  0  0  0  0  0  0  0  0  0
  -22.7743  -35.6540   20.7061 C   0  0  0  0  0  0  0  0  0  0  0  0
  -27.6088  -30.4388   19.5572 C   0  0  0  0  0  0  0  0  0  0  0  0
  -25.2609   -8.0181   21.1695 C   0  0  0  0  0  0  0  0  0  0  0  0
  -25.7094   -8.8116   23.4070 C   0  0  0  0  0  0  0  0  0  0  0  0
  -28.6535  -29.5150   19.5175 C   0  0  0  0  0  0  0  0  0  0  0  0
  -24.6846   -4.4935   21.8481 C   0  0  0  0  0  0  0  0  0  0  0  0
  -23.6474   -3.6742   21.4026 C   0  0  0  0  0  0  0  0  0  0  0  0
  -27.7902  -28.4375   21.5029 C   0  0  0  0  0  0  0  0  0  0  0  0
  -27.2337  -22.2497   21.5728 C   0  0  0  0  0  0  0  0  0  0  0  0
  -28.2117  -20.4632   20.2733 C   0  0  0  0  0  0  0  0  0  0  0  0
  -22.0335   -5.2010   22.3519 C   0  0  0  0  0  0  0  0  0  0  0  0
  -25.5441  -10.3823   21.5787 C   0  0  0  0  0  0  0  0  0  0  0  0
  -24.5075  -12.6370   20.9877 C   0  0  0  0  0  0  0  0  0  0  0  0
  -20.4496  -35.0492   20.3633 C   0  0  0  0  0  0  0  0  0  0  0  0
  -26.6411  -30.3559   20.5622 C   0  0  0  0  0  0  0  0  0  0  0  0
  -21.6855  -34.8142   20.9957 C   0  0  0  0  0  0  0  0  0  0  0  0
  -26.7346  -29.3524   21.5405 C   0  0  0  0  0  0  0  0  0  0  0  0
  -27.0172  -19.9598   22.3121 C   0  0  0  0  0  0  0  0  0  0  0  0
  -27.9579  -21.8220   20.4601 C   0  0  0  0  0  0  0  0  0  0  0  0
  -26.7634  -21.3186   22.4989 C   0  0  0  0  0  0  0  0  0  0  0  0
  -27.7414  -19.5320   21.1994 C   0  0  0  0  0  0  0  0  0  0  0  0
  -25.4655   -7.7591   22.5248 C   0  0  0  0  0  0  0  0  0  0  0  0
  -28.7440  -28.5170   20.4881 C   0  0  0  0  0  0  0  0  0  0  0  0
  -24.3962   -5.6666   22.5457 C   0  0  0  0  0  0  0  0  0  0  0  0
  -22.3219   -4.0279   21.6544 C   0  0  0  0  0  0  0  0  0  0  0  0
  -23.0707   -6.0203   22.7976 C   0  0  0  0  0  0  0  0  0  0  0  0
  -25.5853  -11.7373   21.0906 C   0  0  0  0  0  0  0  0  0  0  0  0
  -25.0638  -13.7817   20.4712 C   0  0  0  0  0  0  0  0  0  0  0  0
  -30.4765  -25.4876   19.5970 C   0  0  0  0  0  0  0  0  0  0  0  0
  -29.5703  -26.4627   19.7333 C   0  0  0  0  0  0  0  0  0  1  0  0
  -29.6111  -23.2377   19.7570 C   0  0  0  0  0  0  0  0  0  0  0  0
  -23.1269  -12.4544   21.3288 C   0  0  0  0  0  0  0  0  0  0  0  0
  -23.4964  -31.7683   22.0426 C   0  0  0  0  0  0  0  0  0  0  0  0
  -23.2598  -28.7136   22.1962 C   0  0  0  0  0  0  0  0  0  0  0  0
  -23.2078  -25.3263   21.7959 C   0  0  0  0  0  0  0  0  0  0  0  0
  -29.1138  -17.6006   20.3436 C   0  0  0  0  0  0  0  0  0  0  0  0
  -19.2316  -34.2131   20.6668 C   0  0  0  0  0  0  0  0  0  0  0  0
  -25.5330  -31.3668   20.6796 C   0  0  0  0  0  0  0  0  0  0  0  0
  -25.6903  -29.3228   22.6228 C   0  0  0  0  0  0  0  0  0  0  0  0
  -19.5586  -32.8821   21.3390 C   0  0  0  0  0  0  0  0  0  0  0  0
  -29.6447  -14.6111   18.4840 C   0  0  0  0  0  0  0  0  0  0  0  0
  -20.5550  -33.0885   22.4754 C   0  0  0  0  0  0  0  0  0  0  0  0
  -28.5472  -13.6709   18.9879 C   0  0  0  0  0  0  0  0  0  0  0  0
  -30.1973  -15.4899   19.6047 C   0  0  0  0  0  0  0  0  0  0  0  0
  -28.0892  -15.2998   20.8651 C   0  0  0  0  0  0  0  0  0  0  0  0
  -21.8793  -33.6571   21.9515 C   0  0  1  0  0  0  0  0  0  0  0  0
  -24.2151  -30.7606   21.1943 C   0  0  1  0  0  0  0  0  0  0  0  0
  -27.4564  -14.4401   19.7587 C   0  0  2  0  0  0  0  0  0  0  0  0
  -26.5121  -18.9605   23.3065 C   0  0  0  0  0  0  0  0  0  0  0  0
  -21.7825  -23.3110   22.2482 C   0  0  0  0  0  0  0  0  0  0  0  0
  -24.0473  -28.8222   25.1410 C   0  0  0  0  0  0  0  0  0  0  0  0
  -23.4444  -26.3987   25.3183 C   0  0  0  0  0  0  0  0  0  0  0  0
  -21.6987  -28.0755   24.7156 C   0  0  0  0  0  0  0  0  0  0  0  0
  -23.0024  -24.6810   18.9149 C   0  0  0  0  0  0  0  0  0  0  0  0
  -30.2288  -24.2357   18.8181 C   0  0  0  0  0  0  0  0  0  0  0  0
  -23.4721  -27.4683   23.0192 C   0  0  1  0  0  0  0  0  0  0  0  0
  -22.1455  -24.3932   21.2433 C   0  0  2  0  0  0  0  0  0  0  0  0
  -23.1849  -27.6999   24.5296 C   0  0  0  0  0  0  0  0  0  0  0  0
  -26.7390  -12.2649   20.6727 N   0  0  0  0  0  0  0  0  0  0  0  0
  -28.4316  -22.7594   19.5268 N   0  0  0  0  0  0  0  0  0  0  0  0
  -26.3893  -13.5085   20.3022 N   0  0  0  0  0  0  0  0  0  0  0  0
  -24.3598  -29.5665   22.0440 N   0  0  0  0  0  0  0  0  0  0  0  0
  -29.1075  -16.1908   20.2873 N   0  0  0  0  0  0  0  0  0  0  0  0
  -26.0320  -21.7720   23.6189 N   0  0  0  0  0  0  0  0  0  0  0  0
  -24.5435  -14.9851   20.1494 N   0  0  0  0  0  0  0  0  0  0  0  0
  -22.7250  -11.2161   21.8478 N   0  0  0  0  0  0  0  0  0  0  0  0
  -28.0101  -18.1567   20.9895 N   0  0  0  0  0  0  0  0  0  0  0  0
  -22.6669  -32.6137   21.3307 N   0  0  0  0  0  0  0  0  0  0  0  0
  -22.6506  -26.4295   22.4071 N   0  0  0  0  0  0  0  0  0  0  0  0
  -22.6317  -23.7344   19.9981 N   0  3  0  0  0  0  0  0  0  0  0  0
  -22.2718  -13.3571   21.1624 O   0  0  0  0  0  0  0  0  0  0  0  0
  -23.6788  -31.7781   23.2543 O   0  0  0  0  0  0  0  0  0  0  0  0
  -22.1483  -28.9298   21.7051 O   0  0  0  0  0  0  0  0  0  0  0  0
  -24.4114  -25.0973   21.6986 O   0  0  0  0  0  0  0  0  0  0  0  0
  -30.0170  -18.2665   19.8310 O   0  0  0  0  0  0  0  0  0  0  0  0
  -25.4270   -6.4793   22.9868 O   0  0  0  0  0  0  0  0  0  0  0  0
  -29.7639  -27.6157   20.4409 O   0  0  0  0  0  0  0  0  0  1  0  0
  -21.3259   -3.2418   21.2251 F   0  0  0  0  0  0  0  0  0  0  0  0
  -22.7874   -7.1466   23.4662 F   0  0  0  0  0  0  0  0  0  0  0  0
  1  2  1  0  0  0  0
  1  5  2  0  0  0  0
  2  6  2  0  0  0  0
  3  8  2  0  0  0  0
  3 17  1  0  0  0  0
  4  9  1  0  0  0  0
  4 17  2  0  0  0  0
  5 19  1  0  0  0  0
  6 21  1  0  0  0  0
  7 10  2  0  0  0  0
  7 20  1  0  0  0  0
  8 27  1  0  0  0  0
  9 27  2  0  0  0  0
 10 28  1  0  0  0  0
 11 12  2  0  0  0  0
 11 29  1  0  0  0  0
 12 30  1  0  0  0  0
 13 22  1  0  0  0  0
 13 28  2  0  0  0  0
 14 24  1  0  0  0  0
 14 25  2  0  0  0  0
 15 24  2  0  0  0  0
 15 26  1  0  0  0  0
 16 30  2  0  0  0  0
 16 31  1  0  0  0  0
 17 32  1  0  0  0  0
 18 32  1  0  0  0  0
 18 33  2  0  0  0  0
 18 37  1  0  0  0  0
 19 21  2  0  0  0  0
 19 42  1  0  0  0  0
 20 22  2  0  0  0  0
 20 43  1  0  0  0  0
 21 51  1  0  0  0  0
 22 44  1  0  0  0  0
 23 25  1  0  0  0  0
 23 26  2  0  0  0  0
 23 54  1  0  0  0  0
 24 65  1  0  0  0  0
 25 69  1  0  0  0  0
 26 72  1  0  0  0  0
 27 81  1  0  0  0  0
 28 82  1  0  0  0  0
 29 31  2  0  0  0  0
 29 81  1  0  0  0  0
 30 83  1  0  0  0  0
 31 84  1  0  0  0  0
 32 64  2  0  0  0  0
 33 66  1  0  0  0  0
 33 70  1  0  0  0  0
 34 35  2  0  0  0  0
 34 60  1  0  0  0  0
 35 82  1  0  0  0  0
 36 60  1  0  0  0  0
 36 65  2  0  0  0  0
 37 71  1  0  0  0  0
 37 76  2  0  0  0  0
 38 52  1  0  0  0  0
 38 73  1  0  0  0  0
 38 77  2  0  0  0  0
 39 61  1  0  0  0  0
 39 67  1  0  0  0  0
 39 78  2  0  0  0  0
 40 62  1  0  0  0  0
 40 74  1  0  0  0  0
 40 79  2  0  0  0  0
 41 68  1  0  0  0  0
 41 72  1  0  0  0  0
 41 80  2  0  0  0  0
 42 45  1  0  0  0  0
 43 52  1  0  0  0  0
 44 67  1  0  0  0  0
 45 47  1  0  0  0  0
 46 48  1  0  0  0  0
 46 49  1  0  0  0  0
 47 51  1  0  0  0  0
 48 53  1  0  0  0  0
 49 68  1  0  0  0  0
 50 53  1  0  0  0  0
 50 68  1  0  0  0  0
 51 73  1  0  0  0  0
 52 67  1  0  0  0  0
 53 66  1  0  0  0  0
 55 62  1  0  0  0  0
 56 63  1  0  0  0  0
 57 63  1  0  0  0  0
 58 63  1  0  0  0  0
 59 75  1  0  0  0  0
 61 63  1  0  0  0  0
 61 74  1  0  0  0  0
 62 75  1  0  0  0  0
 64 66  1  0  0  0  0
M  CHG  1  75   1
M  ISO  4  35 101  41 100  72 100  82 101
M  END
> <Batch ID>
0117

> <Smiles>
CNC(C)C(=O)NC(C(=O)N1Cc2cc([101O:1][101CH:1]=CC=CNc3cc(N)c(C)c([100NH:0][100C:0](=O)N4CCCC(n5nc(-c6ccc(Oc7ccc(F)cc7F)cc6)c(C(N)=O)c5N)C4)c3)ccc2CC1C(=O)NC1CCCc2ccccc21)C(C)(C)C

> <Shape>
0.253

> <Color>
0.087

> <Negative vol penalty>
0.000

$$$$

  -OEChem-04052301463D

 85 93  0     1  0  0  0  0  0999 V2000
  -17.8503  -28.3358   19.2678 C   0  0  0  0  0  0  0  0  0  0  0  0
  -18.9365  -27.4670   19.2403 C   0  0  0  0  0  0  0  0  0  0  0  0
  -22.9952   -9.9491   20.0053 C   0  0  0  0  0  0  0  0  0  0  0  0
  -23.7334  -10.0267   22.3044 C   0  0  0  0  0  0  0  0  0  0  0  0
  -17.8932  -29.4787   20.0653 C   0  0  0  0  0  0  0  0  0  0  0  0
  -20.0668  -27.7412   20.0095 C   0  0  0  0  0  0  0  0  0  0  0  0
  -21.7909  -23.6551   22.4541 C   0  0  0  0  0  0  0  0  0  0  0  0
  -22.2376   -8.8124   20.2868 C   0  0  0  0  0  0  0  0  0  0  0  0
  -22.9756   -8.8900   22.5860 C   0  0  0  0  0  0  0  0  0  0  0  0
  -22.5282  -22.7333   21.7122 C   0  0  0  0  0  0  0  0  0  0  0  0
  -23.2387   -5.5483   22.1445 C   0  0  0  0  0  0  0  0  0  0  0  0
  -23.8370   -4.5421   22.9028 C   0  0  0  0  0  0  0  0  0  0  0  0
  -28.8070  -17.7406   22.0253 C   0  0  0  0  0  0  0  0  0  0  0  0
  -24.5705  -23.6661   22.5942 C   0  0  0  0  0  0  0  0  0  0  0  0
  -28.5737  -18.1090   19.2699 C   0  0  0  0  0  0  0  0  0  0  0  0
  -22.1213   -4.7900   24.5856 C   0  0  0  0  0  0  0  0  0  0  0  0
  -23.7432  -10.5563   21.0141 C   0  0  0  0  0  0  0  0  0  0  0  0
  -28.1144  -18.8433   21.5253 C   0  0  0  0  0  0  0  0  0  0  0  0
  -29.3830  -16.8222   21.1476 C   0  0  0  0  0  0  0  0  0  0  0  0
  -24.1113  -13.0725   20.8119 C   0  0  0  0  0  0  0  0  0  0  0  0
  -19.0207  -29.7619   20.8521 C   0  0  0  0  0  0  0  0  0  0  0  0
  -22.4393  -24.5980   23.2645 C   0  0  0  0  0  0  0  0  0  0  0  0
  -20.1254  -28.8896   20.8172 C   0  0  0  0  0  0  0  0  0  0  0  0
  -23.8391  -24.5971   23.3474 C   0  0  0  0  0  0  0  0  0  0  0  0
  -27.9977  -19.0275   20.1476 C   0  0  0  0  0  0  0  0  0  0  0  0
  -22.2277   -8.2828   21.5772 C   0  0  0  0  0  0  0  0  0  0  0  0
  -23.9184  -22.7405   21.7800 C   0  0  0  0  0  0  0  0  0  0  0  0
  -22.0816   -6.1755   22.6068 C   0  0  0  0  0  0  0  0  0  0  0  0
  -23.2784   -4.1629   24.1233 C   0  0  0  0  0  0  0  0  0  0  0  0
  -29.2663  -17.0064   19.7699 C   0  0  0  0  0  0  0  0  0  0  0  0
  -21.5230   -5.7963   23.8273 C   0  0  0  0  0  0  0  0  0  0  0  0
  -24.5265  -11.7303   20.7237 C   0  0  0  0  0  0  0  0  0  0  0  0
  -25.2143  -13.7986   20.4342 C   0  0  0  0  0  0  0  0  0  0  0  0
  -26.6325  -19.4420   23.3856 C   0  0  0  0  0  0  0  0  0  0  0  0
  -27.5241  -19.7849   22.4685 C   0  0  0  0  0  0  0  0  0  0  0  0
  -26.0420  -19.9487   19.4051 C   0  0  0  0  0  0  0  0  0  0  0  0
  -30.1039  -15.6732   21.6725 C   0  0  0  0  0  0  0  0  0  0  0  0
  -22.8421  -13.6145   21.2006 C   0  0  0  0  0  0  0  0  0  0  0  0
  -30.7284  -14.6775   20.7715 C   0  0  0  0  0  0  0  0  0  0  0  0
  -22.5953  -27.7722   23.3279 C   0  0  0  0  0  0  0  0  0  0  0  0
  -24.2377  -27.2478   26.0757 C   0  0  0  0  0  0  0  0  0  0  0  0
  -26.1447  -25.1287   27.9516 C   0  0  0  0  0  0  0  0  0  0  0  0
  -19.0398  -31.0341   21.6619 C   0  0  0  0  0  0  0  0  0  0  0  0
  -21.6287  -25.5683   24.0792 C   0  0  0  0  0  0  0  0  0  0  0  0
  -24.5825  -25.5756   24.2181 C   0  0  0  0  0  0  0  0  0  0  0  0
  -20.1253  -31.0569   22.7350 C   0  0  0  0  0  0  0  0  0  0  0  0
  -29.5599  -12.3436   18.3130 C   0  0  0  0  0  0  0  0  0  0  0  0
  -21.4564  -30.5857   22.1579 C   0  0  0  0  0  0  0  0  0  0  0  0
  -28.1244  -12.0572   18.7522 C   0  0  0  0  0  0  0  0  0  0  0  0
  -30.4746  -12.5761   19.5112 C   0  0  0  0  0  0  0  0  0  0  0  0
  -28.5624  -13.3738   20.8735 C   0  0  0  0  0  0  0  0  0  0  0  0
  -21.3594  -29.1397   21.6566 C   0  0  1  0  0  0  0  0  0  0  0  0
  -22.4110  -26.8173   24.4733 C   0  0  1  0  0  0  0  0  0  0  0  0
  -27.6031  -13.1610   19.6895 C   0  0  2  0  0  0  0  0  0  0  0  0
  -27.3718  -24.9947   30.1365 C   0  0  0  0  0  0  0  0  0  0  0  0
  -26.4686  -28.9833   24.9263 C   0  0  0  0  0  0  0  0  0  0  0  0
  -27.9992  -28.0517   26.6749 C   0  0  0  0  0  0  0  0  0  0  0  0
  -25.9912  -29.3685   27.3508 C   0  0  0  0  0  0  0  0  0  0  0  0
  -24.4738  -22.8711   28.8845 C   0  0  0  0  0  0  0  0  0  0  0  0
  -25.1922  -21.0609   18.8513 C   0  0  0  0  0  0  0  0  0  0  0  0
  -24.0747  -21.3956   19.8248 C   0  0  0  0  0  0  0  0  0  1  0  0
  -25.6897  -27.0336   26.4290 C   0  0  1  0  0  0  0  0  0  0  0  0
  -26.0617  -24.7253   29.4128 C   0  0  2  0  0  0  0  0  0  0  0  0
  -26.5235  -28.3420   26.3272 C   0  0  0  0  0  0  0  0  0  0  0  0
  -25.7943  -11.6081   20.3213 N   0  0  0  0  0  0  0  0  0  0  0  0
  -30.2516  -15.4420   22.9490 N   0  0  0  0  0  0  0  0  0  0  0  0
  -27.3050  -20.1282   19.6161 N   0  0  0  0  0  0  0  0  0  0  0  0
  -26.1852  -12.8828   20.1533 N   0  0  0  0  0  0  0  0  0  0  0  0
  -29.9326  -13.6034   20.3984 N   0  0  0  0  0  0  0  0  0  0  0  0
  -23.7456  -26.5085   24.9907 N   0  0  0  0  0  0  0  0  0  0  0  0
  -25.4387  -15.1247   20.3182 N   0  0  0  0  0  0  0  0  0  0  0  0
  -21.8180  -12.7271   21.5585 N   0  0  0  0  0  0  0  0  0  0  0  0
  -21.4119  -28.2148   22.7685 N   0  0  0  0  0  0  0  0  0  0  0  0
  -25.7014  -26.4190   27.7521 N   0  0  0  0  0  0  0  0  0  0  0  0
  -25.7489  -23.2731   29.5323 N   0  3  0  0  0  0  0  0  0  0  0  0
  -22.6176  -14.8486   21.2139 O   0  0  0  0  0  0  0  0  0  0  0  0
  -31.8867  -14.9097   20.4508 O   0  0  0  0  0  0  0  0  0  0  0  0
  -23.7274  -28.0854   22.9786 O   0  0  0  0  0  0  0  0  0  0  0  0
  -23.5630  -28.0364   26.7423 O   0  0  0  0  0  0  0  0  0  0  0  0
  -26.5645  -24.3758   27.0756 O   0  0  0  0  0  0  0  0  0  0  0  0
  -21.4883   -7.1737   21.8524 O   0  0  0  0  0  0  0  0  0  0  0  0
  -24.6405  -21.8423   21.0564 O   0  0  0  0  0  0  0  0  0  1  0  0
  -23.8522   -3.1956   24.8507 F   0  0  0  0  0  0  0  0  0  0  0  0
  -29.8180  -16.1313   18.9172 F   0  0  0  0  0  0  0  0  0  0  0  0
  -20.4108   -6.3943   24.2761 F   0  0  0  0  0  0  0  0  0  0  0  0
  1  2  1  0  0  0  0
  1  5  2  0  0  0  0
  2  6  2  0  0  0  0
  3  8  2  0  0  0  0
  3 17  1  0  0  0  0
  4  9  1  0  0  0  0
  4 17  2  0  0  0  0
  5 21  1  0  0  0  0
  6 23  1  0  0  0  0
  7 10  2  0  0  0  0
  7 22  1  0  0  0  0
  8 26  1  0  0  0  0
  9 26  2  0  0  0  0
 10 27  1  0  0  0  0
 11 12  2  0  0  0  0
 11 28  1  0  0  0  0
 12 29  1  0  0  0  0
 13 18  1  0  0  0  0
 13 19  2  0  0  0  0
 14 24  1  0  0  0  0
 14 27  2  0  0  0  0
 15 25  1  0  0  0  0
 15 30  2  0  0  0  0
 16 29  2  0  0  0  0
 16 31  1  0  0  0  0
 17 32  1  0  0  0  0
 18 25  2  0  0  0  0
 18 35  1  0  0  0  0
 19 30  1  0  0  0  0
 19 37  1  0  0  0  0
 20 32  1  0  0  0  0
 20 33  2  0  0  0  0
 20 38  1  0  0  0  0
 21 23  2  0  0  0  0
 21 43  1  0  0  0  0
 22 24  2  0  0  0  0
 22 44  1  0  0  0  0
 23 52  1  0  0  0  0
 24 45  1  0  0  0  0
 25 67  1  0  0  0  0
 26 81  1  0  0  0  0
 27 82  1  0  0  0  0
 28 31  2  0  0  0  0
 28 81  1  0  0  0  0
 29 83  1  0  0  0  0
 30 84  1  0  0  0  0
 31 85  1  0  0  0  0
 32 65  2  0  0  0  0
 33 68  1  0  0  0  0
 33 71  1  0  0  0  0
 34 35  2  0  0  0  0
 36 60  1  0  0  0  0
 36 67  2  0  0  0  0
 37 39  1  0  0  0  0
 37 66  2  0  0  0  0
 38 72  1  0  0  0  0
 38 76  2  0  0  0  0
 39 69  1  0  0  0  0
 39 77  2  0  0  0  0
 40 53  1  0  0  0  0
 40 73  1  0  0  0  0
 40 78  2  0  0  0  0
 41 62  1  0  0  0  0
 41 70  1  0  0  0  0
 41 79  2  0  0  0  0
 42 63  1  0  0  0  0
 42 74  1  0  0  0  0
 42 80  2  0  0  0  0
 43 46  1  0  0  0  0
 44 53  1  0  0  0  0
 45 70  1  0  0  0  0
 46 48  1  0  0  0  0
 47 49  1  0  0  0  0
 47 50  1  0  0  0  0
 48 52  1  0  0  0  0
 49 54  1  0  0  0  0
 50 69  1  0  0  0  0
 51 54  1  0  0  0  0
 51 69  1  0  0  0  0
 52 73  1  0  0  0  0
 53 70  1  0  0  0  0
 54 68  1  0  0  0  0
 55 63  1  0  0  0  0
 56 64  1  0  0  0  0
 57 64  1  0  0  0  0
 58 64  1  0  0  0  0
 59 75  1  0  0  0  0
 60 61  1  0  0  0  0
 61 82  1  0  0  0  0
 62 64  1  0  0  0  0
 62 74  1  0  0  0  0
 63 75  1  0  0  0  0
 65 68  1  0  0  0  0
M  CHG  1  75   1
M  ISO  4  37 100  39 100  61 101  82 101
M  END
> <Batch ID>
0117

> <Smiles>
C=Cc1cc([100C:0](=N)[100C:0](=O)N2CCCC(n3nc(-c4ccc(Oc5ccc(F)cc5F)cc4)c(C(N)=O)c3N)C2)c(F)cc1NC=C[101CH2:1][101O:1]c1ccc2c(c1)CN(C(=O)C(NC(=O)C(C)NC)C(C)(C)C)C(C(=O)NC1CCCc3ccccc31)C2

> <Shape>
0.251

> <Color>
0.207

> <Negative vol penalty>
0.000

$$$$

  -OEChem-04052301463D

 85 93  0     1  0  0  0  0  0999 V2000
  -28.5229  -22.3920   19.1765 C   0  0  0  0  0  0  0  0  0  0  0  0
  -27.3301  -22.7394   19.8026 C   0  0  0  0  0  0  0  0  0  0  0  0
  -26.7735  -12.7378   20.4952 C   0  0  0  0  0  0  0  0  0  0  0  0
  -25.2424  -14.3863   19.6148 C   0  0  0  0  0  0  0  0  0  0  0  0
  -29.6992  -23.0692   19.4953 C   0  0  0  0  0  0  0  0  0  0  0  0
  -27.3132  -23.7636   20.7488 C   0  0  0  0  0  0  0  0  0  0  0  0
  -23.4124  -26.9301   20.1144 C   0  0  0  0  0  0  0  0  0  0  0  0
  -25.8446  -11.7322   20.2277 C   0  0  0  0  0  0  0  0  0  0  0  0
  -24.3135  -13.3807   19.3472 C   0  0  0  0  0  0  0  0  0  0  0  0
  -22.1648  -26.5020   20.5661 C   0  0  0  0  0  0  0  0  0  0  0  0
  -23.7321   -8.7748   20.1068 C   0  0  0  0  0  0  0  0  0  0  0  0
  -23.5096   -7.8158   21.0949 C   0  0  0  0  0  0  0  0  0  0  0  0
  -25.1110  -21.9865   25.2714 C   0  0  0  0  0  0  0  0  0  0  0  0
  -22.4389  -27.8287   22.5620 C   0  0  0  0  0  0  0  0  0  0  0  0
  -23.5258  -22.6852   23.0847 C   0  0  0  0  0  0  0  0  0  0  0  0
  -22.7977   -9.5506   22.6183 C   0  0  0  0  0  0  0  0  0  0  0  0
  -26.4723  -14.0649   20.1888 C   0  0  0  0  0  0  0  0  0  0  0  0
  -24.0535  -22.8812   25.4342 C   0  0  0  0  0  0  0  0  0  0  0  0
  -28.4390  -15.5817   19.6064 C   0  0  0  0  0  0  0  0  0  0  0  0
  -29.6948  -24.1087   20.4387 C   0  0  0  0  0  0  0  0  0  0  0  0
  -24.1887  -27.8036   20.8894 C   0  0  0  0  0  0  0  0  0  0  0  0
  -28.4908  -24.4545   21.0814 C   0  0  0  0  0  0  0  0  0  0  0  0
  -23.6949  -28.2684   22.1167 C   0  0  0  0  0  0  0  0  0  0  0  0
  -23.2608  -23.2305   24.3409 C   0  0  0  0  0  0  0  0  0  0  0  0
  -25.3761  -21.4412   24.0151 C   0  0  0  0  0  0  0  0  0  0  0  0
  -24.6147  -12.0536   19.6536 C   0  0  0  0  0  0  0  0  0  0  0  0
  -21.6792  -26.9490   21.7914 C   0  0  0  0  0  0  0  0  0  0  0  0
  -23.4875  -10.1217   20.3744 C   0  0  0  0  0  0  0  0  0  0  0  0
  -23.0423   -8.2036   22.3506 C   0  0  0  0  0  0  0  0  0  0  0  0
  -24.5835  -21.7905   22.9218 C   0  0  0  0  0  0  0  0  0  0  0  0
  -23.0202  -10.5096   21.6302 C   0  0  0  0  0  0  0  0  0  0  0  0
  -27.4311  -15.1042   20.4655 C   0  0  0  0  0  0  0  0  0  0  0  0
  -29.0737  -16.5600   20.3320 C   0  0  0  0  0  0  0  0  0  0  0  0
  -24.6752  -24.1786   27.4205 C   0  0  0  0  0  0  0  0  0  0  0  0
  -23.8025  -23.4336   26.7597 C   0  0  0  0  0  0  0  0  0  0  0  0
  -21.0240  -23.6665   24.1648 C   0  0  0  0  0  0  0  0  0  0  0  0
  -28.7716  -15.1771   18.2717 C   0  0  0  0  0  0  0  0  0  0  0  0
  -27.0415  -27.6346   22.2811 C   0  0  0  0  0  0  0  0  0  0  0  0
  -26.4783  -30.7628   22.9287 C   0  0  0  0  0  0  0  0  0  0  0  0
  -24.2007  -33.2662   23.3674 C   0  0  0  0  0  0  0  0  0  0  0  0
  -27.3322  -20.0814   24.8344 C   0  0  0  0  0  0  0  0  0  0  0  0
  -31.0002  -24.7801   20.7851 C   0  0  0  0  0  0  0  0  0  0  0  0
  -25.5207  -28.2771   20.3757 C   0  0  0  0  0  0  0  0  0  0  0  0
  -24.4804  -29.2229   22.9773 C   0  0  0  0  0  0  0  0  0  0  0  0
  -30.8266  -26.1045   21.5241 C   0  0  0  0  0  0  0  0  0  0  0  0
  -30.0814  -17.8189   24.8413 C   0  0  0  0  0  0  0  0  0  0  0  0
  -29.8055  -25.9589   22.6479 C   0  0  0  0  0  0  0  0  0  0  0  0
  -29.8086  -16.9133   23.6382 C   0  0  0  0  0  0  0  0  0  0  0  0
  -28.7920  -18.2071   25.5629 C   0  0  0  0  0  0  0  0  0  0  0  0
  -27.4800  -17.8860   23.5026 C   0  0  0  0  0  0  0  0  0  0  0  0
  -28.4273  -25.5765   22.0949 C   0  0  1  0  0  0  0  0  0  0  0  0
  -26.4502  -28.7626   21.4838 C   0  0  1  0  0  0  0  0  0  0  0  0
  -28.7429  -17.5213   22.7053 C   0  0  2  0  0  0  0  0  0  0  0  0
  -24.0400  -35.7076   23.9251 C   0  0  0  0  0  0  0  0  0  0  0  0
  -27.0380  -30.1275   25.8601 C   0  0  0  0  0  0  0  0  0  0  0  0
  -25.9575  -32.3032   26.4657 C   0  0  0  0  0  0  0  0  0  0  0  0
  -28.0149  -32.2844   25.0552 C   0  0  0  0  0  0  0  0  0  0  0  0
  -22.9206  -33.8933   20.7737 C   0  0  0  0  0  0  0  0  0  0  0  0
  -19.8041  -24.5421   24.2554 C   0  0  0  0  0  0  0  0  0  0  0  0
  -19.1173  -24.6594   22.9001 C   0  0  0  0  0  0  0  0  0  0  0  0
  -20.0302  -25.2356   21.8243 C   0  0  0  0  0  0  0  0  0  1  0  0
  -25.8213  -31.5194   24.0578 C   0  0  1  0  0  0  0  0  0  0  0  0
  -24.1349  -34.6771   22.8109 C   0  0  2  0  0  0  0  0  0  0  0  0
  -26.6937  -31.5391   25.3446 C   0  0  0  0  0  0  0  0  0  0  0  0
  -27.4224  -15.7277   21.6467 N   0  0  0  0  0  0  0  0  0  0  0  0
  -22.1901  -24.1301   24.4756 N   0  0  0  0  0  0  0  0  0  0  0  0
  -28.4327  -16.6069   21.5350 N   0  0  0  0  0  0  0  0  0  0  0  0
  -25.7799  -29.6520   22.4345 N   0  0  0  0  0  0  0  0  0  0  0  0
  -27.8314  -18.7797   24.6173 N   0  0  0  0  0  0  0  0  0  0  0  0
  -30.1121  -17.3759   20.0521 N   0  0  0  0  0  0  0  0  0  0  0  0
  -28.0177  -14.1573   17.6752 N   0  0  0  0  0  0  0  0  0  0  0  0
  -26.4509  -20.5322   23.8523 N   0  0  0  0  0  0  0  0  0  0  0  0
  -27.7711  -26.7350   21.5276 N   0  0  0  0  0  0  0  0  0  0  0  0
  -25.5024  -32.8422   23.5317 N   0  0  0  0  0  0  0  0  0  0  0  0
  -22.9452  -34.8301   21.9265 N   0  3  0  0  0  0  0  0  0  0  0  0
  -29.7201  -15.6931   17.6332 O   0  0  0  0  0  0  0  0  0  0  0  0
  -26.8511  -27.5849   23.4907 O   0  0  0  0  0  0  0  0  0  0  0  0
  -27.5676  -31.1476   22.4962 O   0  0  0  0  0  0  0  0  0  0  0  0
  -23.1977  -32.6077   23.6334 O   0  0  0  0  0  0  0  0  0  0  0  0
  -27.6833  -20.7576   25.8047 O   0  0  0  0  0  0  0  0  0  0  0  0
  -23.7082  -11.0725   19.3922 O   0  0  0  0  0  0  0  0  0  0  0  0
  -20.4620  -26.5322   22.2349 O   0  0  0  0  0  0  0  0  0  1  0  0
  -22.8272   -7.2824   23.2989 F   0  0  0  0  0  0  0  0  0  0  0  0
  -24.8289  -21.2726   21.7098 F   0  0  0  0  0  0  0  0  0  0  0  0
  -22.7823  -11.8020   21.8928 F   0  0  0  0  0  0  0  0  0  0  0  0
  1  2  1  0  0  0  0
  1  5  2  0  0  0  0
  2  6  2  0  0  0  0
  3  8  2  0  0  0  0
  3 17  1  0  0  0  0
  4  9  1  0  0  0  0
  4 17  2  0  0  0  0
  5 20  1  0  0  0  0
  6 22  1  0  0  0  0
  7 10  2  0  0  0  0
  7 21  1  0  0  0  0
  8 26  1  0  0  0  0
  9 26  2  0  0  0  0
 10 27  1  0  0  0  0
 11 12  2  0  0  0  0
 11 28  1  0  0  0  0
 12 29  1  0  0  0  0
 13 18  1  0  0  0  0
 13 25  2  0  0  0  0
 14 23  1  0  0  0  0
 14 27  2  0  0  0  0
 15 24  1  0  0  0  0
 15 30  2  0  0  0  0
 16 29  2  0  0  0  0
 16 31  1  0  0  0  0
 17 32  1  0  0  0  0
 18 24  2  0  0  0  0
 18 35  1  0  0  0  0
 19 32  1  0  0  0  0
 19 33  2  0  0  0  0
 19 37  1  0  0  0  0
 20 22  2  0  0  0  0
 20 42  1  0  0  0  0
 21 23  2  0  0  0  0
 21 43  1  0  0  0  0
 22 51  1  0  0  0  0
 23 44  1  0  0  0  0
 24 66  1  0  0  0  0
 25 30  1  0  0  0  0
 25 72  1  0  0  0  0
 26 81  1  0  0  0  0
 27 82  1  0  0  0  0
 28 31  2  0  0  0  0
 28 81  1  0  0  0  0
 29 83  1  0  0  0  0
 30 84  1  0  0  0  0
 31 85  1  0  0  0  0
 32 65  2  0  0  0  0
 33 67  1  0  0  0  0
 33 70  1  0  0  0  0
 34 35  2  0  0  0  0
 36 59  1  0  0  0  0
 36 66  2  0  0  0  0
 37 71  1  0  0  0  0
 37 76  2  0  0  0  0
 38 52  1  0  0  0  0
 38 73  1  0  0  0  0
 38 77  2  0  0  0  0
 39 62  1  0  0  0  0
 39 68  1  0  0  0  0
 39 78  2  0  0  0  0
 40 63  1  0  0  0  0
 40 74  1  0  0  0  0
 40 79  2  0  0  0  0
 41 69  1  0  0  0  0
 41 72  1  0  0  0  0
 41 80  2  0  0  0  0
 42 45  1  0  0  0  0
 43 52  1  0  0  0  0
 44 68  1  0  0  0  0
 45 47  1  0  0  0  0
 46 48  1  0  0  0  0
 46 49  1  0  0  0  0
 47 51  1  0  0  0  0
 48 53  1  0  0  0  0
 49 69  1  0  0  0  0
 50 53  1  0  0  0  0
 50 69  1  0  0  0  0
 51 73  1  0  0  0  0
 52 68  1  0  0  0  0
 53 67  1  0  0  0  0
 54 63  1  0  0  0  0
 55 64  1  0  0  0  0
 56 64  1  0  0  0  0
 57 64  1  0  0  0  0
 58 75  1  0  0  0  0
 59 60  1  0  0  0  0
 60 61  1  0  0  0  0
 61 82  1  0  0  0  0
 62 64  1  0  0  0  0
 62 74  1  0  0  0  0
 63 75  1  0  0  0  0
 65 67  1  0  0  0  0
M  CHG  1  75   1
M  ISO  4  41 100  61 101  72 100  82 101
M  END
> <Batch ID>
0117

> <Smiles>
C=Cc1cc([100NH:0][100C:0](=O)N2CCCC(n3nc(-c4ccc(Oc5ccc(F)cc5F)cc4)c(C(N)=O)c3N)C2)c(F)cc1NC=CC[101CH2:1][101O:1]c1ccc2c(c1)CN(C(=O)C(NC(=O)C(C)NC)C(C)(C)C)C(C(=O)NC1CCCc3ccccc31)C2

> <Shape>
0.241

> <Color>
0.078

> <Negative vol penalty>
0.000

$$$$

  -OEChem-04052301463D

 83 91  0     1  0  0  0  0  0999 V2000
  -17.9837  -27.2015   19.1963 C   0  0  0  0  0  0  0  0  0  0  0  0
  -19.0388  -26.4480   19.7005 C   0  0  0  0  0  0  0  0  0  0  0  0
  -22.7631  -11.7600   19.0067 C   0  0  0  0  0  0  0  0  0  0  0  0
  -22.9425  -10.2589   20.8913 C   0  0  0  0  0  0  0  0  0  0  0  0
  -18.0194  -28.5928   19.2806 C   0  0  0  0  0  0  0  0  0  0  0  0
  -20.1308  -27.0854   20.2885 C   0  0  0  0  0  0  0  0  0  0  0  0
  -21.5656  -24.8842   24.6176 C   0  0  0  0  0  0  0  0  0  0  0  0
  -21.6981  -11.0088   18.5098 C   0  0  0  0  0  0  0  0  0  0  0  0
  -21.8774   -9.5077   20.3943 C   0  0  0  0  0  0  0  0  0  0  0  0
  -22.3128  -23.7113   24.5184 C   0  0  0  0  0  0  0  0  0  0  0  0
  -19.4399   -6.9876   19.4366 C   0  0  0  0  0  0  0  0  0  0  0  0
  -19.5690   -5.5988   19.4393 C   0  0  0  0  0  0  0  0  0  0  0  0
  -24.3309  -24.9701   24.9206 C   0  0  0  0  0  0  0  0  0  0  0  0
  -28.7690  -18.6702   20.1451 C   0  0  0  0  0  0  0  0  0  0  0  0
  -21.5084   -5.7763   18.0095 C   0  0  0  0  0  0  0  0  0  0  0  0
  -23.3854  -11.3850   20.1975 C   0  0  0  0  0  0  0  0  0  0  0  0
  -24.4159  -13.2566   21.5913 C   0  0  0  0  0  0  0  0  0  0  0  0
  -19.1079  -29.2471   19.8785 C   0  0  0  0  0  0  0  0  0  0  0  0
  -22.1977  -26.1125   24.8586 C   0  0  0  0  0  0  0  0  0  0  0  0
  -20.1818  -28.4867   20.3796 C   0  0  0  0  0  0  0  0  0  0  0  0
  -23.5893  -26.1567   25.0249 C   0  0  0  0  0  0  0  0  0  0  0  0
  -21.2552   -9.8827   19.2036 C   0  0  0  0  0  0  0  0  0  0  0  0
  -23.6959  -23.7545   24.6670 C   0  0  0  0  0  0  0  0  0  0  0  0
  -20.3449   -7.7708   18.7202 C   0  0  0  0  0  0  0  0  0  0  0  0
  -28.4652  -20.0608   20.0801 C   0  0  0  0  0  0  0  0  0  0  0  0
  -20.6033   -4.9931   18.7258 C   0  0  0  0  0  0  0  0  0  0  0  0
  -21.3792   -7.1651   18.0067 C   0  0  0  0  0  0  0  0  0  0  0  0
  -24.4860  -12.1602   20.7111 C   0  0  0  0  0  0  0  0  0  0  0  0
  -29.9218  -18.3597   19.4580 C   0  0  0  0  0  0  0  0  0  0  0  0
  -29.3977  -20.7602   19.3459 C   0  0  0  0  0  0  0  0  0  0  0  0
  -25.7234  -13.6369   21.7709 C   0  0  0  0  0  0  0  0  0  0  0  0
  -30.5693  -17.0473   19.2844 C   0  0  0  0  0  0  0  0  0  0  0  0
  -25.0657  -20.7735   23.2083 C   0  0  0  0  0  0  0  0  0  0  0  0
  -25.3617  -20.6374   21.9075 C   0  0  0  0  0  0  0  0  0  0  0  0
  -23.2712  -13.8758   22.1929 C   0  0  0  0  0  0  0  0  0  0  0  0
  -22.4597  -28.8509   23.2660 C   0  0  0  0  0  0  0  0  0  0  0  0
  -23.9188  -29.8436   25.9878 C   0  0  0  0  0  0  0  0  0  0  0  0
  -25.6377  -29.0214   28.8191 C   0  0  0  0  0  0  0  0  0  0  0  0
  -30.7392  -14.7756   19.6035 C   0  0  0  0  0  0  0  0  0  0  0  0
  -19.1236  -30.7550   19.9041 C   0  0  0  0  0  0  0  0  0  0  0  0
  -21.3747  -27.3648   24.9894 C   0  0  0  0  0  0  0  0  0  0  0  0
  -24.3138  -27.4471   25.3051 C   0  0  0  0  0  0  0  0  0  0  0  0
  -20.1443  -31.3371   20.8786 C   0  0  0  0  0  0  0  0  0  0  0  0
  -30.0380  -11.3488   20.4811 C   0  0  0  0  0  0  0  0  0  0  0  0
  -21.4898  -30.6351   20.7247 C   0  0  0  0  0  0  0  0  0  0  0  0
  -28.5196  -11.3393   20.6567 C   0  0  0  0  0  0  0  0  0  0  0  0
  -30.4677  -12.3064   19.3739 C   0  0  0  0  0  0  0  0  0  0  0  0
  -28.4463  -13.6971   19.7321 C   0  0  0  0  0  0  0  0  0  0  0  0
  -21.3724  -29.1405   21.0468 C   0  0  1  0  0  0  0  0  0  0  0  0
  -22.1755  -28.6363   24.7257 C   0  0  1  0  0  0  0  0  0  0  0  0
  -27.9778  -12.7651   20.8626 C   0  0  1  0  0  0  0  0  0  0  0  0
  -29.4454  -22.2085   19.0444 C   0  0  0  0  0  0  0  0  0  0  0  0
  -26.7290  -30.0518   30.8302 C   0  0  0  0  0  0  0  0  0  0  0  0
  -26.2722  -30.7237   24.2567 C   0  0  0  0  0  0  0  0  0  0  0  0
  -27.6643  -30.8465   26.3340 C   0  0  0  0  0  0  0  0  0  0  0  0
  -25.6670  -32.3200   26.0843 C   0  0  0  0  0  0  0  0  0  0  0  0
  -23.8375  -27.5837   30.6769 C   0  0  0  0  0  0  0  0  0  0  0  0
  -23.9200  -21.5856   23.7176 C   0  0  0  0  0  0  0  0  0  1  0  0
  -26.5002  -19.8160   21.3972 C   0  0  0  0  0  0  0  0  0  0  0  0
  -25.3392  -29.8476   26.4990 C   0  0  1  0  0  0  0  0  0  0  0  0
  -25.4551  -29.4420   30.2662 C   0  0  2  0  0  0  0  0  0  0  0  0
  -26.2225  -30.9102   25.7863 C   0  0  0  0  0  0  0  0  0  0  0  0
  -25.7389  -11.8633   20.3560 N   0  0  0  0  0  0  0  0  0  0  0  0
  -30.0777  -15.9717   19.8066 N   0  0  0  0  0  0  0  0  0  0  0  0
  -26.4682  -12.7788   21.0164 N   0  0  0  0  0  0  0  0  0  0  0  0
  -23.4659  -28.6453   25.4178 N   0  0  0  0  0  0  0  0  0  0  0  0
  -29.9068  -13.6414   19.5859 N   0  0  0  0  0  0  0  0  0  0  0  0
  -26.2972  -14.6183   22.4989 N   0  0  0  0  0  0  0  0  0  0  0  0
  -22.0015  -13.3591   21.9013 N   0  0  0  0  0  0  0  0  0  0  0  0
  -21.3273  -28.9341   22.4785 N   0  0  0  0  0  0  0  0  0  0  0  0
  -25.2519  -30.0161   27.9455 N   0  0  0  0  0  0  0  0  0  0  0  0
  -25.0855  -28.2667   31.1046 N   0  3  0  0  0  0  0  0  0  0  0  0
  -23.3702  -14.8686   22.9533 O   0  0  0  0  0  0  0  0  0  0  0  0
  -23.6206  -28.9364   22.8827 O   0  0  0  0  0  0  0  0  0  0  0  0
  -23.2339  -30.8637   26.0968 O   0  0  0  0  0  0  0  0  0  0  0  0
  -26.0818  -27.9219   28.4959 O   0  0  0  0  0  0  0  0  0  0  0  0
  -31.9584  -14.6831   19.4422 O   0  0  0  0  0  0  0  0  0  0  0  0
  -20.2158   -9.1496   18.7190 O   0  0  0  0  0  0  0  0  0  0  0  0
  -24.4277  -22.6113   24.5700 O   0  0  0  0  0  0  0  0  0  1  0  0
  -27.3814  -20.6593   20.6686 O   0  0  0  0  0  0  0  0  0  0  0  0
  -20.7281   -3.6594   18.7298 F   0  0  0  0  0  0  0  0  0  0  0  0
  -22.2524   -7.9124   17.3175 F   0  0  0  0  0  0  0  0  0  0  0  0
  -30.6329  -19.7414   18.7386 S   0  0  0  0  0  0  0  0  0  0  0  0
  1  2  1  0  0  0  0
  1  5  2  0  0  0  0
  2  6  2  0  0  0  0
  3  8  2  0  0  0  0
  3 16  1  0  0  0  0
  4  9  1  0  0  0  0
  4 16  2  0  0  0  0
  5 18  1  0  0  0  0
  6 20  1  0  0  0  0
  7 10  2  0  0  0  0
  7 19  1  0  0  0  0
  8 22  1  0  0  0  0
  9 22  2  0  0  0  0
 10 23  1  0  0  0  0
 11 12  2  0  0  0  0
 11 24  1  0  0  0  0
 12 26  1  0  0  0  0
 13 21  1  0  0  0  0
 13 23  2  0  0  0  0
 14 25  1  0  0  0  0
 14 29  2  0  0  0  0
 15 26  2  0  0  0  0
 15 27  1  0  0  0  0
 16 28  1  0  0  0  0
 17 28  1  0  0  0  0
 17 31  2  0  0  0  0
 17 35  1  0  0  0  0
 18 20  2  0  0  0  0
 18 40  1  0  0  0  0
 19 21  2  0  0  0  0
 19 41  1  0  0  0  0
 20 49  1  0  0  0  0
 21 42  1  0  0  0  0
 22 78  1  0  0  0  0
 23 79  1  0  0  0  0
 24 27  2  0  0  0  0
 24 78  1  0  0  0  0
 25 30  2  0  0  0  0
 25 80  1  0  0  0  0
 26 81  1  0  0  0  0
 27 82  1  0  0  0  0
 28 63  2  0  0  0  0
 29 32  1  0  0  0  0
 29 83  1  0  0  0  0
 30 52  1  0  0  0  0
 30 83  1  0  0  0  0
 31 65  1  0  0  0  0
 31 68  1  0  0  0  0
 32 64  2  0  0  0  0
 33 34  2  0  0  0  0
 33 58  1  0  0  0  0
 34 59  1  0  0  0  0
 35 69  1  0  0  0  0
 35 73  2  0  0  0  0
 36 50  1  0  0  0  0
 36 70  1  0  0  0  0
 36 74  2  0  0  0  0
 37 60  1  0  0  0  0
 37 66  1  0  0  0  0
 37 75  2  0  0  0  0
 38 61  1  0  0  0  0
 38 71  1  0  0  0  0
 38 76  2  0  0  0  0
 39 64  1  0  0  0  0
 39 67  1  0  0  0  0
 39 77  2  0  0  0  0
 40 43  1  0  0  0  0
 41 50  1  0  0  0  0
 42 66  1  0  0  0  0
 43 45  1  0  0  0  0
 44 46  1  0  0  0  0
 44 47  1  0  0  0  0
 45 49  1  0  0  0  0
 46 51  1  0  0  0  0
 47 67  1  0  0  0  0
 48 51  1  0  0  0  0
 48 67  1  0  0  0  0
 49 70  1  0  0  0  0
 50 66  1  0  0  0  0
 51 65  1  0  0  0  0
 53 61  1  0  0  0  0
 54 62  1  0  0  0  0
 55 62  1  0  0  0  0
 56 62  1  0  0  0  0
 57 72  1  0  0  0  0
 58 79  1  0  0  0  0
 59 80  1  0  0  0  0
 60 62  1  0  0  0  0
 60 71  1  0  0  0  0
 61 72  1  0  0  0  0
 63 65  1  0  0  0  0
M  CHG  1  72   1
M  ISO  4  39 100  58 101  64 100  79 101
M  END
> <Batch ID>
0117

> <Smiles>
CNC(C)C(=O)NC(C(=O)N1Cc2cc([101O:1][101CH2:1]C=CCOc3cc(C=[100N:0][100C:0](=O)N4CCCC(n5nc(-c6ccc(Oc7ccc(F)cc7F)cc6)c(C(N)=O)c5N)C4)sc3C)ccc2CC1C(=O)NC1CCCc2ccccc21)C(C)(C)C

> <Shape>
0.211

> <Color>
0.128

> <Negative vol penalty>
0.000

$$$$

  -OEChem-04052301463D

 87 95  0     1  0  0  0  0  0999 V2000
  -19.5030  -33.7349   20.9359 C   0  0  0  0  0  0  0  0  0  0  0  0
  -20.7612  -33.2695   20.5678 C   0  0  0  0  0  0  0  0  0  0  0  0
  -24.4534   -9.5013   22.1162 C   0  0  0  0  0  0  0  0  0  0  0  0
  -24.0799   -9.1128   19.7610 C   0  0  0  0  0  0  0  0  0  0  0  0
  -18.8542  -33.1866   22.0416 C   0  0  0  0  0  0  0  0  0  0  0  0
  -21.3720  -32.2562   21.3057 C   0  0  0  0  0  0  0  0  0  0  0  0
  -24.9949  -27.8099   19.1585 C   0  0  0  0  0  0  0  0  0  0  0  0
  -23.2895   -8.7941   22.4174 C   0  0  0  0  0  0  0  0  0  0  0  0
  -22.9160   -8.4056   20.0623 C   0  0  0  0  0  0  0  0  0  0  0  0
  -26.3813  -27.6685   19.1151 C   0  0  0  0  0  0  0  0  0  0  0  0
  -20.6096   -6.7826   23.8270 C   0  0  0  0  0  0  0  0  0  0  0  0
  -20.6649   -5.8559   24.8680 C   0  0  0  0  0  0  0  0  0  0  0  0
  -26.3071  -26.3757   21.1503 C   0  0  0  0  0  0  0  0  0  0  0  0
  -30.7377  -21.5998   19.9854 C   0  0  0  0  0  0  0  0  0  0  0  0
  -28.8702  -22.4172   21.2822 C   0  0  0  0  0  0  0  0  0  0  0  0
  -22.3826   -4.6332   23.6883 C   0  0  0  0  0  0  0  0  0  0  0  0
  -24.8486   -9.6607   20.7879 C   0  0  0  0  0  0  0  0  0  0  0  0
  -29.2004  -20.0399   21.0054 C   0  0  0  0  0  0  0  0  0  0  0  0
  -27.3536   -9.8729   20.3548 C   0  0  0  0  0  0  0  0  0  0  0  0
  -19.4532  -32.1594   22.7877 C   0  0  0  0  0  0  0  0  0  0  0  0
  -24.2541  -27.2435   20.2058 C   0  0  0  0  0  0  0  0  0  0  0  0
  -20.7312  -31.6946   22.4232 C   0  0  0  0  0  0  0  0  0  0  0  0
  -24.9112  -26.5092   21.2033 C   0  0  0  0  0  0  0  0  0  0  0  0
  -30.3353  -20.2874   20.2332 C   0  0  0  0  0  0  0  0  0  0  0  0
  -30.0052  -22.6647   20.5100 C   0  0  0  0  0  0  0  0  0  0  0  0
  -22.5208   -8.2462   21.3905 C   0  0  0  0  0  0  0  0  0  0  0  0
  -27.0378  -26.9538   20.1127 C   0  0  0  0  0  0  0  0  0  0  0  0
  -21.4407   -6.6346   22.7165 C   0  0  0  0  0  0  0  0  0  0  0  0
  -28.4678  -21.1048   21.5299 C   0  0  0  0  0  0  0  0  0  0  0  0
  -21.5515   -4.7812   24.7987 C   0  0  0  0  0  0  0  0  0  0  0  0
  -22.3272   -5.5599   22.6472 C   0  0  0  0  0  0  0  0  0  0  0  0
  -26.0505  -10.3916   20.4761 C   0  0  0  0  0  0  0  0  0  0  0  0
  -28.1306  -10.9639   20.0507 C   0  0  0  0  0  0  0  0  0  0  0  0
  -28.7745  -18.6688   21.2680 C   0  0  0  0  0  0  0  0  0  0  0  0
  -27.5934  -18.1366   20.8984 C   0  0  0  0  0  0  0  0  0  0  0  0
  -29.9145  -24.5358   19.2002 C   0  0  0  0  0  0  0  0  0  0  0  0
  -27.8200   -8.5253   20.5036 C   0  0  0  0  0  0  0  0  0  0  0  0
  -27.3125  -16.7252   21.2301 C   0  0  0  0  0  0  0  0  0  0  0  0
  -22.3814  -28.3895   22.5043 C   0  0  0  0  0  0  0  0  0  0  0  0
  -21.8308  -25.2462   23.0860 C   0  0  0  0  0  0  0  0  0  0  0  0
  -22.9132  -22.0196   22.8313 C   0  0  0  0  0  0  0  0  0  0  0  0
  -18.7336  -31.6306   24.0031 C   0  0  0  0  0  0  0  0  0  0  0  0
  -22.7565  -27.3824   20.2237 C   0  0  0  0  0  0  0  0  0  0  0  0
  -24.1597  -25.8644   22.3383 C   0  0  0  0  0  0  0  0  0  0  0  0
  -19.2875  -30.3009   24.5084 C   0  0  0  0  0  0  0  0  0  0  0  0
  -27.9405  -15.2376   17.9400 C   0  0  0  0  0  0  0  0  0  0  0  0
  -20.8107  -30.3474   24.5736 C   0  0  0  0  0  0  0  0  0  0  0  0
  -27.5949  -13.7752   18.2082 C   0  0  0  0  0  0  0  0  0  0  0  0
  -27.0598  -16.1904   18.7469 C   0  0  0  0  0  0  0  0  0  0  0  0
  -26.7252  -14.4522   20.4810 C   0  0  0  0  0  0  0  0  0  0  0  0
  -21.4157  -30.5796   23.1838 C   0  0  1  0  0  0  0  0  0  0  0  0
  -22.1562  -27.2001   21.6143 C   0  0  1  0  0  0  0  0  0  0  0  0
  -27.6306  -13.4750   19.7151 C   0  0  1  0  0  0  0  0  0  0  0  0
  -30.8800  -18.9792   18.1647 C   0  0  0  0  0  0  0  0  0  0  0  0
  -26.4987  -20.5283   24.4939 C   0  0  0  0  0  0  0  0  0  0  0  0
  -22.2650  -19.6711   23.4327 C   0  0  0  0  0  0  0  0  0  0  0  0
  -22.6228  -25.7725   25.9852 C   0  0  0  0  0  0  0  0  0  0  0  0
  -22.8781  -23.3008   26.2912 C   0  0  0  0  0  0  0  0  0  0  0  0
  -20.6521  -24.2594   25.7004 C   0  0  0  0  0  0  0  0  0  0  0  0
  -22.8525  -21.1859   19.9923 C   0  0  0  0  0  0  0  0  0  0  0  0
  -31.1467  -19.1730   19.6537 C   0  0  0  0  0  0  0  0  0  0  0  0
  -30.2643  -25.9542   18.8371 C   0  0  0  0  0  0  0  0  0  0  0  0
  -27.3730  -21.4022   23.6201 C   0  0  0  0  0  0  0  0  0  0  0  0
  -29.0053  -26.8032   18.7851 C   0  0  0  0  0  0  0  0  0  1  0  0
  -22.4757  -24.1899   23.9506 C   0  0  1  0  0  0  0  0  0  0  0  0
  -22.2120  -20.7556   22.3678 C   0  0  2  0  0  0  0  0  0  0  0  0
  -22.1718  -24.3943   25.4616 C   0  0  0  0  0  0  0  0  0  0  0  0
  -25.9987  -11.7097   20.2663 N   0  0  0  0  0  0  0  0  0  0  0  0
  -30.4104  -23.9866   20.2605 N   0  0  0  0  0  0  0  0  0  0  0  0
  -27.2789  -12.0284   20.0103 N   0  0  0  0  0  0  0  0  0  0  0  0
  -27.0643  -15.8469   20.1768 N   0  0  0  0  0  0  0  0  0  0  0  0
  -22.6975  -26.0338   22.3151 N   0  0  0  0  0  0  0  0  0  0  0  0
  -29.4524  -11.1070   19.8167 N   0  0  0  0  0  0  0  0  0  0  0  0
  -26.8881   -7.5265   20.8169 N   0  0  0  0  0  0  0  0  0  0  0  0
  -21.3967  -29.3548   22.4132 N   0  0  0  0  0  0  0  0  0  0  0  0
  -22.0349  -22.9040   23.4211 N   0  0  0  0  0  0  0  0  0  0  0  0
  -22.8549  -20.2307   21.1301 N   0  3  0  0  0  0  0  0  0  0  0  0
  -29.0300   -8.2187   20.3790 O   0  0  0  0  0  0  0  0  0  0  0  0
  -27.3102  -16.4107   22.4216 O   0  0  0  0  0  0  0  0  0  0  0  0
  -23.3741  -28.4280   23.2217 O   0  0  0  0  0  0  0  0  0  0  0  0
  -20.6028  -25.3631   23.0889 O   0  0  0  0  0  0  0  0  0  0  0  0
  -24.1201  -22.2026   22.6880 O   0  0  0  0  0  0  0  0  0  0  0  0
  -21.3851   -7.5559   21.6842 O   0  0  0  0  0  0  0  0  0  0  0  0
  -28.3910  -26.8148   20.0731 O   0  0  0  0  0  0  0  0  0  1  0  0
  -27.3540  -20.8939   22.2884 O   0  0  0  0  0  0  0  0  0  0  0  0
  -21.6056   -3.8923   25.7992 F   0  0  0  0  0  0  0  0  0  0  0  0
  -23.1290   -5.4131   21.5835 F   0  0  0  0  0  0  0  0  0  0  0  0
  1  2  1  0  0  0  0
  1  5  2  0  0  0  0
  2  6  2  0  0  0  0
  3  8  2  0  0  0  0
  3 17  1  0  0  0  0
  4  9  1  0  0  0  0
  4 17  2  0  0  0  0
  5 20  1  0  0  0  0
  6 22  1  0  0  0  0
  7 10  2  0  0  0  0
  7 21  1  0  0  0  0
  8 26  1  0  0  0  0
  9 26  2  0  0  0  0
 10 27  1  0  0  0  0
 11 12  2  0  0  0  0
 11 28  1  0  0  0  0
 12 30  1  0  0  0  0
 13 23  1  0  0  0  0
 13 27  2  0  0  0  0
 14 24  2  0  0  0  0
 14 25  1  0  0  0  0
 15 25  2  0  0  0  0
 15 29  1  0  0  0  0
 16 30  2  0  0  0  0
 16 31  1  0  0  0  0
 17 32  1  0  0  0  0
 18 24  1  0  0  0  0
 18 29  2  0  0  0  0
 18 34  1  0  0  0  0
 19 32  1  0  0  0  0
 19 33  2  0  0  0  0
 19 37  1  0  0  0  0
 20 22  2  0  0  0  0
 20 42  1  0  0  0  0
 21 23  2  0  0  0  0
 21 43  1  0  0  0  0
 22 51  1  0  0  0  0
 23 44  1  0  0  0  0
 24 61  1  0  0  0  0
 25 69  1  0  0  0  0
 26 83  1  0  0  0  0
 27 84  1  0  0  0  0
 28 31  2  0  0  0  0
 28 83  1  0  0  0  0
 29 85  1  0  0  0  0
 30 86  1  0  0  0  0
 31 87  1  0  0  0  0
 32 68  2  0  0  0  0
 33 70  1  0  0  0  0
 33 73  1  0  0  0  0
 34 35  2  0  0  0  0
 35 38  1  0  0  0  0
 36 62  1  0  0  0  0
 36 69  2  0  0  0  0
 37 74  1  0  0  0  0
 37 78  2  0  0  0  0
 38 71  1  0  0  0  0
 38 79  2  0  0  0  0
 39 52  1  0  0  0  0
 39 75  1  0  0  0  0
 39 80  2  0  0  0  0
 40 65  1  0  0  0  0
 40 72  1  0  0  0  0
 40 81  2  0  0  0  0
 41 66  1  0  0  0  0
 41 76  1  0  0  0  0
 41 82  2  0  0  0  0
 42 45  1  0  0  0  0
 43 52  1  0  0  0  0
 44 72  1  0  0  0  0
 45 47  1  0  0  0  0
 46 48  1  0  0  0  0
 46 49  1  0  0  0  0
 47 51  1  0  0  0  0
 48 53  1  0  0  0  0
 49 71  1  0  0  0  0
 50 53  1  0  0  0  0
 50 71  1  0  0  0  0
 51 75  1  0  0  0  0
 52 72  1  0  0  0  0
 53 70  1  0  0  0  0
 54 61  1  0  0  0  0
 55 63  1  0  0  0  0
 56 66  1  0  0  0  0
 57 67  1  0  0  0  0
 58 67  1  0  0  0  0
 59 67  1  0  0  0  0
 60 77  1  0  0  0  0
 62 64  1  0  0  0  0
 63 85  1  0  0  0  0
 64 84  1  0  0  0  0
 65 67  1  0  0  0  0
 65 76  1  0  0  0  0
 66 77  1  0  0  0  0
 68 70  1  0  0  0  0
M  CHG  1  77   1
M  ISO  4  35 100  38 100  64 101  84 101
M  END
> <Batch ID>
0117

> <Smiles>
CCOc1cc(NC=C[101CH2:1][101O:1]c2ccc3c(c2)CN(C(=O)C(NC(=O)C(C)NC)C(C)(C)C)C(C(=O)NC2CCCc4ccccc42)C3)cc(CC)c1C=[100CH:0][100C:0](=O)N1CCCC(n2nc(-c3ccc(Oc4ccc(F)cc4F)cc3)c(C(N)=O)c2N)C1

> <Shape>
0.241

> <Color>
0.122

> <Negative vol penalty>
0.000

$$$$

  -OEChem-04052301463D

 86 94  0     1  0  0  0  0  0999 V2000
  -27.8630  -36.6455   21.7398 C   0  0  0  0  0  0  0  0  0  0  0  0
  -28.1544  -35.2865   21.8004 C   0  0  0  0  0  0  0  0  0  0  0  0
  -24.3299   -8.6798   21.4097 C   0  0  0  0  0  0  0  0  0  0  0  0
  -24.2762  -10.3886   23.1167 C   0  0  0  0  0  0  0  0  0  0  0  0
  -26.6271  -37.1128   22.1849 C   0  0  0  0  0  0  0  0  0  0  0  0
  -27.2104  -34.3941   22.3072 C   0  0  0  0  0  0  0  0  0  0  0  0
  -26.7528  -30.2283   19.4643 C   0  0  0  0  0  0  0  0  0  0  0  0
  -29.2418  -18.7971   18.9378 C   0  0  0  0  0  0  0  0  0  0  0  0
  -29.2162  -20.1889   19.0257 C   0  0  0  0  0  0  0  0  0  0  0  0
  -23.9767   -7.7205   22.3587 C   0  0  0  0  0  0  0  0  0  0  0  0
  -23.9229   -9.4293   24.0658 C   0  0  0  0  0  0  0  0  0  0  0  0
  -27.7387  -29.2522   19.6018 C   0  0  0  0  0  0  0  0  0  0  0  0
  -22.7369   -4.8817   24.2610 C   0  0  0  0  0  0  0  0  0  0  0  0
  -21.7486   -3.9601   23.9149 C   0  0  0  0  0  0  0  0  0  0  0  0
  -26.2742  -27.9841   21.0394 C   0  0  0  0  0  0  0  0  0  0  0  0
  -20.1786   -5.7669   23.5869 C   0  0  0  0  0  0  0  0  0  0  0  0
  -24.4796  -10.0138   21.7887 C   0  0  0  0  0  0  0  0  0  0  0  0
  -26.8309  -18.7625   18.7836 C   0  0  0  0  0  0  0  0  0  0  0  0
  -23.9754  -11.7738   20.0123 C   0  0  0  0  0  0  0  0  0  0  0  0
  -25.6638  -36.2245   22.6883 C   0  0  0  0  0  0  0  0  0  0  0  0
  -25.5221  -30.0948   20.1232 C   0  0  0  0  0  0  0  0  0  0  0  0
  -25.9609  -34.8501   22.7606 C   0  0  0  0  0  0  0  0  0  0  0  0
  -25.2734  -28.9587   20.9066 C   0  0  0  0  0  0  0  0  0  0  0  0
  -26.8053  -20.1544   18.8716 C   0  0  0  0  0  0  0  0  0  0  0  0
  -28.0491  -18.0839   18.8167 C   0  0  0  0  0  0  0  0  0  0  0  0
  -27.9980  -20.8676   18.9926 C   0  0  0  0  0  0  0  0  0  0  0  0
  -23.7732   -8.0953   23.6868 C   0  0  0  0  0  0  0  0  0  0  0  0
  -27.5006  -28.1313   20.3917 C   0  0  0  0  0  0  0  0  0  0  0  0
  -22.4460   -6.2459   24.2701 C   0  0  0  0  0  0  0  0  0  0  0  0
  -20.4695   -4.4027   23.5779 C   0  0  0  0  0  0  0  0  0  0  0  0
  -21.1669   -6.6885   23.9330 C   0  0  0  0  0  0  0  0  0  0  0  0
  -24.8450  -11.0051   20.8089 C   0  0  0  0  0  0  0  0  0  0  0  0
  -24.8087  -12.5591   19.2536 C   0  0  0  0  0  0  0  0  0  0  0  0
  -24.8683  -17.6051   19.6914 C   0  0  0  0  0  0  0  0  0  0  0  0
  -25.5795  -18.0185   18.6563 C   0  0  0  0  0  0  0  0  0  0  0  0
  -22.5425  -11.7779   19.9625 C   0  0  0  0  0  0  0  0  0  0  0  0
  -23.9698  -31.7665   22.3366 C   0  0  0  0  0  0  0  0  0  0  0  0
  -21.5994  -29.6386   21.7238 C   0  0  0  0  0  0  0  0  0  0  0  0
  -29.0976  -23.1229   19.2096 C   0  0  0  0  0  0  0  0  0  0  0  0
  -20.7015  -26.5537   20.5731 C   0  0  0  0  0  0  0  0  0  0  0  0
  -29.2547  -15.8729   18.7486 C   0  0  0  0  0  0  0  0  0  0  0  0
  -24.3598  -36.7822   23.2015 C   0  0  0  0  0  0  0  0  0  0  0  0
  -24.4591  -31.1436   19.9432 C   0  0  0  0  0  0  0  0  0  0  0  0
  -23.9614  -28.7581   21.6185 C   0  0  0  0  0  0  0  0  0  0  0  0
  -23.2722  -35.7255   23.3767 C   0  0  0  0  0  0  0  0  0  0  0  0
  -29.8234  -12.3615   18.5938 C   0  0  0  0  0  0  0  0  0  0  0  0
  -23.8292  -34.5001   24.0944 C   0  0  0  0  0  0  0  0  0  0  0  0
  -28.5074  -11.7589   19.0908 C   0  0  0  0  0  0  0  0  0  0  0  0
  -30.1787  -13.6442   19.3437 C   0  0  0  0  0  0  0  0  0  0  0  0
  -27.8065  -14.0616   19.8610 C   0  0  0  0  0  0  0  0  0  0  0  0
  -24.9535  -33.8478   23.2808 C   0  0  1  0  0  0  0  0  0  0  0  0
  -23.4339  -31.1553   21.0729 C   0  0  1  0  0  0  0  0  0  0  0  0
  -27.3738  -12.8032   19.0909 C   0  0  2  0  0  0  0  0  0  0  0  0
  -25.5027  -20.8949   18.8368 C   0  0  0  0  0  0  0  0  0  0  0  0
  -18.6949  -25.0860   20.2314 C   0  0  0  0  0  0  0  0  0  0  0  0
  -21.5173  -29.0577   24.7181 C   0  0  0  0  0  0  0  0  0  0  0  0
  -20.2258  -26.9744   24.2077 C   0  0  0  0  0  0  0  0  0  0  0  0
  -19.2742  -29.2047   23.6220 C   0  0  0  0  0  0  0  0  0  0  0  0
  -21.1456  -26.4297   17.6497 C   0  0  0  0  0  0  0  0  0  0  0  0
  -28.6512  -24.5769   19.2762 C   0  0  0  0  0  0  0  0  0  0  0  0
  -29.8213  -25.5448   19.4137 C   0  0  0  0  0  0  0  0  0  0  0  0
  -29.3541  -26.9930   19.4302 C   0  0  0  0  0  0  0  0  0  1  0  0
  -21.2063  -28.2885   22.2731 C   0  0  1  0  0  0  0  0  0  0  0  0
  -19.6196  -26.1164   19.6022 C   0  0  2  0  0  0  0  0  0  0  0  0
  -20.5815  -28.3858   23.6935 C   0  0  0  0  0  0  0  0  0  0  0  0
  -26.1321  -11.2772   20.5777 N   0  0  0  0  0  0  0  0  0  0  0  0
  -26.0774  -12.2257   19.6272 N   0  0  0  0  0  0  0  0  0  0  0  0
  -22.9560  -29.8145   21.4164 N   0  0  0  0  0  0  0  0  0  0  0  0
  -29.0597  -14.5880   19.2979 N   0  0  0  0  0  0  0  0  0  0  0  0
  -24.5727  -13.4953   18.3101 N   0  0  0  0  0  0  0  0  0  0  0  0
  -21.8421  -10.9084   20.8097 N   0  0  0  0  0  0  0  0  0  0  0  0
  -27.9970  -22.2797   19.0847 N   0  0  0  0  0  0  0  0  0  0  0  0
  -28.1113  -16.6710   18.7288 N   0  0  0  0  0  0  0  0  0  0  0  0
  -24.4032  -33.0705   22.1910 N   0  0  0  0  0  0  0  0  0  0  0  0
  -20.3318  -27.6810   21.2759 N   0  0  0  0  0  0  0  0  0  0  0  0
  -20.2302  -25.5171   18.3820 N   0  3  0  0  0  0  0  0  0  0  0  0
  -21.9026  -12.5184   19.1779 O   0  0  0  0  0  0  0  0  0  0  0  0
  -23.9872  -31.1046   23.3677 O   0  0  0  0  0  0  0  0  0  0  0  0
  -20.7334  -30.5028   21.5662 O   0  0  0  0  0  0  0  0  0  0  0  0
  -30.2800  -22.8015   19.2642 O   0  0  0  0  0  0  0  0  0  0  0  0
  -21.7664  -25.9530   20.6985 O   0  0  0  0  0  0  0  0  0  0  0  0
  -30.3483  -16.2287   18.3020 O   0  0  0  0  0  0  0  0  0  0  0  0
  -23.4284   -7.1596   24.6131 O   0  0  0  0  0  0  0  0  0  0  0  0
  -28.4614  -27.1773   20.5282 O   0  0  0  0  0  0  0  0  0  1  0  0
  -19.5211   -3.5178   23.2441 F   0  0  0  0  0  0  0  0  0  0  0  0
  -20.8818   -7.9979   23.9388 F   0  0  0  0  0  0  0  0  0  0  0  0
  1  2  1  0  0  0  0
  1  5  2  0  0  0  0
  2  6  2  0  0  0  0
  3 10  2  0  0  0  0
  3 17  1  0  0  0  0
  4 11  1  0  0  0  0
  4 17  2  0  0  0  0
  5 20  1  0  0  0  0
  6 22  1  0  0  0  0
  7 12  2  0  0  0  0
  7 21  1  0  0  0  0
  8  9  1  0  0  0  0
  8 25  2  0  0  0  0
  9 26  2  0  0  0  0
 10 27  1  0  0  0  0
 11 27  2  0  0  0  0
 12 28  1  0  0  0  0
 13 14  2  0  0  0  0
 13 29  1  0  0  0  0
 14 30  1  0  0  0  0
 15 23  1  0  0  0  0
 15 28  2  0  0  0  0
 16 30  2  0  0  0  0
 16 31  1  0  0  0  0
 17 32  1  0  0  0  0
 18 24  2  0  0  0  0
 18 25  1  0  0  0  0
 18 35  1  0  0  0  0
 19 32  1  0  0  0  0
 19 33  2  0  0  0  0
 19 36  1  0  0  0  0
 20 22  2  0  0  0  0
 20 42  1  0  0  0  0
 21 23  2  0  0  0  0
 21 43  1  0  0  0  0
 22 51  1  0  0  0  0
 23 44  1  0  0  0  0
 24 26  1  0  0  0  0
 24 54  1  0  0  0  0
 25 73  1  0  0  0  0
 26 72  1  0  0  0  0
 27 83  1  0  0  0  0
 28 84  1  0  0  0  0
 29 31  2  0  0  0  0
 29 83  1  0  0  0  0
 30 85  1  0  0  0  0
 31 86  1  0  0  0  0
 32 66  2  0  0  0  0
 33 67  1  0  0  0  0
 33 70  1  0  0  0  0
 34 35  2  0  0  0  0
 36 71  1  0  0  0  0
 36 77  2  0  0  0  0
 37 52  1  0  0  0  0
 37 74  1  0  0  0  0
 37 78  2  0  0  0  0
 38 63  1  0  0  0  0
 38 68  1  0  0  0  0
 38 79  2  0  0  0  0
 39 60  1  0  0  0  0
 39 72  1  0  0  0  0
 39 80  2  0  0  0  0
 40 64  1  0  0  0  0
 40 75  1  0  0  0  0
 40 81  2  0  0  0  0
 41 69  1  0  0  0  0
 41 73  1  0  0  0  0
 41 82  2  0  0  0  0
 42 45  1  0  0  0  0
 43 52  1  0  0  0  0
 44 68  1  0  0  0  0
 45 47  1  0  0  0  0
 46 48  1  0  0  0  0
 46 49  1  0  0  0  0
 47 51  1  0  0  0  0
 48 53  1  0  0  0  0
 49 69  1  0  0  0  0
 50 53  1  0  0  0  0
 50 69  1  0  0  0  0
 51 74  1  0  0  0  0
 52 68  1  0  0  0  0
 53 67  1  0  0  0  0
 55 64  1  0  0  0  0
 56 65  1  0  0  0  0
 57 65  1  0  0  0  0
 58 65  1  0  0  0  0
 59 76  1  0  0  0  0
 60 61  1  0  0  0  0
 61 62  1  0  0  0  0
 62 84  1  0  0  0  0
 63 65  1  0  0  0  0
 63 75  1  0  0  0  0
 64 76  1  0  0  0  0
 66 67  1  0  0  0  0
M  CHG  1  76   1
M  ISO  4  41 100  62 101  73 100  84 101
M  END
> <Batch ID>
0117

> <Smiles>
C=Cc1c([100NH:0][100C:0](=O)N2CCCC(n3nc(-c4ccc(Oc5ccc(F)cc5F)cc4)c(C(N)=O)c3N)C2)ccc(NC(=O)CC[101CH2:1][101O:1]c2ccc3c(c2)CN(C(=O)C(NC(=O)C(C)NC)C(C)(C)C)C(C(=O)NC2CCCc4ccccc42)C3)c1C

> <Shape>
0.349

> <Color>
0.095

> <Negative vol penalty>
0.000

$$$$

  -OEChem-04052301463D

 87 95  0     1  0  0  0  0  0999 V2000
  -29.6183  -32.2054   25.4166 C   0  0  0  0  0  0  0  0  0  0  0  0
  -29.4032  -31.0865   24.6183 C   0  0  0  0  0  0  0  0  0  0  0  0
  -23.5021   -9.1104   20.0693 C   0  0  0  0  0  0  0  0  0  0  0  0
  -23.0788  -10.9151   21.6187 C   0  0  0  0  0  0  0  0  0  0  0  0
  -28.5687  -32.7407   26.1620 C   0  0  0  0  0  0  0  0  0  0  0  0
  -28.1385  -30.5015   24.5660 C   0  0  0  0  0  0  0  0  0  0  0  0
  -26.7208  -29.3587   19.8406 C   0  0  0  0  0  0  0  0  0  0  0  0
  -22.5717   -8.3165   20.7397 C   0  0  0  0  0  0  0  0  0  0  0  0
  -22.1483  -10.1212   22.2892 C   0  0  0  0  0  0  0  0  0  0  0  0
  -27.2681  -28.2093   19.2720 C   0  0  0  0  0  0  0  0  0  0  0  0
  -18.9426   -9.1418   21.8591 C   0  0  0  0  0  0  0  0  0  0  0  0
  -17.7250   -9.7266   22.2069 C   0  0  0  0  0  0  0  0  0  0  0  0
  -30.8914  -19.7427   18.1952 C   0  0  0  0  0  0  0  0  0  0  0  0
  -25.2418  -27.0019   19.7771 C   0  0  0  0  0  0  0  0  0  0  0  0
  -18.1775   -9.2822   24.5382 C   0  0  0  0  0  0  0  0  0  0  0  0
  -23.7557  -10.4097   20.5088 C   0  0  0  0  0  0  0  0  0  0  0  0
  -31.3940  -18.5970   17.5784 C   0  0  0  0  0  0  0  0  0  0  0  0
  -24.4722  -12.0998   18.7374 C   0  0  0  0  0  0  0  0  0  0  0  0
  -27.2881  -32.1677   26.1113 C   0  0  0  0  0  0  0  0  0  0  0  0
  -25.4319  -29.3353   20.3924 C   0  0  0  0  0  0  0  0  0  0  0  0
  -27.0711  -31.0287   25.3125 C   0  0  0  0  0  0  0  0  0  0  0  0
  -24.6794  -28.1529   20.3498 C   0  0  0  0  0  0  0  0  0  0  0  0
  -31.0001  -17.3353   18.0240 C   0  0  0  0  0  0  0  0  0  0  0  0
  -29.6012  -18.3650   19.7033 C   0  0  0  0  0  0  0  0  0  0  0  0
  -29.9951  -19.6267   19.2577 C   0  0  0  0  0  0  0  0  0  0  0  0
  -30.1038  -17.2192   19.0865 C   0  0  0  0  0  0  0  0  0  0  0  0
  -21.8947   -8.8218   21.8497 C   0  0  0  0  0  0  0  0  0  0  0  0
  -26.5297  -27.0299   19.2428 C   0  0  0  0  0  0  0  0  0  0  0  0
  -19.7777   -8.6271   22.8508 C   0  0  0  0  0  0  0  0  0  0  0  0
  -17.3424   -9.7969   23.5464 C   0  0  0  0  0  0  0  0  0  0  0  0
  -19.3951   -8.6974   24.1904 C   0  0  0  0  0  0  0  0  0  0  0  0
  -24.7172  -11.2302   19.8170 C   0  0  0  0  0  0  0  0  0  0  0  0
  -25.7010  -12.6397   18.4458 C   0  0  0  0  0  0  0  0  0  0  0  0
  -32.0474  -19.4219   15.3631 C   0  0  0  0  0  0  0  0  0  0  0  0
  -32.3294  -18.7550   16.4719 C   0  0  0  0  0  0  0  0  0  0  0  0
  -27.7127  -23.6540   19.0349 C   0  0  0  0  0  0  0  0  0  0  0  0
  -27.2025  -24.8027   19.4824 C   0  0  0  0  0  0  0  0  0  1  0  0
  -28.4148  -21.2651   19.3555 C   0  0  0  0  0  0  0  0  0  0  0  0
  -23.2437  -12.3936   18.0590 C   0  0  0  0  0  0  0  0  0  0  0  0
  -27.8326  -22.5027   19.9515 C   0  0  0  0  0  0  0  0  0  0  0  0
  -24.2253  -29.8119   23.2943 C   0  0  0  0  0  0  0  0  0  0  0  0
  -21.3933  -29.5331   21.7372 C   0  0  0  0  0  0  0  0  0  0  0  0
  -19.6734  -28.3341   19.0444 C   0  0  0  0  0  0  0  0  0  0  0  0
  -30.5200  -14.9262   20.0432 C   0  0  0  0  0  0  0  0  0  0  0  0
  -26.1963  -32.7531   26.9714 C   0  0  0  0  0  0  0  0  0  0  0  0
  -24.8457  -30.5906   20.9781 C   0  0  0  0  0  0  0  0  0  0  0  0
  -23.2834  -28.0807   20.9105 C   0  0  0  0  0  0  0  0  0  0  0  0
  -24.7952  -32.2990   26.5701 C   0  0  0  0  0  0  0  0  0  0  0  0
  -30.3251  -11.3712   20.0679 C   0  0  0  0  0  0  0  0  0  0  0  0
  -24.7659  -30.7900   26.3493 C   0  0  0  0  0  0  0  0  0  0  0  0
  -28.8286  -11.0891   19.9160 C   0  0  0  0  0  0  0  0  0  0  0  0
  -30.5849  -12.6056   20.9295 C   0  0  0  0  0  0  0  0  0  0  0  0
  -28.3779  -13.5369   20.3542 C   0  0  0  0  0  0  0  0  0  0  0  0
  -25.7074  -30.3807   25.2101 C   0  0  1  0  0  0  0  0  0  0  0  0
  -23.7211  -30.3176   21.9722 C   0  0  1  0  0  0  0  0  0  0  0  0
  -28.0646  -12.3406   19.4409 C   0  0  2  0  0  0  0  0  0  0  0  0
  -31.5387  -16.1017   17.3650 C   0  0  0  0  0  0  0  0  0  0  0  0
  -28.6383  -18.2478   20.8439 C   0  0  0  0  0  0  0  0  0  0  0  0
  -17.3639  -28.2332   18.0678 C   0  0  0  0  0  0  0  0  0  0  0  0
  -20.6318  -27.3855   23.7664 C   0  0  0  0  0  0  0  0  0  0  0  0
  -18.7948  -26.6750   22.2207 C   0  0  0  0  0  0  0  0  0  0  0  0
  -18.7892  -28.9744   23.1879 C   0  0  0  0  0  0  0  0  0  0  0  0
  -20.5116  -29.7993   16.6134 C   0  0  0  0  0  0  0  0  0  0  0  0
  -20.4706  -28.3889   21.3929 C   0  0  1  0  0  0  0  0  0  0  0  0
  -18.6787  -28.9964   18.1082 C   0  0  2  0  0  0  0  0  0  0  0  0
  -19.6986  -27.8565   22.6331 C   0  0  0  0  0  0  0  0  0  0  0  0
  -26.0008  -11.2151   20.1860 N   0  0  0  0  0  0  0  0  0  0  0  0
  -29.4995  -20.7929   19.8646 N   0  0  0  0  0  0  0  0  0  0  0  0
  -26.5734  -12.0819   19.3335 N   0  0  0  0  0  0  0  0  0  0  0  0
  -22.7566  -29.3328   21.4781 N   0  0  0  0  0  0  0  0  0  0  0  0
  -29.8320  -13.7525   20.4171 N   0  0  0  0  0  0  0  0  0  0  0  0
  -26.1097  -13.5322   17.5190 N   0  0  0  0  0  0  0  0  0  0  0  0
  -22.0740  -11.7508   18.4868 N   0  0  0  0  0  0  0  0  0  0  0  0
  -29.7030  -15.9379   19.5397 N   0  0  0  0  0  0  0  0  0  0  0  0
  -25.1040  -30.6704   23.9270 N   0  0  0  0  0  0  0  0  0  0  0  0
  -19.6121  -28.8670   20.3146 N   0  0  0  0  0  0  0  0  0  0  0  0
  -19.2300  -29.0564   16.7249 N   0  3  0  0  0  0  0  0  0  0  0  0
  -23.1880  -13.1896   17.0912 O   0  0  0  0  0  0  0  0  0  0  0  0
  -27.5116  -22.4873   21.1278 O   0  0  0  0  0  0  0  0  0  0  0  0
  -23.8440  -28.7241   23.7102 O   0  0  0  0  0  0  0  0  0  0  0  0
  -20.9209  -30.5692   22.2116 O   0  0  0  0  0  0  0  0  0  0  0  0
  -20.4266  -27.4316   18.6857 O   0  0  0  0  0  0  0  0  0  0  0  0
  -31.7469  -15.0166   20.1356 O   0  0  0  0  0  0  0  0  0  0  0  0
  -20.9865   -8.0475   22.5040 O   0  0  0  0  0  0  0  0  0  0  0  0
  -27.0617  -25.9065   18.6890 O   0  0  0  0  0  0  0  0  0  1  0  0
  -16.1738  -10.3599   23.8804 F   0  0  0  0  0  0  0  0  0  0  0  0
  -20.1937   -8.2057   25.1476 F   0  0  0  0  0  0  0  0  0  0  0  0
  1  2  1  0  0  0  0
  1  5  2  0  0  0  0
  2  6  2  0  0  0  0
  3  8  2  0  0  0  0
  3 16  1  0  0  0  0
  4  9  1  0  0  0  0
  4 16  2  0  0  0  0
  5 19  1  0  0  0  0
  6 21  1  0  0  0  0
  7 10  2  0  0  0  0
  7 20  1  0  0  0  0
  8 27  1  0  0  0  0
  9 27  2  0  0  0  0
 10 28  1  0  0  0  0
 11 12  2  0  0  0  0
 11 29  1  0  0  0  0
 12 30  1  0  0  0  0
 13 17  1  0  0  0  0
 13 25  2  0  0  0  0
 14 22  1  0  0  0  0
 14 28  2  0  0  0  0
 15 30  2  0  0  0  0
 15 31  1  0  0  0  0
 16 32  1  0  0  0  0
 17 23  2  0  0  0  0
 17 35  1  0  0  0  0
 18 32  1  0  0  0  0
 18 33  2  0  0  0  0
 18 39  1  0  0  0  0
 19 21  2  0  0  0  0
 19 45  1  0  0  0  0
 20 22  2  0  0  0  0
 20 46  1  0  0  0  0
 21 54  1  0  0  0  0
 22 47  1  0  0  0  0
 23 26  1  0  0  0  0
 23 57  1  0  0  0  0
 24 25  1  0  0  0  0
 24 26  2  0  0  0  0
 24 58  1  0  0  0  0
 25 68  1  0  0  0  0
 26 74  1  0  0  0  0
 27 84  1  0  0  0  0
 28 85  1  0  0  0  0
 29 31  2  0  0  0  0
 29 84  1  0  0  0  0
 30 86  1  0  0  0  0
 31 87  1  0  0  0  0
 32 67  2  0  0  0  0
 33 69  1  0  0  0  0
 33 72  1  0  0  0  0
 34 35  2  0  0  0  0
 36 37  2  0  0  0  0
 36 40  1  0  0  0  0
 37 85  1  0  0  0  0
 38 40  1  0  0  0  0
 38 68  2  0  0  0  0
 39 73  1  0  0  0  0
 39 78  2  0  0  0  0
 40 79  2  0  0  0  0
 41 55  1  0  0  0  0
 41 75  1  0  0  0  0
 41 80  2  0  0  0  0
 42 64  1  0  0  0  0
 42 70  1  0  0  0  0
 42 81  2  0  0  0  0
 43 65  1  0  0  0  0
 43 76  1  0  0  0  0
 43 82  2  0  0  0  0
 44 71  1  0  0  0  0
 44 74  1  0  0  0  0
 44 83  2  0  0  0  0
 45 48  1  0  0  0  0
 46 55  1  0  0  0  0
 47 70  1  0  0  0  0
 48 50  1  0  0  0  0
 49 51  1  0  0  0  0
 49 52  1  0  0  0  0
 50 54  1  0  0  0  0
 51 56  1  0  0  0  0
 52 71  1  0  0  0  0
 53 56  1  0  0  0  0
 53 71  1  0  0  0  0
 54 75  1  0  0  0  0
 55 70  1  0  0  0  0
 56 69  1  0  0  0  0
 59 65  1  0  0  0  0
 60 66  1  0  0  0  0
 61 66  1  0  0  0  0
 62 66  1  0  0  0  0
 63 77  1  0  0  0  0
 64 66  1  0  0  0  0
 64 76  1  0  0  0  0
 65 77  1  0  0  0  0
 67 69  1  0  0  0  0
M  CHG  1  77   1
M  ISO  4  37 101  44 100  74 100  85 101
M  END
> <Batch ID>
0117

> <Smiles>
C=Cc1cc(N=CC(=O)C=[101CH:1][101O:1]c2ccc3c(c2)CN(C(=O)C(NC(=O)C(C)NC)C(C)(C)C)C(C(=O)NC2CCCc4ccccc42)C3)c(C)c([100NH:0][100C:0](=O)N2CCCC(n3nc(-c4ccc(Oc5ccc(F)cc5F)cc4)c(C(N)=O)c3N)C2)c1C

> <Shape>
0.302

> <Color>
0.115

> <Negative vol penalty>
0.000

$$$$

  -OEChem-04052301463D

 85 93  0     1  0  0  0  0  0999 V2000
  -24.4568  -23.1378   16.3238 C   0  0  0  0  0  0  0  0  0  0  0  0
  -25.5026  -22.2930   16.6815 C   0  0  0  0  0  0  0  0  0  0  0  0
  -24.5323  -29.4873   22.1452 C   0  0  0  0  0  0  0  0  0  0  0  0
  -24.0674  -27.5068   23.4485 C   0  0  0  0  0  0  0  0  0  0  0  0
  -23.2490  -23.0825   17.0180 C   0  0  0  0  0  0  0  0  0  0  0  0
  -25.3415  -21.3930   17.7344 C   0  0  0  0  0  0  0  0  0  0  0  0
  -27.1106  -16.7776   16.6331 C   0  0  0  0  0  0  0  0  0  0  0  0
  -23.1974  -29.8755   22.2590 C   0  0  0  0  0  0  0  0  0  0  0  0
  -22.7325  -27.8950   23.5623 C   0  0  0  0  0  0  0  0  0  0  0  0
  -28.4911  -16.5931   16.6962 C   0  0  0  0  0  0  0  0  0  0  0  0
  -19.1243  -28.1811   23.8922 C   0  0  0  0  0  0  0  0  0  0  0  0
  -18.1463  -27.2081   23.6862 C   0  0  0  0  0  0  0  0  0  0  0  0
  -28.0841  -20.4369   22.0349 C   0  0  0  0  0  0  0  0  0  0  0  0
  -28.2500  -15.5775   18.8709 C   0  0  0  0  0  0  0  0  0  0  0  0
  -18.9679  -26.8575   21.4414 C   0  0  0  0  0  0  0  0  0  0  0  0
  -24.9673  -28.3029   22.7399 C   0  0  0  0  0  0  0  0  0  0  0  0
  -28.2099  -19.1035   22.4082 C   0  0  0  0  0  0  0  0  0  0  0  0
  -27.4034  -28.2257   23.4931 C   0  0  0  0  0  0  0  0  0  0  0  0
  -23.0697  -22.1747   18.0737 C   0  0  0  0  0  0  0  0  0  0  0  0
  -26.2892  -16.3726   17.6950 C   0  0  0  0  0  0  0  0  0  0  0  0
  -24.1306  -21.3265   18.4443 C   0  0  0  0  0  0  0  0  0  0  0  0
  -26.8591  -15.7556   18.8178 C   0  0  0  0  0  0  0  0  0  0  0  0
  -28.9690  -18.2377   21.6287 C   0  0  0  0  0  0  0  0  0  0  0  0
  -22.2975  -29.0794   22.9675 C   0  0  0  0  0  0  0  0  0  0  0  0
  -29.0613  -15.9956   17.8164 C   0  0  0  0  0  0  0  0  0  0  0  0
  -20.0241  -28.4924   22.8727 C   0  0  0  0  0  0  0  0  0  0  0  0
  -18.0681  -26.5463   22.4609 C   0  0  0  0  0  0  0  0  0  0  0  0
  -19.9459  -27.8305   21.6473 C   0  0  0  0  0  0  0  0  0  0  0  0
  -26.3460  -27.9010   22.6223 C   0  0  0  0  0  0  0  0  0  0  0  0
  -28.7319  -20.8516   20.8824 C   0  0  0  0  0  0  0  0  0  0  0  0
  -29.5770  -18.7509   20.4943 C   0  0  0  0  0  0  0  0  0  0  0  0
  -28.5009  -27.6071   22.9461 C   0  0  0  0  0  0  0  0  0  0  0  0
  -27.7475  -19.1620   24.8161 C   0  0  0  0  0  0  0  0  0  0  0  0
  -27.5350  -18.6450   23.6151 C   0  0  0  0  0  0  0  0  0  0  0  0
  -27.3943  -29.0157   24.6895 C   0  0  0  0  0  0  0  0  0  0  0  0
  -24.3257  -17.8587   19.7050 C   0  0  0  0  0  0  0  0  0  0  0  0
  -23.6291  -14.8338   20.6469 C   0  0  0  0  0  0  0  0  0  0  0  0
  -24.6082  -11.5726   20.8753 C   0  0  0  0  0  0  0  0  0  0  0  0
  -29.1567  -22.8432   19.3992 C   0  0  0  0  0  0  0  0  0  0  0  0
  -21.7621  -22.1845   18.8253 C   0  0  0  0  0  0  0  0  0  0  0  0
  -24.7991  -16.5545   17.6000 C   0  0  0  0  0  0  0  0  0  0  0  0
  -26.0190  -15.2847   19.9758 C   0  0  0  0  0  0  0  0  0  0  0  0
  -21.5447  -20.9422   19.6854 C   0  0  0  0  0  0  0  0  0  0  0  0
  -30.2746  -26.1587   18.7401 C   0  0  0  0  0  0  0  0  0  0  0  0
  -22.8010  -20.6231   20.4896 C   0  0  0  0  0  0  0  0  0  0  0  0
  -29.4948  -27.0106   19.7442 C   0  0  0  0  0  0  0  0  0  0  0  0
  -29.4326  -25.0032   18.2021 C   0  0  0  0  0  0  0  0  0  0  0  0
  -28.0382  -25.0040   20.2330 C   0  0  0  0  0  0  0  0  0  0  0  0
  -23.9858  -20.3195   19.5646 C   0  0  1  0  0  0  0  0  0  0  0  0
  -24.1111  -16.5707   18.9616 C   0  0  1  0  0  0  0  0  0  0  0  0
  -28.8661  -26.1422   20.8516 C   0  0  2  0  0  0  0  0  0  0  0  0
  -29.1302  -16.7983   21.9907 C   0  0  0  0  0  0  0  0  0  0  0  0
  -23.8416   -9.3408   21.7292 C   0  0  0  0  0  0  0  0  0  0  0  0
  -32.0312  -16.0298   16.1256 C   0  0  0  0  0  0  0  0  0  0  0  0
  -24.2661  -15.7092   23.4997 C   0  0  0  0  0  0  0  0  0  0  0  0
  -24.4139  -13.2918   24.1342 C   0  0  0  0  0  0  0  0  0  0  0  0
  -22.2628  -14.2275   23.2859 C   0  0  0  0  0  0  0  0  0  0  0  0
  -24.6862  -10.3799   18.1678 C   0  0  0  0  0  0  0  0  0  0  0  0
  -32.1395  -17.4606   18.1955 C   0  0  0  0  0  0  0  0  0  0  0  0
  -31.4108  -18.5350   18.9955 C   0  0  0  0  0  0  0  0  0  0  0  0
  -24.1832  -13.8810   21.6784 C   0  0  1  0  0  0  0  0  0  0  0  0
  -23.8908  -10.2792   20.5334 C   0  0  2  0  0  0  0  0  0  0  0  0
  -31.2244  -16.7605   17.1905 C   0  0  2  0  0  0  0  0  0  1  0  0
  -23.7978  -14.2879   23.1287 C   0  0  0  0  0  0  0  0  0  0  0  0
  -26.7367  -27.1358   21.5996 N   0  0  0  0  0  0  0  0  0  0  0  0
  -29.4778  -20.0401   20.0997 N   0  0  0  0  0  0  0  0  0  0  0  0
  -28.0518  -26.9744   21.8244 N   0  0  0  0  0  0  0  0  0  0  0  0
  -24.5677  -15.4905   19.8384 N   0  0  0  0  0  0  0  0  0  0  0  0
  -28.8732  -24.2223   19.3076 N   0  0  0  0  0  0  0  0  0  0  0  0
  -29.7968  -27.5481   23.3199 N   0  0  0  0  0  0  0  0  0  0  0  0
  -26.1811  -29.5779   25.1097 N   0  0  0  0  0  0  0  0  0  0  0  0
  -28.5973  -22.2121   20.5099 N   0  0  0  0  0  0  0  0  0  0  0  0
  -23.8792  -18.9789   19.0301 N   0  0  0  0  0  0  0  0  0  0  0  0
  -23.7288  -12.5501   21.2905 N   0  0  0  0  0  0  0  0  0  0  0  0
  -24.5868   -9.5805   19.4161 N   0  3  0  0  0  0  0  0  0  0  0  0
  -28.4344  -29.2307   25.3570 O   0  0  0  0  0  0  0  0  0  0  0  0
  -24.8556  -17.8377   20.8097 O   0  0  0  0  0  0  0  0  0  0  0  0
  -22.4081  -14.9845   20.5570 O   0  0  0  0  0  0  0  0  0  0  0  0
  -25.8273  -11.7016   20.7868 O   0  0  0  0  0  0  0  0  0  0  0  0
  -29.8675  -22.2702   18.5695 O   0  0  0  0  0  0  0  0  0  0  0  0
  -20.9949  -29.4580   23.0790 O   0  0  0  0  0  0  0  0  0  0  0  0
  -30.4085  -15.8149   17.8808 O   0  0  0  0  0  0  0  0  0  1  0  0
  -30.3330  -17.9306   19.6981 O   0  0  0  0  0  0  0  0  0  0  0  0
  -17.1299  -25.6108   22.2638 F   0  0  0  0  0  0  0  0  0  0  0  0
  -20.8082  -28.1244   20.6646 F   0  0  0  0  0  0  0  0  0  0  0  0
  1  2  1  0  0  0  0
  1  5  2  0  0  0  0
  2  6  2  0  0  0  0
  3  8  2  0  0  0  0
  3 16  1  0  0  0  0
  4  9  1  0  0  0  0
  4 16  2  0  0  0  0
  5 19  1  0  0  0  0
  6 21  1  0  0  0  0
  7 10  2  0  0  0  0
  7 20  1  0  0  0  0
  8 24  1  0  0  0  0
  9 24  2  0  0  0  0
 10 25  1  0  0  0  0
 11 12  2  0  0  0  0
 11 26  1  0  0  0  0
 12 27  1  0  0  0  0
 13 17  1  0  0  0  0
 13 30  2  0  0  0  0
 14 22  1  0  0  0  0
 14 25  2  0  0  0  0
 15 27  2  0  0  0  0
 15 28  1  0  0  0  0
 16 29  1  0  0  0  0
 17 23  2  0  0  0  0
 17 34  1  0  0  0  0
 18 29  1  0  0  0  0
 18 32  2  0  0  0  0
 18 35  1  0  0  0  0
 19 21  2  0  0  0  0
 19 40  1  0  0  0  0
 20 22  2  0  0  0  0
 20 41  1  0  0  0  0
 21 49  1  0  0  0  0
 22 42  1  0  0  0  0
 23 31  1  0  0  0  0
 23 52  1  0  0  0  0
 24 81  1  0  0  0  0
 25 82  1  0  0  0  0
 26 28  2  0  0  0  0
 26 81  1  0  0  0  0
 27 84  1  0  0  0  0
 28 85  1  0  0  0  0
 29 65  2  0  0  0  0
 30 66  1  0  0  0  0
 30 72  1  0  0  0  0
 31 66  2  0  0  0  0
 31 83  1  0  0  0  0
 32 67  1  0  0  0  0
 32 70  1  0  0  0  0
 33 34  2  0  0  0  0
 35 71  1  0  0  0  0
 35 76  2  0  0  0  0
 36 50  1  0  0  0  0
 36 73  1  0  0  0  0
 36 77  2  0  0  0  0
 37 61  1  0  0  0  0
 37 68  1  0  0  0  0
 37 78  2  0  0  0  0
 38 62  1  0  0  0  0
 38 74  1  0  0  0  0
 38 79  2  0  0  0  0
 39 69  1  0  0  0  0
 39 72  1  0  0  0  0
 39 80  2  0  0  0  0
 40 43  1  0  0  0  0
 41 50  1  0  0  0  0
 42 68  1  0  0  0  0
 43 45  1  0  0  0  0
 44 46  1  0  0  0  0
 44 47  1  0  0  0  0
 45 49  1  0  0  0  0
 46 51  1  0  0  0  0
 47 69  1  0  0  0  0
 48 51  1  0  0  0  0
 48 69  1  0  0  0  0
 49 73  1  0  0  0  0
 50 68  1  0  0  0  0
 51 67  1  0  0  0  0
 53 62  1  0  0  0  0
 54 63  1  0  0  0  0
 55 64  1  0  0  0  0
 56 64  1  0  0  0  0
 57 64  1  0  0  0  0
 58 75  1  0  0  0  0
 59 60  1  0  0  0  0
 59 63  1  0  0  0  0
 60 83  1  0  0  0  0
 61 64  1  0  0  0  0
 61 74  1  0  0  0  0
 62 75  1  0  0  0  0
 63 82  1  0  0  0  0
 65 67  1  0  0  0  0
M  CHG  1  75   1
M  ISO  4  39 100  63 101  72 100  82 101
M  END
> <Batch ID>
0117

> <Smiles>
C=Cc1cc([100NH:0][100C:0](=O)N2CCCC(n3nc(-c4ccc(Oc5ccc(F)cc5F)cc4)c(C(N)=O)c3N)C2)nc(OCC[101CH:1](C)[101O:1]c2ccc3c(c2)CN(C(=O)C(NC(=O)C(C)NC)C(C)(C)C)C(C(=O)NC2CCCc4ccccc42)C3)c1C

> <Shape>
0.230

> <Color>
0.090

> <Negative vol penalty>
0.000

$$$$

  -OEChem-04052301463D

 85 93  0     1  0  0  0  0  0999 V2000
  -17.9209  -25.3816   21.9010 C   0  0  0  0  0  0  0  0  0  0  0  0
  -19.1919  -24.9140   22.2191 C   0  0  0  0  0  0  0  0  0  0  0  0
  -23.8968   -9.9139   21.6734 C   0  0  0  0  0  0  0  0  0  0  0  0
  -24.4545  -11.0704   23.7200 C   0  0  0  0  0  0  0  0  0  0  0  0
  -17.7681  -26.6367   21.3133 C   0  0  0  0  0  0  0  0  0  0  0  0
  -20.3110  -25.7007   21.9488 C   0  0  0  0  0  0  0  0  0  0  0  0
  -25.4490  -26.0562   25.2625 C   0  0  0  0  0  0  0  0  0  0  0  0
  -23.4008   -8.8414   22.4145 C   0  0  0  0  0  0  0  0  0  0  0  0
  -23.9584   -9.9979   24.4612 C   0  0  0  0  0  0  0  0  0  0  0  0
  -26.6974  -25.4509   25.1252 C   0  0  0  0  0  0  0  0  0  0  0  0
  -20.5877   -8.0912   24.1339 C   0  0  0  0  0  0  0  0  0  0  0  0
  -19.3636   -7.5463   23.7462 C   0  0  0  0  0  0  0  0  0  0  0  0
  -28.9998  -20.7795   21.5390 C   0  0  0  0  0  0  0  0  0  0  0  0
  -27.5153  -27.4110   23.9815 C   0  0  0  0  0  0  0  0  0  0  0  0
  -31.0006  -18.9457   20.8936 C   0  0  0  0  0  0  0  0  0  0  0  0
  -20.4300   -5.4090   23.3829 C   0  0  0  0  0  0  0  0  0  0  0  0
  -24.4238  -11.0284   22.3261 C   0  0  0  0  0  0  0  0  0  0  0  0
  -28.6586  -19.4927   21.1227 C   0  0  0  0  0  0  0  0  0  0  0  0
  -24.2234  -13.2659   21.1173 C   0  0  0  0  0  0  0  0  0  0  0  0
  -18.8851  -27.4433   21.0444 C   0  0  0  0  0  0  0  0  0  0  0  0
  -25.2208  -27.3413   24.7498 C   0  0  0  0  0  0  0  0  0  0  0  0
  -20.1731  -26.9672   21.3557 C   0  0  0  0  0  0  0  0  0  0  0  0
  -26.2639  -28.0314   24.1158 C   0  0  0  0  0  0  0  0  0  0  0  0
  -30.3415  -21.1494   21.6326 C   0  0  0  0  0  0  0  0  0  0  0  0
  -29.6589  -18.5758   20.8000 C   0  0  0  0  0  0  0  0  0  0  0  0
  -23.4315   -8.8834   23.8084 C   0  0  0  0  0  0  0  0  0  0  0  0
  -27.7300  -26.1271   24.4821 C   0  0  0  0  0  0  0  0  0  0  0  0
  -21.7330   -7.2950   24.1461 C   0  0  0  0  0  0  0  0  0  0  0  0
  -19.2847   -6.2052   23.3707 C   0  0  0  0  0  0  0  0  0  0  0  0
  -31.3419  -20.2325   21.3099 C   0  0  0  0  0  0  0  0  0  0  0  0
  -21.6541   -5.9540   23.7706 C   0  0  0  0  0  0  0  0  0  0  0  0
  -24.9369  -12.1363   21.5610 C   0  0  0  0  0  0  0  0  0  0  0  0
  -25.1542  -14.0159   20.4409 C   0  0  0  0  0  0  0  0  0  0  0  0
  -26.4105  -19.2068   22.0608 C   0  0  0  0  0  0  0  0  0  0  0  0
  -27.2457  -19.1426   21.0355 C   0  0  0  0  0  0  0  0  0  0  0  0
  -22.8428  -13.6067   21.3004 C   0  0  0  0  0  0  0  0  0  0  0  0
  -23.2834  -28.5665   22.5477 C   0  0  0  0  0  0  0  0  0  0  0  0
  -24.4904  -31.3826   23.6131 C   0  0  0  0  0  0  0  0  0  0  0  0
  -29.8214  -23.4881   22.4097 C   0  0  0  0  0  0  0  0  0  0  0  0
  -27.0411  -33.0422   25.1578 C   0  0  0  0  0  0  0  0  0  0  0  0
  -30.2369  -16.2505   20.0221 C   0  0  0  0  0  0  0  0  0  0  0  0
  -18.6737  -28.7730   20.3648 C   0  0  0  0  0  0  0  0  0  0  0  0
  -23.8762  -27.9910   24.9296 C   0  0  0  0  0  0  0  0  0  0  0  0
  -26.0763  -29.4209   23.5658 C   0  0  0  0  0  0  0  0  0  0  0  0
  -19.8819  -29.7017   20.4542 C   0  0  0  0  0  0  0  0  0  0  0  0
  -29.8572  -12.8741   18.9577 C   0  0  0  0  0  0  0  0  0  0  0  0
  -21.1621  -28.9466   20.1110 C   0  0  0  0  0  0  0  0  0  0  0  0
  -28.4845  -12.4741   19.5036 C   0  0  0  0  0  0  0  0  0  0  0  0
  -30.6042  -13.7949   19.9209 C   0  0  0  0  0  0  0  0  0  0  0  0
  -28.4835  -14.5836   20.8953 C   0  0  0  0  0  0  0  0  0  0  0  0
  -21.4095  -27.8016   21.1006 C   0  0  1  0  0  0  0  0  0  0  0  0
  -23.6072  -29.0982   23.9152 C   0  0  1  0  0  0  0  0  0  0  0  0
  -27.6664  -13.7085   19.9308 C   0  0  2  0  0  0  0  0  0  0  0  0
  -27.7590  -35.3449   25.8505 C   0  0  0  0  0  0  0  0  0  0  0  0
  -25.2044  -32.0284   20.7177 C   0  0  0  0  0  0  0  0  0  0  0  0
  -26.7232  -33.8284   21.5669 C   0  0  0  0  0  0  0  0  0  0  0  0
  -24.2726  -33.9519   22.0163 C   0  0  0  0  0  0  0  0  0  0  0  0
  -27.1142  -32.2850   28.0179 C   0  0  0  0  0  0  0  0  0  0  0  0
  -30.6097  -24.7327   22.8013 C   0  0  0  0  0  0  0  0  0  0  0  0
  -29.7218  -25.9009   23.2024 C   0  0  0  0  0  0  0  0  0  1  0  0
  -25.6741  -32.2452   23.2472 C   0  0  1  0  0  0  0  0  0  0  0  0
  -27.0434  -34.0714   26.2736 C   0  0  2  0  0  0  0  0  0  0  0  0
  -25.4719  -32.9865   21.8956 C   0  0  0  0  0  0  0  0  0  0  0  0
  -26.2217  -12.1621   21.1969 N   0  0  0  0  0  0  0  0  0  0  0  0
  -26.3229  -13.3171   20.5172 N   0  0  0  0  0  0  0  0  0  0  0  0
  -24.7417  -30.0111   23.7607 N   0  0  0  0  0  0  0  0  0  0  0  0
  -29.7695  -14.9441   20.2781 N   0  0  0  0  0  0  0  0  0  0  0  0
  -25.0787  -15.1984   19.7940 N   0  0  0  0  0  0  0  0  0  0  0  0
  -22.0266  -12.7240   22.0207 N   0  0  0  0  0  0  0  0  0  0  0  0
  -30.6854  -22.4560   22.0536 N   0  0  0  0  0  0  0  0  0  0  0  0
  -29.3435  -17.2618   20.3739 N   0  0  0  0  0  0  0  0  0  0  0  0
  -21.9398  -28.3152   22.3453 N   0  0  0  0  0  0  0  0  0  0  0  0
  -25.9023  -33.1290   24.3852 N   0  0  0  0  0  0  0  0  0  0  0  0
  -27.7281  -33.5262   27.4798 N   0  3  0  0  0  0  0  0  0  0  0  0
  -22.3439  -14.6548   20.8248 O   0  0  0  0  0  0  0  0  0  0  0  0
  -24.1857  -28.3981   21.7357 O   0  0  0  0  0  0  0  0  0  0  0  0
  -23.3850  -31.9074   23.7693 O   0  0  0  0  0  0  0  0  0  0  0  0
  -28.5953  -23.4603   22.4252 O   0  0  0  0  0  0  0  0  0  0  0  0
  -27.9596  -32.2438   24.9862 O   0  0  0  0  0  0  0  0  0  0  0  0
  -31.3366  -16.4560   19.5021 O   0  0  0  0  0  0  0  0  0  0  0  0
  -22.9473   -7.8372   24.5320 O   0  0  0  0  0  0  0  0  0  0  0  0
  -28.9493  -25.5384   24.3462 O   0  0  0  0  0  0  0  0  0  1  0  0
  -18.1089   -5.6817   22.9999 F   0  0  0  0  0  0  0  0  0  0  0  0
  -32.6348  -20.5769   21.3956 F   0  0  0  0  0  0  0  0  0  0  0  0
  -22.7508   -5.1838   23.7814 F   0  0  0  0  0  0  0  0  0  0  0  0
  1  2  1  0  0  0  0
  1  5  2  0  0  0  0
  2  6  2  0  0  0  0
  3  8  2  0  0  0  0
  3 17  1  0  0  0  0
  4  9  1  0  0  0  0
  4 17  2  0  0  0  0
  5 20  1  0  0  0  0
  6 22  1  0  0  0  0
  7 10  2  0  0  0  0
  7 21  1  0  0  0  0
  8 26  1  0  0  0  0
  9 26  2  0  0  0  0
 10 27  1  0  0  0  0
 11 12  2  0  0  0  0
 11 28  1  0  0  0  0
 12 29  1  0  0  0  0
 13 18  1  0  0  0  0
 13 24  2  0  0  0  0
 14 23  1  0  0  0  0
 14 27  2  0  0  0  0
 15 25  1  0  0  0  0
 15 30  2  0  0  0  0
 16 29  2  0  0  0  0
 16 31  1  0  0  0  0
 17 32  1  0  0  0  0
 18 25  2  0  0  0  0
 18 35  1  0  0  0  0
 19 32  1  0  0  0  0
 19 33  2  0  0  0  0
 19 36  1  0  0  0  0
 20 22  2  0  0  0  0
 20 42  1  0  0  0  0
 21 23  2  0  0  0  0
 21 43  1  0  0  0  0
 22 51  1  0  0  0  0
 23 44  1  0  0  0  0
 24 30  1  0  0  0  0
 24 70  1  0  0  0  0
 25 71  1  0  0  0  0
 26 81  1  0  0  0  0
 27 82  1  0  0  0  0
 28 31  2  0  0  0  0
 28 81  1  0  0  0  0
 29 83  1  0  0  0  0
 30 84  1  0  0  0  0
 31 85  1  0  0  0  0
 32 64  2  0  0  0  0
 33 65  1  0  0  0  0
 33 68  1  0  0  0  0
 34 35  2  0  0  0  0
 36 69  1  0  0  0  0
 36 75  2  0  0  0  0
 37 52  1  0  0  0  0
 37 72  1  0  0  0  0
 37 76  2  0  0  0  0
 38 61  1  0  0  0  0
 38 66  1  0  0  0  0
 38 77  2  0  0  0  0
 39 59  1  0  0  0  0
 39 70  1  0  0  0  0
 39 78  2  0  0  0  0
 40 62  1  0  0  0  0
 40 73  1  0  0  0  0
 40 79  2  0  0  0  0
 41 67  1  0  0  0  0
 41 71  1  0  0  0  0
 41 80  2  0  0  0  0
 42 45  1  0  0  0  0
 43 52  1  0  0  0  0
 44 66  1  0  0  0  0
 45 47  1  0  0  0  0
 46 48  1  0  0  0  0
 46 49  1  0  0  0  0
 47 51  1  0  0  0  0
 48 53  1  0  0  0  0
 49 67  1  0  0  0  0
 50 53  1  0  0  0  0
 50 67  1  0  0  0  0
 51 72  1  0  0  0  0
 52 66  1  0  0  0  0
 53 65  1  0  0  0  0
 54 62  1  0  0  0  0
 55 63  1  0  0  0  0
 56 63  1  0  0  0  0
 57 63  1  0  0  0  0
 58 74  1  0  0  0  0
 59 60  1  0  0  0  0
 60 82  1  0  0  0  0
 61 63  1  0  0  0  0
 61 73  1  0  0  0  0
 62 74  1  0  0  0  0
 64 65  1  0  0  0  0
M  CHG  1  74   1
M  ISO  4  41 100  60 101  71 100  82 101
M  END
> <Batch ID>
0117

> <Smiles>
C=Cc1cc(NC(=O)C[101CH2:1][101O:1]c2ccc3c(c2)CN(C(=O)C(NC(=O)C(C)NC)C(C)(C)C)C(C(=O)NC2CCCc4ccccc42)C3)c(F)cc1[100NH:0][100C:0](=O)N1CCCC(n2nc(-c3ccc(Oc4ccc(F)cc4F)cc3)c(C(N)=O)c2N)C1

> <Shape>
0.285

> <Color>
0.134

> <Negative vol penalty>
0.000

$$$$

  -OEChem-04052301463D

 85 93  0     1  0  0  0  0  0999 V2000
  -24.0037  -16.6285   23.1208 C   0  0  0  0  0  0  0  0  0  0  0  0
  -25.0144  -17.5177   22.7696 C   0  0  0  0  0  0  0  0  0  0  0  0
  -26.2189  -12.6126   21.4969 C   0  0  0  0  0  0  0  0  0  0  0  0
  -25.8739  -13.0935   19.1545 C   0  0  0  0  0  0  0  0  0  0  0  0
  -22.6683  -16.9854   22.9383 C   0  0  0  0  0  0  0  0  0  0  0  0
  -24.6902  -18.7639   22.2345 C   0  0  0  0  0  0  0  0  0  0  0  0
  -27.6934  -24.0320   23.0910 C   0  0  0  0  0  0  0  0  0  0  0  0
  -25.0537  -11.8460   21.5112 C   0  0  0  0  0  0  0  0  0  0  0  0
  -24.7087  -12.3269   19.1688 C   0  0  0  0  0  0  0  0  0  0  0  0
  -28.6324  -24.7129   22.3174 C   0  0  0  0  0  0  0  0  0  0  0  0
  -24.0991   -8.7469   20.5534 C   0  0  0  0  0  0  0  0  0  0  0  0
  -24.1465   -7.5073   21.1912 C   0  0  0  0  0  0  0  0  0  0  0  0
  -26.8717  -26.0776   21.3920 C   0  0  0  0  0  0  0  0  0  0  0  0
  -28.5535  -22.4391   14.8269 C   0  0  0  0  0  0  0  0  0  0  0  0
  -28.1718  -20.3242   15.9067 C   0  0  0  0  0  0  0  0  0  0  0  0
  -22.4118   -8.2237   22.7126 C   0  0  0  0  0  0  0  0  0  0  0  0
  -26.6290  -13.2365   20.3186 C   0  0  0  0  0  0  0  0  0  0  0  0
  -29.1381  -13.5863   20.0200 C   0  0  0  0  0  0  0  0  0  0  0  0
  -22.3274  -18.2404   22.4097 C   0  0  0  0  0  0  0  0  0  0  0  0
  -26.3327  -24.3621   23.0126 C   0  0  0  0  0  0  0  0  0  0  0  0
  -23.3491  -19.1374   22.0435 C   0  0  0  0  0  0  0  0  0  0  0  0
  -25.9177  -25.4012   22.1675 C   0  0  0  0  0  0  0  0  0  0  0  0
  -28.2021  -21.0960   14.7505 C   0  0  0  0  0  0  0  0  0  0  0  0
  -24.2986  -11.7031   20.3471 C   0  0  0  0  0  0  0  0  0  0  0  0
  -28.2213  -25.7339   21.4656 C   0  0  0  0  0  0  0  0  0  0  0  0
  -23.2081   -9.7250   20.9953 C   0  0  0  0  0  0  0  0  0  0  0  0
  -23.3029   -7.2457   22.2707 C   0  0  0  0  0  0  0  0  0  0  0  0
  -22.3644   -9.4633   22.0748 C   0  0  0  0  0  0  0  0  0  0  0  0
  -27.8322  -14.0290   20.3034 C   0  0  0  0  0  0  0  0  0  0  0  0
  -28.8635  -22.9585   16.0734 C   0  0  0  0  0  0  0  0  0  0  0  0
  -28.4991  -20.9383   17.1049 C   0  0  0  0  0  0  0  0  0  0  0  0
  -29.9153  -14.7129   20.1359 C   0  0  0  0  0  0  0  0  0  0  0  0
  -32.0655  -26.6995   18.9004 C   0  0  0  0  0  0  0  0  0  0  0  0
  -29.6069  -12.2742   19.6820 C   0  0  0  0  0  0  0  0  0  0  0  0
  -29.2466  -24.3869   16.2153 C   0  0  0  0  0  0  0  0  0  0  0  0
  -30.8215  -26.2038   18.9959 C   0  0  0  0  0  0  0  0  0  0  0  0
  -23.6956  -22.8147   22.1439 C   0  0  0  0  0  0  0  0  0  0  0  0
  -22.2343  -25.5147   23.1912 C   0  0  0  0  0  0  0  0  0  0  0  0
  -22.4493  -28.8564   23.8495 C   0  0  0  0  0  0  0  0  0  0  0  0
  -28.7541  -20.5480   19.5806 C   0  0  0  0  0  0  0  0  0  0  0  0
  -20.8711  -18.5629   22.1867 C   0  0  0  0  0  0  0  0  0  0  0  0
  -25.3357  -23.6361   23.8735 C   0  0  0  0  0  0  0  0  0  0  0  0
  -24.4713  -25.8077   22.0619 C   0  0  0  0  0  0  0  0  0  0  0  0
  -20.6037  -20.0490   21.9627 C   0  0  0  0  0  0  0  0  0  0  0  0
  -30.1082  -18.9087   22.4365 C   0  0  0  0  0  0  0  0  0  0  0  0
  -21.5997  -20.6257   20.9617 C   0  0  0  0  0  0  0  0  0  0  0  0
  -29.8024  -17.4304   22.1849 C   0  0  0  0  0  0  0  0  0  0  0  0
  -28.9799  -19.8130   21.9436 C   0  0  0  0  0  0  0  0  0  0  0  0
  -28.2750  -18.1239   20.2946 C   0  0  0  0  0  0  0  0  0  0  0  0
  -23.0369  -20.5081   21.4833 C   0  0  1  0  0  0  0  0  0  0  0  0
  -23.9118  -23.7103   23.3309 C   0  0  1  0  0  0  0  0  0  0  0  0
  -29.4115  -17.1779   20.7155 C   0  0  2  0  0  0  0  0  0  0  0  0
  -27.8593  -20.4859   13.4341 C   0  0  0  0  0  0  0  0  0  0  0  0
  -21.0798  -30.7965   24.6607 C   0  0  0  0  0  0  0  0  0  0  0  0
  -20.8460  -25.6658   20.4783 C   0  0  0  0  0  0  0  0  0  0  0  0
  -20.2696  -28.0491   20.9841 C   0  0  0  0  0  0  0  0  0  0  0  0
  -19.3843  -26.2197   22.4304 C   0  0  0  0  0  0  0  0  0  0  0  0
  -24.2243  -29.2851   26.1786 C   0  0  0  0  0  0  0  0  0  0  0  0
  -29.9025  -26.1744   17.8061 C   0  0  0  0  0  0  0  0  0  0  0  0
  -30.2958  -25.6738   20.3041 C   0  0  0  0  0  0  0  0  0  1  0  0
  -21.8349  -26.8273   22.5613 C   0  0  1  0  0  0  0  0  0  0  0  0
  -22.0270  -29.6745   25.0565 C   0  0  2  0  0  0  0  0  0  0  0  0
  -20.6108  -26.6818   21.6138 C   0  0  0  0  0  0  0  0  0  0  0  0
  -27.7788  -15.3349   20.5788 N   0  0  0  0  0  0  0  0  0  0  0  0
  -28.8453  -22.2401   17.2185 N   0  0  0  0  0  0  0  0  0  0  0  0
  -29.0609  -15.7224   20.4691 N   0  0  0  0  0  0  0  0  0  0  0  0
  -23.5336  -25.0637   22.9191 N   0  0  0  0  0  0  0  0  0  0  0  0
  -28.6668  -19.5202   20.5432 N   0  0  0  0  0  0  0  0  0  0  0  0
  -31.2393  -14.9285   19.9844 N   0  0  0  0  0  0  0  0  0  0  0  0
  -28.6744  -11.2306   19.6059 N   0  0  0  0  0  0  0  0  0  0  0  0
  -28.4651  -20.1437   18.2776 N   0  0  0  0  0  0  0  0  0  0  0  0
  -29.5401  -24.8176   17.5046 N   0  0  0  0  0  0  0  0  0  0  0  0
  -23.3012  -21.5315   22.4717 N   0  0  0  0  0  0  0  0  0  0  0  0
  -21.6307  -27.7628   23.6620 N   0  0  0  0  0  0  0  0  0  0  0  0
  -23.2194  -30.2771   25.7168 N   0  3  0  0  0  0  0  0  0  0  0  0
  -30.8191  -12.0309   19.4703 O   0  0  0  0  0  0  0  0  0  0  0  0
  -29.2655  -25.1049   15.2190 O   0  0  0  0  0  0  0  0  0  0  0  0
  -23.8720  -23.2556   21.0142 O   0  0  0  0  0  0  0  0  0  0  0  0
  -21.4257  -24.9154   23.9043 O   0  0  0  0  0  0  0  0  0  0  0  0
  -23.4071  -29.1595   23.1415 O   0  0  0  0  0  0  0  0  0  0  0  0
  -29.0891  -21.6956   19.8851 O   0  0  0  0  0  0  0  0  0  0  0  0
  -23.1617  -10.9549   20.3606 O   0  0  0  0  0  0  0  0  0  0  0  0
  -29.1358  -26.3996   20.7090 O   0  0  0  0  0  0  0  0  0  1  0  0
  -23.3474   -6.0547   22.8820 F   0  0  0  0  0  0  0  0  0  0  0  0
  -21.5055  -10.3986   22.5031 F   0  0  0  0  0  0  0  0  0  0  0  0
  1  2  1  0  0  0  0
  1  5  2  0  0  0  0
  2  6  2  0  0  0  0
  3  8  2  0  0  0  0
  3 17  1  0  0  0  0
  4  9  1  0  0  0  0
  4 17  2  0  0  0  0
  5 19  1  0  0  0  0
  6 21  1  0  0  0  0
  7 10  2  0  0  0  0
  7 20  1  0  0  0  0
  8 24  1  0  0  0  0
  9 24  2  0  0  0  0
 10 25  1  0  0  0  0
 11 12  2  0  0  0  0
 11 26  1  0  0  0  0
 12 27  1  0  0  0  0
 13 22  1  0  0  0  0
 13 25  2  0  0  0  0
 14 23  2  0  0  0  0
 14 30  1  0  0  0  0
 15 23  1  0  0  0  0
 15 31  2  0  0  0  0
 16 27  2  0  0  0  0
 16 28  1  0  0  0  0
 17 29  1  0  0  0  0
 18 29  1  0  0  0  0
 18 32  2  0  0  0  0
 18 34  1  0  0  0  0
 19 21  2  0  0  0  0
 19 41  1  0  0  0  0
 20 22  2  0  0  0  0
 20 42  1  0  0  0  0
 21 50  1  0  0  0  0
 22 43  1  0  0  0  0
 23 53  1  0  0  0  0
 24 82  1  0  0  0  0
 25 83  1  0  0  0  0
 26 28  2  0  0  0  0
 26 82  1  0  0  0  0
 27 84  1  0  0  0  0
 28 85  1  0  0  0  0
 29 64  2  0  0  0  0
 30 35  1  0  0  0  0
 30 65  2  0  0  0  0
 31 65  1  0  0  0  0
 31 71  1  0  0  0  0
 32 66  1  0  0  0  0
 32 69  1  0  0  0  0
 33 36  2  0  0  0  0
 34 70  1  0  0  0  0
 34 76  2  0  0  0  0
 35 72  1  0  0  0  0
 35 77  2  0  0  0  0
 36 59  1  0  0  0  0
 36 60  1  0  0  0  0
 37 51  1  0  0  0  0
 37 73  1  0  0  0  0
 37 78  2  0  0  0  0
 38 61  1  0  0  0  0
 38 67  1  0  0  0  0
 38 79  2  0  0  0  0
 39 62  1  0  0  0  0
 39 74  1  0  0  0  0
 39 80  2  0  0  0  0
 40 68  1  0  0  0  0
 40 71  1  0  0  0  0
 40 81  2  0  0  0  0
 41 44  1  0  0  0  0
 42 51  1  0  0  0  0
 43 67  1  0  0  0  0
 44 46  1  0  0  0  0
 45 47  1  0  0  0  0
 45 48  1  0  0  0  0
 46 50  1  0  0  0  0
 47 52  1  0  0  0  0
 48 68  1  0  0  0  0
 49 52  1  0  0  0  0
 49 68  1  0  0  0  0
 50 73  1  0  0  0  0
 51 67  1  0  0  0  0
 52 66  1  0  0  0  0
 54 62  1  0  0  0  0
 55 63  1  0  0  0  0
 56 63  1  0  0  0  0
 57 63  1  0  0  0  0
 58 75  1  0  0  0  0
 59 72  1  0  0  0  0
 60 83  1  0  0  0  0
 61 63  1  0  0  0  0
 61 74  1  0  0  0  0
 62 75  1  0  0  0  0
 64 66  1  0  0  0  0
M  CHG  1  75   1
M  ISO  4  40 100  60 101  71 100  83 101
M  END
> <Batch ID>
0117

> <Smiles>
C=C(CNC(=O)c1cc(C)cc([100NH:0][100C:0](=O)N2CCCC(n3nc(-c4ccc(Oc5ccc(F)cc5F)cc4)c(C(N)=O)c3N)C2)n1)[101CH2:1][101O:1]c1ccc2c(c1)CN(C(=O)C(NC(=O)C(C)NC)C(C)(C)C)C(C(=O)NC1CCCc3ccccc31)C2

> <Shape>
0.232

> <Color>
0.064

> <Negative vol penalty>
0.000

$$$$

  -OEChem-04052301463D

 85 93  0     1  0  0  0  0  0999 V2000
  -16.6383  -28.8795   23.5981 C   0  0  0  0  0  0  0  0  0  0  0  0
  -17.2922  -28.2753   22.5292 C   0  0  0  0  0  0  0  0  0  0  0  0
  -26.2844  -14.2227   21.8576 C   0  0  0  0  0  0  0  0  0  0  0  0
  -25.9591  -14.5105   19.4810 C   0  0  0  0  0  0  0  0  0  0  0  0
  -17.2137  -29.9784   24.2347 C   0  0  0  0  0  0  0  0  0  0  0  0
  -18.5216  -28.7703   22.0955 C   0  0  0  0  0  0  0  0  0  0  0  0
  -21.8978  -25.0972   21.2271 C   0  0  0  0  0  0  0  0  0  0  0  0
  -24.9457  -13.8564   21.9965 C   0  0  0  0  0  0  0  0  0  0  0  0
  -24.6204  -14.1442   19.6198 C   0  0  0  0  0  0  0  0  0  0  0  0
  -21.7719  -24.3855   20.0348 C   0  0  0  0  0  0  0  0  0  0  0  0
  -21.2069  -12.9361   19.2935 C   0  0  0  0  0  0  0  0  0  0  0  0
  -20.6811  -12.0346   18.3681 C   0  0  0  0  0  0  0  0  0  0  0  0
  -28.3474  -21.9603   17.7438 C   0  0  0  0  0  0  0  0  0  0  0  0
  -23.5273  -25.7217   19.0589 C   0  0  0  0  0  0  0  0  0  0  0  0
  -26.8234  -20.3513   16.0493 C   0  0  0  0  0  0  0  0  0  0  0  0
  -22.3154  -10.3883   19.0432 C   0  0  0  0  0  0  0  0  0  0  0  0
  -26.7911  -14.5498   20.5998 C   0  0  0  0  0  0  0  0  0  0  0  0
  -28.8793  -20.7703   17.2472 C   0  0  0  0  0  0  0  0  0  0  0  0
  -29.2665  -14.0781   20.2031 C   0  0  0  0  0  0  0  0  0  0  0  0
  -18.4553  -30.4811   23.8148 C   0  0  0  0  0  0  0  0  0  0  0  0
  -22.8334  -26.1355   21.3408 C   0  0  0  0  0  0  0  0  0  0  0  0
  -19.1135  -29.8777   22.7262 C   0  0  0  0  0  0  0  0  0  0  0  0
  -23.6648  -26.4433   20.2545 C   0  0  0  0  0  0  0  0  0  0  0  0
  -28.1174  -19.9658   16.3999 C   0  0  0  0  0  0  0  0  0  0  0  0
  -26.2915  -21.5412   16.5460 C   0  0  0  0  0  0  0  0  0  0  0  0
  -24.1137  -13.8171   20.8776 C   0  0  0  0  0  0  0  0  0  0  0  0
  -22.5847  -24.6996   18.9496 C   0  0  0  0  0  0  0  0  0  0  0  0
  -22.2870  -12.5637   20.0938 C   0  0  0  0  0  0  0  0  0  0  0  0
  -21.2353  -10.7607   18.2429 C   0  0  0  0  0  0  0  0  0  0  0  0
  -27.0535  -22.3457   17.3933 C   0  0  0  0  0  0  0  0  0  0  0  0
  -22.8412  -11.2898   19.9686 C   0  0  0  0  0  0  0  0  0  0  0  0
  -28.1737  -14.9288   20.4558 C   0  0  0  0  0  0  0  0  0  0  0  0
  -30.3520  -14.9184   20.1554 C   0  0  0  0  0  0  0  0  0  0  0  0
  -24.0466  -21.5082   16.9745 C   0  0  0  0  0  0  0  0  0  0  0  0
  -30.2320  -20.3907   17.6322 C   0  0  0  0  0  0  0  0  0  0  0  0
  -29.2976  -12.6555   20.0270 C   0  0  0  0  0  0  0  0  0  0  0  0
  -30.7997  -20.7887   18.9408 C   0  0  0  0  0  0  0  0  0  0  0  0
  -22.6596  -29.2614   21.8904 C   0  0  0  0  0  0  0  0  0  0  0  0
  -25.8942  -29.0317   21.9746 C   0  0  0  0  0  0  0  0  0  0  0  0
  -28.7033  -27.3334   21.0412 C   0  0  0  0  0  0  0  0  0  0  0  0
  -19.0154  -31.7003   24.5036 C   0  0  0  0  0  0  0  0  0  0  0  0
  -22.9753  -26.8758   22.6424 C   0  0  0  0  0  0  0  0  0  0  0  0
  -24.6989  -27.5356   20.3319 C   0  0  0  0  0  0  0  0  0  0  0  0
  -20.4981  -31.9311   24.2233 C   0  0  0  0  0  0  0  0  0  0  0  0
  -31.9611  -19.0757   21.8689 C   0  0  0  0  0  0  0  0  0  0  0  0
  -20.7886  -31.7856   22.7329 C   0  0  0  0  0  0  0  0  0  0  0  0
  -31.1907  -17.7562   21.8348 C   0  0  0  0  0  0  0  0  0  0  0  0
  -31.1242  -20.2252   21.3169 C   0  0  0  0  0  0  0  0  0  0  0  0
  -29.8259  -18.6591   19.8990 C   0  0  0  0  0  0  0  0  0  0  0  0
  -20.4602  -30.3703   22.2425 C   0  0  1  0  0  0  0  0  0  0  0  0
  -23.6070  -28.2549   22.4796 C   0  0  1  0  0  0  0  0  0  0  0  0
  -30.6489  -17.4694   20.4231 C   0  0  2  0  0  0  0  0  0  0  0  0
  -28.6637  -18.6871   15.8538 C   0  0  0  0  0  0  0  0  0  0  0  0
  -21.8244  -20.5728   16.4700 C   0  0  0  0  0  0  0  0  0  0  0  0
  -31.2046  -27.4090   21.2290 C   0  0  0  0  0  0  0  0  0  0  0  0
  -25.9814  -31.2541   19.8858 C   0  0  0  0  0  0  0  0  0  0  0  0
  -28.3629  -30.6333   19.4261 C   0  0  0  0  0  0  0  0  0  0  0  0
  -27.7030  -31.4493   21.6891 C   0  0  0  0  0  0  0  0  0  0  0  0
  -28.7920  -24.7334   22.4522 C   0  0  0  0  0  0  0  0  0  0  0  0
  -22.0396  -22.6476   17.8781 C   0  0  0  0  0  0  0  0  0  1  0  0
  -22.6030  -21.8629   16.6962 C   0  0  1  0  0  0  0  0  0  0  0  0
  -27.0003  -29.1351   20.9525 C   0  0  1  0  0  0  0  0  0  0  0  0
  -29.9148  -26.8772   21.8342 C   0  0  2  0  0  0  0  0  0  0  0  0
  -27.2412  -30.5986   20.4860 C   0  0  0  0  0  0  0  0  0  0  0  0
  -28.5322  -16.2112   20.5616 N   0  0  0  0  0  0  0  0  0  0  0  0
  -31.0210  -19.6867   16.8684 N   0  0  0  0  0  0  0  0  0  0  0  0
  -24.9878  -21.9270   16.1926 N   0  0  0  0  0  0  0  0  0  0  0  0
  -29.8625  -16.1724   20.3744 N   0  0  0  0  0  0  0  0  0  0  0  0
  -30.5960  -19.9058   19.9921 N   0  0  0  0  0  0  0  0  0  0  0  0
  -24.7951  -28.2349   21.6239 N   0  0  0  0  0  0  0  0  0  0  0  0
  -31.6678  -14.6994   19.9481 N   0  0  0  0  0  0  0  0  0  0  0  0
  -28.0917  -11.9459   20.1068 N   0  0  0  0  0  0  0  0  0  0  0  0
  -21.5056  -29.4466   22.6277 N   0  0  0  0  0  0  0  0  0  0  0  0
  -28.1690  -28.4983   21.5499 N   0  0  0  0  0  0  0  0  0  0  0  0
  -29.9865  -25.3889   21.8601 N   0  3  0  0  0  0  0  0  0  0  0  0
  -30.3655  -12.0302   19.8217 O   0  0  0  0  0  0  0  0  0  0  0  0
  -31.3910  -21.8604   18.9552 O   0  0  0  0  0  0  0  0  0  0  0  0
  -22.9544  -29.8290   20.8452 O   0  0  0  0  0  0  0  0  0  0  0  0
  -26.0046  -29.6298   23.0478 O   0  0  0  0  0  0  0  0  0  0  0  0
  -28.2762  -26.7199   20.0657 O   0  0  0  0  0  0  0  0  0  0  0  0
  -22.8074  -13.4595   21.0127 O   0  0  0  0  0  0  0  0  0  0  0  0
  -22.4635  -24.0070   17.7845 O   0  0  0  0  0  0  0  0  0  1  0  0
  -20.7293   -9.8946   17.3552 F   0  0  0  0  0  0  0  0  0  0  0  0
  -26.5505  -23.4907   17.8759 F   0  0  0  0  0  0  0  0  0  0  0  0
  -23.8782  -10.9259   20.7355 F   0  0  0  0  0  0  0  0  0  0  0  0
  1  2  1  0  0  0  0
  1  5  2  0  0  0  0
  2  6  2  0  0  0  0
  3  8  2  0  0  0  0
  3 17  1  0  0  0  0
  4  9  1  0  0  0  0
  4 17  2  0  0  0  0
  5 20  1  0  0  0  0
  6 22  1  0  0  0  0
  7 10  2  0  0  0  0
  7 21  1  0  0  0  0
  8 26  1  0  0  0  0
  9 26  2  0  0  0  0
 10 27  1  0  0  0  0
 11 12  2  0  0  0  0
 11 28  1  0  0  0  0
 12 29  1  0  0  0  0
 13 18  2  0  0  0  0
 13 30  1  0  0  0  0
 14 23  1  0  0  0  0
 14 27  2  0  0  0  0
 15 24  2  0  0  0  0
 15 25  1  0  0  0  0
 16 29  2  0  0  0  0
 16 31  1  0  0  0  0
 17 32  1  0  0  0  0
 18 24  1  0  0  0  0
 18 35  1  0  0  0  0
 19 32  1  0  0  0  0
 19 33  2  0  0  0  0
 19 36  1  0  0  0  0
 20 22  2  0  0  0  0
 20 41  1  0  0  0  0
 21 23  2  0  0  0  0
 21 42  1  0  0  0  0
 22 50  1  0  0  0  0
 23 43  1  0  0  0  0
 24 53  1  0  0  0  0
 25 30  2  0  0  0  0
 25 67  1  0  0  0  0
 26 81  1  0  0  0  0
 27 82  1  0  0  0  0
 28 31  2  0  0  0  0
 28 81  1  0  0  0  0
 29 83  1  0  0  0  0
 30 84  1  0  0  0  0
 31 85  1  0  0  0  0
 32 65  2  0  0  0  0
 33 68  1  0  0  0  0
 33 71  1  0  0  0  0
 34 61  1  0  0  0  0
 34 67  2  0  0  0  0
 35 37  1  0  0  0  0
 35 66  2  0  0  0  0
 36 72  1  0  0  0  0
 36 76  2  0  0  0  0
 37 69  1  0  0  0  0
 37 77  2  0  0  0  0
 38 51  1  0  0  0  0
 38 73  1  0  0  0  0
 38 78  2  0  0  0  0
 39 62  1  0  0  0  0
 39 70  1  0  0  0  0
 39 79  2  0  0  0  0
 40 63  1  0  0  0  0
 40 74  1  0  0  0  0
 40 80  2  0  0  0  0
 41 44  1  0  0  0  0
 42 51  1  0  0  0  0
 43 70  1  0  0  0  0
 44 46  1  0  0  0  0
 45 47  1  0  0  0  0
 45 48  1  0  0  0  0
 46 50  1  0  0  0  0
 47 52  1  0  0  0  0
 48 69  1  0  0  0  0
 49 52  1  0  0  0  0
 49 69  1  0  0  0  0
 50 73  1  0  0  0  0
 51 70  1  0  0  0  0
 52 68  1  0  0  0  0
 54 61  1  0  0  0  0
 55 63  1  0  0  0  0
 56 64  1  0  0  0  0
 57 64  1  0  0  0  0
 58 64  1  0  0  0  0
 59 75  1  0  0  0  0
 60 61  1  0  0  0  0
 60 82  1  0  0  0  0
 62 64  1  0  0  0  0
 62 74  1  0  0  0  0
 63 75  1  0  0  0  0
 65 68  1  0  0  0  0
M  CHG  1  75   1
M  ISO  4  35 100  37 100  60 101  82 101
M  END
> <Batch ID>
0117

> <Smiles>
CNC(C)C(=O)NC(C(=O)N1Cc2cc([101O:1][101CH2:1]C(C)=CNc3cc(C)c([100C:0](=N)[100C:0](=O)N4CCCC(n5nc(-c6ccc(Oc7ccc(F)cc7F)cc6)c(C(N)=O)c5N)C4)cc3F)ccc2CC1C(=O)NC1CCCc2ccccc21)C(C)(C)C

> <Shape>
0.245

> <Color>
0.078

> <Negative vol penalty>
0.000

$$$$

  -OEChem-04052301463D

 84 92  0     1  0  0  0  0  0999 V2000
  -21.0521  -34.1168   20.1405 C   0  0  0  0  0  0  0  0  0  0  0  0
  -22.2793  -33.4624   20.1769 C   0  0  0  0  0  0  0  0  0  0  0  0
  -26.7289  -12.4737   20.8871 C   0  0  0  0  0  0  0  0  0  0  0  0
  -25.3706  -14.2291   19.9329 C   0  0  0  0  0  0  0  0  0  0  0  0
  -20.0382  -33.7438   21.0219 C   0  0  0  0  0  0  0  0  0  0  0  0
  -22.4936  -32.4355   21.0955 C   0  0  0  0  0  0  0  0  0  0  0  0
  -24.7780  -28.4197   19.0219 C   0  0  0  0  0  0  0  0  0  0  0  0
  -25.7687  -11.5310   20.5199 C   0  0  0  0  0  0  0  0  0  0  0  0
  -24.4103  -13.2864   19.5656 C   0  0  0  0  0  0  0  0  0  0  0  0
  -26.1533  -28.5081   18.8108 C   0  0  0  0  0  0  0  0  0  0  0  0
  -23.5072   -8.7072   20.1524 C   0  0  0  0  0  0  0  0  0  0  0  0
  -23.1513   -7.7412   21.0936 C   0  0  0  0  0  0  0  0  0  0  0  0
  -29.9536  -24.9531   21.9622 C   0  0  0  0  0  0  0  0  0  0  0  0
  -30.1170  -22.5859   21.5077 C   0  0  0  0  0  0  0  0  0  0  0  0
  -26.5377  -27.2259   20.8176 C   0  0  0  0  0  0  0  0  0  0  0  0
  -29.3633  -23.3513   23.6718 C   0  0  0  0  0  0  0  0  0  0  0  0
  -22.4192   -9.4807   22.6020 C   0  0  0  0  0  0  0  0  0  0  0  0
  -26.5298  -13.8228   20.5937 C   0  0  0  0  0  0  0  0  0  0  0  0
  -30.2593  -23.9090   21.0893 C   0  0  0  0  0  0  0  0  0  0  0  0
  -28.6205  -15.2332   20.2100 C   0  0  0  0  0  0  0  0  0  0  0  0
  -20.2369  -32.7053   21.9452 C   0  0  0  0  0  0  0  0  0  0  0  0
  -24.2717  -27.7418   20.1402 C   0  0  0  0  0  0  0  0  0  0  0  0
  -21.4818  -32.0492   21.9909 C   0  0  0  0  0  0  0  0  0  0  0  0
  -25.1555  -27.1281   21.0393 C   0  0  0  0  0  0  0  0  0  0  0  0
  -29.5056  -24.6743   23.2534 C   0  0  0  0  0  0  0  0  0  0  0  0
  -29.6690  -22.3071   22.7989 C   0  0  0  0  0  0  0  0  0  0  0  0
  -24.6094  -11.9374   19.8591 C   0  0  0  0  0  0  0  0  0  0  0  0
  -27.0334  -27.9136   19.7102 C   0  0  0  0  0  0  0  0  0  0  0  0
  -23.3192  -10.0599   20.4360 C   0  0  0  0  0  0  0  0  0  0  0  0
  -22.6072   -8.1280   22.3183 C   0  0  0  0  0  0  0  0  0  0  0  0
  -22.7752  -10.4467   21.6608 C   0  0  0  0  0  0  0  0  0  0  0  0
  -27.5211  -14.7972   20.9734 C   0  0  0  0  0  0  0  0  0  0  0  0
  -29.2495  -16.1559   21.0097 C   0  0  0  0  0  0  0  0  0  0  0  0
  -30.1366  -25.9984   18.4185 C   0  0  0  0  0  0  0  0  0  0  0  0
  -30.7384  -24.2073   19.7086 C   0  0  0  0  0  0  0  0  0  0  0  0
  -29.0360  -14.8396   18.8954 C   0  0  0  0  0  0  0  0  0  0  0  0
  -22.5279  -28.5702   22.6654 C   0  0  0  0  0  0  0  0  0  0  0  0
  -22.5731  -25.3806   23.2542 C   0  0  0  0  0  0  0  0  0  0  0  0
  -24.1300  -22.3753   22.8162 C   0  0  0  0  0  0  0  0  0  0  0  0
  -29.0915  -20.5140   24.4716 C   0  0  0  0  0  0  0  0  0  0  0  0
  -19.1272  -32.3693   22.9098 C   0  0  0  0  0  0  0  0  0  0  0  0
  -22.7848  -27.6326   20.3393 C   0  0  0  0  0  0  0  0  0  0  0  0
  -24.6622  -26.3715   22.2445 C   0  0  0  0  0  0  0  0  0  0  0  0
  -19.3078  -31.0196   23.5997 C   0  0  0  0  0  0  0  0  0  0  0  0
  -28.5639  -17.2930   25.8942 C   0  0  0  0  0  0  0  0  0  0  0  0
  -20.7368  -30.8686   24.1115 C   0  0  0  0  0  0  0  0  0  0  0  0
  -28.3360  -16.3924   24.6780 C   0  0  0  0  0  0  0  0  0  0  0  0
  -27.9503  -18.6781   25.6972 C   0  0  0  0  0  0  0  0  0  0  0  0
  -28.1276  -18.4665   23.2492 C   0  0  0  0  0  0  0  0  0  0  0  0
  -21.7442  -30.9137   22.9563 C   0  0  1  0  0  0  0  0  0  0  0  0
  -22.3946  -27.3576   21.7883 C   0  0  1  0  0  0  0  0  0  0  0  0
  -28.7840  -17.0819   23.3744 C   0  0  2  0  0  0  0  0  0  0  0  0
  -29.1788  -25.7907   24.1870 C   0  0  0  0  0  0  0  0  0  0  0  0
  -23.9520  -19.9538   23.4500 C   0  0  0  0  0  0  0  0  0  0  0  0
  -23.6124  -26.0375   26.0468 C   0  0  0  0  0  0  0  0  0  0  0  0
  -24.3036  -23.6422   26.2772 C   0  0  0  0  0  0  0  0  0  0  0  0
  -21.8960  -24.2201   25.9733 C   0  0  0  0  0  0  0  0  0  0  0  0
  -23.8644  -21.5356   19.9908 C   0  0  0  0  0  0  0  0  0  0  0  0
  -30.2020  -27.4549   18.0411 C   0  0  0  0  0  0  0  0  0  0  0  0
  -28.8243  -28.0852   18.1548 C   0  0  0  0  0  0  0  0  0  1  0  0
  -23.4817  -24.4470   24.0172 C   0  0  1  0  0  0  0  0  0  0  0  0
  -23.5942  -21.0120   22.4180 C   0  0  2  0  0  0  0  0  0  0  0  0
  -23.3331  -24.6026   25.5570 C   0  0  0  0  0  0  0  0  0  0  0  0
  -27.4528  -15.3936   22.1666 N   0  0  0  0  0  0  0  0  0  0  0  0
  -30.8421  -25.5470   19.4013 N   0  0  0  0  0  0  0  0  0  0  0  0
  -28.5173  -16.2138   22.1589 N   0  0  0  0  0  0  0  0  0  0  0  0
  -23.1999  -26.2981   22.3991 N   0  0  0  0  0  0  0  0  0  0  0  0
  -28.4233  -19.2716   24.4446 N   0  0  0  0  0  0  0  0  0  0  0  0
  -30.3521  -16.9150   20.8350 N   0  0  0  0  0  0  0  0  0  0  0  0
  -28.2756  -13.8796   18.2138 N   0  0  0  0  0  0  0  0  0  0  0  0
  -29.5239  -20.9633   23.2243 N   0  0  0  0  0  0  0  0  0  0  0  0
  -21.7663  -29.6477   22.2553 N   0  0  0  0  0  0  0  0  0  0  0  0
  -23.1965  -23.1047   23.5219 N   0  0  0  0  0  0  0  0  0  0  0  0
  -24.1603  -20.5967   21.1034 N   0  3  0  0  0  0  0  0  0  0  0  0
  -31.0039  -23.2705   18.9604 O   0  0  0  0  0  0  0  0  0  0  0  0
  -30.0608  -15.3127   18.3482 O   0  0  0  0  0  0  0  0  0  0  0  0
  -23.2659  -28.5306   23.6429 O   0  0  0  0  0  0  0  0  0  0  0  0
  -21.3520  -25.2940   23.4058 O   0  0  0  0  0  0  0  0  0  0  0  0
  -25.2645  -22.7539   22.5331 O   0  0  0  0  0  0  0  0  0  0  0  0
  -29.2911  -21.1208   25.5270 O   0  0  0  0  0  0  0  0  0  0  0  0
  -23.6724  -11.0177   19.5003 O   0  0  0  0  0  0  0  0  0  0  0  0
  -28.3763  -27.9990   19.5069 O   0  0  0  0  0  0  0  0  0  1  0  0
  -22.2640   -7.2002   23.2214 F   0  0  0  0  0  0  0  0  0  0  0  0
  -22.5911  -11.7447   21.9385 F   0  0  0  0  0  0  0  0  0  0  0  0
  1  2  1  0  0  0  0
  1  5  2  0  0  0  0
  2  6  2  0  0  0  0
  3  8  2  0  0  0  0
  3 18  1  0  0  0  0
  4  9  1  0  0  0  0
  4 18  2  0  0  0  0
  5 21  1  0  0  0  0
  6 23  1  0  0  0  0
  7 10  2  0  0  0  0
  7 22  1  0  0  0  0
  8 27  1  0  0  0  0
  9 27  2  0  0  0  0
 10 28  1  0  0  0  0
 11 12  2  0  0  0  0
 11 29  1  0  0  0  0
 12 30  1  0  0  0  0
 13 19  1  0  0  0  0
 13 25  2  0  0  0  0
 14 19  2  0  0  0  0
 14 26  1  0  0  0  0
 15 24  1  0  0  0  0
 15 28  2  0  0  0  0
 16 25  1  0  0  0  0
 16 26  2  0  0  0  0
 17 30  2  0  0  0  0
 17 31  1  0  0  0  0
 18 32  1  0  0  0  0
 19 35  1  0  0  0  0
 20 32  1  0  0  0  0
 20 33  2  0  0  0  0
 20 36  1  0  0  0  0
 21 23  2  0  0  0  0
 21 41  1  0  0  0  0
 22 24  2  0  0  0  0
 22 42  1  0  0  0  0
 23 50  1  0  0  0  0
 24 43  1  0  0  0  0
 25 53  1  0  0  0  0
 26 71  1  0  0  0  0
 27 81  1  0  0  0  0
 28 82  1  0  0  0  0
 29 31  2  0  0  0  0
 29 81  1  0  0  0  0
 30 83  1  0  0  0  0
 31 84  1  0  0  0  0
 32 64  2  0  0  0  0
 33 66  1  0  0  0  0
 33 69  1  0  0  0  0
 34 59  1  0  0  0  0
 34 65  2  0  0  0  0
 35 65  1  0  0  0  0
 35 75  2  0  0  0  0
 36 70  1  0  0  0  0
 36 76  2  0  0  0  0
 37 51  1  0  0  0  0
 37 72  1  0  0  0  0
 37 77  2  0  0  0  0
 38 61  1  0  0  0  0
 38 67  1  0  0  0  0
 38 78  2  0  0  0  0
 39 62  1  0  0  0  0
 39 73  1  0  0  0  0
 39 79  2  0  0  0  0
 40 68  1  0  0  0  0
 40 71  1  0  0  0  0
 40 80  2  0  0  0  0
 41 44  1  0  0  0  0
 42 51  1  0  0  0  0
 43 67  1  0  0  0  0
 44 46  1  0  0  0  0
 45 47  1  0  0  0  0
 45 48  1  0  0  0  0
 46 50  1  0  0  0  0
 47 52  1  0  0  0  0
 48 68  1  0  0  0  0
 49 52  1  0  0  0  0
 49 68  1  0  0  0  0
 50 72  1  0  0  0  0
 51 67  1  0  0  0  0
 52 66  1  0  0  0  0
 54 62  1  0  0  0  0
 55 63  1  0  0  0  0
 56 63  1  0  0  0  0
 57 63  1  0  0  0  0
 58 74  1  0  0  0  0
 59 60  1  0  0  0  0
 60 82  1  0  0  0  0
 61 63  1  0  0  0  0
 61 73  1  0  0  0  0
 62 74  1  0  0  0  0
 64 66  1  0  0  0  0
M  CHG  1  74   1
M  ISO  4  40 100  60 101  71 100  82 101
M  END
> <Batch ID>
0117

> <Smiles>
CNC(C)C(=O)NC(C(=O)N1Cc2cc([101O:1][101CH2:1]C=CNC(=O)c3cc(C)cc([100NH:0][100C:0](=O)N4CCCC(n5nc(-c6ccc(Oc7ccc(F)cc7F)cc6)c(C(N)=O)c5N)C4)c3)ccc2CC1C(=O)NC1CCCc2ccccc21)C(C)(C)C

> <Shape>
0.191

> <Color>
0.102

> <Negative vol penalty>
0.000

$$$$

  -OEChem-04052301463D

 87 95  0     1  0  0  0  0  0999 V2000
  -28.4147  -34.3074   25.1344 C   0  0  0  0  0  0  0  0  0  0  0  0
  -29.1758  -33.2962   24.5570 C   0  0  0  0  0  0  0  0  0  0  0  0
  -23.0204   -9.9218   19.9414 C   0  0  0  0  0  0  0  0  0  0  0  0
  -23.8585   -9.8443   22.2061 C   0  0  0  0  0  0  0  0  0  0  0  0
  -27.0525  -34.1116   25.3585 C   0  0  0  0  0  0  0  0  0  0  0  0
  -28.5755  -32.0880   24.2044 C   0  0  0  0  0  0  0  0  0  0  0  0
  -28.9882  -26.8655   19.3185 C   0  0  0  0  0  0  0  0  0  0  0  0
  -22.2798   -8.7632   20.1758 C   0  0  0  0  0  0  0  0  0  0  0  0
  -23.1179   -8.6857   22.4405 C   0  0  0  0  0  0  0  0  0  0  0  0
  -29.0931  -25.4780   19.2313 C   0  0  0  0  0  0  0  0  0  0  0  0
  -23.3731   -5.3846   21.7561 C   0  0  0  0  0  0  0  0  0  0  0  0
  -24.0077   -4.3321   22.4156 C   0  0  0  0  0  0  0  0  0  0  0  0
  -29.7579  -17.3605   20.0726 C   0  0  0  0  0  0  0  0  0  0  0  0
  -26.7162  -25.2816   19.5928 C   0  0  0  0  0  0  0  0  0  0  0  0
  -27.6944  -18.3851   21.6458 C   0  0  0  0  0  0  0  0  0  0  0  0
  -22.3667   -4.4512   24.1848 C   0  0  0  0  0  0  0  0  0  0  0  0
  -23.8098  -10.4623   20.9566 C   0  0  0  0  0  0  0  0  0  0  0  0
  -29.4271  -16.7420   21.2783 C   0  0  0  0  0  0  0  0  0  0  0  0
  -24.1598  -12.9888   20.9144 C   0  0  0  0  0  0  0  0  0  0  0  0
  -26.4332  -32.9040   24.9996 C   0  0  0  0  0  0  0  0  0  0  0  0
  -27.7461  -27.4719   19.5548 C   0  0  0  0  0  0  0  0  0  0  0  0
  -27.2041  -31.8754   24.4251 C   0  0  0  0  0  0  0  0  0  0  0  0
  -26.5977  -26.6771   19.6800 C   0  0  0  0  0  0  0  0  0  0  0  0
  -28.3953  -17.2543   22.0648 C   0  0  0  0  0  0  0  0  0  0  0  0
  -28.0253  -19.0037   20.4401 C   0  0  0  0  0  0  0  0  0  0  0  0
  -22.3286   -8.1452   21.4254 C   0  0  0  0  0  0  0  0  0  0  0  0
  -27.9575  -24.6857   19.3713 C   0  0  0  0  0  0  0  0  0  0  0  0
  -22.2353   -5.9705   22.3109 C   0  0  0  0  0  0  0  0  0  0  0  0
  -29.0571  -18.4914   19.6536 C   0  0  0  0  0  0  0  0  0  0  0  0
  -23.5046   -3.8654   23.6299 C   0  0  0  0  0  0  0  0  0  0  0  0
  -21.7321   -5.5038   23.5253 C   0  0  0  0  0  0  0  0  0  0  0  0
  -24.5755  -11.6587   20.7148 C   0  0  0  0  0  0  0  0  0  0  0  0
  -25.2426  -13.7466   20.5405 C   0  0  0  0  0  0  0  0  0  0  0  0
  -31.1320  -21.9499   17.6958 C   0  0  0  0  0  0  0  0  0  0  0  0
  -30.7372  -20.7100   17.3863 C   0  0  0  0  0  0  0  0  0  0  0  0
  -27.7908  -21.2775   20.4240 C   0  0  0  0  0  0  0  0  0  0  0  0
  -30.1752  -15.5627   21.6922 C   0  0  0  0  0  0  0  0  0  0  0  0
  -22.9070  -13.4941   21.3949 C   0  0  0  0  0  0  0  0  0  0  0  0
  -30.7630  -14.6362   20.6976 C   0  0  0  0  0  0  0  0  0  0  0  0
  -26.5432  -29.2957   21.8636 C   0  0  0  0  0  0  0  0  0  0  0  0
  -23.9986  -29.4771   19.8600 C   0  0  0  0  0  0  0  0  0  0  0  0
  -22.2214  -28.0853   17.3005 C   0  0  0  0  0  0  0  0  0  0  0  0
  -24.9676  -32.7211   25.3048 C   0  0  0  0  0  0  0  0  0  0  0  0
  -27.6454  -28.9713   19.6195 C   0  0  0  0  0  0  0  0  0  0  0  0
  -25.2376  -27.2801   19.9145 C   0  0  0  0  0  0  0  0  0  0  0  0
  -24.3315  -31.5511   24.5587 C   0  0  0  0  0  0  0  0  0  0  0  0
  -29.4959  -12.4711   18.1357 C   0  0  0  0  0  0  0  0  0  0  0  0
  -25.2165  -30.3124   24.6544 C   0  0  0  0  0  0  0  0  0  0  0  0
  -28.0821  -12.1454   18.6160 C   0  0  0  0  0  0  0  0  0  0  0  0
  -30.4615  -12.6258   19.3062 C   0  0  0  0  0  0  0  0  0  0  0  0
  -28.6082  -13.3143   20.8029 C   0  0  0  0  0  0  0  0  0  0  0  0
  -26.5840  -30.5600   24.0062 C   0  0  1  0  0  0  0  0  0  0  0  0
  -26.4118  -29.4552   20.3753 C   0  0  1  0  0  0  0  0  0  0  0  0
  -27.5986  -13.1780   19.6498 C   0  0  2  0  0  0  0  0  0  0  0  0
  -28.5525  -17.3854   24.5637 C   0  0  0  0  0  0  0  0  0  0  0  0
  -20.1669  -28.4448   15.9050 C   0  0  0  0  0  0  0  0  0  0  0  0
  -22.2578  -28.5520   22.1889 C   0  0  0  0  0  0  0  0  0  0  0  0
  -20.4521  -28.0219   20.5377 C   0  0  0  0  0  0  0  0  0  0  0  0
  -21.2548  -30.3697   20.7945 C   0  0  0  0  0  0  0  0  0  0  0  0
  -23.8039  -28.2487   14.8049 C   0  0  0  0  0  0  0  0  0  0  0  0
  -28.0214  -16.6119   23.3608 C   0  0  0  0  0  0  0  0  0  0  0  0
  -30.7288  -19.5721   18.3523 C   0  0  0  0  0  0  0  0  0  0  0  0
  -27.1202  -22.5628   20.0411 C   0  0  0  0  0  0  0  0  0  1  0  0
  -22.7395  -28.6699   19.6551 C   0  0  1  0  0  0  0  0  0  0  0  0
  -21.6648  -28.6811   16.0199 C   0  0  2  0  0  0  0  0  0  0  0  0
  -21.7018  -28.8916   20.7916 C   0  0  0  0  0  0  0  0  0  0  0  0
  -25.8248  -11.5731   20.2501 N   0  0  0  0  0  0  0  0  0  0  0  0
  -30.3777  -15.2474   22.9417 N   0  0  0  0  0  0  0  0  0  0  0  0
  -27.3122  -20.1429   20.0300 N   0  0  0  0  0  0  0  0  0  0  0  0
  -26.2034  -12.8590   20.1544 N   0  0  0  0  0  0  0  0  0  0  0  0
  -29.9554  -13.5854   20.2856 N   0  0  0  0  0  0  0  0  0  0  0  0
  -25.1919  -28.7503   19.9764 N   0  0  0  0  0  0  0  0  0  0  0  0
  -25.4570  -15.0791   20.5075 N   0  0  0  0  0  0  0  0  0  0  0  0
  -21.9028  -12.5773   21.7344 N   0  0  0  0  0  0  0  0  0  0  0  0
  -26.4811  -30.4849   22.5646 N   0  0  0  0  0  0  0  0  0  0  0  0
  -22.2491  -29.0092   18.3237 N   0  0  0  0  0  0  0  0  0  0  0  0
  -22.3292  -28.0713   14.8335 N   0  3  0  0  0  0  0  0  0  0  0  0
  -22.6790  -14.7228   21.5039 O   0  0  0  0  0  0  0  0  0  0  0  0
  -31.9053  -14.8977   20.3438 O   0  0  0  0  0  0  0  0  0  0  0  0
  -26.6887  -28.1764   22.3407 O   0  0  0  0  0  0  0  0  0  0  0  0
  -23.9269  -30.7077   19.9077 O   0  0  0  0  0  0  0  0  0  0  0  0
  -22.5908  -26.9162   17.3857 O   0  0  0  0  0  0  0  0  0  0  0  0
  -21.6059   -7.0149   21.6545 O   0  0  0  0  0  0  0  0  0  0  0  0
  -29.3944  -19.0838   18.4738 O   0  0  0  0  0  0  0  0  0  0  0  0
  -28.0572  -23.3311   19.2873 O   0  0  0  0  0  0  0  0  0  1  0  0
  -24.1133   -2.8536   24.2624 F   0  0  0  0  0  0  0  0  0  0  0  0
  -20.6387   -6.0619   24.0627 F   0  0  0  0  0  0  0  0  0  0  0  0
  1  2  1  0  0  0  0
  1  5  2  0  0  0  0
  2  6  2  0  0  0  0
  3  8  2  0  0  0  0
  3 17  1  0  0  0  0
  4  9  1  0  0  0  0
  4 17  2  0  0  0  0
  5 20  1  0  0  0  0
  6 22  1  0  0  0  0
  7 10  2  0  0  0  0
  7 21  1  0  0  0  0
  8 26  1  0  0  0  0
  9 26  2  0  0  0  0
 10 27  1  0  0  0  0
 11 12  2  0  0  0  0
 11 28  1  0  0  0  0
 12 30  1  0  0  0  0
 13 18  2  0  0  0  0
 13 29  1  0  0  0  0
 14 23  1  0  0  0  0
 14 27  2  0  0  0  0
 15 24  2  0  0  0  0
 15 25  1  0  0  0  0
 16 30  2  0  0  0  0
 16 31  1  0  0  0  0
 17 32  1  0  0  0  0
 18 24  1  0  0  0  0
 18 37  1  0  0  0  0
 19 32  1  0  0  0  0
 19 33  2  0  0  0  0
 19 38  1  0  0  0  0
 20 22  2  0  0  0  0
 20 43  1  0  0  0  0
 21 23  2  0  0  0  0
 21 44  1  0  0  0  0
 22 52  1  0  0  0  0
 23 45  1  0  0  0  0
 24 61  1  0  0  0  0
 25 29  2  0  0  0  0
 25 69  1  0  0  0  0
 26 83  1  0  0  0  0
 27 85  1  0  0  0  0
 28 31  2  0  0  0  0
 28 83  1  0  0  0  0
 29 84  1  0  0  0  0
 30 86  1  0  0  0  0
 31 87  1  0  0  0  0
 32 67  2  0  0  0  0
 33 70  1  0  0  0  0
 33 73  1  0  0  0  0
 34 35  2  0  0  0  0
 35 62  1  0  0  0  0
 36 63  1  0  0  0  0
 36 69  2  0  0  0  0
 37 39  1  0  0  0  0
 37 68  2  0  0  0  0
 38 74  1  0  0  0  0
 38 78  2  0  0  0  0
 39 71  1  0  0  0  0
 39 79  2  0  0  0  0
 40 53  1  0  0  0  0
 40 75  1  0  0  0  0
 40 80  2  0  0  0  0
 41 64  1  0  0  0  0
 41 72  1  0  0  0  0
 41 81  2  0  0  0  0
 42 65  1  0  0  0  0
 42 76  1  0  0  0  0
 42 82  2  0  0  0  0
 43 46  1  0  0  0  0
 44 53  1  0  0  0  0
 45 72  1  0  0  0  0
 46 48  1  0  0  0  0
 47 49  1  0  0  0  0
 47 50  1  0  0  0  0
 48 52  1  0  0  0  0
 49 54  1  0  0  0  0
 50 71  1  0  0  0  0
 51 54  1  0  0  0  0
 51 71  1  0  0  0  0
 52 75  1  0  0  0  0
 53 72  1  0  0  0  0
 54 70  1  0  0  0  0
 55 61  1  0  0  0  0
 56 65  1  0  0  0  0
 57 66  1  0  0  0  0
 58 66  1  0  0  0  0
 59 66  1  0  0  0  0
 60 77  1  0  0  0  0
 62 84  1  0  0  0  0
 63 85  1  0  0  0  0
 64 66  1  0  0  0  0
 64 76  1  0  0  0  0
 65 77  1  0  0  0  0
 67 70  1  0  0  0  0
M  CHG  1  77   1
M  ISO  4  37 100  39 100  63 101  85 101
M  END
> <Batch ID>
0117

> <Smiles>
C=CCOc1cc([100C:0](=N)[100C:0](=O)N2CCCC(n3nc(-c4ccc(Oc5ccc(F)cc5F)cc4)c(C(N)=O)c3N)C2)c(CC)cc1NC=[101CH:1][101O:1]c1ccc2c(c1)CN(C(=O)C(NC(=O)C(C)NC)C(C)(C)C)C(C(=O)NC1CCCc3ccccc31)C2

> <Shape>
0.400

> <Color>
0.207

> <Negative vol penalty>
0.000

$$$$

  -OEChem-04052301463D

 84 92  0     1  0  0  0  0  0999 V2000
  -19.6600  -28.2236   26.9527 C   0  0  0  0  0  0  0  0  0  0  0  0
  -20.8137  -27.6815   26.3955 C   0  0  0  0  0  0  0  0  0  0  0  0
  -24.6767   -8.8358   21.5375 C   0  0  0  0  0  0  0  0  0  0  0  0
  -23.0327  -10.5137   20.9729 C   0  0  0  0  0  0  0  0  0  0  0  0
  -18.7190  -28.8479   26.1348 C   0  0  0  0  0  0  0  0  0  0  0  0
  -21.0266  -27.7624   25.0198 C   0  0  0  0  0  0  0  0  0  0  0  0
  -26.3984  -28.4495   22.1601 C   0  0  0  0  0  0  0  0  0  0  0  0
  -23.7301   -8.1703   22.3163 C   0  0  0  0  0  0  0  0  0  0  0  0
  -22.0860   -9.8482   21.7517 C   0  0  0  0  0  0  0  0  0  0  0  0
  -27.2555  -27.5395   21.5429 C   0  0  0  0  0  0  0  0  0  0  0  0
  -21.1152   -6.0855   21.8178 C   0  0  0  0  0  0  0  0  0  0  0  0
  -21.0268   -4.6996   21.6871 C   0  0  0  0  0  0  0  0  0  0  0  0
  -27.7152  -20.9819   21.3460 C   0  0  0  0  0  0  0  0  0  0  0  0
  -26.2592  -28.0581   19.4080 C   0  0  0  0  0  0  0  0  0  0  0  0
  -21.5560   -4.4449   24.0306 C   0  0  0  0  0  0  0  0  0  0  0  0
  -24.3280  -10.0076   20.8658 C   0  0  0  0  0  0  0  0  0  0  0  0
  -27.9203  -19.6808   21.8894 C   0  0  0  0  0  0  0  0  0  0  0  0
  -25.5728  -10.4975   18.6937 C   0  0  0  0  0  0  0  0  0  0  0  0
  -18.9251  -28.9450   24.7497 C   0  0  0  0  0  0  0  0  0  0  0  0
  -25.4562  -29.1638   21.4061 C   0  0  0  0  0  0  0  0  0  0  0  0
  -20.0869  -28.3874   24.1824 C   0  0  0  0  0  0  0  0  0  0  0  0
  -25.3930  -28.9784   20.0177 C   0  0  0  0  0  0  0  0  0  0  0  0
  -22.4347   -8.6765   22.4234 C   0  0  0  0  0  0  0  0  0  0  0  0
  -27.1841  -27.3416   20.1671 C   0  0  0  0  0  0  0  0  0  0  0  0
  -21.4241   -6.6511   23.0549 C   0  0  0  0  0  0  0  0  0  0  0  0
  -21.2472   -3.8793   22.7935 C   0  0  0  0  0  0  0  0  0  0  0  0
  -21.6444   -5.8308   24.1613 C   0  0  0  0  0  0  0  0  0  0  0  0
  -25.3056  -10.6958   20.0616 C   0  0  0  0  0  0  0  0  0  0  0  0
  -28.7310  -18.9073   21.0882 C   0  0  0  0  0  0  0  0  0  0  0  0
  -26.5786  -11.3881   18.4077 C   0  0  0  0  0  0  0  0  0  0  0  0
  -28.3773  -21.1533   20.1501 C   0  0  0  0  0  0  0  0  0  0  0  0
  -27.3588  -19.2055   23.1277 C   0  0  0  0  0  0  0  0  0  0  0  0
  -24.9660   -9.5897   17.7646 C   0  0  0  0  0  0  0  0  0  0  0  0
  -22.2827  -29.3412   21.3679 C   0  0  0  0  0  0  0  0  0  0  0  0
  -28.0920  -16.5145   20.9971 C   0  0  0  0  0  0  0  0  0  0  0  0
  -22.8294  -31.6990   19.2082 C   0  0  0  0  0  0  0  0  0  0  0  0
  -27.8362  -23.5096   19.4434 C   0  0  0  0  0  0  0  0  0  0  0  0
  -24.9228  -33.0788   16.8929 C   0  0  0  0  0  0  0  0  0  0  0  0
  -17.8572  -29.5873   23.9001 C   0  0  0  0  0  0  0  0  0  0  0  0
  -24.5568  -30.1614   22.0832 C   0  0  0  0  0  0  0  0  0  0  0  0
  -24.4129  -29.7354   19.1604 C   0  0  0  0  0  0  0  0  0  0  0  0
  -18.3362  -29.9618   22.4999 C   0  0  0  0  0  0  0  0  0  0  0  0
  -30.2675  -13.6567   20.4249 C   0  0  0  0  0  0  0  0  0  0  0  0
  -19.1141  -28.8078   21.8754 C   0  0  0  0  0  0  0  0  0  0  0  0
  -29.2508  -12.5451   20.1688 C   0  0  0  0  0  0  0  0  0  0  0  0
  -29.7596  -14.6535   21.4635 C   0  0  0  0  0  0  0  0  0  0  0  0
  -27.4125  -14.1388   20.8714 C   0  0  0  0  0  0  0  0  0  0  0  0
  -20.3655  -28.4771   22.6977 C   0  0  1  0  0  0  0  0  0  0  0  0
  -23.2872  -30.4559   21.2902 C   0  0  1  0  0  0  0  0  0  0  0  0
  -27.8739  -13.1290   19.8072 C   0  0  2  0  0  0  0  0  0  0  0  0
  -26.4862  -20.1484   23.9168 C   0  0  0  0  0  0  0  0  0  0  0  0
  -25.0787  -34.9815   15.2642 C   0  0  0  0  0  0  0  0  0  0  0  0
  -20.9474  -30.2262   17.3111 C   0  0  0  0  0  0  0  0  0  0  0  0
  -21.8687  -31.6069   15.4369 C   0  0  0  0  0  0  0  0  0  0  0  0
  -20.6758  -32.7122   17.3284 C   0  0  0  0  0  0  0  0  0  0  0  0
  -27.2910  -34.2087   18.2617 C   0  0  0  0  0  0  0  0  0  0  0  0
  -29.1840  -17.5122   21.2901 C   0  0  0  0  0  0  0  0  0  0  0  0
  -28.1741  -24.4267   18.2735 C   0  0  0  0  0  0  0  0  0  0  0  0
  -27.5349  -25.8022   18.3885 C   0  0  0  0  0  0  0  0  0  1  0  0
  -22.9866  -31.7592   17.7080 C   0  0  1  0  0  0  0  0  0  0  0  0
  -25.3837  -34.5090   16.6772 C   0  0  2  0  0  0  0  0  0  0  0  0
  -21.6369  -31.5603   16.9622 C   0  0  0  0  0  0  0  0  0  0  0  0
  -26.0794  -11.6381   20.6068 N   0  0  0  0  0  0  0  0  0  0  0  0
  -26.8427  -12.0399   19.5763 N   0  0  0  0  0  0  0  0  0  0  0  0
  -23.5507  -30.6950   19.8698 N   0  0  0  0  0  0  0  0  0  0  0  0
  -28.4339  -15.1656   21.0966 N   0  0  0  0  0  0  0  0  0  0  0  0
  -27.2541  -11.6692   17.2732 N   0  0  0  0  0  0  0  0  0  0  0  0
  -23.9468   -8.7448   18.2247 N   0  0  0  0  0  0  0  0  0  0  0  0
  -28.4477  -22.2691   19.2824 N   0  0  0  0  0  0  0  0  0  0  0  0
  -21.4118  -29.4420   22.4360 N   0  0  0  0  0  0  0  0  0  0  0  0
  -23.6487  -33.0264   17.4175 N   0  0  0  0  0  0  0  0  0  0  0  0
  -26.8526  -34.6195   16.9030 N   0  3  0  0  0  0  0  0  0  0  0  0
  -27.5347  -18.0768   23.6122 O   0  0  0  0  0  0  0  0  0  0  0  0
  -25.3284   -9.5180   16.5658 O   0  0  0  0  0  0  0  0  0  0  0  0
  -22.2958  -28.4559   20.5206 O   0  0  0  0  0  0  0  0  0  0  0  0
  -26.9702  -16.9236   20.6867 O   0  0  0  0  0  0  0  0  0  0  0  0
  -22.0993  -32.5172   19.7731 O   0  0  0  0  0  0  0  0  0  0  0  0
  -27.1183  -23.8708   20.3698 O   0  0  0  0  0  0  0  0  0  0  0  0
  -25.6216  -32.1054   16.6196 O   0  0  0  0  0  0  0  0  0  0  0  0
  -21.5107   -8.0273   23.1832 O   0  0  0  0  0  0  0  0  0  0  0  0
  -28.0192  -26.4535   19.5623 O   0  0  0  0  0  0  0  0  0  1  0  0
  -21.1607   -2.5485   22.6682 F   0  0  0  0  0  0  0  0  0  0  0  0
  -21.9404   -6.3685   25.3526 F   0  0  0  0  0  0  0  0  0  0  0  0
  -29.2414  -19.7493   19.6871 S   0  0  0  0  0  0  0  0  0  0  0  0
  1  2  1  0  0  0  0
  1  5  2  0  0  0  0
  2  6  2  0  0  0  0
  3  8  2  0  0  0  0
  3 16  1  0  0  0  0
  4  9  1  0  0  0  0
  4 16  2  0  0  0  0
  5 19  1  0  0  0  0
  6 21  1  0  0  0  0
  7 10  2  0  0  0  0
  7 20  1  0  0  0  0
  8 23  1  0  0  0  0
  9 23  2  0  0  0  0
 10 24  1  0  0  0  0
 11 12  2  0  0  0  0
 11 25  1  0  0  0  0
 12 26  1  0  0  0  0
 13 17  1  0  0  0  0
 13 31  2  0  0  0  0
 14 22  1  0  0  0  0
 14 24  2  0  0  0  0
 15 26  2  0  0  0  0
 15 27  1  0  0  0  0
 16 28  1  0  0  0  0
 17 29  2  0  0  0  0
 17 32  1  0  0  0  0
 18 28  1  0  0  0  0
 18 30  2  0  0  0  0
 18 33  1  0  0  0  0
 19 21  2  0  0  0  0
 19 39  1  0  0  0  0
 20 22  2  0  0  0  0
 20 40  1  0  0  0  0
 21 48  1  0  0  0  0
 22 41  1  0  0  0  0
 23 80  1  0  0  0  0
 24 81  1  0  0  0  0
 25 27  2  0  0  0  0
 25 80  1  0  0  0  0
 26 82  1  0  0  0  0
 27 83  1  0  0  0  0
 28 63  2  0  0  0  0
 29 57  1  0  0  0  0
 29 84  1  0  0  0  0
 30 64  1  0  0  0  0
 30 67  1  0  0  0  0
 31 69  1  0  0  0  0
 31 84  1  0  0  0  0
 32 51  1  0  0  0  0
 32 73  2  0  0  0  0
 33 68  1  0  0  0  0
 33 74  2  0  0  0  0
 34 49  1  0  0  0  0
 34 70  1  0  0  0  0
 34 75  2  0  0  0  0
 35 57  1  0  0  0  0
 35 66  1  0  0  0  0
 35 76  2  0  0  0  0
 36 60  1  0  0  0  0
 36 65  1  0  0  0  0
 36 77  2  0  0  0  0
 37 58  1  0  0  0  0
 37 69  1  0  0  0  0
 37 78  2  0  0  0  0
 38 61  1  0  0  0  0
 38 71  1  0  0  0  0
 38 79  2  0  0  0  0
 39 42  1  0  0  0  0
 40 49  1  0  0  0  0
 41 65  1  0  0  0  0
 42 44  1  0  0  0  0
 43 45  1  0  0  0  0
 43 46  1  0  0  0  0
 44 48  1  0  0  0  0
 45 50  1  0  0  0  0
 46 66  1  0  0  0  0
 47 50  1  0  0  0  0
 47 66  1  0  0  0  0
 48 70  1  0  0  0  0
 49 65  1  0  0  0  0
 50 64  1  0  0  0  0
 52 61  1  0  0  0  0
 53 62  1  0  0  0  0
 54 62  1  0  0  0  0
 55 62  1  0  0  0  0
 56 72  1  0  0  0  0
 58 59  1  0  0  0  0
 59 81  1  0  0  0  0
 60 62  1  0  0  0  0
 60 71  1  0  0  0  0
 61 72  1  0  0  0  0
 63 64  1  0  0  0  0
M  CHG  1  72   1
M  ISO  4  35 100  57 100  59 101  81 101
M  END
> <Batch ID>
0117

> <Smiles>
CNC(C)C(=O)NC(C(=O)N1Cc2cc([101O:1][101CH2:1]CC(=O)Nc3cc(C(C)=O)c([100CH2:0][100C:0](=O)N4CCCC(n5nc(-c6ccc(Oc7ccc(F)cc7F)cc6)c(C(N)=O)c5N)C4)s3)ccc2CC1C(=O)NC1CCCc2ccccc21)C(C)(C)C

> <Shape>
0.278

> <Color>
0.113

> <Negative vol penalty>
0.000

$$$$

  -OEChem-04052301463D

 89 97  0     1  0  0  0  0  0999 V2000
  -28.2154  -37.3771   19.1050 C   0  0  0  0  0  0  0  0  0  0  0  0
  -28.5014  -36.0488   18.8062 C   0  0  0  0  0  0  0  0  0  0  0  0
  -24.7288   -9.4257   21.8470 C   0  0  0  0  0  0  0  0  0  0  0  0
  -22.9767  -10.4282   20.5195 C   0  0  0  0  0  0  0  0  0  0  0  0
  -27.7462  -37.7199   20.3724 C   0  0  0  0  0  0  0  0  0  0  0  0
  -28.3195  -35.0626   19.7752 C   0  0  0  0  0  0  0  0  0  0  0  0
  -26.4907  -29.2907   18.8554 C   0  0  0  0  0  0  0  0  0  0  0  0
  -23.7849   -8.6210   22.4851 C   0  0  0  0  0  0  0  0  0  0  0  0
  -22.0328   -9.6235   21.1576 C   0  0  0  0  0  0  0  0  0  0  0  0
  -27.1915  -28.0897   18.7533 C   0  0  0  0  0  0  0  0  0  0  0  0
  -22.0594   -5.7924   21.8108 C   0  0  0  0  0  0  0  0  0  0  0  0
  -22.3642   -4.4412   21.9747 C   0  0  0  0  0  0  0  0  0  0  0  0
  -33.6563  -21.3264   20.8081 C   0  0  0  0  0  0  0  0  0  0  0  0
  -31.7128  -19.9375   20.4464 C   0  0  0  0  0  0  0  0  0  0  0  0
  -26.7772  -27.6564   21.0900 C   0  0  0  0  0  0  0  0  0  0  0  0
  -22.1877   -4.6921   24.3712 C   0  0  0  0  0  0  0  0  0  0  0  0
  -24.3247  -10.3293   20.8642 C   0  0  0  0  0  0  0  0  0  0  0  0
  -34.4597  -20.1875   20.8648 C   0  0  0  0  0  0  0  0  0  0  0  0
  -32.5161  -18.7986   20.5031 C   0  0  0  0  0  0  0  0  0  0  0  0
  -33.8896  -18.9236   20.7123 C   0  0  0  0  0  0  0  0  0  0  0  0
  -26.0173  -10.8627   19.0316 C   0  0  0  0  0  0  0  0  0  0  0  0
  -27.5493  -36.7362   21.3543 C   0  0  0  0  0  0  0  0  0  0  0  0
  -25.9364  -29.6894   20.0802 C   0  0  0  0  0  0  0  0  0  0  0  0
  -27.8485  -35.3928   21.0573 C   0  0  0  0  0  0  0  0  0  0  0  0
  -26.0677  -28.8617   21.2043 C   0  0  0  0  0  0  0  0  0  0  0  0
  -22.4369   -8.7199   22.1404 C   0  0  0  0  0  0  0  0  0  0  0  0
  -27.3372  -27.2737   19.8714 C   0  0  0  0  0  0  0  0  0  0  0  0
  -21.8189   -6.5936   22.9271 C   0  0  0  0  0  0  0  0  0  0  0  0
  -32.2829  -21.2014   20.5989 C   0  0  0  0  0  0  0  0  0  0  0  0
  -22.4283   -3.8911   23.2549 C   0  0  0  0  0  0  0  0  0  0  0  0
  -21.8830   -6.0434   24.2073 C   0  0  0  0  0  0  0  0  0  0  0  0
  -25.2992  -11.1612   20.2051 C   0  0  0  0  0  0  0  0  0  0  0  0
  -26.8068  -11.9669   18.8220 C   0  0  0  0  0  0  0  0  0  0  0  0
  -36.3952  -20.9329   22.1737 C   0  0  0  0  0  0  0  0  0  0  0  0
  -35.8902  -20.3740   21.0858 C   0  0  0  0  0  0  0  0  0  0  0  0
  -31.8695  -17.5007   20.3375 C   0  0  0  0  0  0  0  0  0  0  0  0
  -34.7325  -17.7286   20.7719 C   0  0  0  0  0  0  0  0  0  0  0  0
  -30.8849  -17.0164   21.1191 C   0  0  0  0  0  0  0  0  0  0  0  0
  -35.0423  -17.0434   21.8895 C   0  0  0  0  0  0  0  0  0  0  0  0
  -25.9744   -9.6920   18.2049 C   0  0  0  0  0  0  0  0  0  0  0  0
  -30.3238  -15.6845   20.8157 C   0  0  0  0  0  0  0  0  0  0  0  0
  -26.3671  -32.1539   22.0410 C   0  0  0  0  0  0  0  0  0  0  0  0
  -29.9177  -24.8228   20.5752 C   0  0  0  0  0  0  0  0  0  0  0  0
  -23.8534  -30.8400   23.6150 C   0  0  0  0  0  0  0  0  0  0  0  0
  -21.9963  -28.0598   24.2992 C   0  0  0  0  0  0  0  0  0  0  0  0
  -27.0852  -37.1613   22.7249 C   0  0  0  0  0  0  0  0  0  0  0  0
  -25.1605  -30.9751   20.1673 C   0  0  0  0  0  0  0  0  0  0  0  0
  -25.4741  -29.2345   22.5374 C   0  0  0  0  0  0  0  0  0  0  0  0
  -26.5635  -36.0068   23.5765 C   0  0  0  0  0  0  0  0  0  0  0  0
  -26.7600  -16.5228   20.9834 C   0  0  0  0  0  0  0  0  0  0  0  0
  -27.5183  -34.8191   23.5083 C   0  0  0  0  0  0  0  0  0  0  0  0
  -26.1251  -15.1555   20.7442 C   0  0  0  0  0  0  0  0  0  0  0  0
  -28.0695  -16.4166   21.7634 C   0  0  0  0  0  0  0  0  0  0  0  0
  -28.4229  -14.1189   20.9056 C   0  0  0  0  0  0  0  0  0  0  0  0
  -27.6405  -34.2912   22.0738 C   0  0  1  0  0  0  0  0  0  0  0  0
  -25.0786  -31.5285   21.5866 C   0  0  1  0  0  0  0  0  0  0  0  0
  -27.1282  -14.1980   20.0816 C   0  0  1  0  0  0  0  0  0  0  0  0
  -35.9161  -15.8313   21.9040 C   0  0  0  0  0  0  0  0  0  0  0  0
  -20.0274  -27.2896   25.6512 C   0  0  0  0  0  0  0  0  0  0  0  0
  -25.5717  -30.8808   26.1361 C   0  0  0  0  0  0  0  0  0  0  0  0
  -23.9574  -29.2757   27.1783 C   0  0  0  0  0  0  0  0  0  0  0  0
  -23.1867  -31.5457   26.4883 C   0  0  0  0  0  0  0  0  0  0  0  0
  -20.4974  -27.2605   21.8757 C   0  0  0  0  0  0  0  0  0  0  0  0
  -30.7173  -24.2697   21.7456 C   0  0  0  0  0  0  0  0  0  0  0  0
  -28.6995  -25.6466   20.9450 C   0  0  0  0  0  0  0  0  0  1  0  0
  -31.9170  -23.4415   21.3088 C   0  0  0  0  0  0  0  0  0  0  0  0
  -23.6968  -29.8177   24.7147 C   0  0  1  0  0  0  0  0  0  0  0  0
  -20.4961  -27.8276   24.3082 C   0  0  2  0  0  0  0  0  0  0  0  0
  -24.1161  -30.3736   26.1048 C   0  0  0  0  0  0  0  0  0  0  0  0
  -25.6055  -12.3609   20.7059 N   0  0  0  0  0  0  0  0  0  0  0  0
  -26.5249  -12.8260   19.8430 N   0  0  0  0  0  0  0  0  0  0  0  0
  -28.9891  -15.4515   21.1425 N   0  0  0  0  0  0  0  0  0  0  0  0
  -24.7298  -30.5043   22.5734 N   0  0  0  0  0  0  0  0  0  0  0  0
  -27.7078  -12.2769   17.8657 N   0  0  0  0  0  0  0  0  0  0  0  0
  -25.1072   -8.6514   18.5648 N   0  0  0  0  0  0  0  0  0  0  0  0
  -26.4826  -33.4948   21.7280 N   0  0  0  0  0  0  0  0  0  0  0  0
  -22.3147  -29.3552   24.6482 N   0  0  0  0  0  0  0  0  0  0  0  0
  -20.1173  -26.8477   23.2512 N   0  3  0  0  0  0  0  0  0  0  0  0
  -26.6960   -9.5655   17.1867 O   0  0  0  0  0  0  0  0  0  0  0  0
  -31.0738  -14.8567   20.2951 O   0  0  0  0  0  0  0  0  0  0  0  0
  -27.1944  -31.4708   22.6330 O   0  0  0  0  0  0  0  0  0  0  0  0
  -30.2320  -24.6227   19.4031 O   0  0  0  0  0  0  0  0  0  0  0  0
  -23.2160  -31.8945   23.6744 O   0  0  0  0  0  0  0  0  0  0  0  0
  -22.8049  -27.1790   24.0149 O   0  0  0  0  0  0  0  0  0  0  0  0
  -21.5156   -7.9347   22.7626 O   0  0  0  0  0  0  0  0  0  0  0  0
  -28.0213  -26.1013   19.7747 O   0  0  0  0  0  0  0  0  0  1  0  0
  -31.4938  -22.3201   20.5431 O   0  0  0  0  0  0  0  0  0  0  0  0
  -22.7195   -2.5931   23.4121 F   0  0  0  0  0  0  0  0  0  0  0  0
  -21.6517   -6.8078   25.2834 F   0  0  0  0  0  0  0  0  0  0  0  0
  1  2  1  0  0  0  0
  1  5  2  0  0  0  0
  2  6  2  0  0  0  0
  3  8  2  0  0  0  0
  3 17  1  0  0  0  0
  4  9  1  0  0  0  0
  4 17  2  0  0  0  0
  5 22  1  0  0  0  0
  6 24  1  0  0  0  0
  7 10  2  0  0  0  0
  7 23  1  0  0  0  0
  8 26  1  0  0  0  0
  9 26  2  0  0  0  0
 10 27  1  0  0  0  0
 11 12  2  0  0  0  0
 11 28  1  0  0  0  0
 12 30  1  0  0  0  0
 13 18  1  0  0  0  0
 13 29  2  0  0  0  0
 14 19  2  0  0  0  0
 14 29  1  0  0  0  0
 15 25  1  0  0  0  0
 15 27  2  0  0  0  0
 16 30  2  0  0  0  0
 16 31  1  0  0  0  0
 17 32  1  0  0  0  0
 18 20  2  0  0  0  0
 18 35  1  0  0  0  0
 19 20  1  0  0  0  0
 19 36  1  0  0  0  0
 20 37  1  0  0  0  0
 21 32  1  0  0  0  0
 21 33  2  0  0  0  0
 21 40  1  0  0  0  0
 22 24  2  0  0  0  0
 22 46  1  0  0  0  0
 23 25  2  0  0  0  0
 23 47  1  0  0  0  0
 24 55  1  0  0  0  0
 25 48  1  0  0  0  0
 26 85  1  0  0  0  0
 27 86  1  0  0  0  0
 28 31  2  0  0  0  0
 28 85  1  0  0  0  0
 29 87  1  0  0  0  0
 30 88  1  0  0  0  0
 31 89  1  0  0  0  0
 32 70  2  0  0  0  0
 33 71  1  0  0  0  0
 33 74  1  0  0  0  0
 34 35  2  0  0  0  0
 36 38  2  0  0  0  0
 37 39  2  0  0  0  0
 38 41  1  0  0  0  0
 39 58  1  0  0  0  0
 40 75  1  0  0  0  0
 40 79  2  0  0  0  0
 41 72  1  0  0  0  0
 41 80  2  0  0  0  0
 42 56  1  0  0  0  0
 42 76  1  0  0  0  0
 42 81  2  0  0  0  0
 43 64  1  0  0  0  0
 43 65  1  0  0  0  0
 43 82  2  0  0  0  0
 44 67  1  0  0  0  0
 44 73  1  0  0  0  0
 44 83  2  0  0  0  0
 45 68  1  0  0  0  0
 45 77  1  0  0  0  0
 45 84  2  0  0  0  0
 46 49  1  0  0  0  0
 47 56  1  0  0  0  0
 48 73  1  0  0  0  0
 49 51  1  0  0  0  0
 50 52  1  0  0  0  0
 50 53  1  0  0  0  0
 51 55  1  0  0  0  0
 52 57  1  0  0  0  0
 53 72  1  0  0  0  0
 54 57  1  0  0  0  0
 54 72  1  0  0  0  0
 55 76  1  0  0  0  0
 56 73  1  0  0  0  0
 57 71  1  0  0  0  0
 59 68  1  0  0  0  0
 60 69  1  0  0  0  0
 61 69  1  0  0  0  0
 62 69  1  0  0  0  0
 63 78  1  0  0  0  0
 64 66  1  0  0  0  0
 65 86  1  0  0  0  0
 66 87  1  0  0  0  0
 67 69  1  0  0  0  0
 67 77  1  0  0  0  0
 68 78  1  0  0  0  0
 70 71  1  0  0  0  0
M  CHG  1  78   1
M  ISO  4  38 100  41 100  65 101  86 101
M  END
> <Batch ID>
0117

> <Smiles>
C=Cc1cc(OCCC(=O)[101CH2:1][101O:1]c2ccc3c(c2)CN(C(=O)C(NC(=O)C(C)NC)C(C)(C)C)C(C(=O)NC2CCCc4ccccc42)C3)cc(C=[100CH:0][100C:0](=O)N2CCCC(n3nc(-c4ccc(Oc5ccc(F)cc5F)cc4)c(C(N)=O)c3N)C2)c1C=CC

> <Shape>
0.285

> <Color>
0.113

> <Negative vol penalty>
0.000

$$$$

  -OEChem-04052301463D

 85 93  0     1  0  0  0  0  0999 V2000
  -30.6591  -35.5233   22.8125 C   0  0  0  0  0  0  0  0  0  0  0  0
  -30.7198  -34.3021   22.1488 C   0  0  0  0  0  0  0  0  0  0  0  0
  -23.1890   -9.2816   20.6581 C   0  0  0  0  0  0  0  0  0  0  0  0
  -23.1285  -10.8748   22.4733 C   0  0  0  0  0  0  0  0  0  0  0  0
  -29.7735  -35.6943   23.8757 C   0  0  0  0  0  0  0  0  0  0  0  0
  -29.8956  -33.2508   22.5488 C   0  0  0  0  0  0  0  0  0  0  0  0
  -27.3400  -29.0032   18.9526 C   0  0  0  0  0  0  0  0  0  0  0  0
  -22.4612   -8.3753   21.4292 C   0  0  0  0  0  0  0  0  0  0  0  0
  -22.4006   -9.9686   23.2444 C   0  0  0  0  0  0  0  0  0  0  0  0
  -27.7019  -27.6920   18.6468 C   0  0  0  0  0  0  0  0  0  0  0  0
  -20.9281   -5.5049   23.0522 C   0  0  0  0  0  0  0  0  0  0  0  0
  -21.3542   -4.1769   23.0695 C   0  0  0  0  0  0  0  0  0  0  0  0
  -28.8846  -17.3963   22.0465 C   0  0  0  0  0  0  0  0  0  0  0  0
  -26.2024  -26.8859   20.3560 C   0  0  0  0  0  0  0  0  0  0  0  0
  -29.1624  -19.7573   22.4772 C   0  0  0  0  0  0  0  0  0  0  0  0
  -23.4867   -4.8729   23.9669 C   0  0  0  0  0  0  0  0  0  0  0  0
  -23.5227  -10.5313   21.1802 C   0  0  0  0  0  0  0  0  0  0  0  0
  -29.0265  -17.6291   20.6786 C   0  0  0  0  0  0  0  0  0  0  0  0
  -23.7624  -12.4446   19.5100 C   0  0  0  0  0  0  0  0  0  0  0  0
  -28.9312  -34.6476   24.2826 C   0  0  0  0  0  0  0  0  0  0  0  0
  -26.4132  -29.2666   19.9715 C   0  0  0  0  0  0  0  0  0  0  0  0
  -28.9989  -33.4075   23.6193 C   0  0  0  0  0  0  0  0  0  0  0  0
  -25.8286  -28.2013   20.6710 C   0  0  0  0  0  0  0  0  0  0  0  0
  -29.2365  -18.9260   20.2100 C   0  0  0  0  0  0  0  0  0  0  0  0
  -22.0669   -8.7189   22.7223 C   0  0  0  0  0  0  0  0  0  0  0  0
  -27.1353  -26.6332   19.3505 C   0  0  0  0  0  0  0  0  0  0  0  0
  -21.7813   -6.5170   23.4921 C   0  0  0  0  0  0  0  0  0  0  0  0
  -29.3044  -19.9902   21.1093 C   0  0  0  0  0  0  0  0  0  0  0  0
  -22.6335   -3.8609   23.5269 C   0  0  0  0  0  0  0  0  0  0  0  0
  -28.9525  -18.4604   22.9459 C   0  0  0  0  0  0  0  0  0  0  0  0
  -23.0606   -6.2010   23.9495 C   0  0  0  0  0  0  0  0  0  0  0  0
  -24.2751  -11.4676   20.3843 C   0  0  0  0  0  0  0  0  0  0  0  0
  -24.8754  -13.0680   19.0011 C   0  0  0  0  0  0  0  0  0  0  0  0
  -28.9509  -16.4981   19.7633 C   0  0  0  0  0  0  0  0  0  0  0  0
  -22.4017  -12.7604   19.1868 C   0  0  0  0  0  0  0  0  0  0  0  0
  -29.9025  -15.3672   19.8577 C   0  0  0  0  0  0  0  0  0  0  0  0
  -26.5057  -30.8263   22.7396 C   0  0  0  0  0  0  0  0  0  0  0  0
  -28.4701  -23.3105   19.9062 C   0  0  0  0  0  0  0  0  0  0  0  0
  -23.3214  -30.2078   22.7486 C   0  0  0  0  0  0  0  0  0  0  0  0
  -20.7470  -28.2509   21.6576 C   0  0  0  0  0  0  0  0  0  0  0  0
  -28.0239  -34.8649   25.4677 C   0  0  0  0  0  0  0  0  0  0  0  0
  -26.0134  -30.6853   20.2711 C   0  0  0  0  0  0  0  0  0  0  0  0
  -24.8136  -28.4297   21.7601 C   0  0  0  0  0  0  0  0  0  0  0  0
  -26.9181  -33.8194   25.5879 C   0  0  0  0  0  0  0  0  0  0  0  0
  -29.7649  -11.8334   19.2659 C   0  0  0  0  0  0  0  0  0  0  0  0
  -27.4875  -32.4164   25.4022 C   0  0  0  0  0  0  0  0  0  0  0  0
  -28.2880  -11.4983   19.4712 C   0  0  0  0  0  0  0  0  0  0  0  0
  -30.2196  -12.9486   20.2019 C   0  0  0  0  0  0  0  0  0  0  0  0
  -27.9172  -13.8635   20.3041 C   0  0  0  0  0  0  0  0  0  0  0  0
  -28.1034  -32.2511   24.0077 C   0  0  1  0  0  0  0  0  0  0  0  0
  -25.4452  -30.8620   21.6758 C   0  0  1  0  0  0  0  0  0  0  0  0
  -27.4144  -12.7602   19.3568 C   0  0  2  0  0  0  0  0  0  0  0  0
  -29.3891  -19.1849   18.7446 C   0  0  0  0  0  0  0  0  0  0  0  0
  -18.2622  -27.9687   21.8653 C   0  0  0  0  0  0  0  0  0  0  0  0
  -23.6946  -28.9804   25.5171 C   0  0  0  0  0  0  0  0  0  0  0  0
  -21.4530  -27.8951   25.2616 C   0  0  0  0  0  0  0  0  0  0  0  0
  -21.6391  -30.3826   25.2661 C   0  0  0  0  0  0  0  0  0  0  0  0
  -20.3378  -28.6939   18.7602 C   0  0  0  0  0  0  0  0  0  0  0  0
  -27.4437  -24.4042   20.1199 C   0  0  0  0  0  0  0  0  0  1  0  0
  -28.5114  -22.2276   20.9647 C   0  0  0  0  0  0  0  0  0  0  0  0
  -22.4523  -29.0825   23.2560 C   0  0  1  0  0  0  0  0  0  0  0  0
  -19.3924  -28.6038   21.0703 C   0  0  2  0  0  0  0  0  0  0  0  0
  -22.3303  -29.0806   24.8060 C   0  0  0  0  0  0  0  0  0  0  0  0
  -25.6100  -11.4665   20.4306 N   0  0  0  0  0  0  0  0  0  0  0  0
  -28.0574  -16.4032   18.8178 N   0  0  0  0  0  0  0  0  0  0  0  0
  -25.9455  -12.4504   19.5788 N   0  0  0  0  0  0  0  0  0  0  0  0
  -29.3482  -14.1170   20.0945 N   0  0  0  0  0  0  0  0  0  0  0  0
  -24.4600  -29.8349   22.0203 N   0  0  0  0  0  0  0  0  0  0  0  0
  -25.0334  -14.0787   18.1202 N   0  0  0  0  0  0  0  0  0  0  0  0
  -21.3806  -12.0218   19.8000 N   0  0  0  0  0  0  0  0  0  0  0  0
  -27.0664  -32.0585   23.0168 N   0  0  0  0  0  0  0  0  0  0  0  0
  -21.1779  -29.2037   22.5565 N   0  0  0  0  0  0  0  0  0  0  0  0
  -19.2996  -28.1296   19.6605 N   0  3  0  0  0  0  0  0  0  0  0  0
  -22.1007  -13.6597   18.3657 O   0  0  0  0  0  0  0  0  0  0  0  0
  -31.0830  -15.6582   19.7165 O   0  0  0  0  0  0  0  0  0  0  0  0
  -26.7929  -29.7599   23.2708 O   0  0  0  0  0  0  0  0  0  0  0  0
  -29.2234  -23.3028   18.9338 O   0  0  0  0  0  0  0  0  0  0  0  0
  -22.9980  -31.3747   22.9835 O   0  0  0  0  0  0  0  0  0  0  0  0
  -21.3599  -27.2302   21.3526 O   0  0  0  0  0  0  0  0  0  0  0  0
  -21.3565   -7.8349   23.4750 O   0  0  0  0  0  0  0  0  0  0  0  0
  -27.4872  -25.3525   19.0545 O   0  0  0  0  0  0  0  0  0  1  0  0
  -29.5106  -21.2754   20.6669 O   0  0  0  0  0  0  0  0  0  0  0  0
  -23.0420   -2.5853   23.5450 F   0  0  0  0  0  0  0  0  0  0  0  0
  -28.8164  -18.2368   24.2595 F   0  0  0  0  0  0  0  0  0  0  0  0
  -23.8843   -7.1688   24.3745 F   0  0  0  0  0  0  0  0  0  0  0  0
  1  2  1  0  0  0  0
  1  5  2  0  0  0  0
  2  6  2  0  0  0  0
  3  8  2  0  0  0  0
  3 17  1  0  0  0  0
  4  9  1  0  0  0  0
  4 17  2  0  0  0  0
  5 20  1  0  0  0  0
  6 22  1  0  0  0  0
  7 10  2  0  0  0  0
  7 21  1  0  0  0  0
  8 25  1  0  0  0  0
  9 25  2  0  0  0  0
 10 26  1  0  0  0  0
 11 12  2  0  0  0  0
 11 27  1  0  0  0  0
 12 29  1  0  0  0  0
 13 18  2  0  0  0  0
 13 30  1  0  0  0  0
 14 23  1  0  0  0  0
 14 26  2  0  0  0  0
 15 28  1  0  0  0  0
 15 30  2  0  0  0  0
 16 29  2  0  0  0  0
 16 31  1  0  0  0  0
 17 32  1  0  0  0  0
 18 24  1  0  0  0  0
 18 34  1  0  0  0  0
 19 32  1  0  0  0  0
 19 33  2  0  0  0  0
 19 35  1  0  0  0  0
 20 22  2  0  0  0  0
 20 41  1  0  0  0  0
 21 23  2  0  0  0  0
 21 42  1  0  0  0  0
 22 50  1  0  0  0  0
 23 43  1  0  0  0  0
 24 28  2  0  0  0  0
 24 53  1  0  0  0  0
 25 80  1  0  0  0  0
 26 81  1  0  0  0  0
 27 31  2  0  0  0  0
 27 80  1  0  0  0  0
 28 82  1  0  0  0  0
 29 83  1  0  0  0  0
 30 84  1  0  0  0  0
 31 85  1  0  0  0  0
 32 64  2  0  0  0  0
 33 66  1  0  0  0  0
 33 69  1  0  0  0  0
 34 36  1  0  0  0  0
 34 65  2  0  0  0  0
 35 70  1  0  0  0  0
 35 74  2  0  0  0  0
 36 67  1  0  0  0  0
 36 75  2  0  0  0  0
 37 51  1  0  0  0  0
 37 71  1  0  0  0  0
 37 76  2  0  0  0  0
 38 59  1  0  0  0  0
 38 60  1  0  0  0  0
 38 77  2  0  0  0  0
 39 61  1  0  0  0  0
 39 68  1  0  0  0  0
 39 78  2  0  0  0  0
 40 62  1  0  0  0  0
 40 72  1  0  0  0  0
 40 79  2  0  0  0  0
 41 44  1  0  0  0  0
 42 51  1  0  0  0  0
 43 68  1  0  0  0  0
 44 46  1  0  0  0  0
 45 47  1  0  0  0  0
 45 48  1  0  0  0  0
 46 50  1  0  0  0  0
 47 52  1  0  0  0  0
 48 67  1  0  0  0  0
 49 52  1  0  0  0  0
 49 67  1  0  0  0  0
 50 71  1  0  0  0  0
 51 68  1  0  0  0  0
 52 66  1  0  0  0  0
 54 62  1  0  0  0  0
 55 63  1  0  0  0  0
 56 63  1  0  0  0  0
 57 63  1  0  0  0  0
 58 73  1  0  0  0  0
 59 81  1  0  0  0  0
 60 82  1  0  0  0  0
 61 63  1  0  0  0  0
 61 72  1  0  0  0  0
 62 73  1  0  0  0  0
 64 66  1  0  0  0  0
M  CHG  1  73   1
M  ISO  4  34 100  36 100  59 101  81 101
M  END
> <Batch ID>
0117

> <Smiles>
CNC(C)C(=O)NC(C(=O)N1Cc2cc([101O:1][101CH2:1]C(=O)COc3cc(F)cc([100C:0](=N)[100C:0](=O)N4CCCC(n5nc(-c6ccc(Oc7ccc(F)cc7F)cc6)c(C(N)=O)c5N)C4)c3C)ccc2CC1C(=O)NC1CCCc2ccccc21)C(C)(C)C

> <Shape>
0.328

> <Color>
0.132

> <Negative vol penalty>
0.000

$$$$

  -OEChem-04052301463D

 83 91  0     1  0  0  0  0  0999 V2000
  -27.6640  -20.2082   25.4945 C   0  0  0  0  0  0  0  0  0  0  0  0
  -21.6215  -21.4756   34.3836 C   0  0  0  0  0  0  0  0  0  0  0  0
  -22.3736  -21.2664   33.2320 C   0  0  0  0  0  0  0  0  0  0  0  0
  -23.0766   -9.8655   19.9458 C   0  0  0  0  0  0  0  0  0  0  0  0
  -23.8295   -9.8835   22.2414 C   0  0  0  0  0  0  0  0  0  0  0  0
  -20.6740  -22.4977   34.4199 C   0  0  0  0  0  0  0  0  0  0  0  0
  -22.1776  -22.0786   32.1156 C   0  0  0  0  0  0  0  0  0  0  0  0
  -26.5349  -23.6031   30.0335 C   0  0  0  0  0  0  0  0  0  0  0  0
  -22.3320   -8.7135   20.1990 C   0  0  0  0  0  0  0  0  0  0  0  0
  -23.0848   -8.7316   22.4946 C   0  0  0  0  0  0  0  0  0  0  0  0
  -27.2156  -22.6839   29.2363 C   0  0  0  0  0  0  0  0  0  0  0  0
  -19.3793   -7.9239   21.6450 C   0  0  0  0  0  0  0  0  0  0  0  0
  -18.0739   -7.8753   21.1559 C   0  0  0  0  0  0  0  0  0  0  0  0
  -26.3279  -23.7481   27.2618 C   0  0  0  0  0  0  0  0  0  0  0  0
  -32.0557  -16.6197   22.5497 C   0  0  0  0  0  0  0  0  0  0  0  0
  -29.8696  -17.4701   23.1284 C   0  0  0  0  0  0  0  0  0  0  0  0
  -18.6377   -5.9259   19.8448 C   0  0  0  0  0  0  0  0  0  0  0  0
  -23.8254  -10.4505   20.9670 C   0  0  0  0  0  0  0  0  0  0  0  0
  -24.1676  -12.9750   20.8358 C   0  0  0  0  0  0  0  0  0  0  0  0
  -20.4731  -23.3290   33.3067 C   0  0  0  0  0  0  0  0  0  0  0  0
  -25.7356  -24.5967   29.4501 C   0  0  0  0  0  0  0  0  0  0  0  0
  -21.2255  -23.1120   32.1366 C   0  0  0  0  0  0  0  0  0  0  0  0
  -25.6402  -24.6803   28.0537 C   0  0  0  0  0  0  0  0  0  0  0  0
  -32.6402  -17.5077   23.4527 C   0  0  0  0  0  0  0  0  0  0  0  0
  -30.6704  -16.6009   22.3875 C   0  0  0  0  0  0  0  0  0  0  0  0
  -30.4541  -18.3581   24.0315 C   0  0  0  0  0  0  0  0  0  0  0  0
  -22.3360   -8.1466   21.4734 C   0  0  0  0  0  0  0  0  0  0  0  0
  -27.1099  -22.7545   27.8503 C   0  0  0  0  0  0  0  0  0  0  0  0
  -20.3140   -6.9735   21.2339 C   0  0  0  0  0  0  0  0  0  0  0  0
  -31.8394  -18.3769   24.1936 C   0  0  0  0  0  0  0  0  0  0  0  0
  -17.7031   -6.8763   20.2558 C   0  0  0  0  0  0  0  0  0  0  0  0
  -19.9431   -5.9745   20.3338 C   0  0  0  0  0  0  0  0  0  0  0  0
  -24.5953  -11.6401   20.7059 C   0  0  0  0  0  0  0  0  0  0  0  0
  -25.2609  -13.7228   20.4723 C   0  0  0  0  0  0  0  0  0  0  0  0
  -28.2872  -19.3510   24.7471 C   0  0  0  0  0  0  0  0  0  0  0  0
  -27.0370  -21.0617   26.2379 C   0  0  0  0  0  0  0  0  0  1  0  0
  -22.8958  -13.4928   21.2484 C   0  0  0  0  0  0  0  0  0  0  0  0
  -22.6449  -25.3331   29.5472 C   0  0  0  0  0  0  0  0  0  0  0  0
  -23.6043  -27.9101   27.8264 C   0  0  0  0  0  0  0  0  0  0  0  0
  -25.9105  -29.2971   25.7278 C   0  0  0  0  0  0  0  0  0  0  0  0
  -30.7265  -14.7693   20.6589 C   0  0  0  0  0  0  0  0  0  0  0  0
  -19.4041  -24.3906   33.3769 C   0  0  0  0  0  0  0  0  0  0  0  0
  -25.0291  -25.5972   30.3231 C   0  0  0  0  0  0  0  0  0  0  0  0
  -24.8112  -25.7405   27.3775 C   0  0  0  0  0  0  0  0  0  0  0  0
  -19.5211  -25.4463   32.2804 C   0  0  0  0  0  0  0  0  0  0  0  0
  -29.6194  -12.3441   18.2988 C   0  0  0  0  0  0  0  0  0  0  0  0
  -19.7495  -24.7850   30.9249 C   0  0  0  0  0  0  0  0  0  0  0  0
  -28.1784  -12.0545   18.7253 C   0  0  0  0  0  0  0  0  0  0  0  0
  -30.5308  -12.5787   19.5022 C   0  0  0  0  0  0  0  0  0  0  0  0
  -28.6196  -13.3097   20.8740 C   0  0  0  0  0  0  0  0  0  0  0  0
  -21.0595  -23.9879   30.9137 C   0  0  1  0  0  0  0  0  0  0  0  0
  -23.8325  -26.2492   29.6371 C   0  0  1  0  0  0  0  0  0  0  0  0
  -27.6504  -13.1308   19.6941 C   0  0  2  0  0  0  0  0  0  0  0  0
  -34.1250  -17.5134   23.6115 C   0  0  0  0  0  0  0  0  0  0  0  0
  -26.4040  -31.4062   24.4606 C   0  0  0  0  0  0  0  0  0  0  0  0
  -21.4892  -27.1601   25.7591 C   0  0  0  0  0  0  0  0  0  0  0  0
  -22.6425  -28.6740   24.1324 C   0  0  0  0  0  0  0  0  0  0  0  0
  -21.6664  -29.6101   26.2285 C   0  0  0  0  0  0  0  0  0  0  0  0
  -28.4427  -29.7258   27.1986 C   0  0  0  0  0  0  0  0  0  0  0  0
  -23.7696  -28.2129   26.3567 C   0  0  1  0  0  0  0  0  0  0  0  0
  -26.6196  -30.6390   25.7559 C   0  0  2  0  0  0  0  0  0  0  0  0
  -22.4061  -28.3930   25.6317 C   0  0  0  0  0  0  0  0  0  0  0  0
  -25.8614  -11.5423   20.2920 N   0  0  0  0  0  0  0  0  0  0  0  0
  -26.2387  -12.8252   20.1586 N   0  0  0  0  0  0  0  0  0  0  0  0
  -24.1344  -26.6919   28.2744 N   0  0  0  0  0  0  0  0  0  0  0  0
  -29.9691  -13.6137   20.3728 N   0  0  0  0  0  0  0  0  0  0  0  0
  -25.4715  -15.0539   20.3936 N   0  0  0  0  0  0  0  0  0  0  0  0
  -21.8829  -12.5853   21.5869 N   0  0  0  0  0  0  0  0  0  0  0  0
  -29.6328  -19.2294   24.7725 N   0  0  0  0  0  0  0  0  0  0  0  0
  -30.0766  -15.6982   21.4708 N   0  0  0  0  0  0  0  0  0  0  0  0
  -22.1915  -24.8780   30.7706 N   0  0  0  0  0  0  0  0  0  0  0  0
  -24.6476  -29.3752   26.2757 N   0  0  0  0  0  0  0  0  0  0  0  0
  -28.0847  -30.4467   25.9500 N   0  3  0  0  0  0  0  0  0  0  0  0
  -22.6594  -14.7237   21.2991 O   0  0  0  0  0  0  0  0  0  0  0  0
  -22.1739  -25.0606   28.4492 O   0  0  0  0  0  0  0  0  0  0  0  0
  -23.0322  -28.7277   28.5516 O   0  0  0  0  0  0  0  0  0  0  0  0
  -26.4240  -28.2820   25.2626 O   0  0  0  0  0  0  0  0  0  0  0  0
  -31.8570  -14.9358   20.1939 O   0  0  0  0  0  0  0  0  0  0  0  0
  -32.4142  -19.2445   25.0762 O   0  0  0  0  0  0  0  0  0  0  0  0
  -21.6093   -7.0227   21.7209 O   0  0  0  0  0  0  0  0  0  0  0  0
  -27.7727  -21.8581   27.0699 O   0  0  0  0  0  0  0  0  0  1  0  0
  -16.4491   -6.8288   19.7875 F   0  0  0  0  0  0  0  0  0  0  0  0
  -20.8363   -5.0581   19.9361 F   0  0  0  0  0  0  0  0  0  0  0  0
  1 35  2  0  0  0  0
  1 36  2  0  0  0  0
  2  3  1  0  0  0  0
  2  6  2  0  0  0  0
  3  7  2  0  0  0  0
  4  9  2  0  0  0  0
  4 18  1  0  0  0  0
  5 10  1  0  0  0  0
  5 18  2  0  0  0  0
  6 20  1  0  0  0  0
  7 22  1  0  0  0  0
  8 11  2  0  0  0  0
  8 21  1  0  0  0  0
  9 27  1  0  0  0  0
 10 27  2  0  0  0  0
 11 28  1  0  0  0  0
 12 13  2  0  0  0  0
 12 29  1  0  0  0  0
 13 31  1  0  0  0  0
 14 23  1  0  0  0  0
 14 28  2  0  0  0  0
 15 24  2  0  0  0  0
 15 25  1  0  0  0  0
 16 25  2  0  0  0  0
 16 26  1  0  0  0  0
 17 31  2  0  0  0  0
 17 32  1  0  0  0  0
 18 33  1  0  0  0  0
 19 33  1  0  0  0  0
 19 34  2  0  0  0  0
 19 37  1  0  0  0  0
 20 22  2  0  0  0  0
 20 42  1  0  0  0  0
 21 23  2  0  0  0  0
 21 43  1  0  0  0  0
 22 51  1  0  0  0  0
 23 44  1  0  0  0  0
 24 30  1  0  0  0  0
 24 54  1  0  0  0  0
 25 70  1  0  0  0  0
 26 30  2  0  0  0  0
 26 69  1  0  0  0  0
 27 80  1  0  0  0  0
 28 81  1  0  0  0  0
 29 32  2  0  0  0  0
 29 80  1  0  0  0  0
 30 79  1  0  0  0  0
 31 82  1  0  0  0  0
 32 83  1  0  0  0  0
 33 63  2  0  0  0  0
 34 64  1  0  0  0  0
 34 67  1  0  0  0  0
 35 69  1  0  0  0  0
 36 81  1  0  0  0  0
 37 68  1  0  0  0  0
 37 74  2  0  0  0  0
 38 52  1  0  0  0  0
 38 71  1  0  0  0  0
 38 75  2  0  0  0  0
 39 60  1  0  0  0  0
 39 65  1  0  0  0  0
 39 76  2  0  0  0  0
 40 61  1  0  0  0  0
 40 72  1  0  0  0  0
 40 77  2  0  0  0  0
 41 66  1  0  0  0  0
 41 70  1  0  0  0  0
 41 78  2  0  0  0  0
 42 45  1  0  0  0  0
 43 52  1  0  0  0  0
 44 65  1  0  0  0  0
 45 47  1  0  0  0  0
 46 48  1  0  0  0  0
 46 49  1  0  0  0  0
 47 51  1  0  0  0  0
 48 53  1  0  0  0  0
 49 66  1  0  0  0  0
 50 53  1  0  0  0  0
 50 66  1  0  0  0  0
 51 71  1  0  0  0  0
 52 65  1  0  0  0  0
 53 64  1  0  0  0  0
 55 61  1  0  0  0  0
 56 62  1  0  0  0  0
 57 62  1  0  0  0  0
 58 62  1  0  0  0  0
 59 73  1  0  0  0  0
 60 62  1  0  0  0  0
 60 72  1  0  0  0  0
 61 73  1  0  0  0  0
 63 64  1  0  0  0  0
M  CHG  1  73   1
M  ISO  4  36 101  41 100  70 100  81 101
M  END
> <Batch ID>
0117

> <Smiles>
CNC(C)C(=O)NC(C(=O)N1Cc2cc([101O:1][101CH:1]=C=CNc3cc([100NH:0][100C:0](=O)N4CCCC(n5nc(-c6ccc(Oc7ccc(F)cc7F)cc6)c(C(N)=O)c5N)C4)cc(C)c3O)ccc2CC1C(=O)NC1CCCc2ccccc21)C(C)(C)C

> <Shape>
0.179

> <Color>
0.187

> <Negative vol penalty>
0.000

$$$$

  -OEChem-04052301463D

 82 90  0     1  0  0  0  0  0999 V2000
  -17.4773  -24.4952   24.0496 C   0  0  0  0  0  0  0  0  0  0  0  0
  -18.5076  -23.8532   23.3701 C   0  0  0  0  0  0  0  0  0  0  0  0
  -23.4017  -12.6295   19.1634 C   0  0  0  0  0  0  0  0  0  0  0  0
  -25.1282  -11.9907   20.7280 C   0  0  0  0  0  0  0  0  0  0  0  0
  -17.3765  -25.8852   24.0084 C   0  0  0  0  0  0  0  0  0  0  0  0
  -19.4371  -24.6008   22.6480 C   0  0  0  0  0  0  0  0  0  0  0  0
  -25.3920  -23.3663   21.9259 C   0  0  0  0  0  0  0  0  0  0  0  0
  -23.2017  -11.2884   18.8364 C   0  0  0  0  0  0  0  0  0  0  0  0
  -24.9282  -10.6495   20.4011 C   0  0  0  0  0  0  0  0  0  0  0  0
  -26.1059  -22.7616   20.8923 C   0  0  0  0  0  0  0  0  0  0  0  0
  -22.7178   -8.2067   21.1545 C   0  0  0  0  0  0  0  0  0  0  0  0
  -22.6503   -7.2889   22.2026 C   0  0  0  0  0  0  0  0  0  0  0  0
  -26.6341  -24.9367   19.9928 C   0  0  0  0  0  0  0  0  0  0  0  0
  -24.5546   -6.1117   21.2944 C   0  0  0  0  0  0  0  0  0  0  0  0
  -24.3650  -12.9807   20.1091 C   0  0  0  0  0  0  0  0  0  0  0  0
  -23.9266  -15.1000   21.4596 C   0  0  0  0  0  0  0  0  0  0  0  0
  -18.3109  -26.6509   23.2933 C   0  0  0  0  0  0  0  0  0  0  0  0
  -25.2844  -24.7628   21.9947 C   0  0  0  0  0  0  0  0  0  0  0  0
  -19.3479  -26.0023   22.5960 C   0  0  0  0  0  0  0  0  0  0  0  0
  -25.9204  -25.5567   21.0297 C   0  0  0  0  0  0  0  0  0  0  0  0
  -23.9649  -10.2983   19.4553 C   0  0  0  0  0  0  0  0  0  0  0  0
  -26.7247  -23.5467   19.9239 C   0  0  0  0  0  0  0  0  0  0  0  0
  -23.7036   -8.0770   20.1762 C   0  0  0  0  0  0  0  0  0  0  0  0
  -23.5687   -6.2414   22.2726 C   0  0  0  0  0  0  0  0  0  0  0  0
  -24.6220   -7.0295   20.2462 C   0  0  0  0  0  0  0  0  0  0  0  0
  -24.5725  -14.3660   20.4468 C   0  0  0  0  0  0  0  0  0  0  0  0
  -24.4717  -16.3577   21.3730 C   0  0  0  0  0  0  0  0  0  0  0  0
  -31.6166  -19.7341   19.3019 C   0  0  0  0  0  0  0  0  0  0  0  0
  -33.4479  -20.9002   19.4344 C   0  0  0  0  0  0  0  0  0  0  0  0
  -30.7866  -22.6360   18.2569 C   0  0  0  0  0  0  0  0  0  0  0  0
  -29.5193  -22.7216   17.8264 C   0  0  0  0  0  0  0  0  0  0  0  0
  -22.9236  -14.6823   22.3951 C   0  0  0  0  0  0  0  0  0  0  0  0
  -22.8768  -26.8352   21.8844 C   0  0  0  0  0  0  0  0  0  0  0  0
  -25.2078  -28.9842   22.5702 C   0  0  0  0  0  0  0  0  0  0  0  0
  -28.5237  -29.7872   22.4871 C   0  0  0  0  0  0  0  0  0  0  0  0
  -29.6915  -18.2553   19.3850 C   0  0  0  0  0  0  0  0  0  0  0  0
  -18.1333  -28.1476   23.2389 C   0  0  0  0  0  0  0  0  0  0  0  0
  -24.5331  -25.4004   23.1311 C   0  0  0  0  0  0  0  0  0  0  0  0
  -25.8520  -27.0608   21.0700 C   0  0  0  0  0  0  0  0  0  0  0  0
  -19.3771  -28.8915   22.7593 C   0  0  0  0  0  0  0  0  0  0  0  0
  -26.4539  -19.3717   18.2250 C   0  0  0  0  0  0  0  0  0  0  0  0
  -19.9557  -28.2192   21.5183 C   0  0  0  0  0  0  0  0  0  0  0  0
  -25.5398  -18.2731   18.7715 C   0  0  0  0  0  0  0  0  0  0  0  0
  -27.7846  -18.7965   17.7494 C   0  0  0  0  0  0  0  0  0  0  0  0
  -27.6092  -16.9120   19.3261 C   0  0  0  0  0  0  0  0  0  0  0  0
  -20.3900  -26.7803   21.8222 C   0  0  1  0  0  0  0  0  0  0  0  0
  -24.0573  -26.8148   22.8137 C   0  0  1  0  0  0  0  0  0  0  0  0
  -26.2549  -17.4298   19.8440 C   0  0  2  0  0  0  0  0  0  0  0  0
  -30.1203  -31.6281   23.0864 C   0  0  0  0  0  0  0  0  0  0  0  0
  -24.2854  -30.5738   20.1346 C   0  0  0  0  0  0  0  0  0  0  0  0
  -26.4478  -31.8326   20.2242 C   0  0  0  0  0  0  0  0  0  0  0  0
  -24.8498  -31.9643   22.1352 C   0  0  0  0  0  0  0  0  0  0  0  0
  -34.4587  -19.5011   21.3050 C   0  0  0  0  0  0  0  0  0  0  0  0
  -30.0014  -28.0493   24.3726 C   0  0  0  0  0  0  0  0  0  0  0  0
  -31.7869  -21.6768   17.6999 C   0  0  0  0  0  0  0  0  0  0  0  0
  -28.5214  -23.6898   18.3724 C   0  0  0  0  0  0  0  0  0  1  0  0
  -26.1539  -29.8320   21.7547 C   0  0  1  0  0  0  0  0  0  0  0  0
  -29.4524  -30.3434   23.5513 C   0  0  2  0  0  0  0  0  0  0  0  0
  -25.4341  -31.0223   21.0600 C   0  0  0  0  0  0  0  0  0  0  0  0
  -25.4600  -15.0965   19.7666 N   0  0  0  0  0  0  0  0  0  0  0  0
  -32.2705  -19.1283   20.2477 N   0  0  0  0  0  0  0  0  0  0  0  0
  -25.3755  -16.3028   20.3530 N   0  0  0  0  0  0  0  0  0  0  0  0
  -32.2382  -20.8085   18.7501 N   0  0  0  0  0  0  0  0  0  0  0  0
  -33.4341  -19.8426   20.3562 N   0  0  0  0  0  0  0  0  0  0  0  0
  -25.1004  -27.6370   22.1972 N   0  0  0  0  0  0  0  0  0  0  0  0
  -28.4221  -18.0258   18.8263 N   0  0  0  0  0  0  0  0  0  0  0  0
  -24.2612  -17.4942   22.0704 N   0  0  0  0  0  0  0  0  0  0  0  0
  -22.4757  -13.3552   22.3463 N   0  0  0  0  0  0  0  0  0  0  0  0
  -30.3892  -19.3475   18.8658 N   0  0  0  0  0  0  0  0  0  0  0  0
  -21.6545  -26.7719   22.5260 N   0  0  0  0  0  0  0  0  0  0  0  0
  -27.2286  -30.2286   22.6580 N   0  0  0  0  0  0  0  0  0  0  0  0
  -30.5162  -29.3527   23.8796 N   0  3  0  0  0  0  0  0  0  0  0  0
  -34.3369  -21.7239   19.2714 O   0  0  0  0  0  0  0  0  0  0  0  0
  -22.4271  -15.4672   23.2383 O   0  0  0  0  0  0  0  0  0  0  0  0
  -23.0611  -26.9047   20.6749 O   0  0  0  0  0  0  0  0  0  0  0  0
  -24.5923  -29.4967   23.5084 O   0  0  0  0  0  0  0  0  0  0  0  0
  -28.9093  -29.0392   21.5914 O   0  0  0  0  0  0  0  0  0  0  0  0
  -30.1574  -17.5580   20.2926 O   0  0  0  0  0  0  0  0  0  0  0  0
  -23.7698   -8.9895   19.1367 O   0  0  0  0  0  0  0  0  0  0  0  0
  -27.4217  -22.9591   18.9136 O   0  0  0  0  0  0  0  0  0  1  0  0
  -23.5048   -5.3610   23.2800 F   0  0  0  0  0  0  0  0  0  0  0  0
  -25.5721   -6.9005   19.3100 F   0  0  0  0  0  0  0  0  0  0  0  0
  1  2  1  0  0  0  0
  1  5  2  0  0  0  0
  2  6  2  0  0  0  0
  3  8  2  0  0  0  0
  3 15  1  0  0  0  0
  4  9  1  0  0  0  0
  4 15  2  0  0  0  0
  5 17  1  0  0  0  0
  6 19  1  0  0  0  0
  7 10  2  0  0  0  0
  7 18  1  0  0  0  0
  8 21  1  0  0  0  0
  9 21  2  0  0  0  0
 10 22  1  0  0  0  0
 11 12  2  0  0  0  0
 11 23  1  0  0  0  0
 12 24  1  0  0  0  0
 13 20  1  0  0  0  0
 13 22  2  0  0  0  0
 14 24  2  0  0  0  0
 14 25  1  0  0  0  0
 15 26  1  0  0  0  0
 16 26  1  0  0  0  0
 16 27  2  0  0  0  0
 16 32  1  0  0  0  0
 17 19  2  0  0  0  0
 17 37  1  0  0  0  0
 18 20  2  0  0  0  0
 18 38  1  0  0  0  0
 19 46  1  0  0  0  0
 20 39  1  0  0  0  0
 21 79  1  0  0  0  0
 22 80  1  0  0  0  0
 23 25  2  0  0  0  0
 23 79  1  0  0  0  0
 24 81  1  0  0  0  0
 25 82  1  0  0  0  0
 26 60  2  0  0  0  0
 27 62  1  0  0  0  0
 27 67  1  0  0  0  0
 28 61  2  0  0  0  0
 28 63  1  0  0  0  0
 28 69  1  0  0  0  0
 29 63  1  0  0  0  0
 29 64  1  0  0  0  0
 29 73  2  0  0  0  0
 30 31  2  0  0  0  0
 30 55  1  0  0  0  0
 31 56  1  0  0  0  0
 32 68  1  0  0  0  0
 32 74  2  0  0  0  0
 33 47  1  0  0  0  0
 33 70  1  0  0  0  0
 33 75  2  0  0  0  0
 34 57  1  0  0  0  0
 34 65  1  0  0  0  0
 34 76  2  0  0  0  0
 35 58  1  0  0  0  0
 35 71  1  0  0  0  0
 35 77  2  0  0  0  0
 36 66  1  0  0  0  0
 36 69  1  0  0  0  0
 36 78  2  0  0  0  0
 37 40  1  0  0  0  0
 38 47  1  0  0  0  0
 39 65  1  0  0  0  0
 40 42  1  0  0  0  0
 41 43  1  0  0  0  0
 41 44  1  0  0  0  0
 42 46  1  0  0  0  0
 43 48  1  0  0  0  0
 44 66  1  0  0  0  0
 45 48  1  0  0  0  0
 45 66  1  0  0  0  0
 46 70  1  0  0  0  0
 47 65  1  0  0  0  0
 48 62  1  0  0  0  0
 49 58  1  0  0  0  0
 50 59  1  0  0  0  0
 51 59  1  0  0  0  0
 52 59  1  0  0  0  0
 53 64  1  0  0  0  0
 54 72  1  0  0  0  0
 55 63  1  0  0  0  0
 56 80  1  0  0  0  0
 57 59  1  0  0  0  0
 57 71  1  0  0  0  0
 58 72  1  0  0  0  0
 60 62  1  0  0  0  0
 61 64  1  0  0  0  0
M  CHG  1  72   1
M  ISO  4  36 100  56 101  69 100  80 101
M  END
> <Batch ID>
0117

> <Smiles>
CNC(C)C(=O)NC(C(=O)N1Cc2cc([101O:1][101CH2:1]C=CCn3c([100NH:0][100C:0](=O)N4CCCC(n5nc(-c6ccc(Oc7ccc(F)cc7F)cc6)c(C(N)=O)c5N)C4)nn(C)c3=O)ccc2CC1C(=O)NC1CCCc2ccccc21)C(C)(C)C

> <Shape>
0.206

> <Color>
0.063

> <Negative vol penalty>
0.000

$$$$

  -OEChem-04052301463D

 82 90  0     1  0  0  0  0  0999 V2000
  -23.8009  -36.6673   16.5844 C   0  0  0  0  0  0  0  0  0  0  0  0
  -24.4810  -35.4581   16.4812 C   0  0  0  0  0  0  0  0  0  0  0  0
  -24.0048   -8.8847   19.9393 C   0  0  0  0  0  0  0  0  0  0  0  0
  -23.0890  -10.3769   21.6042 C   0  0  0  0  0  0  0  0  0  0  0  0
  -28.2624  -20.1773   19.9832 C   0  0  0  0  0  0  0  0  0  0  0  0
  -23.6733  -37.2904   17.8251 C   0  0  0  0  0  0  0  0  0  0  0  0
  -25.0349  -34.8718   17.6187 C   0  0  0  0  0  0  0  0  0  0  0  0
  -25.4814  -28.8848   18.8282 C   0  0  0  0  0  0  0  0  0  0  0  0
  -28.0551  -18.8207   20.2331 C   0  0  0  0  0  0  0  0  0  0  0  0
  -23.1641   -7.8667   20.3892 C   0  0  0  0  0  0  0  0  0  0  0  0
  -22.2482   -9.3589   22.0541 C   0  0  0  0  0  0  0  0  0  0  0  0
  -26.5297  -27.9759   18.6914 C   0  0  0  0  0  0  0  0  0  0  0  0
  -19.9185   -6.9827   20.0463 C   0  0  0  0  0  0  0  0  0  0  0  0
  -19.2440   -6.2276   19.0869 C   0  0  0  0  0  0  0  0  0  0  0  0
  -27.1073  -28.3022   21.0107 C   0  0  0  0  0  0  0  0  0  0  0  0
  -30.3419  -18.6096   20.9835 C   0  0  0  0  0  0  0  0  0  0  0  0
  -20.3258   -4.2266   19.9012 C   0  0  0  0  0  0  0  0  0  0  0  0
  -23.9673  -10.1398   20.5469 C   0  0  0  0  0  0  0  0  0  0  0  0
  -29.5094  -20.7500   20.2334 C   0  0  0  0  0  0  0  0  0  0  0  0
  -24.5610  -12.1413   19.0809 C   0  0  0  0  0  0  0  0  0  0  0  0
  -24.2176  -36.7066   18.9799 C   0  0  0  0  0  0  0  0  0  0  0  0
  -25.2446  -29.5186   20.0565 C   0  0  0  0  0  0  0  0  0  0  0  0
  -24.9156  -35.4883   18.8758 C   0  0  0  0  0  0  0  0  0  0  0  0
  -26.0538  -29.2169   21.1612 C   0  0  0  0  0  0  0  0  0  0  0  0
  -29.0949  -18.0369   20.7333 C   0  0  0  0  0  0  0  0  0  0  0  0
  -22.2858   -8.1038   21.4465 C   0  0  0  0  0  0  0  0  0  0  0  0
  -27.3446  -27.6866   19.7820 C   0  0  0  0  0  0  0  0  0  0  0  0
  -20.7967   -6.3598   20.9331 C   0  0  0  0  0  0  0  0  0  0  0  0
  -19.4476   -4.8496   19.0143 C   0  0  0  0  0  0  0  0  0  0  0  0
  -30.5492  -19.9661   20.7335 C   0  0  0  0  0  0  0  0  0  0  0  0
  -21.0003   -4.9818   20.8606 C   0  0  0  0  0  0  0  0  0  0  0  0
  -24.8360  -11.1917   20.0830 C   0  0  0  0  0  0  0  0  0  0  0  0
  -25.6965  -12.9114   19.0166 C   0  0  0  0  0  0  0  0  0  0  0  0
  -29.7238  -22.1830   19.9674 C   0  0  0  0  0  0  0  0  0  0  0  0
  -28.7818  -23.1342   20.0685 C   0  0  0  0  0  0  0  0  0  0  0  0
  -29.0482  -24.5304   19.8033 C   0  0  0  0  0  0  0  0  0  0  0  0
  -28.1145  -25.4813   19.9024 C   0  0  0  0  0  0  0  0  0  1  0  0
  -23.3842  -12.3122   18.2798 C   0  0  0  0  0  0  0  0  0  0  0  0
  -25.2634  -32.5327   21.0658 C   0  0  0  0  0  0  0  0  0  0  0  0
  -24.1474  -31.2112   23.8101 C   0  0  0  0  0  0  0  0  0  0  0  0
  -23.8923  -28.4521   25.8023 C   0  0  0  0  0  0  0  0  0  0  0  0
  -29.8092  -15.7405   21.4833 C   0  0  0  0  0  0  0  0  0  0  0  0
  -24.0950  -37.4411   20.2914 C   0  0  0  0  0  0  0  0  0  0  0  0
  -24.0932  -30.4765   20.1947 C   0  0  0  0  0  0  0  0  0  0  0  0
  -25.8289  -29.8549   22.5068 C   0  0  0  0  0  0  0  0  0  0  0  0
  -24.3871  -36.5673   21.5085 C   0  0  0  0  0  0  0  0  0  0  0  0
  -30.2605  -12.2299   21.0968 C   0  0  0  0  0  0  0  0  0  0  0  0
  -25.6587  -35.7538   21.2889 C   0  0  0  0  0  0  0  0  0  0  0  0
  -28.8669  -11.7250   20.7162 C   0  0  0  0  0  0  0  0  0  0  0  0
  -30.1932  -13.3678   22.1139 C   0  0  0  0  0  0  0  0  0  0  0  0
  -27.9333  -13.9857   21.3523 C   0  0  0  0  0  0  0  0  0  0  0  0
  -25.5089  -34.8086   20.0908 C   0  0  1  0  0  0  0  0  0  0  0  0
  -24.2624  -31.4505   21.3567 C   0  0  1  0  0  0  0  0  0  0  0  0
  -27.9473  -12.8829   20.2812 C   0  0  2  0  0  0  0  0  0  0  0  0
  -22.9531  -27.6901   28.0011 C   0  0  0  0  0  0  0  0  0  0  0  0
  -26.4222  -32.6272   25.2696 C   0  0  0  0  0  0  0  0  0  0  0  0
  -26.0206  -31.1111   27.2212 C   0  0  0  0  0  0  0  0  0  0  0  0
  -24.2269  -32.6720   26.4668 C   0  0  0  0  0  0  0  0  0  0  0  0
  -22.1410  -26.4565   24.4947 C   0  0  0  0  0  0  0  0  0  0  0  0
  -24.7800  -30.6461   25.0589 C   0  0  1  0  0  0  0  0  0  0  0  0
  -22.7029  -27.8251   26.5072 C   0  0  2  0  0  0  0  0  0  0  0  0
  -25.3681  -31.7534   25.9784 C   0  0  0  0  0  0  0  0  0  0  0  0
  -26.0510  -11.3425   20.6169 N   0  0  0  0  0  0  0  0  0  0  0  0
  -26.5495  -12.3959   19.9477 N   0  0  0  0  0  0  0  0  0  0  0  0
  -24.6944  -30.7895   22.5899 N   0  0  0  0  0  0  0  0  0  0  0  0
  -29.3076  -14.4302   21.6324 N   0  0  0  0  0  0  0  0  0  0  0  0
  -26.0385  -13.9722   18.2551 N   0  0  0  0  0  0  0  0  0  0  0  0
  -22.3097  -11.4338   18.4749 N   0  0  0  0  0  0  0  0  0  0  0  0
  -28.8845  -16.6589   20.9873 N   0  0  0  0  0  0  0  0  0  0  0  0
  -24.7235  -33.6494   20.4567 N   0  0  0  0  0  0  0  0  0  0  0  0
  -23.7595  -29.8204   25.6956 N   0  0  0  0  0  0  0  0  0  0  0  0
  -22.4275  -26.4696   25.9524 N   0  3  0  0  0  0  0  0  0  0  0  0
  -23.2947  -13.2069   17.4051 O   0  0  0  0  0  0  0  0  0  0  0  0
  -26.4382  -32.3674   21.3728 O   0  0  0  0  0  0  0  0  0  0  0  0
  -23.1982  -31.9922   23.9132 O   0  0  0  0  0  0  0  0  0  0  0  0
  -24.8455  -27.7943   25.3912 O   0  0  0  0  0  0  0  0  0  0  0  0
  -30.9810  -16.0209   21.7485 O   0  0  0  0  0  0  0  0  0  0  0  0
  -21.4650   -7.1107   21.8856 O   0  0  0  0  0  0  0  0  0  0  0  0
  -28.3689  -26.8003   19.6510 O   0  0  0  0  0  0  0  0  0  1  0  0
  -18.7987   -4.1244   18.0940 F   0  0  0  0  0  0  0  0  0  0  0  0
  -31.7538  -20.5021   20.9786 F   0  0  0  0  0  0  0  0  0  0  0  0
  -21.8419   -4.3776   21.7106 F   0  0  0  0  0  0  0  0  0  0  0  0
  1  2  1  0  0  0  0
  1  6  2  0  0  0  0
  2  7  2  0  0  0  0
  3 10  2  0  0  0  0
  3 18  1  0  0  0  0
  4 11  1  0  0  0  0
  4 18  2  0  0  0  0
  5  9  2  0  0  0  0
  5 19  1  0  0  0  0
  6 21  1  0  0  0  0
  7 23  1  0  0  0  0
  8 12  2  0  0  0  0
  8 22  1  0  0  0  0
  9 25  1  0  0  0  0
 10 26  1  0  0  0  0
 11 26  2  0  0  0  0
 12 27  1  0  0  0  0
 13 14  2  0  0  0  0
 13 28  1  0  0  0  0
 14 29  1  0  0  0  0
 15 24  1  0  0  0  0
 15 27  2  0  0  0  0
 16 25  2  0  0  0  0
 16 30  1  0  0  0  0
 17 29  2  0  0  0  0
 17 31  1  0  0  0  0
 18 32  1  0  0  0  0
 19 30  2  0  0  0  0
 19 34  1  0  0  0  0
 20 32  1  0  0  0  0
 20 33  2  0  0  0  0
 20 38  1  0  0  0  0
 21 23  2  0  0  0  0
 21 43  1  0  0  0  0
 22 24  2  0  0  0  0
 22 44  1  0  0  0  0
 23 52  1  0  0  0  0
 24 45  1  0  0  0  0
 25 69  1  0  0  0  0
 26 78  1  0  0  0  0
 27 79  1  0  0  0  0
 28 31  2  0  0  0  0
 28 78  1  0  0  0  0
 29 80  1  0  0  0  0
 30 81  1  0  0  0  0
 31 82  1  0  0  0  0
 32 63  2  0  0  0  0
 33 64  1  0  0  0  0
 33 67  1  0  0  0  0
 34 35  2  0  0  0  0
 35 36  1  0  0  0  0
 36 37  2  0  0  0  0
 37 79  1  0  0  0  0
 38 68  1  0  0  0  0
 38 73  2  0  0  0  0
 39 53  1  0  0  0  0
 39 70  1  0  0  0  0
 39 74  2  0  0  0  0
 40 60  1  0  0  0  0
 40 65  1  0  0  0  0
 40 75  2  0  0  0  0
 41 61  1  0  0  0  0
 41 71  1  0  0  0  0
 41 76  2  0  0  0  0
 42 66  1  0  0  0  0
 42 69  1  0  0  0  0
 42 77  2  0  0  0  0
 43 46  1  0  0  0  0
 44 53  1  0  0  0  0
 45 65  1  0  0  0  0
 46 48  1  0  0  0  0
 47 49  1  0  0  0  0
 47 50  1  0  0  0  0
 48 52  1  0  0  0  0
 49 54  1  0  0  0  0
 50 66  1  0  0  0  0
 51 54  1  0  0  0  0
 51 66  1  0  0  0  0
 52 70  1  0  0  0  0
 53 65  1  0  0  0  0
 54 64  1  0  0  0  0
 55 61  1  0  0  0  0
 56 62  1  0  0  0  0
 57 62  1  0  0  0  0
 58 62  1  0  0  0  0
 59 72  1  0  0  0  0
 60 62  1  0  0  0  0
 60 71  1  0  0  0  0
 61 72  1  0  0  0  0
 63 64  1  0  0  0  0
M  CHG  1  72   1
M  ISO  4  37 101  42 100  69 100  79 101
M  END
> <Batch ID>
0117

> <Smiles>
CNC(C)C(=O)NC(C(=O)N1Cc2cc([101O:1][101CH:1]=CC=Cc3ccc([100NH:0][100C:0](=O)N4CCCC(n5nc(-c6ccc(Oc7ccc(F)cc7F)cc6)c(C(N)=O)c5N)C4)cc3F)ccc2CC1C(=O)NC1CCCc2ccccc21)C(C)(C)C

> <Shape>
0.270

> <Color>
0.134

> <Negative vol penalty>
0.000

$$$$

  -OEChem-04052301463D

 85 93  0     1  0  0  0  0  0999 V2000
  -20.8776  -18.4381   20.3008 C   0  0  0  0  0  0  0  0  0  0  0  0
  -22.0127  -19.2250   20.4674 C   0  0  0  0  0  0  0  0  0  0  0  0
  -24.2772   -9.2835   21.4427 C   0  0  0  0  0  0  0  0  0  0  0  0
  -24.7923  -10.4210   23.5110 C   0  0  0  0  0  0  0  0  0  0  0  0
  -19.6976  -19.0102   19.8274 C   0  0  0  0  0  0  0  0  0  0  0  0
  -21.9687  -20.5843   20.1597 C   0  0  0  0  0  0  0  0  0  0  0  0
  -24.1800  -23.4505   23.7009 C   0  0  0  0  0  0  0  0  0  0  0  0
  -23.8959   -8.1502   22.1609 C   0  0  0  0  0  0  0  0  0  0  0  0
  -24.4110   -9.2877   24.2293 C   0  0  0  0  0  0  0  0  0  0  0  0
  -25.5732  -23.5027   23.6992 C   0  0  0  0  0  0  0  0  0  0  0  0
  -22.4452   -5.0830   23.4659 C   0  0  0  0  0  0  0  0  0  0  0  0
  -21.2635   -4.4443   23.0902 C   0  0  0  0  0  0  0  0  0  0  0  0
  -30.5595  -18.9112   20.7747 C   0  0  0  0  0  0  0  0  0  0  0  0
  -25.4864  -25.6275   22.5605 C   0  0  0  0  0  0  0  0  0  0  0  0
  -28.4329  -20.5494   21.5339 C   0  0  0  0  0  0  0  0  0  0  0  0
  -20.0243   -6.4668   23.5493 C   0  0  0  0  0  0  0  0  0  0  0  0
  -24.7254  -10.4189   22.1177 C   0  0  0  0  0  0  0  0  0  0  0  0
  -30.8046  -20.2087   21.2240 C   0  0  0  0  0  0  0  0  0  0  0  0
  -24.3002  -12.6665   20.9885 C   0  0  0  0  0  0  0  0  0  0  0  0
  -19.6363  -20.3792   19.5228 C   0  0  0  0  0  0  0  0  0  0  0  0
  -23.4284  -24.4830   23.1217 C   0  0  0  0  0  0  0  0  0  0  0  0
  -20.7871  -21.1750   19.6805 C   0  0  0  0  0  0  0  0  0  0  0  0
  -24.0837  -25.5873   22.5584 C   0  0  0  0  0  0  0  0  0  0  0  0
  -29.7413  -21.0278   21.6037 C   0  0  0  0  0  0  0  0  0  0  0  0
  -29.2510  -18.4328   20.7049 C   0  0  0  0  0  0  0  0  0  0  0  0
  -23.9628   -8.1523   23.5542 C   0  0  0  0  0  0  0  0  0  0  0  0
  -26.2267  -24.5899   23.1264 C   0  0  0  0  0  0  0  0  0  0  0  0
  -22.4165   -6.4137   23.8834 C   0  0  0  0  0  0  0  0  0  0  0  0
  -20.0531   -5.1362   23.1318 C   0  0  0  0  0  0  0  0  0  0  0  0
  -21.2060   -7.1056   23.9250 C   0  0  0  0  0  0  0  0  0  0  0  0
  -28.1878  -19.2519   21.0846 C   0  0  0  0  0  0  0  0  0  0  0  0
  -25.1199  -11.5897   21.3764 C   0  0  0  0  0  0  0  0  0  0  0  0
  -25.1438  -13.5143   20.3131 C   0  0  0  0  0  0  0  0  0  0  0  0
  -29.4096  -23.2769   21.3659 C   0  0  0  0  0  0  0  0  0  0  0  0
  -32.1809  -20.6831   21.2859 C   0  0  0  0  0  0  0  0  0  0  0  0
  -22.9014  -12.8812   21.2183 C   0  0  0  0  0  0  0  0  0  0  0  0
  -21.3669  -24.6760   20.7099 C   0  0  0  0  0  0  0  0  0  0  0  0
  -21.0074  -27.7197   21.7725 C   0  0  0  0  0  0  0  0  0  0  0  0
  -22.3228  -30.3679   23.4763 C   0  0  0  0  0  0  0  0  0  0  0  0
  -30.0031  -16.1908   19.8365 C   0  0  0  0  0  0  0  0  0  0  0  0
  -18.3517  -20.9429   18.9691 C   0  0  0  0  0  0  0  0  0  0  0  0
  -21.9258  -24.4246   23.1554 C   0  0  0  0  0  0  0  0  0  0  0  0
  -23.3225  -26.7314   21.9417 C   0  0  0  0  0  0  0  0  0  0  0  0
  -18.2828  -22.4670   19.0217 C   0  0  0  0  0  0  0  0  0  0  0  0
  -29.8828  -12.8281   18.6722 C   0  0  0  0  0  0  0  0  0  0  0  0
  -19.5828  -23.0782   18.5085 C   0  0  0  0  0  0  0  0  0  0  0  0
  -28.5656  -12.2948   19.2400 C   0  0  0  0  0  0  0  0  0  0  0  0
  -30.5757  -13.7802   19.6454 C   0  0  0  0  0  0  0  0  0  0  0  0
  -28.4241  -14.3530   20.6997 C   0  0  0  0  0  0  0  0  0  0  0  0
  -20.7719  -22.6583   19.3811 C   0  0  1  0  0  0  0  0  0  0  0  0
  -21.2701  -25.2854   22.0799 C   0  0  1  0  0  0  0  0  0  0  0  0
  -27.6575  -13.4404   19.7285 C   0  0  2  0  0  0  0  0  0  0  0  0
  -33.2516  -19.6646   21.5426 C   0  0  0  0  0  0  0  0  0  0  0  0
  -21.8097  -32.7321   24.1435 C   0  0  0  0  0  0  0  0  0  0  0  0
  -21.6136  -28.6506   18.9306 C   0  0  0  0  0  0  0  0  0  0  0  0
  -22.0241  -30.9451   19.8443 C   0  0  0  0  0  0  0  0  0  0  0  0
  -19.7696  -29.9008   20.0669 C   0  0  0  0  0  0  0  0  0  0  0  0
  -22.4636  -29.7081   26.3580 C   0  0  0  0  0  0  0  0  0  0  0  0
  -29.5680  -24.7198   21.7645 C   0  0  0  0  0  0  0  0  0  0  0  0
  -28.2066  -25.3355   22.0402 C   0  0  0  0  0  0  0  0  0  1  0  0
  -21.6796  -29.0398   21.4821 C   0  0  1  0  0  0  0  0  0  0  0  0
  -21.7353  -31.2681   24.5483 C   0  0  2  0  0  0  0  0  0  0  0  0
  -21.2864  -29.6118   20.0908 C   0  0  0  0  0  0  0  0  0  0  0  0
  -26.3869  -11.7374   20.9802 N   0  0  0  0  0  0  0  0  0  0  0  0
  -29.9668  -22.3379   22.0584 N   0  0  0  0  0  0  0  0  0  0  0  0
  -26.3697  -12.9169   20.3363 N   0  0  0  0  0  0  0  0  0  0  0  0
  -21.8551  -26.6250   21.9937 N   0  0  0  0  0  0  0  0  0  0  0  0
  -29.6565  -14.8417   20.0616 N   0  0  0  0  0  0  0  0  0  0  0  0
  -24.9491  -14.7050   19.7076 N   0  0  0  0  0  0  0  0  0  0  0  0
  -22.1844  -11.9099   21.9302 N   0  0  0  0  0  0  0  0  0  0  0  0
  -29.0370  -17.1100   20.2443 N   0  0  0  0  0  0  0  0  0  0  0  0
  -20.7924  -23.4233   20.6094 N   0  0  0  0  0  0  0  0  0  0  0  0
  -21.3565  -29.9174   22.6019 N   0  0  0  0  0  0  0  0  0  0  0  0
  -22.4749  -31.0970   25.8308 N   0  3  0  0  0  0  0  0  0  0  0  0
  -32.5277  -21.8564   21.1481 O   0  0  0  0  0  0  0  0  0  0  0  0
  -22.3014  -13.8963   20.7903 O   0  0  0  0  0  0  0  0  0  0  0  0
  -21.9205  -25.2971   19.8101 O   0  0  0  0  0  0  0  0  0  0  0  0
  -19.7756  -27.6634   21.8089 O   0  0  0  0  0  0  0  0  0  0  0  0
  -23.5197  -30.0950   23.4181 O   0  0  0  0  0  0  0  0  0  0  0  0
  -31.0659  -16.5061   19.2953 O   0  0  0  0  0  0  0  0  0  0  0  0
  -23.5906   -7.0467   24.2554 O   0  0  0  0  0  0  0  0  0  0  0  0
  -27.5865  -24.6429   23.1228 O   0  0  0  0  0  0  0  0  0  1  0  0
  -18.9186   -4.5231   22.7695 F   0  0  0  0  0  0  0  0  0  0  0  0
  -21.1723   -8.3844   24.3241 F   0  0  0  0  0  0  0  0  0  0  0  0
  -26.5523  -18.6992   21.0148 Cl  0  0  0  0  0  0  0  0  0  0  0  0
  1  2  1  0  0  0  0
  1  5  2  0  0  0  0
  2  6  2  0  0  0  0
  3  8  2  0  0  0  0
  3 17  1  0  0  0  0
  4  9  1  0  0  0  0
  4 17  2  0  0  0  0
  5 20  1  0  0  0  0
  6 22  1  0  0  0  0
  7 10  2  0  0  0  0
  7 21  1  0  0  0  0
  8 26  1  0  0  0  0
  9 26  2  0  0  0  0
 10 27  1  0  0  0  0
 11 12  2  0  0  0  0
 11 28  1  0  0  0  0
 12 29  1  0  0  0  0
 13 18  1  0  0  0  0
 13 25  2  0  0  0  0
 14 23  1  0  0  0  0
 14 27  2  0  0  0  0
 15 24  1  0  0  0  0
 15 31  2  0  0  0  0
 16 29  2  0  0  0  0
 16 30  1  0  0  0  0
 17 32  1  0  0  0  0
 18 24  2  0  0  0  0
 18 35  1  0  0  0  0
 19 32  1  0  0  0  0
 19 33  2  0  0  0  0
 19 36  1  0  0  0  0
 20 22  2  0  0  0  0
 20 41  1  0  0  0  0
 21 23  2  0  0  0  0
 21 42  1  0  0  0  0
 22 50  1  0  0  0  0
 23 43  1  0  0  0  0
 24 65  1  0  0  0  0
 25 31  1  0  0  0  0
 25 71  1  0  0  0  0
 26 81  1  0  0  0  0
 27 82  1  0  0  0  0
 28 30  2  0  0  0  0
 28 81  1  0  0  0  0
 29 83  1  0  0  0  0
 30 84  1  0  0  0  0
 31 85  1  0  0  0  0
 32 64  2  0  0  0  0
 33 66  1  0  0  0  0
 33 69  1  0  0  0  0
 34 59  1  0  0  0  0
 34 65  2  0  0  0  0
 35 53  1  0  0  0  0
 35 75  2  0  0  0  0
 36 70  1  0  0  0  0
 36 76  2  0  0  0  0
 37 51  1  0  0  0  0
 37 72  1  0  0  0  0
 37 77  2  0  0  0  0
 38 61  1  0  0  0  0
 38 67  1  0  0  0  0
 38 78  2  0  0  0  0
 39 62  1  0  0  0  0
 39 73  1  0  0  0  0
 39 79  2  0  0  0  0
 40 68  1  0  0  0  0
 40 71  1  0  0  0  0
 40 80  2  0  0  0  0
 41 44  1  0  0  0  0
 42 51  1  0  0  0  0
 43 67  1  0  0  0  0
 44 46  1  0  0  0  0
 45 47  1  0  0  0  0
 45 48  1  0  0  0  0
 46 50  1  0  0  0  0
 47 52  1  0  0  0  0
 48 68  1  0  0  0  0
 49 52  1  0  0  0  0
 49 68  1  0  0  0  0
 50 72  1  0  0  0  0
 51 67  1  0  0  0  0
 52 66  1  0  0  0  0
 54 62  1  0  0  0  0
 55 63  1  0  0  0  0
 56 63  1  0  0  0  0
 57 63  1  0  0  0  0
 58 74  1  0  0  0  0
 59 60  1  0  0  0  0
 60 82  1  0  0  0  0
 61 63  1  0  0  0  0
 61 73  1  0  0  0  0
 62 74  1  0  0  0  0
 64 66  1  0  0  0  0
M  CHG  1  74   1
M  ISO  4  40 100  60 101  71 100  82 101
M  END
> <Batch ID>
0117

> <Smiles>
CNC(C)C(=O)NC(C(=O)N1Cc2cc([101O:1][101CH2:1]C=CNc3cc(Cl)c([100NH:0][100C:0](=O)N4CCCC(n5nc(-c6ccc(Oc7ccc(F)cc7F)cc6)c(C(N)=O)c5N)C4)cc3C(C)=O)ccc2CC1C(=O)NC1CCCc2ccccc21)C(C)(C)C

> <Shape>
0.220

> <Color>
0.110

> <Negative vol penalty>
0.000

$$$$

  -OEChem-04052301463D

 85 93  0     1  0  0  0  0  0999 V2000
  -26.1706  -32.1004   23.7371 C   0  0  0  0  0  0  0  0  0  0  0  0
  -26.5546  -30.9095   24.3452 C   0  0  0  0  0  0  0  0  0  0  0  0
  -23.2085   -9.7429   19.9634 C   0  0  0  0  0  0  0  0  0  0  0  0
  -23.8715   -9.8959   22.2816 C   0  0  0  0  0  0  0  0  0  0  0  0
  -25.6616  -32.0865   22.4391 C   0  0  0  0  0  0  0  0  0  0  0  0
  -26.4287  -29.7038   23.6561 C   0  0  0  0  0  0  0  0  0  0  0  0
  -30.5263  -26.7644   24.1195 C   0  0  0  0  0  0  0  0  0  0  0  0
  -22.5184   -8.5624   20.2386 C   0  0  0  0  0  0  0  0  0  0  0  0
  -23.1814   -8.7154   22.5569 C   0  0  0  0  0  0  0  0  0  0  0  0
  -30.6719  -26.0587   25.3131 C   0  0  0  0  0  0  0  0  0  0  0  0
  -19.9790   -7.7661   23.0709 C   0  0  0  0  0  0  0  0  0  0  0  0
  -19.1776   -7.7368   24.2121 C   0  0  0  0  0  0  0  0  0  0  0  0
  -30.0083  -18.7968   23.9522 C   0  0  0  0  0  0  0  0  0  0  0  0
  -29.8250  -24.0735   24.2355 C   0  0  0  0  0  0  0  0  0  0  0  0
  -31.7067  -17.0638   22.5756 C   0  0  0  0  0  0  0  0  0  0  0  0
  -20.4906   -5.9071   25.0871 C   0  0  0  0  0  0  0  0  0  0  0  0
  -23.8851  -10.4097   20.9849 C   0  0  0  0  0  0  0  0  0  0  0  0
  -29.4778  -17.8518   23.0741 C   0  0  0  0  0  0  0  0  0  0  0  0
  -24.0944  -12.9420   20.7588 C   0  0  0  0  0  0  0  0  0  0  0  0
  -25.5385  -30.8811   21.7302 C   0  0  0  0  0  0  0  0  0  0  0  0
  -30.0178  -26.1317   22.9760 C   0  0  0  0  0  0  0  0  0  0  0  0
  -25.9164  -29.6736   22.3479 C   0  0  0  0  0  0  0  0  0  0  0  0
  -29.6763  -24.7727   23.0281 C   0  0  0  0  0  0  0  0  0  0  0  0
  -31.3880  -18.8755   24.1420 C   0  0  0  0  0  0  0  0  0  0  0  0
  -30.3270  -16.9853   22.3858 C   0  0  0  0  0  0  0  0  0  0  0  0
  -22.5048   -8.0486   21.5354 C   0  0  0  0  0  0  0  0  0  0  0  0
  -30.3186  -24.7138   25.3720 C   0  0  0  0  0  0  0  0  0  0  0  0
  -21.0362   -6.8659   22.9377 C   0  0  0  0  0  0  0  0  0  0  0  0
  -19.4334   -6.8073   25.2202 C   0  0  0  0  0  0  0  0  0  0  0  0
  -32.2372  -18.0089   23.4537 C   0  0  0  0  0  0  0  0  0  0  0  0
  -21.2920   -5.9364   23.9458 C   0  0  0  0  0  0  0  0  0  0  0  0
  -24.5985  -11.6289   20.7010 C   0  0  0  0  0  0  0  0  0  0  0  0
  -25.1584  -13.7343   20.4030 C   0  0  0  0  0  0  0  0  0  0  0  0
  -27.3140  -18.8069   22.4253 C   0  0  0  0  0  0  0  0  0  0  0  0
  -28.0309  -17.8003   22.9001 C   0  0  0  0  0  0  0  0  0  0  0  0
  -31.1272  -21.8595   27.3250 C   0  0  0  0  0  0  0  0  0  0  0  0
  -31.2837  -22.9329   26.5415 C   0  0  0  0  0  0  0  0  0  1  0  0
  -31.5316  -19.7295   26.2589 C   0  0  0  0  0  0  0  0  0  0  0  0
  -22.7816  -13.4043   21.1032 C   0  0  0  0  0  0  0  0  0  0  0  0
  -27.4583  -26.5420   21.1363 C   0  0  0  0  0  0  0  0  0  0  0  0
  -28.8772  -24.2566   19.3236 C   0  0  0  0  0  0  0  0  0  0  0  0
  -31.0440  -21.6255   19.1522 C   0  0  0  0  0  0  0  0  0  0  0  0
  -30.5481  -15.0911   20.7398 C   0  0  0  0  0  0  0  0  0  0  0  0
  -24.9387  -30.9107   20.3467 C   0  0  0  0  0  0  0  0  0  0  0  0
  -29.8919  -26.9000   21.6891 C   0  0  0  0  0  0  0  0  0  0  0  0
  -29.1449  -24.0419   21.8231 C   0  0  0  0  0  0  0  0  0  0  0  0
  -25.1876  -29.6341   19.5475 C   0  0  0  0  0  0  0  0  0  0  0  0
  -29.6648  -12.5142   18.4471 C   0  0  0  0  0  0  0  0  0  0  0  0
  -24.8945  -28.4043   20.4010 C   0  0  0  0  0  0  0  0  0  0  0  0
  -28.2265  -12.1622   18.8338 C   0  0  0  0  0  0  0  0  0  0  0  0
  -30.5158  -12.8479   19.6711 C   0  0  0  0  0  0  0  0  0  0  0  0
  -28.5169  -13.5261   20.9415 C   0  0  0  0  0  0  0  0  0  0  0  0
  -25.8183  -28.3484   21.6238 C   0  0  1  0  0  0  0  0  0  0  0  0
  -28.8808  -26.2881   20.7244 C   0  0  1  0  0  0  0  0  0  0  0  0
  -27.6044  -13.2456   19.7364 C   0  0  2  0  0  0  0  0  0  0  0  0
  -31.9666  -19.9349   17.5434 C   0  0  0  0  0  0  0  0  0  0  0  0
  -26.2612  -22.6929   19.4704 C   0  0  0  0  0  0  0  0  0  0  0  0
  -27.5105  -20.6656   18.6974 C   0  0  0  0  0  0  0  0  0  0  0  0
  -27.3631  -22.6742   17.2255 C   0  0  0  0  0  0  0  0  0  0  0  0
  -33.8107  -22.6074   19.5266 C   0  0  0  0  0  0  0  0  0  0  0  0
  -32.0473  -20.6813   27.3016 C   0  0  0  0  0  0  0  0  0  0  0  0
  -28.8354  -22.7482   19.2795 C   0  0  1  0  0  0  0  0  0  0  0  0
  -32.1622  -21.3034   18.1773 C   0  0  2  0  0  0  0  0  0  0  0  0
  -27.5007  -22.2092   18.6916 C   0  0  0  0  0  0  0  0  0  0  0  0
  -25.8829  -11.5852   20.3371 N   0  0  0  0  0  0  0  0  0  0  0  0
  -31.9207  -19.8259   25.0292 N   0  0  0  0  0  0  0  0  0  0  0  0
  -26.1948  -12.8808   20.1629 N   0  0  0  0  0  0  0  0  0  0  0  0
  -29.0341  -24.8381   20.5897 N   0  0  0  0  0  0  0  0  0  0  0  0
  -29.8660  -13.8844   20.4764 N   0  0  0  0  0  0  0  0  0  0  0  0
  -25.2993  -15.0708   20.2752 N   0  0  0  0  0  0  0  0  0  0  0  0
  -21.8073  -12.4560   21.4437 N   0  0  0  0  0  0  0  0  0  0  0  0
  -29.8184  -16.0144   21.4878 N   0  0  0  0  0  0  0  0  0  0  0  0
  -27.1337  -27.8809   21.2425 N   0  0  0  0  0  0  0  0  0  0  0  0
  -30.0243  -22.3281   18.5457 N   0  0  0  0  0  0  0  0  0  0  0  0
  -33.4781  -21.3135   18.8768 N   0  3  0  0  0  0  0  0  0  0  0  0
  -22.4769  -14.6211   21.0930 O   0  0  0  0  0  0  0  0  0  0  0  0
  -26.7102  -25.5933   21.3412 O   0  0  0  0  0  0  0  0  0  0  0  0
  -28.7815  -24.8952   18.2725 O   0  0  0  0  0  0  0  0  0  0  0  0
  -31.0706  -21.2846   20.3327 O   0  0  0  0  0  0  0  0  0  0  0  0
  -31.6848  -15.3015   20.3088 O   0  0  0  0  0  0  0  0  0  0  0  0
  -21.8314   -6.8968   21.8044 O   0  0  0  0  0  0  0  0  0  0  0  0
  -30.4591  -24.0228   26.5359 O   0  0  0  0  0  0  0  0  0  1  0  0
  -18.6647   -6.7802   26.3168 F   0  0  0  0  0  0  0  0  0  0  0  0
  -33.5643  -18.0778   23.6287 F   0  0  0  0  0  0  0  0  0  0  0  0
  -22.3069   -5.0699   23.8240 F   0  0  0  0  0  0  0  0  0  0  0  0
  1  2  1  0  0  0  0
  1  5  2  0  0  0  0
  2  6  2  0  0  0  0
  3  8  2  0  0  0  0
  3 17  1  0  0  0  0
  4  9  1  0  0  0  0
  4 17  2  0  0  0  0
  5 20  1  0  0  0  0
  6 22  1  0  0  0  0
  7 10  2  0  0  0  0
  7 21  1  0  0  0  0
  8 26  1  0  0  0  0
  9 26  2  0  0  0  0
 10 27  1  0  0  0  0
 11 12  2  0  0  0  0
 11 28  1  0  0  0  0
 12 29  1  0  0  0  0
 13 18  1  0  0  0  0
 13 24  2  0  0  0  0
 14 23  1  0  0  0  0
 14 27  2  0  0  0  0
 15 25  1  0  0  0  0
 15 30  2  0  0  0  0
 16 29  2  0  0  0  0
 16 31  1  0  0  0  0
 17 32  1  0  0  0  0
 18 25  2  0  0  0  0
 18 35  1  0  0  0  0
 19 32  1  0  0  0  0
 19 33  2  0  0  0  0
 19 39  1  0  0  0  0
 20 22  2  0  0  0  0
 20 44  1  0  0  0  0
 21 23  2  0  0  0  0
 21 45  1  0  0  0  0
 22 53  1  0  0  0  0
 23 46  1  0  0  0  0
 24 30  1  0  0  0  0
 24 66  1  0  0  0  0
 25 72  1  0  0  0  0
 26 81  1  0  0  0  0
 27 82  1  0  0  0  0
 28 31  2  0  0  0  0
 28 81  1  0  0  0  0
 29 83  1  0  0  0  0
 30 84  1  0  0  0  0
 31 85  1  0  0  0  0
 32 65  2  0  0  0  0
 33 67  1  0  0  0  0
 33 70  1  0  0  0  0
 34 35  2  0  0  0  0
 36 37  2  0  0  0  0
 36 61  1  0  0  0  0
 37 82  1  0  0  0  0
 38 61  1  0  0  0  0
 38 66  2  0  0  0  0
 39 71  1  0  0  0  0
 39 76  2  0  0  0  0
 40 54  1  0  0  0  0
 40 73  1  0  0  0  0
 40 77  2  0  0  0  0
 41 62  1  0  0  0  0
 41 68  1  0  0  0  0
 41 78  2  0  0  0  0
 42 63  1  0  0  0  0
 42 74  1  0  0  0  0
 42 79  2  0  0  0  0
 43 69  1  0  0  0  0
 43 72  1  0  0  0  0
 43 80  2  0  0  0  0
 44 47  1  0  0  0  0
 45 54  1  0  0  0  0
 46 68  1  0  0  0  0
 47 49  1  0  0  0  0
 48 50  1  0  0  0  0
 48 51  1  0  0  0  0
 49 53  1  0  0  0  0
 50 55  1  0  0  0  0
 51 69  1  0  0  0  0
 52 55  1  0  0  0  0
 52 69  1  0  0  0  0
 53 73  1  0  0  0  0
 54 68  1  0  0  0  0
 55 67  1  0  0  0  0
 56 63  1  0  0  0  0
 57 64  1  0  0  0  0
 58 64  1  0  0  0  0
 59 64  1  0  0  0  0
 60 75  1  0  0  0  0
 62 64  1  0  0  0  0
 62 74  1  0  0  0  0
 63 75  1  0  0  0  0
 65 67  1  0  0  0  0
M  CHG  1  75   1
M  ISO  4  37 101  43 100  72 100  82 101
M  END
> <Batch ID>
0117

> <Smiles>
C=Cc1cc(NC=CC=[101CH:1][101O:1]c2ccc3c(c2)CN(C(=O)C(NC(=O)C(C)NC)C(C)(C)C)C(C(=O)NC2CCCc4ccccc42)C3)c(F)cc1[100NH:0][100C:0](=O)N1CCCC(n2nc(-c3ccc(Oc4ccc(F)cc4F)cc3)c(C(N)=O)c2N)C1

> <Shape>
0.297

> <Color>
0.198

> <Negative vol penalty>
0.000

$$$$

  -OEChem-04052301463D

 88 96  0     1  0  0  0  0  0999 V2000
  -31.9074  -16.7189   21.0532 C   0  0  0  0  0  0  0  0  0  0  0  0
  -22.6020  -30.5720   27.0274 C   0  0  0  0  0  0  0  0  0  0  0  0
  -23.6217  -29.7064   26.6451 C   0  0  0  0  0  0  0  0  0  0  0  0
  -23.2462  -10.1705   22.1498 C   0  0  0  0  0  0  0  0  0  0  0  0
  -23.7045   -9.5627   19.8568 C   0  0  0  0  0  0  0  0  0  0  0  0
  -21.5115  -30.7786   26.1835 C   0  0  0  0  0  0  0  0  0  0  0  0
  -23.5511  -29.0459   25.4190 C   0  0  0  0  0  0  0  0  0  0  0  0
  -28.2283  -27.6132   21.7343 C   0  0  0  0  0  0  0  0  0  0  0  0
  -22.4940   -9.0065   22.3080 C   0  0  0  0  0  0  0  0  0  0  0  0
  -22.9523   -8.3987   20.0150 C   0  0  0  0  0  0  0  0  0  0  0  0
  -28.9475  -26.4336   21.5469 C   0  0  0  0  0  0  0  0  0  0  0  0
  -23.0754   -5.7159   22.8242 C   0  0  0  0  0  0  0  0  0  0  0  0
  -23.2782   -4.9653   23.9823 C   0  0  0  0  0  0  0  0  0  0  0  0
  -30.1021  -16.3576   18.7993 C   0  0  0  0  0  0  0  0  0  0  0  0
  -28.0559  -18.2462   18.6302 C   0  0  0  0  0  0  0  0  0  0  0  0
  -27.5365  -25.8785   19.6707 C   0  0  0  0  0  0  0  0  0  0  0  0
  -20.9570   -5.2636   24.5822 C   0  0  0  0  0  0  0  0  0  0  0  0
  -23.8514  -10.4486   20.9242 C   0  0  0  0  0  0  0  0  0  0  0  0
  -29.0372  -16.1553   17.9215 C   0  0  0  0  0  0  0  0  0  0  0  0
  -30.1439  -17.5042   19.5927 C   0  0  0  0  0  0  0  0  0  0  0  0
  -28.0141  -17.0997   17.8368 C   0  0  0  0  0  0  0  0  0  0  0  0
  -26.0072  -11.8108   20.9931 C   0  0  0  0  0  0  0  0  0  0  0  0
  -21.4322  -30.1278   24.9422 C   0  0  0  0  0  0  0  0  0  0  0  0
  -27.1491  -27.9295   20.8967 C   0  0  0  0  0  0  0  0  0  0  0  0
  -22.4579  -29.2430   24.5583 C   0  0  0  0  0  0  0  0  0  0  0  0
  -26.8069  -27.0639   19.8480 C   0  0  0  0  0  0  0  0  0  0  0  0
  -22.3471   -8.1206   21.2406 C   0  0  0  0  0  0  0  0  0  0  0  0
  -28.5998  -25.5646   20.5168 C   0  0  0  0  0  0  0  0  0  0  0  0
  -21.8133   -6.2404   22.5452 C   0  0  0  0  0  0  0  0  0  0  0  0
  -29.1207  -18.4485   19.5081 C   0  0  0  0  0  0  0  0  0  0  0  0
  -22.2190   -4.7391   24.8613 C   0  0  0  0  0  0  0  0  0  0  0  0
  -20.7541   -6.0142   23.4241 C   0  0  0  0  0  0  0  0  0  0  0  0
  -24.6280  -11.6511   20.7600 C   0  0  0  0  0  0  0  0  0  0  0  0
  -26.2559  -13.1278   20.6929 C   0  0  0  0  0  0  0  0  0  0  0  0
  -32.5746  -15.7619   21.6236 C   0  0  0  0  0  0  0  0  0  0  0  0
  -29.9905  -14.6215   16.2620 C   0  0  0  0  0  0  0  0  0  0  0  0
  -31.2650  -17.6915   20.5040 C   0  0  0  0  0  0  0  0  0  0  0  0
  -29.0243  -14.9462   17.1074 C   0  0  0  0  0  0  0  0  0  0  0  0
  -26.8832  -16.9255   16.9327 C   0  0  0  0  0  0  0  0  0  0  0  0
  -26.9767  -10.8542   21.4409 C   0  0  0  0  0  0  0  0  0  0  0  0
  -25.5495  -17.4831   17.2544 C   0  0  0  0  0  0  0  0  0  0  0  0
  -24.0328  -28.3839   21.3280 C   0  0  0  0  0  0  0  0  0  0  0  0
  -29.1754  -21.9953   20.2731 C   0  0  0  0  0  0  0  0  0  0  0  0
  -24.1180  -29.2250   18.1963 C   0  0  0  0  0  0  0  0  0  0  0  0
  -25.6915  -28.9959   15.1766 C   0  0  0  0  0  0  0  0  0  0  0  0
  -20.2109  -30.3465   24.0847 C   0  0  0  0  0  0  0  0  0  0  0  0
  -26.4002  -29.2188   21.0954 C   0  0  0  0  0  0  0  0  0  0  0  0
  -25.6694  -27.3673   18.9084 C   0  0  0  0  0  0  0  0  0  0  0  0
  -20.3942  -29.8963   22.6376 C   0  0  0  0  0  0  0  0  0  0  0  0
  -23.0981  -16.9708   19.8205 C   0  0  0  0  0  0  0  0  0  0  0  0
  -21.0356  -28.5133   22.5859 C   0  0  0  0  0  0  0  0  0  0  0  0
  -23.3669  -15.5398   20.2849 C   0  0  0  0  0  0  0  0  0  0  0  0
  -23.3596  -17.1313   18.3265 C   0  0  0  0  0  0  0  0  0  0  0  0
  -25.0063  -15.2779   18.3694 C   0  0  0  0  0  0  0  0  0  0  0  0
  -22.4294  -28.5273   23.2252 C   0  0  1  0  0  0  0  0  0  0  0  0
  -24.9948  -29.1909   20.5027 C   0  0  1  0  0  0  0  0  0  0  0  0
  -24.7796  -15.0836   19.8788 C   0  0  2  0  0  0  0  0  0  0  0  0
  -25.5040  -29.7625   12.7945 C   0  0  0  0  0  0  0  0  0  0  0  0
  -21.8985  -27.1867   17.7176 C   0  0  0  0  0  0  0  0  0  0  0  0
  -22.4136  -27.3045   15.2703 C   0  0  0  0  0  0  0  0  0  0  0  0
  -21.6228  -29.3401   16.4761 C   0  0  0  0  0  0  0  0  0  0  0  0
  -28.2819  -30.4211   15.3097 C   0  0  0  0  0  0  0  0  0  0  0  0
  -28.5912  -23.3033   19.7804 C   0  0  0  0  0  0  0  0  0  1  0  0
  -28.5190  -20.7373   19.7425 C   0  0  0  0  0  0  0  0  0  0  0  0
  -23.9677  -28.4887   16.8871 C   0  0  1  0  0  0  0  0  0  0  0  0
  -26.0914  -30.0558   14.1662 C   0  0  2  0  0  0  0  0  0  0  0  0
  -22.4959  -28.0731   16.6065 C   0  0  0  0  0  0  0  0  0  0  0  0
  -24.0417  -12.7767   20.3439 N   0  0  0  0  0  0  0  0  0  0  0  0
  -26.9673  -16.2823   15.8020 N   0  0  0  0  0  0  0  0  0  0  0  0
  -25.0572  -13.6564   20.3133 N   0  0  0  0  0  0  0  0  0  0  0  0
  -24.6948  -16.6559   17.9695 N   0  0  0  0  0  0  0  0  0  0  0  0
  -24.9637  -28.6370   19.1476 N   0  0  0  0  0  0  0  0  0  0  0  0
  -27.3807  -13.8737   20.7193 N   0  0  0  0  0  0  0  0  0  0  0  0
  -26.5515   -9.5448   21.7038 N   0  0  0  0  0  0  0  0  0  0  0  0
  -23.3958  -29.1078   22.3178 N   0  0  0  0  0  0  0  0  0  0  0  0
  -24.5504  -29.3508   15.8646 N   0  0  0  0  0  0  0  0  0  0  0  0
  -27.5751  -30.1165   14.0390 N   0  3  0  0  0  0  0  0  0  0  0  0
  -28.1812  -11.1559   21.6189 O   0  0  0  0  0  0  0  0  0  0  0  0
  -25.3426  -18.6206   16.8524 O   0  0  0  0  0  0  0  0  0  0  0  0
  -23.8787  -27.1929   21.0839 O   0  0  0  0  0  0  0  0  0  0  0  0
  -30.1235  -21.9572   21.0559 O   0  0  0  0  0  0  0  0  0  0  0  0
  -23.5131  -30.2866   18.3660 O   0  0  0  0  0  0  0  0  0  0  0  0
  -26.3256  -27.9553   15.3368 O   0  0  0  0  0  0  0  0  0  0  0  0
  -21.6133   -6.9846   21.3946 O   0  0  0  0  0  0  0  0  0  0  0  0
  -29.2998  -24.4123   20.3321 O   0  0  0  0  0  0  0  0  0  1  0  0
  -29.1370  -19.5867   20.2790 O   0  0  0  0  0  0  0  0  0  0  0  0
  -22.4136   -4.0171   25.9725 F   0  0  0  0  0  0  0  0  0  0  0  0
  -19.5391   -6.5145   23.1608 F   0  0  0  0  0  0  0  0  0  0  0  0
  1 35  2  0  0  0  0
  1 37  2  0  0  0  0
  2  3  1  0  0  0  0
  2  6  2  0  0  0  0
  3  7  2  0  0  0  0
  4  9  2  0  0  0  0
  4 18  1  0  0  0  0
  5 10  1  0  0  0  0
  5 18  2  0  0  0  0
  6 23  1  0  0  0  0
  7 25  1  0  0  0  0
  8 11  2  0  0  0  0
  8 24  1  0  0  0  0
  9 27  1  0  0  0  0
 10 27  2  0  0  0  0
 11 28  1  0  0  0  0
 12 13  2  0  0  0  0
 12 29  1  0  0  0  0
 13 31  1  0  0  0  0
 14 19  2  0  0  0  0
 14 20  1  0  0  0  0
 15 21  2  0  0  0  0
 15 30  1  0  0  0  0
 16 26  1  0  0  0  0
 16 28  2  0  0  0  0
 17 31  2  0  0  0  0
 17 32  1  0  0  0  0
 18 33  1  0  0  0  0
 19 21  1  0  0  0  0
 19 38  1  0  0  0  0
 20 30  2  0  0  0  0
 20 37  1  0  0  0  0
 21 39  1  0  0  0  0
 22 33  1  0  0  0  0
 22 34  2  0  0  0  0
 22 40  1  0  0  0  0
 23 25  2  0  0  0  0
 23 46  1  0  0  0  0
 24 26  2  0  0  0  0
 24 47  1  0  0  0  0
 25 55  1  0  0  0  0
 26 48  1  0  0  0  0
 27 84  1  0  0  0  0
 28 85  1  0  0  0  0
 29 32  2  0  0  0  0
 29 84  1  0  0  0  0
 30 86  1  0  0  0  0
 31 87  1  0  0  0  0
 32 88  1  0  0  0  0
 33 68  2  0  0  0  0
 34 70  1  0  0  0  0
 34 73  1  0  0  0  0
 36 38  2  0  0  0  0
 39 41  1  0  0  0  0
 39 69  2  0  0  0  0
 40 74  1  0  0  0  0
 40 78  2  0  0  0  0
 41 71  1  0  0  0  0
 41 79  2  0  0  0  0
 42 56  1  0  0  0  0
 42 75  1  0  0  0  0
 42 80  2  0  0  0  0
 43 63  1  0  0  0  0
 43 64  1  0  0  0  0
 43 81  2  0  0  0  0
 44 65  1  0  0  0  0
 44 72  1  0  0  0  0
 44 82  2  0  0  0  0
 45 66  1  0  0  0  0
 45 76  1  0  0  0  0
 45 83  2  0  0  0  0
 46 49  1  0  0  0  0
 47 56  1  0  0  0  0
 48 72  1  0  0  0  0
 49 51  1  0  0  0  0
 50 52  1  0  0  0  0
 50 53  1  0  0  0  0
 51 55  1  0  0  0  0
 52 57  1  0  0  0  0
 53 71  1  0  0  0  0
 54 57  1  0  0  0  0
 54 71  1  0  0  0  0
 55 75  1  0  0  0  0
 56 72  1  0  0  0  0
 57 70  1  0  0  0  0
 58 66  1  0  0  0  0
 59 67  1  0  0  0  0
 60 67  1  0  0  0  0
 61 67  1  0  0  0  0
 62 77  1  0  0  0  0
 63 85  1  0  0  0  0
 64 86  1  0  0  0  0
 65 67  1  0  0  0  0
 65 76  1  0  0  0  0
 66 77  1  0  0  0  0
 68 70  1  0  0  0  0
M  CHG  1  77   1
M  ISO  4  39 100  41 100  63 101  85 101
M  END
> <Batch ID>
0117

> <Smiles>
C=C=Cc1cc(C=C)c([100C:0](=N)[100C:0](=O)N2CCCC(n3nc(-c4ccc(Oc5ccc(F)cc5F)cc4)c(C(N)=O)c3N)C2)cc1OCC(=O)[101CH2:1][101O:1]c1ccc2c(c1)CN(C(=O)C(NC(=O)C(C)NC)C(C)(C)C)C(C(=O)NC1CCCc3ccccc31)C2

> <Shape>
0.263

> <Color>
0.098

> <Negative vol penalty>
0.000

$$$$

  -OEChem-04052301463D

 87 95  0     1  0  0  0  0  0999 V2000
  -27.3356  -39.9165   18.2802 C   0  0  0  0  0  0  0  0  0  0  0  0
  -28.0308  -38.7132   18.3434 C   0  0  0  0  0  0  0  0  0  0  0  0
  -23.9051   -9.7185   21.6022 C   0  0  0  0  0  0  0  0  0  0  0  0
  -24.4973  -10.8899   23.6305 C   0  0  0  0  0  0  0  0  0  0  0  0
  -26.4107  -40.2388   19.2725 C   0  0  0  0  0  0  0  0  0  0  0  0
  -27.8023  -37.8318   19.3996 C   0  0  0  0  0  0  0  0  0  0  0  0
  -27.9016  -31.7126   19.1753 C   0  0  0  0  0  0  0  0  0  0  0  0
  -23.4214   -8.6517   22.3594 C   0  0  0  0  0  0  0  0  0  0  0  0
  -24.0135   -9.8230   24.3878 C   0  0  0  0  0  0  0  0  0  0  0  0
  -28.8788  -30.7773   19.5133 C   0  0  0  0  0  0  0  0  0  0  0  0
  -20.6374   -7.9149   24.1313 C   0  0  0  0  0  0  0  0  0  0  0  0
  -19.4069   -7.3676   23.7682 C   0  0  0  0  0  0  0  0  0  0  0  0
  -29.0080  -20.5810   21.3040 C   0  0  0  0  0  0  0  0  0  0  0  0
  -27.8553  -30.5000   21.6800 C   0  0  0  0  0  0  0  0  0  0  0  0
  -30.9966  -18.7417   20.6367 C   0  0  0  0  0  0  0  0  0  0  0  0
  -20.4667   -5.2274   23.4027 C   0  0  0  0  0  0  0  0  0  0  0  0
  -24.4431  -10.8376   22.2377 C   0  0  0  0  0  0  0  0  0  0  0  0
  -28.6590  -19.2917   20.9022 C   0  0  0  0  0  0  0  0  0  0  0  0
  -24.2229  -13.0662   21.0160 C   0  0  0  0  0  0  0  0  0  0  0  0
  -26.1637  -39.3567   20.3362 C   0  0  0  0  0  0  0  0  0  0  0  0
  -26.8986  -32.0572   20.0927 C   0  0  0  0  0  0  0  0  0  0  0  0
  -26.8742  -38.1432   20.4077 C   0  0  0  0  0  0  0  0  0  0  0  0
  -26.8651  -31.4380   21.3503 C   0  0  0  0  0  0  0  0  0  0  0  0
  -30.3513  -20.9507   21.3721 C   0  0  0  0  0  0  0  0  0  0  0  0
  -29.6533  -18.3720   20.5685 C   0  0  0  0  0  0  0  0  0  0  0  0
  -23.4756   -8.7039   23.7522 C   0  0  0  0  0  0  0  0  0  0  0  0
  -28.8574  -30.1730   20.7669 C   0  0  0  0  0  0  0  0  0  0  0  0
  -21.7826   -7.1185   24.1300 C   0  0  0  0  0  0  0  0  0  0  0  0
  -19.3215   -6.0238   23.4039 C   0  0  0  0  0  0  0  0  0  0  0  0
  -31.3456  -20.0311   21.0385 C   0  0  0  0  0  0  0  0  0  0  0  0
  -21.6973   -5.7748   23.7658 C   0  0  0  0  0  0  0  0  0  0  0  0
  -24.9435  -11.9397   21.4560 C   0  0  0  0  0  0  0  0  0  0  0  0
  -25.1423  -13.8110   20.3186 C   0  0  0  0  0  0  0  0  0  0  0  0
  -26.3746  -19.5447   20.0462 C   0  0  0  0  0  0  0  0  0  0  0  0
  -27.2446  -18.9419   20.8414 C   0  0  0  0  0  0  0  0  0  0  0  0
  -30.4374  -26.9747   21.1055 C   0  0  0  0  0  0  0  0  0  0  0  0
  -29.5673  -27.9450   20.8190 C   0  0  0  0  0  0  0  0  0  1  0  0
  -30.7988  -23.1279   20.8371 C   0  0  0  0  0  0  0  0  0  0  0  0
  -22.8457  -13.4088   21.2197 C   0  0  0  0  0  0  0  0  0  0  0  0
  -30.1208  -25.5570   20.7774 C   0  0  0  0  0  0  0  0  0  0  0  0
  -26.0297  -34.7372   21.5646 C   0  0  0  0  0  0  0  0  0  0  0  0
  -23.5637  -32.9051   22.6062 C   0  0  0  0  0  0  0  0  0  0  0  0
  -22.3571  -29.7860   23.2859 C   0  0  0  0  0  0  0  0  0  0  0  0
  -30.2177  -16.0409   19.7981 C   0  0  0  0  0  0  0  0  0  0  0  0
  -25.1891  -39.7698   21.4105 C   0  0  0  0  0  0  0  0  0  0  0  0
  -25.8363  -33.0481   19.7030 C   0  0  0  0  0  0  0  0  0  0  0  0
  -25.7979  -31.7582   22.3637 C   0  0  0  0  0  0  0  0  0  0  0  0
  -24.7317  -38.6131   22.2954 C   0  0  0  0  0  0  0  0  0  0  0  0
  -29.8195  -12.6569   18.7650 C   0  0  0  0  0  0  0  0  0  0  0  0
  -25.9260  -37.7712   22.7333 C   0  0  0  0  0  0  0  0  0  0  0  0
  -28.4562  -12.2613   19.3368 C   0  0  0  0  0  0  0  0  0  0  0  0
  -30.5828  -13.5845   19.7088 C   0  0  0  0  0  0  0  0  0  0  0  0
  -28.4789  -14.3810   20.7128 C   0  0  0  0  0  0  0  0  0  0  0  0
  -26.6359  -37.1500   21.5243 C   0  0  1  0  0  0  0  0  0  0  0  0
  -25.1616  -33.7041   20.9038 C   0  0  1  0  0  0  0  0  0  0  0  0
  -27.6456  -13.4991   19.7687 C   0  0  2  0  0  0  0  0  0  0  0  0
  -20.3212  -28.6092   24.1620 C   0  0  0  0  0  0  0  0  0  0  0  0
  -24.3035  -33.7440   25.4450 C   0  0  0  0  0  0  0  0  0  0  0  0
  -22.9034  -31.8504   26.2948 C   0  0  0  0  0  0  0  0  0  0  0  0
  -21.8468  -33.6885   24.9803 C   0  0  0  0  0  0  0  0  0  0  0  0
  -21.9787  -28.3066   20.7507 C   0  0  0  0  0  0  0  0  0  0  0  0
  -31.1836  -24.5465   21.1494 C   0  0  0  0  0  0  0  0  0  0  0  0
  -23.3252  -32.0116   23.7994 C   0  0  1  0  0  0  0  0  0  0  0  0
  -21.0460  -29.1121   22.9233 C   0  0  2  0  0  0  0  0  0  0  0  0
  -23.1161  -32.8188   25.1117 C   0  0  0  0  0  0  0  0  0  0  0  0
  -26.2220  -11.9625   21.0702 N   0  0  0  0  0  0  0  0  0  0  0  0
  -30.7014  -22.2489   21.7800 N   0  0  0  0  0  0  0  0  0  0  0  0
  -26.3120  -13.1124   20.3804 N   0  0  0  0  0  0  0  0  0  0  0  0
  -24.7849  -32.7381   21.9379 N   0  0  0  0  0  0  0  0  0  0  0  0
  -29.7544  -14.7365   20.0715 N   0  0  0  0  0  0  0  0  0  0  0  0
  -25.0562  -14.9887   19.6644 N   0  0  0  0  0  0  0  0  0  0  0  0
  -22.0414  -12.5317   21.9601 N   0  0  0  0  0  0  0  0  0  0  0  0
  -29.3305  -17.0550   20.1574 N   0  0  0  0  0  0  0  0  0  0  0  0
  -25.8952  -36.0067   21.0358 N   0  0  0  0  0  0  0  0  0  0  0  0
  -22.2048  -31.1472   23.4446 N   0  0  0  0  0  0  0  0  0  0  0  0
  -21.2921  -27.9528   22.0197 N   0  3  0  0  0  0  0  0  0  0  0  0
  -22.3390  -14.4535   20.7449 O   0  0  0  0  0  0  0  0  0  0  0  0
  -29.0661  -25.2378   20.2347 O   0  0  0  0  0  0  0  0  0  0  0  0
  -26.7659  -34.4073   22.4870 O   0  0  0  0  0  0  0  0  0  0  0  0
  -22.6954  -33.7162   22.2748 O   0  0  0  0  0  0  0  0  0  0  0  0
  -23.4101  -29.1664   23.4189 O   0  0  0  0  0  0  0  0  0  0  0  0
  -31.3086  -16.2423   19.2582 O   0  0  0  0  0  0  0  0  0  0  0  0
  -23.0034   -7.6632   24.4915 O   0  0  0  0  0  0  0  0  0  0  0  0
  -29.8103  -29.2603   21.0996 O   0  0  0  0  0  0  0  0  0  1  0  0
  -18.1395   -5.4980   23.0567 F   0  0  0  0  0  0  0  0  0  0  0  0
  -32.6390  -20.3776   21.0998 F   0  0  0  0  0  0  0  0  0  0  0  0
  -22.7938   -5.0044   23.7638 F   0  0  0  0  0  0  0  0  0  0  0  0
  1  2  1  0  0  0  0
  1  5  2  0  0  0  0
  2  6  2  0  0  0  0
  3  8  2  0  0  0  0
  3 17  1  0  0  0  0
  4  9  1  0  0  0  0
  4 17  2  0  0  0  0
  5 20  1  0  0  0  0
  6 22  1  0  0  0  0
  7 10  2  0  0  0  0
  7 21  1  0  0  0  0
  8 26  1  0  0  0  0
  9 26  2  0  0  0  0
 10 27  1  0  0  0  0
 11 12  2  0  0  0  0
 11 28  1  0  0  0  0
 12 29  1  0  0  0  0
 13 18  1  0  0  0  0
 13 24  2  0  0  0  0
 14 23  1  0  0  0  0
 14 27  2  0  0  0  0
 15 25  1  0  0  0  0
 15 30  2  0  0  0  0
 16 29  2  0  0  0  0
 16 31  1  0  0  0  0
 17 32  1  0  0  0  0
 18 25  2  0  0  0  0
 18 35  1  0  0  0  0
 19 32  1  0  0  0  0
 19 33  2  0  0  0  0
 19 39  1  0  0  0  0
 20 22  2  0  0  0  0
 20 45  1  0  0  0  0
 21 23  2  0  0  0  0
 21 46  1  0  0  0  0
 22 54  1  0  0  0  0
 23 47  1  0  0  0  0
 24 30  1  0  0  0  0
 24 67  1  0  0  0  0
 25 73  1  0  0  0  0
 26 83  1  0  0  0  0
 27 84  1  0  0  0  0
 28 31  2  0  0  0  0
 28 83  1  0  0  0  0
 29 85  1  0  0  0  0
 30 86  1  0  0  0  0
 31 87  1  0  0  0  0
 32 66  2  0  0  0  0
 33 68  1  0  0  0  0
 33 71  1  0  0  0  0
 34 35  2  0  0  0  0
 36 37  2  0  0  0  0
 36 40  1  0  0  0  0
 37 84  1  0  0  0  0
 38 62  1  0  0  0  0
 38 67  2  0  0  0  0
 39 72  1  0  0  0  0
 39 77  2  0  0  0  0
 40 62  1  0  0  0  0
 40 78  2  0  0  0  0
 41 55  1  0  0  0  0
 41 74  1  0  0  0  0
 41 79  2  0  0  0  0
 42 63  1  0  0  0  0
 42 69  1  0  0  0  0
 42 80  2  0  0  0  0
 43 64  1  0  0  0  0
 43 75  1  0  0  0  0
 43 81  2  0  0  0  0
 44 70  1  0  0  0  0
 44 73  1  0  0  0  0
 44 82  2  0  0  0  0
 45 48  1  0  0  0  0
 46 55  1  0  0  0  0
 47 69  1  0  0  0  0
 48 50  1  0  0  0  0
 49 51  1  0  0  0  0
 49 52  1  0  0  0  0
 50 54  1  0  0  0  0
 51 56  1  0  0  0  0
 52 70  1  0  0  0  0
 53 56  1  0  0  0  0
 53 70  1  0  0  0  0
 54 74  1  0  0  0  0
 55 69  1  0  0  0  0
 56 68  1  0  0  0  0
 57 64  1  0  0  0  0
 58 65  1  0  0  0  0
 59 65  1  0  0  0  0
 60 65  1  0  0  0  0
 61 76  1  0  0  0  0
 63 65  1  0  0  0  0
 63 75  1  0  0  0  0
 64 76  1  0  0  0  0
 66 68  1  0  0  0  0
M  CHG  1  76   1
M  ISO  4  37 101  44 100  73 100  84 101
M  END
> <Batch ID>
0117

> <Smiles>
C=Cc1cc(NC=CC(=O)C=[101CH:1][101O:1]c2ccc3c(c2)CN(C(=O)C(NC(=O)C(C)NC)C(C)(C)C)C(C(=O)NC2CCCc4ccccc42)C3)c(F)cc1[100NH:0][100C:0](=O)N1CCCC(n2nc(-c3ccc(Oc4ccc(F)cc4F)cc3)c(C(N)=O)c2N)C1

> <Shape>
0.277

> <Color>
0.140

> <Negative vol penalty>
0.000

$$$$

  -OEChem-04052301463D

 83 91  0     1  0  0  0  0  0999 V2000
  -19.7777  -31.0112   20.7528 C   0  0  0  0  0  0  0  0  0  0  0  0
  -21.0948  -30.5660   20.8039 C   0  0  0  0  0  0  0  0  0  0  0  0
  -26.3781  -12.6241   21.3983 C   0  0  0  0  0  0  0  0  0  0  0  0
  -26.1698  -13.5777   19.1883 C   0  0  0  0  0  0  0  0  0  0  0  0
  -18.7722  -30.2842   21.3888 C   0  0  0  0  0  0  0  0  0  0  0  0
  -21.4073  -29.3941   21.4919 C   0  0  0  0  0  0  0  0  0  0  0  0
  -24.5624  -26.4009   18.8976 C   0  0  0  0  0  0  0  0  0  0  0  0
  -25.1268  -12.0241   21.2574 C   0  0  0  0  0  0  0  0  0  0  0  0
  -24.9185  -12.9777   19.0473 C   0  0  0  0  0  0  0  0  0  0  0  0
  -25.9122  -26.7499   18.8936 C   0  0  0  0  0  0  0  0  0  0  0  0
  -21.7507  -13.5493   20.0814 C   0  0  0  0  0  0  0  0  0  0  0  0
  -20.7151  -14.3249   19.5602 C   0  0  0  0  0  0  0  0  0  0  0  0
  -30.2679  -22.5387   19.0420 C   0  0  0  0  0  0  0  0  0  0  0  0
  -26.3383  -25.0977   20.5988 C   0  0  0  0  0  0  0  0  0  0  0  0
  -29.4410  -20.9971   17.3757 C   0  0  0  0  0  0  0  0  0  0  0  0
  -20.4745  -12.7709   17.7259 C   0  0  0  0  0  0  0  0  0  0  0  0
  -26.8996  -13.4010   20.3638 C   0  0  0  0  0  0  0  0  0  0  0  0
  -30.4073  -23.5223   18.0629 C   0  0  0  0  0  0  0  0  0  0  0  0
  -29.4410  -13.4767   20.1560 C   0  0  0  0  0  0  0  0  0  0  0  0
  -19.0711  -29.0976   22.0767 C   0  0  0  0  0  0  0  0  0  0  0  0
  -24.0877  -25.4035   19.7615 C   0  0  0  0  0  0  0  0  0  0  0  0
  -20.4050  -28.6513   22.1387 C   0  0  0  0  0  0  0  0  0  0  0  0
  -24.9825  -24.7361   20.6100 C   0  0  0  0  0  0  0  0  0  0  0  0
  -29.7848  -21.2761   18.6984 C   0  0  0  0  0  0  0  0  0  0  0  0
  -30.0635  -23.2433   16.7402 C   0  0  0  0  0  0  0  0  0  0  0  0
  -24.3970  -12.2009   20.0819 C   0  0  0  0  0  0  0  0  0  0  0  0
  -26.7999  -26.1004   19.7463 C   0  0  0  0  0  0  0  0  0  0  0  0
  -22.1483  -12.3846   19.4248 C   0  0  0  0  0  0  0  0  0  0  0  0
  -20.0770  -13.9357   18.3825 C   0  0  0  0  0  0  0  0  0  0  0  0
  -29.5803  -21.9807   16.3965 C   0  0  0  0  0  0  0  0  0  0  0  0
  -21.5102  -11.9954   18.2471 C   0  0  0  0  0  0  0  0  0  0  0  0
  -28.1918  -14.0215   20.5090 C   0  0  0  0  0  0  0  0  0  0  0  0
  -30.3480  -14.4523   20.4906 C   0  0  0  0  0  0  0  0  0  0  0  0
  -30.9177  -24.8382   18.4614 C   0  0  0  0  0  0  0  0  0  0  0  0
  -29.7534  -12.2027   19.5773 C   0  0  0  0  0  0  0  0  0  0  0  0
  -30.3512  -25.6712   19.3560 C   0  0  0  0  0  0  0  0  0  0  0  0
  -21.9995  -25.3181   22.1564 C   0  0  0  0  0  0  0  0  0  0  0  0
  -22.5693  -22.1274   22.0240 C   0  0  0  0  0  0  0  0  0  0  0  0
  -24.6793  -19.5955   21.1387 C   0  0  0  0  0  0  0  0  0  0  0  0
  -29.9391  -20.3874   21.0506 C   0  0  0  0  0  0  0  0  0  0  0  0
  -17.9576  -28.3711   22.7887 C   0  0  0  0  0  0  0  0  0  0  0  0
  -22.6335  -25.0201   19.7346 C   0  0  0  0  0  0  0  0  0  0  0  0
  -24.5269  -23.6443   21.5421 C   0  0  0  0  0  0  0  0  0  0  0  0
  -18.3165  -26.9398   23.1798 C   0  0  0  0  0  0  0  0  0  0  0  0
  -30.9879  -18.0798   23.5511 C   0  0  0  0  0  0  0  0  0  0  0  0
  -19.6964  -26.8937   23.8283 C   0  0  0  0  0  0  0  0  0  0  0  0
  -30.5089  -16.7269   23.0197 C   0  0  0  0  0  0  0  0  0  0  0  0
  -29.9969  -19.1977   23.2315 C   0  0  0  0  0  0  0  0  0  0  0  0
  -29.1401  -17.9538   21.2853 C   0  0  0  0  0  0  0  0  0  0  0  0
  -20.7800  -27.3716   22.8542 C   0  0  1  0  0  0  0  0  0  0  0  0
  -22.1692  -24.3469   21.0225 C   0  0  1  0  0  0  0  0  0  0  0  0
  -30.1363  -16.8079   21.5263 C   0  0  2  0  0  0  0  0  0  0  0  0
  -31.0032  -26.9923   19.6728 C   0  0  0  0  0  0  0  0  0  0  0  0
  -24.8869  -17.0951   21.1909 C   0  0  0  0  0  0  0  0  0  0  0  0
  -23.2127  -22.2454   25.0043 C   0  0  0  0  0  0  0  0  0  0  0  0
  -24.3033  -20.0024   24.7866 C   0  0  0  0  0  0  0  0  0  0  0  0
  -21.8688  -20.2555   24.3052 C   0  0  0  0  0  0  0  0  0  0  0  0
  -24.8296  -19.4304   18.1876 C   0  0  0  0  0  0  0  0  0  0  0  0
  -29.0529  -25.4135   20.0754 C   0  0  0  0  0  0  0  0  0  1  0  0
  -23.5587  -21.1903   22.6734 C   0  0  1  0  0  0  0  0  0  0  0  0
  -24.4386  -18.3020   20.3814 C   0  0  2  0  0  0  0  0  0  0  0  0
  -23.2444  -20.9453   24.1763 C   0  0  0  0  0  0  0  0  0  0  0  0
  -28.2924  -15.2480   21.0283 N   0  0  0  0  0  0  0  0  0  0  0  0
  -29.6155  -15.4820   21.0040 N   0  0  0  0  0  0  0  0  0  0  0  0
  -23.0943  -23.3097   21.4834 N   0  0  0  0  0  0  0  0  0  0  0  0
  -29.6943  -19.2164   21.7987 N   0  0  0  0  0  0  0  0  0  0  0  0
  -30.1961  -24.2231   15.7296 N   0  0  0  0  0  0  0  0  0  0  0  0
  -31.6926  -14.5213   20.3929 N   0  0  0  0  0  0  0  0  0  0  0  0
  -28.7014  -11.3203   19.2965 N   0  0  0  0  0  0  0  0  0  0  0  0
  -29.6435  -20.2761   19.6923 N   0  0  0  0  0  0  0  0  0  0  0  0
  -21.0955  -26.3310   21.8991 N   0  0  0  0  0  0  0  0  0  0  0  0
  -23.5685  -19.9793   21.8599 N   0  0  0  0  0  0  0  0  0  0  0  0
  -25.1882  -18.3088   19.0934 N   0  3  0  0  0  0  0  0  0  0  0  0
  -30.9322  -11.8505   19.3321 O   0  0  0  0  0  0  0  0  0  0  0  0
  -22.6401  -25.1592   23.1889 O   0  0  0  0  0  0  0  0  0  0  0  0
  -21.3755  -21.8184   21.9911 O   0  0  0  0  0  0  0  0  0  0  0  0
  -25.7472  -20.2025   21.0979 O   0  0  0  0  0  0  0  0  0  0  0  0
  -30.4042  -21.4046   21.5711 O   0  0  0  0  0  0  0  0  0  0  0  0
  -23.1761  -11.6153   19.9439 O   0  0  0  0  0  0  0  0  0  0  0  0
  -28.1178  -26.4396   19.7449 O   0  0  0  0  0  0  0  0  0  1  0  0
  -19.0815  -14.6797   17.8830 F   0  0  0  0  0  0  0  0  0  0  0  0
  -29.2469  -21.6997   15.1287 F   0  0  0  0  0  0  0  0  0  0  0  0
  -21.8869  -10.8769   17.6125 F   0  0  0  0  0  0  0  0  0  0  0  0
  1  2  1  0  0  0  0
  1  5  2  0  0  0  0
  2  6  2  0  0  0  0
  3  8  2  0  0  0  0
  3 17  1  0  0  0  0
  4  9  1  0  0  0  0
  4 17  2  0  0  0  0
  5 20  1  0  0  0  0
  6 22  1  0  0  0  0
  7 10  2  0  0  0  0
  7 21  1  0  0  0  0
  8 26  1  0  0  0  0
  9 26  2  0  0  0  0
 10 27  1  0  0  0  0
 11 12  2  0  0  0  0
 11 28  1  0  0  0  0
 12 29  1  0  0  0  0
 13 18  1  0  0  0  0
 13 24  2  0  0  0  0
 14 23  1  0  0  0  0
 14 27  2  0  0  0  0
 15 24  1  0  0  0  0
 15 30  2  0  0  0  0
 16 29  2  0  0  0  0
 16 31  1  0  0  0  0
 17 32  1  0  0  0  0
 18 25  2  0  0  0  0
 18 34  1  0  0  0  0
 19 32  1  0  0  0  0
 19 33  2  0  0  0  0
 19 35  1  0  0  0  0
 20 22  2  0  0  0  0
 20 41  1  0  0  0  0
 21 23  2  0  0  0  0
 21 42  1  0  0  0  0
 22 50  1  0  0  0  0
 23 43  1  0  0  0  0
 24 70  1  0  0  0  0
 25 30  1  0  0  0  0
 25 67  1  0  0  0  0
 26 79  1  0  0  0  0
 27 80  1  0  0  0  0
 28 31  2  0  0  0  0
 28 79  1  0  0  0  0
 29 81  1  0  0  0  0
 30 82  1  0  0  0  0
 31 83  1  0  0  0  0
 32 63  2  0  0  0  0
 33 64  1  0  0  0  0
 33 68  1  0  0  0  0
 34 36  2  0  0  0  0
 35 69  1  0  0  0  0
 35 74  2  0  0  0  0
 36 53  1  0  0  0  0
 36 59  1  0  0  0  0
 37 51  1  0  0  0  0
 37 71  1  0  0  0  0
 37 75  2  0  0  0  0
 38 60  1  0  0  0  0
 38 65  1  0  0  0  0
 38 76  2  0  0  0  0
 39 61  1  0  0  0  0
 39 72  1  0  0  0  0
 39 77  2  0  0  0  0
 40 66  1  0  0  0  0
 40 70  1  0  0  0  0
 40 78  2  0  0  0  0
 41 44  1  0  0  0  0
 42 51  1  0  0  0  0
 43 65  1  0  0  0  0
 44 46  1  0  0  0  0
 45 47  1  0  0  0  0
 45 48  1  0  0  0  0
 46 50  1  0  0  0  0
 47 52  1  0  0  0  0
 48 66  1  0  0  0  0
 49 52  1  0  0  0  0
 49 66  1  0  0  0  0
 50 71  1  0  0  0  0
 51 65  1  0  0  0  0
 52 64  1  0  0  0  0
 54 61  1  0  0  0  0
 55 62  1  0  0  0  0
 56 62  1  0  0  0  0
 57 62  1  0  0  0  0
 58 73  1  0  0  0  0
 59 80  1  0  0  0  0
 60 62  1  0  0  0  0
 60 72  1  0  0  0  0
 61 73  1  0  0  0  0
 63 64  1  0  0  0  0
M  CHG  1  73   1
M  ISO  4  40 100  59 101  70 100  80 101
M  END
> <Batch ID>
0117

> <Smiles>
CNC(C)C(=O)NC(C(=O)N1Cc2cc([101O:1][101CH2:1]C(C)=Cc3cc([100NH:0][100C:0](=O)N4CCCC(n5nc(-c6ccc(Oc7ccc(F)cc7F)cc6)c(C(N)=O)c5N)C4)cc(F)c3N)ccc2CC1C(=O)NC1CCCc2ccccc21)C(C)(C)C

> <Shape>
0.233

> <Color>
0.061

> <Negative vol penalty>
0.000

$$$$

  -OEChem-04052301463D

 87 96  0     1  0  0  0  0  0999 V2000
  -16.9835  -28.3606   23.4547 C   0  0  0  0  0  0  0  0  0  0  0  0
  -17.9039  -28.1619   22.4306 C   0  0  0  0  0  0  0  0  0  0  0  0
  -26.2094  -11.8118   21.5924 C   0  0  0  0  0  0  0  0  0  0  0  0
  -25.6971  -12.2713   19.2764 C   0  0  0  0  0  0  0  0  0  0  0  0
  -17.0416  -29.5197   24.2274 C   0  0  0  0  0  0  0  0  0  0  0  0
  -18.8823  -29.1227   22.1779 C   0  0  0  0  0  0  0  0  0  0  0  0
  -23.5457  -27.0598   21.4788 C   0  0  0  0  0  0  0  0  0  0  0  0
  -24.9872  -11.1545   21.7323 C   0  0  0  0  0  0  0  0  0  0  0  0
  -24.4749  -11.6138   19.4164 C   0  0  0  0  0  0  0  0  0  0  0  0
  -23.8330  -26.4737   20.2468 C   0  0  0  0  0  0  0  0  0  0  0  0
  -23.6797   -8.1346   20.9551 C   0  0  0  0  0  0  0  0  0  0  0  0
  -23.6750   -6.9099   21.6227 C   0  0  0  0  0  0  0  0  0  0  0  0
  -28.4788  -21.4218   14.5340 C   0  0  0  0  0  0  0  0  0  0  0  0
  -27.9944  -20.9637   16.8435 C   0  0  0  0  0  0  0  0  0  0  0  0
  -24.9571  -28.4927   19.5554 C   0  0  0  0  0  0  0  0  0  0  0  0
  -22.1555   -7.8133   23.2695 C   0  0  0  0  0  0  0  0  0  0  0  0
  -26.5644  -12.3703   20.3644 C   0  0  0  0  0  0  0  0  0  0  0  0
  -29.2679  -20.2633   14.4719 C   0  0  0  0  0  0  0  0  0  0  0  0
  -27.8472  -21.7718   15.7232 C   0  0  0  0  0  0  0  0  0  0  0  0
  -29.0572  -12.4848   19.8349 C   0  0  0  0  0  0  0  0  0  0  0  0
  -18.0272  -30.4908   23.9903 C   0  0  0  0  0  0  0  0  0  0  0  0
  -23.9536  -28.3727   21.7555 C   0  0  0  0  0  0  0  0  0  0  0  0
  -18.9528  -30.2965   22.9472 C   0  0  0  0  0  0  0  0  0  0  0  0
  -24.6780  -29.0913   20.7934 C   0  0  0  0  0  0  0  0  0  0  0  0
  -29.4460  -19.4374   15.5955 C   0  0  0  0  0  0  0  0  0  0  0  0
  -28.7803  -19.8093   16.7775 C   0  0  0  0  0  0  0  0  0  0  0  0
  -24.1199  -11.0554   20.6444 C   0  0  0  0  0  0  0  0  0  0  0  0
  -24.5368  -27.1910   19.2841 C   0  0  0  0  0  0  0  0  0  0  0  0
  -22.9223   -9.1988   21.4448 C   0  0  0  0  0  0  0  0  0  0  0  0
  -22.9130   -6.7493   22.7799 C   0  0  0  0  0  0  0  0  0  0  0  0
  -22.1602   -9.0381   22.6020 C   0  0  0  0  0  0  0  0  0  0  0  0
  -27.8265  -13.0500   20.2194 C   0  0  0  0  0  0  0  0  0  0  0  0
  -29.9381  -13.5385   19.8482 C   0  0  0  0  0  0  0  0  0  0  0  0
  -29.8629  -19.8928   13.1673 C   0  0  0  0  0  0  0  0  0  0  0  0
  -27.0335  -22.9977   15.7960 C   0  0  0  0  0  0  0  0  0  0  0  0
  -26.7012  -23.6350   16.9298 C   0  0  0  0  0  0  0  0  0  0  0  0
  -25.9053  -24.8420   16.9443 C   0  0  0  0  0  0  0  0  0  0  0  0
  -25.5716  -25.4805   18.0699 C   0  0  0  0  0  0  0  0  0  1  0  0
  -29.3756  -11.1286   19.4959 C   0  0  0  0  0  0  0  0  0  0  0  0
  -22.5213  -31.1393   22.4905 C   0  0  0  0  0  0  0  0  0  0  0  0
  -25.6890  -32.0879   22.8359 C   0  0  0  0  0  0  0  0  0  0  0  0
  -24.6162  -34.9274   24.3936 C   0  0  0  0  0  0  0  0  0  0  0  0
  -29.2513  -19.4415   19.2248 C   0  0  0  0  0  0  0  0  0  0  0  0
  -18.0208  -31.7495   24.8211 C   0  0  0  0  0  0  0  0  0  0  0  0
  -23.6598  -28.9758   23.1025 C   0  0  0  0  0  0  0  0  0  0  0  0
  -25.1410  -30.5012   21.0431 C   0  0  0  0  0  0  0  0  0  0  0  0
  -19.3208  -32.5448   24.7318 C   0  0  0  0  0  0  0  0  0  0  0  0
  -30.7087  -17.7483   21.9972 C   0  0  0  0  0  0  0  0  0  0  0  0
  -19.7661  -32.6786   23.2790 C   0  0  0  0  0  0  0  0  0  0  0  0
  -30.2520  -16.2987   21.8176 C   0  0  0  0  0  0  0  0  0  0  0  0
  -29.6247  -18.7403   21.5793 C   0  0  0  0  0  0  0  0  0  0  0  0
  -28.6267  -17.0868   20.0500 C   0  0  0  0  0  0  0  0  0  0  0  0
  -31.2221  -18.3255   14.4362 C   0  0  0  0  0  0  0  0  0  0  0  0
  -20.0443  -31.3042   22.6585 C   0  0  1  0  0  0  0  0  0  0  0  0
  -23.7292  -30.5015   23.1162 C   0  0  1  0  0  0  0  0  0  0  0  0
  -29.7086  -16.0510   20.3967 C   0  0  2  0  0  0  0  0  0  0  0  0
  -25.4637  -36.9105   25.6767 C   0  0  0  0  0  0  0  0  0  0  0  0
  -26.0764  -30.3264   25.2960 C   0  0  0  0  0  0  0  0  0  0  0  0
  -25.9775  -32.3937   26.7047 C   0  0  0  0  0  0  0  0  0  0  0  0
  -27.7946  -32.1221   25.0174 C   0  0  0  0  0  0  0  0  0  0  0  0
  -30.4592  -17.4156   16.6293 C   0  0  0  0  0  0  0  0  0  0  0  0
  -23.5801  -36.8244   22.3720 C   0  0  0  0  0  0  0  0  0  0  0  0
  -25.4367  -32.5915   24.2350 C   0  0  1  0  0  0  0  0  0  0  0  0
  -25.0928  -36.3660   24.3060 C   0  0  2  0  0  0  0  0  0  0  0  0
  -26.2999  -31.8518   25.2958 C   0  0  0  0  0  0  0  0  0  0  0  0
  -27.9139  -14.3610   20.4596 N   0  0  0  0  0  0  0  0  0  0  0  0
  -29.2099  -14.6283   20.2255 N   0  0  0  0  0  0  0  0  0  0  0  0
  -30.2376  -18.3012   15.4990 N   0  0  1  0  0  0  0  0  0  0  0  0
  -24.9044  -31.0128   22.3993 N   0  0  0  0  0  0  0  0  0  0  0  0
  -29.1612  -18.4468   20.2214 N   0  0  0  0  0  0  0  0  0  0  0  0
  -31.2567  -13.6299   19.5739 N   0  0  0  0  0  0  0  0  0  0  0  0
  -28.3515  -10.1724   19.5335 N   0  0  0  0  0  0  0  0  0  0  0  0
  -28.8107  -19.0370   17.9651 N   0  0  0  0  0  0  0  0  0  0  0  0
  -21.3277  -30.8011   23.0992 N   0  0  0  0  0  0  0  0  0  0  0  0
  -25.6478  -34.0345   24.1937 N   0  0  0  0  0  0  0  0  0  0  0  0
  -24.0250  -37.2312   23.7298 N   0  3  0  0  0  0  0  0  0  0  0  0
  -29.5737  -20.4794   12.1332 O   0  0  0  0  0  0  0  0  0  0  0  0
  -30.5374  -10.7719   19.1852 O   0  0  0  0  0  0  0  0  0  0  0  0
  -22.6618  -31.8844   21.5279 O   0  0  0  0  0  0  0  0  0  0  0  0
  -26.5623  -32.6261   22.1497 O   0  0  0  0  0  0  0  0  0  0  0  0
  -23.4466  -34.6258   24.6206 O   0  0  0  0  0  0  0  0  0  0  0  0
  -29.7125  -20.5603   19.4643 O   0  0  0  0  0  0  0  0  0  0  0  0
  -30.7201  -18.8439   13.1885 O   0  0  0  0  0  0  0  0  0  0  0  0
  -22.9273  -10.4138   20.7805 O   0  0  0  0  0  0  0  0  0  0  0  0
  -24.8190  -26.6212   18.0809 O   0  0  0  0  0  0  0  0  0  1  0  0
  -22.9074   -5.5726   23.4199 F   0  0  0  0  0  0  0  0  0  0  0  0
  -21.4296  -10.0564   23.0765 F   0  0  0  0  0  0  0  0  0  0  0  0
  1  2  1  0  0  0  0
  1  5  2  0  0  0  0
  2  6  2  0  0  0  0
  3  8  2  0  0  0  0
  3 17  1  0  0  0  0
  4  9  1  0  0  0  0
  4 17  2  0  0  0  0
  5 21  1  0  0  0  0
  6 23  1  0  0  0  0
  7 10  2  0  0  0  0
  7 22  1  0  0  0  0
  8 27  1  0  0  0  0
  9 27  2  0  0  0  0
 10 28  1  0  0  0  0
 11 12  2  0  0  0  0
 11 29  1  0  0  0  0
 12 30  1  0  0  0  0
 13 18  1  0  0  0  0
 13 19  2  0  0  0  0
 14 19  1  0  0  0  0
 14 26  2  0  0  0  0
 15 24  1  0  0  0  0
 15 28  2  0  0  0  0
 16 30  2  0  0  0  0
 16 31  1  0  0  0  0
 17 32  1  0  0  0  0
 18 25  2  0  0  0  0
 18 34  1  0  0  0  0
 19 35  1  0  0  0  0
 20 32  1  0  0  0  0
 20 33  2  0  0  0  0
 20 39  1  0  0  0  0
 21 23  2  0  0  0  0
 21 44  1  0  0  0  0
 22 24  2  0  0  0  0
 22 45  1  0  0  0  0
 23 54  1  0  0  0  0
 24 46  1  0  0  0  0
 25 26  1  0  0  0  0
 25 68  1  0  0  0  0
 26 73  1  0  0  0  0
 27 84  1  0  0  0  0
 28 85  1  0  0  0  0
 29 31  2  0  0  0  0
 29 84  1  0  0  0  0
 30 86  1  0  0  0  0
 31 87  1  0  0  0  0
 32 66  2  0  0  0  0
 33 67  1  0  0  0  0
 33 71  1  0  0  0  0
 34 77  2  0  0  0  0
 34 83  1  0  0  0  0
 35 36  2  0  0  0  0
 36 37  1  0  0  0  0
 37 38  2  0  0  0  0
 38 85  1  0  0  0  0
 39 72  1  0  0  0  0
 39 78  2  0  0  0  0
 40 55  1  0  0  0  0
 40 74  1  0  0  0  0
 40 79  2  0  0  0  0
 41 63  1  0  0  0  0
 41 69  1  0  0  0  0
 41 80  2  0  0  0  0
 42 64  1  0  0  0  0
 42 75  1  0  0  0  0
 42 81  2  0  0  0  0
 43 70  1  0  0  0  0
 43 73  1  0  0  0  0
 43 82  2  0  0  0  0
 44 47  1  0  0  0  0
 45 55  1  0  0  0  0
 46 69  1  0  0  0  0
 47 49  1  0  0  0  0
 48 50  1  0  0  0  0
 48 51  1  0  0  0  0
 49 54  1  0  0  0  0
 50 56  1  0  0  0  0
 51 70  1  0  0  0  0
 52 56  1  0  0  0  0
 52 70  1  0  0  0  0
 53 68  1  0  0  0  0
 53 83  1  0  0  0  0
 54 74  1  0  0  0  0
 55 69  1  0  0  0  0
 56 67  1  0  0  0  0
 57 64  1  0  0  0  0
 58 65  1  0  0  0  0
 59 65  1  0  0  0  0
 60 65  1  0  0  0  0
 61 68  1  0  0  0  0
 62 76  1  0  0  0  0
 63 65  1  0  0  0  0
 63 75  1  0  0  0  0
 64 76  1  0  0  0  0
 66 67  1  0  0  0  0
M  CHG  1  76   1
M  ISO  4  38 101  43 100  73 100  85 101
M  END
> <Batch ID>
0117

> <Smiles>
CNC(C)C(=O)NC(C(=O)N1Cc2cc([101O:1][101CH:1]=CC=Cc3cc([100NH:0][100C:0](=O)N4CCCC(n5nc(-c6ccc(Oc7ccc(F)cc7F)cc6)c(C(N)=O)c5N)C4)c4c(c3)C(=O)OCN4C)ccc2CC1C(=O)NC1CCCc2ccccc21)C(C)(C)C

> <Shape>
0.344

> <Color>
0.096

> <Negative vol penalty>
0.000

$$$$

  -OEChem-04052301463D

 89 97  0     1  0  0  0  0  0999 V2000
  -19.4586  -32.1082   18.2102 C   0  0  0  0  0  0  0  0  0  0  0  0
  -19.9703  -30.8165   18.2828 C   0  0  0  0  0  0  0  0  0  0  0  0
  -23.0044  -10.2138   19.9603 C   0  0  0  0  0  0  0  0  0  0  0  0
  -23.8805   -9.6053   22.1281 C   0  0  0  0  0  0  0  0  0  0  0  0
  -19.7785  -33.0400   19.1968 C   0  0  0  0  0  0  0  0  0  0  0  0
  -20.8031  -30.4562   19.3415 C   0  0  0  0  0  0  0  0  0  0  0  0
  -19.6049  -25.9458   21.3076 C   0  0  0  0  0  0  0  0  0  0  0  0
  -22.1365   -9.1228   20.0048 C   0  0  0  0  0  0  0  0  0  0  0  0
  -23.0126   -8.5143   22.1726 C   0  0  0  0  0  0  0  0  0  0  0  0
  -20.0198  -24.8148   20.6059 C   0  0  0  0  0  0  0  0  0  0  0  0
  -19.7468   -7.9572   22.8393 C   0  0  0  0  0  0  0  0  0  0  0  0
  -19.0543   -7.7299   24.0286 C   0  0  0  0  0  0  0  0  0  0  0  0
  -27.1214  -18.1081   16.7499 C   0  0  0  0  0  0  0  0  0  0  0  0
  -21.8818  -24.5662   22.1193 C   0  0  0  0  0  0  0  0  0  0  0  0
  -27.2054  -20.2965   18.4781 C   0  0  0  0  0  0  0  0  0  0  0  0
  -20.0811   -5.5504   24.2100 C   0  0  0  0  0  0  0  0  0  0  0  0
  -23.8765  -10.4550   21.0219 C   0  0  0  0  0  0  0  0  0  0  0  0
  -28.2218  -18.2941   17.5866 C   0  0  0  0  0  0  0  0  0  0  0  0
  -24.5247  -12.8861   21.4433 C   0  0  0  0  0  0  0  0  0  0  0  0
  -20.6079  -32.6881   20.2733 C   0  0  0  0  0  0  0  0  0  0  0  0
  -20.3327  -26.4026   22.4158 C   0  0  0  0  0  0  0  0  0  0  0  0
  -21.1355  -31.3846   20.3428 C   0  0  0  0  0  0  0  0  0  0  0  0
  -21.4726  -25.7018   22.8349 C   0  0  0  0  0  0  0  0  0  0  0  0
  -28.2638  -19.3883   18.4507 C   0  0  0  0  0  0  0  0  0  0  0  0
  -22.1406   -8.2730   21.1109 C   0  0  0  0  0  0  0  0  0  0  0  0
  -21.1600  -24.1265   21.0099 C   0  0  0  0  0  0  0  0  0  0  0  0
  -20.6063   -6.9810   22.3352 C   0  0  0  0  0  0  0  0  0  0  0  0
  -26.0630  -19.0163   16.7772 C   0  0  0  0  0  0  0  0  0  0  0  0
  -26.1050  -20.1105   17.6413 C   0  0  0  0  0  0  0  0  0  0  0  0
  -19.2215   -6.5266   24.7140 C   0  0  0  0  0  0  0  0  0  0  0  0
  -20.7735   -5.7777   23.0206 C   0  0  0  0  0  0  0  0  0  0  0  0
  -24.7737  -11.5816   20.9763 C   0  0  0  0  0  0  0  0  0  0  0  0
  -25.6811  -13.5750   21.1703 C   0  0  0  0  0  0  0  0  0  0  0  0
  -29.3356  -17.3125   17.5357 C   0  0  0  0  0  0  0  0  0  0  0  0
  -23.3529  -13.4267   22.0681 C   0  0  0  0  0  0  0  0  0  0  0  0
  -21.9092  -29.0718   23.1186 C   0  0  0  0  0  0  0  0  0  0  0  0
  -23.3584  -22.0291   19.0353 C   0  0  0  0  0  0  0  0  0  0  0  0
  -22.1952  -27.6735   26.0316 C   0  0  0  0  0  0  0  0  0  0  0  0
  -22.2314  -24.8024   27.8761 C   0  0  0  0  0  0  0  0  0  0  0  0
  -29.8799  -14.9144   17.8126 C   0  0  0  0  0  0  0  0  0  0  0  0
  -20.9639  -33.7432   21.2905 C   0  0  0  0  0  0  0  0  0  0  0  0
  -19.8569  -27.6087   23.1782 C   0  0  0  0  0  0  0  0  0  0  0  0
  -22.2776  -26.1393   24.0304 C   0  0  0  0  0  0  0  0  0  0  0  0
  -21.5505  -33.1733   22.5795 C   0  0  0  0  0  0  0  0  0  0  0  0
  -30.2259  -11.9229   19.6641 C   0  0  0  0  0  0  0  0  0  0  0  0
  -22.6176  -32.1298   22.2647 C   0  0  0  0  0  0  0  0  0  0  0  0
  -28.8198  -11.6760   20.2174 C   0  0  0  0  0  0  0  0  0  0  0  0
  -30.1860  -12.4930   18.2469 C   0  0  0  0  0  0  0  0  0  0  0  0
  -27.9449  -13.4359   18.6296 C   0  0  0  0  0  0  0  0  0  0  0  0
  -22.0222  -30.9485   21.4889 C   0  0  1  0  0  0  0  0  0  0  0  0
  -20.9648  -28.2833   23.9813 C   0  0  1  0  0  0  0  0  0  0  0  0
  -27.9301  -12.9278   20.0804 C   0  0  1  0  0  0  0  0  0  0  0  0
  -30.6047  -18.8827   21.4789 C   0  0  0  0  0  0  0  0  0  0  0  0
  -22.5240  -23.9749   30.2271 C   0  0  0  0  0  0  0  0  0  0  0  0
  -25.2055  -28.1204   25.8117 C   0  0  0  0  0  0  0  0  0  0  0  0
  -25.5157  -26.4712   27.6697 C   0  0  0  0  0  0  0  0  0  0  0  0
  -24.2453  -28.5794   28.0748 C   0  0  0  0  0  0  0  0  0  0  0  0
  -19.5125  -23.6347   27.9268 C   0  0  0  0  0  0  0  0  0  0  0  0
  -23.9163  -18.0414   16.4660 C   0  0  0  0  0  0  0  0  0  0  0  0
  -29.4304  -19.6114   19.3570 C   0  0  0  0  0  0  0  0  0  0  0  0
  -22.9680  -22.7493   20.3097 C   0  0  0  0  0  0  0  0  0  1  0  0
  -24.8231  -21.6649   18.9047 C   0  0  0  0  0  0  0  0  0  0  0  0
  -29.3993  -18.6774   20.5752 C   0  0  0  0  0  0  0  0  0  0  0  0
  -23.1974  -26.7494   26.6801 C   0  0  1  0  0  0  0  0  0  0  0  0
  -21.5297  -24.4266   29.1687 C   0  0  2  0  0  0  0  0  0  0  0  0
  -24.5271  -27.4727   27.0354 C   0  0  0  0  0  0  0  0  0  0  0  0
  -25.9924  -11.4474   20.4466 N   0  0  0  0  0  0  0  0  0  0  0  0
  -26.5196  -12.6764   20.5790 N   0  0  0  0  0  0  0  0  0  0  0  0
  -21.7754  -27.3280   24.7392 N   0  0  0  0  0  0  0  0  0  0  0  0
  -29.3312  -13.6807   18.2040 N   0  0  0  0  0  0  0  0  0  0  0  0
  -26.0522  -14.8558   21.3806 N   0  0  0  0  0  0  0  0  0  0  0  0
  -22.2546  -12.5806   22.2736 N   0  0  0  0  0  0  0  0  0  0  0  0
  -28.9927  -15.9961   17.8454 N   0  0  0  0  0  0  0  0  0  0  0  0
  -21.2990  -30.0698   22.3830 N   0  0  0  0  0  0  0  0  0  0  0  0
  -22.5192  -26.1499   27.8242 N   0  0  0  0  0  0  0  0  0  0  0  0
  -20.5620  -23.3188   28.9296 N   0  3  0  0  0  0  0  0  0  0  0  0
  -30.4527  -17.6926   17.1961 O   0  0  0  0  0  0  0  0  0  0  0  0
  -23.2759  -14.6287   22.4185 O   0  0  0  0  0  0  0  0  0  0  0  0
  -23.1032  -28.7962   23.1215 O   0  0  0  0  0  0  0  0  0  0  0  0
  -22.5371  -21.7576   18.1608 O   0  0  0  0  0  0  0  0  0  0  0  0
  -21.7940  -28.6615   26.6517 O   0  0  0  0  0  0  0  0  0  0  0  0
  -22.5009  -23.9819   27.0016 O   0  0  0  0  0  0  0  0  0  0  0  0
  -31.0665  -15.0492   17.4980 O   0  0  0  0  0  0  0  0  0  0  0  0
  -21.2936   -7.2084   21.1548 O   0  0  0  0  0  0  0  0  0  0  0  0
  -24.9939  -18.8235   15.9552 O   0  0  0  0  0  0  0  0  0  0  0  0
  -21.5675  -23.0227   20.3263 O   0  0  0  0  0  0  0  0  0  1  0  0
  -25.0683  -21.0128   17.6766 O   0  0  0  0  0  0  0  0  0  0  0  0
  -18.5577   -6.3091   25.8569 F   0  0  0  0  0  0  0  0  0  0  0  0
  -21.5987   -4.8366   22.5419 F   0  0  0  0  0  0  0  0  0  0  0  0
  1  2  1  0  0  0  0
  1  5  2  0  0  0  0
  2  6  2  0  0  0  0
  3  8  2  0  0  0  0
  3 17  1  0  0  0  0
  4  9  1  0  0  0  0
  4 17  2  0  0  0  0
  5 20  1  0  0  0  0
  6 22  1  0  0  0  0
  7 10  2  0  0  0  0
  7 21  1  0  0  0  0
  8 25  1  0  0  0  0
  9 25  2  0  0  0  0
 10 26  1  0  0  0  0
 11 12  2  0  0  0  0
 11 27  1  0  0  0  0
 12 30  1  0  0  0  0
 13 18  1  0  0  0  0
 13 28  2  0  0  0  0
 14 23  1  0  0  0  0
 14 26  2  0  0  0  0
 15 24  1  0  0  0  0
 15 29  2  0  0  0  0
 16 30  2  0  0  0  0
 16 31  1  0  0  0  0
 17 32  1  0  0  0  0
 18 24  2  0  0  0  0
 18 34  1  0  0  0  0
 19 32  1  0  0  0  0
 19 33  2  0  0  0  0
 19 35  1  0  0  0  0
 20 22  2  0  0  0  0
 20 41  1  0  0  0  0
 21 23  2  0  0  0  0
 21 42  1  0  0  0  0
 22 50  1  0  0  0  0
 23 43  1  0  0  0  0
 24 60  1  0  0  0  0
 25 84  1  0  0  0  0
 26 86  1  0  0  0  0
 27 31  2  0  0  0  0
 27 84  1  0  0  0  0
 28 29  1  0  0  0  0
 28 85  1  0  0  0  0
 29 87  1  0  0  0  0
 30 88  1  0  0  0  0
 31 89  1  0  0  0  0
 32 67  2  0  0  0  0
 33 68  1  0  0  0  0
 33 71  1  0  0  0  0
 34 73  1  0  0  0  0
 34 77  2  0  0  0  0
 35 72  1  0  0  0  0
 35 78  2  0  0  0  0
 36 51  1  0  0  0  0
 36 74  1  0  0  0  0
 36 79  2  0  0  0  0
 37 61  1  0  0  0  0
 37 62  1  0  0  0  0
 37 80  2  0  0  0  0
 38 64  1  0  0  0  0
 38 69  1  0  0  0  0
 38 81  2  0  0  0  0
 39 65  1  0  0  0  0
 39 75  1  0  0  0  0
 39 82  2  0  0  0  0
 40 70  1  0  0  0  0
 40 73  1  0  0  0  0
 40 83  2  0  0  0  0
 41 44  1  0  0  0  0
 42 51  1  0  0  0  0
 43 69  1  0  0  0  0
 44 46  1  0  0  0  0
 45 47  1  0  0  0  0
 45 48  1  0  0  0  0
 46 50  1  0  0  0  0
 47 52  1  0  0  0  0
 48 70  1  0  0  0  0
 49 52  1  0  0  0  0
 49 70  1  0  0  0  0
 50 74  1  0  0  0  0
 51 69  1  0  0  0  0
 52 68  1  0  0  0  0
 53 63  1  0  0  0  0
 54 65  1  0  0  0  0
 55 66  1  0  0  0  0
 56 66  1  0  0  0  0
 57 66  1  0  0  0  0
 58 76  1  0  0  0  0
 59 85  1  0  0  0  0
 60 63  1  0  0  0  0
 61 86  1  0  0  0  0
 62 87  1  0  0  0  0
 64 66  1  0  0  0  0
 64 75  1  0  0  0  0
 65 76  1  0  0  0  0
 67 68  1  0  0  0  0
M  CHG  1  76   1
M  ISO  4  40 100  61 101  73 100  86 101
M  END
> <Batch ID>
0117

> <Smiles>
CCCc1cc(OCC(=O)[101CH2:1][101O:1]c2ccc3c(c2)CN(C(=O)C(NC(=O)C(C)NC)C(C)(C)C)C(C(=O)NC2CCCc4ccccc42)C3)c(OC)cc1C(=O)[100NH:0][100C:0](=O)N1CCCC(n2nc(-c3ccc(Oc4ccc(F)cc4F)cc3)c(C(N)=O)c2N)C1

> <Shape>
0.217

> <Color>
0.137

> <Negative vol penalty>
0.000

$$$$

  -OEChem-04052301463D

 91100  0     1  0  0  0  0  0999 V2000
  -28.4836  -32.1642   27.0562 C   0  0  0  0  0  0  0  0  0  0  0  0
  -28.3607  -31.0496   26.2328 C   0  0  0  0  0  0  0  0  0  0  0  0
  -22.5027  -15.2936   21.0177 C   0  0  0  0  0  0  0  0  0  0  0  0
  -23.9022  -16.8498   22.2246 C   0  0  0  0  0  0  0  0  0  0  0  0
  -27.3622  -32.9380   27.3519 C   0  0  0  0  0  0  0  0  0  0  0  0
  -27.1160  -30.7075   25.7056 C   0  0  0  0  0  0  0  0  0  0  0  0
  -27.3511  -29.5067   20.7916 C   0  0  0  0  0  0  0  0  0  0  0  0
  -31.7780  -16.4815   22.2592 C   0  0  0  0  0  0  0  0  0  0  0  0
  -21.4861  -15.4816   21.9540 C   0  0  0  0  0  0  0  0  0  0  0  0
  -22.8856  -17.0378   23.1610 C   0  0  0  0  0  0  0  0  0  0  0  0
  -27.8288  -28.2374   20.4685 C   0  0  0  0  0  0  0  0  0  0  0  0
  -20.7480  -14.4173   25.0760 C   0  0  0  0  0  0  0  0  0  0  0  0
  -20.0897  -13.2839   25.5532 C   0  0  0  0  0  0  0  0  0  0  0  0
  -31.0116  -17.6282   22.0834 C   0  0  0  0  0  0  0  0  0  0  0  0
  -28.5129  -19.2486   21.2281 C   0  0  0  0  0  0  0  0  0  0  0  0
  -30.1542  -20.0231   19.6333 C   0  0  0  0  0  0  0  0  0  0  0  0
  -25.5624  -27.4675   20.1684 C   0  0  0  0  0  0  0  0  0  0  0  0
  -17.9967  -14.1422   24.7049 C   0  0  0  0  0  0  0  0  0  0  0  0
  -23.7108  -15.9777   21.1530 C   0  0  0  0  0  0  0  0  0  0  0  0
  -29.7215  -19.0698   20.5551 C   0  0  0  0  0  0  0  0  0  0  0  0
  -28.1695  -21.3339   20.0574 C   0  0  0  0  0  0  0  0  0  0  0  0
  -24.9720  -16.5136   19.0013 C   0  0  0  0  0  0  0  0  0  0  0  0
  -26.1049  -32.6109   26.8203 C   0  0  0  0  0  0  0  0  0  0  0  0
  -25.9728  -29.7635   20.8162 C   0  0  0  0  0  0  0  0  0  0  0  0
  -25.9764  -31.4769   25.9956 C   0  0  0  0  0  0  0  0  0  0  0  0
  -25.0699  -28.7416   20.4897 C   0  0  0  0  0  0  0  0  0  0  0  0
  -32.0319  -15.6488   21.1750 C   0  0  0  0  0  0  0  0  0  0  0  0
  -27.7369  -20.3806   20.9792 C   0  0  0  0  0  0  0  0  0  0  0  0
  -29.3782  -21.1552   19.3844 C   0  0  0  0  0  0  0  0  0  0  0  0
  -21.6775  -16.3537   23.0257 C   0  0  0  0  0  0  0  0  0  0  0  0
  -26.9343  -27.2168   20.1596 C   0  0  0  0  0  0  0  0  0  0  0  0
  -20.0306  -15.4132   24.4133 C   0  0  0  0  0  0  0  0  0  0  0  0
  -18.7141  -13.1463   25.3676 C   0  0  0  0  0  0  0  0  0  0  0  0
  -18.6550  -15.2757   24.2277 C   0  0  0  0  0  0  0  0  0  0  0  0
  -30.5261  -17.8954   20.8136 C   0  0  0  0  0  0  0  0  0  0  0  0
  -24.7615  -15.7835   20.1863 C   0  0  0  0  0  0  0  0  0  0  0  0
  -31.5005  -16.0045   19.9458 C   0  0  0  0  0  0  0  0  0  0  0  0
  -26.0894  -15.9444   18.4411 C   0  0  0  0  0  0  0  0  0  0  0  0
  -32.8637  -16.8505   17.5519 C   0  0  0  0  0  0  0  0  0  0  0  0
  -27.3495  -22.5281   19.7932 C   0  0  0  0  0  0  0  0  0  0  0  0
  -27.4265  -23.6851   20.4690 C   0  0  0  0  0  0  0  0  0  0  0  0
  -32.4192  -15.5983   17.6795 C   0  0  0  0  0  0  0  0  0  0  0  0
  -24.2243  -17.6086   18.4556 C   0  0  0  0  0  0  0  0  0  0  0  0
  -23.8988  -30.6662   23.0495 C   0  0  0  0  0  0  0  0  0  0  0  0
  -21.8504  -30.8057   20.5382 C   0  0  0  0  0  0  0  0  0  0  0  0
  -21.0476  -29.7542   17.3923 C   0  0  0  0  0  0  0  0  0  0  0  0
  -31.1822  -13.8476   18.7888 C   0  0  0  0  0  0  0  0  0  0  0  0
  -24.9127  -33.4501   27.2064 C   0  0  0  0  0  0  0  0  0  0  0  0
  -25.4746  -31.1452   21.1407 C   0  0  0  0  0  0  0  0  0  0  0  0
  -23.5814  -28.9711   20.4820 C   0  0  0  0  0  0  0  0  0  0  0  0
  -23.6995  -33.2362   26.3049 C   0  0  0  0  0  0  0  0  0  0  0  0
  -28.5565  -11.6903   19.5890 C   0  0  0  0  0  0  0  0  0  0  0  0
  -23.4535  -31.7469   26.0853 C   0  0  0  0  0  0  0  0  0  0  0  0
  -27.3477  -12.6155   19.7268 C   0  0  0  0  0  0  0  0  0  0  0  0
  -29.8049  -12.3287   20.1870 C   0  0  0  0  0  0  0  0  0  0  0  0
  -28.9364  -14.6014   19.7351 C   0  0  0  0  0  0  0  0  0  0  0  0
  -24.6477  -31.0879   25.3845 C   0  0  1  0  0  0  0  0  0  0  0  0
  -24.0318  -31.1590   21.6363 C   0  0  1  0  0  0  0  0  0  0  0  0
  -27.6460  -14.0054   19.1375 C   0  0  2  0  0  0  0  0  0  0  0  0
  -32.8539  -14.4198   21.3677 C   0  0  0  0  0  0  0  0  0  0  0  0
  -26.4469  -20.5347   21.7195 C   0  0  0  0  0  0  0  0  0  0  0  0
  -29.8750  -22.1535   18.3876 C   0  0  0  0  0  0  0  0  0  0  0  0
  -19.2937  -30.0132   15.6163 C   0  0  0  0  0  0  0  0  0  0  0  0
  -19.9796  -28.9907   22.1244 C   0  0  0  0  0  0  0  0  0  0  0  0
  -18.7435  -28.5232   19.9979 C   0  0  0  0  0  0  0  0  0  0  0  0
  -18.8392  -30.8478   20.8977 C   0  0  0  0  0  0  0  0  0  0  0  0
  -23.0005  -30.8569   15.4612 C   0  0  0  0  0  0  0  0  0  0  0  0
  -26.5615  -24.8680   20.1726 C   0  0  0  0  0  0  0  0  0  1  0  0
  -20.9124  -29.8309   19.8683 C   0  0  1  0  0  0  0  0  0  0  0  0
  -20.6239  -30.5197   16.1518 C   0  0  2  0  0  0  0  0  0  0  0  0
  -19.6466  -29.5430   20.7240 C   0  0  0  0  0  0  0  0  0  0  0  0
  -30.7516  -17.1103   19.7364 N   0  0  0  0  0  0  0  0  0  0  0  0
  -25.6721  -14.8236   20.3692 N   0  0  0  0  0  0  0  0  0  0  0  0
  -26.4655  -14.9465   19.2915 N   0  0  0  0  0  0  0  0  0  0  0  0
  -23.1432  -30.3373   20.8122 N   0  0  0  0  0  0  0  0  0  0  0  0
  -30.0512  -13.6487   19.6053 N   0  0  0  0  0  0  0  0  0  0  0  0
  -26.7771  -16.2050   17.3091 N   0  0  0  0  0  0  0  0  0  0  0  0
  -23.1035  -18.0691   19.1600 N   0  0  0  0  0  0  0  0  0  0  0  0
  -24.6331  -31.3903   23.9693 N   0  0  0  0  0  0  0  0  0  0  0  0
  -20.6281  -30.3803   18.5470 N   0  0  0  0  0  0  0  0  0  0  0  0
  -31.7587  -15.1442   18.8095 N   0  0  0  0  0  0  0  0  0  0  0  0
  -21.6481  -30.3752   15.0790 N   0  3  0  0  0  0  0  0  0  0  0  0
  -24.5311  -18.1515   17.3672 O   0  0  0  0  0  0  0  0  0  0  0  0
  -23.1819  -29.7014   23.2880 O   0  0  0  0  0  0  0  0  0  0  0  0
  -21.4529  -31.9433   20.8021 O   0  0  0  0  0  0  0  0  0  0  0  0
  -21.6836  -28.7037   17.3420 O   0  0  0  0  0  0  0  0  0  0  0  0
  -31.6607  -12.9332   18.1051 O   0  0  0  0  0  0  0  0  0  0  0  0
  -20.6857  -16.5375   23.9394 O   0  0  0  0  0  0  0  0  0  0  0  0
  -27.3978  -25.9767   19.8445 O   0  0  0  0  0  0  0  0  0  1  0  0
  -18.0824  -12.0572   25.8246 F   0  0  0  0  0  0  0  0  0  0  0  0
  -17.9607  -16.2286   23.5907 F   0  0  0  0  0  0  0  0  0  0  0  0
  1  2  1  0  0  0  0
  1  5  2  0  0  0  0
  2  6  2  0  0  0  0
  3  9  2  0  0  0  0
  3 19  1  0  0  0  0
  4 10  1  0  0  0  0
  4 19  2  0  0  0  0
  5 23  1  0  0  0  0
  6 25  1  0  0  0  0
  7 11  2  0  0  0  0
  7 24  1  0  0  0  0
  8 14  2  0  0  0  0
  8 27  1  0  0  0  0
  9 30  1  0  0  0  0
 10 30  2  0  0  0  0
 11 31  1  0  0  0  0
 12 13  2  0  0  0  0
 12 32  1  0  0  0  0
 13 33  1  0  0  0  0
 14 35  1  0  0  0  0
 15 20  1  0  0  0  0
 15 28  2  0  0  0  0
 16 20  2  0  0  0  0
 16 29  1  0  0  0  0
 17 26  1  0  0  0  0
 17 31  2  0  0  0  0
 18 33  2  0  0  0  0
 18 34  1  0  0  0  0
 19 36  1  0  0  0  0
 20 35  1  0  0  0  0
 21 28  1  0  0  0  0
 21 29  2  0  0  0  0
 21 40  1  0  0  0  0
 22 36  1  0  0  0  0
 22 38  2  0  0  0  0
 22 43  1  0  0  0  0
 23 25  2  0  0  0  0
 23 48  1  0  0  0  0
 24 26  2  0  0  0  0
 24 49  1  0  0  0  0
 25 57  1  0  0  0  0
 26 50  1  0  0  0  0
 27 37  2  0  0  0  0
 27 60  1  0  0  0  0
 28 61  1  0  0  0  0
 29 62  1  0  0  0  0
 30 88  1  0  0  0  0
 31 89  1  0  0  0  0
 32 34  2  0  0  0  0
 32 88  1  0  0  0  0
 33 90  1  0  0  0  0
 34 91  1  0  0  0  0
 35 72  2  0  0  0  0
 36 73  2  0  0  0  0
 37 72  1  0  0  0  0
 37 81  1  0  0  0  0
 38 74  1  0  0  0  0
 38 77  1  0  0  0  0
 39 42  2  0  0  0  0
 40 41  2  0  0  0  0
 41 68  1  0  0  0  0
 42 81  1  0  0  0  0
 43 78  1  0  0  0  0
 43 83  2  0  0  0  0
 44 58  1  0  0  0  0
 44 79  1  0  0  0  0
 44 84  2  0  0  0  0
 45 69  1  0  0  0  0
 45 75  1  0  0  0  0
 45 85  2  0  0  0  0
 46 70  1  0  0  0  0
 46 80  1  0  0  0  0
 46 86  2  0  0  0  0
 47 76  1  0  0  0  0
 47 81  1  0  0  0  0
 47 87  2  0  0  0  0
 48 51  1  0  0  0  0
 49 58  1  0  0  0  0
 50 75  1  0  0  0  0
 51 53  1  0  0  0  0
 52 54  1  0  0  0  0
 52 55  1  0  0  0  0
 53 57  1  0  0  0  0
 54 59  1  0  0  0  0
 55 76  1  0  0  0  0
 56 59  1  0  0  0  0
 56 76  1  0  0  0  0
 57 79  1  0  0  0  0
 58 75  1  0  0  0  0
 59 74  1  0  0  0  0
 63 70  1  0  0  0  0
 64 71  1  0  0  0  0
 65 71  1  0  0  0  0
 66 71  1  0  0  0  0
 67 82  1  0  0  0  0
 68 89  1  0  0  0  0
 69 71  1  0  0  0  0
 69 80  1  0  0  0  0
 70 82  1  0  0  0  0
 73 74  1  0  0  0  0
M  CHG  1  82   1
M  ISO  4  47 100  68 101  81 100  89 101
M  END
> <Batch ID>
0117

> <Smiles>
C=C[100N:0](c1nc(-c2cc(C)c(C=C[101CH2:1][101O:1]c3ccc4c(c3)CN(C(=O)C(NC(=O)C(C)NC)C(C)(C)C)C(C(=O)NC3CCCc5ccccc53)C4)c(C)c2)ccc1C)[100C:0](=O)N1CCCC(n2nc(-c3ccc(Oc4ccc(F)cc4F)cc3)c(C(N)=O)c2N)C1

> <Shape>
0.256

> <Color>
0.088

> <Negative vol penalty>
0.000

$$$$

  -OEChem-04052301463D

 86 94  0     1  0  0  0  0  0999 V2000
  -27.8335  -30.7988   28.4569 C   0  0  0  0  0  0  0  0  0  0  0  0
  -27.8485  -29.9421   27.3609 C   0  0  0  0  0  0  0  0  0  0  0  0
  -23.0715   -9.8590   19.9004 C   0  0  0  0  0  0  0  0  0  0  0  0
  -23.8510   -9.7951   22.1863 C   0  0  0  0  0  0  0  0  0  0  0  0
  -26.8062  -31.7309   28.5977 C   0  0  0  0  0  0  0  0  0  0  0  0
  -26.8354  -30.0161   26.4056 C   0  0  0  0  0  0  0  0  0  0  0  0
  -28.6172  -29.8565   21.6680 C   0  0  0  0  0  0  0  0  0  0  0  0
  -22.3488   -8.6852   20.1140 C   0  0  0  0  0  0  0  0  0  0  0  0
  -23.1283   -8.6213   22.3999 C   0  0  0  0  0  0  0  0  0  0  0  0
  -28.9870  -28.6085   21.1686 C   0  0  0  0  0  0  0  0  0  0  0  0
  -23.4688   -5.3271   21.7191 C   0  0  0  0  0  0  0  0  0  0  0  0
  -24.1072   -4.2868   22.3940 C   0  0  0  0  0  0  0  0  0  0  0  0
  -26.8873  -28.4648   19.9898 C   0  0  0  0  0  0  0  0  0  0  0  0
  -31.0220  -17.7944   20.7783 C   0  0  0  0  0  0  0  0  0  0  0  0
  -29.4044  -17.8895   22.5703 C   0  0  0  0  0  0  0  0  0  0  0  0
  -22.4180   -4.3696   24.1194 C   0  0  0  0  0  0  0  0  0  0  0  0
  -23.8226  -10.4139   20.9365 C   0  0  0  0  0  0  0  0  0  0  0  0
  -24.1219  -12.9471   20.9062 C   0  0  0  0  0  0  0  0  0  0  0  0
  -25.7853  -31.8230   27.6386 C   0  0  0  0  0  0  0  0  0  0  0  0
  -27.3730  -30.4141   21.3403 C   0  0  0  0  0  0  0  0  0  0  0  0
  -25.7927  -30.9494   26.5344 C   0  0  0  0  0  0  0  0  0  0  0  0
  -26.5051  -29.7211   20.4844 C   0  0  0  0  0  0  0  0  0  0  0  0
  -31.1679  -19.1803   20.8364 C   0  0  0  0  0  0  0  0  0  0  0  0
  -30.1402  -17.1489   21.6452 C   0  0  0  0  0  0  0  0  0  0  0  0
  -22.3772   -8.0664   21.3637 C   0  0  0  0  0  0  0  0  0  0  0  0
  -28.1208  -27.9111   20.3317 C   0  0  0  0  0  0  0  0  0  0  0  0
  -22.3050   -5.8888   22.2443 C   0  0  0  0  0  0  0  0  0  0  0  0
  -30.4321  -19.9209   21.7615 C   0  0  0  0  0  0  0  0  0  0  0  0
  -23.5818   -3.8080   23.5942 C   0  0  0  0  0  0  0  0  0  0  0  0
  -29.5504  -19.2755   22.6285 C   0  0  0  0  0  0  0  0  0  0  0  0
  -21.7796   -5.4100   23.4444 C   0  0  0  0  0  0  0  0  0  0  0  0
  -24.5698  -11.6260   20.7164 C   0  0  0  0  0  0  0  0  0  0  0  0
  -25.1984  -13.7275   20.5618 C   0  0  0  0  0  0  0  0  0  0  0  0
  -33.1955  -20.5942   20.6401 C   0  0  0  0  0  0  0  0  0  0  0  0
  -22.8468  -13.4260   21.3540 C   0  0  0  0  0  0  0  0  0  0  0  0
  -24.7985  -31.2807   22.9911 C   0  0  0  0  0  0  0  0  0  0  0  0
  -23.8163  -32.4161   20.1156 C   0  0  0  0  0  0  0  0  0  0  0  0
  -24.0351  -32.2658   16.7132 C   0  0  0  0  0  0  0  0  0  0  0  0
  -30.6480  -14.8572   20.7306 C   0  0  0  0  0  0  0  0  0  0  0  0
  -24.6702  -32.8144   27.8582 C   0  0  0  0  0  0  0  0  0  0  0  0
  -27.0001  -31.7732   21.8658 C   0  0  0  0  0  0  0  0  0  0  0  0
  -25.1665  -30.2850   20.0860 C   0  0  0  0  0  0  0  0  0  0  0  0
  -23.8377  -33.0818   26.6069 C   0  0  0  0  0  0  0  0  0  0  0  0
  -29.5529  -12.5130   18.2847 C   0  0  0  0  0  0  0  0  0  0  0  0
  -23.4702  -31.7704   25.9199 C   0  0  0  0  0  0  0  0  0  0  0  0
  -28.1220  -12.1820   18.7149 C   0  0  0  0  0  0  0  0  0  0  0  0
  -30.4745  -12.7131   19.4865 C   0  0  0  0  0  0  0  0  0  0  0  0
  -28.5680  -13.3548   20.9086 C   0  0  0  0  0  0  0  0  0  0  0  0
  -24.7250  -31.0160   25.4640 C   0  0  1  0  0  0  0  0  0  0  0  0
  -25.4940  -32.0157   21.8804 C   0  0  1  0  0  0  0  0  0  0  0  0
  -27.5879  -13.2084   19.7332 C   0  0  2  0  0  0  0  0  0  0  0  0
  -23.0820  -33.2916   14.6307 C   0  0  0  0  0  0  0  0  0  0  0  0
  -21.2609  -30.7907   20.4873 C   0  0  0  0  0  0  0  0  0  0  0  0
  -20.8038  -31.0806   18.0429 C   0  0  0  0  0  0  0  0  0  0  0  0
  -20.9138  -33.0768   19.5347 C   0  0  0  0  0  0  0  0  0  0  0  0
  -26.6842  -33.2683   15.8554 C   0  0  0  0  0  0  0  0  0  0  0  0
  -32.1153  -19.8549   19.8998 C   0  0  0  0  0  0  0  0  0  0  0  0
  -29.0883  -24.4203   20.3875 C   0  0  0  0  0  0  0  0  0  0  0  0
  -29.9803  -23.5314   21.2473 C   0  0  0  0  0  0  0  0  0  0  0  0
  -29.3455  -25.8978   20.6520 C   0  0  0  0  0  0  0  0  0  1  0  0
  -29.6938  -22.0547   21.0148 C   0  0  0  0  0  0  0  0  0  0  0  0
  -23.0445  -31.8483   18.9490 C   0  0  1  0  0  0  0  0  0  0  0  0
  -24.1952  -33.3523   15.6652 C   0  0  2  0  0  0  0  0  0  0  0  0
  -21.5301  -31.6873   19.2624 C   0  0  0  0  0  0  0  0  0  0  0  0
  -25.8324  -11.5667   20.2847 N   0  0  0  0  0  0  0  0  0  0  0  0
  -33.3351  -21.8722   20.5325 N   0  0  0  0  0  0  0  0  0  0  0  0
  -26.1870  -12.8602   20.2004 N   0  0  0  0  0  0  0  0  0  0  0  0
  -24.8448  -31.6144   20.6307 N   0  0  0  0  0  0  0  0  0  0  0  0
  -29.9063  -13.7018   20.4055 N   0  0  0  0  0  0  0  0  0  0  0  0
  -25.3863  -15.0640   20.5359 N   0  0  0  0  0  0  0  0  0  0  0  0
  -21.8529  -12.4884   21.6659 N   0  0  0  0  0  0  0  0  0  0  0  0
  -29.9927  -15.7409   21.5875 N   0  0  0  0  0  0  0  0  0  0  0  0
  -25.2570  -31.6047   24.2537 N   0  0  0  0  0  0  0  0  0  0  0  0
  -23.3303  -32.7142   17.8102 N   0  0  0  0  0  0  0  0  0  0  0  0
  -25.5000  -33.2042   14.9607 N   0  3  0  0  0  0  0  0  0  0  0  0
  -22.5909  -14.6496   21.4582 O   0  0  0  0  0  0  0  0  0  0  0  0
  -23.9106  -30.4799   22.7225 O   0  0  0  0  0  0  0  0  0  0  0  0
  -23.5222  -33.5329   20.5492 O   0  0  0  0  0  0  0  0  0  0  0  0
  -24.4866  -31.1316   16.5712 O   0  0  0  0  0  0  0  0  0  0  0  0
  -31.7701  -15.0617   20.2604 O   0  0  0  0  0  0  0  0  0  0  0  0
  -21.6719   -6.9211   21.5726 O   0  0  0  0  0  0  0  0  0  0  0  0
  -28.4791  -26.6925   19.8433 O   0  0  0  0  0  0  0  0  0  1  0  0
  -30.5644  -21.2835   21.8310 O   0  0  0  0  0  0  0  0  0  0  0  0
  -24.1942   -2.8079   24.2415 F   0  0  0  0  0  0  0  0  0  0  0  0
  -28.8405  -19.9810   23.5198 F   0  0  0  0  0  0  0  0  0  0  0  0
  -20.6612   -5.9449   23.9533 F   0  0  0  0  0  0  0  0  0  0  0  0
  1  2  1  0  0  0  0
  1  5  2  0  0  0  0
  2  6  2  0  0  0  0
  3  8  2  0  0  0  0
  3 17  1  0  0  0  0
  4  9  1  0  0  0  0
  4 17  2  0  0  0  0
  5 19  1  0  0  0  0
  6 21  1  0  0  0  0
  7 10  2  0  0  0  0
  7 20  1  0  0  0  0
  8 25  1  0  0  0  0
  9 25  2  0  0  0  0
 10 26  1  0  0  0  0
 11 12  2  0  0  0  0
 11 27  1  0  0  0  0
 12 29  1  0  0  0  0
 13 22  1  0  0  0  0
 13 26  2  0  0  0  0
 14 23  1  0  0  0  0
 14 24  2  0  0  0  0
 15 24  1  0  0  0  0
 15 30  2  0  0  0  0
 16 29  2  0  0  0  0
 16 31  1  0  0  0  0
 17 32  1  0  0  0  0
 18 32  1  0  0  0  0
 18 33  2  0  0  0  0
 18 35  1  0  0  0  0
 19 21  2  0  0  0  0
 19 40  1  0  0  0  0
 20 22  2  0  0  0  0
 20 41  1  0  0  0  0
 21 49  1  0  0  0  0
 22 42  1  0  0  0  0
 23 28  2  0  0  0  0
 23 57  1  0  0  0  0
 24 72  1  0  0  0  0
 25 81  1  0  0  0  0
 26 82  1  0  0  0  0
 27 31  2  0  0  0  0
 27 81  1  0  0  0  0
 28 30  1  0  0  0  0
 28 83  1  0  0  0  0
 29 84  1  0  0  0  0
 30 85  1  0  0  0  0
 31 86  1  0  0  0  0
 32 65  2  0  0  0  0
 33 67  1  0  0  0  0
 33 70  1  0  0  0  0
 34 57  1  0  0  0  0
 34 66  2  0  0  0  0
 35 71  1  0  0  0  0
 35 76  2  0  0  0  0
 36 50  1  0  0  0  0
 36 73  1  0  0  0  0
 36 77  2  0  0  0  0
 37 62  1  0  0  0  0
 37 68  1  0  0  0  0
 37 78  2  0  0  0  0
 38 63  1  0  0  0  0
 38 74  1  0  0  0  0
 38 79  2  0  0  0  0
 39 69  1  0  0  0  0
 39 72  1  0  0  0  0
 39 80  2  0  0  0  0
 40 43  1  0  0  0  0
 41 50  1  0  0  0  0
 42 68  1  0  0  0  0
 43 45  1  0  0  0  0
 44 46  1  0  0  0  0
 44 47  1  0  0  0  0
 45 49  1  0  0  0  0
 46 51  1  0  0  0  0
 47 69  1  0  0  0  0
 48 51  1  0  0  0  0
 48 69  1  0  0  0  0
 49 73  1  0  0  0  0
 50 68  1  0  0  0  0
 51 67  1  0  0  0  0
 52 63  1  0  0  0  0
 53 64  1  0  0  0  0
 54 64  1  0  0  0  0
 55 64  1  0  0  0  0
 56 75  1  0  0  0  0
 58 59  1  0  0  0  0
 58 60  1  0  0  0  0
 59 61  1  0  0  0  0
 60 82  1  0  0  0  0
 61 83  1  0  0  0  0
 62 64  1  0  0  0  0
 62 74  1  0  0  0  0
 63 75  1  0  0  0  0
 65 67  1  0  0  0  0
M  CHG  1  75   1
M  ISO  4  39 100  60 101  72 100  82 101
M  END
> <Batch ID>
0117

> <Smiles>
CNC(C)C(=O)NC(C(=O)N1Cc2cc([101O:1][101CH2:1]CCCOc3c(F)cc([100NH:0][100C:0](=O)N4CCCC(n5nc(-c6ccc(Oc7ccc(F)cc7F)cc6)c(C(N)=O)c5N)C4)cc3CC=N)ccc2CC1C(=O)NC1CCCc2ccccc21)C(C)(C)C

> <Shape>
0.329

> <Color>
0.215

> <Negative vol penalty>
0.000

$$$$

  -OEChem-04052301463D

 86 94  0     1  0  0  0  0  0999 V2000
  -24.5831  -19.4619   25.7439 C   0  0  0  0  0  0  0  0  0  0  0  0
  -25.4734  -19.9408   24.7882 C   0  0  0  0  0  0  0  0  0  0  0  0
  -23.1752   -9.8360   21.4531 C   0  0  0  0  0  0  0  0  0  0  0  0
  -23.9053  -10.7605   23.5625 C   0  0  0  0  0  0  0  0  0  0  0  0
  -23.3328  -20.0608   25.8922 C   0  0  0  0  0  0  0  0  0  0  0  0
  -25.1135  -21.0182   23.9795 C   0  0  0  0  0  0  0  0  0  0  0  0
  -28.8186  -24.4427   23.5434 C   0  0  0  0  0  0  0  0  0  0  0  0
  -30.9918  -18.9508   18.4528 C   0  0  0  0  0  0  0  0  0  0  0  0
  -30.8711  -17.6717   18.9958 C   0  0  0  0  0  0  0  0  0  0  0  0
  -22.4833   -8.8331   22.1321 C   0  0  0  0  0  0  0  0  0  0  0  0
  -23.2134   -9.7576   24.2415 C   0  0  0  0  0  0  0  0  0  0  0  0
  -29.8621  -24.1439   22.6684 C   0  0  0  0  0  0  0  0  0  0  0  0
  -20.8203   -5.8181   23.3017 C   0  0  0  0  0  0  0  0  0  0  0  0
  -20.9436   -4.5107   22.8316 C   0  0  0  0  0  0  0  0  0  0  0  0
  -28.8577  -25.5623   20.9956 C   0  0  0  0  0  0  0  0  0  0  0  0
  -23.3293   -4.6025   23.2024 C   0  0  0  0  0  0  0  0  0  0  0  0
  -23.8862  -10.7997   22.1683 C   0  0  0  0  0  0  0  0  0  0  0  0
  -29.2150  -18.4892   20.5534 C   0  0  0  0  0  0  0  0  0  0  0  0
  -24.1104  -13.0981   21.0844 C   0  0  0  0  0  0  0  0  0  0  0  0
  -22.9611  -21.1522   25.0915 C   0  0  0  0  0  0  0  0  0  0  0  0
  -27.7793  -25.2965   23.1464 C   0  0  0  0  0  0  0  0  0  0  0  0
  -23.8566  -21.6314   24.1163 C   0  0  0  0  0  0  0  0  0  0  0  0
  -27.8035  -25.8725   21.8682 C   0  0  0  0  0  0  0  0  0  0  0  0
  -30.2241  -19.9992   18.9602 C   0  0  0  0  0  0  0  0  0  0  0  0
  -29.9827  -17.4408   20.0461 C   0  0  0  0  0  0  0  0  0  0  0  0
  -22.5024   -8.7939   23.5263 C   0  0  0  0  0  0  0  0  0  0  0  0
  -29.8803  -24.7014   21.3933 C   0  0  0  0  0  0  0  0  0  0  0  0
  -21.9514   -6.5178   23.7220 C   0  0  0  0  0  0  0  0  0  0  0  0
  -29.3357  -19.7683   20.0105 C   0  0  0  0  0  0  0  0  0  0  0  0
  -22.1981   -3.9029   22.7820 C   0  0  0  0  0  0  0  0  0  0  0  0
  -23.2059   -5.9100   23.6724 C   0  0  0  0  0  0  0  0  0  0  0  0
  -24.6016  -11.8356   21.4674 C   0  0  0  0  0  0  0  0  0  0  0  0
  -25.1705  -13.7021   20.4537 C   0  0  0  0  0  0  0  0  0  0  0  0
  -31.2535  -22.0401   18.9468 C   0  0  0  0  0  0  0  0  0  0  0  0
  -28.2819  -18.2578   21.6525 C   0  0  0  0  0  0  0  0  0  0  0  0
  -22.8119  -13.6734   21.2811 C   0  0  0  0  0  0  0  0  0  0  0  0
  -24.6382  -24.9838   22.7734 C   0  0  0  0  0  0  0  0  0  0  0  0
  -24.7763  -28.1804   22.2395 C   0  0  0  0  0  0  0  0  0  0  0  0
  -26.6303  -30.8800   21.2796 C   0  0  0  0  0  0  0  0  0  0  0  0
  -30.5789  -14.9967   20.1769 C   0  0  0  0  0  0  0  0  0  0  0  0
  -21.5805  -21.7366   25.2562 C   0  0  0  0  0  0  0  0  0  0  0  0
  -26.6748  -25.6300   24.1115 C   0  0  0  0  0  0  0  0  0  0  0  0
  -26.7223  -26.8111   21.4008 C   0  0  0  0  0  0  0  0  0  0  0  0
  -21.4211  -23.1128   24.6151 C   0  0  0  0  0  0  0  0  0  0  0  0
  -29.6088  -11.8074   18.9261 C   0  0  0  0  0  0  0  0  0  0  0  0
  -22.0094  -23.1174   23.2077 C   0  0  0  0  0  0  0  0  0  0  0  0
  -28.1792  -11.6343   19.4443 C   0  0  0  0  0  0  0  0  0  0  0  0
  -30.4971  -12.5243   19.9414 C   0  0  0  0  0  0  0  0  0  0  0  0
  -28.5411  -13.6311   20.9505 C   0  0  0  0  0  0  0  0  0  0  0  0
  -23.5123  -22.8139   23.2370 C   0  0  1  0  0  0  0  0  0  0  0  0
  -25.4007  -26.1054   23.4202 C   0  0  1  0  0  0  0  0  0  0  0  0
  -27.5923  -12.9718   19.9362 C   0  0  2  0  0  0  0  0  0  0  0  0
  -26.4585  -33.3556   20.9064 C   0  0  0  0  0  0  0  0  0  0  0  0
  -23.2960  -27.6801   19.6187 C   0  0  0  0  0  0  0  0  0  0  0  0
  -23.9869  -29.9679   18.8726 C   0  0  0  0  0  0  0  0  0  0  0  0
  -22.5307  -29.6994   20.8801 C   0  0  0  0  0  0  0  0  0  0  0  0
  -28.6740  -31.4501   23.3429 C   0  0  0  0  0  0  0  0  0  0  0  0
  -27.3150  -21.0177   19.9021 C   0  0  0  0  0  0  0  0  0  0  0  0
  -31.4983  -23.4310   18.4261 C   0  0  0  0  0  0  0  0  0  0  0  0
  -30.5951  -24.4208   19.1425 C   0  0  0  0  0  0  0  0  0  1  0  0
  -24.9709  -29.0538   21.0237 C   0  0  1  0  0  0  0  0  0  0  0  0
  -26.8022  -32.2554   21.8985 C   0  0  2  0  0  0  0  0  0  0  0  0
  -23.7156  -29.0811   20.1066 C   0  0  0  0  0  0  0  0  0  0  0  0
  -25.8747  -11.6475   21.1098 N   0  0  0  0  0  0  0  0  0  0  0  0
  -30.3583  -21.2819   18.4029 N   0  0  0  0  0  0  0  0  0  0  0  0
  -26.1924  -12.7997   20.4954 N   0  0  0  0  0  0  0  0  0  0  0  0
  -25.6606  -27.1013   22.3786 N   0  0  0  0  0  0  0  0  0  0  0  0
  -29.8794  -13.7849   20.3587 N   0  0  0  0  0  0  0  0  0  0  0  0
  -25.3190  -14.9117   19.8730 N   0  0  0  0  0  0  0  0  0  0  0  0
  -28.7624  -18.4159   22.9463 N   0  0  0  0  0  0  0  0  0  0  0  0
  -21.8398  -12.9160   21.9487 N   0  0  0  0  0  0  0  0  0  0  0  0
  -29.8786  -16.1329   20.5810 N   0  0  0  0  0  0  0  0  0  0  0  0
  -24.2565  -23.9849   23.6487 N   0  0  0  0  0  0  0  0  0  0  0  0
  -25.3750  -30.3638   21.5226 N   0  0  0  0  0  0  0  0  0  0  0  0
  -28.2102  -32.4496   22.3466 N   0  3  0  0  0  0  0  0  0  0  0  0
  -27.1087  -17.9163   21.4381 O   0  0  0  0  0  0  0  0  0  0  0  0
  -22.5173  -14.8186   20.8625 O   0  0  0  0  0  0  0  0  0  0  0  0
  -24.4116  -25.0225   21.5698 O   0  0  0  0  0  0  0  0  0  0  0  0
  -23.8774  -28.4500   23.0402 O   0  0  0  0  0  0  0  0  0  0  0  0
  -27.5194  -30.3211   20.6411 O   0  0  0  0  0  0  0  0  0  0  0  0
  -31.7045  -15.0270   19.6729 O   0  0  0  0  0  0  0  0  0  0  0  0
  -21.8272   -7.8155   24.1892 O   0  0  0  0  0  0  0  0  0  0  0  0
  -28.5882  -20.7981   20.5036 O   0  0  0  0  0  0  0  0  0  0  0  0
  -30.8973  -24.4108   20.5371 O   0  0  0  0  0  0  0  0  0  1  0  0
  -22.3162   -2.6468   22.3320 F   0  0  0  0  0  0  0  0  0  0  0  0
  -24.2960   -6.5767   24.0760 F   0  0  0  0  0  0  0  0  0  0  0  0
  1  2  1  0  0  0  0
  1  5  2  0  0  0  0
  2  6  2  0  0  0  0
  3 10  2  0  0  0  0
  3 17  1  0  0  0  0
  4 11  1  0  0  0  0
  4 17  2  0  0  0  0
  5 20  1  0  0  0  0
  6 22  1  0  0  0  0
  7 12  2  0  0  0  0
  7 21  1  0  0  0  0
  8  9  2  0  0  0  0
  8 24  1  0  0  0  0
  9 25  1  0  0  0  0
 10 26  1  0  0  0  0
 11 26  2  0  0  0  0
 12 27  1  0  0  0  0
 13 14  2  0  0  0  0
 13 28  1  0  0  0  0
 14 30  1  0  0  0  0
 15 23  1  0  0  0  0
 15 27  2  0  0  0  0
 16 30  2  0  0  0  0
 16 31  1  0  0  0  0
 17 32  1  0  0  0  0
 18 25  2  0  0  0  0
 18 29  1  0  0  0  0
 18 35  1  0  0  0  0
 19 32  1  0  0  0  0
 19 33  2  0  0  0  0
 19 36  1  0  0  0  0
 20 22  2  0  0  0  0
 20 41  1  0  0  0  0
 21 23  2  0  0  0  0
 21 42  1  0  0  0  0
 22 50  1  0  0  0  0
 23 43  1  0  0  0  0
 24 29  2  0  0  0  0
 24 65  1  0  0  0  0
 25 72  1  0  0  0  0
 26 82  1  0  0  0  0
 27 84  1  0  0  0  0
 28 31  2  0  0  0  0
 28 82  1  0  0  0  0
 29 83  1  0  0  0  0
 30 85  1  0  0  0  0
 31 86  1  0  0  0  0
 32 64  2  0  0  0  0
 33 66  1  0  0  0  0
 33 69  1  0  0  0  0
 34 59  1  0  0  0  0
 34 65  2  0  0  0  0
 35 70  1  0  0  0  0
 35 76  2  0  0  0  0
 36 71  1  0  0  0  0
 36 77  2  0  0  0  0
 37 51  1  0  0  0  0
 37 73  1  0  0  0  0
 37 78  2  0  0  0  0
 38 61  1  0  0  0  0
 38 67  1  0  0  0  0
 38 79  2  0  0  0  0
 39 62  1  0  0  0  0
 39 74  1  0  0  0  0
 39 80  2  0  0  0  0
 40 68  1  0  0  0  0
 40 72  1  0  0  0  0
 40 81  2  0  0  0  0
 41 44  1  0  0  0  0
 42 51  1  0  0  0  0
 43 67  1  0  0  0  0
 44 46  1  0  0  0  0
 45 47  1  0  0  0  0
 45 48  1  0  0  0  0
 46 50  1  0  0  0  0
 47 52  1  0  0  0  0
 48 68  1  0  0  0  0
 49 52  1  0  0  0  0
 49 68  1  0  0  0  0
 50 73  1  0  0  0  0
 51 67  1  0  0  0  0
 52 66  1  0  0  0  0
 53 62  1  0  0  0  0
 54 63  1  0  0  0  0
 55 63  1  0  0  0  0
 56 63  1  0  0  0  0
 57 75  1  0  0  0  0
 58 83  1  0  0  0  0
 59 60  1  0  0  0  0
 60 84  1  0  0  0  0
 61 63  1  0  0  0  0
 61 74  1  0  0  0  0
 62 75  1  0  0  0  0
 64 66  1  0  0  0  0
M  CHG  1  75   1
M  ISO  4  40 100  60 101  72 100  84 101
M  END
> <Batch ID>
0117

> <Smiles>
CNC(C)C(=O)NC(C(=O)N1Cc2cc([101O:1][101CH2:1]C=CNc3ccc([100NH:0][100C:0](=O)N4CCCC(n5nc(-c6ccc(Oc7ccc(F)cc7F)cc6)c(C(N)=O)c5N)C4)c(C(N)=O)c3OC)ccc2CC1C(=O)NC1CCCc2ccccc21)C(C)(C)C

> <Shape>
0.275

> <Color>
0.171

> <Negative vol penalty>
0.000

$$$$

  -OEChem-04052301463D

 86 95  0     1  0  0  0  0  0999 V2000
  -17.7355  -30.2199   23.7309 C   0  0  0  0  0  0  0  0  0  0  0  0
  -19.1009  -30.3937   23.9330 C   0  0  0  0  0  0  0  0  0  0  0  0
  -23.9486  -13.4735   19.9130 C   0  0  0  0  0  0  0  0  0  0  0  0
  -26.2396  -13.5670   20.6742 C   0  0  0  0  0  0  0  0  0  0  0  0
  -17.2627  -29.0476   23.1425 C   0  0  0  0  0  0  0  0  0  0  0  0
  -19.9943  -29.3948   23.5478 C   0  0  0  0  0  0  0  0  0  0  0  0
  -25.6552  -30.1689   21.3431 C   0  0  0  0  0  0  0  0  0  0  0  0
  -23.9726  -12.0824   20.0116 C   0  0  0  0  0  0  0  0  0  0  0  0
  -26.2636  -12.1758   20.7729 C   0  0  0  0  0  0  0  0  0  0  0  0
  -26.9123  -30.1031   21.9424 C   0  0  0  0  0  0  0  0  0  0  0  0
  -23.3150   -8.5291   20.4079 C   0  0  0  0  0  0  0  0  0  0  0  0
  -22.2206   -7.9023   21.0037 C   0  0  0  0  0  0  0  0  0  0  0  0
  -27.1355  -27.8158   21.2092 C   0  0  0  0  0  0  0  0  0  0  0  0
  -22.6321   -9.1253   23.0463 C   0  0  0  0  0  0  0  0  0  0  0  0
  -25.0822  -14.2159   20.2442 C   0  0  0  0  0  0  0  0  0  0  0  0
  -24.2038  -16.5396   20.8244 C   0  0  0  0  0  0  0  0  0  0  0  0
  -18.1516  -28.0379   22.7411 C   0  0  0  0  0  0  0  0  0  0  0  0
  -25.1233  -29.0533   20.6807 C   0  0  0  0  0  0  0  0  0  0  0  0
  -19.5329  -28.2073   22.9547 C   0  0  0  0  0  0  0  0  0  0  0  0
  -25.8726  -27.8708   20.6002 C   0  0  0  0  0  0  0  0  0  0  0  0
  -25.1301  -11.4335   20.4416 C   0  0  0  0  0  0  0  0  0  0  0  0
  -27.6515  -28.9256   21.8780 C   0  0  0  0  0  0  0  0  0  0  0  0
  -24.0680   -9.4540   21.1313 C   0  0  0  0  0  0  0  0  0  0  0  0
  -21.8791   -8.2003   22.3228 C   0  0  0  0  0  0  0  0  0  0  0  0
  -23.7265   -9.7521   22.4505 C   0  0  0  0  0  0  0  0  0  0  0  0
  -25.0582  -15.6529   20.1420 C   0  0  0  0  0  0  0  0  0  0  0  0
  -24.5793  -17.7852   20.3842 C   0  0  0  0  0  0  0  0  0  0  0  0
  -29.8367  -23.8573   20.0579 C   0  0  0  0  0  0  0  0  0  0  0  0
  -29.6341  -23.5617   18.7757 C   0  0  0  0  0  0  0  0  0  0  0  0
  -30.5751  -25.1008   20.3830 C   0  0  0  0  0  0  0  0  0  0  0  0
  -30.1420  -24.4654   17.7146 C   0  0  0  0  0  0  0  0  0  0  0  0
  -29.9908  -26.9552   23.3639 C   0  0  0  0  0  0  0  0  0  0  0  0
  -29.0729  -27.9292   23.4456 C   0  0  0  0  0  0  0  0  0  1  0  0
  -23.1639  -16.2620   21.7716 C   0  0  0  0  0  0  0  0  0  0  0  0
  -22.5613  -27.2156   21.0843 C   0  0  0  0  0  0  0  0  0  0  0  0
  -23.5500  -25.8953   18.2912 C   0  0  0  0  0  0  0  0  0  0  0  0
  -26.1149  -25.2775   16.1264 C   0  0  0  0  0  0  0  0  0  0  0  0
  -28.3662  -21.4813   19.2183 C   0  0  0  0  0  0  0  0  0  0  0  0
  -17.5897  -26.7681   22.1524 C   0  0  0  0  0  0  0  0  0  0  0  0
  -23.7772  -29.1488   20.0164 C   0  0  0  0  0  0  0  0  0  0  0  0
  -25.3552  -26.6514   19.8834 C   0  0  0  0  0  0  0  0  0  0  0  0
  -30.1896  -25.9401   24.4588 C   0  0  0  0  0  0  0  0  0  0  0  0
  -30.8784  -26.7786   22.1592 C   0  0  0  0  0  0  0  0  0  0  0  0
  -18.6322  -25.9179   21.4308 C   0  0  0  0  0  0  0  0  0  0  0  0
  -30.1090  -24.5260   23.8837 C   0  0  0  0  0  0  0  0  0  0  0  0
  -27.6065  -19.1765   16.5926 C   0  0  0  0  0  0  0  0  0  0  0  0
  -19.8938  -25.7870   22.2782 C   0  0  0  0  0  0  0  0  0  0  0  0
  -26.8180  -18.1082   17.3478 C   0  0  0  0  0  0  0  0  0  0  0  0
  -31.0376  -24.3511   22.6813 C   0  0  0  0  0  0  0  0  0  0  0  0
  -28.7675  -19.7270   17.4219 C   0  0  0  0  0  0  0  0  0  0  0  0
  -27.5740  -19.1556   19.5152 C   0  0  0  0  0  0  0  0  0  0  0  0
  -20.5354  -27.1572   22.5277 C   0  0  1  0  0  0  0  0  0  0  0  0
  -23.1145  -27.7901   19.8109 C   0  0  1  0  0  0  0  0  0  0  0  0
  -26.3675  -18.6285   18.7236 C   0  0  2  0  0  0  0  0  0  0  0  0
  -26.6231  -24.1421   13.9470 C   0  0  0  0  0  0  0  0  0  0  0  0
  -23.4576  -23.1828   19.6855 C   0  0  0  0  0  0  0  0  0  0  0  0
  -24.8470  -22.2551   17.8207 C   0  0  0  0  0  0  0  0  0  0  0  0
  -22.5809  -23.1822   17.3433 C   0  0  0  0  0  0  0  0  0  0  0  0
  -31.3340  -26.5112   17.1419 C   0  0  0  0  0  0  0  0  0  0  0  0
  -26.9715  -27.8167   14.8703 C   0  0  0  0  0  0  0  0  0  0  0  0
  -24.4716  -24.7614   17.9118 C   0  0  1  0  0  0  0  0  0  0  0  0
  -26.2258  -25.4458   14.6218 C   0  0  2  0  0  0  0  0  0  0  0  0
  -23.8485  -23.3676   18.2056 C   0  0  0  0  0  0  0  0  0  0  0  0
  -25.9119  -16.2819   19.3298 N   0  0  0  0  0  0  0  0  0  0  0  0
  -31.0274  -25.9046   19.4606 N   0  0  0  0  0  0  0  0  0  0  0  0
  -25.5958  -17.5771   19.4991 N   0  0  0  0  0  0  0  0  0  0  0  0
  -30.7773  -25.3957   21.6885 N   0  0  3  0  0  0  0  0  0  0  0  0
  -30.8178  -25.5972   18.1479 N   0  0  0  0  0  0  0  0  0  0  0  0
  -24.0311  -26.7925   19.2552 N   0  0  0  0  0  0  0  0  0  0  0  0
  -28.3077  -20.1651   18.7470 N   0  0  0  0  0  0  0  0  0  0  0  0
  -24.1356  -19.0274   20.6717 N   0  0  0  0  0  0  0  0  0  0  0  0
  -23.4957  -16.2116   23.1324 N   0  0  0  0  0  0  0  0  0  0  0  0
  -28.9639  -22.4369   18.3921 N   0  0  0  0  0  0  0  0  0  0  0  0
  -21.2609  -27.5966   21.3550 N   0  0  0  0  0  0  0  0  0  0  0  0
  -24.8265  -24.9745   16.5129 N   0  0  0  0  0  0  0  0  0  0  0  0
  -27.2488  -26.4775   14.2900 N   0  3  0  0  0  0  0  0  0  0  0  0
  -29.9488  -24.1823   16.5318 O   0  0  0  0  0  0  0  0  0  0  0  0
  -21.9789  -16.0482   21.4203 O   0  0  0  0  0  0  0  0  0  0  0  0
  -23.2618  -26.4800   21.7697 O   0  0  0  0  0  0  0  0  0  0  0  0
  -22.4467  -25.9858   17.7468 O   0  0  0  0  0  0  0  0  0  0  0  0
  -27.0760  -25.3988   16.8829 O   0  0  0  0  0  0  0  0  0  0  0  0
  -27.9691  -21.8134   20.3412 O   0  0  0  0  0  0  0  0  0  0  0  0
  -25.1537  -10.0761   20.5382 O   0  0  0  0  0  0  0  0  0  0  0  0
  -28.8785  -28.8585   22.4626 O   0  0  0  0  0  0  0  0  0  1  0  0
  -20.8272   -7.5995   22.8943 F   0  0  0  0  0  0  0  0  0  0  0  0
  -24.4454  -10.6406   23.1501 F   0  0  0  0  0  0  0  0  0  0  0  0
  1  2  1  0  0  0  0
  1  5  2  0  0  0  0
  2  6  2  0  0  0  0
  3  8  2  0  0  0  0
  3 15  1  0  0  0  0
  4  9  1  0  0  0  0
  4 15  2  0  0  0  0
  5 17  1  0  0  0  0
  6 19  1  0  0  0  0
  7 10  2  0  0  0  0
  7 18  1  0  0  0  0
  8 21  1  0  0  0  0
  9 21  2  0  0  0  0
 10 22  1  0  0  0  0
 11 12  2  0  0  0  0
 11 23  1  0  0  0  0
 12 24  1  0  0  0  0
 13 20  1  0  0  0  0
 13 22  2  0  0  0  0
 14 24  2  0  0  0  0
 14 25  1  0  0  0  0
 15 26  1  0  0  0  0
 16 26  1  0  0  0  0
 16 27  2  0  0  0  0
 16 34  1  0  0  0  0
 17 19  2  0  0  0  0
 17 39  1  0  0  0  0
 18 20  2  0  0  0  0
 18 40  1  0  0  0  0
 19 52  1  0  0  0  0
 20 41  1  0  0  0  0
 21 83  1  0  0  0  0
 22 84  1  0  0  0  0
 23 25  2  0  0  0  0
 23 83  1  0  0  0  0
 24 85  1  0  0  0  0
 25 86  1  0  0  0  0
 26 64  2  0  0  0  0
 27 66  1  0  0  0  0
 27 71  1  0  0  0  0
 28 29  2  0  0  0  0
 28 30  1  0  0  0  0
 29 31  1  0  0  0  0
 29 73  1  0  0  0  0
 30 65  2  0  0  0  0
 30 67  1  0  0  0  0
 31 68  1  0  0  0  0
 31 77  2  0  0  0  0
 32 33  2  0  0  0  0
 32 42  1  0  0  0  0
 32 43  1  0  0  0  0
 33 84  1  0  0  0  0
 34 72  1  0  0  0  0
 34 78  2  0  0  0  0
 35 53  1  0  0  0  0
 35 74  1  0  0  0  0
 35 79  2  0  0  0  0
 36 61  1  0  0  0  0
 36 69  1  0  0  0  0
 36 80  2  0  0  0  0
 37 62  1  0  0  0  0
 37 75  1  0  0  0  0
 37 81  2  0  0  0  0
 38 70  1  0  0  0  0
 38 73  1  0  0  0  0
 38 82  2  0  0  0  0
 39 44  1  0  0  0  0
 40 53  1  0  0  0  0
 41 69  1  0  0  0  0
 42 45  1  0  0  0  0
 43 67  1  0  0  0  0
 44 47  1  0  0  0  0
 45 49  1  0  0  0  0
 46 48  1  0  0  0  0
 46 50  1  0  0  0  0
 47 52  1  0  0  0  0
 48 54  1  0  0  0  0
 49 67  1  0  0  0  0
 50 70  1  0  0  0  0
 51 54  1  0  0  0  0
 51 70  1  0  0  0  0
 52 74  1  0  0  0  0
 53 69  1  0  0  0  0
 54 66  1  0  0  0  0
 55 62  1  0  0  0  0
 56 63  1  0  0  0  0
 57 63  1  0  0  0  0
 58 63  1  0  0  0  0
 59 68  1  0  0  0  0
 60 76  1  0  0  0  0
 61 63  1  0  0  0  0
 61 75  1  0  0  0  0
 62 76  1  0  0  0  0
 64 66  1  0  0  0  0
 65 68  1  0  0  0  0
M  CHG  1  76   1
M  ISO  4  33 101  38 100  73 100  84 101
M  END
> <Batch ID>
0117

> <Smiles>
CNC(C)C(=O)NC(C(=O)N1Cc2cc([101O:1][101CH:1]=C3CCCN(c4cc([100NH:0][100C:0](=O)N5CCCC(n6nc(-c7ccc(Oc8ccc(F)cc8F)cc7)c(C(N)=O)c6N)C5)c(=O)n(C)n4)C3)ccc2CC1C(=O)NC1CCCc2ccccc21)C(C)(C)C

> <Shape>
0.273

> <Color>
0.069

> <Negative vol penalty>
0.000

$$$$

  -OEChem-04052301463D

 85 93  0     1  0  0  0  0  0999 V2000
  -30.9922  -22.7605   14.9477 C   0  0  0  0  0  0  0  0  0  0  0  0
  -30.4040  -22.1990   16.0765 C   0  0  0  0  0  0  0  0  0  0  0  0
  -27.0001  -17.7934   19.4901 C   0  0  0  0  0  0  0  0  0  0  0  0
  -28.5887  -17.1823   21.2047 C   0  0  0  0  0  0  0  0  0  0  0  0
  -31.3246  -24.1145   14.9367 C   0  0  0  0  0  0  0  0  0  0  0  0
  -30.1488  -22.9911   17.1954 C   0  0  0  0  0  0  0  0  0  0  0  0
  -25.4216  -22.4944   21.0571 C   0  0  0  0  0  0  0  0  0  0  0  0
  -27.7124  -18.9682   19.2488 C   0  0  0  0  0  0  0  0  0  0  0  0
  -29.3011  -18.3570   20.9634 C   0  0  0  0  0  0  0  0  0  0  0  0
  -25.2920  -21.8940   22.3087 C   0  0  0  0  0  0  0  0  0  0  0  0
  -29.0378  -21.6356   21.7459 C   0  0  0  0  0  0  0  0  0  0  0  0
  -29.4578  -22.3772   22.8500 C   0  0  0  0  0  0  0  0  0  0  0  0
  -25.6970  -24.0243   23.3658 C   0  0  0  0  0  0  0  0  0  0  0  0
  -31.7562  -22.1108   22.1547 C   0  0  0  0  0  0  0  0  0  0  0  0
  -27.4382  -16.9005   20.4681 C   0  0  0  0  0  0  0  0  0  0  0  0
  -26.8896  -14.4366   20.0994 C   0  0  0  0  0  0  0  0  0  0  0  0
  -31.0645  -24.9257   16.0524 C   0  0  0  0  0  0  0  0  0  0  0  0
  -25.7012  -23.8644   20.9504 C   0  0  0  0  0  0  0  0  0  0  0  0
  -30.4793  -24.3569   17.1998 C   0  0  0  0  0  0  0  0  0  0  0  0
  -25.8272  -24.6401   22.1116 C   0  0  0  0  0  0  0  0  0  0  0  0
  -26.3984  -15.0343   27.7544 C   0  0  0  0  0  0  0  0  0  0  0  0
  -26.4803  -16.3567   28.2522 C   0  0  0  0  0  0  0  0  0  0  0  0
  -28.8629  -19.2499   19.9854 C   0  0  0  0  0  0  0  0  0  0  0  0
  -25.4325  -22.6584   23.4633 C   0  0  0  0  0  0  0  0  0  0  0  0
  -29.9770  -21.1315   20.8462 C   0  0  0  0  0  0  0  0  0  0  0  0
  -30.8169  -22.6149   23.0545 C   0  0  0  0  0  0  0  0  0  0  0  0
  -31.3362  -21.3691   21.0506 C   0  0  0  0  0  0  0  0  0  0  0  0
  -26.7025  -15.6871   20.7182 C   0  0  0  0  0  0  0  0  0  0  0  0
  -25.1521  -14.9171   27.1846 C   0  0  0  0  0  0  0  0  0  0  0  0
  -25.9495  -13.6216   20.6811 C   0  0  0  0  0  0  0  0  0  0  0  0
  -25.2781  -16.9534   27.9508 C   0  0  0  0  0  0  0  0  0  0  0  0
  -27.8293  -14.0466   19.0891 C   0  0  0  0  0  0  0  0  0  0  0  0
  -24.5080  -13.8291   26.5297 C   0  0  0  0  0  0  0  0  0  0  0  0
  -23.1353  -13.9330   25.9838 C   0  0  0  0  0  0  0  0  0  0  0  0
  -28.0866  -25.5790   19.7364 C   0  0  0  0  0  0  0  0  0  0  0  0
  -26.1426  -28.0738   20.4568 C   0  0  0  0  0  0  0  0  0  0  0  0
  -23.5813  -29.2981   22.3510 C   0  0  0  0  0  0  0  0  0  0  0  0
  -31.4848  -26.3735   16.0110 C   0  0  0  0  0  0  0  0  0  0  0  0
  -25.8116  -24.5021   19.5926 C   0  0  0  0  0  0  0  0  0  0  0  0
  -26.1073  -26.1187   22.0511 C   0  0  0  0  0  0  0  0  0  0  0  0
  -30.8386  -27.2267   17.0995 C   0  0  0  0  0  0  0  0  0  0  0  0
  -21.6380  -13.7298   22.7321 C   0  0  0  0  0  0  0  0  0  0  0  0
  -30.9217  -26.5220   18.4498 C   0  0  0  0  0  0  0  0  0  0  0  0
  -22.7751  -14.1329   21.7940 C   0  0  0  0  0  0  0  0  0  0  0  0
  -21.7089  -14.4882   24.0535 C   0  0  0  0  0  0  0  0  0  0  0  0
  -24.1636  -14.7524   23.8222 C   0  0  0  0  0  0  0  0  0  0  0  0
  -30.1641  -25.1890   18.4239 C   0  0  1  0  0  0  0  0  0  0  0  0
  -26.6066  -25.8041   19.6069 C   0  0  1  0  0  0  0  0  0  0  0  0
  -24.1412  -13.9869   22.4877 C   0  0  2  0  0  0  0  0  0  0  0  0
  -27.6238  -16.9722   28.9531 C   0  0  0  0  0  0  0  0  0  0  0  0
  -27.1561  -12.9443   28.9140 C   0  0  0  0  0  0  0  0  0  0  0  0
  -22.2399  -31.3832   22.7387 C   0  0  0  0  0  0  0  0  0  0  0  0
  -28.4794  -29.2875   21.9984 C   0  0  0  0  0  0  0  0  0  0  0  0
  -26.8514  -30.8248   23.1185 C   0  0  0  0  0  0  0  0  0  0  0  0
  -27.1595  -30.9249   20.6451 C   0  0  0  0  0  0  0  0  0  0  0  0
  -21.0591  -27.9593   21.5730 C   0  0  0  0  0  0  0  0  0  0  0  0
  -27.4391  -13.9905   27.8305 C   0  0  0  0  0  0  0  0  0  0  0  0
  -23.4950  -19.2194   26.3622 C   0  0  0  0  0  0  0  0  0  0  0  0
  -24.4021  -20.4424   26.2188 C   0  0  0  0  0  0  0  0  0  0  0  0
  -23.4735  -18.6686   27.7857 C   0  0  0  0  0  0  0  0  0  0  0  0
  -24.4369  -20.9479   24.7820 C   0  0  0  0  0  0  0  0  0  1  0  0
  -25.9406  -28.9580   21.6636 C   0  0  1  0  0  0  0  0  0  0  0  0
  -22.3304  -30.0715   21.9746 C   0  0  2  0  0  0  0  0  0  0  0  0
  -27.1044  -29.9706   21.8579 C   0  0  0  0  0  0  0  0  0  0  0  0
  -25.7206  -15.6726   21.6236 N   0  0  0  0  0  0  0  0  0  0  0  0
  -25.0557  -12.6398   26.3425 N   0  0  0  0  0  0  0  0  0  0  0  0
  -25.2822  -14.4031   21.5778 N   0  0  0  0  0  0  0  0  0  0  0  0
  -23.0291  -14.3586   24.6671 N   0  0  0  0  0  0  0  0  0  0  0  0
  -26.2129  -26.6949   20.7004 N   0  0  0  0  0  0  0  0  0  0  0  0
  -25.6368  -12.3198   20.5078 N   0  0  0  0  0  0  0  0  0  0  0  0
  -28.7242  -15.0089   18.6018 N   0  0  0  0  0  0  0  0  0  0  0  0
  -24.7875  -18.2274   28.1890 N   0  0  0  0  0  0  0  0  0  0  0  0
  -28.7386  -25.4156   18.5291 N   0  0  0  0  0  0  0  0  0  0  0  0
  -24.6301  -29.5780   21.5007 N   0  0  0  0  0  0  0  0  0  0  0  0
  -21.1132  -29.2666   22.2767 N   0  3  0  0  0  0  0  0  0  0  0  0
  -27.8631  -12.8836   18.6203 O   0  0  0  0  0  0  0  0  0  0  0  0
  -22.2359  -13.6310   26.7573 O   0  0  0  0  0  0  0  0  0  0  0  0
  -28.5992  -25.5568   20.8493 O   0  0  0  0  0  0  0  0  0  0  0  0
  -26.2274  -28.5872   19.3384 O   0  0  0  0  0  0  0  0  0  0  0  0
  -23.6248  -28.5259   23.3062 O   0  0  0  0  0  0  0  0  0  0  0  0
  -24.4629  -16.0825   27.2999 O   0  0  0  0  0  0  0  0  0  0  0  0
  -29.5584  -20.3960   19.7500 O   0  0  0  0  0  0  0  0  0  0  0  0
  -25.3071  -22.0748   24.6863 O   0  0  0  0  0  0  0  0  0  1  0  0
  -31.2200  -23.3284   24.1140 F   0  0  0  0  0  0  0  0  0  0  0  0
  -32.2430  -20.8884   20.1890 F   0  0  0  0  0  0  0  0  0  0  0  0
  1  2  1  0  0  0  0
  1  5  2  0  0  0  0
  2  6  2  0  0  0  0
  3  8  2  0  0  0  0
  3 15  1  0  0  0  0
  4  9  1  0  0  0  0
  4 15  2  0  0  0  0
  5 17  1  0  0  0  0
  6 19  1  0  0  0  0
  7 10  2  0  0  0  0
  7 18  1  0  0  0  0
  8 23  1  0  0  0  0
  9 23  2  0  0  0  0
 10 24  1  0  0  0  0
 11 12  2  0  0  0  0
 11 25  1  0  0  0  0
 12 26  1  0  0  0  0
 13 20  1  0  0  0  0
 13 24  2  0  0  0  0
 14 26  2  0  0  0  0
 14 27  1  0  0  0  0
 15 28  1  0  0  0  0
 16 28  1  0  0  0  0
 16 30  2  0  0  0  0
 16 32  1  0  0  0  0
 17 19  2  0  0  0  0
 17 38  1  0  0  0  0
 18 20  2  0  0  0  0
 18 39  1  0  0  0  0
 19 47  1  0  0  0  0
 20 40  1  0  0  0  0
 21 22  1  0  0  0  0
 21 29  2  0  0  0  0
 21 57  1  0  0  0  0
 22 31  2  0  0  0  0
 22 50  1  0  0  0  0
 23 82  1  0  0  0  0
 24 83  1  0  0  0  0
 25 27  2  0  0  0  0
 25 82  1  0  0  0  0
 26 84  1  0  0  0  0
 27 85  1  0  0  0  0
 28 65  2  0  0  0  0
 29 33  1  0  0  0  0
 29 81  1  0  0  0  0
 30 67  1  0  0  0  0
 30 70  1  0  0  0  0
 31 72  1  0  0  0  0
 31 81  1  0  0  0  0
 32 71  1  0  0  0  0
 32 76  2  0  0  0  0
 33 34  1  0  0  0  0
 33 66  2  0  0  0  0
 34 68  1  0  0  0  0
 34 77  2  0  0  0  0
 35 48  1  0  0  0  0
 35 73  1  0  0  0  0
 35 78  2  0  0  0  0
 36 62  1  0  0  0  0
 36 69  1  0  0  0  0
 36 79  2  0  0  0  0
 37 63  1  0  0  0  0
 37 74  1  0  0  0  0
 37 80  2  0  0  0  0
 38 41  1  0  0  0  0
 39 48  1  0  0  0  0
 40 69  1  0  0  0  0
 41 43  1  0  0  0  0
 42 44  1  0  0  0  0
 42 45  1  0  0  0  0
 43 47  1  0  0  0  0
 44 49  1  0  0  0  0
 45 68  1  0  0  0  0
 46 49  1  0  0  0  0
 46 68  1  0  0  0  0
 47 73  1  0  0  0  0
 48 69  1  0  0  0  0
 49 67  1  0  0  0  0
 51 57  1  0  0  0  0
 52 63  1  0  0  0  0
 53 64  1  0  0  0  0
 54 64  1  0  0  0  0
 55 64  1  0  0  0  0
 56 75  1  0  0  0  0
 58 59  1  0  0  0  0
 58 60  1  0  0  0  0
 59 61  1  0  0  0  0
 60 72  1  0  0  0  0
 61 83  1  0  0  0  0
 62 64  1  0  0  0  0
 62 74  1  0  0  0  0
 63 75  1  0  0  0  0
 65 67  1  0  0  0  0
M  CHG  1  75   1
M  ISO  4  33 100  34 100  61 101  83 101
M  END
> <Batch ID>
0117

> <Smiles>
CCc1c([100C:0](=N)[100C:0](=O)N2CCCC(n3nc(-c4ccc(Oc5ccc(F)cc5F)cc4)c(C(N)=O)c3N)C2)oc(NCCC[101CH2:1][101O:1]c2ccc3c(c2)CN(C(=O)C(NC(=O)C(C)NC)C(C)(C)C)C(C(=O)NC2CCCc4ccccc42)C3)c1C

> <Shape>
0.198

> <Color>
0.066

> <Negative vol penalty>
0.000

$$$$

  -OEChem-04052301463D

 85 93  0     1  0  0  0  0  0999 V2000
  -30.0865  -24.9352   17.5715 C   0  0  0  0  0  0  0  0  0  0  0  0
  -28.7002  -24.9826   17.6773 C   0  0  0  0  0  0  0  0  0  0  0  0
  -26.3861  -14.2225   21.2419 C   0  0  0  0  0  0  0  0  0  0  0  0
  -24.1184  -14.2531   20.4091 C   0  0  0  0  0  0  0  0  0  0  0  0
  -30.8807  -25.4340   18.6032 C   0  0  0  0  0  0  0  0  0  0  0  0
  -28.1072  -25.5281   18.8154 C   0  0  0  0  0  0  0  0  0  0  0  0
  -22.8852  -28.7168   19.0769 C   0  0  0  0  0  0  0  0  0  0  0  0
  -26.1276  -13.0212   21.9019 C   0  0  0  0  0  0  0  0  0  0  0  0
  -23.8598  -13.0517   21.0691 C   0  0  0  0  0  0  0  0  0  0  0  0
  -21.5812  -28.3553   19.4125 C   0  0  0  0  0  0  0  0  0  0  0  0
  -24.4690   -9.7634   20.5829 C   0  0  0  0  0  0  0  0  0  0  0  0
  -23.7840   -8.7733   19.8787 C   0  0  0  0  0  0  0  0  0  0  0  0
  -18.5678  -21.5612   19.8700 C   0  0  0  0  0  0  0  0  0  0  0  0
  -21.9535  -29.1280   21.6671 C   0  0  0  0  0  0  0  0  0  0  0  0
  -20.5535  -22.9888   21.2123 C   0  0  0  0  0  0  0  0  0  0  0  0
  -22.0226   -8.8162   21.5318 C   0  0  0  0  0  0  0  0  0  0  0  0
  -25.3815  -14.8385   20.4955 C   0  0  0  0  0  0  0  0  0  0  0  0
  -19.9079  -21.2073   19.7134 C   0  0  0  0  0  0  0  0  0  0  0  0
  -26.1315  -16.2424   18.5020 C   0  0  0  0  0  0  0  0  0  0  0  0
  -30.2971  -25.9947   19.7502 C   0  0  0  0  0  0  0  0  0  0  0  0
  -23.7381  -29.2776   20.0384 C   0  0  0  0  0  0  0  0  0  0  0  0
  -28.8943  -26.0337   19.8640 C   0  0  0  0  0  0  0  0  0  0  0  0
  -23.2671  -29.4982   21.3406 C   0  0  0  0  0  0  0  0  0  0  0  0
  -19.2134  -23.3427   21.3688 C   0  0  0  0  0  0  0  0  0  0  0  0
  -20.9008  -21.9210   20.3846 C   0  0  0  0  0  0  0  0  0  0  0  0
  -24.8645  -12.4358   21.8155 C   0  0  0  0  0  0  0  0  0  0  0  0
  -21.1161  -28.5582   20.7085 C   0  0  0  0  0  0  0  0  0  0  0  0
  -23.9309  -10.2799   21.7616 C   0  0  0  0  0  0  0  0  0  0  0  0
  -18.2206  -22.6290   20.6976 C   0  0  0  0  0  0  0  0  0  0  0  0
  -22.5607   -8.2997   20.3531 C   0  0  0  0  0  0  0  0  0  0  0  0
  -22.7077   -9.8063   22.2361 C   0  0  0  0  0  0  0  0  0  0  0  0
  -25.6477  -16.0798   19.8140 C   0  0  0  0  0  0  0  0  0  0  0  0
  -26.2114  -17.6030   18.3318 C   0  0  0  0  0  0  0  0  0  0  0  0
  -19.7616  -18.8614   19.0128 C   0  0  0  0  0  0  0  0  0  0  0  0
  -20.2325  -20.0865   18.8390 C   0  0  0  0  0  0  0  0  0  0  0  0
  -18.8300  -25.5803   21.6358 C   0  0  0  0  0  0  0  0  0  0  0  0
  -26.4776  -15.2522   17.5246 C   0  0  0  0  0  0  0  0  0  0  0  0
  -26.5042  -28.4261   21.3528 C   0  0  0  0  0  0  0  0  0  0  0  0
  -26.3083  -31.3584   22.7258 C   0  0  0  0  0  0  0  0  0  0  0  0
  -24.3418  -33.9546   23.7454 C   0  0  0  0  0  0  0  0  0  0  0  0
  -23.3590  -22.2073   20.8553 C   0  0  0  0  0  0  0  0  0  0  0  0
  -31.1968  -26.4782   20.8600 C   0  0  0  0  0  0  0  0  0  0  0  0
  -25.1334  -29.6868   19.6536 C   0  0  0  0  0  0  0  0  0  0  0  0
  -24.1364  -30.1155   22.4044 C   0  0  0  0  0  0  0  0  0  0  0  0
  -30.4896  -27.3807   21.8678 C   0  0  0  0  0  0  0  0  0  0  0  0
  -26.8756  -21.6531   20.7995 C   0  0  0  0  0  0  0  0  0  0  0  0
  -29.1506  -26.7762   22.2782 C   0  0  0  0  0  0  0  0  0  0  0  0
  -27.0040  -20.1774   20.4151 C   0  0  0  0  0  0  0  0  0  0  0  0
  -25.6727  -21.8999   21.7081 C   0  0  0  0  0  0  0  0  0  0  0  0
  -24.5223  -19.9138   20.8132 C   0  0  0  0  0  0  0  0  0  0  0  0
  -28.2137  -26.6402   21.0719 C   0  0  1  0  0  0  0  0  0  0  0  0
  -26.0804  -29.7757   20.8463 C   0  0  1  0  0  0  0  0  0  0  0  0
  -25.6820  -19.6262   19.8457 C   0  0  2  0  0  0  0  0  0  0  0  0
  -24.4638  -36.1956   24.8681 C   0  0  0  0  0  0  0  0  0  0  0  0
  -26.6948  -29.9838   25.4223 C   0  0  0  0  0  0  0  0  0  0  0  0
  -25.8705  -32.0737   26.5273 C   0  0  0  0  0  0  0  0  0  0  0  0
  -27.9528  -32.1286   25.1550 C   0  0  0  0  0  0  0  0  0  0  0  0
  -23.2292  -35.3325   21.3743 C   0  0  0  0  0  0  0  0  0  0  0  0
  -16.1869  -22.3253   21.8925 C   0  0  0  0  0  0  0  0  0  0  0  0
  -18.4668  -26.8080   22.4273 C   0  0  0  0  0  0  0  0  0  0  0  0
  -19.6100  -27.8082   22.3893 C   0  0  0  0  0  0  0  0  0  1  0  0
  -25.7141  -31.9039   24.0019 C   0  0  1  0  0  0  0  0  0  0  0  0
  -24.4665  -35.4536   23.5407 C   0  0  2  0  0  0  0  0  0  0  0  0
  -26.5420  -31.5091   25.2573 C   0  0  0  0  0  0  0  0  0  0  0  0
  -25.4354  -17.2440   20.4333 N   0  0  0  0  0  0  0  0  0  0  0  0
  -18.8775  -24.4204   22.2053 N   0  0  0  0  0  0  0  0  0  0  0  0
  -25.7875  -18.1512   19.5065 N   0  0  0  0  0  0  0  0  0  0  0  0
  -25.4949  -30.4930   21.9807 N   0  0  0  0  0  0  0  0  0  0  0  0
  -24.4558  -21.3549   21.1022 N   0  0  0  0  0  0  0  0  0  0  0  0
  -26.6024  -18.3719   17.2934 N   0  0  0  0  0  0  0  0  0  0  0  0
  -26.3355  -13.8999   17.8642 N   0  0  0  0  0  0  0  0  0  0  0  0
  -22.2701  -21.5842   20.2464 N   0  0  0  0  0  0  0  0  0  0  0  0
  -27.6333  -27.9226   20.7356 N   0  0  0  0  0  0  0  0  0  0  0  0
  -25.5761  -33.3429   23.8055 N   0  0  0  0  0  0  0  0  0  0  0  0
  -23.3325  -35.9600   22.7169 N   0  3  0  0  0  0  0  0  0  0  0  0
  -26.9160  -15.5574   16.3896 O   0  0  0  0  0  0  0  0  0  0  0  0
  -25.8556  -27.8824   22.2391 O   0  0  0  0  0  0  0  0  0  0  0  0
  -27.4494  -31.6937   22.3985 O   0  0  0  0  0  0  0  0  0  0  0  0
  -23.2579  -33.3839   23.8461 O   0  0  0  0  0  0  0  0  0  0  0  0
  -23.3940  -23.4080   21.1367 O   0  0  0  0  0  0  0  0  0  0  0  0
  -24.6119  -11.2634   22.4592 O   0  0  0  0  0  0  0  0  0  0  0  0
  -16.9068  -22.9619   20.8389 O   0  0  0  0  0  0  0  0  0  0  0  0
  -19.8439  -28.2056   21.0388 O   0  0  0  0  0  0  0  0  0  1  0  0
  -21.9022   -7.3500   19.6760 F   0  0  0  0  0  0  0  0  0  0  0  0
  -22.1852  -10.2995   23.3672 F   0  0  0  0  0  0  0  0  0  0  0  0
  1  2  1  0  0  0  0
  1  5  2  0  0  0  0
  2  6  2  0  0  0  0
  3  8  2  0  0  0  0
  3 17  1  0  0  0  0
  4  9  1  0  0  0  0
  4 17  2  0  0  0  0
  5 20  1  0  0  0  0
  6 22  1  0  0  0  0
  7 10  2  0  0  0  0
  7 21  1  0  0  0  0
  8 26  1  0  0  0  0
  9 26  2  0  0  0  0
 10 27  1  0  0  0  0
 11 12  2  0  0  0  0
 11 28  1  0  0  0  0
 12 30  1  0  0  0  0
 13 18  1  0  0  0  0
 13 29  2  0  0  0  0
 14 23  1  0  0  0  0
 14 27  2  0  0  0  0
 15 24  2  0  0  0  0
 15 25  1  0  0  0  0
 16 30  2  0  0  0  0
 16 31  1  0  0  0  0
 17 32  1  0  0  0  0
 18 25  2  0  0  0  0
 18 35  1  0  0  0  0
 19 32  1  0  0  0  0
 19 33  2  0  0  0  0
 19 37  1  0  0  0  0
 20 22  2  0  0  0  0
 20 42  1  0  0  0  0
 21 23  2  0  0  0  0
 21 43  1  0  0  0  0
 22 51  1  0  0  0  0
 23 44  1  0  0  0  0
 24 29  1  0  0  0  0
 24 66  1  0  0  0  0
 25 72  1  0  0  0  0
 26 81  1  0  0  0  0
 27 83  1  0  0  0  0
 28 31  2  0  0  0  0
 28 81  1  0  0  0  0
 29 82  1  0  0  0  0
 30 84  1  0  0  0  0
 31 85  1  0  0  0  0
 32 65  2  0  0  0  0
 33 67  1  0  0  0  0
 33 70  1  0  0  0  0
 34 35  2  0  0  0  0
 36 60  1  0  0  0  0
 36 66  2  0  0  0  0
 37 71  1  0  0  0  0
 37 76  2  0  0  0  0
 38 52  1  0  0  0  0
 38 73  1  0  0  0  0
 38 77  2  0  0  0  0
 39 62  1  0  0  0  0
 39 68  1  0  0  0  0
 39 78  2  0  0  0  0
 40 63  1  0  0  0  0
 40 74  1  0  0  0  0
 40 79  2  0  0  0  0
 41 69  1  0  0  0  0
 41 72  1  0  0  0  0
 41 80  2  0  0  0  0
 42 45  1  0  0  0  0
 43 52  1  0  0  0  0
 44 68  1  0  0  0  0
 45 47  1  0  0  0  0
 46 48  1  0  0  0  0
 46 49  1  0  0  0  0
 47 51  1  0  0  0  0
 48 53  1  0  0  0  0
 49 69  1  0  0  0  0
 50 53  1  0  0  0  0
 50 69  1  0  0  0  0
 51 73  1  0  0  0  0
 52 68  1  0  0  0  0
 53 67  1  0  0  0  0
 54 63  1  0  0  0  0
 55 64  1  0  0  0  0
 56 64  1  0  0  0  0
 57 64  1  0  0  0  0
 58 75  1  0  0  0  0
 59 82  1  0  0  0  0
 60 61  1  0  0  0  0
 61 83  1  0  0  0  0
 62 64  1  0  0  0  0
 62 74  1  0  0  0  0
 63 75  1  0  0  0  0
 65 67  1  0  0  0  0
M  CHG  1  75   1
M  ISO  4  41 100  61 101  72 100  83 101
M  END
> <Batch ID>
0117

> <Smiles>
C=Cc1cc(OC)c(NC=C[101CH2:1][101O:1]c2ccc3c(c2)CN(C(=O)C(NC(=O)C(C)NC)C(C)(C)C)C(C(=O)NC2CCCc4ccccc42)C3)cc1[100NH:0][100C:0](=O)N1CCCC(n2nc(-c3ccc(Oc4ccc(F)cc4F)cc3)c(C(N)=O)c2N)C1

> <Shape>
0.280

> <Color>
0.074

> <Negative vol penalty>
0.000

$$$$

  -OEChem-04052301463D

 87 96  0     1  0  0  0  0  0999 V2000
  -28.9872  -23.9015   19.6525 C   0  0  0  0  0  0  0  0  0  0  0  0
  -27.8285  -24.4949   20.1431 C   0  0  0  0  0  0  0  0  0  0  0  0
  -27.4277  -15.2754   21.4812 C   0  0  0  0  0  0  0  0  0  0  0  0
  -25.0913  -15.5003   20.9087 C   0  0  0  0  0  0  0  0  0  0  0  0
  -30.2139  -24.1613   20.2620 C   0  0  0  0  0  0  0  0  0  0  0  0
  -27.8958  -25.3476   21.2444 C   0  0  0  0  0  0  0  0  0  0  0  0
  -25.1627  -29.5630   20.6072 C   0  0  0  0  0  0  0  0  0  0  0  0
  -21.2087  -26.0191   24.2950 C   0  0  0  0  0  0  0  0  0  0  0  0
  -22.1199  -25.0074   24.5978 C   0  0  0  0  0  0  0  0  0  0  0  0
  -27.3612  -13.9078   21.2154 C   0  0  0  0  0  0  0  0  0  0  0  0
  -25.0248  -14.1326   20.6429 C   0  0  0  0  0  0  0  0  0  0  0  0
  -23.7832  -29.4597   20.7806 C   0  0  0  0  0  0  0  0  0  0  0  0
  -25.8977  -12.0382   18.1385 C   0  0  0  0  0  0  0  0  0  0  0  0
  -25.2411  -11.6367   16.9752 C   0  0  0  0  0  0  0  0  0  0  0  0
  -23.9996  -30.3782   23.0007 C   0  0  0  0  0  0  0  0  0  0  0  0
  -23.6731  -10.3626   18.3000 C   0  0  0  0  0  0  0  0  0  0  0  0
  -26.2927  -16.0717   21.3279 C   0  0  0  0  0  0  0  0  0  0  0  0
  -22.7610  -24.8884   22.2714 C   0  0  0  0  0  0  0  0  0  0  0  0
  -26.6814  -18.5125   20.6961 C   0  0  0  0  0  0  0  0  0  0  0  0
  -30.2976  -25.0252   21.3653 C   0  0  0  0  0  0  0  0  0  0  0  0
  -25.9737  -30.0654   21.6351 C   0  0  0  0  0  0  0  0  0  0  0  0
  -29.1246  -25.6181   21.8701 C   0  0  0  0  0  0  0  0  0  0  0  0
  -25.3888  -30.4892   22.8369 C   0  0  0  0  0  0  0  0  0  0  0  0
  -21.8497  -25.9001   21.9686 C   0  0  0  0  0  0  0  0  0  0  0  0
  -21.0735  -26.4654   22.9803 C   0  0  0  0  0  0  0  0  0  0  0  0
  -22.8961  -24.4421   23.5861 C   0  0  0  0  0  0  0  0  0  0  0  0
  -26.1598  -13.3363   20.7963 C   0  0  0  0  0  0  0  0  0  0  0  0
  -23.2018  -29.8646   21.9786 C   0  0  0  0  0  0  0  0  0  0  0  0
  -25.4421  -11.6018   19.3826 C   0  0  0  0  0  0  0  0  0  0  0  0
  -24.1288  -10.7990   17.0560 C   0  0  0  0  0  0  0  0  0  0  0  0
  -24.3298  -10.7640   19.4633 C   0  0  0  0  0  0  0  0  0  0  0  0
  -26.3606  -17.4845   21.6028 C   0  0  0  0  0  0  0  0  0  0  0  0
  -26.6085  -19.6634   21.4421 C   0  0  0  0  0  0  0  0  0  0  0  0
  -19.0474  -27.3530   21.8096 C   0  0  0  0  0  0  0  0  0  0  0  0
  -23.1814  -23.2669   20.4800 C   0  0  0  0  0  0  0  0  0  0  0  0
  -23.5725  -24.2983   21.2089 C   0  0  0  0  0  0  0  0  0  0  0  0
  -27.0154  -18.4341   19.3040 C   0  0  0  0  0  0  0  0  0  0  0  0
  -28.3533  -28.8970   23.3889 C   0  0  0  0  0  0  0  0  0  0  0  0
  -28.5139  -31.9419   24.4958 C   0  0  0  0  0  0  0  0  0  0  0  0
  -26.9314  -34.9184   25.0279 C   0  0  0  0  0  0  0  0  0  0  0  0
  -24.0463  -22.8815   25.1947 C   0  0  0  0  0  0  0  0  0  0  0  0
  -31.6394  -25.2384   22.0202 C   0  0  0  0  0  0  0  0  0  0  0  0
  -27.4570  -30.1953   21.4224 C   0  0  0  0  0  0  0  0  0  0  0  0
  -26.2129  -31.0544   23.9639 C   0  0  0  0  0  0  0  0  0  0  0  0
  -18.1448  -28.5451   21.9970 C   0  0  0  0  0  0  0  0  0  0  0  0
  -31.6778  -26.4481   22.9504 C   0  0  0  0  0  0  0  0  0  0  0  0
  -19.0426  -29.5800   22.6407 C   0  0  0  0  0  0  0  0  0  0  0  0
  -26.1890  -20.3264   26.4427 C   0  0  0  0  0  0  0  0  0  0  0  0
  -30.4549  -26.4595   23.8621 C   0  0  0  0  0  0  0  0  0  0  0  0
  -26.4510  -19.4438   25.2202 C   0  0  0  0  0  0  0  0  0  0  0  0
  -24.7591  -20.8639   26.4582 C   0  0  0  0  0  0  0  0  0  0  0  0
  -24.6031  -20.6689   24.0073 C   0  0  0  0  0  0  0  0  0  0  0  0
  -29.1604  -26.5683   23.0473 C   0  0  1  0  0  0  0  0  0  0  0  0
  -28.2459  -30.2418   22.7274 C   0  0  1  0  0  0  0  0  0  0  0  0
  -26.0497  -20.1568   23.9140 C   0  0  2  0  0  0  0  0  0  0  0  0
  -20.0723  -28.7636   23.4226 C   0  0  2  0  0  0  0  0  0  0  0  0
  -21.6945  -26.3871   20.5596 C   0  0  0  0  0  0  0  0  0  0  0  0
  -27.3099  -37.2072   25.9848 C   0  0  0  0  0  0  0  0  0  0  0  0
  -28.3033  -30.7952   27.3155 C   0  0  0  0  0  0  0  0  0  0  0  0
  -27.7337  -33.0924   28.1320 C   0  0  0  0  0  0  0  0  0  0  0  0
  -29.9489  -32.6622   27.0688 C   0  0  0  0  0  0  0  0  0  0  0  0
  -26.3930  -36.2220   22.4260 C   0  0  0  0  0  0  0  0  0  0  0  0
  -21.3852  -29.5470   23.4803 C   0  0  0  0  0  0  0  0  0  1  0  0
  -27.8704  -32.7025   25.6300 C   0  0  1  0  0  0  0  0  0  0  0  0
  -27.3476  -36.3477   24.7307 C   0  0  2  0  0  0  0  0  0  0  0  0
  -28.4485  -32.3007   27.0163 C   0  0  0  0  0  0  0  0  0  0  0  0
  -26.1031  -17.9419   22.8310 N   0  0  0  0  0  0  0  0  0  0  0  0
  -26.2623  -19.2701   22.7013 N   0  0  0  0  0  0  0  0  0  0  0  0
  -20.1340  -27.5005   22.6948 N   0  0  0  0  0  0  0  0  0  0  0  0
  -27.6595  -31.1555   23.7100 N   0  0  0  0  0  0  0  0  0  0  0  0
  -24.4512  -21.5299   25.1907 N   0  0  0  0  0  0  0  0  0  0  0  0
  -26.8075  -20.9633   21.1373 N   0  0  0  0  0  0  0  0  0  0  0  0
  -27.0443  -17.1726   18.6938 N   0  0  0  0  0  0  0  0  0  0  0  0
  -23.8125  -23.4171   23.9286 N   0  0  0  0  0  0  0  0  0  0  0  0
  -28.9546  -27.9309   22.6050 N   0  0  0  0  0  0  0  0  0  0  0  0
  -28.0184  -34.1178   25.3083 N   0  0  0  0  0  0  0  0  0  0  0  0
  -26.4362  -36.9528   23.7187 N   0  3  0  0  0  0  0  0  0  0  0  0
  -18.7599  -26.4188   21.0742 O   0  0  0  0  0  0  0  0  0  0  0  0
  -27.2964  -19.4509   18.6253 O   0  0  0  0  0  0  0  0  0  0  0  0
  -27.9239  -28.7475   24.5269 O   0  0  0  0  0  0  0  0  0  0  0  0
  -29.7287  -32.0475   24.3093 O   0  0  0  0  0  0  0  0  0  0  0  0
  -25.7590  -34.5500   25.0164 O   0  0  0  0  0  0  0  0  0  0  0  0
  -23.9428  -23.5248   26.2423 O   0  0  0  0  0  0  0  0  0  0  0  0
  -26.0946  -12.0018   20.5366 O   0  0  0  0  0  0  0  0  0  0  0  0
  -21.8556  -29.7643   22.1507 O   0  0  0  0  0  0  0  0  0  1  0  0
  -23.4974  -10.4148   15.9389 F   0  0  0  0  0  0  0  0  0  0  0  0
  -23.8867  -10.3425   20.6557 F   0  0  0  0  0  0  0  0  0  0  0  0
  1  2  1  0  0  0  0
  1  5  2  0  0  0  0
  2  6  2  0  0  0  0
  3 10  2  0  0  0  0
  3 17  1  0  0  0  0
  4 11  1  0  0  0  0
  4 17  2  0  0  0  0
  5 20  1  0  0  0  0
  6 22  1  0  0  0  0
  7 12  2  0  0  0  0
  7 21  1  0  0  0  0
  8  9  1  0  0  0  0
  8 25  2  0  0  0  0
  9 26  2  0  0  0  0
 10 27  1  0  0  0  0
 11 27  2  0  0  0  0
 12 28  1  0  0  0  0
 13 14  2  0  0  0  0
 13 29  1  0  0  0  0
 14 30  1  0  0  0  0
 15 23  1  0  0  0  0
 15 28  2  0  0  0  0
 16 30  2  0  0  0  0
 16 31  1  0  0  0  0
 17 32  1  0  0  0  0
 18 24  2  0  0  0  0
 18 26  1  0  0  0  0
 18 36  1  0  0  0  0
 19 32  1  0  0  0  0
 19 33  2  0  0  0  0
 19 37  1  0  0  0  0
 20 22  2  0  0  0  0
 20 42  1  0  0  0  0
 21 23  2  0  0  0  0
 21 43  1  0  0  0  0
 22 53  1  0  0  0  0
 23 44  1  0  0  0  0
 24 25  1  0  0  0  0
 24 57  1  0  0  0  0
 25 69  1  0  0  0  0
 26 74  1  0  0  0  0
 27 84  1  0  0  0  0
 28 85  1  0  0  0  0
 29 31  2  0  0  0  0
 29 84  1  0  0  0  0
 30 86  1  0  0  0  0
 31 87  1  0  0  0  0
 32 67  2  0  0  0  0
 33 68  1  0  0  0  0
 33 72  1  0  0  0  0
 34 45  1  0  0  0  0
 34 69  1  0  0  0  0
 34 78  2  0  0  0  0
 35 36  2  0  0  0  0
 37 73  1  0  0  0  0
 37 79  2  0  0  0  0
 38 54  1  0  0  0  0
 38 75  1  0  0  0  0
 38 80  2  0  0  0  0
 39 64  1  0  0  0  0
 39 70  1  0  0  0  0
 39 81  2  0  0  0  0
 40 65  1  0  0  0  0
 40 76  1  0  0  0  0
 40 82  2  0  0  0  0
 41 71  1  0  0  0  0
 41 74  1  0  0  0  0
 41 83  2  0  0  0  0
 42 46  1  0  0  0  0
 43 54  1  0  0  0  0
 44 70  1  0  0  0  0
 45 47  1  0  0  0  0
 46 49  1  0  0  0  0
 47 56  1  0  0  0  0
 48 50  1  0  0  0  0
 48 51  1  0  0  0  0
 49 53  1  0  0  0  0
 50 55  1  0  0  0  0
 51 71  1  0  0  0  0
 52 55  1  0  0  0  0
 52 71  1  0  0  0  0
 53 75  1  0  0  0  0
 54 70  1  0  0  0  0
 55 68  1  0  0  0  0
 56 63  1  0  0  0  0
 56 69  1  0  0  0  0
 58 65  1  0  0  0  0
 59 66  1  0  0  0  0
 60 66  1  0  0  0  0
 61 66  1  0  0  0  0
 62 77  1  0  0  0  0
 63 85  1  0  0  0  0
 64 66  1  0  0  0  0
 64 76  1  0  0  0  0
 65 77  1  0  0  0  0
 67 68  1  0  0  0  0
M  CHG  1  77   1
M  ISO  4  41 100  63 101  74 100  85 101
M  END
> <Batch ID>
0117

> <Smiles>
C=Cc1c([100NH:0][100C:0](=O)N2CCCC(n3nc(-c4ccc(Oc5ccc(F)cc5F)cc4)c(C(N)=O)c3N)C2)ccc(N2C(=O)CCC2[101CH2:1][101O:1]c2ccc3c(c2)CN(C(=O)C(NC(=O)C(C)NC)C(C)(C)C)C(C(=O)NC2CCCc4ccccc42)C3)c1C

> <Shape>
0.246

> <Color>
0.068

> <Negative vol penalty>
0.000

$$$$

  -OEChem-04052301463D

 82 90  0     1  0  0  0  0  0999 V2000
  -27.2213  -28.6114   18.8753 C   0  0  0  0  0  0  0  0  0  0  0  0
  -26.7725  -27.4398   19.4764 C   0  0  0  0  0  0  0  0  0  0  0  0
  -32.5209  -19.5720   19.0554 C   0  0  0  0  0  0  0  0  0  0  0  0
  -30.5827  -20.6000   20.0671 C   0  0  0  0  0  0  0  0  0  0  0  0
  -26.6562  -29.8359   19.2292 C   0  0  0  0  0  0  0  0  0  0  0  0
  -25.7591  -27.4921   20.4327 C   0  0  0  0  0  0  0  0  0  0  0  0
  -22.2468  -23.9105   19.7392 C   0  0  0  0  0  0  0  0  0  0  0  0
  -32.8105  -20.7667   18.3963 C   0  0  0  0  0  0  0  0  0  0  0  0
  -30.8723  -21.7947   19.4081 C   0  0  0  0  0  0  0  0  0  0  0  0
  -22.5638  -22.6185   20.1563 C   0  0  0  0  0  0  0  0  0  0  0  0
  -30.8964  -25.0088   17.7113 C   0  0  0  0  0  0  0  0  0  0  0  0
  -29.8413  -25.6816   17.0951 C   0  0  0  0  0  0  0  0  0  0  0  0
  -21.2843  -22.9620   22.1723 C   0  0  0  0  0  0  0  0  0  0  0  0
  -29.4360  -23.7587   15.6896 C   0  0  0  0  0  0  0  0  0  0  0  0
  -23.2410  -14.0603   20.8479 C   0  0  0  0  0  0  0  0  0  0  0  0
  -22.2474  -15.7409   21.9447 C   0  0  0  0  0  0  0  0  0  0  0  0
  -31.4070  -19.4886   19.8908 C   0  0  0  0  0  0  0  0  0  0  0  0
  -31.5581  -17.8539   21.8433 C   0  0  0  0  0  0  0  0  0  0  0  0
  -25.6286  -29.9022   20.1833 C   0  0  0  0  0  0  0  0  0  0  0  0
  -21.4538  -24.7432   20.5418 C   0  0  0  0  0  0  0  0  0  0  0  0
  -25.1806  -28.7188   20.8008 C   0  0  0  0  0  0  0  0  0  0  0  0
  -20.9565  -24.2632   21.7619 C   0  0  0  0  0  0  0  0  0  0  0  0
  -24.1708  -15.0669   20.9876 C   0  0  0  0  0  0  0  0  0  0  0  0
  -31.9863  -21.8781   18.5726 C   0  0  0  0  0  0  0  0  0  0  0  0
  -22.0850  -22.1451   21.3744 C   0  0  0  0  0  0  0  0  0  0  0  0
  -31.2214  -23.7110   17.3166 C   0  0  0  0  0  0  0  0  0  0  0  0
  -23.5422  -16.1302   21.6814 C   0  0  0  0  0  0  0  0  0  0  0  0
  -29.1111  -25.0565   16.0843 C   0  0  0  0  0  0  0  0  0  0  0  0
  -30.4912  -23.0859   16.3058 C   0  0  0  0  0  0  0  0  0  0  0  0
  -31.1070  -18.2546   20.5714 C   0  0  0  0  0  0  0  0  0  0  0  0
  -30.9978  -16.6141   22.0315 C   0  0  0  0  0  0  0  0  0  0  0  0
  -23.5257  -20.7094   22.5293 C   0  0  0  0  0  0  0  0  0  1  0  0
  -32.4077  -18.5409   22.7717 C   0  0  0  0  0  0  0  0  0  0  0  0
  -23.9488  -19.5259   22.9985 C   0  0  0  0  0  0  0  0  0  0  0  0
  -21.8925  -27.5336   21.9994 C   0  0  0  0  0  0  0  0  0  0  0  0
  -18.7317  -27.2397   22.6667 C   0  0  0  0  0  0  0  0  0  0  0  0
  -16.0359  -25.1877   23.0775 C   0  0  0  0  0  0  0  0  0  0  0  0
  -26.1165  -13.9634   19.8288 C   0  0  0  0  0  0  0  0  0  0  0  0
  -25.0813  -31.2539   20.5680 C   0  0  0  0  0  0  0  0  0  0  0  0
  -21.0986  -26.1249   20.0652 C   0  0  0  0  0  0  0  0  0  0  0  0
  -20.0845  -25.1102   22.6511 C   0  0  0  0  0  0  0  0  0  0  0  0
  -23.7529  -31.1825   21.3167 C   0  0  0  0  0  0  0  0  0  0  0  0
  -29.4686  -12.7865   19.5930 C   0  0  0  0  0  0  0  0  0  0  0  0
  -23.8148  -30.1249   22.4142 C   0  0  0  0  0  0  0  0  0  0  0  0
  -30.3101  -14.0172   19.9389 C   0  0  0  0  0  0  0  0  0  0  0  0
  -28.2245  -13.1581   18.7882 C   0  0  0  0  0  0  0  0  0  0  0  0
  -28.2260  -15.4322   19.7358 C   0  0  0  0  0  0  0  0  0  0  0  0
  -24.0660  -28.7319   21.8243 C   0  0  1  0  0  0  0  0  0  0  0  0
  -20.7088  -27.0667   21.2003 C   0  0  1  0  0  0  0  0  0  0  0  0
  -29.4560  -15.1156   20.6020 C   0  0  2  0  0  0  0  0  0  0  0  0
  -25.2152  -19.4274   23.8022 C   0  0  0  0  0  0  0  0  0  0  0  0
  -13.5948  -25.2345   23.6573 C   0  0  0  0  0  0  0  0  0  0  0  0
  -19.4399  -27.6670   25.6037 C   0  0  0  0  0  0  0  0  0  0  0  0
  -17.1804  -26.7730   26.2065 C   0  0  0  0  0  0  0  0  0  0  0  0
  -17.3737  -28.8545   24.8454 C   0  0  0  0  0  0  0  0  0  0  0  0
  -20.8541  -13.7122   21.5054 C   0  0  0  0  0  0  0  0  0  0  0  0
  -15.2735  -24.0341   20.4609 C   0  0  0  0  0  0  0  0  0  0  0  0
  -23.2215  -18.2347   22.7416 C   0  0  0  0  0  0  0  0  0  0  0  0
  -17.9283  -26.6261   23.7878 C   0  0  1  0  0  0  0  0  0  0  0  0
  -14.6203  -25.2635   22.5347 C   0  0  2  0  0  0  0  0  0  0  0  0
  -17.9986  -27.4646   25.0952 C   0  0  0  0  0  0  0  0  0  0  0  0
  -30.3208  -17.3432   19.9925 N   0  0  0  0  0  0  0  0  0  0  0  0
  -22.0756  -14.4810   21.4337 N   0  0  0  0  0  0  0  0  0  0  0  0
  -30.2736  -16.3574   20.9047 N   0  0  0  0  0  0  0  0  0  0  0  0
  -19.7704  -26.4563   22.1441 N   0  0  0  0  0  0  0  0  0  0  0  0
  -27.4628  -14.2006   19.4794 N   0  0  0  0  0  0  0  0  0  0  0  0
  -31.0589  -15.7293   23.0493 N   0  0  0  0  0  0  0  0  0  0  0  0
  -32.8962  -19.8066   22.4198 N   0  0  0  0  0  0  0  0  0  0  0  0
  -25.5043  -15.0141   20.5114 N   0  0  0  0  0  0  0  0  0  0  0  0
  -22.8481  -28.1974   21.2539 N   0  0  0  0  0  0  0  0  0  0  0  0
  -16.5776  -26.4413   23.2684 N   0  0  0  0  0  0  0  0  0  0  0  0
  -14.3526  -24.1148   21.6238 N   0  3  0  0  0  0  0  0  0  0  0  0
  -32.7375  -18.0401   23.8735 O   0  0  0  0  0  0  0  0  0  0  0  0
  -21.9349  -27.3097   23.2034 O   0  0  0  0  0  0  0  0  0  0  0  0
  -18.4436  -28.3697   22.2645 O   0  0  0  0  0  0  0  0  0  0  0  0
  -16.6031  -24.1230   23.3125 O   0  0  0  0  0  0  0  0  0  0  0  0
  -25.5567  -12.8956   19.5675 O   0  0  0  0  0  0  0  0  0  0  0  0
  -32.2687  -23.0441   17.9298 O   0  0  0  0  0  0  0  0  0  0  0  0
  -22.3935  -20.8847   21.7843 O   0  0  0  0  0  0  0  0  0  1  0  0
  -24.0775  -17.3380   22.0457 O   0  0  0  0  0  0  0  0  0  0  0  0
  -28.0969  -25.7021   15.4937 F   0  0  0  0  0  0  0  0  0  0  0  0
  -30.7980  -21.8388   15.9231 F   0  0  0  0  0  0  0  0  0  0  0  0
  1  2  1  0  0  0  0
  1  5  2  0  0  0  0
  2  6  2  0  0  0  0
  3  8  2  0  0  0  0
  3 17  1  0  0  0  0
  4  9  1  0  0  0  0
  4 17  2  0  0  0  0
  5 19  1  0  0  0  0
  6 21  1  0  0  0  0
  7 10  2  0  0  0  0
  7 20  1  0  0  0  0
  8 24  1  0  0  0  0
  9 24  2  0  0  0  0
 10 25  1  0  0  0  0
 11 12  2  0  0  0  0
 11 26  1  0  0  0  0
 12 28  1  0  0  0  0
 13 22  1  0  0  0  0
 13 25  2  0  0  0  0
 14 28  2  0  0  0  0
 14 29  1  0  0  0  0
 15 23  2  0  0  0  0
 15 63  1  0  0  0  0
 16 27  2  0  0  0  0
 16 63  1  0  0  0  0
 17 30  1  0  0  0  0
 18 30  1  0  0  0  0
 18 31  2  0  0  0  0
 18 33  1  0  0  0  0
 19 21  2  0  0  0  0
 19 39  1  0  0  0  0
 20 22  2  0  0  0  0
 20 40  1  0  0  0  0
 21 48  1  0  0  0  0
 22 41  1  0  0  0  0
 23 27  1  0  0  0  0
 23 69  1  0  0  0  0
 24 78  1  0  0  0  0
 25 79  1  0  0  0  0
 26 29  2  0  0  0  0
 26 78  1  0  0  0  0
 27 80  1  0  0  0  0
 28 81  1  0  0  0  0
 29 82  1  0  0  0  0
 30 62  2  0  0  0  0
 31 64  1  0  0  0  0
 31 67  1  0  0  0  0
 32 34  2  0  0  0  0
 32 79  1  0  0  0  0
 33 68  1  0  0  0  0
 33 73  2  0  0  0  0
 34 51  1  0  0  0  0
 34 58  1  0  0  0  0
 35 49  1  0  0  0  0
 35 70  1  0  0  0  0
 35 74  2  0  0  0  0
 36 59  1  0  0  0  0
 36 65  1  0  0  0  0
 36 75  2  0  0  0  0
 37 60  1  0  0  0  0
 37 71  1  0  0  0  0
 37 76  2  0  0  0  0
 38 66  1  0  0  0  0
 38 69  1  0  0  0  0
 38 77  2  0  0  0  0
 39 42  1  0  0  0  0
 40 49  1  0  0  0  0
 41 65  1  0  0  0  0
 42 44  1  0  0  0  0
 43 45  1  0  0  0  0
 43 46  1  0  0  0  0
 44 48  1  0  0  0  0
 45 50  1  0  0  0  0
 46 66  1  0  0  0  0
 47 50  1  0  0  0  0
 47 66  1  0  0  0  0
 48 70  1  0  0  0  0
 49 65  1  0  0  0  0
 50 64  1  0  0  0  0
 52 60  1  0  0  0  0
 53 61  1  0  0  0  0
 54 61  1  0  0  0  0
 55 61  1  0  0  0  0
 56 63  1  0  0  0  0
 57 72  1  0  0  0  0
 58 80  1  0  0  0  0
 59 61  1  0  0  0  0
 59 71  1  0  0  0  0
 60 72  1  0  0  0  0
 62 64  1  0  0  0  0
M  CHG  1  72   1
M  ISO  4  32 101  38 100  69 100  79 101
M  END
> <Batch ID>
0117

> <Smiles>
CNC(C)C(=O)NC(C(=O)N1Cc2cc([101O:1][101CH:1]=C(C)COc3cn(C)cc3[100NH:0][100C:0](=O)N3CCCC(n4nc(-c5ccc(Oc6ccc(F)cc6F)cc5)c(C(N)=O)c4N)C3)ccc2CC1C(=O)NC1CCCc2ccccc21)C(C)(C)C

> <Shape>
0.217

> <Color>
0.072

> <Negative vol penalty>
0.000

$$$$

  -OEChem-04052301463D

 85 93  0     1  0  0  0  0  0999 V2000
  -20.9234   -8.9522   24.2675 C   0  0  0  0  0  0  0  0  0  0  0  0
  -21.9902   -9.7565   24.6553 C   0  0  0  0  0  0  0  0  0  0  0  0
  -22.8844  -28.8138   20.6445 C   0  0  0  0  0  0  0  0  0  0  0  0
  -24.2122  -29.2403   22.6174 C   0  0  0  0  0  0  0  0  0  0  0  0
  -20.8668   -8.4500   22.9681 C   0  0  0  0  0  0  0  0  0  0  0  0
  -23.0017  -10.0583   23.7441 C   0  0  0  0  0  0  0  0  0  0  0  0
  -24.2997  -14.9524   23.8325 C   0  0  0  0  0  0  0  0  0  0  0  0
  -21.7259  -29.1219   21.3575 C   0  0  0  0  0  0  0  0  0  0  0  0
  -23.0536  -29.5485   23.3305 C   0  0  0  0  0  0  0  0  0  0  0  0
  -25.1234  -15.3739   24.8754 C   0  0  0  0  0  0  0  0  0  0  0  0
  -18.3855  -29.4482   22.7572 C   0  0  0  0  0  0  0  0  0  0  0  0
  -17.2871  -28.6013   22.6100 C   0  0  0  0  0  0  0  0  0  0  0  0
  -30.8567  -21.5065   24.0216 C   0  0  0  0  0  0  0  0  0  0  0  0
  -27.0301  -15.2761   23.4009 C   0  0  0  0  0  0  0  0  0  0  0  0
  -30.0110  -18.8972   23.5123 C   0  0  0  0  0  0  0  0  0  0  0  0
  -18.5989  -26.7539   23.4487 C   0  0  0  0  0  0  0  0  0  0  0  0
  -24.1276  -28.8730   21.2744 C   0  0  0  0  0  0  0  0  0  0  0  0
  -30.4496  -20.6873   25.0745 C   0  0  0  0  0  0  0  0  0  0  0  0
  -26.1323  -29.4424   19.8033 C   0  0  0  0  0  0  0  0  0  0  0  0
  -21.8732   -8.7536   22.0377 C   0  0  0  0  0  0  0  0  0  0  0  0
  -24.8376  -14.6786   22.5668 C   0  0  0  0  0  0  0  0  0  0  0  0
  -22.9592   -9.5585   22.4314 C   0  0  0  0  0  0  0  0  0  0  0  0
  -26.2107  -14.8537   22.3430 C   0  0  0  0  0  0  0  0  0  0  0  0
  -30.8409  -21.0211   22.7139 C   0  0  0  0  0  0  0  0  0  0  0  0
  -30.4181  -19.7165   22.4593 C   0  0  0  0  0  0  0  0  0  0  0  0
  -30.0268  -19.3826   24.8199 C   0  0  0  0  0  0  0  0  0  0  0  0
  -21.8105  -29.4893   22.7005 C   0  0  0  0  0  0  0  0  0  0  0  0
  -26.4892  -15.5330   24.6605 C   0  0  0  0  0  0  0  0  0  0  0  0
  -19.5907  -28.9480   23.2502 C   0  0  0  0  0  0  0  0  0  0  0  0
  -17.3937  -27.2542   22.9557 C   0  0  0  0  0  0  0  0  0  0  0  0
  -19.6974  -27.6009   23.5959 C   0  0  0  0  0  0  0  0  0  0  0  0
  -25.3247  -28.5543   20.5386 C   0  0  0  0  0  0  0  0  0  0  0  0
  -27.1375  -28.6544   19.2982 C   0  0  0  0  0  0  0  0  0  0  0  0
  -29.7565  -22.2657   26.8190 C   0  0  0  0  0  0  0  0  0  0  0  0
  -30.4763  -21.2249   26.4292 C   0  0  0  0  0  0  0  0  0  0  0  0
  -28.3503  -18.5783   26.1494 C   0  0  0  0  0  0  0  0  0  0  0  0
  -25.9870  -30.8536   19.5955 C   0  0  0  0  0  0  0  0  0  0  0  0
  -25.0265  -12.0983   20.7201 C   0  0  0  0  0  0  0  0  0  0  0  0
  -26.2489  -14.2017   18.5744 C   0  0  0  0  0  0  0  0  0  0  0  0
  -27.8368  -17.1690   18.0079 C   0  0  0  0  0  0  0  0  0  0  0  0
  -29.4844  -23.5787   21.1916 C   0  0  0  0  0  0  0  0  0  0  0  0
  -21.7930   -8.1488   20.6584 C   0  0  0  0  0  0  0  0  0  0  0  0
  -23.9316  -14.2504   21.4451 C   0  0  0  0  0  0  0  0  0  0  0  0
  -26.8345  -14.5924   20.9972 C   0  0  0  0  0  0  0  0  0  0  0  0
  -22.7130   -8.8226   19.6435 C   0  0  0  0  0  0  0  0  0  0  0  0
  -28.0402  -24.1594   17.9244 C   0  0  0  0  0  0  0  0  0  0  0  0
  -24.1066   -9.0164   20.2325 C   0  0  0  0  0  0  0  0  0  0  0  0
  -27.2526  -25.4486   18.1648 C   0  0  0  0  0  0  0  0  0  0  0  0
  -27.9785  -23.2391   19.1399 C   0  0  0  0  0  0  0  0  0  0  0  0
  -27.6493  -25.1555   20.6540 C   0  0  0  0  0  0  0  0  0  0  0  0
  -24.0630   -9.9284   21.4645 C   0  0  1  0  0  0  0  0  0  0  0  0
  -24.6661  -13.5052   20.3349 C   0  0  1  0  0  0  0  0  0  0  0  0
  -27.6917  -26.1384   19.4699 C   0  0  2  0  0  0  0  0  0  0  0  0
  -30.3926  -19.1748   21.0678 C   0  0  0  0  0  0  0  0  0  0  0  0
  -28.7347  -18.5997   16.1521 C   0  0  0  0  0  0  0  0  0  0  0  0
  -28.6457  -12.3339   18.2973 C   0  0  0  0  0  0  0  0  0  0  0  0
  -29.8958  -14.2123   17.2125 C   0  0  0  0  0  0  0  0  0  0  0  0
  -27.8297  -13.3104   16.1444 C   0  0  0  0  0  0  0  0  0  0  0  0
  -26.0181  -19.4011   18.6925 C   0  0  0  0  0  0  0  0  0  0  0  0
  -31.2802  -21.9164   21.6024 C   0  0  0  0  0  0  0  0  0  0  0  0
  -27.7839  -17.7056   27.2373 C   0  0  0  0  0  0  0  0  0  0  0  0
  -26.7131  -16.7916   26.6659 C   0  0  0  0  0  0  0  0  0  1  0  0
  -27.6319  -14.7077   18.2421 C   0  0  1  0  0  0  0  0  0  0  0  0
  -27.5389  -18.3027   17.0434 C   0  0  2  0  0  0  0  0  0  0  0  0
  -28.4896  -13.6442   17.5001 C   0  0  0  0  0  0  0  0  0  0  0  0
  -25.7775  -27.2982   20.5059 N   0  0  0  0  0  0  0  0  0  0  0  0
  -29.6101  -18.5362   25.8610 N   0  0  0  0  0  0  0  0  0  0  0  0
  -26.8806  -27.3913   19.7440 N   0  0  0  0  0  0  0  0  0  0  0  0
  -25.9080  -14.1696   19.9341 N   0  0  0  0  0  0  0  0  0  0  0  0
  -28.4268  -23.9508   20.3451 N   0  0  0  0  0  0  0  0  0  0  0  0
  -28.2072  -28.9257   18.5206 N   0  0  0  0  0  0  0  0  0  0  0  0
  -24.8972  -31.5073   20.1866 N   0  0  0  0  0  0  0  0  0  0  0  0
  -23.9421  -11.3138   21.0637 N   0  0  0  0  0  0  0  0  0  0  0  0
  -27.4446  -15.9490   17.4987 N   0  0  0  0  0  0  0  0  0  0  0  0
  -30.1654  -22.4220   20.8326 N   0  0  0  0  0  0  0  0  0  0  0  0
  -27.1921  -19.5431   17.7933 N   0  3  0  0  0  0  0  0  0  0  0  0
  -26.7903  -31.5124   18.8925 O   0  0  0  0  0  0  0  0  0  0  0  0
  -26.2012  -11.7498   20.7051 O   0  0  0  0  0  0  0  0  0  0  0  0
  -25.4962  -13.8547   17.6608 O   0  0  0  0  0  0  0  0  0  0  0  0
  -28.3679  -17.3472   19.1018 O   0  0  0  0  0  0  0  0  0  0  0  0
  -29.8021  -24.2324   22.1911 O   0  0  0  0  0  0  0  0  0  0  0  0
  -20.6802  -29.7902   23.3965 O   0  0  0  0  0  0  0  0  0  0  0  0
  -27.2955  -15.9438   25.6769 O   0  0  0  0  0  0  0  0  0  1  0  0
  -16.3383  -26.4414   22.8157 F   0  0  0  0  0  0  0  0  0  0  0  0
  -20.8523  -27.1148   24.0711 F   0  0  0  0  0  0  0  0  0  0  0  0
  1  2  1  0  0  0  0
  1  5  2  0  0  0  0
  2  6  2  0  0  0  0
  3  8  2  0  0  0  0
  3 17  1  0  0  0  0
  4  9  1  0  0  0  0
  4 17  2  0  0  0  0
  5 20  1  0  0  0  0
  6 22  1  0  0  0  0
  7 10  2  0  0  0  0
  7 21  1  0  0  0  0
  8 27  1  0  0  0  0
  9 27  2  0  0  0  0
 10 28  1  0  0  0  0
 11 12  2  0  0  0  0
 11 29  1  0  0  0  0
 12 30  1  0  0  0  0
 13 18  1  0  0  0  0
 13 24  2  0  0  0  0
 14 23  1  0  0  0  0
 14 28  2  0  0  0  0
 15 25  2  0  0  0  0
 15 26  1  0  0  0  0
 16 30  2  0  0  0  0
 16 31  1  0  0  0  0
 17 32  1  0  0  0  0
 18 26  2  0  0  0  0
 18 35  1  0  0  0  0
 19 32  1  0  0  0  0
 19 33  2  0  0  0  0
 19 37  1  0  0  0  0
 20 22  2  0  0  0  0
 20 42  1  0  0  0  0
 21 23  2  0  0  0  0
 21 43  1  0  0  0  0
 22 51  1  0  0  0  0
 23 44  1  0  0  0  0
 24 25  1  0  0  0  0
 24 60  1  0  0  0  0
 25 54  1  0  0  0  0
 26 67  1  0  0  0  0
 27 82  1  0  0  0  0
 28 83  1  0  0  0  0
 29 31  2  0  0  0  0
 29 82  1  0  0  0  0
 30 84  1  0  0  0  0
 31 85  1  0  0  0  0
 32 66  2  0  0  0  0
 33 68  1  0  0  0  0
 33 71  1  0  0  0  0
 34 35  2  0  0  0  0
 36 61  1  0  0  0  0
 36 67  2  0  0  0  0
 37 72  1  0  0  0  0
 37 77  2  0  0  0  0
 38 52  1  0  0  0  0
 38 73  1  0  0  0  0
 38 78  2  0  0  0  0
 39 63  1  0  0  0  0
 39 69  1  0  0  0  0
 39 79  2  0  0  0  0
 40 64  1  0  0  0  0
 40 74  1  0  0  0  0
 40 80  2  0  0  0  0
 41 70  1  0  0  0  0
 41 75  1  0  0  0  0
 41 81  2  0  0  0  0
 42 45  1  0  0  0  0
 43 52  1  0  0  0  0
 44 69  1  0  0  0  0
 45 47  1  0  0  0  0
 46 48  1  0  0  0  0
 46 49  1  0  0  0  0
 47 51  1  0  0  0  0
 48 53  1  0  0  0  0
 49 70  1  0  0  0  0
 50 53  1  0  0  0  0
 50 70  1  0  0  0  0
 51 73  1  0  0  0  0
 52 69  1  0  0  0  0
 53 68  1  0  0  0  0
 55 64  1  0  0  0  0
 56 65  1  0  0  0  0
 57 65  1  0  0  0  0
 58 65  1  0  0  0  0
 59 76  1  0  0  0  0
 60 75  1  0  0  0  0
 61 62  1  0  0  0  0
 62 83  1  0  0  0  0
 63 65  1  0  0  0  0
 63 74  1  0  0  0  0
 64 76  1  0  0  0  0
 66 68  1  0  0  0  0
M  CHG  1  76   1
M  ISO  4  41 100  62 101  75 100  83 101
M  END
> <Batch ID>
0117

> <Smiles>
C=Cc1cc(C[100NH:0][100C:0](=O)N2CCCC(n3nc(-c4ccc(Oc5ccc(F)cc5F)cc4)c(C(N)=O)c3N)C2)c(C)cc1NC=C[101CH2:1][101O:1]c1ccc2c(c1)CN(C(=O)C(NC(=O)C(C)NC)C(C)(C)C)C(C(=O)NC1CCCc3ccccc31)C2

> <Shape>
0.233

> <Color>
0.060

> <Negative vol penalty>
0.000

$$$$

  -OEChem-04052301463D

 87 95  0     1  0  0  0  0  0999 V2000
  -24.4983  -30.8644   20.2866 C   0  0  0  0  0  0  0  0  0  0  0  0
  -25.5198  -30.7460   21.2236 C   0  0  0  0  0  0  0  0  0  0  0  0
  -23.1134   -9.9540   19.9010 C   0  0  0  0  0  0  0  0  0  0  0  0
  -23.8848   -9.8927   22.1897 C   0  0  0  0  0  0  0  0  0  0  0  0
  -23.8434  -29.7241   19.8232 C   0  0  0  0  0  0  0  0  0  0  0  0
  -25.8863  -29.4872   21.6985 C   0  0  0  0  0  0  0  0  0  0  0  0
  -32.6220  -27.0512   20.9317 C   0  0  0  0  0  0  0  0  0  0  0  0
  -22.3830   -8.7852   20.1158 C   0  0  0  0  0  0  0  0  0  0  0  0
  -23.1544   -8.7239   22.4046 C   0  0  0  0  0  0  0  0  0  0  0  0
  -33.9399  -26.6007   21.0113 C   0  0  0  0  0  0  0  0  0  0  0  0
  -19.9380   -7.8718   22.9953 C   0  0  0  0  0  0  0  0  0  0  0  0
  -19.1874   -7.7847   24.1678 C   0  0  0  0  0  0  0  0  0  0  0  0
  -35.0743  -18.5969   18.9161 C   0  0  0  0  0  0  0  0  0  0  0  0
  -36.6856  -20.3863   18.7204 C   0  0  0  0  0  0  0  0  0  0  0  0
  -35.3759  -20.1553   20.7374 C   0  0  0  0  0  0  0  0  0  0  0  0
  -33.1849  -24.5377   22.0223 C   0  0  0  0  0  0  0  0  0  0  0  0
  -20.4530   -5.8373   24.8333 C   0  0  0  0  0  0  0  0  0  0  0  0
  -23.8643  -10.5077   20.9379 C   0  0  0  0  0  0  0  0  0  0  0  0
  -36.0479  -19.2704   18.1785 C   0  0  0  0  0  0  0  0  0  0  0  0
  -34.7382  -19.0394   20.1955 C   0  0  0  0  0  0  0  0  0  0  0  0
  -24.1787  -13.0390   20.9006 C   0  0  0  0  0  0  0  0  0  0  0  0
  -24.2085  -28.4499   20.2855 C   0  0  0  0  0  0  0  0  0  0  0  0
  -31.5780  -26.2393   21.3836 C   0  0  0  0  0  0  0  0  0  0  0  0
  -25.2348  -28.3289   21.2418 C   0  0  0  0  0  0  0  0  0  0  0  0
  -31.8618  -24.9785   21.9337 C   0  0  0  0  0  0  0  0  0  0  0  0
  -36.3496  -20.8288   19.9998 C   0  0  0  0  0  0  0  0  0  0  0  0
  -22.4035   -8.1702   21.3676 C   0  0  0  0  0  0  0  0  0  0  0  0
  -34.2206  -25.3471   21.5554 C   0  0  0  0  0  0  0  0  0  0  0  0
  -20.9460   -6.9416   22.7418 C   0  0  0  0  0  0  0  0  0  0  0  0
  -19.4450   -6.7675   25.0868 C   0  0  0  0  0  0  0  0  0  0  0  0
  -21.2035   -5.9243   23.6608 C   0  0  0  0  0  0  0  0  0  0  0  0
  -24.6194  -11.7147   20.7164 C   0  0  0  0  0  0  0  0  0  0  0  0
  -25.2610  -13.8119   20.5574 C   0  0  0  0  0  0  0  0  0  0  0  0
  -35.5419  -18.2243   16.0186 C   0  0  0  0  0  0  0  0  0  0  0  0
  -36.3988  -18.8092   16.8442 C   0  0  0  0  0  0  0  0  0  0  0  0
  -32.7048  -16.2571   21.0837 C   0  0  0  0  0  0  0  0  0  0  0  0
  -36.8506  -23.0560   19.8842 C   0  0  0  0  0  0  0  0  0  0  0  0
  -33.7222  -18.3374   20.9641 C   0  0  0  0  0  0  0  0  0  0  0  0
  -22.9050  -13.5269   21.3425 C   0  0  0  0  0  0  0  0  0  0  0  0
  -27.8804  -25.8264   21.8670 C   0  0  0  0  0  0  0  0  0  0  0  0
  -30.6521  -14.8431   20.9464 C   0  0  0  0  0  0  0  0  0  0  0  0
  -28.9617  -23.1197   20.9107 C   0  0  0  0  0  0  0  0  0  0  0  0
  -30.4792  -20.4396   19.4438 C   0  0  0  0  0  0  0  0  0  0  0  0
  -23.4398  -27.2504   19.7907 C   0  0  0  0  0  0  0  0  0  0  0  0
  -30.1486  -26.7090   21.3741 C   0  0  0  0  0  0  0  0  0  0  0  0
  -30.7097  -24.1536   22.4391 C   0  0  0  0  0  0  0  0  0  0  0  0
  -24.1412  -25.9223   20.0641 C   0  0  0  0  0  0  0  0  0  0  0  0
  -29.6053  -12.5904   18.2900 C   0  0  0  0  0  0  0  0  0  0  0  0
  -24.6483  -25.8725   21.5019 C   0  0  0  0  0  0  0  0  0  0  0  0
  -28.1803  -12.2484   18.7231 C   0  0  0  0  0  0  0  0  0  0  0  0
  -30.5311  -12.7622   19.4914 C   0  0  0  0  0  0  0  0  0  0  0  0
  -28.6230  -13.4276   20.9200 C   0  0  0  0  0  0  0  0  0  0  0  0
  -25.6777  -26.9788   21.7624 C   0  0  1  0  0  0  0  0  0  0  0  0
  -29.1432  -25.5772   21.0960 C   0  0  1  0  0  0  0  0  0  0  0  0
  -27.6505  -13.2760   19.7384 C   0  0  2  0  0  0  0  0  0  0  0  0
  -30.0057  -18.1202   18.6108 C   0  0  0  0  0  0  0  0  0  0  0  0
  -28.9004  -22.1034   23.7860 C   0  0  0  0  0  0  0  0  0  0  0  0
  -29.3842  -19.8084   22.9102 C   0  0  0  0  0  0  0  0  0  0  0  0
  -27.2829  -20.9774   22.2465 C   0  0  0  0  0  0  0  0  0  0  0  0
  -31.2640  -21.1472   16.6793 C   0  0  0  0  0  0  0  0  0  0  0  0
  -32.0595  -15.0598   20.4503 C   0  0  0  0  0  0  0  0  0  0  0  0
  -37.4799  -24.3310   20.3784 C   0  0  0  0  0  0  0  0  0  0  0  0
  -36.4078  -25.3799   20.6212 C   0  0  0  0  0  0  0  0  0  1  0  0
  -29.4906  -21.7613   21.2959 C   0  0  1  0  0  0  0  0  0  0  0  0
  -30.0910  -19.5938   18.2445 C   0  0  2  0  0  0  0  0  0  0  0  0
  -28.7820  -21.1843   22.5539 C   0  0  0  0  0  0  0  0  0  0  0  0
  -25.8831  -11.6465   20.2892 N   0  0  0  0  0  0  0  0  0  0  0  0
  -36.9907  -21.9537   20.5453 N   0  0  0  0  0  0  0  0  0  0  0  0
  -33.1311  -17.2321   20.3523 N   0  0  0  0  0  0  0  0  0  0  0  0
  -26.2457  -12.9376   20.2021 N   0  0  0  0  0  0  0  0  0  0  0  0
  -29.5848  -24.2297   21.4939 N   0  0  0  0  0  0  0  0  0  0  0  0
  -29.9777  -13.7283   20.4479 N   0  0  0  0  0  0  0  0  0  0  0  0
  -25.4570  -15.1472   20.5279 N   0  0  0  0  0  0  0  0  0  0  0  0
  -21.9045  -12.5961   21.6540 N   0  0  0  0  0  0  0  0  0  0  0  0
  -26.9619  -26.6163   21.2023 N   0  0  0  0  0  0  0  0  0  0  0  0
  -29.3717  -20.9246   20.1067 N   0  0  0  0  0  0  0  0  0  0  0  0
  -31.0947  -19.7497   17.1540 N   0  3  0  0  0  0  0  0  0  0  0  0
  -33.4191  -18.7283   22.1080 O   0  0  0  0  0  0  0  0  0  0  0  0
  -22.6560  -14.7523   21.4420 O   0  0  0  0  0  0  0  0  0  0  0  0
  -27.7472  -25.3373   22.9827 O   0  0  0  0  0  0  0  0  0  0  0  0
  -30.1675  -15.6433   21.7508 O   0  0  0  0  0  0  0  0  0  0  0  0
  -28.0183  -23.1972   20.1188 O   0  0  0  0  0  0  0  0  0  0  0  0
  -31.6479  -20.6460   19.7630 O   0  0  0  0  0  0  0  0  0  0  0  0
  -21.6908   -7.0298   21.5776 O   0  0  0  0  0  0  0  0  0  0  0  0
  -35.5091  -24.9116   21.6259 O   0  0  0  0  0  0  0  0  0  1  0  0
  -18.7252   -6.6849   26.2134 F   0  0  0  0  0  0  0  0  0  0  0  0
  -22.1714   -5.0285   23.4232 F   0  0  0  0  0  0  0  0  0  0  0  0
  1  2  1  0  0  0  0
  1  5  2  0  0  0  0
  2  6  2  0  0  0  0
  3  8  2  0  0  0  0
  3 18  1  0  0  0  0
  4  9  1  0  0  0  0
  4 18  2  0  0  0  0
  5 22  1  0  0  0  0
  6 24  1  0  0  0  0
  7 10  2  0  0  0  0
  7 23  1  0  0  0  0
  8 27  1  0  0  0  0
  9 27  2  0  0  0  0
 10 28  1  0  0  0  0
 11 12  2  0  0  0  0
 11 29  1  0  0  0  0
 12 30  1  0  0  0  0
 13 19  2  0  0  0  0
 13 20  1  0  0  0  0
 14 19  1  0  0  0  0
 14 26  2  0  0  0  0
 15 20  2  0  0  0  0
 15 26  1  0  0  0  0
 16 25  1  0  0  0  0
 16 28  2  0  0  0  0
 17 30  2  0  0  0  0
 17 31  1  0  0  0  0
 18 32  1  0  0  0  0
 19 35  1  0  0  0  0
 20 38  1  0  0  0  0
 21 32  1  0  0  0  0
 21 33  2  0  0  0  0
 21 39  1  0  0  0  0
 22 24  2  0  0  0  0
 22 44  1  0  0  0  0
 23 25  2  0  0  0  0
 23 45  1  0  0  0  0
 24 53  1  0  0  0  0
 25 46  1  0  0  0  0
 26 68  1  0  0  0  0
 27 84  1  0  0  0  0
 28 85  1  0  0  0  0
 29 31  2  0  0  0  0
 29 84  1  0  0  0  0
 30 86  1  0  0  0  0
 31 87  1  0  0  0  0
 32 67  2  0  0  0  0
 33 70  1  0  0  0  0
 33 73  1  0  0  0  0
 34 35  2  0  0  0  0
 36 61  1  0  0  0  0
 36 69  2  0  0  0  0
 37 62  1  0  0  0  0
 37 68  2  0  0  0  0
 38 69  1  0  0  0  0
 38 78  2  0  0  0  0
 39 74  1  0  0  0  0
 39 79  2  0  0  0  0
 40 54  1  0  0  0  0
 40 75  1  0  0  0  0
 40 80  2  0  0  0  0
 41 61  1  0  0  0  0
 41 72  1  0  0  0  0
 41 81  2  0  0  0  0
 42 64  1  0  0  0  0
 42 71  1  0  0  0  0
 42 82  2  0  0  0  0
 43 65  1  0  0  0  0
 43 76  1  0  0  0  0
 43 83  2  0  0  0  0
 44 47  1  0  0  0  0
 45 54  1  0  0  0  0
 46 71  1  0  0  0  0
 47 49  1  0  0  0  0
 48 50  1  0  0  0  0
 48 51  1  0  0  0  0
 49 53  1  0  0  0  0
 50 55  1  0  0  0  0
 51 72  1  0  0  0  0
 52 55  1  0  0  0  0
 52 72  1  0  0  0  0
 53 75  1  0  0  0  0
 54 71  1  0  0  0  0
 55 70  1  0  0  0  0
 56 65  1  0  0  0  0
 57 66  1  0  0  0  0
 58 66  1  0  0  0  0
 59 66  1  0  0  0  0
 60 77  1  0  0  0  0
 62 63  1  0  0  0  0
 63 85  1  0  0  0  0
 64 66  1  0  0  0  0
 64 76  1  0  0  0  0
 65 77  1  0  0  0  0
 67 70  1  0  0  0  0
M  CHG  1  77   1
M  ISO  4  41 100  61 100  63 101  85 101
M  END
> <Batch ID>
0117

> <Smiles>
C=Cc1cc(NC=C[101CH2:1][101O:1]c2ccc3c(c2)CN(C(=O)C(NC(=O)C(C)NC)C(C)(C)C)C(C(=O)NC2CCCc4ccccc42)C3)cc(C(=O)NC=[100CH:0][100C:0](=O)N2CCCC(n3nc(-c4ccc(Oc5ccc(F)cc5F)cc4)c(C(N)=O)c3N)C2)c1

> <Shape>
0.264

> <Color>
0.182

> <Negative vol penalty>
0.000

$$$$

  -OEChem-04052301463D

 86 94  0     1  0  0  0  0  0999 V2000
  -17.1322  -14.7461   19.8739 C   0  0  0  0  0  0  0  0  0  0  0  0
  -18.2333  -15.5481   19.5915 C   0  0  0  0  0  0  0  0  0  0  0  0
  -22.9853   -9.9118   19.9931 C   0  0  0  0  0  0  0  0  0  0  0  0
  -23.7658   -9.9399   22.2794 C   0  0  0  0  0  0  0  0  0  0  0  0
  -16.1518  -14.5432   18.9036 C   0  0  0  0  0  0  0  0  0  0  0  0
  -18.3552  -16.1468   18.3380 C   0  0  0  0  0  0  0  0  0  0  0  0
  -19.7570  -21.0040   18.6331 C   0  0  0  0  0  0  0  0  0  0  0  0
  -22.2233   -8.7761   20.2672 C   0  0  0  0  0  0  0  0  0  0  0  0
  -23.0038   -8.8041   22.5535 C   0  0  0  0  0  0  0  0  0  0  0  0
  -21.1043  -21.2640   18.8803 C   0  0  0  0  0  0  0  0  0  0  0  0
  -23.2306   -5.4694   22.0445 C   0  0  0  0  0  0  0  0  0  0  0  0
  -23.8342   -4.4443   22.7727 C   0  0  0  0  0  0  0  0  0  0  0  0
  -27.7359  -18.4021   21.3563 C   0  0  0  0  0  0  0  0  0  0  0  0
  -29.8293  -17.2529   19.9142 C   0  0  0  0  0  0  0  0  0  0  0  0
  -21.4464  -21.6921   16.5311 C   0  0  0  0  0  0  0  0  0  0  0  0
  -22.1516   -4.6741   24.4912 C   0  0  0  0  0  0  0  0  0  0  0  0
  -23.7566  -10.4937   20.9992 C   0  0  0  0  0  0  0  0  0  0  0  0
  -28.4025  -17.2868   21.8636 C   0  0  0  0  0  0  0  0  0  0  0  0
  -29.4492  -16.7122   21.1426 C   0  0  0  0  0  0  0  0  0  0  0  0
  -24.1422  -13.0102   20.8376 C   0  0  0  0  0  0  0  0  0  0  0  0
  -16.2569  -15.1475   17.6409 C   0  0  0  0  0  0  0  0  0  0  0  0
  -19.2459  -21.0756   17.3293 C   0  0  0  0  0  0  0  0  0  0  0  0
  -17.3760  -15.9507   17.3494 C   0  0  0  0  0  0  0  0  0  0  0  0
  -20.0918  -21.4351   16.2704 C   0  0  0  0  0  0  0  0  0  0  0  0
  -22.2326   -8.2222   21.5474 C   0  0  0  0  0  0  0  0  0  0  0  0
  -21.9498  -21.6053   17.8288 C   0  0  0  0  0  0  0  0  0  0  0  0
  -22.0875   -6.0970   22.5397 C   0  0  0  0  0  0  0  0  0  0  0  0
  -28.1160  -18.9428   20.1279 C   0  0  0  0  0  0  0  0  0  0  0  0
  -23.2947   -4.0466   23.9960 C   0  0  0  0  0  0  0  0  0  0  0  0
  -29.1627  -18.3682   19.4069 C   0  0  0  0  0  0  0  0  0  0  0  0
  -21.5480   -5.6994   23.7630 C   0  0  0  0  0  0  0  0  0  0  0  0
  -24.5444  -11.6666   20.7166 C   0  0  0  0  0  0  0  0  0  0  0  0
  -25.2441  -13.7344   20.4534 C   0  0  0  0  0  0  0  0  0  0  0  0
  -27.9660  -17.4483   24.2716 C   0  0  0  0  0  0  0  0  0  0  0  0
  -27.9779  -16.7462   23.1489 C   0  0  0  0  0  0  0  0  0  0  0  0
  -30.1711  -15.5456   21.6365 C   0  0  0  0  0  0  0  0  0  0  0  0
  -22.8849  -13.5550   21.2597 C   0  0  0  0  0  0  0  0  0  0  0  0
  -30.7707  -14.5621   20.7056 C   0  0  0  0  0  0  0  0  0  0  0  0
  -17.8900  -19.0051   15.3347 C   0  0  0  0  0  0  0  0  0  0  0  0
  -25.3432  -20.9334   18.8960 C   0  0  0  0  0  0  0  0  0  0  0  0
  -17.4609  -21.6473   13.5024 C   0  0  0  0  0  0  0  0  0  0  0  0
  -18.4573  -24.8120   12.7035 C   0  0  0  0  0  0  0  0  0  0  0  0
  -15.1957  -14.8606   16.6083 C   0  0  0  0  0  0  0  0  0  0  0  0
  -17.7845  -20.8183   17.0831 C   0  0  0  0  0  0  0  0  0  0  0  0
  -19.5880  -21.5454   14.8553 C   0  0  0  0  0  0  0  0  0  0  0  0
  -15.2113  -15.8338   15.4323 C   0  0  0  0  0  0  0  0  0  0  0  0
  -29.5380  -12.2847   18.2256 C   0  0  0  0  0  0  0  0  0  0  0  0
  -16.6352  -16.0323   14.9224 C   0  0  0  0  0  0  0  0  0  0  0  0
  -28.1083  -12.0016   18.6857 C   0  0  0  0  0  0  0  0  0  0  0  0
  -30.4762  -12.4871   19.4110 C   0  0  0  0  0  0  0  0  0  0  0  0
  -28.5960  -13.2743   20.8230 C   0  0  0  0  0  0  0  0  0  0  0  0
  -17.5313  -16.6373   16.0098 C   0  0  1  0  0  0  0  0  0  0  0  0
  -17.4826  -20.4183   15.6422 C   0  0  1  0  0  0  0  0  0  0  0  0
  -27.6135  -13.0917   19.6530 C   0  0  2  0  0  0  0  0  0  0  0  0
  -17.9393  -26.7044   11.1389 C   0  0  0  0  0  0  0  0  0  0  0  0
  -18.8344  -20.1423   11.2312 C   0  0  0  0  0  0  0  0  0  0  0  0
  -19.1393  -22.3326   10.0575 C   0  0  0  0  0  0  0  0  0  0  0  0
  -16.8425  -21.4860   10.5377 C   0  0  0  0  0  0  0  0  0  0  0  0
  -17.8109  -26.6382   14.9409 C   0  0  0  0  0  0  0  0  0  0  0  0
  -23.8711  -21.1728   19.1620 C   0  0  0  0  0  0  0  0  0  1  0  0
  -26.0987  -20.1936   19.9809 C   0  0  0  0  0  0  0  0  0  0  0  0
  -18.2665  -22.3528   12.4384 C   0  0  1  0  0  0  0  0  0  0  0  0
  -17.6717  -26.0959   12.5067 C   0  0  2  0  0  0  0  0  0  0  0  0
  -18.2809  -21.5745   11.0925 C   0  0  0  0  0  0  0  0  0  0  0  0
  -25.8035  -11.5418   20.2888 N   0  0  0  0  0  0  0  0  0  0  0  0
  -30.3369  -15.2943   22.9049 N   0  0  0  0  0  0  0  0  0  0  0  0
  -26.2020  -12.8163   20.1375 N   0  0  0  0  0  0  0  0  0  0  0  0
  -29.9592  -13.5018   20.3271 N   0  0  0  0  0  0  0  0  0  0  0  0
  -18.1528  -21.2782   14.6647 N   0  0  0  0  0  0  0  0  0  0  0  0
  -25.4775  -15.0606   20.3581 N   0  0  0  0  0  0  0  0  0  0  0  0
  -21.8600  -12.6693   21.6196 N   0  0  0  0  0  0  0  0  0  0  0  0
  -17.2832  -18.0575   16.1368 N   0  0  0  0  0  0  0  0  0  0  0  0
  -17.7221  -23.7029   12.3422 N   0  0  0  0  0  0  0  0  0  0  0  0
  -18.0444  -27.0958   13.5470 N   0  3  0  0  0  0  0  0  0  0  0  0
  -22.6710  -14.7903   21.3002 O   0  0  0  0  0  0  0  0  0  0  0  0
  -31.9248  -14.7910   20.3681 O   0  0  0  0  0  0  0  0  0  0  0  0
  -18.6941  -18.7902   14.4353 O   0  0  0  0  0  0  0  0  0  0  0  0
  -25.8911  -21.3166   17.8635 O   0  0  0  0  0  0  0  0  0  0  0  0
  -16.2601  -21.4379   13.3125 O   0  0  0  0  0  0  0  0  0  0  0  0
  -19.6094  -24.7950   13.1311 O   0  0  0  0  0  0  0  0  0  0  0  0
  -21.4890   -7.1142   21.8152 O   0  0  0  0  0  0  0  0  0  0  0  0
  -23.2654  -21.8589   18.0672 O   0  0  0  0  0  0  0  0  0  1  0  0
  -27.4576  -20.0417   19.6290 O   0  0  0  0  0  0  0  0  0  0  0  0
  -23.8736   -3.0610   24.6944 F   0  0  0  0  0  0  0  0  0  0  0  0
  -29.5322  -18.8828   18.2260 F   0  0  0  0  0  0  0  0  0  0  0  0
  -20.4494   -6.2978   24.2433 F   0  0  0  0  0  0  0  0  0  0  0  0
  1  2  1  0  0  0  0
  1  5  2  0  0  0  0
  2  6  2  0  0  0  0
  3  8  2  0  0  0  0
  3 17  1  0  0  0  0
  4  9  1  0  0  0  0
  4 17  2  0  0  0  0
  5 21  1  0  0  0  0
  6 23  1  0  0  0  0
  7 10  2  0  0  0  0
  7 22  1  0  0  0  0
  8 25  1  0  0  0  0
  9 25  2  0  0  0  0
 10 26  1  0  0  0  0
 11 12  2  0  0  0  0
 11 27  1  0  0  0  0
 12 29  1  0  0  0  0
 13 18  1  0  0  0  0
 13 28  2  0  0  0  0
 14 19  1  0  0  0  0
 14 30  2  0  0  0  0
 15 24  1  0  0  0  0
 15 26  2  0  0  0  0
 16 29  2  0  0  0  0
 16 31  1  0  0  0  0
 17 32  1  0  0  0  0
 18 19  2  0  0  0  0
 18 35  1  0  0  0  0
 19 36  1  0  0  0  0
 20 32  1  0  0  0  0
 20 33  2  0  0  0  0
 20 37  1  0  0  0  0
 21 23  2  0  0  0  0
 21 43  1  0  0  0  0
 22 24  2  0  0  0  0
 22 44  1  0  0  0  0
 23 52  1  0  0  0  0
 24 45  1  0  0  0  0
 25 81  1  0  0  0  0
 26 82  1  0  0  0  0
 27 31  2  0  0  0  0
 27 81  1  0  0  0  0
 28 30  1  0  0  0  0
 28 83  1  0  0  0  0
 29 84  1  0  0  0  0
 30 85  1  0  0  0  0
 31 86  1  0  0  0  0
 32 65  2  0  0  0  0
 33 67  1  0  0  0  0
 33 70  1  0  0  0  0
 34 35  2  0  0  0  0
 36 38  1  0  0  0  0
 36 66  2  0  0  0  0
 37 71  1  0  0  0  0
 37 75  2  0  0  0  0
 38 68  1  0  0  0  0
 38 76  2  0  0  0  0
 39 53  1  0  0  0  0
 39 72  1  0  0  0  0
 39 77  2  0  0  0  0
 40 60  1  0  0  0  0
 40 61  1  0  0  0  0
 40 78  2  0  0  0  0
 41 62  1  0  0  0  0
 41 69  1  0  0  0  0
 41 79  2  0  0  0  0
 42 63  1  0  0  0  0
 42 73  1  0  0  0  0
 42 80  2  0  0  0  0
 43 46  1  0  0  0  0
 44 53  1  0  0  0  0
 45 69  1  0  0  0  0
 46 48  1  0  0  0  0
 47 49  1  0  0  0  0
 47 50  1  0  0  0  0
 48 52  1  0  0  0  0
 49 54  1  0  0  0  0
 50 68  1  0  0  0  0
 51 54  1  0  0  0  0
 51 68  1  0  0  0  0
 52 72  1  0  0  0  0
 53 69  1  0  0  0  0
 54 67  1  0  0  0  0
 55 63  1  0  0  0  0
 56 64  1  0  0  0  0
 57 64  1  0  0  0  0
 58 64  1  0  0  0  0
 59 74  1  0  0  0  0
 60 82  1  0  0  0  0
 61 83  1  0  0  0  0
 62 64  1  0  0  0  0
 62 73  1  0  0  0  0
 63 74  1  0  0  0  0
 65 67  1  0  0  0  0
M  CHG  1  74   1
M  ISO  4  36 100  38 100  60 101  82 101
M  END
> <Batch ID>
0117

> <Smiles>
C=Cc1cc(OCC(=O)[101CH2:1][101O:1]c2ccc3c(c2)CN(C(=O)C(NC(=O)C(C)NC)C(C)(C)C)C(C(=O)NC2CCCc4ccccc42)C3)c(F)cc1[100C:0](=N)[100C:0](=O)N1CCCC(n2nc(-c3ccc(Oc4ccc(F)cc4F)cc3)c(C(N)=O)c2N)C1

> <Shape>
0.204

> <Color>
0.187

> <Negative vol penalty>
0.000

$$$$

  -OEChem-04052301463D

 88 96  0     1  0  0  0  0  0999 V2000
  -33.1715  -28.1299   19.9912 C   0  0  0  0  0  0  0  0  0  0  0  0
  -32.1368  -27.5367   19.2752 C   0  0  0  0  0  0  0  0  0  0  0  0
  -24.4863   -9.2735   22.0896 C   0  0  0  0  0  0  0  0  0  0  0  0
  -23.3997   -9.7310   19.9809 C   0  0  0  0  0  0  0  0  0  0  0  0
  -33.0241  -28.3710   21.3565 C   0  0  0  0  0  0  0  0  0  0  0  0
  -30.9543  -27.1831   19.9243 C   0  0  0  0  0  0  0  0  0  0  0  0
  -26.8285  -28.5123   17.3060 C   0  0  0  0  0  0  0  0  0  0  0  0
  -23.4015   -8.4875   22.4781 C   0  0  0  0  0  0  0  0  0  0  0  0
  -22.3149   -8.9450   20.3693 C   0  0  0  0  0  0  0  0  0  0  0  0
  -26.4702  -27.7034   16.2284 C   0  0  0  0  0  0  0  0  0  0  0  0
  -22.2473   -5.3657   21.8824 C   0  0  0  0  0  0  0  0  0  0  0  0
  -22.5194   -4.1319   22.4733 C   0  0  0  0  0  0  0  0  0  0  0  0
  -24.8018  -26.6273   17.5986 C   0  0  0  0  0  0  0  0  0  0  0  0
  -26.4818  -20.9126   16.9501 C   0  0  0  0  0  0  0  0  0  0  0  0
  -27.2363  -21.1665   19.2312 C   0  0  0  0  0  0  0  0  0  0  0  0
  -21.3512   -4.8303   24.4695 C   0  0  0  0  0  0  0  0  0  0  0  0
  -24.4854   -9.8953   20.8410 C   0  0  0  0  0  0  0  0  0  0  0  0
  -27.9300  -22.7524   17.5458 C   0  0  0  0  0  0  0  0  0  0  0  0
  -26.7595  -10.2852   19.7528 C   0  0  0  0  0  0  0  0  0  0  0  0
  -31.8356  -28.0291   22.0208 C   0  0  0  0  0  0  0  0  0  0  0  0
  -26.1824  -28.3770   18.5432 C   0  0  0  0  0  0  0  0  0  0  0  0
  -30.7914  -27.4187   21.3000 C   0  0  0  0  0  0  0  0  0  0  0  0
  -25.1520  -27.4374   18.6896 C   0  0  0  0  0  0  0  0  0  0  0  0
  -27.1957  -22.0545   16.5869 C   0  0  0  0  0  0  0  0  0  0  0  0
  -22.3158   -8.3232   21.6180 C   0  0  0  0  0  0  0  0  0  0  0  0
  -25.4588  -26.7588   16.3754 C   0  0  0  0  0  0  0  0  0  0  0  0
  -21.5272   -6.3319   22.5850 C   0  0  0  0  0  0  0  0  0  0  0  0
  -26.5021  -20.4686   18.2723 C   0  0  0  0  0  0  0  0  0  0  0  0
  -27.9503  -22.3084   18.8680 C   0  0  0  0  0  0  0  0  0  0  0  0
  -22.0714   -3.8642   23.7668 C   0  0  0  0  0  0  0  0  0  0  0  0
  -21.0792   -6.0642   23.8785 C   0  0  0  0  0  0  0  0  0  0  0  0
  -25.6055  -10.7079   20.4393 C   0  0  0  0  0  0  0  0  0  0  0  0
  -27.5119  -11.4255   19.6114 C   0  0  0  0  0  0  0  0  0  0  0  0
  -28.4830  -25.1353   17.7217 C   0  0  0  0  0  0  0  0  0  0  0  0
  -28.6788  -23.9480   17.1715 C   0  0  0  0  0  0  0  0  0  0  0  0
  -27.1191   -8.9786   19.2845 C   0  0  0  0  0  0  0  0  0  0  0  0
  -27.1048  -27.5881   21.4810 C   0  0  0  0  0  0  0  0  0  0  0  0
  -25.8499  -23.1919   14.8054 C   0  0  0  0  0  0  0  0  0  0  0  0
  -25.9215  -17.1460   19.4662 C   0  0  0  0  0  0  0  0  0  0  0  0
  -24.0469  -28.3690   22.2307 C   0  0  0  0  0  0  0  0  0  0  0  0
  -20.8159  -28.7432   21.1977 C   0  0  0  0  0  0  0  0  0  0  0  0
  -31.7408  -28.2661   23.5072 C   0  0  0  0  0  0  0  0  0  0  0  0
  -26.5623  -29.2755   19.6881 C   0  0  0  0  0  0  0  0  0  0  0  0
  -24.4135  -27.2666   19.9911 C   0  0  0  0  0  0  0  0  0  0  0  0
  -30.3131  -28.2037   24.0441 C   0  0  0  0  0  0  0  0  0  0  0  0
  -28.3681  -15.6384   21.6951 C   0  0  0  0  0  0  0  0  0  0  0  0
  -29.5882  -26.9803   23.4922 C   0  0  0  0  0  0  0  0  0  0  0  0
  -28.0151  -14.1562   21.5788 C   0  0  0  0  0  0  0  0  0  0  0  0
  -27.1241  -16.5195   21.6163 C   0  0  0  0  0  0  0  0  0  0  0  0
  -25.9450  -14.8074   20.2736 C   0  0  0  0  0  0  0  0  0  0  0  0
  -29.4841  -27.0435   21.9636 C   0  0  1  0  0  0  0  0  0  0  0  0
  -26.1887  -28.6983   21.0500 C   0  0  1  0  0  0  0  0  0  0  0  0
  -27.1756  -13.8862   20.3179 C   0  0  2  0  0  0  0  0  0  0  0  0
  -30.7861  -23.1940   20.9006 C   0  0  0  0  0  0  0  0  0  0  0  0
  -18.5350  -29.3559   22.0460 C   0  0  0  0  0  0  0  0  0  0  0  0
  -23.7992  -25.6242   23.5401 C   0  0  0  0  0  0  0  0  0  0  0  0
  -21.3123  -25.9117   23.5106 C   0  0  0  0  0  0  0  0  0  0  0  0
  -22.7332  -27.4902   24.8191 C   0  0  0  0  0  0  0  0  0  0  0  0
  -20.6327  -31.0643   19.3707 C   0  0  0  0  0  0  0  0  0  0  0  0
  -27.1487  -22.5015   15.1508 C   0  0  0  0  0  0  0  0  0  0  0  0
  -25.8446  -24.2914   13.7613 C   0  0  0  0  0  0  0  0  0  0  0  0
  -26.3234  -18.5795   19.7060 C   0  0  0  0  0  0  0  0  0  0  0  0
  -29.6843  -22.2388   20.4940 C   0  0  0  0  0  0  0  0  0  0  0  0
  -26.1290  -25.6511   14.3805 C   0  0  0  0  0  0  0  0  0  1  0  0
  -22.7373  -27.6207   22.2943 C   0  0  1  0  0  0  0  0  0  0  0  0
  -19.8159  -29.8665   21.4046 C   0  0  2  0  0  0  0  0  0  0  0  0
  -22.6605  -26.6633   23.5169 C   0  0  0  0  0  0  0  0  0  0  0  0
  -25.6193  -12.0147   20.7152 N   0  0  0  0  0  0  0  0  0  0  0  0
  -24.7633  -22.8477   15.4189 N   0  0  0  0  0  0  0  0  0  0  0  0
  -26.7912  -12.4230   20.1994 N   0  0  0  0  0  0  0  0  0  0  0  0
  -24.8256  -28.1642   21.0828 N   0  0  0  0  0  0  0  0  0  0  0  0
  -26.3374  -16.2125   20.4158 N   0  0  0  0  0  0  0  0  0  0  0  0
  -28.7133  -11.6622   19.0429 N   0  0  0  0  0  0  0  0  0  0  0  0
  -26.2307   -7.9190   19.5132 N   0  0  0  0  0  0  0  0  0  0  0  0
  -28.4339  -27.9564   21.5659 N   0  0  0  0  0  0  0  0  0  0  0  0
  -21.6870  -28.6327   22.2608 N   0  0  0  0  0  0  0  0  0  0  0  0
  -19.4690  -30.4979   20.1001 N   0  3  0  0  0  0  0  0  0  0  0  0
  -28.2037   -8.7542   18.6956 O   0  0  0  0  0  0  0  0  0  0  0  0
  -26.6400  -26.4797   21.7203 O   0  0  0  0  0  0  0  0  0  0  0  0
  -25.2600  -16.8660   18.4631 O   0  0  0  0  0  0  0  0  0  0  0  0
  -24.3639  -29.1134   23.1618 O   0  0  0  0  0  0  0  0  0  0  0  0
  -20.8211  -28.0324   20.1951 O   0  0  0  0  0  0  0  0  0  0  0  0
  -21.2572   -7.5561   21.9967 O   0  0  0  0  0  0  0  0  0  0  0  0
  -25.8044  -19.3550   18.6264 O   0  0  0  0  0  0  0  0  0  0  0  0
  -25.1076  -25.9675   15.3254 O   0  0  0  0  0  0  0  0  0  1  0  0
  -28.6582  -22.9703   19.8275 O   0  0  0  0  0  0  0  0  0  0  0  0
  -22.3314   -2.6787   24.3336 F   0  0  0  0  0  0  0  0  0  0  0  0
  -20.3859   -6.9880   24.5581 F   0  0  0  0  0  0  0  0  0  0  0  0
  1  2  1  0  0  0  0
  1  5  2  0  0  0  0
  2  6  2  0  0  0  0
  3  8  2  0  0  0  0
  3 17  1  0  0  0  0
  4  9  1  0  0  0  0
  4 17  2  0  0  0  0
  5 20  1  0  0  0  0
  6 22  1  0  0  0  0
  7 10  2  0  0  0  0
  7 21  1  0  0  0  0
  8 25  1  0  0  0  0
  9 25  2  0  0  0  0
 10 26  1  0  0  0  0
 11 12  2  0  0  0  0
 11 27  1  0  0  0  0
 12 30  1  0  0  0  0
 13 23  1  0  0  0  0
 13 26  2  0  0  0  0
 14 24  2  0  0  0  0
 14 28  1  0  0  0  0
 15 28  2  0  0  0  0
 15 29  1  0  0  0  0
 16 30  2  0  0  0  0
 16 31  1  0  0  0  0
 17 32  1  0  0  0  0
 18 24  1  0  0  0  0
 18 29  2  0  0  0  0
 18 35  1  0  0  0  0
 19 32  1  0  0  0  0
 19 33  2  0  0  0  0
 19 36  1  0  0  0  0
 20 22  2  0  0  0  0
 20 42  1  0  0  0  0
 21 23  2  0  0  0  0
 21 43  1  0  0  0  0
 22 51  1  0  0  0  0
 23 44  1  0  0  0  0
 24 60  1  0  0  0  0
 25 83  1  0  0  0  0
 26 85  1  0  0  0  0
 27 31  2  0  0  0  0
 27 83  1  0  0  0  0
 28 84  1  0  0  0  0
 29 86  1  0  0  0  0
 30 87  1  0  0  0  0
 31 88  1  0  0  0  0
 32 68  2  0  0  0  0
 33 70  1  0  0  0  0
 33 73  1  0  0  0  0
 34 35  2  0  0  0  0
 36 74  1  0  0  0  0
 36 78  2  0  0  0  0
 37 52  1  0  0  0  0
 37 75  1  0  0  0  0
 37 79  2  0  0  0  0
 38 60  1  0  0  0  0
 38 61  1  0  0  0  0
 38 69  2  0  0  0  0
 39 62  1  0  0  0  0
 39 72  1  0  0  0  0
 39 80  2  0  0  0  0
 40 65  1  0  0  0  0
 40 71  1  0  0  0  0
 40 81  2  0  0  0  0
 41 66  1  0  0  0  0
 41 76  1  0  0  0  0
 41 82  2  0  0  0  0
 42 45  1  0  0  0  0
 43 52  1  0  0  0  0
 44 71  1  0  0  0  0
 45 47  1  0  0  0  0
 46 48  1  0  0  0  0
 46 49  1  0  0  0  0
 47 51  1  0  0  0  0
 48 53  1  0  0  0  0
 49 72  1  0  0  0  0
 50 53  1  0  0  0  0
 50 72  1  0  0  0  0
 51 75  1  0  0  0  0
 52 71  1  0  0  0  0
 53 70  1  0  0  0  0
 54 63  1  0  0  0  0
 55 66  1  0  0  0  0
 56 67  1  0  0  0  0
 57 67  1  0  0  0  0
 58 67  1  0  0  0  0
 59 77  1  0  0  0  0
 61 64  1  0  0  0  0
 62 84  1  0  0  0  0
 63 86  1  0  0  0  0
 64 85  1  0  0  0  0
 65 67  1  0  0  0  0
 65 76  1  0  0  0  0
 66 77  1  0  0  0  0
 68 70  1  0  0  0  0
M  CHG  1  77   1
M  ISO  4  39 100  62 100  64 101  85 101
M  END
> <Batch ID>
0117

> <Smiles>
C=Cc1c(CC(=N)C[101CH2:1][101O:1]c2ccc3c(c2)CN(C(=O)C(NC(=O)C(C)NC)C(C)(C)C)C(C(=O)NC2CCCc4ccccc42)C3)cc(O[100CH2:0][100C:0](=O)N2CCCC(n3nc(-c4ccc(Oc5ccc(F)cc5F)cc4)c(C(N)=O)c3N)C2)cc1OCC

> <Shape>
0.239

> <Color>
0.094

> <Negative vol penalty>
0.000

$$$$

  -OEChem-04052301463D

 88 96  0     1  0  0  0  0  0999 V2000
  -20.3360  -32.6356   11.3058 C   0  0  0  0  0  0  0  0  0  0  0  0
  -20.6395  -31.2918   11.4996 C   0  0  0  0  0  0  0  0  0  0  0  0
  -23.0211  -10.1171   19.9479 C   0  0  0  0  0  0  0  0  0  0  0  0
  -23.8081   -9.8423   22.2155 C   0  0  0  0  0  0  0  0  0  0  0  0
  -20.7380  -33.5826   12.2469 C   0  0  0  0  0  0  0  0  0  0  0  0
  -21.3462  -30.8943   12.6340 C   0  0  0  0  0  0  0  0  0  0  0  0
  -20.6626  -25.6691   15.7542 C   0  0  0  0  0  0  0  0  0  0  0  0
  -22.2275   -8.9783   20.0853 C   0  0  0  0  0  0  0  0  0  0  0  0
  -23.0144   -8.7035   22.3530 C   0  0  0  0  0  0  0  0  0  0  0  0
  -21.3691  -24.4673   15.7375 C   0  0  0  0  0  0  0  0  0  0  0  0
  -23.1436   -5.4514   21.4376 C   0  0  0  0  0  0  0  0  0  0  0  0
  -23.7193   -4.3279   22.0309 C   0  0  0  0  0  0  0  0  0  0  0  0
  -26.7805  -17.8429   15.9829 C   0  0  0  0  0  0  0  0  0  0  0  0
  -22.6704  -25.2130   17.6268 C   0  0  0  0  0  0  0  0  0  0  0  0
  -22.0485   -4.3927   23.7748 C   0  0  0  0  0  0  0  0  0  0  0  0
  -23.8115  -10.5490   21.0130 C   0  0  0  0  0  0  0  0  0  0  0  0
  -27.8129  -18.2137   16.8445 C   0  0  0  0  0  0  0  0  0  0  0  0
  -26.6061  -20.2246   17.4250 C   0  0  0  0  0  0  0  0  0  0  0  0
  -24.2690  -13.0545   21.1587 C   0  0  0  0  0  0  0  0  0  0  0  0
  -21.4416  -33.1953   13.3983 C   0  0  0  0  0  0  0  0  0  0  0  0
  -20.9626  -26.6580   16.7021 C   0  0  0  0  0  0  0  0  0  0  0  0
  -21.7592  -31.8372   13.5907 C   0  0  0  0  0  0  0  0  0  0  0  0
  -21.9646  -26.4254   17.6551 C   0  0  0  0  0  0  0  0  0  0  0  0
  -27.7257  -19.4045   17.5656 C   0  0  0  0  0  0  0  0  0  0  0  0
  -25.6610  -18.6630   15.8423 C   0  0  0  0  0  0  0  0  0  0  0  0
  -22.2241   -8.2715   21.2878 C   0  0  0  0  0  0  0  0  0  0  0  0
  -22.3751  -24.2402   16.6720 C   0  0  0  0  0  0  0  0  0  0  0  0
  -22.0204   -6.0456   22.0130 C   0  0  0  0  0  0  0  0  0  0  0  0
  -25.5737  -19.8538   16.5634 C   0  0  0  0  0  0  0  0  0  0  0  0
  -23.1718   -3.7985   23.1995 C   0  0  0  0  0  0  0  0  0  0  0  0
  -21.4728   -5.5162   23.1815 C   0  0  0  0  0  0  0  0  0  0  0  0
  -24.6320  -11.7250   20.8715 C   0  0  0  0  0  0  0  0  0  0  0  0
  -25.3904  -13.7889   20.8595 C   0  0  0  0  0  0  0  0  0  0  0  0
  -26.5077  -21.4733   18.1754 C   0  0  0  0  0  0  0  0  0  0  0  0
  -25.5275  -21.7933   19.0455 C   0  0  0  0  0  0  0  0  0  0  0  0
  -28.9913  -17.3182   16.9721 C   0  0  0  0  0  0  0  0  0  0  0  0
  -23.0290  -13.5786   21.6521 C   0  0  0  0  0  0  0  0  0  0  0  0
  -22.0122  -29.6550   16.5618 C   0  0  0  0  0  0  0  0  0  0  0  0
  -21.4752  -29.5811   19.7600 C   0  0  0  0  0  0  0  0  0  0  0  0
  -21.1605  -27.7190   22.6026 C   0  0  0  0  0  0  0  0  0  0  0  0
  -29.6786  -15.0182   17.5734 C   0  0  0  0  0  0  0  0  0  0  0  0
  -21.8963  -34.2609   14.3639 C   0  0  0  0  0  0  0  0  0  0  0  0
  -20.1732  -27.9381   16.7238 C   0  0  0  0  0  0  0  0  0  0  0  0
  -22.3115  -27.4466   18.7064 C   0  0  0  0  0  0  0  0  0  0  0  0
  -22.3150  -33.7109   15.7250 C   0  0  0  0  0  0  0  0  0  0  0  0
  -30.1163  -12.3070   19.7993 C   0  0  0  0  0  0  0  0  0  0  0  0
  -23.2264  -32.4997   15.5539 C   0  0  0  0  0  0  0  0  0  0  0  0
  -28.7001  -12.0257   20.3087 C   0  0  0  0  0  0  0  0  0  0  0  0
  -30.1210  -12.6966   18.3218 C   0  0  0  0  0  0  0  0  0  0  0  0
  -27.8030  -13.5106   18.4717 C   0  0  0  0  0  0  0  0  0  0  0  0
  -22.5026  -31.3638   14.8209 C   0  0  1  0  0  0  0  0  0  0  0  0
  -20.9111  -29.0837   17.4097 C   0  0  1  0  0  0  0  0  0  0  0  0
  -27.7377  -13.1824   19.9721 C   0  0  1  0  0  0  0  0  0  0  0  0
  -28.8411  -19.7928   18.4877 C   0  0  0  0  0  0  0  0  0  0  0  0
  -25.4625  -23.0897   19.7857 C   0  0  0  0  0  0  0  0  0  0  0  0
  -20.7608  -27.9428   25.0699 C   0  0  0  0  0  0  0  0  0  0  0  0
  -24.3534  -30.5207   20.1385 C   0  0  0  0  0  0  0  0  0  0  0  0
  -24.1935  -29.8191   22.5365 C   0  0  0  0  0  0  0  0  0  0  0  0
  -22.6924  -31.6080   21.6595 C   0  0  0  0  0  0  0  0  0  0  0  0
  -24.8556  -17.4920   13.7915 C   0  0  0  0  0  0  0  0  0  0  0  0
  -18.6701  -26.1263   22.4612 C   0  0  0  0  0  0  0  0  0  0  0  0
  -23.2270  -22.4244   15.3941 C   0  0  0  0  0  0  0  0  0  1  0  0
  -24.5266  -21.6430   15.3979 C   0  0  0  0  0  0  0  0  0  0  0  0
  -22.2928  -29.2078   20.9729 C   0  0  1  0  0  0  0  0  0  0  0  0
  -20.1191  -27.7348   23.7070 C   0  0  2  0  0  0  0  0  0  0  0  0
  -23.3780  -30.2703   21.3060 C   0  0  0  0  0  0  0  0  0  0  0  0
  -25.8859  -11.6181   20.4239 N   0  0  0  0  0  0  0  0  0  0  0  0
  -26.3206  -12.8897   20.4276 N   0  0  0  0  0  0  0  0  0  0  0  0
  -21.5156  -28.6849   18.6825 N   0  0  0  0  0  0  0  0  0  0  0  0
  -29.1922  -13.8039   18.0882 N   0  0  0  0  0  0  0  0  0  0  0  0
  -25.6617  -15.1096   20.9262 N   0  0  0  0  0  0  0  0  0  0  0  0
  -21.9800  -12.6848   21.9070 N   0  0  0  0  0  0  0  0  0  0  0  0
  -24.6246  -18.2739   14.9653 N   0  0  0  0  0  0  0  0  0  0  0  0
  -28.7202  -16.0273   17.4266 N   0  0  0  0  0  0  0  0  0  0  0  0
  -21.6042  -30.6730   15.7211 N   0  0  0  0  0  0  0  0  0  0  0  0
  -21.3388  -28.9700   22.0508 N   0  0  0  0  0  0  0  0  0  0  0  0
  -19.3706  -26.4464   23.7316 N   0  3  0  0  0  0  0  0  0  0  0  0
  -30.0982  -17.7359   16.6435 O   0  0  0  0  0  0  0  0  0  0  0  0
  -22.8510  -14.8053   21.8451 O   0  0  0  0  0  0  0  0  0  0  0  0
  -23.1480  -29.2066   16.6638 O   0  0  0  0  0  0  0  0  0  0  0  0
  -20.8191  -30.6256   19.7710 O   0  0  0  0  0  0  0  0  0  0  0  0
  -21.7589  -26.6997   22.2659 O   0  0  0  0  0  0  0  0  0  0  0  0
  -30.8698  -15.2012   17.3037 O   0  0  0  0  0  0  0  0  0  0  0  0
  -21.4495   -7.1604   21.4223 O   0  0  0  0  0  0  0  0  0  0  0  0
  -23.0667  -23.0683   16.6575 O   0  0  0  0  0  0  0  0  0  1  0  0
  -24.4702  -20.6526   16.4174 O   0  0  0  0  0  0  0  0  0  0  0  0
  -23.7238   -2.7188   23.7682 F   0  0  0  0  0  0  0  0  0  0  0  0
  -20.3931   -6.0820   23.7382 F   0  0  0  0  0  0  0  0  0  0  0  0
  1  2  1  0  0  0  0
  1  5  2  0  0  0  0
  2  6  2  0  0  0  0
  3  8  2  0  0  0  0
  3 16  1  0  0  0  0
  4  9  1  0  0  0  0
  4 16  2  0  0  0  0
  5 20  1  0  0  0  0
  6 22  1  0  0  0  0
  7 10  2  0  0  0  0
  7 21  1  0  0  0  0
  8 26  1  0  0  0  0
  9 26  2  0  0  0  0
 10 27  1  0  0  0  0
 11 12  2  0  0  0  0
 11 28  1  0  0  0  0
 12 30  1  0  0  0  0
 13 17  1  0  0  0  0
 13 25  2  0  0  0  0
 14 23  1  0  0  0  0
 14 27  2  0  0  0  0
 15 30  2  0  0  0  0
 15 31  1  0  0  0  0
 16 32  1  0  0  0  0
 17 24  2  0  0  0  0
 17 36  1  0  0  0  0
 18 24  1  0  0  0  0
 18 29  2  0  0  0  0
 18 34  1  0  0  0  0
 19 32  1  0  0  0  0
 19 33  2  0  0  0  0
 19 37  1  0  0  0  0
 20 22  2  0  0  0  0
 20 42  1  0  0  0  0
 21 23  2  0  0  0  0
 21 43  1  0  0  0  0
 22 51  1  0  0  0  0
 23 44  1  0  0  0  0
 24 54  1  0  0  0  0
 25 29  1  0  0  0  0
 25 73  1  0  0  0  0
 26 84  1  0  0  0  0
 27 85  1  0  0  0  0
 28 31  2  0  0  0  0
 28 84  1  0  0  0  0
 29 86  1  0  0  0  0
 30 87  1  0  0  0  0
 31 88  1  0  0  0  0
 32 67  2  0  0  0  0
 33 68  1  0  0  0  0
 33 71  1  0  0  0  0
 34 35  2  0  0  0  0
 35 55  1  0  0  0  0
 36 74  1  0  0  0  0
 36 78  2  0  0  0  0
 37 72  1  0  0  0  0
 37 79  2  0  0  0  0
 38 52  1  0  0  0  0
 38 75  1  0  0  0  0
 38 80  2  0  0  0  0
 39 64  1  0  0  0  0
 39 69  1  0  0  0  0
 39 81  2  0  0  0  0
 40 65  1  0  0  0  0
 40 76  1  0  0  0  0
 40 82  2  0  0  0  0
 41 70  1  0  0  0  0
 41 74  1  0  0  0  0
 41 83  2  0  0  0  0
 42 45  1  0  0  0  0
 43 52  1  0  0  0  0
 44 69  1  0  0  0  0
 45 47  1  0  0  0  0
 46 48  1  0  0  0  0
 46 49  1  0  0  0  0
 47 51  1  0  0  0  0
 48 53  1  0  0  0  0
 49 70  1  0  0  0  0
 50 53  1  0  0  0  0
 50 70  1  0  0  0  0
 51 75  1  0  0  0  0
 52 69  1  0  0  0  0
 53 68  1  0  0  0  0
 56 65  1  0  0  0  0
 57 66  1  0  0  0  0
 58 66  1  0  0  0  0
 59 66  1  0  0  0  0
 60 73  1  0  0  0  0
 61 77  1  0  0  0  0
 62 63  1  0  0  0  0
 62 85  1  0  0  0  0
 63 86  1  0  0  0  0
 64 66  1  0  0  0  0
 64 76  1  0  0  0  0
 65 77  1  0  0  0  0
 67 68  1  0  0  0  0
M  CHG  1  77   1
M  ISO  4  41 100  62 101  74 100  85 101
M  END
> <Batch ID>
0117

> <Smiles>
CC=Cc1c(C)c(C(=O)[100NH:0][100C:0](=O)N2CCCC(n3nc(-c4ccc(Oc5ccc(F)cc5F)cc4)c(C(N)=O)c3N)C2)cc(NC)c1OC[101CH2:1][101O:1]c1ccc2c(c1)CN(C(=O)C(NC(=O)C(C)NC)C(C)(C)C)C(C(=O)NC1CCCc3ccccc31)C2

> <Shape>
0.220

> <Color>
0.162

> <Negative vol penalty>
0.000

$$$$
