
  -OEChem-04052301483D

 87 95  0     1  0  0  0  0  0999 V2000
  -31.3650  -34.2880   19.6753 C   0  0  0  0  0  0  0  0  0  0  0  0
  -31.1998  -32.9770   19.2400 C   0  0  0  0  0  0  0  0  0  0  0  0
  -23.6209  -16.8123   21.4552 C   0  0  0  0  0  0  0  0  0  0  0  0
  -23.0982  -16.2865   19.1557 C   0  0  0  0  0  0  0  0  0  0  0  0
  -30.7450  -34.7150   20.8488 C   0  0  0  0  0  0  0  0  0  0  0  0
  -30.4153  -32.0919   19.9786 C   0  0  0  0  0  0  0  0  0  0  0  0
  -26.8661  -27.6083   17.7864 C   0  0  0  0  0  0  0  0  0  0  0  0
  -22.8875  -17.9943   21.3517 C   0  0  0  0  0  0  0  0  0  0  0  0
  -22.3648  -17.4685   19.0522 C   0  0  0  0  0  0  0  0  0  0  0  0
  -27.0661  -26.2352   17.6505 C   0  0  0  0  0  0  0  0  0  0  0  0
  -23.3252  -21.0929   20.0745 C   0  0  0  0  0  0  0  0  0  0  0  0
  -23.8931  -22.2549   20.5969 C   0  0  0  0  0  0  0  0  0  0  0  0
  -32.2902  -18.4241   23.2582 C   0  0  0  0  0  0  0  0  0  0  0  0
  -30.5407  -18.9183   21.6670 C   0  0  0  0  0  0  0  0  0  0  0  0
  -25.9248  -25.8678   19.7437 C   0  0  0  0  0  0  0  0  0  0  0  0
  -31.1909  -20.5751   23.3009 C   0  0  0  0  0  0  0  0  0  0  0  0
  -22.0217  -22.4905   22.1067 C   0  0  0  0  0  0  0  0  0  0  0  0
  -23.7263  -15.9584   20.3572 C   0  0  0  0  0  0  0  0  0  0  0  0
  -31.4903  -18.0366   22.1832 C   0  0  0  0  0  0  0  0  0  0  0  0
  -24.0085  -13.4735   20.8603 C   0  0  0  0  0  0  0  0  0  0  0  0
  -29.9447  -33.8374   21.5971 C   0  0  0  0  0  0  0  0  0  0  0  0
  -26.2024  -28.1232   18.9093 C   0  0  0  0  0  0  0  0  0  0  0  0
  -29.7851  -32.5072   21.1640 C   0  0  0  0  0  0  0  0  0  0  0  0
  -25.7154  -27.2476   19.8903 C   0  0  0  0  0  0  0  0  0  0  0  0
  -22.2594  -18.3224   20.1502 C   0  0  0  0  0  0  0  0  0  0  0  0
  -26.5980  -25.3650   18.6306 C   0  0  0  0  0  0  0  0  0  0  0  0
  -22.1056  -20.6297   20.5681 C   0  0  0  0  0  0  0  0  0  0  0  0
  -32.1404  -19.6933   23.8171 C   0  0  0  0  0  0  0  0  0  0  0  0
  -30.3910  -20.1876   22.2258 C   0  0  0  0  0  0  0  0  0  0  0  0
  -23.2413  -22.9537   21.6130 C   0  0  0  0  0  0  0  0  0  0  0  0
  -21.4538  -21.3285   21.5842 C   0  0  0  0  0  0  0  0  0  0  0  0
  -24.4842  -14.7376   20.4633 C   0  0  0  0  0  0  0  0  0  0  0  0
  -25.1105  -12.6562   20.7957 C   0  0  0  0  0  0  0  0  0  0  0  0
  -31.6430  -16.7123   21.6014 C   0  0  0  0  0  0  0  0  0  0  0  0
  -30.7210  -16.0773   20.8468 C   0  0  0  0  0  0  0  0  0  0  0  0
  -22.6886  -13.0738   21.2522 C   0  0  0  0  0  0  0  0  0  0  0  0
  -31.0303  -14.7322   20.3171 C   0  0  0  0  0  0  0  0  0  0  0  0
  -26.9967  -30.0856   21.2803 C   0  0  0  0  0  0  0  0  0  0  0  0
  -23.8571  -29.8031   22.0454 C   0  0  0  0  0  0  0  0  0  0  0  0
  -20.9845  -27.9694   21.8641 C   0  0  0  0  0  0  0  0  0  0  0  0
  -29.3331  -34.3314   22.8842 C   0  0  0  0  0  0  0  0  0  0  0  0
  -25.9711  -29.6047   19.0280 C   0  0  0  0  0  0  0  0  0  0  0  0
  -24.9788  -27.7482   21.1049 C   0  0  0  0  0  0  0  0  0  0  0  0
  -28.2139  -33.4361   23.4097 C   0  0  0  0  0  0  0  0  0  0  0  0
  -29.2790  -12.1586   18.4553 C   0  0  0  0  0  0  0  0  0  0  0  0
  -28.6361  -31.9710   23.3635 C   0  0  0  0  0  0  0  0  0  0  0  0
  -27.8143  -12.5226   18.7182 C   0  0  0  0  0  0  0  0  0  0  0  0
  -30.2189  -12.5169   19.6020 C   0  0  0  0  0  0  0  0  0  0  0  0
  -28.5646  -14.1738   20.4710 C   0  0  0  0  0  0  0  0  0  0  0  0
  -28.9218  -31.5243   21.9246 C   0  0  1  0  0  0  0  0  0  0  0  0
  -25.7349  -30.0593   20.4649 C   0  0  1  0  0  0  0  0  0  0  0  0
  -27.5815  -13.0363   20.1465 C   0  0  1  0  0  0  0  0  0  0  0  0
  -32.4076  -21.7137   28.2047 C   0  0  0  0  0  0  0  0  0  0  0  0
  -18.5913  -27.9777   22.6189 C   0  0  0  0  0  0  0  0  0  0  0  0
  -24.7423  -29.0002   24.8528 C   0  0  0  0  0  0  0  0  0  0  0  0
  -22.4326  -28.1214   25.2543 C   0  0  0  0  0  0  0  0  0  0  0  0
  -22.7778  -30.5461   24.7806 C   0  0  0  0  0  0  0  0  0  0  0  0
  -19.9848  -27.9853   19.0786 C   0  0  0  0  0  0  0  0  0  0  0  0
  -32.9714  -20.7650   27.1622 C   0  0  0  0  0  0  0  0  0  0  0  0
  -28.4174  -22.2482   18.3134 C   0  0  0  0  0  0  0  0  0  0  0  0
  -28.7396  -22.2994   19.8028 C   0  0  0  0  0  0  0  0  0  0  0  0
  -32.3582  -21.0023   25.7907 C   0  0  0  0  0  0  0  0  0  0  0  0
  -27.9567  -23.6027   17.7915 C   0  0  0  0  0  0  0  0  0  1  0  0
  -29.1589  -20.9361   20.3344 C   0  0  0  0  0  0  0  0  0  0  0  0
  -23.0474  -28.8670   22.9098 C   0  0  1  0  0  0  0  0  0  0  0  0
  -19.5607  -28.3601   21.5113 C   0  0  2  0  0  0  0  0  0  0  0  0
  -23.2656  -29.1241   24.4276 C   0  0  0  0  0  0  0  0  0  0  0  0
  -25.7869  -14.7291   20.1686 N   0  0  0  0  0  0  0  0  0  0  0  0
  -26.1392  -13.4497   20.3806 N   0  0  0  0  0  0  0  0  0  0  0  0
  -29.9594  -13.8582   20.1252 N   0  0  0  0  0  0  0  0  0  0  0  0
  -24.7831  -29.2055   21.1786 N   0  0  0  0  0  0  0  0  0  0  0  0
  -25.2902  -11.3435   21.0543 N   0  0  0  0  0  0  0  0  0  0  0  0
  -21.6734  -14.0400   21.2628 N   0  0  0  0  0  0  0  0  0  0  0  0
  -27.6837  -31.2828   21.2152 N   0  0  0  0  0  0  0  0  0  0  0  0
  -21.6620  -29.0043   22.4735 N   0  0  0  0  0  0  0  0  0  0  0  0
  -19.1327  -27.6797   20.2565 N   0  3  0  0  0  0  0  0  0  0  0  0
  -22.4210  -11.8983   21.5989 O   0  0  0  0  0  0  0  0  0  0  0  0
  -32.2087  -14.4659   20.0777 O   0  0  0  0  0  0  0  0  0  0  0  0
  -27.3221  -29.0938   21.9221 O   0  0  0  0  0  0  0  0  0  0  0  0
  -23.6697  -31.0194   22.1308 O   0  0  0  0  0  0  0  0  0  0  0  0
  -21.4482  -26.8563   21.6265 O   0  0  0  0  0  0  0  0  0  0  0  0
  -21.5435  -19.4755   20.0489 O   0  0  0  0  0  0  0  0  0  0  0  0
  -26.7925  -24.0244   18.5007 O   0  0  0  0  0  0  0  0  0  1  0  0
  -32.9201  -20.0714   24.8669 O   0  0  0  0  0  0  0  0  0  0  0  0
  -29.4584  -21.0546   21.7183 O   0  0  0  0  0  0  0  0  0  0  0  0
  -23.7874  -24.0687   22.1157 F   0  0  0  0  0  0  0  0  0  0  0  0
  -20.2825  -20.8878   22.0633 F   0  0  0  0  0  0  0  0  0  0  0  0
  1  2  1  0  0  0  0
  1  5  2  0  0  0  0
  2  6  2  0  0  0  0
  3  8  2  0  0  0  0
  3 18  1  0  0  0  0
  4  9  1  0  0  0  0
  4 18  2  0  0  0  0
  5 21  1  0  0  0  0
  6 23  1  0  0  0  0
  7 10  2  0  0  0  0
  7 22  1  0  0  0  0
  8 25  1  0  0  0  0
  9 25  2  0  0  0  0
 10 26  1  0  0  0  0
 11 12  2  0  0  0  0
 11 27  1  0  0  0  0
 12 30  1  0  0  0  0
 13 19  2  0  0  0  0
 13 28  1  0  0  0  0
 14 19  1  0  0  0  0
 14 29  2  0  0  0  0
 15 24  1  0  0  0  0
 15 26  2  0  0  0  0
 16 28  2  0  0  0  0
 16 29  1  0  0  0  0
 17 30  2  0  0  0  0
 17 31  1  0  0  0  0
 18 32  1  0  0  0  0
 19 34  1  0  0  0  0
 20 32  1  0  0  0  0
 20 33  2  0  0  0  0
 20 36  1  0  0  0  0
 21 23  2  0  0  0  0
 21 41  1  0  0  0  0
 22 24  2  0  0  0  0
 22 42  1  0  0  0  0
 23 50  1  0  0  0  0
 24 43  1  0  0  0  0
 25 82  1  0  0  0  0
 26 83  1  0  0  0  0
 27 31  2  0  0  0  0
 27 82  1  0  0  0  0
 28 84  1  0  0  0  0
 29 85  1  0  0  0  0
 30 86  1  0  0  0  0
 31 87  1  0  0  0  0
 32 68  2  0  0  0  0
 33 69  1  0  0  0  0
 33 72  1  0  0  0  0
 34 35  2  0  0  0  0
 35 37  1  0  0  0  0
 36 73  1  0  0  0  0
 36 77  2  0  0  0  0
 37 70  1  0  0  0  0
 37 78  2  0  0  0  0
 38 51  1  0  0  0  0
 38 74  1  0  0  0  0
 38 79  2  0  0  0  0
 39 65  1  0  0  0  0
 39 71  1  0  0  0  0
 39 80  2  0  0  0  0
 40 66  1  0  0  0  0
 40 75  1  0  0  0  0
 40 81  2  0  0  0  0
 41 44  1  0  0  0  0
 42 51  1  0  0  0  0
 43 71  1  0  0  0  0
 44 46  1  0  0  0  0
 45 47  1  0  0  0  0
 45 48  1  0  0  0  0
 46 50  1  0  0  0  0
 47 52  1  0  0  0  0
 48 70  1  0  0  0  0
 49 52  1  0  0  0  0
 49 70  1  0  0  0  0
 50 74  1  0  0  0  0
 51 71  1  0  0  0  0
 52 69  1  0  0  0  0
 53 59  1  0  0  0  0
 54 66  1  0  0  0  0
 55 67  1  0  0  0  0
 56 67  1  0  0  0  0
 57 67  1  0  0  0  0
 58 76  1  0  0  0  0
 59 62  1  0  0  0  0
 60 61  1  0  0  0  0
 60 63  1  0  0  0  0
 61 64  1  0  0  0  0
 62 84  1  0  0  0  0
 63 83  1  0  0  0  0
 64 85  1  0  0  0  0
 65 67  1  0  0  0  0
 65 75  1  0  0  0  0
 66 76  1  0  0  0  0
 68 69  1  0  0  0  0
M  CHG  1  76   1
M  ISO  4  35 100  37 100  63 101  83 101
M  END
> <Batch ID>
0118

> <Smiles>
CCCOc1cc(C=[100CH:0][100C:0](=O)N2CCCC(n3nc(-c4ccc(Oc5ccc(F)cc5F)cc4)c(C(N)=O)c3N)C2)cc(OCCC[101CH2:1][101O:1]c2ccc3c(c2)CN(C(=O)C(NC(=O)C(C)NC)C(C)(C)C)C(C(=O)NC2CCCc4ccccc42)C3)c1

> <Shape>
0.245

> <Color>
0.094

> <Negative vol penalty>
0.000

$$$$

  -OEChem-04052301483D

 82 90  0     1  0  0  0  0  0999 V2000
  -16.8831  -31.3189   23.2470 C   0  0  0  0  0  0  0  0  0  0  0  0
  -18.1822  -31.8136   23.3013 C   0  0  0  0  0  0  0  0  0  0  0  0
  -26.7213  -13.5908   19.3990 C   0  0  0  0  0  0  0  0  0  0  0  0
  -24.6494  -14.1864   20.4895 C   0  0  0  0  0  0  0  0  0  0  0  0
  -16.6603  -29.9430   23.2837 C   0  0  0  0  0  0  0  0  0  0  0  0
  -19.2593  -30.9328   23.3934 C   0  0  0  0  0  0  0  0  0  0  0  0
  -26.0898  -30.2332   21.3510 C   0  0  0  0  0  0  0  0  0  0  0  0
  -26.6543  -12.3184   19.9665 C   0  0  0  0  0  0  0  0  0  0  0  0
  -24.5823  -12.9140   21.0571 C   0  0  0  0  0  0  0  0  0  0  0  0
  -27.3505  -29.9638   21.8818 C   0  0  0  0  0  0  0  0  0  0  0  0
  -23.6969   -9.7998   20.0883 C   0  0  0  0  0  0  0  0  0  0  0  0
  -22.4690   -9.1391   20.0510 C   0  0  0  0  0  0  0  0  0  0  0  0
  -26.8497  -27.6042   21.8578 C   0  0  0  0  0  0  0  0  0  0  0  0
  -32.7330  -25.1260   17.4294 C   0  0  0  0  0  0  0  0  0  0  0  0
  -22.4478   -9.0423   22.4650 C   0  0  0  0  0  0  0  0  0  0  0  0
  -25.7189  -14.5248   19.6605 C   0  0  0  0  0  0  0  0  0  0  0  0
  -25.2541  -16.2484   17.8381 C   0  0  0  0  0  0  0  0  0  0  0  0
  -17.7357  -29.0445   23.3666 C   0  0  0  0  0  0  0  0  0  0  0  0
  -25.1939  -29.1891   21.0793 C   0  0  0  0  0  0  0  0  0  0  0  0
  -19.0506  -29.5437   23.4326 C   0  0  0  0  0  0  0  0  0  0  0  0
  -25.5792  -27.8628   21.3212 C   0  0  0  0  0  0  0  0  0  0  0  0
  -33.0808  -26.3144   18.1148 C   0  0  0  0  0  0  0  0  0  0  0  0
  -25.5848  -11.9800   20.7956 C   0  0  0  0  0  0  0  0  0  0  0  0
  -27.7295  -28.6494   22.1380 C   0  0  0  0  0  0  0  0  0  0  0  0
  -24.3003  -10.0817   21.3140 C   0  0  0  0  0  0  0  0  0  0  0  0
  -21.8445   -8.7604   21.2394 C   0  0  0  0  0  0  0  0  0  0  0  0
  -23.6757   -9.7029   22.5023 C   0  0  0  0  0  0  0  0  0  0  0  0
  -25.7879  -15.8396   19.0750 C   0  0  0  0  0  0  0  0  0  0  0  0
  -31.7161  -24.5502   18.1549 C   0  0  0  0  0  0  0  0  0  0  0  0
  -32.2515  -26.3803   19.2102 C   0  0  0  0  0  0  0  0  0  0  0  0
  -25.5857  -17.5779   17.7437 C   0  0  0  0  0  0  0  0  0  0  0  0
  -31.0353  -23.3445   17.8688 C   0  0  0  0  0  0  0  0  0  0  0  0
  -32.2086  -27.4249   20.2469 C   0  0  0  0  0  0  0  0  0  0  0  0
  -30.0057  -22.7888   18.5893 C   0  0  0  0  0  0  0  0  0  0  0  0
  -31.3606  -27.4474   21.2871 C   0  0  0  0  0  0  0  0  0  0  0  0
  -24.5239  -15.4938   16.8619 C   0  0  0  0  0  0  0  0  0  0  0  0
  -29.3874  -21.5206   18.1534 C   0  0  0  0  0  0  0  0  0  0  0  0
  -22.3083  -28.3773   22.1366 C   0  0  0  0  0  0  0  0  0  0  0  0
  -22.5255  -26.1134   19.8236 C   0  0  0  0  0  0  0  0  0  0  0  0
  -24.3144  -23.6325   17.9099 C   0  0  0  0  0  0  0  0  0  0  0  0
  -17.4427  -27.5675   23.4511 C   0  0  0  0  0  0  0  0  0  0  0  0
  -23.8477  -29.4944   20.4819 C   0  0  0  0  0  0  0  0  0  0  0  0
  -24.6620  -26.7046   21.0282 C   0  0  0  0  0  0  0  0  0  0  0  0
  -18.6589  -26.6883   23.1715 C   0  0  0  0  0  0  0  0  0  0  0  0
  -27.4493  -20.7717   21.1725 C   0  0  0  0  0  0  0  0  0  0  0  0
  -19.8734  -27.1965   23.9419 C   0  0  0  0  0  0  0  0  0  0  0  0
  -26.8382  -19.4230   20.8022 C   0  0  0  0  0  0  0  0  0  0  0  0
  -28.8474  -20.9476   20.5816 C   0  0  0  0  0  0  0  0  0  0  0  0
  -28.2893  -19.3925   18.7349 C   0  0  0  0  0  0  0  0  0  0  0  0
  -20.2463  -28.6192   23.5079 C   0  0  1  0  0  0  0  0  0  0  0  0
  -22.8222  -28.3914   20.7247 C   0  0  1  0  0  0  0  0  0  0  0  0
  -26.8637  -19.2135   19.2798 C   0  0  1  0  0  0  0  0  0  0  0  0
  -34.1269  -27.2766   17.7165 C   0  0  0  0  0  0  0  0  0  0  0  0
  -23.5702  -22.2124   15.9793 C   0  0  0  0  0  0  0  0  0  0  0  0
  -21.8909  -24.0389   21.9693 C   0  0  0  0  0  0  0  0  0  0  0  0
  -22.7190  -22.2689   20.4042 C   0  0  0  0  0  0  0  0  0  0  0  0
  -20.7442  -23.6591   19.7794 C   0  0  0  0  0  0  0  0  0  0  0  0
  -26.5419  -24.5776   16.2058 C   0  0  0  0  0  0  0  0  0  0  0  0
  -31.3428  -28.5427   22.3180 C   0  0  0  0  0  0  0  0  0  0  0  0
  -30.0129  -29.2872   22.3256 C   0  0  0  0  0  0  0  0  0  1  0  0
  -23.0487  -24.6988   19.7579 C   0  0  1  0  0  0  0  0  0  0  0  0
  -24.3104  -23.4725   16.4003 C   0  0  2  0  0  0  0  0  0  0  0  0
  -22.1175  -23.6882   20.4852 C   0  0  0  0  0  0  0  0  0  0  0  0
  -26.4113  -16.8292   19.7199 N   0  0  0  0  0  0  0  0  0  0  0  0
  -26.2714  -17.8730   18.8851 N   0  0  0  0  0  0  0  0  0  0  0  0
  -28.8571  -20.6849   19.1347 N   0  0  0  0  0  0  0  0  0  0  0  0
  -23.3539  -27.0549   20.4505 N   0  0  0  0  0  0  0  0  0  0  0  0
  -25.3547  -18.5116   16.7964 N   0  0  0  0  0  0  0  0  0  0  0  0
  -24.2699  -14.1394   17.1175 N   0  0  0  0  0  0  0  0  0  0  0  0
  -20.9476  -28.5940   22.2422 N   0  0  0  0  0  0  0  0  0  0  0  0
  -23.2593  -24.4067   18.3442 N   0  0  0  0  0  0  0  0  0  0  0  0
  -25.7062  -23.3922   15.8842 N   0  3  0  0  0  0  0  0  0  0  0  0
  -24.1231  -16.0014   15.7870 O   0  0  0  0  0  0  0  0  0  0  0  0
  -29.3824  -21.2760   16.9456 O   0  0  0  0  0  0  0  0  0  0  0  0
  -23.0882  -28.1826   23.0615 O   0  0  0  0  0  0  0  0  0  0  0  0
  -21.4255  -26.3748   19.3303 O   0  0  0  0  0  0  0  0  0  0  0  0
  -25.1659  -23.1187   18.6319 O   0  0  0  0  0  0  0  0  0  0  0  0
  -31.4165  -25.3086   19.2419 O   0  0  0  0  0  0  0  0  0  0  0  0
  -25.5189  -10.7384   21.3494 O   0  0  0  0  0  0  0  0  0  0  0  0
  -28.9593  -28.3837   22.6567 O   0  0  0  0  0  0  0  0  0  1  0  0
  -20.6646   -8.1273   21.2034 F   0  0  0  0  0  0  0  0  0  0  0  0
  -24.2500   -9.9721   23.6828 F   0  0  0  0  0  0  0  0  0  0  0  0
  1  2  1  0  0  0  0
  1  5  2  0  0  0  0
  2  6  2  0  0  0  0
  3  8  2  0  0  0  0
  3 16  1  0  0  0  0
  4  9  1  0  0  0  0
  4 16  2  0  0  0  0
  5 18  1  0  0  0  0
  6 20  1  0  0  0  0
  7 10  2  0  0  0  0
  7 19  1  0  0  0  0
  8 23  1  0  0  0  0
  9 23  2  0  0  0  0
 10 24  1  0  0  0  0
 11 12  2  0  0  0  0
 11 25  1  0  0  0  0
 12 26  1  0  0  0  0
 13 21  1  0  0  0  0
 13 24  2  0  0  0  0
 14 22  1  0  0  0  0
 14 29  2  0  0  0  0
 15 26  2  0  0  0  0
 15 27  1  0  0  0  0
 16 28  1  0  0  0  0
 17 28  1  0  0  0  0
 17 31  2  0  0  0  0
 17 36  1  0  0  0  0
 18 20  2  0  0  0  0
 18 41  1  0  0  0  0
 19 21  2  0  0  0  0
 19 42  1  0  0  0  0
 20 50  1  0  0  0  0
 21 43  1  0  0  0  0
 22 30  2  0  0  0  0
 22 53  1  0  0  0  0
 23 79  1  0  0  0  0
 24 80  1  0  0  0  0
 25 27  2  0  0  0  0
 25 79  1  0  0  0  0
 26 81  1  0  0  0  0
 27 82  1  0  0  0  0
 28 64  2  0  0  0  0
 29 32  1  0  0  0  0
 29 78  1  0  0  0  0
 30 33  1  0  0  0  0
 30 78  1  0  0  0  0
 31 65  1  0  0  0  0
 31 68  1  0  0  0  0
 32 34  2  0  0  0  0
 33 35  2  0  0  0  0
 34 37  1  0  0  0  0
 35 59  1  0  0  0  0
 36 69  1  0  0  0  0
 36 73  2  0  0  0  0
 37 66  1  0  0  0  0
 37 74  2  0  0  0  0
 38 51  1  0  0  0  0
 38 70  1  0  0  0  0
 38 75  2  0  0  0  0
 39 61  1  0  0  0  0
 39 67  1  0  0  0  0
 39 76  2  0  0  0  0
 40 62  1  0  0  0  0
 40 71  1  0  0  0  0
 40 77  2  0  0  0  0
 41 44  1  0  0  0  0
 42 51  1  0  0  0  0
 43 67  1  0  0  0  0
 44 46  1  0  0  0  0
 45 47  1  0  0  0  0
 45 48  1  0  0  0  0
 46 50  1  0  0  0  0
 47 52  1  0  0  0  0
 48 66  1  0  0  0  0
 49 52  1  0  0  0  0
 49 66  1  0  0  0  0
 50 70  1  0  0  0  0
 51 67  1  0  0  0  0
 52 65  1  0  0  0  0
 54 62  1  0  0  0  0
 55 63  1  0  0  0  0
 56 63  1  0  0  0  0
 57 63  1  0  0  0  0
 58 72  1  0  0  0  0
 59 60  1  0  0  0  0
 60 80  1  0  0  0  0
 61 63  1  0  0  0  0
 61 71  1  0  0  0  0
 62 72  1  0  0  0  0
 64 65  1  0  0  0  0
M  CHG  1  72   1
M  ISO  4  34 100  37 100  60 101  80 101
M  END
> <Batch ID>
0118

> <Smiles>
CNC(C)C(=O)NC(C(=O)N1Cc2cc([101O:1][101CH2:1]CC=Cc3oc(C=[100CH:0][100C:0](=O)N4CCCC(n5nc(-c6ccc(Oc7ccc(F)cc7F)cc6)c(C(N)=O)c5N)C4)cc3C)ccc2CC1C(=O)NC1CCCc2ccccc21)C(C)(C)C

> <Shape>
0.239

> <Color>
0.081

> <Negative vol penalty>
0.000

$$$$

  -OEChem-04052301483D

 88 97  0     1  0  0  0  0  0999 V2000
  -26.0271  -34.5968   24.8047 C   0  0  0  0  0  0  0  0  0  0  0  0
  -26.5705  -33.4074   24.3298 C   0  0  0  0  0  0  0  0  0  0  0  0
  -24.0977  -14.1180   22.1775 C   0  0  0  0  0  0  0  0  0  0  0  0
  -26.3471  -14.1691   21.2974 C   0  0  0  0  0  0  0  0  0  0  0  0
  -24.6988  -34.6354   25.2266 C   0  0  0  0  0  0  0  0  0  0  0  0
  -25.7862  -32.2556   24.2776 C   0  0  0  0  0  0  0  0  0  0  0  0
  -26.3197  -29.7379   19.9163 C   0  0  0  0  0  0  0  0  0  0  0  0
  -23.8328  -12.9681   21.4337 C   0  0  0  0  0  0  0  0  0  0  0  0
  -26.0823  -13.0192   20.5536 C   0  0  0  0  0  0  0  0  0  0  0  0
  -27.4646  -28.9563   19.7682 C   0  0  0  0  0  0  0  0  0  0  0  0
  -24.4757   -9.6558   21.6542 C   0  0  0  0  0  0  0  0  0  0  0  0
  -23.8135   -8.6081   22.2940 C   0  0  0  0  0  0  0  0  0  0  0  0
  -26.1846  -26.9875   20.3204 C   0  0  0  0  0  0  0  0  0  0  0  0
  -30.3724  -21.3262   20.4017 C   0  0  0  0  0  0  0  0  0  0  0  0
  -29.4280  -23.4164   21.1606 C   0  0  0  0  0  0  0  0  0  0  0  0
  -22.0161   -8.7626   20.6870 C   0  0  0  0  0  0  0  0  0  0  0  0
  -25.3549  -14.7185   22.1093 C   0  0  0  0  0  0  0  0  0  0  0  0
  -31.8179  -23.2024   20.8785 C   0  0  0  0  0  0  0  0  0  0  0  0
  -26.1401  -15.9734   24.1869 C   0  0  0  0  0  0  0  0  0  0  0  0
  -23.8950  -33.4859   25.1705 C   0  0  0  0  0  0  0  0  0  0  0  0
  -25.0989  -29.1507   20.2787 C   0  0  0  0  0  0  0  0  0  0  0  0
  -24.4463  -32.2786   24.7005 C   0  0  0  0  0  0  0  0  0  0  0  0
  -25.0250  -27.7636   20.4698 C   0  0  0  0  0  0  0  0  0  0  0  0
  -31.6509  -21.8802   20.4666 C   0  0  0  0  0  0  0  0  0  0  0  0
  -30.7064  -23.9705   21.2255 C   0  0  0  0  0  0  0  0  0  0  0  0
  -29.2610  -22.0943   20.7486 C   0  0  0  0  0  0  0  0  0  0  0  0
  -24.8251  -12.4187   20.6218 C   0  0  0  0  0  0  0  0  0  0  0  0
  -27.3978  -27.5812   19.9731 C   0  0  0  0  0  0  0  0  0  0  0  0
  -23.9080  -10.2570   20.5307 C   0  0  0  0  0  0  0  0  0  0  0  0
  -22.5837   -8.1615   21.8104 C   0  0  0  0  0  0  0  0  0  0  0  0
  -22.6783   -9.8103   20.0471 C   0  0  0  0  0  0  0  0  0  0  0  0
  -25.6289  -15.9067   22.8769 C   0  0  0  0  0  0  0  0  0  0  0  0
  -26.2164  -17.3177   24.4577 C   0  0  0  0  0  0  0  0  0  0  0  0
  -32.6816  -26.8961   20.8204 C   0  0  0  0  0  0  0  0  0  0  0  0
  -33.9291  -23.7066   22.0202 C   0  0  0  0  0  0  0  0  0  0  0  0
  -33.1558  -23.7822   20.9495 C   0  0  0  0  0  0  0  0  0  0  0  0
  -26.5129  -14.9147   25.0791 C   0  0  0  0  0  0  0  0  0  0  0  0
  -23.1174  -29.4372   22.7476 C   0  0  0  0  0  0  0  0  0  0  0  0
  -21.2449  -27.4707   20.9731 C   0  0  0  0  0  0  0  0  0  0  0  0
  -21.0325  -25.1064   18.5212 C   0  0  0  0  0  0  0  0  0  0  0  0
  -26.7543  -22.1559   20.9924 C   0  0  0  0  0  0  0  0  0  0  0  0
  -22.4784  -33.5650   25.6821 C   0  0  0  0  0  0  0  0  0  0  0  0
  -23.8671  -30.0042   20.4082 C   0  0  0  0  0  0  0  0  0  0  0  0
  -23.7342  -27.0818   20.8403 C   0  0  0  0  0  0  0  0  0  0  0  0
  -32.9378  -27.6557   19.5419 C   0  0  0  0  0  0  0  0  0  0  0  0
  -21.6060  -32.3916   25.2435 C   0  0  0  0  0  0  0  0  0  0  0  0
  -32.0150  -26.9771   18.5338 C   0  0  0  0  0  0  0  0  0  0  0  0
  -24.1513  -21.4883   23.3282 C   0  0  0  0  0  0  0  0  0  0  0  0
  -22.3424  -31.0719   25.4511 C   0  0  0  0  0  0  0  0  0  0  0  0
  -24.2852  -19.9885   23.6014 C   0  0  0  0  0  0  0  0  0  0  0  0
  -24.4526  -21.8282   21.8696 C   0  0  0  0  0  0  0  0  0  0  0  0
  -25.8731  -19.8284   21.6418 C   0  0  0  0  0  0  0  0  0  0  0  0
  -23.6202  -31.0142   24.6053 C   0  0  1  0  0  0  0  0  0  0  0  0
  -22.7900  -29.3698   21.2827 C   0  0  1  0  0  0  0  0  0  0  0  0
  -25.6425  -19.4456   23.1128 C   0  0  2  0  0  0  0  0  0  0  0  0
  -30.8485  -26.4661   19.3740 C   0  0  2  0  0  0  0  0  0  0  0  0
  -32.8167  -21.0250   20.0847 C   0  0  0  0  0  0  0  0  0  0  0  0
  -19.3720  -23.6602   17.3177 C   0  0  0  0  0  0  0  0  0  0  0  0
  -21.0883  -25.6325   23.4034 C   0  0  0  0  0  0  0  0  0  0  0  0
  -20.2572  -23.8188   21.8908 C   0  0  0  0  0  0  0  0  0  0  0  0
  -18.9323  -25.9141   22.1677 C   0  0  0  0  0  0  0  0  0  0  0  0
  -21.6751  -26.3413   15.9095 C   0  0  0  0  0  0  0  0  0  0  0  0
  -30.8437  -25.3969   21.6735 C   0  0  0  0  0  0  0  0  0  0  0  0
  -29.7199  -27.4878   19.4682 C   0  0  0  0  0  0  0  0  0  1  0  0
  -21.0857  -25.9750   20.8443 C   0  0  1  0  0  0  0  0  0  0  0  0
  -20.1184  -24.9852   17.3153 C   0  0  2  0  0  0  0  0  0  0  0  0
  -20.3658  -25.3479   22.0715 C   0  0  0  0  0  0  0  0  0  0  0  0
  -25.3966  -17.1128   22.3521 N   0  0  0  0  0  0  0  0  0  0  0  0
  -25.7635  -17.9499   23.3373 N   0  0  0  0  0  0  0  0  0  0  0  0
  -31.4710  -26.2244   20.6633 N   0  0  0  0  0  0  0  0  0  0  0  0
  -22.5588  -27.9600   20.9613 N   0  0  0  0  0  0  0  0  0  0  0  0
  -25.7555  -21.2859   21.4785 N   0  0  0  0  0  0  0  0  0  0  0  0
  -26.6260  -18.0089   25.5426 N   0  0  0  0  0  0  0  0  0  0  0  0
  -26.3709  -13.5909   24.6413 N   0  0  0  0  0  0  0  0  0  0  0  0
  -27.9622  -21.5314   20.6832 N   0  0  0  0  0  0  0  0  0  0  0  0
  -23.2997  -30.7212   23.2248 N   0  0  0  0  0  0  0  0  0  0  0  0
  -20.4091  -25.7446   19.5725 N   0  0  0  0  0  0  0  0  0  0  0  0
  -20.9085  -25.0771   16.0550 N   0  3  0  0  0  0  0  0  0  0  0  0
  -33.4099  -26.9231   21.8013 O   0  0  0  0  0  0  0  0  0  0  0  0
  -26.9431  -15.1358   26.2365 O   0  0  0  0  0  0  0  0  0  0  0  0
  -23.1973  -28.4012   23.3972 O   0  0  0  0  0  0  0  0  0  0  0  0
  -20.2403  -28.1795   21.0730 O   0  0  0  0  0  0  0  0  0  0  0  0
  -22.1832  -24.6747   18.5309 O   0  0  0  0  0  0  0  0  0  0  0  0
  -26.5619  -23.3698   20.8859 O   0  0  0  0  0  0  0  0  0  0  0  0
  -24.5671  -11.2965   19.8961 O   0  0  0  0  0  0  0  0  0  0  0  0
  -28.5140  -26.8161   19.8299 O   0  0  0  0  0  0  0  0  0  1  0  0
  -21.9487   -7.1544   22.4241 F   0  0  0  0  0  0  0  0  0  0  0  0
  -22.1286  -10.3831   18.9675 F   0  0  0  0  0  0  0  0  0  0  0  0
  1  2  1  0  0  0  0
  1  5  2  0  0  0  0
  2  6  2  0  0  0  0
  3  8  2  0  0  0  0
  3 17  1  0  0  0  0
  4  9  1  0  0  0  0
  4 17  2  0  0  0  0
  5 20  1  0  0  0  0
  6 22  1  0  0  0  0
  7 10  2  0  0  0  0
  7 21  1  0  0  0  0
  8 27  1  0  0  0  0
  9 27  2  0  0  0  0
 10 28  1  0  0  0  0
 11 12  2  0  0  0  0
 11 29  1  0  0  0  0
 12 30  1  0  0  0  0
 13 23  1  0  0  0  0
 13 28  2  0  0  0  0
 14 24  2  0  0  0  0
 14 26  1  0  0  0  0
 15 25  1  0  0  0  0
 15 26  2  0  0  0  0
 16 30  2  0  0  0  0
 16 31  1  0  0  0  0
 17 32  1  0  0  0  0
 18 24  1  0  0  0  0
 18 25  2  0  0  0  0
 18 36  1  0  0  0  0
 19 32  1  0  0  0  0
 19 33  2  0  0  0  0
 19 37  1  0  0  0  0
 20 22  2  0  0  0  0
 20 42  1  0  0  0  0
 21 23  2  0  0  0  0
 21 43  1  0  0  0  0
 22 53  1  0  0  0  0
 23 44  1  0  0  0  0
 24 57  1  0  0  0  0
 25 63  1  0  0  0  0
 26 75  1  0  0  0  0
 27 85  1  0  0  0  0
 28 86  1  0  0  0  0
 29 31  2  0  0  0  0
 29 85  1  0  0  0  0
 30 87  1  0  0  0  0
 31 88  1  0  0  0  0
 32 68  2  0  0  0  0
 33 69  1  0  0  0  0
 33 73  1  0  0  0  0
 34 45  1  0  0  0  0
 34 70  1  0  0  0  0
 34 79  2  0  0  0  0
 35 36  2  0  0  0  0
 37 74  1  0  0  0  0
 37 80  2  0  0  0  0
 38 54  1  0  0  0  0
 38 76  1  0  0  0  0
 38 81  2  0  0  0  0
 39 65  1  0  0  0  0
 39 71  1  0  0  0  0
 39 82  2  0  0  0  0
 40 66  1  0  0  0  0
 40 77  1  0  0  0  0
 40 83  2  0  0  0  0
 41 72  1  0  0  0  0
 41 75  1  0  0  0  0
 41 84  2  0  0  0  0
 42 46  1  0  0  0  0
 43 54  1  0  0  0  0
 44 71  1  0  0  0  0
 45 47  1  0  0  0  0
 46 49  1  0  0  0  0
 47 56  1  0  0  0  0
 48 50  1  0  0  0  0
 48 51  1  0  0  0  0
 49 53  1  0  0  0  0
 50 55  1  0  0  0  0
 51 72  1  0  0  0  0
 52 55  1  0  0  0  0
 52 72  1  0  0  0  0
 53 76  1  0  0  0  0
 54 71  1  0  0  0  0
 55 69  1  0  0  0  0
 56 64  1  0  0  0  0
 56 70  1  0  0  0  0
 58 66  1  0  0  0  0
 59 67  1  0  0  0  0
 60 67  1  0  0  0  0
 61 67  1  0  0  0  0
 62 78  1  0  0  0  0
 63 70  1  0  0  0  0
 64 86  1  0  0  0  0
 65 67  1  0  0  0  0
 65 77  1  0  0  0  0
 66 78  1  0  0  0  0
 68 69  1  0  0  0  0
M  CHG  1  78   1
M  ISO  4  41 100  64 101  75 100  86 101
M  END
> <Batch ID>
0118

> <Smiles>
C=Cc1c(C)cc([100NH:0][100C:0](=O)N2CCCC(n3nc(-c4ccc(Oc5ccc(F)cc5F)cc4)c(C(N)=O)c3N)C2)cc1CN1C(=O)CCC1[101CH2:1][101O:1]c1ccc2c(c1)CN(C(=O)C(NC(=O)C(C)NC)C(C)(C)C)C(C(=O)NC1CCCc3ccccc31)C2

> <Shape>
0.246

> <Color>
0.077

> <Negative vol penalty>
0.000

$$$$

  -OEChem-04052301483D

 88 97  0     1  0  0  0  0  0999 V2000
  -17.9049  -24.6917   21.4671 C   0  0  0  0  0  0  0  0  0  0  0  0
  -19.1631  -24.7375   20.8753 C   0  0  0  0  0  0  0  0  0  0  0  0
  -24.4145  -11.8140   24.6313 C   0  0  0  0  0  0  0  0  0  0  0  0
  -24.9177  -14.1606   24.3532 C   0  0  0  0  0  0  0  0  0  0  0  0
  -17.5291  -25.6758   22.3804 C   0  0  0  0  0  0  0  0  0  0  0  0
  -20.0459  -25.7682   21.1958 C   0  0  0  0  0  0  0  0  0  0  0  0
  -24.7552  -24.1035   22.0299 C   0  0  0  0  0  0  0  0  0  0  0  0
  -30.8405  -19.4231   18.1605 C   0  0  0  0  0  0  0  0  0  0  0  0
  -30.5652  -18.0632   18.3027 C   0  0  0  0  0  0  0  0  0  0  0  0
  -24.0882  -12.0424   25.9680 C   0  0  0  0  0  0  0  0  0  0  0  0
  -24.5914  -14.3890   25.6900 C   0  0  0  0  0  0  0  0  0  0  0  0
  -25.5298  -23.7975   20.9118 C   0  0  0  0  0  0  0  0  0  0  0  0
  -23.5450  -15.6532   28.9342 C   0  0  0  0  0  0  0  0  0  0  0  0
  -22.7468  -16.7588   29.2280 C   0  0  0  0  0  0  0  0  0  0  0  0
  -26.6443  -25.9279   21.1082 C   0  0  0  0  0  0  0  0  0  0  0  0
  -28.5013  -19.9310   18.4881 C   0  0  0  0  0  0  0  0  0  0  0  0
  -20.9883  -15.8589   27.8371 C   0  0  0  0  0  0  0  0  0  0  0  0
  -24.8293  -12.8732   23.8238 C   0  0  0  0  0  0  0  0  0  0  0  0
  -24.3268  -12.1215   21.4384 C   0  0  0  0  0  0  0  0  0  0  0  0
  -18.4113  -26.7137   22.7195 C   0  0  0  0  0  0  0  0  0  0  0  0
  -24.9121  -25.3307   22.6902 C   0  0  0  0  0  0  0  0  0  0  0  0
  -19.6810  -26.7679   22.1135 C   0  0  0  0  0  0  0  0  0  0  0  0
  -25.8723  -26.2460   22.2360 C   0  0  0  0  0  0  0  0  0  0  0  0
  -28.2260  -18.5710   18.6303 C   0  0  0  0  0  0  0  0  0  0  0  0
  -29.8086  -20.3571   18.2532 C   0  0  0  0  0  0  0  0  0  0  0  0
  -29.2579  -17.6371   18.5376 C   0  0  0  0  0  0  0  0  0  0  0  0
  -24.1766  -13.3299   26.4974 C   0  0  0  0  0  0  0  0  0  0  0  0
  -26.4724  -24.7109   20.4490 C   0  0  0  0  0  0  0  0  0  0  0  0
  -23.0648  -14.6505   28.0918 C   0  0  0  0  0  0  0  0  0  0  0  0
  -21.4685  -16.8616   28.6795 C   0  0  0  0  0  0  0  0  0  0  0  0
  -21.7864  -14.7533   27.5433 C   0  0  0  0  0  0  0  0  0  0  0  0
  -25.1671  -12.6378   22.4430 C   0  0  0  0  0  0  0  0  0  0  0  0
  -25.1143  -12.0927   20.3135 C   0  0  0  0  0  0  0  0  0  0  0  0
  -30.1000  -24.4579   17.4611 C   0  0  0  0  0  0  0  0  0  0  0  0
  -29.4686  -24.0539   18.5715 C   0  0  0  0  0  0  0  0  0  0  0  0
  -31.0214  -23.5433   16.7568 C   0  0  0  0  0  0  0  0  0  0  0  0
  -22.9570  -11.7053   21.5153 C   0  0  0  0  0  0  0  0  0  0  0  0
  -23.0301  -27.8284   23.2590 C   0  0  0  0  0  0  0  0  0  0  0  0
  -25.5508  -28.8281   25.0392 C   0  0  0  0  0  0  0  0  0  0  0  0
  -29.1446  -28.8725   24.7238 C   0  0  0  0  0  0  0  0  0  0  0  0
  -29.9220  -15.2082   18.6150 C   0  0  0  0  0  0  0  0  0  0  0  0
  -17.9427  -27.7813   23.6763 C   0  0  0  0  0  0  0  0  0  0  0  0
  -24.0875  -25.6345   23.9109 C   0  0  0  0  0  0  0  0  0  0  0  0
  -26.0936  -27.5687   22.9215 C   0  0  0  0  0  0  0  0  0  0  0  0
  -31.2008  -22.1319   17.2577 C   0  0  0  0  0  0  0  0  0  0  0  0
  -19.0770  -28.6304   24.2445 C   0  0  0  0  0  0  0  0  0  0  0  0
  -29.6865  -11.6716   18.9527 C   0  0  0  0  0  0  0  0  0  0  0  0
  -20.0251  -29.0677   23.1325 C   0  0  0  0  0  0  0  0  0  0  0  0
  -28.4210  -11.4708   19.7896 C   0  0  0  0  0  0  0  0  0  0  0  0
  -30.4653  -12.9108   19.3906 C   0  0  0  0  0  0  0  0  0  0  0  0
  -28.4155  -13.9504   20.2776 C   0  0  0  0  0  0  0  0  0  0  0  0
  -20.6759  -27.8562   22.4541 C   0  0  1  0  0  0  0  0  0  0  0  0
  -29.6164  -22.6613   19.1486 C   0  0  2  0  0  0  0  0  0  0  0  0
  -23.9721  -27.1285   24.1973 C   0  0  1  0  0  0  0  0  0  0  0  0
  -27.5638  -12.7510   19.8310 C   0  0  2  0  0  0  0  0  0  0  0  0
  -30.5751  -22.6524   20.3443 C   0  0  0  0  0  0  0  0  0  0  0  0
  -26.1524  -17.5753   17.6326 C   0  0  0  0  0  0  0  0  0  0  0  0
  -30.9368  -28.8666   26.4804 C   0  0  0  0  0  0  0  0  0  0  0  0
  -25.4597  -31.8622   24.7300 C   0  0  0  0  0  0  0  0  0  0  0  0
  -27.9496  -31.8937   24.9900 C   0  0  0  0  0  0  0  0  0  0  0  0
  -26.5133  -31.0611   26.8519 C   0  0  0  0  0  0  0  0  0  0  0  0
  -30.4362  -26.4759   23.5633 C   0  0  0  0  0  0  0  0  0  0  0  0
  -26.8166  -18.1431   18.8829 C   0  0  0  0  0  0  0  0  0  0  0  0
  -28.5370  -24.9834   19.3004 C   0  0  0  0  0  0  0  0  0  1  0  0
  -26.7891  -29.6494   24.7727 C   0  0  1  0  0  0  0  0  0  0  0  0
  -30.1356  -28.0241   25.5001 C   0  0  2  0  0  0  0  0  0  0  0  0
  -26.6657  -31.1010   25.3157 C   0  0  0  0  0  0  0  0  0  0  0  0
  -26.3944  -12.9167   21.9958 N   0  0  0  0  0  0  0  0  0  0  0  0
  -26.3311  -12.5744   20.6978 N   0  0  0  0  0  0  0  0  0  0  0  0
  -30.0856  -21.7242   18.1108 N   0  0  2  0  0  0  0  0  0  0  0  0
  -25.2585  -27.8223   24.1071 N   0  0  0  0  0  0  0  0  0  0  0  0
  -29.5902  -14.0851   19.4019 N   0  0  0  0  0  0  0  0  0  0  0  0
  -24.8777  -11.7025   19.0430 N   0  0  0  0  0  0  0  0  0  0  0  0
  -21.9555  -12.6540   21.2675 N   0  0  0  0  0  0  0  0  0  0  0  0
  -28.9989  -16.2514   18.6809 N   0  0  0  0  0  0  0  0  0  0  0  0
  -21.7422  -27.3280   23.2779 N   0  0  0  0  0  0  0  0  0  0  0  0
  -27.9067  -28.8957   25.3306 N   0  0  0  0  0  0  0  0  0  0  0  0
  -31.0870  -27.3557   24.5680 N   0  3  0  0  0  0  0  0  0  0  0  0
  -31.6593  -23.9603   15.7899 O   0  0  0  0  0  0  0  0  0  0  0  0
  -22.6304  -10.5309   21.8114 O   0  0  0  0  0  0  0  0  0  0  0  0
  -23.4410  -28.7547   22.5700 O   0  0  0  0  0  0  0  0  0  0  0  0
  -24.8719  -29.0654   26.0414 O   0  0  0  0  0  0  0  0  0  0  0  0
  -29.4403  -29.4593   23.6852 O   0  0  0  0  0  0  0  0  0  0  0  0
  -30.9354  -15.2314   17.9118 O   0  0  0  0  0  0  0  0  0  0  0  0
  -23.8581  -13.5531   27.8017 O   0  0  0  0  0  0  0  0  0  0  0  0
  -27.2293  -24.4150   19.3575 O   0  0  0  0  0  0  0  0  0  1  0  0
  -20.7016  -17.9226   28.9629 F   0  0  0  0  0  0  0  0  0  0  0  0
  -21.3192  -13.7926   26.7342 F   0  0  0  0  0  0  0  0  0  0  0  0
  1  2  1  0  0  0  0
  1  5  2  0  0  0  0
  2  6  2  0  0  0  0
  3 10  2  0  0  0  0
  3 18  1  0  0  0  0
  4 11  1  0  0  0  0
  4 18  2  0  0  0  0
  5 20  1  0  0  0  0
  6 22  1  0  0  0  0
  7 12  2  0  0  0  0
  7 21  1  0  0  0  0
  8  9  2  0  0  0  0
  8 25  1  0  0  0  0
  9 26  1  0  0  0  0
 10 27  1  0  0  0  0
 11 27  2  0  0  0  0
 12 28  1  0  0  0  0
 13 14  2  0  0  0  0
 13 29  1  0  0  0  0
 14 30  1  0  0  0  0
 15 23  1  0  0  0  0
 15 28  2  0  0  0  0
 16 24  1  0  0  0  0
 16 25  2  0  0  0  0
 17 30  2  0  0  0  0
 17 31  1  0  0  0  0
 18 32  1  0  0  0  0
 19 32  1  0  0  0  0
 19 33  2  0  0  0  0
 19 37  1  0  0  0  0
 20 22  2  0  0  0  0
 20 42  1  0  0  0  0
 21 23  2  0  0  0  0
 21 43  1  0  0  0  0
 22 52  1  0  0  0  0
 23 44  1  0  0  0  0
 24 26  2  0  0  0  0
 24 63  1  0  0  0  0
 25 70  1  0  0  0  0
 26 75  1  0  0  0  0
 27 85  1  0  0  0  0
 28 86  1  0  0  0  0
 29 31  2  0  0  0  0
 29 85  1  0  0  0  0
 30 87  1  0  0  0  0
 31 88  1  0  0  0  0
 32 68  2  0  0  0  0
 33 69  1  0  0  0  0
 33 73  1  0  0  0  0
 34 35  2  0  0  0  0
 34 36  1  0  0  0  0
 35 53  1  0  0  0  0
 35 64  1  0  0  0  0
 36 45  1  0  0  0  0
 36 79  2  0  0  0  0
 37 74  1  0  0  0  0
 37 80  2  0  0  0  0
 38 54  1  0  0  0  0
 38 76  1  0  0  0  0
 38 81  2  0  0  0  0
 39 65  1  0  0  0  0
 39 71  1  0  0  0  0
 39 82  2  0  0  0  0
 40 66  1  0  0  0  0
 40 77  1  0  0  0  0
 40 83  2  0  0  0  0
 41 72  1  0  0  0  0
 41 75  1  0  0  0  0
 41 84  2  0  0  0  0
 42 46  1  0  0  0  0
 43 54  1  0  0  0  0
 44 71  1  0  0  0  0
 45 70  1  0  0  0  0
 46 48  1  0  0  0  0
 47 49  1  0  0  0  0
 47 50  1  0  0  0  0
 48 52  1  0  0  0  0
 49 55  1  0  0  0  0
 50 72  1  0  0  0  0
 51 55  1  0  0  0  0
 51 72  1  0  0  0  0
 52 76  1  0  0  0  0
 53 56  1  0  0  0  0
 53 70  1  0  0  0  0
 54 71  1  0  0  0  0
 55 69  1  0  0  0  0
 57 63  1  0  0  0  0
 58 66  1  0  0  0  0
 59 67  1  0  0  0  0
 60 67  1  0  0  0  0
 61 67  1  0  0  0  0
 62 78  1  0  0  0  0
 64 86  1  0  0  0  0
 65 67  1  0  0  0  0
 65 77  1  0  0  0  0
 66 78  1  0  0  0  0
 68 69  1  0  0  0  0
M  CHG  1  78   1
M  ISO  4  41 100  64 101  75 100  86 101
M  END
> <Batch ID>
0118

> <Smiles>
CCc1cc(N2CC(=O)CC([101CH2:1][101O:1]c3ccc4c(c3)CN(C(=O)C(NC(=O)C(C)NC)C(C)(C)C)C(C(=O)NC3CCCc5ccccc53)C4)=C2C)ccc1[100NH:0][100C:0](=O)N1CCCC(n2nc(-c3ccc(Oc4ccc(F)cc4F)cc3)c(C(N)=O)c2N)C1

> <Shape>
0.236

> <Color>
0.087

> <Negative vol penalty>
0.000

$$$$

  -OEChem-04052301483D

 84 92  0     1  0  0  0  0  0999 V2000
  -25.9922  -19.0302   16.9680 C   0  0  0  0  0  0  0  0  0  0  0  0
  -25.2552  -20.1807   17.2298 C   0  0  0  0  0  0  0  0  0  0  0  0
  -18.1560  -27.9500   23.4388 C   0  0  0  0  0  0  0  0  0  0  0  0
  -23.7372  -15.0011   19.5379 C   0  0  0  0  0  0  0  0  0  0  0  0
  -24.7551  -14.5812   21.6883 C   0  0  0  0  0  0  0  0  0  0  0  0
  -18.2261  -26.5846   23.1625 C   0  0  0  0  0  0  0  0  0  0  0  0
  -27.1893  -18.8014   17.6451 C   0  0  0  0  0  0  0  0  0  0  0  0
  -25.7144  -21.1026   18.1698 C   0  0  0  0  0  0  0  0  0  0  0  0
  -25.0812  -27.1907   17.9693 C   0  0  0  0  0  0  0  0  0  0  0  0
  -19.2460  -28.7747   23.1609 C   0  0  0  0  0  0  0  0  0  0  0  0
  -24.6027  -14.0798   18.9482 C   0  0  0  0  0  0  0  0  0  0  0  0
  -25.6206  -13.6598   21.0987 C   0  0  0  0  0  0  0  0  0  0  0  0
  -24.1768  -28.0602   18.5774 C   0  0  0  0  0  0  0  0  0  0  0  0
  -28.4606  -13.7292   19.2656 C   0  0  0  0  0  0  0  0  0  0  0  0
  -29.8087  -13.7883   19.6188 C   0  0  0  0  0  0  0  0  0  0  0  0
  -20.4765  -26.8686   22.3305 C   0  0  0  0  0  0  0  0  0  0  0  0
  -25.7657  -28.4660   20.3466 C   0  0  0  0  0  0  0  0  0  0  0  0
  -29.6897  -11.5237   20.4522 C   0  0  0  0  0  0  0  0  0  0  0  0
  -23.8134  -15.2518   20.9079 C   0  0  0  0  0  0  0  0  0  0  0  0
  -19.3863  -26.0439   22.6084 C   0  0  0  0  0  0  0  0  0  0  0  0
  -21.6504  -15.9463   22.0684 C   0  0  0  0  0  0  0  0  0  0  0  0
  -27.6683  -19.7257   18.5869 C   0  0  0  0  0  0  0  0  0  0  0  0
  -26.3325  -26.9435   18.5520 C   0  0  0  0  0  0  0  0  0  0  0  0
  -26.9184  -20.8854   18.8612 C   0  0  0  0  0  0  0  0  0  0  0  0
  -26.6852  -27.5949   19.7425 C   0  0  0  0  0  0  0  0  0  0  0  0
  -20.4063  -28.2340   22.6067 C   0  0  0  0  0  0  0  0  0  0  0  0
  -25.5444  -13.4091   19.7287 C   0  0  0  0  0  0  0  0  0  0  0  0
  -24.5178  -28.6958   19.7677 C   0  0  0  0  0  0  0  0  0  0  0  0
  -27.7270  -12.5673   19.5057 C   0  0  0  0  0  0  0  0  0  0  0  0
  -30.4232  -12.6856   20.2121 C   0  0  0  0  0  0  0  0  0  0  0  0
  -28.3416  -11.4646   20.0990 C   0  0  0  0  0  0  0  0  0  0  0  0
  -22.9200  -16.2039   21.5175 C   0  0  0  0  0  0  0  0  0  0  0  0
  -21.2149  -17.1701   22.5145 C   0  0  0  0  0  0  0  0  0  0  0  0
  -23.1123  -32.3420   22.2876 C   0  0  0  0  0  0  0  0  0  0  0  0
  -19.4580  -24.6200   22.3203 C   0  0  0  0  0  0  0  0  0  0  0  0
  -20.5211  -23.9814   21.7865 C   0  0  0  0  0  0  0  0  0  0  0  0
  -20.9292  -14.7111   22.1681 C   0  0  0  0  0  0  0  0  0  0  0  0
  -22.9423  -31.0212   22.1150 C   0  0  0  0  0  0  0  0  0  0  0  0
  -20.4432  -22.5239   21.5621 C   0  0  0  0  0  0  0  0  0  0  0  0
  -21.6133  -30.4416   22.5324 C   0  0  0  0  0  0  0  0  0  0  0  0
  -27.7990  -24.3721   19.7099 C   0  0  0  0  0  0  0  0  0  0  0  0
  -30.3126  -26.4051   19.9755 C   0  0  0  0  0  0  0  0  0  0  0  0
  -31.4207  -29.6202   20.2624 C   0  0  0  0  0  0  0  0  0  0  0  0
  -28.9438  -19.4121   19.3281 C   0  0  0  0  0  0  0  0  0  0  0  0
  -27.3072  -26.0234   17.8695 C   0  0  0  0  0  0  0  0  0  0  0  0
  -28.0239  -27.3791   20.3980 C   0  0  0  0  0  0  0  0  0  0  0  0
  -29.5496  -20.6210   20.0364 C   0  0  0  0  0  0  0  0  0  0  0  0
  -23.6512  -21.5535   23.0450 C   0  0  0  0  0  0  0  0  0  0  0  0
  -28.4747  -21.3840   20.8041 C   0  0  0  0  0  0  0  0  0  0  0  0
  -23.6562  -20.0509   22.7766 C   0  0  0  0  0  0  0  0  0  0  0  0
  -22.9627  -22.3320   21.9250 C   0  0  0  0  0  0  0  0  0  0  0  0
  -21.5865  -20.3503   21.3599 C   0  0  0  0  0  0  0  0  0  0  0  0
  -27.3959  -21.9211   19.8558 C   0  0  1  0  0  0  0  0  0  0  0  0
  -28.3528  -25.4490   18.8204 C   0  0  1  0  0  0  0  0  0  0  0  0
  -22.2328  -19.5432   22.4967 C   0  0  1  0  0  0  0  0  0  0  0  0
  -33.5267  -30.9643   20.4980 C   0  0  0  0  0  0  0  0  0  0  0  0
  -30.5044  -25.5860   22.9085 C   0  0  0  0  0  0  0  0  0  0  0  0
  -31.9414  -27.5977   23.3041 C   0  0  0  0  0  0  0  0  0  0  0  0
  -32.7051  -25.8093   21.7417 C   0  0  0  0  0  0  0  0  0  0  0  0
  -30.9241  -31.0591   17.7244 C   0  0  0  0  0  0  0  0  0  0  0  0
  -24.0517  -30.1615   21.5816 C   0  0  0  0  0  0  0  0  0  1  0  0
  -30.8206  -27.3433   21.0436 C   0  0  1  0  0  0  0  0  0  0  0  0
  -32.5118  -30.3789   19.5286 C   0  0  2  0  0  0  0  0  0  0  0  0
  -31.4668  -26.5869   22.2384 C   0  0  0  0  0  0  0  0  0  0  0  0
  -23.2684  -17.4904   21.6043 N   0  0  0  0  0  0  0  0  0  0  0  0
  -22.2112  -18.0521   22.2150 N   0  0  0  0  0  0  0  0  0  0  0  0
  -21.6262  -21.7907   21.6360 N   0  0  0  0  0  0  0  0  0  0  0  0
  -28.9401  -26.4655   19.6955 N   0  0  0  0  0  0  0  0  0  0  0  0
  -20.0808  -17.5672   23.1297 N   0  0  0  0  0  0  0  0  0  0  0  0
  -21.5227  -13.5479   21.6592 N   0  0  0  0  0  0  0  0  0  0  0  0
  -21.5134  -29.0729   22.3236 N   0  0  0  0  0  0  0  0  0  0  0  0
  -27.8703  -23.1029   19.1681 N   0  0  0  0  0  0  0  0  0  0  0  0
  -31.7175  -28.2782   20.3727 N   0  0  0  0  0  0  0  0  0  0  0  0
  -31.9229  -31.4940   18.7344 N   0  3  0  0  0  0  0  0  0  0  0  0
  -19.7852  -14.6439   22.6782 O   0  0  0  0  0  0  0  0  0  0  0  0
  -19.3345  -22.0446   21.3179 O   0  0  0  0  0  0  0  0  0  0  0  0
  -20.7443  -31.1671   23.0094 O   0  0  0  0  0  0  0  0  0  0  0  0
  -27.3422  -24.6703   20.8072 O   0  0  0  0  0  0  0  0  0  0  0  0
  -31.1057  -25.6516   19.4055 O   0  0  0  0  0  0  0  0  0  0  0  0
  -30.4083  -30.1643   20.6977 O   0  0  0  0  0  0  0  0  0  0  0  0
  -26.3890  -12.5099   19.1537 O   0  0  0  0  0  0  0  0  0  0  0  0
  -23.6367  -29.5445   20.3637 O   0  0  0  0  0  0  0  0  0  1  0  0
  -31.7182  -12.7421   20.5499 F   0  0  0  0  0  0  0  0  0  0  0  0
  -27.6423  -10.3453   20.3311 F   0  0  0  0  0  0  0  0  0  0  0  0
  1  2  1  0  0  0  0
  1  7  2  0  0  0  0
  2  8  2  0  0  0  0
  3  6  1  0  0  0  0
  3 10  2  0  0  0  0
  4 11  2  0  0  0  0
  4 19  1  0  0  0  0
  5 12  1  0  0  0  0
  5 19  2  0  0  0  0
  6 20  2  0  0  0  0
  7 22  1  0  0  0  0
  8 24  1  0  0  0  0
  9 13  2  0  0  0  0
  9 23  1  0  0  0  0
 10 26  1  0  0  0  0
 11 27  1  0  0  0  0
 12 27  2  0  0  0  0
 13 28  1  0  0  0  0
 14 15  2  0  0  0  0
 14 29  1  0  0  0  0
 15 30  1  0  0  0  0
 16 20  1  0  0  0  0
 16 26  2  0  0  0  0
 17 25  1  0  0  0  0
 17 28  2  0  0  0  0
 18 30  2  0  0  0  0
 18 31  1  0  0  0  0
 19 32  1  0  0  0  0
 20 35  1  0  0  0  0
 21 32  1  0  0  0  0
 21 33  2  0  0  0  0
 21 37  1  0  0  0  0
 22 24  2  0  0  0  0
 22 44  1  0  0  0  0
 23 25  2  0  0  0  0
 23 45  1  0  0  0  0
 24 53  1  0  0  0  0
 25 46  1  0  0  0  0
 26 71  1  0  0  0  0
 27 81  1  0  0  0  0
 28 82  1  0  0  0  0
 29 31  2  0  0  0  0
 29 81  1  0  0  0  0
 30 83  1  0  0  0  0
 31 84  1  0  0  0  0
 32 65  2  0  0  0  0
 33 66  1  0  0  0  0
 33 69  1  0  0  0  0
 34 38  2  0  0  0  0
 35 36  2  0  0  0  0
 36 39  1  0  0  0  0
 37 70  1  0  0  0  0
 37 75  2  0  0  0  0
 38 40  1  0  0  0  0
 38 61  1  0  0  0  0
 39 67  1  0  0  0  0
 39 76  2  0  0  0  0
 40 71  1  0  0  0  0
 40 77  2  0  0  0  0
 41 54  1  0  0  0  0
 41 72  1  0  0  0  0
 41 78  2  0  0  0  0
 42 62  1  0  0  0  0
 42 68  1  0  0  0  0
 42 79  2  0  0  0  0
 43 63  1  0  0  0  0
 43 73  1  0  0  0  0
 43 80  2  0  0  0  0
 44 47  1  0  0  0  0
 45 54  1  0  0  0  0
 46 68  1  0  0  0  0
 47 49  1  0  0  0  0
 48 50  1  0  0  0  0
 48 51  1  0  0  0  0
 49 53  1  0  0  0  0
 50 55  1  0  0  0  0
 51 67  1  0  0  0  0
 52 55  1  0  0  0  0
 52 67  1  0  0  0  0
 53 72  1  0  0  0  0
 54 68  1  0  0  0  0
 55 66  1  0  0  0  0
 56 63  1  0  0  0  0
 57 64  1  0  0  0  0
 58 64  1  0  0  0  0
 59 64  1  0  0  0  0
 60 74  1  0  0  0  0
 61 82  1  0  0  0  0
 62 64  1  0  0  0  0
 62 73  1  0  0  0  0
 63 74  1  0  0  0  0
 65 66  1  0  0  0  0
M  CHG  1  74   1
M  ISO  4  36 100  39 100  61 101  82 101
M  END
> <Batch ID>
0118

> <Smiles>
C=C(C(=O)Nc1cccc(C=[100CH:0][100C:0](=O)N2CCCC(n3nc(-c4ccc(Oc5ccc(F)cc5F)cc4)c(C(N)=O)c3N)C2)c1)[101CH2:1][101O:1]c1ccc2c(c1)CN(C(=O)C(NC(=O)C(C)NC)C(C)(C)C)C(C(=O)NC1CCCc3ccccc31)C2

> <Shape>
0.248

> <Color>
0.081

> <Negative vol penalty>
0.000

$$$$

  -OEChem-04052301483D

 85 93  0     1  0  0  0  0  0999 V2000
  -27.5823  -24.2164   17.3590 C   0  0  0  0  0  0  0  0  0  0  0  0
  -26.4271  -24.5265   18.0695 C   0  0  0  0  0  0  0  0  0  0  0  0
  -28.0047  -11.9327   18.7010 C   0  0  0  0  0  0  0  0  0  0  0  0
  -28.3157  -11.0678   20.9354 C   0  0  0  0  0  0  0  0  0  0  0  0
  -20.7557  -21.9311   20.6753 C   0  0  0  0  0  0  0  0  0  0  0  0
  -28.8155  -24.7054   17.7880 C   0  0  0  0  0  0  0  0  0  0  0  0
  -26.5046  -25.3251   19.2100 C   0  0  0  0  0  0  0  0  0  0  0  0
  -22.9032  -28.8829   19.3391 C   0  0  0  0  0  0  0  0  0  0  0  0
  -20.1662  -23.1135   21.1224 C   0  0  0  0  0  0  0  0  0  0  0  0
  -29.2846  -11.4993   18.3551 C   0  0  0  0  0  0  0  0  0  0  0  0
  -29.5956  -10.6344   20.5895 C   0  0  0  0  0  0  0  0  0  0  0  0
  -21.6232  -28.4798   19.7171 C   0  0  0  0  0  0  0  0  0  0  0  0
  -30.7845   -8.5906   17.5049 C   0  0  0  0  0  0  0  0  0  0  0  0
  -30.9380   -7.9310   16.2855 C   0  0  0  0  0  0  0  0  0  0  0  0
  -22.4985  -22.1738   22.3308 C   0  0  0  0  0  0  0  0  0  0  0  0
  -22.0203  -29.3254   21.9412 C   0  0  0  0  0  0  0  0  0  0  0  0
  -32.4861   -9.6370   15.5575 C   0  0  0  0  0  0  0  0  0  0  0  0
  -27.5203  -11.7170   19.9912 C   0  0  0  0  0  0  0  0  0  0  0  0
  -21.9218  -21.4612   21.2795 C   0  0  0  0  0  0  0  0  0  0  0  0
  -21.9091  -23.3563   22.7779 C   0  0  0  0  0  0  0  0  0  0  0  0
  -24.9961  -11.4414   20.2369 C   0  0  0  0  0  0  0  0  0  0  0  0
  -28.9070  -25.5182   18.9288 C   0  0  0  0  0  0  0  0  0  0  0  0
  -23.7568  -29.5015   20.2638 C   0  0  0  0  0  0  0  0  0  0  0  0
  -27.7404  -25.8243   19.6554 C   0  0  0  0  0  0  0  0  0  0  0  0
  -23.3097  -29.7377   21.5717 C   0  0  0  0  0  0  0  0  0  0  0  0
  -20.7429  -23.8262   22.1737 C   0  0  0  0  0  0  0  0  0  0  0  0
  -30.0800  -10.8501   19.2993 C   0  0  0  0  0  0  0  0  0  0  0  0
  -21.1826  -28.6984   21.0191 C   0  0  0  0  0  0  0  0  0  0  0  0
  -31.4817   -9.7735   17.7506 C   0  0  0  0  0  0  0  0  0  0  0  0
  -31.7888   -8.4542   15.3118 C   0  0  0  0  0  0  0  0  0  0  0  0
  -32.3325  -10.2967   16.7769 C   0  0  0  0  0  0  0  0  0  0  0  0
  -26.1985  -12.1650   20.3494 C   0  0  0  0  0  0  0  0  0  0  0  0
  -24.0328  -12.3015   20.7048 C   0  0  0  0  0  0  0  0  0  0  0  0
  -23.7643  -24.5769   23.8187 C   0  0  0  0  0  0  0  0  0  0  0  0
  -22.5350  -20.2274   20.8135 C   0  0  0  0  0  0  0  0  0  0  0  0
  -22.5408  -24.0747   23.8784 C   0  0  0  0  0  0  0  0  0  0  0  0
  -23.4049  -19.4709   21.5163 C   0  0  0  0  0  0  0  0  0  0  0  0
  -24.7702  -10.1109   19.7528 C   0  0  0  0  0  0  0  0  0  0  0  0
  -23.9347  -18.2346   20.9068 C   0  0  0  0  0  0  0  0  0  0  0  0
  -26.5860  -28.7932   21.5278 C   0  0  0  0  0  0  0  0  0  0  0  0
  -26.3082  -31.7508   22.8307 C   0  0  0  0  0  0  0  0  0  0  0  0
  -18.9647  -25.6084   22.0989 C   0  0  0  0  0  0  0  0  0  0  0  0
  -24.2662  -34.2943   23.8345 C   0  0  0  0  0  0  0  0  0  0  0  0
  -30.2682  -25.9844   19.3808 C   0  0  0  0  0  0  0  0  0  0  0  0
  -25.1248  -29.9545   19.8330 C   0  0  0  0  0  0  0  0  0  0  0  0
  -24.1799  -30.4162   22.5968 C   0  0  0  0  0  0  0  0  0  0  0  0
  -30.2163  -27.1326   20.3854 C   0  0  0  0  0  0  0  0  0  0  0  0
  -23.3955  -15.9449   23.7171 C   0  0  0  0  0  0  0  0  0  0  0  0
  -29.1888  -26.8427   21.4749 C   0  0  0  0  0  0  0  0  0  0  0  0
  -23.9944  -14.6546   23.1637 C   0  0  0  0  0  0  0  0  0  0  0  0
  -24.1448  -17.1812   23.2225 C   0  0  0  0  0  0  0  0  0  0  0  0
  -24.8548  -15.9653   21.1834 C   0  0  0  0  0  0  0  0  0  0  0  0
  -27.7805  -26.7078   20.8833 C   0  0  1  0  0  0  0  0  0  0  0  0
  -26.0968  -30.1115   20.9983 C   0  0  1  0  0  0  0  0  0  0  0  0
  -24.0874  -14.7114   21.6307 C   0  0  1  0  0  0  0  0  0  0  0  0
  -24.3271  -36.5671   24.8967 C   0  0  0  0  0  0  0  0  0  0  0  0
  -26.8153  -30.4636   25.5503 C   0  0  0  0  0  0  0  0  0  0  0  0
  -25.9364  -32.5482   26.6229 C   0  0  0  0  0  0  0  0  0  0  0  0
  -27.9804  -32.6480   25.1965 C   0  0  0  0  0  0  0  0  0  0  0  0
  -23.0417  -35.5650   21.4587 C   0  0  0  0  0  0  0  0  0  0  0  0
  -18.6441  -26.8941   22.8528 C   0  0  0  0  0  0  0  0  0  0  0  0
  -19.7494  -27.9347   22.7565 C   0  0  0  0  0  0  0  0  0  1  0  0
  -25.7245  -32.3060   24.1074 C   0  0  1  0  0  0  0  0  0  0  0  0
  -24.3263  -35.7911   23.5888 C   0  0  2  0  0  0  0  0  0  0  0  0
  -26.5982  -31.9769   25.3507 C   0  0  0  0  0  0  0  0  0  0  0  0
  -26.0181  -13.3903   20.8493 N   0  0  0  0  0  0  0  0  0  0  0  0
  -24.6911  -13.4435   21.0551 N   0  0  0  0  0  0  0  0  0  0  0  0
  -24.2718  -17.1832   21.7573 N   0  0  0  0  0  0  0  0  0  0  0  0
  -25.5115  -30.8350   22.1289 N   0  0  0  0  0  0  0  0  0  0  0  0
  -22.6954  -12.1847   20.8465 N   0  0  0  0  0  0  0  0  0  0  0  0
  -25.8712   -9.3651   19.3101 N   0  0  0  0  0  0  0  0  0  0  0  0
  -20.1222  -25.0227   22.6047 N   0  0  0  0  0  0  0  0  0  0  0  0
  -27.2300  -28.0129   20.5865 N   0  0  0  0  0  0  0  0  0  0  0  0
  -25.5248  -33.7329   23.8783 N   0  0  0  0  0  0  0  0  0  0  0  0
  -23.1532  -36.2311   22.7819 N   0  3  0  0  0  0  0  0  0  0  0  0
  -23.6239   -9.6045   19.6988 O   0  0  0  0  0  0  0  0  0  0  0  0
  -24.0513  -18.2101   19.6802 O   0  0  0  0  0  0  0  0  0  0  0  0
  -26.3947  -28.5058   22.7036 O   0  0  0  0  0  0  0  0  0  0  0  0
  -27.4266  -32.1215   22.4657 O   0  0  0  0  0  0  0  0  0  0  0  0
  -18.2624  -25.1974   21.1813 O   0  0  0  0  0  0  0  0  0  0  0  0
  -23.2086  -33.6847   23.9774 O   0  0  0  0  0  0  0  0  0  0  0  0
  -31.3289  -10.4268   18.9620 O   0  0  0  0  0  0  0  0  0  0  0  0
  -19.9340  -28.3053   21.3909 O   0  0  0  0  0  0  0  0  0  1  0  0
  -31.9373   -7.8198   14.1415 F   0  0  0  0  0  0  0  0  0  0  0  0
  -33.0059  -11.4321   17.0076 F   0  0  0  0  0  0  0  0  0  0  0  0
  1  2  1  0  0  0  0
  1  6  2  0  0  0  0
  2  7  2  0  0  0  0
  3 10  2  0  0  0  0
  3 18  1  0  0  0  0
  4 11  1  0  0  0  0
  4 18  2  0  0  0  0
  5  9  2  0  0  0  0
  5 19  1  0  0  0  0
  6 22  1  0  0  0  0
  7 24  1  0  0  0  0
  8 12  2  0  0  0  0
  8 23  1  0  0  0  0
  9 26  1  0  0  0  0
 10 27  1  0  0  0  0
 11 27  2  0  0  0  0
 12 28  1  0  0  0  0
 13 14  2  0  0  0  0
 13 29  1  0  0  0  0
 14 30  1  0  0  0  0
 15 19  2  0  0  0  0
 15 20  1  0  0  0  0
 16 25  1  0  0  0  0
 16 28  2  0  0  0  0
 17 30  2  0  0  0  0
 17 31  1  0  0  0  0
 18 32  1  0  0  0  0
 19 35  1  0  0  0  0
 20 26  2  0  0  0  0
 20 36  1  0  0  0  0
 21 32  1  0  0  0  0
 21 33  2  0  0  0  0
 21 38  1  0  0  0  0
 22 24  2  0  0  0  0
 22 44  1  0  0  0  0
 23 25  2  0  0  0  0
 23 45  1  0  0  0  0
 24 53  1  0  0  0  0
 25 46  1  0  0  0  0
 26 72  1  0  0  0  0
 27 82  1  0  0  0  0
 28 83  1  0  0  0  0
 29 31  2  0  0  0  0
 29 82  1  0  0  0  0
 30 84  1  0  0  0  0
 31 85  1  0  0  0  0
 32 66  2  0  0  0  0
 33 67  1  0  0  0  0
 33 70  1  0  0  0  0
 34 36  2  0  0  0  0
 35 37  2  0  0  0  0
 37 39  1  0  0  0  0
 38 71  1  0  0  0  0
 38 76  2  0  0  0  0
 39 68  1  0  0  0  0
 39 77  2  0  0  0  0
 40 54  1  0  0  0  0
 40 73  1  0  0  0  0
 40 78  2  0  0  0  0
 41 63  1  0  0  0  0
 41 69  1  0  0  0  0
 41 79  2  0  0  0  0
 42 61  1  0  0  0  0
 42 72  1  0  0  0  0
 42 80  2  0  0  0  0
 43 64  1  0  0  0  0
 43 74  1  0  0  0  0
 43 81  2  0  0  0  0
 44 47  1  0  0  0  0
 45 54  1  0  0  0  0
 46 69  1  0  0  0  0
 47 49  1  0  0  0  0
 48 50  1  0  0  0  0
 48 51  1  0  0  0  0
 49 53  1  0  0  0  0
 50 55  1  0  0  0  0
 51 68  1  0  0  0  0
 52 55  1  0  0  0  0
 52 68  1  0  0  0  0
 53 73  1  0  0  0  0
 54 69  1  0  0  0  0
 55 67  1  0  0  0  0
 56 64  1  0  0  0  0
 57 65  1  0  0  0  0
 58 65  1  0  0  0  0
 59 65  1  0  0  0  0
 60 75  1  0  0  0  0
 61 62  1  0  0  0  0
 62 83  1  0  0  0  0
 63 65  1  0  0  0  0
 63 74  1  0  0  0  0
 64 75  1  0  0  0  0
 66 67  1  0  0  0  0
M  CHG  1  75   1
M  ISO  4  37 100  39 100  62 101  83 101
M  END
> <Batch ID>
0118

> <Smiles>
C=Cc1cc(C=[100CH:0][100C:0](=O)N2CCCC(n3nc(-c4ccc(Oc5ccc(F)cc5F)cc4)c(C(N)=O)c3N)C2)ccc1NC(=O)C[101CH2:1][101O:1]c1ccc2c(c1)CN(C(=O)C(NC(=O)C(C)NC)C(C)(C)C)C(C(=O)NC1CCCc3ccccc31)C2

> <Shape>
0.282

> <Color>
0.074

> <Negative vol penalty>
0.000

$$$$

  -OEChem-04052301483D

 84 93  0     1  0  0  0  0  0999 V2000
  -31.5930  -35.0117   22.9813 C   0  0  0  0  0  0  0  0  0  0  0  0
  -31.5199  -33.6836   23.3890 C   0  0  0  0  0  0  0  0  0  0  0  0
  -32.6462  -17.4976   23.4562 C   0  0  0  0  0  0  0  0  0  0  0  0
  -23.0767   -9.8664   19.9400 C   0  0  0  0  0  0  0  0  0  0  0  0
  -23.8353   -9.8744   22.2338 C   0  0  0  0  0  0  0  0  0  0  0  0
  -31.2821  -35.3540   21.6659 C   0  0  0  0  0  0  0  0  0  0  0  0
  -31.1348  -32.6971   22.4819 C   0  0  0  0  0  0  0  0  0  0  0  0
  -33.1655  -26.9246   22.2380 C   0  0  0  0  0  0  0  0  0  0  0  0
  -31.8473  -18.3643   24.2019 C   0  0  0  0  0  0  0  0  0  0  0  0
  -32.0594  -16.6125   22.5518 C   0  0  0  0  0  0  0  0  0  0  0  0
  -22.3332   -8.7130   20.1898 C   0  0  0  0  0  0  0  0  0  0  0  0
  -23.0917   -8.7209   22.4837 C   0  0  0  0  0  0  0  0  0  0  0  0
  -32.6382  -25.7240   22.7115 C   0  0  0  0  0  0  0  0  0  0  0  0
  -19.8636   -7.9219   23.0845 C   0  0  0  0  0  0  0  0  0  0  0  0
  -19.1060   -7.8820   24.2550 C   0  0  0  0  0  0  0  0  0  0  0  0
  -31.6894  -25.2899   20.5366 C   0  0  0  0  0  0  0  0  0  0  0  0
  -29.8748  -17.4607   23.1390 C   0  0  0  0  0  0  0  0  0  0  0  0
  -20.3478   -5.9453   24.9927 C   0  0  0  0  0  0  0  0  0  0  0  0
  -23.8278  -10.4471   20.9619 C   0  0  0  0  0  0  0  0  0  0  0  0
  -24.1686  -12.9723   20.8414 C   0  0  0  0  0  0  0  0  0  0  0  0
  -30.9022  -34.3699   20.7397 C   0  0  0  0  0  0  0  0  0  0  0  0
  -32.9491  -27.3228   20.9110 C   0  0  0  0  0  0  0  0  0  0  0  0
  -30.8171  -33.0268   21.1533 C   0  0  0  0  0  0  0  0  0  0  0  0
  -32.2172  -26.4948   20.0480 C   0  0  0  0  0  0  0  0  0  0  0  0
  -30.4616  -18.3459   24.0433 C   0  0  0  0  0  0  0  0  0  0  0  0
  -30.6737  -16.5940   22.3932 C   0  0  0  0  0  0  0  0  0  0  0  0
  -22.3407   -8.1403   21.4617 C   0  0  0  0  0  0  0  0  0  0  0  0
  -31.8976  -24.9078   21.8616 C   0  0  0  0  0  0  0  0  0  0  0  0
  -20.8633   -6.9735   22.8681 C   0  0  0  0  0  0  0  0  0  0  0  0
  -19.3481   -6.8937   25.2091 C   0  0  0  0  0  0  0  0  0  0  0  0
  -21.1054   -5.9852   23.8222 C   0  0  0  0  0  0  0  0  0  0  0  0
  -24.5965  -11.6382   20.7043 C   0  0  0  0  0  0  0  0  0  0  0  0
  -25.2606  -13.7222   20.4786 C   0  0  0  0  0  0  0  0  0  0  0  0
  -29.5239  -22.6648   23.3494 C   0  0  0  0  0  0  0  0  0  0  0  0
  -30.1285  -23.7547   22.8672 C   0  0  0  0  0  0  0  0  0  1  0  0
  -22.8976  -13.4877   21.2595 C   0  0  0  0  0  0  0  0  0  0  0  0
  -31.5055  -29.7869   19.5154 C   0  0  0  0  0  0  0  0  0  0  0  0
  -32.7269  -28.4715   16.8136 C   0  0  0  0  0  0  0  0  0  0  0  0
  -33.8939  -25.6902   15.2169 C   0  0  0  0  0  0  0  0  0  0  0  0
  -30.7263  -14.7702   20.6561 C   0  0  0  0  0  0  0  0  0  0  0  0
  -30.5299  -34.7944   19.3412 C   0  0  0  0  0  0  0  0  0  0  0  0
  -33.5473  -28.6080   20.4082 C   0  0  0  0  0  0  0  0  0  0  0  0
  -31.9736  -26.8670   18.6090 C   0  0  0  0  0  0  0  0  0  0  0  0
  -28.1538  -22.6268   23.9581 C   0  0  0  0  0  0  0  0  0  0  0  0
  -30.1344  -21.3014   23.4202 C   0  0  0  0  0  0  0  0  0  0  0  0
  -30.4926  -33.6395   18.3437 C   0  0  0  0  0  0  0  0  0  0  0  0
  -29.6143  -12.3553   18.2879 C   0  0  0  0  0  0  0  0  0  0  0  0
  -29.7350  -32.4523   18.9296 C   0  0  0  0  0  0  0  0  0  0  0  0
  -28.1745  -12.0632   18.7167 C   0  0  0  0  0  0  0  0  0  0  0  0
  -30.5286  -12.5848   19.4900 C   0  0  0  0  0  0  0  0  0  0  0  0
  -28.6205  -13.3088   20.8700 C   0  0  0  0  0  0  0  0  0  0  0  0
  -28.1820  -21.3684   24.8154 C   0  0  0  0  0  0  0  0  0  0  0  0
  -30.4273  -31.9248   20.1921 C   0  0  1  0  0  0  0  0  0  0  0  0
  -32.8298  -29.1610   19.1807 C   0  0  1  0  0  0  0  0  0  0  0  0
  -27.6485  -13.1348   19.6916 C   0  0  2  0  0  0  0  0  0  0  0  0
  -34.7848  -24.9188   13.0013 C   0  0  0  0  0  0  0  0  0  0  0  0
  -29.9002  -28.5123   15.6655 C   0  0  0  0  0  0  0  0  0  0  0  0
  -30.6670  -26.9063   13.9046 C   0  0  0  0  0  0  0  0  0  0  0  0
  -31.6914  -29.1761   14.0514 C   0  0  0  0  0  0  0  0  0  0  0  0
  -36.4837  -24.8909   16.4056 C   0  0  0  0  0  0  0  0  0  0  0  0
  -29.6027  -19.2784   24.8457 C   0  0  0  0  0  0  0  0  0  0  0  0
  -32.2482  -27.4488   15.8116 C   0  0  1  0  0  0  0  0  0  0  0  0
  -35.1381  -25.4574   14.3789 C   0  0  2  0  0  0  0  0  0  0  0  0
  -31.1295  -28.0045   14.8859 C   0  0  0  0  0  0  0  0  0  0  0  0
  -25.8617  -11.5428   20.2868 N   0  0  0  0  0  0  0  0  0  0  0  0
  -26.2381  -12.8265   20.1583 N   0  0  0  0  0  0  0  0  0  0  0  0
  -32.5737  -28.1365   18.1664 N   0  0  0  0  0  0  0  0  0  0  0  0
  -29.9687  -13.6156   20.3668 N   0  0  0  0  0  0  0  0  0  0  0  0
  -25.4705  -15.0537   20.4053 N   0  0  0  0  0  0  0  0  0  0  0  0
  -21.8859  -12.5782   21.5964 N   0  0  0  0  0  0  0  0  0  0  0  0
  -30.0780  -15.6952   21.4739 N   0  0  0  0  0  0  0  0  0  0  0  0
  -31.5828  -31.1280   19.8394 N   0  0  0  0  0  0  0  0  0  0  0  0
  -33.4358  -26.9857   15.1020 N   0  0  0  0  0  0  0  0  0  0  0  0
  -29.0750  -20.4220   24.0452 N   0  3  2  0  0  0  0  0  0  0  0  0
  -36.0386  -24.4776   15.0499 N   0  3  0  0  0  0  0  0  0  0  0  0
  -22.6608  -14.7182   21.3163 O   0  0  0  0  0  0  0  0  0  0  0  0
  -30.4885  -29.1040   19.4808 O   0  0  0  0  0  0  0  0  0  0  0  0
  -33.2250  -29.5256   16.4108 O   0  0  0  0  0  0  0  0  0  0  0  0
  -33.3777  -24.8099   15.9018 O   0  0  0  0  0  0  0  0  0  0  0  0
  -31.8555  -14.9393   20.1891 O   0  0  0  0  0  0  0  0  0  0  0  0
  -21.6151   -7.0149   21.7059 O   0  0  0  0  0  0  0  0  0  0  0  0
  -31.3813  -23.7357   22.3214 O   0  0  0  0  0  0  0  0  0  1  0  0
  -18.6215   -6.8564   26.3338 F   0  0  0  0  0  0  0  0  0  0  0  0
  -22.0652   -5.0721   23.6204 F   0  0  0  0  0  0  0  0  0  0  0  0
  1  2  1  0  0  0  0
  1  6  2  0  0  0  0
  2  7  2  0  0  0  0
  3  9  2  0  0  0  0
  3 10  1  0  0  0  0
  4 11  2  0  0  0  0
  4 19  1  0  0  0  0
  5 12  1  0  0  0  0
  5 19  2  0  0  0  0
  6 21  1  0  0  0  0
  7 23  1  0  0  0  0
  8 13  2  0  0  0  0
  8 22  1  0  0  0  0
  9 25  1  0  0  0  0
 10 26  2  0  0  0  0
 11 27  1  0  0  0  0
 12 27  2  0  0  0  0
 13 28  1  0  0  0  0
 14 15  2  0  0  0  0
 14 29  1  0  0  0  0
 15 30  1  0  0  0  0
 16 24  1  0  0  0  0
 16 28  2  0  0  0  0
 17 25  2  0  0  0  0
 17 26  1  0  0  0  0
 18 30  2  0  0  0  0
 18 31  1  0  0  0  0
 19 32  1  0  0  0  0
 20 32  1  0  0  0  0
 20 33  2  0  0  0  0
 20 36  1  0  0  0  0
 21 23  2  0  0  0  0
 21 41  1  0  0  0  0
 22 24  2  0  0  0  0
 22 42  1  0  0  0  0
 23 53  1  0  0  0  0
 24 43  1  0  0  0  0
 25 61  1  0  0  0  0
 26 71  1  0  0  0  0
 27 81  1  0  0  0  0
 28 82  1  0  0  0  0
 29 31  2  0  0  0  0
 29 81  1  0  0  0  0
 30 83  1  0  0  0  0
 31 84  1  0  0  0  0
 32 65  2  0  0  0  0
 33 66  1  0  0  0  0
 33 69  1  0  0  0  0
 34 35  2  0  0  0  0
 34 44  1  0  0  0  0
 34 45  1  0  0  0  0
 35 82  1  0  0  0  0
 36 70  1  0  0  0  0
 36 76  2  0  0  0  0
 37 54  1  0  0  0  0
 37 72  1  0  0  0  0
 37 77  2  0  0  0  0
 38 62  1  0  0  0  0
 38 67  1  0  0  0  0
 38 78  2  0  0  0  0
 39 63  1  0  0  0  0
 39 73  1  0  0  0  0
 39 79  2  0  0  0  0
 40 68  1  0  0  0  0
 40 71  1  0  0  0  0
 40 80  2  0  0  0  0
 41 46  1  0  0  0  0
 42 54  1  0  0  0  0
 43 67  1  0  0  0  0
 44 52  1  0  0  0  0
 45 74  1  0  0  0  0
 46 48  1  0  0  0  0
 47 49  1  0  0  0  0
 47 50  1  0  0  0  0
 48 53  1  0  0  0  0
 49 55  1  0  0  0  0
 50 68  1  0  0  0  0
 51 55  1  0  0  0  0
 51 68  1  0  0  0  0
 52 74  1  0  0  0  0
 53 72  1  0  0  0  0
 54 67  1  0  0  0  0
 55 66  1  0  0  0  0
 56 63  1  0  0  0  0
 57 64  1  0  0  0  0
 58 64  1  0  0  0  0
 59 64  1  0  0  0  0
 60 75  1  0  0  0  0
 61 74  1  0  0  0  0
 62 64  1  0  0  0  0
 62 73  1  0  0  0  0
 63 75  1  0  0  0  0
 65 66  1  0  0  0  0
M  CHG  2  74   1  75   1
M  ISO  4  35 101  40 100  71 100  82 101
M  END
> <Batch ID>
0118

> <Smiles>
CNC(C)C(=O)NC(C(=O)N1Cc2cc([101O:1][101CH:1]=C3CCN(Cc4cccc([100NH:0][100C:0](=O)N5CCCC(n6nc(-c7ccc(Oc8ccc(F)cc8F)cc7)c(C(N)=O)c6N)C5)c4)C3)ccc2CC1C(=O)NC1CCCc2ccccc21)C(C)(C)C

> <Shape>
0.183

> <Color>
0.188

> <Negative vol penalty>
0.000

$$$$

  -OEChem-04052301483D

 84 92  0     1  0  0  0  0  0999 V2000
  -26.2774  -36.5162   25.1861 C   0  0  0  0  0  0  0  0  0  0  0  0
  -26.3828  -35.1572   25.4642 C   0  0  0  0  0  0  0  0  0  0  0  0
  -22.7938  -11.3425   19.1305 C   0  0  0  0  0  0  0  0  0  0  0  0
  -23.3072   -9.9527   21.0389 C   0  0  0  0  0  0  0  0  0  0  0  0
  -25.2214  -36.9873   24.4071 C   0  0  0  0  0  0  0  0  0  0  0  0
  -25.4315  -34.2686   24.9643 C   0  0  0  0  0  0  0  0  0  0  0  0
  -27.3527  -28.7966   20.6914 C   0  0  0  0  0  0  0  0  0  0  0  0
  -21.8134  -10.4337   18.7324 C   0  0  0  0  0  0  0  0  0  0  0  0
  -22.3267   -9.0440   20.6409 C   0  0  0  0  0  0  0  0  0  0  0  0
  -27.6660  -27.6030   20.0407 C   0  0  0  0  0  0  0  0  0  0  0  0
  -18.9605   -8.7874   20.7953 C   0  0  0  0  0  0  0  0  0  0  0  0
  -18.0979   -8.2965   21.7753 C   0  0  0  0  0  0  0  0  0  0  0  0
  -25.3136  -27.0736   19.8563 C   0  0  0  0  0  0  0  0  0  0  0  0
  -29.0271  -21.2332   20.2057 C   0  0  0  0  0  0  0  0  0  0  0  0
  -27.1003  -20.0916   19.2993 C   0  0  0  0  0  0  0  0  0  0  0  0
  -18.8474   -6.0476   21.3082 C   0  0  0  0  0  0  0  0  0  0  0  0
  -23.5408  -11.1020   20.2837 C   0  0  0  0  0  0  0  0  0  0  0  0
  -29.2211  -18.9449   19.4553 C   0  0  0  0  0  0  0  0  0  0  0  0
  -24.3905  -13.1489   21.5469 C   0  0  0  0  0  0  0  0  0  0  0  0
  -24.2621  -36.1028   23.8893 C   0  0  0  0  0  0  0  0  0  0  0  0
  -26.0165  -29.1409   20.9136 C   0  0  0  0  0  0  0  0  0  0  0  0
  -24.3610  -34.7285   24.1787 C   0  0  0  0  0  0  0  0  0  0  0  0
  -24.9933  -28.2738   20.4965 C   0  0  0  0  0  0  0  0  0  0  0  0
  -29.7987  -20.0882   20.0076 C   0  0  0  0  0  0  0  0  0  0  0  0
  -27.6779  -21.2349   19.8516 C   0  0  0  0  0  0  0  0  0  0  0  0
  -21.5798   -9.2845   19.4876 C   0  0  0  0  0  0  0  0  0  0  0  0
  -26.6489  -26.7436   19.6244 C   0  0  0  0  0  0  0  0  0  0  0  0
  -19.7665   -7.9085   20.0717 C   0  0  0  0  0  0  0  0  0  0  0  0
  -18.0414   -6.9265   22.0318 C   0  0  0  0  0  0  0  0  0  0  0  0
  -27.8719  -18.9466   19.1012 C   0  0  0  0  0  0  0  0  0  0  0  0
  -19.7100   -6.5386   20.3282 C   0  0  0  0  0  0  0  0  0  0  0  0
  -24.5541  -12.0400   20.6952 C   0  0  0  0  0  0  0  0  0  0  0  0
  -25.6411  -13.7119   21.6216 C   0  0  0  0  0  0  0  0  0  0  0  0
  -30.0167  -17.7242   19.2346 C   0  0  0  0  0  0  0  0  0  0  0  0
  -26.8691  -23.2230   19.0649 C   0  0  0  0  0  0  0  0  0  0  0  0
  -23.2134  -13.6272   22.2113 C   0  0  0  0  0  0  0  0  0  0  0  0
  -23.5882  -31.6453   22.2946 C   0  0  0  0  0  0  0  0  0  0  0  0
  -22.4093  -30.6241   19.6531 C   0  0  0  0  0  0  0  0  0  0  0  0
  -21.6634  -29.5581   16.4996 C   0  0  0  0  0  0  0  0  0  0  0  0
  -30.2918  -15.4464   19.0691 C   0  0  0  0  0  0  0  0  0  0  0  0
  -23.1121  -36.6648   23.0917 C   0  0  0  0  0  0  0  0  0  0  0  0
  -25.6345  -30.3870   21.6653 C   0  0  0  0  0  0  0  0  0  0  0  0
  -23.5713  -28.6688   20.7877 C   0  0  0  0  0  0  0  0  0  0  0  0
  -22.3554  -35.6104   22.2881 C   0  0  0  0  0  0  0  0  0  0  0  0
  -30.1371  -11.9917   20.0916 C   0  0  0  0  0  0  0  0  0  0  0  0
  -22.0638  -34.3880   23.1527 C   0  0  0  0  0  0  0  0  0  0  0  0
  -28.6501  -11.7801   20.3755 C   0  0  0  0  0  0  0  0  0  0  0  0
  -30.3535  -12.9564   18.9297 C   0  0  0  0  0  0  0  0  0  0  0  0
  -28.1860  -14.0685   19.3921 C   0  0  0  0  0  0  0  0  0  0  0  0
  -23.3627  -33.7301   23.6339 C   0  0  1  0  0  0  0  0  0  0  0  0
  -24.3348  -31.0292   21.1481 C   0  0  1  0  0  0  0  0  0  0  0  0
  -27.9293  -13.1246   20.5792 C   0  0  1  0  0  0  0  0  0  0  0  0
  -31.5001  -19.3812   21.7081 C   0  0  0  0  0  0  0  0  0  0  0  0
  -19.9254  -29.7840   14.7035 C   0  0  0  0  0  0  0  0  0  0  0  0
  -20.5558  -28.7762   21.2195 C   0  0  0  0  0  0  0  0  0  0  0  0
  -19.3529  -28.2852   19.0793 C   0  0  0  0  0  0  0  0  0  0  0  0
  -19.3951  -30.6115   19.9789 C   0  0  0  0  0  0  0  0  0  0  0  0
  -23.6174  -30.6965   14.5904 C   0  0  0  0  0  0  0  0  0  0  0  0
  -31.2414  -20.1135   20.3951 C   0  0  0  0  0  0  0  0  0  0  0  0
  -26.0653  -24.4853   19.1586 C   0  0  0  0  0  0  0  0  0  1  0  0
  -21.4985  -29.6330   18.9738 C   0  0  1  0  0  0  0  0  0  0  0  0
  -21.2397  -30.3153   15.2539 C   0  0  2  0  0  0  0  0  0  0  0  0
  -20.2285  -29.3218   19.8151 C   0  0  0  0  0  0  0  0  0  0  0  0
  -25.8096  -11.9050   20.2598 N   0  0  0  0  0  0  0  0  0  0  0  0
  -26.8999  -22.3879   20.0514 N   0  0  0  0  0  0  0  0  0  0  0  0
  -29.4847  -16.5470   19.2850 N   0  0  0  0  0  0  0  0  0  0  0  0
  -26.4463  -12.9365   20.8402 N   0  0  0  0  0  0  0  0  0  0  0  0
  -23.3820  -30.1021   20.5143 N   0  0  0  0  0  0  0  0  0  0  0  0
  -29.6269  -14.2087   19.1434 N   0  0  0  0  0  0  0  0  0  0  0  0
  -26.1195  -14.7897   22.2787 N   0  0  0  0  0  0  0  0  0  0  0  0
  -22.0117  -12.9301   22.0259 N   0  0  0  0  0  0  0  0  0  0  0  0
  -23.9570  -32.9480   22.5711 N   0  0  0  0  0  0  0  0  0  0  0  0
  -21.2192  -30.1767   17.6491 N   0  0  0  0  0  0  0  0  0  0  0  0
  -22.2787  -30.1897   14.1929 N   0  3  0  0  0  0  0  0  0  0  0  0
  -23.2233  -14.6521   22.9344 O   0  0  0  0  0  0  0  0  0  0  0  0
  -22.7385  -30.9886   22.8849 O   0  0  0  0  0  0  0  0  0  0  0  0
  -22.2610  -31.8293   19.4323 O   0  0  0  0  0  0  0  0  0  0  0  0
  -22.3194  -28.5197   16.4570 O   0  0  0  0  0  0  0  0  0  0  0  0
  -31.4984  -15.5164   18.8236 O   0  0  0  0  0  0  0  0  0  0  0  0
  -20.6230   -8.3976   19.0996 O   0  0  0  0  0  0  0  0  0  0  0  0
  -26.9616  -25.5821   18.9857 O   0  0  0  0  0  0  0  0  0  1  0  0
  -17.2141   -6.4553   22.9740 F   0  0  0  0  0  0  0  0  0  0  0  0
  -27.3058  -17.8549   18.5672 F   0  0  0  0  0  0  0  0  0  0  0  0
  -20.4827   -5.6895   19.6371 F   0  0  0  0  0  0  0  0  0  0  0  0
  1  2  1  0  0  0  0
  1  5  2  0  0  0  0
  2  6  2  0  0  0  0
  3  8  2  0  0  0  0
  3 17  1  0  0  0  0
  4  9  1  0  0  0  0
  4 17  2  0  0  0  0
  5 20  1  0  0  0  0
  6 22  1  0  0  0  0
  7 10  2  0  0  0  0
  7 21  1  0  0  0  0
  8 26  1  0  0  0  0
  9 26  2  0  0  0  0
 10 27  1  0  0  0  0
 11 12  2  0  0  0  0
 11 28  1  0  0  0  0
 12 29  1  0  0  0  0
 13 23  1  0  0  0  0
 13 27  2  0  0  0  0
 14 24  1  0  0  0  0
 14 25  2  0  0  0  0
 15 25  1  0  0  0  0
 15 30  2  0  0  0  0
 16 29  2  0  0  0  0
 16 31  1  0  0  0  0
 17 32  1  0  0  0  0
 18 24  2  0  0  0  0
 18 30  1  0  0  0  0
 18 34  1  0  0  0  0
 19 32  1  0  0  0  0
 19 33  2  0  0  0  0
 19 36  1  0  0  0  0
 20 22  2  0  0  0  0
 20 41  1  0  0  0  0
 21 23  2  0  0  0  0
 21 42  1  0  0  0  0
 22 50  1  0  0  0  0
 23 43  1  0  0  0  0
 24 59  1  0  0  0  0
 25 65  1  0  0  0  0
 26 80  1  0  0  0  0
 27 81  1  0  0  0  0
 28 31  2  0  0  0  0
 28 80  1  0  0  0  0
 29 82  1  0  0  0  0
 30 83  1  0  0  0  0
 31 84  1  0  0  0  0
 32 64  2  0  0  0  0
 33 67  1  0  0  0  0
 33 70  1  0  0  0  0
 34 66  2  0  0  0  0
 35 60  1  0  0  0  0
 35 65  2  0  0  0  0
 36 71  1  0  0  0  0
 36 75  2  0  0  0  0
 37 51  1  0  0  0  0
 37 72  1  0  0  0  0
 37 76  2  0  0  0  0
 38 61  1  0  0  0  0
 38 68  1  0  0  0  0
 38 77  2  0  0  0  0
 39 62  1  0  0  0  0
 39 73  1  0  0  0  0
 39 78  2  0  0  0  0
 40 66  1  0  0  0  0
 40 69  1  0  0  0  0
 40 79  2  0  0  0  0
 41 44  1  0  0  0  0
 42 51  1  0  0  0  0
 43 68  1  0  0  0  0
 44 46  1  0  0  0  0
 45 47  1  0  0  0  0
 45 48  1  0  0  0  0
 46 50  1  0  0  0  0
 47 52  1  0  0  0  0
 48 69  1  0  0  0  0
 49 52  1  0  0  0  0
 49 69  1  0  0  0  0
 50 72  1  0  0  0  0
 51 68  1  0  0  0  0
 52 67  1  0  0  0  0
 53 59  1  0  0  0  0
 54 62  1  0  0  0  0
 55 63  1  0  0  0  0
 56 63  1  0  0  0  0
 57 63  1  0  0  0  0
 58 74  1  0  0  0  0
 60 81  1  0  0  0  0
 61 63  1  0  0  0  0
 61 73  1  0  0  0  0
 62 74  1  0  0  0  0
 64 67  1  0  0  0  0
M  CHG  1  74   1
M  ISO  4  40 100  60 101  66 100  81 101
M  END
> <Batch ID>
0118

> <Smiles>
CCc1cc(NC=[101CH:1][101O:1]c2ccc3c(c2)CN(C(=O)C(NC(=O)C(C)NC)C(C)(C)C)C(C(=O)NC2CCCc4ccccc42)C3)cc(F)c1C=[100N:0][100C:0](=O)N1CCCC(n2nc(-c3ccc(Oc4ccc(F)cc4F)cc3)c(C(N)=O)c2N)C1

> <Shape>
0.285

> <Color>
0.108

> <Negative vol penalty>
0.000

$$$$

  -OEChem-04052301483D

 85 93  0     1  0  0  0  0  0999 V2000
  -17.1832  -27.9486   22.3835 C   0  0  0  0  0  0  0  0  0  0  0  0
  -18.2971  -27.1816   22.0574 C   0  0  0  0  0  0  0  0  0  0  0  0
  -24.0324   -9.3832   21.0593 C   0  0  0  0  0  0  0  0  0  0  0  0
  -24.6320  -10.2120   23.2480 C   0  0  0  0  0  0  0  0  0  0  0  0
  -17.3474  -29.2573   22.8354 C   0  0  0  0  0  0  0  0  0  0  0  0
  -19.5759  -27.7233   22.1821 C   0  0  0  0  0  0  0  0  0  0  0  0
  -24.6818  -24.7678   23.8255 C   0  0  0  0  0  0  0  0  0  0  0  0
  -32.2428  -17.5446   22.1842 C   0  0  0  0  0  0  0  0  0  0  0  0
  -31.9727  -18.9127   22.2172 C   0  0  0  0  0  0  0  0  0  0  0  0
  -23.6098   -8.1825   21.6297 C   0  0  0  0  0  0  0  0  0  0  0  0
  -24.2093   -9.0113   23.8185 C   0  0  0  0  0  0  0  0  0  0  0  0
  -25.7322  -24.2271   23.0852 C   0  0  0  0  0  0  0  0  0  0  0  0
  -20.9033   -7.0350   23.3002 C   0  0  0  0  0  0  0  0  0  0  0  0
  -19.6856   -6.5068   22.8715 C   0  0  0  0  0  0  0  0  0  0  0  0
  -27.0068  -26.2458   23.4303 C   0  0  0  0  0  0  0  0  0  0  0  0
  -30.3652  -17.1385   23.6493 C   0  0  0  0  0  0  0  0  0  0  0  0
  -20.8167   -4.5081   22.1212 C   0  0  0  0  0  0  0  0  0  0  0  0
  -24.5435  -10.3980   21.8685 C   0  0  0  0  0  0  0  0  0  0  0  0
  -24.2063  -12.7922   21.0551 C   0  0  0  0  0  0  0  0  0  0  0  0
  -18.6294  -29.8121   22.9749 C   0  0  0  0  0  0  0  0  0  0  0  0
  -24.7820  -26.0581   24.3655 C   0  0  0  0  0  0  0  0  0  0  0  0
  -19.7574  -29.0411   22.6350 C   0  0  0  0  0  0  0  0  0  0  0  0
  -25.9574  -26.7997   24.1793 C   0  0  0  0  0  0  0  0  0  0  0  0
  -31.4390  -16.6575   22.9003 C   0  0  0  0  0  0  0  0  0  0  0  0
  -30.0950  -18.5066   23.6823 C   0  0  0  0  0  0  0  0  0  0  0  0
  -30.8988  -19.3937   22.9662 C   0  0  0  0  0  0  0  0  0  0  0  0
  -23.6982   -7.9966   23.0093 C   0  0  0  0  0  0  0  0  0  0  0  0
  -26.8937  -24.9671   22.8850 C   0  0  0  0  0  0  0  0  0  0  0  0
  -22.0777   -6.2998   23.1394 C   0  0  0  0  0  0  0  0  0  0  0  0
  -19.6422   -5.2434   22.2820 C   0  0  0  0  0  0  0  0  0  0  0  0
  -22.0344   -5.0363   22.5499 C   0  0  0  0  0  0  0  0  0  0  0  0
  -24.9808  -11.6383   21.2798 C   0  0  0  0  0  0  0  0  0  0  0  0
  -25.0780  -13.6840   20.4796 C   0  0  0  0  0  0  0  0  0  0  0  0
  -29.8451  -21.2060   22.0733 C   0  0  0  0  0  0  0  0  0  0  0  0
  -22.8227  -13.0362   21.3413 C   0  0  0  0  0  0  0  0  0  0  0  0
  -29.5295  -22.6659   22.0344 C   0  0  0  0  0  0  0  0  0  0  0  0
  -23.1900  -28.7819   23.9778 C   0  0  0  0  0  0  0  0  0  0  0  0
  -25.0914  -29.7859   26.4066 C   0  0  0  0  0  0  0  0  0  0  0  0
  -28.0035  -29.4192   28.1478 C   0  0  0  0  0  0  0  0  0  0  0  0
  -31.0343  -14.2649   20.6702 C   0  0  0  0  0  0  0  0  0  0  0  0
  -18.7547  -31.2470   23.4222 C   0  0  0  0  0  0  0  0  0  0  0  0
  -23.6507  -26.6167   25.1843 C   0  0  0  0  0  0  0  0  0  0  0  0
  -26.1229  -28.1815   24.7551 C   0  0  0  0  0  0  0  0  0  0  0  0
  -20.1611  -31.6207   23.8831 C   0  0  0  0  0  0  0  0  0  0  0  0
  -29.0154  -13.8515   17.7668 C   0  0  0  0  0  0  0  0  0  0  0  0
  -21.2010  -31.1142   22.8886 C   0  0  0  0  0  0  0  0  0  0  0  0
  -27.6826  -13.3415   18.3176 C   0  0  0  0  0  0  0  0  0  0  0  0
  -30.2010  -13.2919   18.5500 C   0  0  0  0  0  0  0  0  0  0  0  0
  -28.8039  -12.9963   20.5586 C   0  0  0  0  0  0  0  0  0  0  0  0
  -21.1621  -29.5850   22.7806 C   0  0  1  0  0  0  0  0  0  0  0  0
  -23.6586  -28.1407   25.2533 C   0  0  1  0  0  0  0  0  0  0  0  0
  -27.5764  -13.5774   19.8362 C   0  0  2  0  0  0  0  0  0  0  0  0
  -27.6026  -18.7537   23.7982 C   0  0  0  0  0  0  0  0  0  0  0  0
  -29.2956  -30.4112   30.0567 C   0  0  0  0  0  0  0  0  0  0  0  0
  -25.9045  -32.1322   24.6337 C   0  0  0  0  0  0  0  0  0  0  0  0
  -27.8449  -32.5272   26.1657 C   0  0  0  0  0  0  0  0  0  0  0  0
  -25.5138  -32.7233   27.0321 C   0  0  0  0  0  0  0  0  0  0  0  0
  -27.9222  -26.8838   29.6724 C   0  0  0  0  0  0  0  0  0  0  0  0
  -28.9394  -18.9982   24.4913 C   0  0  0  0  0  0  0  0  0  0  0  0
  -31.7283  -15.1949   22.8640 C   0  0  0  0  0  0  0  0  0  0  0  0
  -28.0772  -23.0239   22.1928 C   0  0  0  0  0  0  0  0  0  1  0  0
  -26.4506  -30.4357   26.5017 C   0  0  1  0  0  0  0  0  0  0  0  0
  -28.2847  -29.3549   29.6382 C   0  0  2  0  0  0  0  0  0  0  0  0
  -26.4249  -31.9293   26.0707 C   0  0  0  0  0  0  0  0  0  0  0  0
  -26.2470  -11.7811   20.8794 N   0  0  0  0  0  0  0  0  0  0  0  0
  -30.6421  -20.7748   22.9882 N   0  0  0  0  0  0  0  0  0  0  0  0
  -26.2748  -13.0352   20.3973 N   0  0  0  0  0  0  0  0  0  0  0  0
  -24.9862  -28.6864   25.5429 N   0  0  0  0  0  0  0  0  0  0  0  0
  -30.0394  -13.5503   19.9829 N   0  0  0  0  0  0  0  0  0  0  0  0
  -24.9298  -14.9521   20.0408 N   0  0  0  0  0  0  0  0  0  0  0  0
  -22.0723  -12.0116   21.9340 N   0  0  0  0  0  0  0  0  0  0  0  0
  -21.8239  -28.9810   23.9170 N   0  0  0  0  0  0  0  0  0  0  0  0
  -26.9135  -30.2159   27.8677 N   0  0  0  0  0  0  0  0  0  0  0  0
  -30.7998  -14.4715   22.0241 N   0  0  0  0  0  0  0  0  0  0  0  0
  -28.8249  -28.0155   30.0061 N   0  3  0  0  0  0  0  0  0  0  0  0
  -22.2642  -14.1246   21.0641 O   0  0  0  0  0  0  0  0  0  0  0  0
  -30.4521  -23.4530   21.8937 O   0  0  0  0  0  0  0  0  0  0  0  0
  -24.0074  -29.0756   23.1134 O   0  0  0  0  0  0  0  0  0  0  0  0
  -24.1590  -30.2327   27.0795 O   0  0  0  0  0  0  0  0  0  0  0  0
  -28.6850  -28.8252   27.3152 O   0  0  0  0  0  0  0  0  0  0  0  0
  -32.0533  -14.6922   20.1171 O   0  0  0  0  0  0  0  0  0  0  0  0
  -23.2857   -6.8252   23.5663 O   0  0  0  0  0  0  0  0  0  0  0  0
  -27.9202  -24.4419   22.1622 O   0  0  0  0  0  0  0  0  0  1  0  0
  -18.4726   -4.7357   21.8717 F   0  0  0  0  0  0  0  0  0  0  0  0
  -23.1592   -4.3248   22.3938 F   0  0  0  0  0  0  0  0  0  0  0  0
  1  2  1  0  0  0  0
  1  5  2  0  0  0  0
  2  6  2  0  0  0  0
  3 10  2  0  0  0  0
  3 18  1  0  0  0  0
  4 11  1  0  0  0  0
  4 18  2  0  0  0  0
  5 20  1  0  0  0  0
  6 22  1  0  0  0  0
  7 12  2  0  0  0  0
  7 21  1  0  0  0  0
  8  9  2  0  0  0  0
  8 24  1  0  0  0  0
  9 26  1  0  0  0  0
 10 27  1  0  0  0  0
 11 27  2  0  0  0  0
 12 28  1  0  0  0  0
 13 14  2  0  0  0  0
 13 29  1  0  0  0  0
 14 30  1  0  0  0  0
 15 23  1  0  0  0  0
 15 28  2  0  0  0  0
 16 24  2  0  0  0  0
 16 25  1  0  0  0  0
 17 30  2  0  0  0  0
 17 31  1  0  0  0  0
 18 32  1  0  0  0  0
 19 32  1  0  0  0  0
 19 33  2  0  0  0  0
 19 35  1  0  0  0  0
 20 22  2  0  0  0  0
 20 41  1  0  0  0  0
 21 23  2  0  0  0  0
 21 42  1  0  0  0  0
 22 50  1  0  0  0  0
 23 43  1  0  0  0  0
 24 60  1  0  0  0  0
 25 26  2  0  0  0  0
 25 59  1  0  0  0  0
 26 66  1  0  0  0  0
 27 82  1  0  0  0  0
 28 83  1  0  0  0  0
 29 31  2  0  0  0  0
 29 82  1  0  0  0  0
 30 84  1  0  0  0  0
 31 85  1  0  0  0  0
 32 65  2  0  0  0  0
 33 67  1  0  0  0  0
 33 70  1  0  0  0  0
 34 36  1  0  0  0  0
 34 66  2  0  0  0  0
 35 71  1  0  0  0  0
 35 76  2  0  0  0  0
 36 61  1  0  0  0  0
 36 77  2  0  0  0  0
 37 51  1  0  0  0  0
 37 72  1  0  0  0  0
 37 78  2  0  0  0  0
 38 62  1  0  0  0  0
 38 68  1  0  0  0  0
 38 79  2  0  0  0  0
 39 63  1  0  0  0  0
 39 73  1  0  0  0  0
 39 80  2  0  0  0  0
 40 69  1  0  0  0  0
 40 74  1  0  0  0  0
 40 81  2  0  0  0  0
 41 44  1  0  0  0  0
 42 51  1  0  0  0  0
 43 68  1  0  0  0  0
 44 46  1  0  0  0  0
 45 47  1  0  0  0  0
 45 48  1  0  0  0  0
 46 50  1  0  0  0  0
 47 52  1  0  0  0  0
 48 69  1  0  0  0  0
 49 52  1  0  0  0  0
 49 69  1  0  0  0  0
 50 72  1  0  0  0  0
 51 68  1  0  0  0  0
 52 67  1  0  0  0  0
 53 59  1  0  0  0  0
 54 63  1  0  0  0  0
 55 64  1  0  0  0  0
 56 64  1  0  0  0  0
 57 64  1  0  0  0  0
 58 75  1  0  0  0  0
 60 74  1  0  0  0  0
 61 83  1  0  0  0  0
 62 64  1  0  0  0  0
 62 73  1  0  0  0  0
 63 75  1  0  0  0  0
 65 67  1  0  0  0  0
M  CHG  1  75   1
M  ISO  4  40 100  61 101  74 100  83 101
M  END
> <Batch ID>
0118

> <Smiles>
C=Cc1cc(C[100NH:0][100C:0](=O)N2CCCC(n3nc(-c4ccc(Oc5ccc(F)cc5F)cc4)c(C(N)=O)c3N)C2)ccc1NCC(=O)[101CH2:1][101O:1]c1ccc2c(c1)CN(C(=O)C(NC(=O)C(C)NC)C(C)(C)C)C(C(=O)NC1CCCc3ccccc31)C2

> <Shape>
0.276

> <Color>
0.149

> <Negative vol penalty>
0.000

$$$$

  -OEChem-04052301483D

 82 90  0     1  0  0  0  0  0999 V2000
  -30.8894  -32.4351   24.4771 C   0  0  0  0  0  0  0  0  0  0  0  0
  -30.5313  -31.5766   23.4426 C   0  0  0  0  0  0  0  0  0  0  0  0
  -26.6438  -12.6228   21.6300 C   0  0  0  0  0  0  0  0  0  0  0  0
  -26.2327  -13.7003   19.5070 C   0  0  0  0  0  0  0  0  0  0  0  0
  -29.2810  -23.5874   18.8897 C   0  0  0  0  0  0  0  0  0  0  0  0
  -30.4905  -32.1552   25.7834 C   0  0  0  0  0  0  0  0  0  0  0  0
  -29.7748  -30.4371   23.7140 C   0  0  0  0  0  0  0  0  0  0  0  0
  -26.0087  -29.7694   20.3951 C   0  0  0  0  0  0  0  0  0  0  0  0
  -29.7327  -22.5046   19.6441 C   0  0  0  0  0  0  0  0  0  0  0  0
  -25.3455  -12.1130   21.6227 C   0  0  0  0  0  0  0  0  0  0  0  0
  -24.9343  -13.1904   19.4997 C   0  0  0  0  0  0  0  0  0  0  0  0
  -26.3441  -29.2411   19.1492 C   0  0  0  0  0  0  0  0  0  0  0  0
  -23.6760   -9.5705   20.1458 C   0  0  0  0  0  0  0  0  0  0  0  0
  -23.5039   -8.2300   20.4909 C   0  0  0  0  0  0  0  0  0  0  0  0
  -25.5938  -27.0667   19.8759 C   0  0  0  0  0  0  0  0  0  0  0  0
  -29.3100  -21.0285   17.7788 C   0  0  0  0  0  0  0  0  0  0  0  0
  -22.0853   -8.8864   22.3332 C   0  0  0  0  0  0  0  0  0  0  0  0
  -27.0874  -13.4165   20.5722 C   0  0  0  0  0  0  0  0  0  0  0  0
  -28.8437  -23.3908   17.5798 C   0  0  0  0  0  0  0  0  0  0  0  0
  -29.5828  -13.3383   20.0482 C   0  0  0  0  0  0  0  0  0  0  0  0
  -29.7206  -31.0168   26.0696 C   0  0  0  0  0  0  0  0  0  0  0  0
  -25.4725  -28.9466   21.3961 C   0  0  0  0  0  0  0  0  0  0  0  0
  -29.3663  -30.1410   25.0256 C   0  0  0  0  0  0  0  0  0  0  0  0
  -25.2500  -27.5875   21.1328 C   0  0  0  0  0  0  0  0  0  0  0  0
  -29.7472  -21.2252   19.0887 C   0  0  0  0  0  0  0  0  0  0  0  0
  -24.4908  -12.3968   20.5576 C   0  0  0  0  0  0  0  0  0  0  0  0
  -26.1394  -27.8890   18.8904 C   0  0  0  0  0  0  0  0  0  0  0  0
  -23.0527  -10.5690   20.8944 C   0  0  0  0  0  0  0  0  0  0  0  0
  -22.7086   -7.8880   21.5846 C   0  0  0  0  0  0  0  0  0  0  0  0
  -28.8582  -22.1114   17.0243 C   0  0  0  0  0  0  0  0  0  0  0  0
  -22.2574  -10.2269   21.9881 C   0  0  0  0  0  0  0  0  0  0  0  0
  -28.4283  -13.9438   20.5794 C   0  0  0  0  0  0  0  0  0  0  0  0
  -30.5907  -14.2347   20.3070 C   0  0  0  0  0  0  0  0  0  0  0  0
  -28.3673  -24.5367   16.7875 C   0  0  0  0  0  0  0  0  0  0  0  0
  -28.7798  -25.8051   16.9375 C   0  0  0  0  0  0  0  0  0  0  0  0
  -29.7309  -12.0781   19.3805 C   0  0  0  0  0  0  0  0  0  0  0  0
  -26.3917  -28.0692   24.3097 C   0  0  0  0  0  0  0  0  0  0  0  0
  -23.4645  -26.6737   24.3894 C   0  0  0  0  0  0  0  0  0  0  0  0
  -20.8330  -25.3602   22.6583 C   0  0  0  0  0  0  0  0  0  0  0  0
  -30.6739  -20.1471   21.1684 C   0  0  0  0  0  0  0  0  0  0  0  0
  -29.3530  -30.7309   27.5041 C   0  0  0  0  0  0  0  0  0  0  0  0
  -25.0910  -29.5373   22.7257 C   0  0  0  0  0  0  0  0  0  0  0  0
  -24.6583  -26.6659   22.1667 C   0  0  0  0  0  0  0  0  0  0  0  0
  -28.2354  -29.7017   27.6529 C   0  0  0  0  0  0  0  0  0  0  0  0
  -31.8572  -17.6511   23.4149 C   0  0  0  0  0  0  0  0  0  0  0  0
  -28.4955  -28.4974   26.7536 C   0  0  0  0  0  0  0  0  0  0  0  0
  -31.2222  -16.3611   22.8907 C   0  0  0  0  0  0  0  0  0  0  0  0
  -30.9159  -18.8456   23.2714 C   0  0  0  0  0  0  0  0  0  0  0  0
  -29.7402  -17.7615   21.3975 C   0  0  0  0  0  0  0  0  0  0  0  0
  -28.5253  -28.9081   25.2765 C   0  0  1  0  0  0  0  0  0  0  0  0
  -25.0301  -28.5016   23.8443 C   0  0  1  0  0  0  0  0  0  0  0  0
  -30.6751  -16.5426   21.4613 C   0  0  2  0  0  0  0  0  0  0  0  0
  -18.6023  -24.2624   22.9989 C   0  0  0  0  0  0  0  0  0  0  0  0
  -24.8641  -24.0711   25.1492 C   0  0  0  0  0  0  0  0  0  0  0  0
  -22.7639  -22.8477   24.5485 C   0  0  0  0  0  0  0  0  0  0  0  0
  -22.7453  -24.5197   26.3997 C   0  0  0  0  0  0  0  0  0  0  0  0
  -19.4165  -27.5312   21.2304 C   0  0  0  0  0  0  0  0  0  0  0  0
  -28.2565  -26.9495   16.1134 C   0  0  0  0  0  0  0  0  0  0  0  0
  -27.5473  -27.9866   16.9762 C   0  0  0  0  0  0  0  0  0  1  0  0
  -22.9144  -25.3207   24.0076 C   0  0  1  0  0  0  0  0  0  0  0  0
  -19.3358  -25.5771   22.7839 C   0  0  2  0  0  0  0  0  0  0  0  0
  -23.3349  -24.2065   25.0072 C   0  0  0  0  0  0  0  0  0  0  0  0
  -28.6784  -15.1330   21.1339 N   0  0  0  0  0  0  0  0  0  0  0  0
  -30.0017  -15.2818   20.9526 N   0  0  0  0  0  0  0  0  0  0  0  0
  -24.3075  -27.2895   23.4534 N   0  0  0  0  0  0  0  0  0  0  0  0
  -30.4411  -18.9575   21.8905 N   0  0  0  0  0  0  0  0  0  0  0  0
  -31.9146  -14.2215   20.0431 N   0  0  0  0  0  0  0  0  0  0  0  0
  -28.5926  -11.2812   19.1974 N   0  0  0  0  0  0  0  0  0  0  0  0
  -30.2061  -20.1252   19.8549 N   0  0  0  0  0  0  0  0  0  0  0  0
  -27.1804  -29.1024   24.7787 N   0  0  0  0  0  0  0  0  0  0  0  0
  -21.4715  -25.4897   23.8735 N   0  0  0  0  0  0  0  0  0  0  0  0
  -18.7999  -26.2179   21.5498 N   0  3  0  0  0  0  0  0  0  0  0  0
  -30.8426  -11.6635   18.9734 O   0  0  0  0  0  0  0  0  0  0  0  0
  -26.7032  -26.8856   24.2492 O   0  0  0  0  0  0  0  0  0  0  0  0
  -23.1519  -27.1693   25.4749 O   0  0  0  0  0  0  0  0  0  0  0  0
  -21.3808  -25.0981   21.5898 O   0  0  0  0  0  0  0  0  0  0  0  0
  -31.2703  -21.1040   21.6691 O   0  0  0  0  0  0  0  0  0  0  0  0
  -23.2239  -11.8993   20.5500 O   0  0  0  0  0  0  0  0  0  0  0  0
  -26.4665  -27.3706   17.6755 O   0  0  0  0  0  0  0  0  0  1  0  0
  -22.5423   -6.6006   21.9150 F   0  0  0  0  0  0  0  0  0  0  0  0
  -28.4405  -21.9063   15.7666 F   0  0  0  0  0  0  0  0  0  0  0  0
  -21.6552  -11.1816   22.7103 F   0  0  0  0  0  0  0  0  0  0  0  0
  1  2  1  0  0  0  0
  1  6  2  0  0  0  0
  2  7  2  0  0  0  0
  3 10  2  0  0  0  0
  3 18  1  0  0  0  0
  4 11  1  0  0  0  0
  4 18  2  0  0  0  0
  5  9  2  0  0  0  0
  5 19  1  0  0  0  0
  6 21  1  0  0  0  0
  7 23  1  0  0  0  0
  8 12  2  0  0  0  0
  8 22  1  0  0  0  0
  9 25  1  0  0  0  0
 10 26  1  0  0  0  0
 11 26  2  0  0  0  0
 12 27  1  0  0  0  0
 13 14  2  0  0  0  0
 13 28  1  0  0  0  0
 14 29  1  0  0  0  0
 15 24  1  0  0  0  0
 15 27  2  0  0  0  0
 16 25  2  0  0  0  0
 16 30  1  0  0  0  0
 17 29  2  0  0  0  0
 17 31  1  0  0  0  0
 18 32  1  0  0  0  0
 19 30  2  0  0  0  0
 19 34  1  0  0  0  0
 20 32  1  0  0  0  0
 20 33  2  0  0  0  0
 20 36  1  0  0  0  0
 21 23  2  0  0  0  0
 21 41  1  0  0  0  0
 22 24  2  0  0  0  0
 22 42  1  0  0  0  0
 23 50  1  0  0  0  0
 24 43  1  0  0  0  0
 25 69  1  0  0  0  0
 26 78  1  0  0  0  0
 27 79  1  0  0  0  0
 28 31  2  0  0  0  0
 28 78  1  0  0  0  0
 29 80  1  0  0  0  0
 30 81  1  0  0  0  0
 31 82  1  0  0  0  0
 32 63  2  0  0  0  0
 33 64  1  0  0  0  0
 33 67  1  0  0  0  0
 34 35  2  0  0  0  0
 35 58  1  0  0  0  0
 36 68  1  0  0  0  0
 36 73  2  0  0  0  0
 37 51  1  0  0  0  0
 37 70  1  0  0  0  0
 37 74  2  0  0  0  0
 38 60  1  0  0  0  0
 38 65  1  0  0  0  0
 38 75  2  0  0  0  0
 39 61  1  0  0  0  0
 39 71  1  0  0  0  0
 39 76  2  0  0  0  0
 40 66  1  0  0  0  0
 40 69  1  0  0  0  0
 40 77  2  0  0  0  0
 41 44  1  0  0  0  0
 42 51  1  0  0  0  0
 43 65  1  0  0  0  0
 44 46  1  0  0  0  0
 45 47  1  0  0  0  0
 45 48  1  0  0  0  0
 46 50  1  0  0  0  0
 47 52  1  0  0  0  0
 48 66  1  0  0  0  0
 49 52  1  0  0  0  0
 49 66  1  0  0  0  0
 50 70  1  0  0  0  0
 51 65  1  0  0  0  0
 52 64  1  0  0  0  0
 53 61  1  0  0  0  0
 54 62  1  0  0  0  0
 55 62  1  0  0  0  0
 56 62  1  0  0  0  0
 57 72  1  0  0  0  0
 58 59  1  0  0  0  0
 59 79  1  0  0  0  0
 60 62  1  0  0  0  0
 60 71  1  0  0  0  0
 61 72  1  0  0  0  0
 63 64  1  0  0  0  0
M  CHG  1  72   1
M  ISO  4  40 100  59 101  69 100  79 101
M  END
> <Batch ID>
0118

> <Smiles>
CNC(C)C(=O)NC(C(=O)N1Cc2cc([101O:1][101CH2:1]CC=Cc3ccc([100NH:0][100C:0](=O)N4CCCC(n5nc(-c6ccc(Oc7ccc(F)cc7F)cc6)c(C(N)=O)c5N)C4)cc3F)ccc2CC1C(=O)NC1CCCc2ccccc21)C(C)(C)C

> <Shape>
0.242

> <Color>
0.066

> <Negative vol penalty>
0.000

$$$$

  -OEChem-04052301483D

 86 94  0     1  0  0  0  0  0999 V2000
  -16.7709  -30.2372   23.8037 C   0  0  0  0  0  0  0  0  0  0  0  0
  -17.9323  -30.8360   24.2813 C   0  0  0  0  0  0  0  0  0  0  0  0
  -24.2428  -14.4564   20.7764 C   0  0  0  0  0  0  0  0  0  0  0  0
  -26.3530  -14.4679   21.9527 C   0  0  0  0  0  0  0  0  0  0  0  0
  -16.8449  -29.0299   23.1103 C   0  0  0  0  0  0  0  0  0  0  0  0
  -19.1683  -30.2272   24.0667 C   0  0  0  0  0  0  0  0  0  0  0  0
  -26.0577  -31.8275   22.9301 C   0  0  0  0  0  0  0  0  0  0  0  0
  -24.4212  -13.1075   20.4694 C   0  0  0  0  0  0  0  0  0  0  0  0
  -26.5314  -13.1190   21.6458 C   0  0  0  0  0  0  0  0  0  0  0  0
  -27.3277  -31.5316   23.4233 C   0  0  0  0  0  0  0  0  0  0  0  0
  -24.0778  -10.1302   22.0347 C   0  0  0  0  0  0  0  0  0  0  0  0
  -22.9882   -9.2765   22.2071 C   0  0  0  0  0  0  0  0  0  0  0  0
  -30.1152  -25.2922   22.8862 C   0  0  0  0  0  0  0  0  0  0  0  0
  -27.3417  -29.4868   22.1436 C   0  0  0  0  0  0  0  0  0  0  0  0
  -30.2062  -22.5501   23.3913 C   0  0  0  0  0  0  0  0  0  0  0  0
  -23.0584   -8.7127   19.8588 C   0  0  0  0  0  0  0  0  0  0  0  0
  -25.2087  -15.1367   21.5180 C   0  0  0  0  0  0  0  0  0  0  0  0
  -30.0235  -24.8209   24.1958 C   0  0  0  0  0  0  0  0  0  0  0  0
  -24.3896  -17.0673   22.9703 C   0  0  0  0  0  0  0  0  0  0  0  0
  -18.0834  -28.4108   22.8788 C   0  0  0  0  0  0  0  0  0  0  0  0
  -25.4145  -30.9484   22.0469 C   0  0  0  0  0  0  0  0  0  0  0  0
  -19.2588  -29.0097   23.3708 C   0  0  0  0  0  0  0  0  0  0  0  0
  -26.0646  -29.7751   21.6386 C   0  0  0  0  0  0  0  0  0  0  0  0
  -30.2979  -23.0215   22.0817 C   0  0  0  0  0  0  0  0  0  0  0  0
  -25.5655  -12.4388   20.9042 C   0  0  0  0  0  0  0  0  0  0  0  0
  -27.9687  -30.3597   23.0324 C   0  0  0  0  0  0  0  0  0  0  0  0
  -24.6576  -10.2752   20.7744 C   0  0  0  0  0  0  0  0  0  0  0  0
  -30.0690  -23.4499   24.4484 C   0  0  0  0  0  0  0  0  0  0  0  0
  -22.4786   -8.5678   21.1192 C   0  0  0  0  0  0  0  0  0  0  0  0
  -30.2523  -24.3925   21.8291 C   0  0  0  0  0  0  0  0  0  0  0  0
  -24.1480   -9.5664   19.6865 C   0  0  0  0  0  0  0  0  0  0  0  0
  -25.0253  -16.5302   21.8348 C   0  0  0  0  0  0  0  0  0  0  0  0
  -24.4772  -18.4276   22.8016 C   0  0  0  0  0  0  0  0  0  0  0  0
  -30.4948  -27.1396   25.1057 C   0  0  0  0  0  0  0  0  0  0  0  0
  -29.9557  -28.2351   25.6574 C   0  0  0  0  0  0  0  0  0  0  0  0
  -29.8752  -25.7993   25.3090 C   0  0  0  0  0  0  0  0  0  0  0  0
  -23.7750  -16.3966   24.0785 C   0  0  0  0  0  0  0  0  0  0  0  0
  -22.7330  -29.2439   22.1347 C   0  0  0  0  0  0  0  0  0  0  0  0
  -23.5070  -28.5917   19.0528 C   0  0  0  0  0  0  0  0  0  0  0  0
  -25.9306  -28.3577   16.6616 C   0  0  0  0  0  0  0  0  0  0  0  0
  -28.2707  -21.9234   19.7621 C   0  0  0  0  0  0  0  0  0  0  0  0
  -18.1087  -27.0822   22.1654 C   0  0  0  0  0  0  0  0  0  0  0  0
  -24.0557  -31.2951   21.5030 C   0  0  0  0  0  0  0  0  0  0  0  0
  -25.4257  -28.8081   20.6767 C   0  0  0  0  0  0  0  0  0  0  0  0
  -19.4931  -26.6916   21.6543 C   0  0  0  0  0  0  0  0  0  0  0  0
  -24.7336  -21.7684   19.3863 C   0  0  0  0  0  0  0  0  0  0  0  0
  -20.5442  -26.9140   22.7372 C   0  0  0  0  0  0  0  0  0  0  0  0
  -24.3499  -20.4568   20.0737 C   0  0  0  0  0  0  0  0  0  0  0  0
  -26.0703  -21.6533   18.6569 C   0  0  0  0  0  0  0  0  0  0  0  0
  -26.8048  -19.8551   20.1737 C   0  0  0  0  0  0  0  0  0  0  0  0
  -20.6205  -28.3926   23.1365 C   0  0  1  0  0  0  0  0  0  0  0  0
  -23.2806  -30.0769   21.0105 C   0  0  1  0  0  0  0  0  0  0  0  0
  -25.4910  -19.9384   20.9695 C   0  0  2  0  0  0  0  0  0  0  0  0
  -26.2639  -27.7647   14.2460 C   0  0  0  0  0  0  0  0  0  0  0  0
  -23.2545  -25.6312   19.7472 C   0  0  0  0  0  0  0  0  0  0  0  0
  -24.4941  -25.1022   17.6372 C   0  0  0  0  0  0  0  0  0  0  0  0
  -22.2915  -26.2682   17.5288 C   0  0  0  0  0  0  0  0  0  0  0  0
  -26.9359  -31.0652   16.0156 C   0  0  0  0  0  0  0  0  0  0  0  0
  -30.4439  -22.0574   20.9531 C   0  0  0  0  0  0  0  0  0  0  0  0
  -30.5273  -29.6146   25.4815 C   0  0  0  0  0  0  0  0  0  0  0  0
  -29.5315  -30.5559   24.8143 C   0  0  0  0  0  0  0  0  0  1  0  0
  -24.3212  -27.5276   18.3572 C   0  0  1  0  0  0  0  0  0  0  0  0
  -25.9968  -28.8848   15.2395 C   0  0  2  0  0  0  0  0  0  0  0  0
  -23.6018  -26.1494   18.3373 C   0  0  0  0  0  0  0  0  0  0  0  0
  -25.4827  -17.4725   21.0060 N   0  0  0  0  0  0  0  0  0  0  0  0
  -29.2780  -25.4401   26.4006 N   0  0  0  0  0  0  0  0  0  0  0  0
  -25.1341  -18.6153   21.6212 N   0  0  0  0  0  0  0  0  0  0  0  0
  -24.0938  -29.1884   20.1777 N   0  0  0  0  0  0  0  0  0  0  0  0
  -27.1099  -21.1582   19.5624 N   0  0  0  0  0  0  0  0  0  0  0  0
  -24.0555  -19.4695   23.5493 N   0  0  0  0  0  0  0  0  0  0  0  0
  -23.7733  -14.9951   24.0937 N   0  0  0  0  0  0  0  0  0  0  0  0
  -21.3545  -29.1471   22.1434 N   0  0  0  0  0  0  0  0  0  0  0  0
  -24.6380  -28.0555   17.0346 N   0  0  0  0  0  0  0  0  0  0  0  0
  -29.2027  -21.3847   20.6407 N   0  0  0  0  0  0  0  0  0  0  0  0
  -27.0844  -29.8955   15.1118 N   0  3  0  0  0  0  0  0  0  0  0  0
  -23.2286  -17.0214   25.0190 O   0  0  0  0  0  0  0  0  0  0  0  0
  -23.5040  -28.7261   22.9341 O   0  0  0  0  0  0  0  0  0  0  0  0
  -22.3943  -28.8876   18.6101 O   0  0  0  0  0  0  0  0  0  0  0  0
  -26.9264  -28.2236   17.3693 O   0  0  0  0  0  0  0  0  0  0  0  0
  -28.4601  -23.0091   19.2031 O   0  0  0  0  0  0  0  0  0  0  0  0
  -29.9818  -22.9697   25.7209 O   0  0  0  0  0  0  0  0  0  0  0  0
  -25.7398  -11.1225   20.6050 O   0  0  0  0  0  0  0  0  0  0  0  0
  -29.2081  -30.0682   23.5128 O   0  0  0  0  0  0  0  0  0  1  0  0
  -21.4332   -7.7469   21.2852 F   0  0  0  0  0  0  0  0  0  0  0  0
  -30.3410  -24.8550   20.5741 F   0  0  0  0  0  0  0  0  0  0  0  0
  -24.7016   -9.7007   18.4735 F   0  0  0  0  0  0  0  0  0  0  0  0
  1  2  1  0  0  0  0
  1  5  2  0  0  0  0
  2  6  2  0  0  0  0
  3  8  2  0  0  0  0
  3 17  1  0  0  0  0
  4  9  1  0  0  0  0
  4 17  2  0  0  0  0
  5 20  1  0  0  0  0
  6 22  1  0  0  0  0
  7 10  2  0  0  0  0
  7 21  1  0  0  0  0
  8 25  1  0  0  0  0
  9 25  2  0  0  0  0
 10 26  1  0  0  0  0
 11 12  2  0  0  0  0
 11 27  1  0  0  0  0
 12 29  1  0  0  0  0
 13 18  1  0  0  0  0
 13 30  2  0  0  0  0
 14 23  1  0  0  0  0
 14 26  2  0  0  0  0
 15 24  2  0  0  0  0
 15 28  1  0  0  0  0
 16 29  2  0  0  0  0
 16 31  1  0  0  0  0
 17 32  1  0  0  0  0
 18 28  2  0  0  0  0
 18 36  1  0  0  0  0
 19 32  1  0  0  0  0
 19 33  2  0  0  0  0
 19 37  1  0  0  0  0
 20 22  2  0  0  0  0
 20 42  1  0  0  0  0
 21 23  2  0  0  0  0
 21 43  1  0  0  0  0
 22 51  1  0  0  0  0
 23 44  1  0  0  0  0
 24 30  1  0  0  0  0
 24 59  1  0  0  0  0
 25 82  1  0  0  0  0
 26 83  1  0  0  0  0
 27 31  2  0  0  0  0
 27 82  1  0  0  0  0
 28 81  1  0  0  0  0
 29 84  1  0  0  0  0
 30 85  1  0  0  0  0
 31 86  1  0  0  0  0
 32 65  2  0  0  0  0
 33 67  1  0  0  0  0
 33 70  1  0  0  0  0
 34 35  2  0  0  0  0
 34 36  1  0  0  0  0
 35 60  1  0  0  0  0
 36 66  2  0  0  0  0
 37 71  1  0  0  0  0
 37 76  2  0  0  0  0
 38 52  1  0  0  0  0
 38 72  1  0  0  0  0
 38 77  2  0  0  0  0
 39 62  1  0  0  0  0
 39 68  1  0  0  0  0
 39 78  2  0  0  0  0
 40 63  1  0  0  0  0
 40 73  1  0  0  0  0
 40 79  2  0  0  0  0
 41 69  1  0  0  0  0
 41 74  1  0  0  0  0
 41 80  2  0  0  0  0
 42 45  1  0  0  0  0
 43 52  1  0  0  0  0
 44 68  1  0  0  0  0
 45 47  1  0  0  0  0
 46 48  1  0  0  0  0
 46 49  1  0  0  0  0
 47 51  1  0  0  0  0
 48 53  1  0  0  0  0
 49 69  1  0  0  0  0
 50 53  1  0  0  0  0
 50 69  1  0  0  0  0
 51 72  1  0  0  0  0
 52 68  1  0  0  0  0
 53 67  1  0  0  0  0
 54 63  1  0  0  0  0
 55 64  1  0  0  0  0
 56 64  1  0  0  0  0
 57 64  1  0  0  0  0
 58 75  1  0  0  0  0
 59 74  1  0  0  0  0
 60 61  1  0  0  0  0
 61 83  1  0  0  0  0
 62 64  1  0  0  0  0
 62 73  1  0  0  0  0
 63 75  1  0  0  0  0
 65 67  1  0  0  0  0
M  CHG  1  75   1
M  ISO  4  41 100  61 101  74 100  83 101
M  END
> <Batch ID>
0118

> <Smiles>
CNC(C)C(=O)NC(C(=O)N1Cc2cc([101O:1][101CH2:1]CC=CC(=N)c3cc(F)c(C[100NH:0][100C:0](=O)N4CCCC(n5nc(-c6ccc(Oc7ccc(F)cc7F)cc6)c(C(N)=O)c5N)C4)cc3O)ccc2CC1C(=O)NC1CCCc2ccccc21)C(C)(C)C

> <Shape>
0.247

> <Color>
0.137

> <Negative vol penalty>
0.000

$$$$

  -OEChem-04052301483D

 88 97  0     1  0  0  0  0  0999 V2000
  -28.6016  -11.2753   20.8320 C   0  0  0  0  0  0  0  0  0  0  0  0
  -28.8651  -12.3822   20.0315 C   0  0  0  0  0  0  0  0  0  0  0  0
  -19.6108  -28.3662   23.8135 C   0  0  0  0  0  0  0  0  0  0  0  0
  -20.3753  -27.7873   21.5960 C   0  0  0  0  0  0  0  0  0  0  0  0
  -27.3088  -11.0482   21.3019 C   0  0  0  0  0  0  0  0  0  0  0  0
  -27.8355  -13.2621   19.6996 C   0  0  0  0  0  0  0  0  0  0  0  0
  -29.2007  -18.1159   20.1704 C   0  0  0  0  0  0  0  0  0  0  0  0
  -18.3988  -27.7225   23.5637 C   0  0  0  0  0  0  0  0  0  0  0  0
  -19.1634  -27.1435   21.3462 C   0  0  0  0  0  0  0  0  0  0  0  0
  -29.9832  -18.6589   19.1522 C   0  0  0  0  0  0  0  0  0  0  0  0
  -17.7130  -24.1866   22.1036 C   0  0  0  0  0  0  0  0  0  0  0  0
  -17.7605  -22.9320   21.4961 C   0  0  0  0  0  0  0  0  0  0  0  0
  -28.0199  -19.6878   18.2003 C   0  0  0  0  0  0  0  0  0  0  0  0
  -30.7741  -27.9839   20.0284 C   0  0  0  0  0  0  0  0  0  0  0  0
  -30.0577  -25.7172   19.5967 C   0  0  0  0  0  0  0  0  0  0  0  0
  -16.4588  -23.7788   19.6453 C   0  0  0  0  0  0  0  0  0  0  0  0
  -20.5990  -28.3986   22.8296 C   0  0  0  0  0  0  0  0  0  0  0  0
  -22.0420  -30.4209   23.4091 C   0  0  0  0  0  0  0  0  0  0  0  0
  -26.2648  -11.9310   20.9836 C   0  0  0  0  0  0  0  0  0  0  0  0
  -27.8179  -18.3462   20.2051 C   0  0  0  0  0  0  0  0  0  0  0  0
  -26.5272  -13.0459   20.1646 C   0  0  0  0  0  0  0  0  0  0  0  0
  -27.2225  -19.1488   19.2214 C   0  0  0  0  0  0  0  0  0  0  0  0
  -31.5903  -27.9411   18.8981 C   0  0  0  0  0  0  0  0  0  0  0  0
  -31.6403  -26.7865   18.1171 C   0  0  0  0  0  0  0  0  0  0  0  0
  -30.8739  -25.6745   18.4664 C   0  0  0  0  0  0  0  0  0  0  0  0
  -18.1751  -27.1111   22.3301 C   0  0  0  0  0  0  0  0  0  0  0  0
  -29.3924  -19.4426   18.1654 C   0  0  0  0  0  0  0  0  0  0  0  0
  -17.0383  -25.2374   21.4820 C   0  0  0  0  0  0  0  0  0  0  0  0
  -30.0078  -26.8719   20.3777 C   0  0  0  0  0  0  0  0  0  0  0  0
  -17.1335  -22.7280   20.2669 C   0  0  0  0  0  0  0  0  0  0  0  0
  -16.4113  -25.0335   20.2528 C   0  0  0  0  0  0  0  0  0  0  0  0
  -21.8510  -29.0639   23.0868 C   0  0  0  0  0  0  0  0  0  0  0  0
  -23.4015  -30.5510   23.5551 C   0  0  0  0  0  0  0  0  0  0  0  0
  -31.8786  -22.2888   17.3300 C   0  0  0  0  0  0  0  0  0  0  0  0
  -33.0959  -21.7442   17.5002 C   0  0  0  0  0  0  0  0  0  0  0  0
  -21.0769  -31.4700   23.5629 C   0  0  0  0  0  0  0  0  0  0  0  0
  -25.2323  -16.5044   20.0428 C   0  0  0  0  0  0  0  0  0  0  0  0
  -23.6885  -19.2858   20.6775 C   0  0  0  0  0  0  0  0  0  0  0  0
  -23.9402  -22.7328   19.6422 C   0  0  0  0  0  0  0  0  0  0  0  0
  -27.8915  -27.3721   21.2607 C   0  0  0  0  0  0  0  0  0  0  0  0
  -24.8740  -11.6181   21.4759 C   0  0  0  0  0  0  0  0  0  0  0  0
  -26.9919  -17.7754   21.3251 C   0  0  0  0  0  0  0  0  0  0  0  0
  -25.7454  -19.4428   19.2249 C   0  0  0  0  0  0  0  0  0  0  0  0
  -31.3526  -23.2717   18.3576 C   0  0  0  0  0  0  0  0  0  0  0  0
  -23.9157  -12.8031   21.3876 C   0  0  0  0  0  0  0  0  0  0  0  0
  -27.3014  -28.0813   24.7798 C   0  0  0  0  0  0  0  0  0  0  0  0
  -24.0299  -13.4818   20.0263 C   0  0  0  0  0  0  0  0  0  0  0  0
  -25.8321  -28.5023   24.7696 C   0  0  0  0  0  0  0  0  0  0  0  0
  -30.5306  -23.3731   15.5434 C   0  0  0  0  0  0  0  0  0  0  0  0
  -27.5824  -26.9975   23.7428 C   0  0  0  0  0  0  0  0  0  0  0  0
  -29.9781  -24.3612   16.5731 C   0  0  0  0  0  0  0  0  0  0  0  0
  -25.6965  -27.7954   22.3419 C   0  0  0  0  0  0  0  0  0  0  0  0
  -25.4419  -14.0367   19.8033 C   0  0  1  0  0  0  0  0  0  0  0  0
  -25.5128  -17.6505   20.9731 C   0  0  1  0  0  0  0  0  0  0  0  0
  -25.3844  -28.9095   23.3547 C   0  0  1  0  0  0  0  0  0  0  0  0
  -30.9551  -22.0100   16.1396 C   0  0  1  0  0  0  0  0  0  0  0  0
  -32.4012  -29.1454   18.5468 C   0  0  0  0  0  0  0  0  0  0  0  0
  -32.5175  -26.7446   16.9054 C   0  0  0  0  0  0  0  0  0  0  0  0
  -31.6155  -21.1945   15.0045 C   0  0  0  0  0  0  0  0  0  0  0  0
  -23.2850  -24.8447   20.8289 C   0  0  0  0  0  0  0  0  0  0  0  0
  -21.0661  -18.9897   19.1459 C   0  0  0  0  0  0  0  0  0  0  0  0
  -21.0384  -21.4758   18.8512 C   0  0  0  0  0  0  0  0  0  0  0  0
  -20.9448  -20.4920   21.1416 C   0  0  0  0  0  0  0  0  0  0  0  0
  -26.6573  -23.8716   19.3604 C   0  0  0  0  0  0  0  0  0  0  0  0
  -29.7208  -21.2131   16.6119 C   0  0  0  0  0  0  0  0  0  1  0  0
  -23.1116  -20.4030   19.8420 C   0  0  1  0  0  0  0  0  0  0  0  0
  -24.4256  -23.9007   20.4818 C   0  0  2  0  0  0  0  0  0  0  0  0
  -21.5624  -20.3248   19.7362 C   0  0  0  0  0  0  0  0  0  0  0  0
  -22.9974  -28.3808   23.0310 N   0  0  0  0  0  0  0  0  0  0  0  0
  -23.9219  -29.3124   23.3202 N   0  0  0  0  0  0  0  0  0  0  0  0
  -30.9102  -24.5057   17.6946 N   0  0  1  0  0  0  0  0  0  0  0  0
  -24.9793  -18.8569   20.3373 N   0  0  0  0  0  0  0  0  0  0  0  0
  -27.1044  -27.4008   22.4166 N   0  0  0  0  0  0  0  0  0  0  0  0
  -24.1906  -31.6030   23.8601 N   0  0  0  0  0  0  0  0  0  0  0  0
  -20.7298  -32.2288   22.4368 N   0  0  0  0  0  0  0  0  0  0  0  0
  -25.6206  -15.2727   20.5345 N   0  0  0  0  0  0  0  0  0  0  0  0
  -23.6088  -21.6456   20.4228 N   0  0  0  0  0  0  0  0  0  0  0  0
  -25.4660  -24.6718   19.7442 N   0  3  0  0  0  0  0  0  0  0  0  0
  -20.5504  -31.7375   24.6696 O   0  0  0  0  0  0  0  0  0  0  0  0
  -24.7016  -16.7212   18.9598 O   0  0  0  0  0  0  0  0  0  0  0  0
  -23.0213  -18.8159   21.6025 O   0  0  0  0  0  0  0  0  0  0  0  0
  -23.8592  -22.7816   18.4168 O   0  0  0  0  0  0  0  0  0  0  0  0
  -27.4958  -27.7093   20.1454 O   0  0  0  0  0  0  0  0  0  0  0  0
  -16.9927  -26.4827   22.0860 O   0  0  0  0  0  0  0  0  0  0  0  0
  -29.1886  -26.9151   21.5105 O   0  0  0  0  0  0  0  0  0  0  0  0
  -30.1538  -19.9732   17.1701 O   0  0  0  0  0  0  0  0  0  1  0  0
  -17.1805  -21.5235   19.6829 F   0  0  0  0  0  0  0  0  0  0  0  0
  -15.7626  -26.0395   19.6502 F   0  0  0  0  0  0  0  0  0  0  0  0
  1  2  1  0  0  0  0
  1  5  2  0  0  0  0
  2  6  2  0  0  0  0
  3  8  2  0  0  0  0
  3 17  1  0  0  0  0
  4  9  1  0  0  0  0
  4 17  2  0  0  0  0
  5 19  1  0  0  0  0
  6 21  1  0  0  0  0
  7 10  2  0  0  0  0
  7 20  1  0  0  0  0
  8 26  1  0  0  0  0
  9 26  2  0  0  0  0
 10 27  1  0  0  0  0
 11 12  2  0  0  0  0
 11 28  1  0  0  0  0
 12 30  1  0  0  0  0
 13 22  1  0  0  0  0
 13 27  2  0  0  0  0
 14 23  2  0  0  0  0
 14 29  1  0  0  0  0
 15 25  1  0  0  0  0
 15 29  2  0  0  0  0
 16 30  2  0  0  0  0
 16 31  1  0  0  0  0
 17 32  1  0  0  0  0
 18 32  1  0  0  0  0
 18 33  2  0  0  0  0
 18 36  1  0  0  0  0
 19 21  2  0  0  0  0
 19 41  1  0  0  0  0
 20 22  2  0  0  0  0
 20 42  1  0  0  0  0
 21 53  1  0  0  0  0
 22 43  1  0  0  0  0
 23 24  1  0  0  0  0
 23 57  1  0  0  0  0
 24 25  2  0  0  0  0
 24 58  1  0  0  0  0
 25 71  1  0  0  0  0
 26 84  1  0  0  0  0
 27 86  1  0  0  0  0
 28 31  2  0  0  0  0
 28 84  1  0  0  0  0
 29 85  1  0  0  0  0
 30 87  1  0  0  0  0
 31 88  1  0  0  0  0
 32 69  2  0  0  0  0
 33 70  1  0  0  0  0
 33 74  1  0  0  0  0
 34 35  2  0  0  0  0
 34 44  1  0  0  0  0
 34 56  1  0  0  0  0
 36 75  1  0  0  0  0
 36 79  2  0  0  0  0
 37 54  1  0  0  0  0
 37 76  1  0  0  0  0
 37 80  2  0  0  0  0
 38 66  1  0  0  0  0
 38 72  1  0  0  0  0
 38 81  2  0  0  0  0
 39 67  1  0  0  0  0
 39 77  1  0  0  0  0
 39 82  2  0  0  0  0
 40 73  1  0  0  0  0
 40 83  2  0  0  0  0
 40 85  1  0  0  0  0
 41 45  1  0  0  0  0
 42 54  1  0  0  0  0
 43 72  1  0  0  0  0
 44 71  1  0  0  0  0
 45 47  1  0  0  0  0
 46 48  1  0  0  0  0
 46 50  1  0  0  0  0
 47 53  1  0  0  0  0
 48 55  1  0  0  0  0
 49 51  1  0  0  0  0
 49 56  1  0  0  0  0
 50 73  1  0  0  0  0
 51 71  1  0  0  0  0
 52 55  1  0  0  0  0
 52 73  1  0  0  0  0
 53 76  1  0  0  0  0
 54 72  1  0  0  0  0
 55 70  1  0  0  0  0
 56 59  1  0  0  0  0
 56 65  1  0  0  0  0
 60 67  1  0  0  0  0
 61 68  1  0  0  0  0
 62 68  1  0  0  0  0
 63 68  1  0  0  0  0
 64 78  1  0  0  0  0
 65 86  1  0  0  0  0
 66 68  1  0  0  0  0
 66 77  1  0  0  0  0
 67 78  1  0  0  0  0
 69 70  1  0  0  0  0
M  CHG  1  78   1
M  ISO  4  40 100  65 101  85 100  86 101
M  END
> <Batch ID>
0118

> <Smiles>
C=C1CN(c2cc([100O:0][100C:0](=O)N3CCCC(n4nc(-c5ccc(Oc6ccc(F)cc6F)cc5)c(C(N)=O)c4N)C3)cc(C)c2C)CCC1(C)[101CH2:1][101O:1]c1ccc2c(c1)CN(C(=O)C(NC(=O)C(C)NC)C(C)(C)C)C(C(=O)NC1CCCc3ccccc31)C2

> <Shape>
0.230

> <Color>
0.085

> <Negative vol penalty>
0.000

$$$$

  -OEChem-04052301483D

 84 92  0     1  0  0  0  0  0999 V2000
  -25.5789  -34.4068   24.9781 C   0  0  0  0  0  0  0  0  0  0  0  0
  -26.1838  -33.2541   24.4873 C   0  0  0  0  0  0  0  0  0  0  0  0
  -24.4250   -9.2654   22.0519 C   0  0  0  0  0  0  0  0  0  0  0  0
  -23.8689   -8.9774   19.7185 C   0  0  0  0  0  0  0  0  0  0  0  0
  -24.2395  -34.3793   25.3646 C   0  0  0  0  0  0  0  0  0  0  0  0
  -25.4499  -32.0730   24.3836 C   0  0  0  0  0  0  0  0  0  0  0  0
  -26.2020  -29.6991   19.9741 C   0  0  0  0  0  0  0  0  0  0  0  0
  -23.2936   -8.5334   22.4119 C   0  0  0  0  0  0  0  0  0  0  0  0
  -22.7374   -8.2453   20.0785 C   0  0  0  0  0  0  0  0  0  0  0  0
  -27.3821  -28.9694   19.8369 C   0  0  0  0  0  0  0  0  0  0  0  0
  -22.3754   -5.2830   22.5681 C   0  0  0  0  0  0  0  0  0  0  0  0
  -22.5206   -4.3094   23.5564 C   0  0  0  0  0  0  0  0  0  0  0  0
  -30.4920  -20.3989   20.2469 C   0  0  0  0  0  0  0  0  0  0  0  0
  -26.1714  -26.9355   20.3023 C   0  0  0  0  0  0  0  0  0  0  0  0
  -20.8938   -5.4566   24.9256 C   0  0  0  0  0  0  0  0  0  0  0  0
  -24.7126   -9.4875   20.7052 C   0  0  0  0  0  0  0  0  0  0  0  0
  -31.3109  -19.2446   20.2348 C   0  0  0  0  0  0  0  0  0  0  0  0
  -27.1739   -9.7449   20.0859 C   0  0  0  0  0  0  0  0  0  0  0  0
  -23.4862  -33.1997   25.2565 C   0  0  0  0  0  0  0  0  0  0  0  0
  -24.9978  -29.0526   20.2876 C   0  0  0  0  0  0  0  0  0  0  0  0
  -24.0996  -32.0294   24.7703 C   0  0  0  0  0  0  0  0  0  0  0  0
  -24.9770  -27.6589   20.4404 C   0  0  0  0  0  0  0  0  0  0  0  0
  -22.4498   -8.0233   21.4253 C   0  0  0  0  0  0  0  0  0  0  0  0
  -27.3675  -27.5878   20.0039 C   0  0  0  0  0  0  0  0  0  0  0  0
  -21.4894   -6.3434   22.7586 C   0  0  0  0  0  0  0  0  0  0  0  0
  -21.7798   -4.3962   24.7351 C   0  0  0  0  0  0  0  0  0  0  0  0
  -20.7486   -6.4302   23.9373 C   0  0  0  0  0  0  0  0  0  0  0  0
  -25.8809  -10.2440   20.3326 C   0  0  0  0  0  0  0  0  0  0  0  0
  -32.5825  -19.6814   19.9445 C   0  0  0  0  0  0  0  0  0  0  0  0
  -27.9167  -10.8564   19.7708 C   0  0  0  0  0  0  0  0  0  0  0  0
  -31.3216  -21.4588   19.9634 C   0  0  0  0  0  0  0  0  0  0  0  0
  -30.9276  -17.9082   20.4697 C   0  0  0  0  0  0  0  0  0  0  0  0
  -29.6598  -17.4462   20.7412 C   0  0  0  0  0  0  0  0  0  0  0  0
  -27.6600   -8.3970   20.1369 C   0  0  0  0  0  0  0  0  0  0  0  0
  -29.4159  -16.0056   20.9556 C   0  0  0  0  0  0  0  0  0  0  0  0
  -22.9422  -29.1901   22.7082 C   0  0  0  0  0  0  0  0  0  0  0  0
  -29.7854  -24.8106   19.8660 C   0  0  0  0  0  0  0  0  0  0  0  0
  -21.2005  -27.1974   20.8325 C   0  0  0  0  0  0  0  0  0  0  0  0
  -21.1513  -24.8941   18.3148 C   0  0  0  0  0  0  0  0  0  0  0  0
  -22.0546  -33.2066   25.7311 C   0  0  0  0  0  0  0  0  0  0  0  0
  -23.7285  -29.8509   20.4058 C   0  0  0  0  0  0  0  0  0  0  0  0
  -23.7065  -26.9148   20.7575 C   0  0  0  0  0  0  0  0  0  0  0  0
  -21.2438  -32.0107   25.2384 C   0  0  0  0  0  0  0  0  0  0  0  0
  -26.5122  -15.5927   18.7579 C   0  0  0  0  0  0  0  0  0  0  0  0
  -22.0291  -30.7173   25.4315 C   0  0  0  0  0  0  0  0  0  0  0  0
  -26.1707  -14.1241   18.9953 C   0  0  0  0  0  0  0  0  0  0  0  0
  -27.0557  -16.2643   20.0181 C   0  0  0  0  0  0  0  0  0  0  0  0
  -27.8786  -14.0822   20.8559 C   0  0  0  0  0  0  0  0  0  0  0  0
  -23.3299  -30.7352   24.6196 C   0  0  1  0  0  0  0  0  0  0  0  0
  -22.6562  -29.1492   21.2337 C   0  0  1  0  0  0  0  0  0  0  0  0
  -27.3741  -13.3745   19.5886 C   0  0  1  0  0  0  0  0  0  0  0  0
  -34.5186  -18.6096   21.1232 C   0  0  0  0  0  0  0  0  0  0  0  0
  -19.5847  -23.4142   17.0291 C   0  0  0  0  0  0  0  0  0  0  0  0
  -21.0573  -25.2888   23.2088 C   0  0  0  0  0  0  0  0  0  0  0  0
  -20.3426  -23.4843   21.6272 C   0  0  0  0  0  0  0  0  0  0  0  0
  -18.9245  -25.5152   21.9226 C   0  0  0  0  0  0  0  0  0  0  0  0
  -21.8098  -26.2251   15.7547 C   0  0  0  0  0  0  0  0  0  0  0  0
  -33.8783  -19.0027   19.7855 C   0  0  0  0  0  0  0  0  0  0  0  0
  -28.4304  -25.4609   20.0556 C   0  0  0  0  0  0  0  0  0  1  0  0
  -29.8220  -23.3038   20.0183 C   0  0  0  0  0  0  0  0  0  0  0  0
  -21.1073  -25.7005   20.6604 C   0  0  1  0  0  0  0  0  0  0  0  0
  -20.2749  -24.7683   17.0817 C   0  0  2  0  0  0  0  0  0  0  0  0
  -20.3824  -25.0112   21.8507 C   0  0  0  0  0  0  0  0  0  0  0  0
  -25.8034  -11.5695   20.1870 N   0  0  0  0  0  0  0  0  0  0  0  0
  -27.0570  -11.9127   19.8454 N   0  0  0  0  0  0  0  0  0  0  0  0
  -28.1678  -15.4976   20.5997 N   0  0  0  0  0  0  0  0  0  0  0  0
  -22.4927  -27.7404   20.8694 N   0  0  0  0  0  0  0  0  0  0  0  0
  -29.2148  -11.0236   19.4400 N   0  0  0  0  0  0  0  0  0  0  0  0
  -26.7629   -7.3756   20.4776 N   0  0  0  0  0  0  0  0  0  0  0  0
  -23.0581  -30.4670   23.2237 N   0  0  0  0  0  0  0  0  0  0  0  0
  -20.4744  -25.4772   19.3651 N   0  0  0  0  0  0  0  0  0  0  0  0
  -21.0932  -24.9270   15.8463 N   0  3  0  0  0  0  0  0  0  0  0  0
  -28.8585   -8.1090   19.9037 O   0  0  0  0  0  0  0  0  0  0  0  0
  -30.3319  -15.3400   21.4420 O   0  0  0  0  0  0  0  0  0  0  0  0
  -23.0483  -28.1409   23.3324 O   0  0  0  0  0  0  0  0  0  0  0  0
  -30.7934  -25.4656   19.6050 O   0  0  0  0  0  0  0  0  0  0  0  0
  -20.1649  -27.8613   20.9235 O   0  0  0  0  0  0  0  0  0  0  0  0
  -22.3184  -24.5099   18.3445 O   0  0  0  0  0  0  0  0  0  0  0  0
  -32.5976  -21.0299   19.7778 O   0  0  0  0  0  0  0  0  0  0  0  0
  -21.3458   -7.3088   21.7762 O   0  0  0  0  0  0  0  0  0  0  0  0
  -28.5180  -26.8733   19.8712 O   0  0  0  0  0  0  0  0  0  1  0  0
  -31.1336  -22.8145   19.8335 O   0  0  0  0  0  0  0  0  0  0  0  0
  -21.9182   -3.4603   25.6833 F   0  0  0  0  0  0  0  0  0  0  0  0
  -19.8951   -7.4460   24.1255 F   0  0  0  0  0  0  0  0  0  0  0  0
  1  2  1  0  0  0  0
  1  5  2  0  0  0  0
  2  6  2  0  0  0  0
  3  8  2  0  0  0  0
  3 16  1  0  0  0  0
  4  9  1  0  0  0  0
  4 16  2  0  0  0  0
  5 19  1  0  0  0  0
  6 21  1  0  0  0  0
  7 10  2  0  0  0  0
  7 20  1  0  0  0  0
  8 23  1  0  0  0  0
  9 23  2  0  0  0  0
 10 24  1  0  0  0  0
 11 12  2  0  0  0  0
 11 25  1  0  0  0  0
 12 26  1  0  0  0  0
 13 17  1  0  0  0  0
 13 31  2  0  0  0  0
 14 22  1  0  0  0  0
 14 24  2  0  0  0  0
 15 26  2  0  0  0  0
 15 27  1  0  0  0  0
 16 28  1  0  0  0  0
 17 29  2  0  0  0  0
 17 32  1  0  0  0  0
 18 28  1  0  0  0  0
 18 30  2  0  0  0  0
 18 34  1  0  0  0  0
 19 21  2  0  0  0  0
 19 40  1  0  0  0  0
 20 22  2  0  0  0  0
 20 41  1  0  0  0  0
 21 49  1  0  0  0  0
 22 42  1  0  0  0  0
 23 80  1  0  0  0  0
 24 81  1  0  0  0  0
 25 27  2  0  0  0  0
 25 80  1  0  0  0  0
 26 83  1  0  0  0  0
 27 84  1  0  0  0  0
 28 64  2  0  0  0  0
 29 58  1  0  0  0  0
 29 79  1  0  0  0  0
 30 65  1  0  0  0  0
 30 68  1  0  0  0  0
 31 79  1  0  0  0  0
 31 82  1  0  0  0  0
 32 33  2  0  0  0  0
 33 35  1  0  0  0  0
 34 69  1  0  0  0  0
 34 73  2  0  0  0  0
 35 66  1  0  0  0  0
 35 74  2  0  0  0  0
 36 50  1  0  0  0  0
 36 70  1  0  0  0  0
 36 75  2  0  0  0  0
 37 59  1  0  0  0  0
 37 60  1  0  0  0  0
 37 76  2  0  0  0  0
 38 61  1  0  0  0  0
 38 67  1  0  0  0  0
 38 77  2  0  0  0  0
 39 62  1  0  0  0  0
 39 71  1  0  0  0  0
 39 78  2  0  0  0  0
 40 43  1  0  0  0  0
 41 50  1  0  0  0  0
 42 67  1  0  0  0  0
 43 45  1  0  0  0  0
 44 46  1  0  0  0  0
 44 47  1  0  0  0  0
 45 49  1  0  0  0  0
 46 51  1  0  0  0  0
 47 66  1  0  0  0  0
 48 51  1  0  0  0  0
 48 66  1  0  0  0  0
 49 70  1  0  0  0  0
 50 67  1  0  0  0  0
 51 65  1  0  0  0  0
 52 58  1  0  0  0  0
 53 62  1  0  0  0  0
 54 63  1  0  0  0  0
 55 63  1  0  0  0  0
 56 63  1  0  0  0  0
 57 72  1  0  0  0  0
 59 81  1  0  0  0  0
 60 82  1  0  0  0  0
 61 63  1  0  0  0  0
 61 71  1  0  0  0  0
 62 72  1  0  0  0  0
 64 65  1  0  0  0  0
M  CHG  1  72   1
M  ISO  4  33 100  35 100  59 101  81 101
M  END
> <Batch ID>
0118

> <Smiles>
CCc1oc(OCC(=O)[101CH2:1][101O:1]c2ccc3c(c2)CN(C(=O)C(NC(=O)C(C)NC)C(C)(C)C)C(C(=O)NC2CCCc4ccccc42)C3)cc1C=[100CH:0][100C:0](=O)N1CCCC(n2nc(-c3ccc(Oc4ccc(F)cc4F)cc3)c(C(N)=O)c2N)C1

> <Shape>
0.283

> <Color>
0.131

> <Negative vol penalty>
0.000

$$$$

  -OEChem-04052301483D

 83 91  0     1  0  0  0  0  0999 V2000
  -20.8200  -25.7531   25.8340 C   0  0  0  0  0  0  0  0  0  0  0  0
  -21.8478  -25.5789   24.9127 C   0  0  0  0  0  0  0  0  0  0  0  0
  -23.8577   -9.1189   20.3614 C   0  0  0  0  0  0  0  0  0  0  0  0
  -22.9092  -11.0220   21.5085 C   0  0  0  0  0  0  0  0  0  0  0  0
  -19.6961  -26.5027   25.4893 C   0  0  0  0  0  0  0  0  0  0  0  0
  -21.7517  -26.1533   23.6457 C   0  0  0  0  0  0  0  0  0  0  0  0
  -26.0513  -28.4066   22.2031 C   0  0  0  0  0  0  0  0  0  0  0  0
  -22.8903   -8.2924   20.9328 C   0  0  0  0  0  0  0  0  0  0  0  0
  -21.9418  -10.1955   22.0799 C   0  0  0  0  0  0  0  0  0  0  0  0
  -27.0786  -27.5835   21.7440 C   0  0  0  0  0  0  0  0  0  0  0  0
  -22.3414   -6.7908   23.9108 C   0  0  0  0  0  0  0  0  0  0  0  0
  -22.7632   -5.5723   24.4426 C   0  0  0  0  0  0  0  0  0  0  0  0
  -26.4740  -28.1082   19.4684 C   0  0  0  0  0  0  0  0  0  0  0  0
  -28.5004  -20.1098   19.1409 C   0  0  0  0  0  0  0  0  0  0  0  0
  -30.2054  -18.7229   20.8591 C   0  0  0  0  0  0  0  0  0  0  0  0
  -21.3129   -4.3999   22.9068 C   0  0  0  0  0  0  0  0  0  0  0  0
  -23.8672  -10.4838   20.6493 C   0  0  0  0  0  0  0  0  0  0  0  0
  -24.7789  -12.0312   18.8377 C   0  0  0  0  0  0  0  0  0  0  0  0
  -19.5905  -27.0947   24.2208 C   0  0  0  0  0  0  0  0  0  0  0  0
  -25.2193  -29.0794   21.2966 C   0  0  0  0  0  0  0  0  0  0  0  0
  -20.6247  -26.9104   23.2833 C   0  0  0  0  0  0  0  0  0  0  0  0
  -25.4385  -28.9413   19.9186 C   0  0  0  0  0  0  0  0  0  0  0  0
  -28.4462  -18.7174   19.2031 C   0  0  0  0  0  0  0  0  0  0  0  0
  -29.4072  -20.8088   19.9377 C   0  0  0  0  0  0  0  0  0  0  0  0
  -29.2986  -18.0240   20.0623 C   0  0  0  0  0  0  0  0  0  0  0  0
  -21.9323   -8.8306   21.7920 C   0  0  0  0  0  0  0  0  0  0  0  0
  -27.2883  -27.4318   20.3765 C   0  0  0  0  0  0  0  0  0  0  0  0
  -21.4052   -6.8139   22.8770 C   0  0  0  0  0  0  0  0  0  0  0  0
  -22.2490   -4.3768   23.9406 C   0  0  0  0  0  0  0  0  0  0  0  0
  -30.2597  -20.1154   20.7969 C   0  0  0  0  0  0  0  0  0  0  0  0
  -20.8910   -5.6184   22.3750 C   0  0  0  0  0  0  0  0  0  0  0  0
  -24.8667  -11.3380   20.0598 C   0  0  0  0  0  0  0  0  0  0  0  0
  -25.9776  -12.6934   18.7318 C   0  0  0  0  0  0  0  0  0  0  0  0
  -28.9134  -24.4352   19.2581 C   0  0  0  0  0  0  0  0  0  0  0  0
  -28.0057  -25.3108   19.7004 C   0  0  0  0  0  0  0  0  0  1  0  0
  -23.7096  -12.0728   17.8836 C   0  0  0  0  0  0  0  0  0  0  0  0
  -22.1082  -29.0314   20.6464 C   0  0  0  0  0  0  0  0  0  0  0  0
  -22.8763  -31.5003   18.6876 C   0  0  0  0  0  0  0  0  0  0  0  0
  -25.2628  -33.1103   16.8547 C   0  0  0  0  0  0  0  0  0  0  0  0
  -30.0462  -15.7853   20.9431 C   0  0  0  0  0  0  0  0  0  0  0  0
  -18.3351  -27.8567   23.8776 C   0  0  0  0  0  0  0  0  0  0  0  0
  -24.1325  -29.9847   21.8082 C   0  0  0  0  0  0  0  0  0  0  0  0
  -24.5860  -29.6577   18.9044 C   0  0  0  0  0  0  0  0  0  0  0  0
  -18.4796  -28.7449   22.6446 C   0  0  0  0  0  0  0  0  0  0  0  0
  -30.2286  -12.2652   21.4461 C   0  0  0  0  0  0  0  0  0  0  0  0
  -19.1541  -27.9789   21.5109 C   0  0  0  0  0  0  0  0  0  0  0  0
  -28.8426  -11.7672   21.0297 C   0  0  0  0  0  0  0  0  0  0  0  0
  -30.1565  -13.6176   22.1530 C   0  0  0  0  0  0  0  0  0  0  0  0
  -28.0485  -14.1663   21.0023 C   0  0  0  0  0  0  0  0  0  0  0  0
  -20.5684  -27.5385   21.9076 C   0  0  1  0  0  0  0  0  0  0  0  0
  -23.0200  -30.2170   20.7904 C   0  0  1  0  0  0  0  0  0  0  0  0
  -28.0762  -12.8380   20.2287 C   0  0  2  0  0  0  0  0  0  0  0  0
  -27.4671  -17.9943   18.3364 C   0  0  0  0  0  0  0  0  0  0  0  0
  -25.5817  -35.0781   15.3305 C   0  0  0  0  0  0  0  0  0  0  0  0
  -21.5130  -29.9682   16.4284 C   0  0  0  0  0  0  0  0  0  0  0  0
  -22.6680  -31.4793   14.8003 C   0  0  0  0  0  0  0  0  0  0  0  0
  -21.0524  -32.4262   16.4483 C   0  0  0  0  0  0  0  0  0  0  0  0
  -27.2298  -34.3548   18.6826 C   0  0  0  0  0  0  0  0  0  0  0  0
  -28.6189  -22.9895   19.0164 C   0  0  0  0  0  0  0  0  0  0  0  0
  -23.3137  -31.6269   17.2482 C   0  0  1  0  0  0  0  0  0  0  0  0
  -25.6450  -34.5767   16.7648 C   0  0  2  0  0  0  0  0  0  0  0  0
  -22.1518  -31.3600   16.2501 C   0  0  0  0  0  0  0  0  0  0  0  0
  -26.0292  -11.5409   20.6854 N   0  0  0  0  0  0  0  0  0  0  0  0
  -26.6830  -12.3690   19.8531 N   0  0  0  0  0  0  0  0  0  0  0  0
  -23.5322  -30.5266   19.4540 N   0  0  0  0  0  0  0  0  0  0  0  0
  -29.4203  -14.5825   21.3334 N   0  0  0  0  0  0  0  0  0  0  0  0
  -26.4864  -13.5157   17.7898 N   0  0  0  0  0  0  0  0  0  0  0  0
  -22.5487  -11.3336   18.1485 N   0  0  0  0  0  0  0  0  0  0  0  0
  -29.2601  -16.6096   20.1386 N   0  0  0  0  0  0  0  0  0  0  0  0
  -29.4604  -22.1933   19.8743 N   0  0  0  0  0  0  0  0  0  0  0  0
  -21.4876  -28.6530   21.8216 N   0  0  0  0  0  0  0  0  0  0  0  0
  -23.9196  -32.9479   17.1204 N   0  0  0  0  0  0  0  0  0  0  0  0
  -27.0302  -34.7831   17.2742 N   0  3  0  0  0  0  0  0  0  0  0  0
  -23.7879  -12.7324   16.8195 O   0  0  0  0  0  0  0  0  0  0  0  0
  -21.9764  -28.5003   19.5499 O   0  0  0  0  0  0  0  0  0  0  0  0
  -21.9905  -32.2430   19.1180 O   0  0  0  0  0  0  0  0  0  0  0  0
  -26.0740  -32.1999   16.7007 O   0  0  0  0  0  0  0  0  0  0  0  0
  -31.2046  -16.0511   21.2739 O   0  0  0  0  0  0  0  0  0  0  0  0
  -20.9880   -8.0244   22.3495 O   0  0  0  0  0  0  0  0  0  0  0  0
  -28.2899  -26.6284   19.9257 O   0  0  0  0  0  0  0  0  0  1  0  0
  -22.6554   -3.2067   24.4504 F   0  0  0  0  0  0  0  0  0  0  0  0
  -31.1361  -20.7764   21.5664 F   0  0  0  0  0  0  0  0  0  0  0  0
  -19.9922   -5.6342   21.3811 F   0  0  0  0  0  0  0  0  0  0  0  0
  1  2  1  0  0  0  0
  1  5  2  0  0  0  0
  2  6  2  0  0  0  0
  3  8  2  0  0  0  0
  3 17  1  0  0  0  0
  4  9  1  0  0  0  0
  4 17  2  0  0  0  0
  5 19  1  0  0  0  0
  6 21  1  0  0  0  0
  7 10  2  0  0  0  0
  7 20  1  0  0  0  0
  8 26  1  0  0  0  0
  9 26  2  0  0  0  0
 10 27  1  0  0  0  0
 11 12  2  0  0  0  0
 11 28  1  0  0  0  0
 12 29  1  0  0  0  0
 13 22  1  0  0  0  0
 13 27  2  0  0  0  0
 14 23  2  0  0  0  0
 14 24  1  0  0  0  0
 15 25  2  0  0  0  0
 15 30  1  0  0  0  0
 16 29  2  0  0  0  0
 16 31  1  0  0  0  0
 17 32  1  0  0  0  0
 18 32  1  0  0  0  0
 18 33  2  0  0  0  0
 18 36  1  0  0  0  0
 19 21  2  0  0  0  0
 19 41  1  0  0  0  0
 20 22  2  0  0  0  0
 20 42  1  0  0  0  0
 21 50  1  0  0  0  0
 22 43  1  0  0  0  0
 23 25  1  0  0  0  0
 23 53  1  0  0  0  0
 24 30  2  0  0  0  0
 24 70  1  0  0  0  0
 25 69  1  0  0  0  0
 26 79  1  0  0  0  0
 27 80  1  0  0  0  0
 28 31  2  0  0  0  0
 28 79  1  0  0  0  0
 29 81  1  0  0  0  0
 30 82  1  0  0  0  0
 31 83  1  0  0  0  0
 32 63  2  0  0  0  0
 33 64  1  0  0  0  0
 33 67  1  0  0  0  0
 34 35  2  0  0  0  0
 34 59  1  0  0  0  0
 35 80  1  0  0  0  0
 36 68  1  0  0  0  0
 36 74  2  0  0  0  0
 37 51  1  0  0  0  0
 37 71  1  0  0  0  0
 37 75  2  0  0  0  0
 38 60  1  0  0  0  0
 38 65  1  0  0  0  0
 38 76  2  0  0  0  0
 39 61  1  0  0  0  0
 39 72  1  0  0  0  0
 39 77  2  0  0  0  0
 40 66  1  0  0  0  0
 40 69  1  0  0  0  0
 40 78  2  0  0  0  0
 41 44  1  0  0  0  0
 42 51  1  0  0  0  0
 43 65  1  0  0  0  0
 44 46  1  0  0  0  0
 45 47  1  0  0  0  0
 45 48  1  0  0  0  0
 46 50  1  0  0  0  0
 47 52  1  0  0  0  0
 48 66  1  0  0  0  0
 49 52  1  0  0  0  0
 49 66  1  0  0  0  0
 50 71  1  0  0  0  0
 51 65  1  0  0  0  0
 52 64  1  0  0  0  0
 54 61  1  0  0  0  0
 55 62  1  0  0  0  0
 56 62  1  0  0  0  0
 57 62  1  0  0  0  0
 58 73  1  0  0  0  0
 59 70  1  0  0  0  0
 60 62  1  0  0  0  0
 60 72  1  0  0  0  0
 61 73  1  0  0  0  0
 63 64  1  0  0  0  0
M  CHG  1  73   1
M  ISO  4  35 101  40 100  69 100  80 101
M  END
> <Batch ID>
0118

> <Smiles>
CNC(C)C(=O)NC(C(=O)N1Cc2cc([101O:1][101CH:1]=CCNc3cc(C)c([100NH:0][100C:0](=O)N4CCCC(n5nc(-c6ccc(Oc7ccc(F)cc7F)cc6)c(C(N)=O)c5N)C4)cc3F)ccc2CC1C(=O)NC1CCCc2ccccc21)C(C)(C)C

> <Shape>
0.292

> <Color>
0.128

> <Negative vol penalty>
0.000

$$$$

  -OEChem-04052301483D

 87 95  0     1  0  0  0  0  0999 V2000
  -29.9598  -16.6975    8.6080 C   0  0  0  0  0  0  0  0  0  0  0  0
  -29.7546  -17.1079    9.9214 C   0  0  0  0  0  0  0  0  0  0  0  0
  -22.9815   -9.9369   19.9910 C   0  0  0  0  0  0  0  0  0  0  0  0
  -23.7192   -9.9709   22.2914 C   0  0  0  0  0  0  0  0  0  0  0  0
  -31.4513  -19.2777   19.1070 C   0  0  0  0  0  0  0  0  0  0  0  0
  -30.0256  -17.6432    7.5857 C   0  0  0  0  0  0  0  0  0  0  0  0
  -29.6162  -18.4644   10.2133 C   0  0  0  0  0  0  0  0  0  0  0  0
  -25.7952  -19.3844   13.4067 C   0  0  0  0  0  0  0  0  0  0  0  0
  -31.6695  -18.2377   20.0104 C   0  0  0  0  0  0  0  0  0  0  0  0
  -22.2010   -8.8121   20.2579 C   0  0  0  0  0  0  0  0  0  0  0  0
  -22.9387   -8.8461   22.5583 C   0  0  0  0  0  0  0  0  0  0  0  0
  -26.0179  -19.1237   14.7581 C   0  0  0  0  0  0  0  0  0  0  0  0
  -21.4218   -5.7696   23.7599 C   0  0  0  0  0  0  0  0  0  0  0  0
  -21.9979   -4.7436   24.5089 C   0  0  0  0  0  0  0  0  0  0  0  0
  -26.4141  -21.4725   15.1397 C   0  0  0  0  0  0  0  0  0  0  0  0
  -29.4556  -18.5643   20.9210 C   0  0  0  0  0  0  0  0  0  0  0  0
  -23.7120   -4.4783   22.8271 C   0  0  0  0  0  0  0  0  0  0  0  0
  -23.7406  -10.5163   21.0077 C   0  0  0  0  0  0  0  0  0  0  0  0
  -30.2353  -19.9612   19.1105 C   0  0  0  0  0  0  0  0  0  0  0  0
  -24.1591  -13.0270   20.8374 C   0  0  0  0  0  0  0  0  0  0  0  0
  -29.8783  -19.0113    7.8639 C   0  0  0  0  0  0  0  0  0  0  0  0
  -25.8911  -20.6918   12.9088 C   0  0  0  0  0  0  0  0  0  0  0  0
  -29.6815  -19.4294    9.1939 C   0  0  0  0  0  0  0  0  0  0  0  0
  -26.1896  -21.7474   13.7821 C   0  0  0  0  0  0  0  0  0  0  0  0
  -30.6716  -17.8810   20.9174 C   0  0  0  0  0  0  0  0  0  0  0  0
  -22.1796   -8.2667   21.5415 C   0  0  0  0  0  0  0  0  0  0  0  0
  -26.3303  -20.1674   15.6243 C   0  0  0  0  0  0  0  0  0  0  0  0
  -21.9907   -6.1499   22.5444 C   0  0  0  0  0  0  0  0  0  0  0  0
  -29.2375  -19.6044   20.0175 C   0  0  0  0  0  0  0  0  0  0  0  0
  -23.1430   -4.0980   24.0426 C   0  0  0  0  0  0  0  0  0  0  0  0
  -23.1359   -5.5043   22.0781 C   0  0  0  0  0  0  0  0  0  0  0  0
  -24.5475  -11.6779   20.7325 C   0  0  0  0  0  0  0  0  0  0  0  0
  -25.2766  -13.7356   20.4694 C   0  0  0  0  0  0  0  0  0  0  0  0
  -30.0325  -21.0440   18.1577 C   0  0  0  0  0  0  0  0  0  0  0  0
  -30.5827  -21.1053   16.9264 C   0  0  0  0  0  0  0  0  0  0  0  0
  -22.9006  -13.5893   21.2322 C   0  0  0  0  0  0  0  0  0  0  0  0
  -30.3032  -22.2553   16.0202 C   0  0  0  0  0  0  0  0  0  0  0  0
  -27.7378  -22.1478   10.7703 C   0  0  0  0  0  0  0  0  0  0  0  0
  -25.7441  -24.6455   11.3262 C   0  0  0  0  0  0  0  0  0  0  0  0
  -23.5572  -26.1918   13.4412 C   0  0  0  0  0  0  0  0  0  0  0  0
  -30.7863  -14.5950   20.6920 C   0  0  0  0  0  0  0  0  0  0  0  0
  -30.0040  -20.0000    6.7319 C   0  0  0  0  0  0  0  0  0  0  0  0
  -25.6216  -20.9601   11.4535 C   0  0  0  0  0  0  0  0  0  0  0  0
  -26.2845  -23.1716   13.3013 C   0  0  0  0  0  0  0  0  0  0  0  0
  -29.4734  -21.3895    7.0751 C   0  0  0  0  0  0  0  0  0  0  0  0
  -29.6008  -12.1943   18.3452 C   0  0  0  0  0  0  0  0  0  0  0  0
  -29.9868  -21.8347    8.4408 C   0  0  0  0  0  0  0  0  0  0  0  0
  -28.1511  -11.9529   18.7695 C   0  0  0  0  0  0  0  0  0  0  0  0
  -30.5126  -12.4137   19.5504 C   0  0  0  0  0  0  0  0  0  0  0  0
  -28.6203  -13.2308   20.9016 C   0  0  0  0  0  0  0  0  0  0  0  0
  -29.5020  -20.8899    9.5471 C   0  0  1  0  0  0  0  0  0  0  0  0
  -26.2513  -22.2586   10.9587 C   0  0  1  0  0  0  0  0  0  0  0  0
  -27.6527  -13.0598   19.7180 C   0  0  2  0  0  0  0  0  0  0  0  0
  -30.9668  -22.2267   14.6683 C   0  0  0  0  0  0  0  0  0  0  0  0
  -22.1169  -28.2376   13.6348 C   0  0  0  0  0  0  0  0  0  0  0  0
  -28.2203  -26.3308   11.9075 C   0  0  0  0  0  0  0  0  0  0  0  0
  -26.7279  -28.0242   12.9908 C   0  0  0  0  0  0  0  0  0  0  0  0
  -26.4574  -27.4942   10.5683 C   0  0  0  0  0  0  0  0  0  0  0  0
  -21.0875  -24.5748   13.6526 C   0  0  0  0  0  0  0  0  0  0  0  0
  -30.9047  -16.7689   21.8834 C   0  0  0  0  0  0  0  0  0  0  0  0
  -25.7837  -20.3459   19.1911 C   0  0  0  0  0  0  0  0  0  0  0  0
  -26.2181  -20.9528   17.8662 C   0  0  0  0  0  0  0  0  0  1  0  0
  -26.8722  -19.4787   19.8037 C   0  0  0  0  0  0  0  0  0  0  0  0
  -25.7235  -25.8014   12.2969 C   0  0  1  0  0  0  0  0  0  0  0  0
  -22.1764  -26.7786   13.2098 C   0  0  2  0  0  0  0  0  0  0  0  0
  -26.7825  -26.8857   11.9499 C   0  0  0  0  0  0  0  0  0  0  0  0
  -25.8128  -11.5355   20.3293 N   0  0  0  0  0  0  0  0  0  0  0  0
  -26.2292  -12.8042   20.1775 N   0  0  0  0  0  0  0  0  0  0  0  0
  -26.0187  -23.3821   11.8686 N   0  0  0  0  0  0  0  0  0  0  0  0
  -29.9846  -13.4771   20.4085 N   0  0  0  0  0  0  0  0  0  0  0  0
  -25.5275  -15.0584   20.3702 N   0  0  0  0  0  0  0  0  0  0  0  0
  -21.8588  -12.7181   21.5784 N   0  0  0  0  0  0  0  0  0  0  0  0
  -28.1201  -21.1651    9.8772 N   0  0  0  0  0  0  0  0  0  0  0  0
  -24.3499  -26.2927   12.3175 N   0  0  0  0  0  0  0  0  0  0  0  0
  -30.2072  -15.5592   21.5079 N   0  0  0  0  0  0  0  0  0  0  0  0
  -21.1548  -26.0209   13.9863 N   0  3  0  0  0  0  0  0  0  0  0  0
  -22.7008  -14.8274   21.2609 O   0  0  0  0  0  0  0  0  0  0  0  0
  -29.5521  -23.1740   16.3391 O   0  0  0  0  0  0  0  0  0  0  0  0
  -28.4828  -22.8993   11.3883 O   0  0  0  0  0  0  0  0  0  0  0  0
  -25.5176  -24.8547   10.1318 O   0  0  0  0  0  0  0  0  0  0  0  0
  -23.8996  -25.6970   14.5128 O   0  0  0  0  0  0  0  0  0  0  0  0
  -31.9313  -14.7268   20.2464 O   0  0  0  0  0  0  0  0  0  0  0  0
  -21.4180   -7.1692   21.8023 O   0  0  0  0  0  0  0  0  0  0  0  0
  -26.5489  -19.9156   16.9436 O   0  0  0  0  0  0  0  0  0  1  0  0
  -28.0345  -20.2608   20.0431 O   0  0  0  0  0  0  0  0  0  0  0  0
  -23.6971   -3.1138   24.7627 F   0  0  0  0  0  0  0  0  0  0  0  0
  -23.6877   -5.8661   20.9117 F   0  0  0  0  0  0  0  0  0  0  0  0
  1  2  1  0  0  0  0
  1  6  2  0  0  0  0
  2  7  2  0  0  0  0
  3 10  2  0  0  0  0
  3 18  1  0  0  0  0
  4 11  1  0  0  0  0
  4 18  2  0  0  0  0
  5  9  2  0  0  0  0
  5 19  1  0  0  0  0
  6 21  1  0  0  0  0
  7 23  1  0  0  0  0
  8 12  2  0  0  0  0
  8 22  1  0  0  0  0
  9 25  1  0  0  0  0
 10 26  1  0  0  0  0
 11 26  2  0  0  0  0
 12 27  1  0  0  0  0
 13 14  2  0  0  0  0
 13 28  1  0  0  0  0
 14 30  1  0  0  0  0
 15 24  1  0  0  0  0
 15 27  2  0  0  0  0
 16 25  2  0  0  0  0
 16 29  1  0  0  0  0
 17 30  2  0  0  0  0
 17 31  1  0  0  0  0
 18 32  1  0  0  0  0
 19 29  2  0  0  0  0
 19 34  1  0  0  0  0
 20 32  1  0  0  0  0
 20 33  2  0  0  0  0
 20 36  1  0  0  0  0
 21 23  2  0  0  0  0
 21 42  1  0  0  0  0
 22 24  2  0  0  0  0
 22 43  1  0  0  0  0
 23 51  1  0  0  0  0
 24 44  1  0  0  0  0
 25 60  1  0  0  0  0
 26 83  1  0  0  0  0
 27 84  1  0  0  0  0
 28 31  2  0  0  0  0
 28 83  1  0  0  0  0
 29 85  1  0  0  0  0
 30 86  1  0  0  0  0
 31 87  1  0  0  0  0
 32 67  2  0  0  0  0
 33 68  1  0  0  0  0
 33 71  1  0  0  0  0
 34 35  2  0  0  0  0
 35 37  1  0  0  0  0
 36 72  1  0  0  0  0
 36 77  2  0  0  0  0
 37 54  1  0  0  0  0
 37 78  2  0  0  0  0
 38 52  1  0  0  0  0
 38 73  1  0  0  0  0
 38 79  2  0  0  0  0
 39 64  1  0  0  0  0
 39 69  1  0  0  0  0
 39 80  2  0  0  0  0
 40 65  1  0  0  0  0
 40 74  1  0  0  0  0
 40 81  2  0  0  0  0
 41 70  1  0  0  0  0
 41 75  1  0  0  0  0
 41 82  2  0  0  0  0
 42 45  1  0  0  0  0
 43 52  1  0  0  0  0
 44 69  1  0  0  0  0
 45 47  1  0  0  0  0
 46 48  1  0  0  0  0
 46 49  1  0  0  0  0
 47 51  1  0  0  0  0
 48 53  1  0  0  0  0
 49 70  1  0  0  0  0
 50 53  1  0  0  0  0
 50 70  1  0  0  0  0
 51 73  1  0  0  0  0
 52 69  1  0  0  0  0
 53 68  1  0  0  0  0
 55 65  1  0  0  0  0
 56 66  1  0  0  0  0
 57 66  1  0  0  0  0
 58 66  1  0  0  0  0
 59 76  1  0  0  0  0
 60 75  1  0  0  0  0
 61 62  1  0  0  0  0
 61 63  1  0  0  0  0
 62 84  1  0  0  0  0
 63 85  1  0  0  0  0
 64 66  1  0  0  0  0
 64 74  1  0  0  0  0
 65 76  1  0  0  0  0
 67 68  1  0  0  0  0
M  CHG  1  76   1
M  ISO  4  41 100  62 101  75 100  84 101
M  END
> <Batch ID>
0118

> <Smiles>
CNC(C)C(=O)NC(C(=O)N1Cc2cc([101O:1][101CH2:1]CCOc3cc(C[100NH:0][100C:0](=O)N4CCCC(n5nc(-c6ccc(Oc7ccc(F)cc7F)cc6)c(C(N)=O)c5N)C4)ccc3C=CC(C)=O)ccc2CC1C(=O)NC1CCCc2ccccc21)C(C)(C)C

> <Shape>
0.203

> <Color>
0.201

> <Negative vol penalty>
0.000

$$$$

  -OEChem-04052301483D

 86 94  0     1  0  0  0  0  0999 V2000
  -24.6664  -35.4251   22.6931 C   0  0  0  0  0  0  0  0  0  0  0  0
  -25.4600  -34.2921   22.5451 C   0  0  0  0  0  0  0  0  0  0  0  0
  -23.3322  -10.0258   20.7494 C   0  0  0  0  0  0  0  0  0  0  0  0
  -21.2311   -9.9586   21.9400 C   0  0  0  0  0  0  0  0  0  0  0  0
  -23.3657  -35.3049   23.1804 C   0  0  0  0  0  0  0  0  0  0  0  0
  -24.9536  -33.0383   22.8854 C   0  0  0  0  0  0  0  0  0  0  0  0
  -26.0137  -29.5074   19.4134 C   0  0  0  0  0  0  0  0  0  0  0  0
  -26.3428  -21.7330   20.4603 C   0  0  0  0  0  0  0  0  0  0  0  0
  -25.5676  -20.8226   21.1785 C   0  0  0  0  0  0  0  0  0  0  0  0
  -23.3682   -8.6315   20.7342 C   0  0  0  0  0  0  0  0  0  0  0  0
  -21.2670   -8.5643   21.9248 C   0  0  0  0  0  0  0  0  0  0  0  0
  -27.3038  -28.9790   19.4160 C   0  0  0  0  0  0  0  0  0  0  0  0
  -20.9833   -4.9895   22.5165 C   0  0  0  0  0  0  0  0  0  0  0  0
  -20.6691   -4.3199   23.6991 C   0  0  0  0  0  0  0  0  0  0  0  0
  -26.5009  -27.0400   20.6054 C   0  0  0  0  0  0  0  0  0  0  0  0
  -27.8897  -19.9666   19.8909 C   0  0  0  0  0  0  0  0  0  0  0  0
  -22.5082   -5.4226   24.8121 C   0  0  0  0  0  0  0  0  0  0  0  0
  -22.2637  -10.6894   21.3523 C   0  0  0  0  0  0  0  0  0  0  0  0
  -21.6512  -12.9762   20.4022 C   0  0  0  0  0  0  0  0  0  0  0  0
  -22.8398  -34.0478   23.5177 C   0  0  0  0  0  0  0  0  0  0  0  0
  -24.9577  -28.8099   20.0174 C   0  0  0  0  0  0  0  0  0  0  0  0
  -23.6451  -32.9013   23.3789 C   0  0  0  0  0  0  0  0  0  0  0  0
  -25.1977  -27.5605   20.6069 C   0  0  0  0  0  0  0  0  0  0  0  0
  -27.1145  -19.0562   20.6092 C   0  0  0  0  0  0  0  0  0  0  0  0
  -27.5038  -21.3050   19.8164 C   0  0  0  0  0  0  0  0  0  0  0  0
  -25.9534  -19.4842   21.2530 C   0  0  0  0  0  0  0  0  0  0  0  0
  -22.3356   -7.9007   21.3219 C   0  0  0  0  0  0  0  0  0  0  0  0
  -27.5482  -27.7465   20.0146 C   0  0  0  0  0  0  0  0  0  0  0  0
  -22.0600   -5.8756   22.4816 C   0  0  0  0  0  0  0  0  0  0  0  0
  -21.4315   -4.5365   24.8469 C   0  0  0  0  0  0  0  0  0  0  0  0
  -22.8225   -6.0922   23.6294 C   0  0  0  0  0  0  0  0  0  0  0  0
  -22.2262  -12.1297   21.3689 C   0  0  0  0  0  0  0  0  0  0  0  0
  -21.8790  -14.2446   20.8775 C   0  0  0  0  0  0  0  0  0  0  0  0
  -29.9703  -16.9487   20.6116 C   0  0  0  0  0  0  0  0  0  0  0  0
  -28.9228  -17.4596   21.2684 C   0  0  0  0  0  0  0  0  0  0  0  0
  -29.9353  -25.1275   19.7753 C   0  0  0  0  0  0  0  0  0  0  0  0
  -29.0076  -26.0209   19.4122 C   0  0  0  0  0  0  0  0  0  1  0  0
  -29.2154  -22.8213   19.7626 C   0  0  0  0  0  0  0  0  0  0  0  0
  -20.9718  -12.6457   19.1837 C   0  0  0  0  0  0  0  0  0  0  0  0
  -22.9762  -29.3924   22.4337 C   0  0  0  0  0  0  0  0  0  0  0  0
  -21.5824  -26.6354   21.4445 C   0  0  0  0  0  0  0  0  0  0  0  0
  -21.8918  -23.6587   19.8043 C   0  0  0  0  0  0  0  0  0  0  0  0
  -25.6552  -17.8471   23.1039 C   0  0  0  0  0  0  0  0  0  0  0  0
  -21.4443  -33.9732   24.0851 C   0  0  0  0  0  0  0  0  0  0  0  0
  -23.5666  -29.3811   19.9827 C   0  0  0  0  0  0  0  0  0  0  0  0
  -24.0947  -26.7625   21.2510 C   0  0  0  0  0  0  0  0  0  0  0  0
  -20.8548  -32.5652   24.0692 C   0  0  0  0  0  0  0  0  0  0  0  0
  -23.5379  -15.8477   25.3688 C   0  0  0  0  0  0  0  0  0  0  0  0
  -21.8695  -31.5556   24.5965 C   0  0  0  0  0  0  0  0  0  0  0  0
  -23.0184  -14.7371   24.4573 C   0  0  0  0  0  0  0  0  0  0  0  0
  -24.9112  -16.3461   24.9288 C   0  0  0  0  0  0  0  0  0  0  0  0
  -24.4431  -15.6738   22.5924 C   0  0  0  0  0  0  0  0  0  0  0  0
  -23.1230  -31.5209   23.7138 C   0  0  1  0  0  0  0  0  0  0  0  0
  -22.6640  -28.8230   21.0787 C   0  0  1  0  0  0  0  0  0  0  0  0
  -23.0422  -15.1802   22.9842 C   0  0  1  0  0  0  0  0  0  0  0  0
  -20.5910  -21.6012   19.1943 C   0  0  0  0  0  0  0  0  0  0  0  0
  -21.8554  -25.6168   24.3077 C   0  0  0  0  0  0  0  0  0  0  0  0
  -21.4437  -23.3013   23.4492 C   0  0  0  0  0  0  0  0  0  0  0  0
  -19.6843  -25.0523   23.2022 C   0  0  0  0  0  0  0  0  0  0  0  0
  -23.6909  -18.5415   21.7516 C   0  0  0  0  0  0  0  0  0  0  0  0
  -22.2265  -24.1649   16.9077 C   0  0  0  0  0  0  0  0  0  0  0  0
  -27.5511  -17.6283   20.6712 C   0  0  0  0  0  0  0  0  0  0  0  0
  -30.1246  -23.8119   19.0908 C   0  0  0  0  0  0  0  0  0  0  0  0
  -21.7618  -25.1714   21.7663 C   0  0  1  0  0  0  0  0  0  0  0  0
  -21.0214  -22.9919   18.7544 C   0  0  2  0  0  0  0  0  0  0  0  0
  -21.2076  -24.8011   23.1710 C   0  0  0  0  0  0  0  0  0  0  0  0
  -22.7780  -12.8034   22.3816 N   0  0  0  0  0  0  0  0  0  0  0  0
  -28.2848  -22.2223   19.0933 N   0  0  0  0  0  0  0  0  0  0  0  0
  -22.5508  -14.0868   22.0539 N   0  0  0  0  0  0  0  0  0  0  0  0
  -22.7530  -27.3662   21.1969 N   0  0  0  0  0  0  0  0  0  0  0  0
  -24.9181  -16.7178   23.5134 N   0  0  0  0  0  0  0  0  0  0  0  0
  -21.5683  -15.4683   20.3996 N   0  0  0  0  0  0  0  0  0  0  0  0
  -20.8247  -11.2933   18.8464 N   0  0  0  0  0  0  0  0  0  0  0  0
  -22.8686  -30.7683   22.5042 N   0  0  0  0  0  0  0  0  0  0  0  0
  -21.1470  -24.4338   20.6679 N   0  0  0  0  0  0  0  0  0  0  0  0
  -25.1362  -18.5572   21.9998 N   0  0  0  0  0  0  0  0  0  0  0  0
  -21.7637  -22.8692   17.4680 N   0  3  0  0  0  0  0  0  0  0  0  0
  -20.5232  -13.5240   18.4085 O   0  0  0  0  0  0  0  0  0  0  0  0
  -23.2899  -28.6391   23.3479 O   0  0  0  0  0  0  0  0  0  0  0  0
  -20.4450  -27.1114   21.4070 O   0  0  0  0  0  0  0  0  0  0  0  0
  -23.1100  -23.5042   19.8557 O   0  0  0  0  0  0  0  0  0  0  0  0
  -26.6787  -18.2083   23.6969 O   0  0  0  0  0  0  0  0  0  0  0  0
  -22.3703   -6.5402   21.3070 O   0  0  0  0  0  0  0  0  0  0  0  0
  -28.8067  -27.2288   20.0190 O   0  0  0  0  0  0  0  0  0  1  0  0
  -21.1287   -3.8946   25.9828 F   0  0  0  0  0  0  0  0  0  0  0  0
  -23.8573   -6.9431   23.6024 F   0  0  0  0  0  0  0  0  0  0  0  0
  1  2  1  0  0  0  0
  1  5  2  0  0  0  0
  2  6  2  0  0  0  0
  3 10  2  0  0  0  0
  3 18  1  0  0  0  0
  4 11  1  0  0  0  0
  4 18  2  0  0  0  0
  5 20  1  0  0  0  0
  6 22  1  0  0  0  0
  7 12  2  0  0  0  0
  7 21  1  0  0  0  0
  8  9  2  0  0  0  0
  8 25  1  0  0  0  0
  9 26  1  0  0  0  0
 10 27  1  0  0  0  0
 11 27  2  0  0  0  0
 12 28  1  0  0  0  0
 13 14  2  0  0  0  0
 13 29  1  0  0  0  0
 14 30  1  0  0  0  0
 15 23  1  0  0  0  0
 15 28  2  0  0  0  0
 16 24  1  0  0  0  0
 16 25  2  0  0  0  0
 17 30  2  0  0  0  0
 17 31  1  0  0  0  0
 18 32  1  0  0  0  0
 19 32  1  0  0  0  0
 19 33  2  0  0  0  0
 19 39  1  0  0  0  0
 20 22  2  0  0  0  0
 20 44  1  0  0  0  0
 21 23  2  0  0  0  0
 21 45  1  0  0  0  0
 22 53  1  0  0  0  0
 23 46  1  0  0  0  0
 24 26  2  0  0  0  0
 24 62  1  0  0  0  0
 25 68  1  0  0  0  0
 26 76  1  0  0  0  0
 27 83  1  0  0  0  0
 28 84  1  0  0  0  0
 29 31  2  0  0  0  0
 29 83  1  0  0  0  0
 30 85  1  0  0  0  0
 31 86  1  0  0  0  0
 32 67  2  0  0  0  0
 33 69  1  0  0  0  0
 33 72  1  0  0  0  0
 34 35  2  0  0  0  0
 35 62  1  0  0  0  0
 36 37  2  0  0  0  0
 36 63  1  0  0  0  0
 37 84  1  0  0  0  0
 38 63  1  0  0  0  0
 38 68  2  0  0  0  0
 39 73  1  0  0  0  0
 39 78  2  0  0  0  0
 40 54  1  0  0  0  0
 40 74  1  0  0  0  0
 40 79  2  0  0  0  0
 41 64  1  0  0  0  0
 41 70  1  0  0  0  0
 41 80  2  0  0  0  0
 42 65  1  0  0  0  0
 42 75  1  0  0  0  0
 42 81  2  0  0  0  0
 43 71  1  0  0  0  0
 43 76  1  0  0  0  0
 43 82  2  0  0  0  0
 44 47  1  0  0  0  0
 45 54  1  0  0  0  0
 46 70  1  0  0  0  0
 47 49  1  0  0  0  0
 48 50  1  0  0  0  0
 48 51  1  0  0  0  0
 49 53  1  0  0  0  0
 50 55  1  0  0  0  0
 51 71  1  0  0  0  0
 52 55  1  0  0  0  0
 52 71  1  0  0  0  0
 53 74  1  0  0  0  0
 54 70  1  0  0  0  0
 55 69  1  0  0  0  0
 56 65  1  0  0  0  0
 57 66  1  0  0  0  0
 58 66  1  0  0  0  0
 59 66  1  0  0  0  0
 60 76  1  0  0  0  0
 61 77  1  0  0  0  0
 64 66  1  0  0  0  0
 64 75  1  0  0  0  0
 65 77  1  0  0  0  0
 67 69  1  0  0  0  0
M  CHG  1  77   1
M  ISO  4  37 101  43 100  76 100  84 101
M  END
> <Batch ID>
0118

> <Smiles>
C=CCc1cc(NC=CC=[101CH:1][101O:1]c2ccc3c(c2)CN(C(=O)C(NC(=O)C(C)NC)C(C)(C)C)C(C(=O)NC2CCCc4ccccc42)C3)ccc1[100N:0](C)[100C:0](=O)N1CCCC(n2nc(-c3ccc(Oc4ccc(F)cc4F)cc3)c(C(N)=O)c2N)C1

> <Shape>
0.243

> <Color>
0.102

> <Negative vol penalty>
0.000

$$$$

  -OEChem-04052301483D

 85 93  0     1  0  0  0  0  0999 V2000
  -25.0486  -35.8344   21.5865 C   0  0  0  0  0  0  0  0  0  0  0  0
  -25.7702  -34.6450   21.5972 C   0  0  0  0  0  0  0  0  0  0  0  0
  -24.2048   -9.2040   22.1949 C   0  0  0  0  0  0  0  0  0  0  0  0
  -24.1439   -8.7141   19.8299 C   0  0  0  0  0  0  0  0  0  0  0  0
  -23.7629  -35.8733   22.1244 C   0  0  0  0  0  0  0  0  0  0  0  0
  -25.2068  -33.4940   22.1469 C   0  0  0  0  0  0  0  0  0  0  0  0
  -25.9293  -29.4034   19.2504 C   0  0  0  0  0  0  0  0  0  0  0  0
  -23.1328   -8.3360   22.4023 C   0  0  0  0  0  0  0  0  0  0  0  0
  -23.0719   -7.8461   20.0373 C   0  0  0  0  0  0  0  0  0  0  0  0
  -27.1865  -28.8027   19.2992 C   0  0  0  0  0  0  0  0  0  0  0  0
  -20.6455   -5.9737   23.6056 C   0  0  0  0  0  0  0  0  0  0  0  0
  -20.7267   -5.0881   24.6801 C   0  0  0  0  0  0  0  0  0  0  0  0
  -26.4862  -21.2464   21.6034 C   0  0  0  0  0  0  0  0  0  0  0  0
  -26.3211  -27.1279   20.8044 C   0  0  0  0  0  0  0  0  0  0  0  0
  -28.7933  -22.0937   20.2835 C   0  0  0  0  0  0  0  0  0  0  0  0
  -22.7211   -4.1137   23.7263 C   0  0  0  0  0  0  0  0  0  0  0  0
  -24.7103   -9.3931   20.9086 C   0  0  0  0  0  0  0  0  0  0  0  0
  -27.4338  -20.3119   21.1857 C   0  0  0  0  0  0  0  0  0  0  0  0
  -27.1881   -9.9712   20.7242 C   0  0  0  0  0  0  0  0  0  0  0  0
  -23.1798  -34.7199   22.6723 C   0  0  0  0  0  0  0  0  0  0  0  0
  -24.8595  -28.8764   19.9881 C   0  0  0  0  0  0  0  0  0  0  0  0
  -23.9126  -33.5179   22.6939 C   0  0  0  0  0  0  0  0  0  0  0  0
  -25.0507  -27.7223   20.7612 C   0  0  0  0  0  0  0  0  0  0  0  0
  -28.5873  -20.7355   20.5258 C   0  0  0  0  0  0  0  0  0  0  0  0
  -22.5664   -7.6570   21.3235 C   0  0  0  0  0  0  0  0  0  0  0  0
  -27.3833  -27.6664   20.0786 C   0  0  0  0  0  0  0  0  0  0  0  0
  -21.6021   -5.9293   22.5913 C   0  0  0  0  0  0  0  0  0  0  0  0
  -26.6921  -22.6045   21.3610 C   0  0  0  0  0  0  0  0  0  0  0  0
  -27.8457  -23.0282   20.7012 C   0  0  0  0  0  0  0  0  0  0  0  0
  -21.7645   -4.1581   24.7405 C   0  0  0  0  0  0  0  0  0  0  0  0
  -22.6399   -4.9993   22.6517 C   0  0  0  0  0  0  0  0  0  0  0  0
  -25.8173  -10.2901   20.6937 C   0  0  0  0  0  0  0  0  0  0  0  0
  -27.8231  -11.1602   20.4607 C   0  0  0  0  0  0  0  0  0  0  0  0
  -27.1901  -18.9005   21.4534 C   0  0  0  0  0  0  0  0  0  0  0  0
  -26.1459  -18.1863   20.9862 C   0  0  0  0  0  0  0  0  0  0  0  0
  -27.8300   -8.7127   20.9689 C   0  0  0  0  0  0  0  0  0  0  0  0
  -26.0431  -16.7560   21.3391 C   0  0  0  0  0  0  0  0  0  0  0  0
  -23.0093  -29.9528   22.3379 C   0  0  0  0  0  0  0  0  0  0  0  0
  -21.4237  -27.1670   21.8403 C   0  0  0  0  0  0  0  0  0  0  0  0
  -21.4996  -23.9565   20.6854 C   0  0  0  0  0  0  0  0  0  0  0  0
  -21.8054  -34.8222   23.2848 C   0  0  0  0  0  0  0  0  0  0  0  0
  -23.5029  -29.5206   19.9037 C   0  0  0  0  0  0  0  0  0  0  0  0
  -23.9298  -27.1054   21.5558 C   0  0  0  0  0  0  0  0  0  0  0  0
  -21.1366  -33.4686   23.5100 C   0  0  0  0  0  0  0  0  0  0  0  0
  -27.2282  -15.3110   18.1865 C   0  0  0  0  0  0  0  0  0  0  0  0
  -22.1118  -32.4930   24.1611 C   0  0  0  0  0  0  0  0  0  0  0  0
  -27.0760  -13.8193   18.4716 C   0  0  0  0  0  0  0  0  0  0  0  0
  -26.1361  -16.1370   18.8644 C   0  0  0  0  0  0  0  0  0  0  0  0
  -25.8804  -14.4052   20.6181 C   0  0  0  0  0  0  0  0  0  0  0  0
  -23.3262  -32.2423   23.2589 C   0  0  1  0  0  0  0  0  0  0  0  0
  -22.6130  -29.1985   21.1003 C   0  0  1  0  0  0  0  0  0  0  0  0
  -26.9961  -13.5596   19.9843 C   0  0  1  0  0  0  0  0  0  0  0  0
  -29.6241  -19.7623   20.0642 C   0  0  0  0  0  0  0  0  0  0  0  0
  -20.0614  -21.9138   20.4481 C   0  0  0  0  0  0  0  0  0  0  0  0
  -30.1809  -27.0867   21.9202 C   0  0  0  0  0  0  0  0  0  0  0  0
  -21.7488  -26.5949   24.8197 C   0  0  0  0  0  0  0  0  0  0  0  0
  -21.1732  -24.2036   24.3523 C   0  0  0  0  0  0  0  0  0  0  0  0
  -19.5080  -26.0004   23.8818 C   0  0  0  0  0  0  0  0  0  0  0  0
  -21.7504  -23.9804   17.7366 C   0  0  0  0  0  0  0  0  0  0  0  0
  -25.9142  -24.0457   23.0854 C   0  0  0  0  0  0  0  0  0  0  0  0
  -29.2295  -24.9345   21.0278 C   0  0  0  0  0  0  0  0  0  0  0  0
  -21.5318  -25.7632   22.3851 C   0  0  1  0  0  0  0  0  0  0  0  0
  -20.5528  -23.1888   19.7806 C   0  0  2  0  0  0  0  0  0  0  0  0
  -28.9566  -26.4016   21.3358 C   0  0  2  0  0  0  0  0  0  1  0  0
  -21.0123  -25.6530   23.8464 C   0  0  0  0  0  0  0  0  0  0  0  0
  -25.5938  -11.5806   20.4316 N   0  0  0  0  0  0  0  0  0  0  0  0
  -26.8327  -12.0831   20.2952 N   0  0  0  0  0  0  0  0  0  0  0  0
  -26.0401  -15.8283   20.2990 N   0  0  0  0  0  0  0  0  0  0  0  0
  -22.6235  -27.7756   21.4457 N   0  0  0  0  0  0  0  0  0  0  0  0
  -29.1266  -11.4959   20.3569 N   0  0  0  0  0  0  0  0  0  0  0  0
  -27.0279   -7.5917   21.2225 N   0  0  0  0  0  0  0  0  0  0  0  0
  -22.9829  -31.3266   22.1921 N   0  0  0  0  0  0  0  0  0  0  0  0
  -20.8341  -24.9022   21.4363 N   0  0  0  0  0  0  0  0  0  0  0  0
  -21.2367  -22.8200   18.5089 N   0  3  0  0  0  0  0  0  0  0  0  0
  -29.0783   -8.5894   20.9790 O   0  0  0  0  0  0  0  0  0  0  0  0
  -25.9612  -16.4699   22.5350 O   0  0  0  0  0  0  0  0  0  0  0  0
  -23.3147  -29.3341   23.3507 O   0  0  0  0  0  0  0  0  0  0  0  0
  -20.3146  -27.7010   21.7609 O   0  0  0  0  0  0  0  0  0  0  0  0
  -22.7082  -23.7364   20.7251 O   0  0  0  0  0  0  0  0  0  0  0  0
  -21.5205   -6.8098   21.5256 O   0  0  0  0  0  0  0  0  0  0  0  0
  -25.7595  -23.5078   21.7736 O   0  0  0  0  0  0  0  0  0  0  0  0
  -28.0592  -24.3589   20.4575 O   0  0  0  0  0  0  0  0  0  0  0  0
  -28.6095  -27.0785   20.1285 O   0  0  0  0  0  0  0  0  0  1  0  0
  -21.8432   -3.3087   25.7732 F   0  0  0  0  0  0  0  0  0  0  0  0
  -23.5625   -4.9526   21.6809 F   0  0  0  0  0  0  0  0  0  0  0  0
  1  2  1  0  0  0  0
  1  5  2  0  0  0  0
  2  6  2  0  0  0  0
  3  8  2  0  0  0  0
  3 17  1  0  0  0  0
  4  9  1  0  0  0  0
  4 17  2  0  0  0  0
  5 20  1  0  0  0  0
  6 22  1  0  0  0  0
  7 10  2  0  0  0  0
  7 21  1  0  0  0  0
  8 25  1  0  0  0  0
  9 25  2  0  0  0  0
 10 26  1  0  0  0  0
 11 12  2  0  0  0  0
 11 27  1  0  0  0  0
 12 30  1  0  0  0  0
 13 18  2  0  0  0  0
 13 28  1  0  0  0  0
 14 23  1  0  0  0  0
 14 26  2  0  0  0  0
 15 24  2  0  0  0  0
 15 29  1  0  0  0  0
 16 30  2  0  0  0  0
 16 31  1  0  0  0  0
 17 32  1  0  0  0  0
 18 24  1  0  0  0  0
 18 34  1  0  0  0  0
 19 32  1  0  0  0  0
 19 33  2  0  0  0  0
 19 36  1  0  0  0  0
 20 22  2  0  0  0  0
 20 41  1  0  0  0  0
 21 23  2  0  0  0  0
 21 42  1  0  0  0  0
 22 50  1  0  0  0  0
 23 43  1  0  0  0  0
 24 53  1  0  0  0  0
 25 80  1  0  0  0  0
 26 83  1  0  0  0  0
 27 31  2  0  0  0  0
 27 80  1  0  0  0  0
 28 29  2  0  0  0  0
 28 81  1  0  0  0  0
 29 82  1  0  0  0  0
 30 84  1  0  0  0  0
 31 85  1  0  0  0  0
 32 66  2  0  0  0  0
 33 67  1  0  0  0  0
 33 70  1  0  0  0  0
 34 35  2  0  0  0  0
 35 37  1  0  0  0  0
 36 71  1  0  0  0  0
 36 75  2  0  0  0  0
 37 68  1  0  0  0  0
 37 76  2  0  0  0  0
 38 51  1  0  0  0  0
 38 72  1  0  0  0  0
 38 77  2  0  0  0  0
 39 62  1  0  0  0  0
 39 69  1  0  0  0  0
 39 78  2  0  0  0  0
 40 63  1  0  0  0  0
 40 73  1  0  0  0  0
 40 79  2  0  0  0  0
 41 44  1  0  0  0  0
 42 51  1  0  0  0  0
 43 69  1  0  0  0  0
 44 46  1  0  0  0  0
 45 47  1  0  0  0  0
 45 48  1  0  0  0  0
 46 50  1  0  0  0  0
 47 52  1  0  0  0  0
 48 68  1  0  0  0  0
 49 52  1  0  0  0  0
 49 68  1  0  0  0  0
 50 72  1  0  0  0  0
 51 69  1  0  0  0  0
 52 67  1  0  0  0  0
 54 63  1  0  0  0  0
 55 64  1  0  0  0  0
 56 65  1  0  0  0  0
 57 65  1  0  0  0  0
 58 65  1  0  0  0  0
 59 74  1  0  0  0  0
 60 81  1  0  0  0  0
 61 64  1  0  0  0  0
 61 82  1  0  0  0  0
 62 65  1  0  0  0  0
 62 73  1  0  0  0  0
 63 74  1  0  0  0  0
 64 83  1  0  0  0  0
 66 67  1  0  0  0  0
M  CHG  1  74   1
M  ISO  4  35 100  37 100  64 101  83 101
M  END
> <Batch ID>
0118

> <Smiles>
CNC(C)C(=O)NC(C(=O)N1Cc2cc([101O:1][101CH:1](C)COc3cc(C)c(C=[100CH:0][100C:0](=O)N4CCCC(n5nc(-c6ccc(Oc7ccc(F)cc7F)cc6)c(C(N)=O)c5N)C4)cc3OC)ccc2CC1C(=O)NC1CCCc2ccccc21)C(C)(C)C

> <Shape>
0.262

> <Color>
0.121

> <Negative vol penalty>
0.000

$$$$

  -OEChem-04052301483D

 84 92  0     1  0  0  0  0  0999 V2000
  -17.1965  -14.0023   22.2128 C   0  0  0  0  0  0  0  0  0  0  0  0
  -18.2413  -14.8281   22.6152 C   0  0  0  0  0  0  0  0  0  0  0  0
  -20.3579  -28.0316   24.0187 C   0  0  0  0  0  0  0  0  0  0  0  0
  -20.6134  -27.5378   21.6675 C   0  0  0  0  0  0  0  0  0  0  0  0
  -17.4048  -12.6300   22.0819 C   0  0  0  0  0  0  0  0  0  0  0  0
  -19.4949  -14.2817   22.8879 C   0  0  0  0  0  0  0  0  0  0  0  0
  -23.2719  -16.9769   20.8593 C   0  0  0  0  0  0  0  0  0  0  0  0
  -18.9713  -28.0307   23.8682 C   0  0  0  0  0  0  0  0  0  0  0  0
  -19.2267  -27.5368   21.5171 C   0  0  0  0  0  0  0  0  0  0  0  0
  -23.6458  -18.1464   21.5198 C   0  0  0  0  0  0  0  0  0  0  0  0
  -15.3706  -28.5136   24.0282 C   0  0  0  0  0  0  0  0  0  0  0  0
  -14.6506  -29.5451   24.6308 C   0  0  0  0  0  0  0  0  0  0  0  0
  -25.5074  -16.9806   22.5172 C   0  0  0  0  0  0  0  0  0  0  0  0
  -28.5032  -25.8167   22.1534 C   0  0  0  0  0  0  0  0  0  0  0  0
  -15.8675  -31.1640   23.3135 C   0  0  0  0  0  0  0  0  0  0  0  0
  -21.1791  -27.7852   22.9183 C   0  0  0  0  0  0  0  0  0  0  0  0
  -23.4332  -26.6891   23.3925 C   0  0  0  0  0  0  0  0  0  0  0  0
  -18.6642  -12.0678   22.3439 C   0  0  0  0  0  0  0  0  0  0  0  0
  -24.0078  -15.7957   21.0316 C   0  0  0  0  0  0  0  0  0  0  0  0
  -19.7199  -12.9004   22.7617 C   0  0  0  0  0  0  0  0  0  0  0  0
  -25.1422  -15.7982   21.8558 C   0  0  0  0  0  0  0  0  0  0  0  0
  -18.4056  -27.7832   22.6174 C   0  0  0  0  0  0  0  0  0  0  0  0
  -24.7620  -18.1476   22.3512 C   0  0  0  0  0  0  0  0  0  0  0  0
  -16.3391  -28.8072   23.0683 C   0  0  0  0  0  0  0  0  0  0  0  0
  -27.9372  -24.9324   21.2043 C   0  0  0  0  0  0  0  0  0  0  0  0
  -14.8991  -30.8703   24.2735 C   0  0  0  0  0  0  0  0  0  0  0  0
  -16.5875  -30.1325   22.7109 C   0  0  0  0  0  0  0  0  0  0  0  0
  -22.6116  -27.7867   23.0729 C   0  0  0  0  0  0  0  0  0  0  0  0
  -28.5656  -27.0463   21.5401 C   0  0  0  0  0  0  0  0  0  0  0  0
  -27.6938  -25.6847   20.0788 C   0  0  0  0  0  0  0  0  0  0  0  0
  -24.7044  -27.2086   23.4207 C   0  0  0  0  0  0  0  0  0  0  0  0
  -26.8175  -20.9234   23.3314 C   0  0  0  0  0  0  0  0  0  0  0  0
  -27.6897  -21.5398   22.5205 C   0  0  0  0  0  0  0  0  0  0  0  0
  -23.0791  -25.3223   23.6416 C   0  0  0  0  0  0  0  0  0  0  0  0
  -23.3698  -12.9037   22.1862 C   0  0  0  0  0  0  0  0  0  0  0  0
  -26.3660  -12.2479   21.1301 C   0  0  0  0  0  0  0  0  0  0  0  0
  -29.4628  -13.4128   20.2937 C   0  0  0  0  0  0  0  0  0  0  0  0
  -28.4831  -30.4906   20.7251 C   0  0  0  0  0  0  0  0  0  0  0  0
  -18.8287  -10.5726   22.2342 C   0  0  0  0  0  0  0  0  0  0  0  0
  -23.6069  -14.5494   20.2911 C   0  0  0  0  0  0  0  0  0  0  0  0
  -25.9778  -14.5616   22.0584 C   0  0  0  0  0  0  0  0  0  0  0  0
  -20.2864  -10.1226   22.1805 C   0  0  0  0  0  0  0  0  0  0  0  0
  -26.3297  -31.9883   23.3368 C   0  0  0  0  0  0  0  0  0  0  0  0
  -21.1036  -10.8301   23.2569 C   0  0  0  0  0  0  0  0  0  0  0  0
  -25.2037  -30.9641   23.4678 C   0  0  0  0  0  0  0  0  0  0  0  0
  -26.9388  -31.9858   21.9380 C   0  0  0  0  0  0  0  0  0  0  0  0
  -26.2829  -29.6231   21.6192 C   0  0  0  0  0  0  0  0  0  0  0  0
  -21.1007  -12.3485   23.0428 C   0  0  1  0  0  0  0  0  0  0  0  0
  -24.1290  -13.2729   20.9432 C   0  0  1  0  0  0  0  0  0  0  0  0
  -25.6788  -29.5676   23.0304 C   0  0  2  0  0  0  0  0  0  0  0  0
  -27.1254  -25.3724   18.7596 C   0  0  0  0  0  0  0  0  0  0  0  0
  -31.7131  -12.6334   19.5024 C   0  0  0  0  0  0  0  0  0  0  0  0
  -26.9971  -11.2290   23.9361 C   0  0  0  0  0  0  0  0  0  0  0  0
  -29.4304  -11.3649   23.3627 C   0  0  0  0  0  0  0  0  0  0  0  0
  -27.9331   -9.8330   22.0843 C   0  0  0  0  0  0  0  0  0  0  0  0
  -30.4192  -29.1114   20.0701 C   0  0  0  0  0  0  0  0  0  0  0  0
  -29.2718  -15.0108   17.8100 C   0  0  0  0  0  0  0  0  0  0  0  0
  -29.0447  -28.3651   21.9779 C   0  0  0  0  0  0  0  0  0  0  0  0
  -26.5188  -19.4611   23.2702 C   0  0  0  0  0  0  0  0  0  1  0  0
  -27.9973  -22.9999   22.5891 C   0  0  0  0  0  0  0  0  0  0  0  0
  -27.7510  -12.3290   21.7253 C   0  0  1  0  0  0  0  0  0  0  0  0
  -30.3451  -13.1513   19.0863 C   0  0  2  0  0  0  0  0  0  0  0  0
  -28.0112  -11.2119   22.7750 C   0  0  0  0  0  0  0  0  0  0  0  0
  -23.3027  -28.9180   22.9099 N   0  0  0  0  0  0  0  0  0  0  0  0
  -24.5720  -28.5341   23.1280 N   0  0  0  0  0  0  0  0  0  0  0  0
  -25.5416  -13.3664   21.3176 N   0  0  0  0  0  0  0  0  0  0  0  0
  -27.3420  -30.6395   21.5304 N   0  0  0  0  0  0  0  0  0  0  0  0
  -25.9113  -26.6562   23.6671 N   0  0  0  0  0  0  0  0  0  0  0  0
  -21.7272  -24.9590   23.5718 N   0  0  0  0  0  0  0  0  0  0  0  0
  -22.0167  -12.7112   21.9827 N   0  0  0  0  0  0  0  0  0  0  0  0
  -28.6798  -12.3200   20.6003 N   0  0  0  0  0  0  0  0  0  0  0  0
  -29.2215  -29.3069   20.8746 N   0  0  0  0  0  0  0  0  0  0  0  0
  -30.5354  -14.4046   18.3027 N   0  3  0  0  0  0  0  0  0  0  0  0
  -23.9342  -24.4524   23.9340 O   0  0  0  0  0  0  0  0  0  0  0  0
  -23.9677  -12.7997   23.2508 O   0  0  0  0  0  0  0  0  0  0  0  0
  -26.0305  -11.2326   20.5152 O   0  0  0  0  0  0  0  0  0  0  0  0
  -29.4703  -14.4784   20.9059 O   0  0  0  0  0  0  0  0  0  0  0  0
  -28.8279  -31.3700   19.9252 O   0  0  0  0  0  0  0  0  0  0  0  0
  -28.0740  -26.9744   20.2753 O   0  0  0  0  0  0  0  0  0  0  0  0
  -17.0525  -27.7819   22.4703 O   0  0  0  0  0  0  0  0  0  0  0  0
  -25.1288  -19.2876   22.9976 O   0  0  0  0  0  0  0  0  0  1  0  0
  -27.6706  -23.5946   21.3410 O   0  0  0  0  0  0  0  0  0  0  0  0
  -14.2065  -31.8607   24.8511 F   0  0  0  0  0  0  0  0  0  0  0  0
  -17.5159  -30.4207   21.7885 F   0  0  0  0  0  0  0  0  0  0  0  0
  1  2  1  0  0  0  0
  1  5  2  0  0  0  0
  2  6  2  0  0  0  0
  3  8  2  0  0  0  0
  3 16  1  0  0  0  0
  4  9  1  0  0  0  0
  4 16  2  0  0  0  0
  5 18  1  0  0  0  0
  6 20  1  0  0  0  0
  7 10  2  0  0  0  0
  7 19  1  0  0  0  0
  8 22  1  0  0  0  0
  9 22  2  0  0  0  0
 10 23  1  0  0  0  0
 11 12  2  0  0  0  0
 11 24  1  0  0  0  0
 12 26  1  0  0  0  0
 13 21  1  0  0  0  0
 13 23  2  0  0  0  0
 14 25  1  0  0  0  0
 14 29  2  0  0  0  0
 15 26  2  0  0  0  0
 15 27  1  0  0  0  0
 16 28  1  0  0  0  0
 17 28  1  0  0  0  0
 17 31  2  0  0  0  0
 17 34  1  0  0  0  0
 18 20  2  0  0  0  0
 18 39  1  0  0  0  0
 19 21  2  0  0  0  0
 19 40  1  0  0  0  0
 20 48  1  0  0  0  0
 21 41  1  0  0  0  0
 22 80  1  0  0  0  0
 23 81  1  0  0  0  0
 24 27  2  0  0  0  0
 24 80  1  0  0  0  0
 25 30  2  0  0  0  0
 25 82  1  0  0  0  0
 26 83  1  0  0  0  0
 27 84  1  0  0  0  0
 28 64  2  0  0  0  0
 29 58  1  0  0  0  0
 29 79  1  0  0  0  0
 30 51  1  0  0  0  0
 30 79  1  0  0  0  0
 31 65  1  0  0  0  0
 31 68  1  0  0  0  0
 32 33  2  0  0  0  0
 32 59  1  0  0  0  0
 33 60  1  0  0  0  0
 34 69  1  0  0  0  0
 34 74  2  0  0  0  0
 35 49  1  0  0  0  0
 35 70  1  0  0  0  0
 35 75  2  0  0  0  0
 36 61  1  0  0  0  0
 36 66  1  0  0  0  0
 36 76  2  0  0  0  0
 37 62  1  0  0  0  0
 37 71  1  0  0  0  0
 37 77  2  0  0  0  0
 38 67  1  0  0  0  0
 38 72  1  0  0  0  0
 38 78  2  0  0  0  0
 39 42  1  0  0  0  0
 40 49  1  0  0  0  0
 41 66  1  0  0  0  0
 42 44  1  0  0  0  0
 43 45  1  0  0  0  0
 43 46  1  0  0  0  0
 44 48  1  0  0  0  0
 45 50  1  0  0  0  0
 46 67  1  0  0  0  0
 47 50  1  0  0  0  0
 47 67  1  0  0  0  0
 48 70  1  0  0  0  0
 49 66  1  0  0  0  0
 50 65  1  0  0  0  0
 52 62  1  0  0  0  0
 53 63  1  0  0  0  0
 54 63  1  0  0  0  0
 55 63  1  0  0  0  0
 56 72  1  0  0  0  0
 57 73  1  0  0  0  0
 58 72  1  0  0  0  0
 59 81  1  0  0  0  0
 60 82  1  0  0  0  0
 61 63  1  0  0  0  0
 61 71  1  0  0  0  0
 62 73  1  0  0  0  0
 64 65  1  0  0  0  0
M  CHG  1  73   1
M  ISO  4  38 100  59 101  72 100  81 101
M  END
> <Batch ID>
0118

> <Smiles>
CNC(C)C(=O)NC(C(=O)N1Cc2cc([101O:1][101CH2:1]C=CCOc3cc(C[100N:0](C)[100C:0](=O)N4CCCC(n5nc(-c6ccc(Oc7ccc(F)cc7F)cc6)c(C(N)=O)c5N)C4)oc3C)ccc2CC1C(=O)NC1CCCc2ccccc21)C(C)(C)C

> <Shape>
0.217

> <Color>
0.084

> <Negative vol penalty>
0.000

$$$$

  -OEChem-04052301483D

 85 93  0     1  0  0  0  0  0999 V2000
  -35.2329  -34.9374   25.5823 C   0  0  0  0  0  0  0  0  0  0  0  0
  -34.8495  -33.7617   24.9451 C   0  0  0  0  0  0  0  0  0  0  0  0
  -23.4749   -9.4214   20.5597 C   0  0  0  0  0  0  0  0  0  0  0  0
  -24.0474  -10.0538   22.8201 C   0  0  0  0  0  0  0  0  0  0  0  0
  -34.2749  -35.7346   26.2072 C   0  0  0  0  0  0  0  0  0  0  0  0
  -33.5078  -33.3819   24.9334 C   0  0  0  0  0  0  0  0  0  0  0  0
  -30.5418  -30.4809   20.4287 C   0  0  0  0  0  0  0  0  0  0  0  0
  -22.8696   -8.2593   21.0381 C   0  0  0  0  0  0  0  0  0  0  0  0
  -23.4422   -8.8917   23.2985 C   0  0  0  0  0  0  0  0  0  0  0  0
  -30.2088  -29.1409   20.2357 C   0  0  0  0  0  0  0  0  0  0  0  0
  -23.8430   -5.2095   22.1222 C   0  0  0  0  0  0  0  0  0  0  0  0
  -24.1153   -4.0156   21.4542 C   0  0  0  0  0  0  0  0  0  0  0  0
  -29.2303  -19.9862   21.9092 C   0  0  0  0  0  0  0  0  0  0  0  0
  -28.0206  -29.5576   21.1618 C   0  0  0  0  0  0  0  0  0  0  0  0
  -31.0773  -18.2298   20.7749 C   0  0  0  0  0  0  0  0  0  0  0  0
  -21.7639   -3.7528   20.9654 C   0  0  0  0  0  0  0  0  0  0  0  0
  -24.0638  -10.3186   21.4507 C   0  0  0  0  0  0  0  0  0  0  0  0
  -28.9043  -18.6396   21.7482 C   0  0  0  0  0  0  0  0  0  0  0  0
  -24.0837  -12.7742   20.7596 C   0  0  0  0  0  0  0  0  0  0  0  0
  -32.9195  -35.3694   26.1949 C   0  0  0  0  0  0  0  0  0  0  0  0
  -29.6190  -31.3684   21.0007 C   0  0  0  0  0  0  0  0  0  0  0  0
  -32.5309  -34.1743   25.5600 C   0  0  0  0  0  0  0  0  0  0  0  0
  -28.3435  -30.9090   21.3586 C   0  0  0  0  0  0  0  0  0  0  0  0
  -29.8277  -17.7614   21.1811 C   0  0  0  0  0  0  0  0  0  0  0  0
  -22.8533   -7.9945   22.4075 C   0  0  0  0  0  0  0  0  0  0  0  0
  -28.9491  -28.6784   20.6050 C   0  0  0  0  0  0  0  0  0  0  0  0
  -22.5312   -5.6750   22.2119 C   0  0  0  0  0  0  0  0  0  0  0  0
  -30.4798  -20.4547   21.5029 C   0  0  0  0  0  0  0  0  0  0  0  0
  -23.0758   -3.2873   20.8758 C   0  0  0  0  0  0  0  0  0  0  0  0
  -31.4033  -19.5765   20.9359 C   0  0  0  0  0  0  0  0  0  0  0  0
  -21.4916   -4.9467   21.6335 C   0  0  0  0  0  0  0  0  0  0  0  0
  -24.6897  -11.5189   20.9571 C   0  0  0  0  0  0  0  0  0  0  0  0
  -25.0943  -13.5719   20.2813 C   0  0  0  0  0  0  0  0  0  0  0  0
  -26.4528  -18.6375   21.6743 C   0  0  0  0  0  0  0  0  0  0  0  0
  -27.5885  -18.1870   22.1842 C   0  0  0  0  0  0  0  0  0  0  0  0
  -22.7285  -13.1826   20.9882 C   0  0  0  0  0  0  0  0  0  0  0  0
  -29.5488  -33.1387   23.6397 C   0  0  0  0  0  0  0  0  0  0  0  0
  -26.7976  -34.2660   22.3427 C   0  0  0  0  0  0  0  0  0  0  0  0
  -24.1711  -33.7553   20.2244 C   0  0  0  0  0  0  0  0  0  0  0  0
  -30.3487  -15.4060   20.4553 C   0  0  0  0  0  0  0  0  0  0  0  0
  -31.9267  -36.2391   26.9247 C   0  0  0  0  0  0  0  0  0  0  0  0
  -29.9843  -32.8168   21.1775 C   0  0  0  0  0  0  0  0  0  0  0  0
  -27.3097  -31.8257   21.9578 C   0  0  0  0  0  0  0  0  0  0  0  0
  -30.4753  -35.9576   26.5444 C   0  0  0  0  0  0  0  0  0  0  0  0
  -29.7435  -12.3863   18.6685 C   0  0  0  0  0  0  0  0  0  0  0  0
  -30.2061  -34.4562   26.5405 C   0  0  0  0  0  0  0  0  0  0  0  0
  -28.3249  -11.9947   19.0883 C   0  0  0  0  0  0  0  0  0  0  0  0
  -30.5254  -13.0091   19.8237 C   0  0  0  0  0  0  0  0  0  0  0  0
  -28.4393  -13.7435   20.9092 C   0  0  0  0  0  0  0  0  0  0  0  0
  -31.0820  -33.7413   25.5045 C   0  0  1  0  0  0  0  0  0  0  0  0
  -29.1472  -33.5184   22.2425 C   0  0  1  0  0  0  0  0  0  0  0  0
  -27.5914  -13.1713   19.7615 C   0  0  2  0  0  0  0  0  0  0  0  0
  -22.0617  -34.8399   19.4047 C   0  0  0  0  0  0  0  0  0  0  0  0
  -25.4167  -33.5608   24.9706 C   0  0  0  0  0  0  0  0  0  0  0  0
  -23.2186  -33.7623   23.7890 C   0  0  0  0  0  0  0  0  0  0  0  0
  -24.7173  -35.7474   23.9786 C   0  0  0  0  0  0  0  0  0  0  0  0
  -25.1424  -33.7993   17.4291 C   0  0  0  0  0  0  0  0  0  0  0  0
  -29.1469  -25.0793   20.9694 C   0  0  0  0  0  0  0  0  0  0  0  0
  -30.2535  -24.0356   21.0748 C   0  0  0  0  0  0  0  0  0  0  0  0
  -29.6833  -26.4196   20.4843 C   0  0  0  0  0  0  0  0  0  1  0  0
  -29.7259  -22.7081   21.6004 C   0  0  0  0  0  0  0  0  0  0  0  0
  -25.3430  -33.8675   22.4080 C   0  0  1  0  0  0  0  0  0  0  0  0
  -23.5492  -34.6403   19.1592 C   0  0  2  0  0  0  0  0  0  0  0  0
  -24.6938  -34.2166   23.7771 C   0  0  0  0  0  0  0  0  0  0  0  0
  -25.9849  -11.5146   20.6307 N   0  0  0  0  0  0  0  0  0  0  0  0
  -26.2010  -12.7769   20.2233 N   0  0  0  0  0  0  0  0  0  0  0  0
  -27.7167  -33.2317   22.1166 N   0  0  0  0  0  0  0  0  0  0  0  0
  -29.7712  -14.1195   20.4096 N   0  0  0  0  0  0  0  0  0  0  0  0
  -25.1354  -14.8688   19.9088 N   0  0  0  0  0  0  0  0  0  0  0  0
  -21.8199  -12.2366   21.4822 N   0  0  0  0  0  0  0  0  0  0  0  0
  -29.5255  -16.3884   21.0045 N   0  0  0  0  0  0  0  0  0  0  0  0
  -30.5471  -33.9313   24.1732 N   0  0  0  0  0  0  0  0  0  0  0  0
  -24.6955  -34.4966   21.2620 N   0  0  0  0  0  0  0  0  0  0  0  0
  -23.7254  -34.0300   17.8111 N   0  3  0  0  0  0  0  0  0  0  0  0
  -22.3309  -14.3473   20.7455 O   0  0  0  0  0  0  0  0  0  0  0  0
  -28.9930  -32.1973   24.1935 O   0  0  0  0  0  0  0  0  0  0  0  0
  -27.1063  -35.4524   22.4798 O   0  0  0  0  0  0  0  0  0  0  0  0
  -24.1864  -32.5289   20.1457 O   0  0  0  0  0  0  0  0  0  0  0  0
  -31.4792  -15.6259   20.0130 O   0  0  0  0  0  0  0  0  0  0  0  0
  -22.2626   -6.8608   22.8747 O   0  0  0  0  0  0  0  0  0  0  0  0
  -28.6216  -27.3708   20.4183 O   0  0  0  0  0  0  0  0  0  1  0  0
  -30.7988  -21.7784   21.6606 O   0  0  0  0  0  0  0  0  0  0  0  0
  -23.3376   -2.1417   20.2330 F   0  0  0  0  0  0  0  0  0  0  0  0
  -32.6050  -20.0209   20.5432 F   0  0  0  0  0  0  0  0  0  0  0  0
  -20.2294   -5.3894   21.7153 F   0  0  0  0  0  0  0  0  0  0  0  0
  1  2  1  0  0  0  0
  1  5  2  0  0  0  0
  2  6  2  0  0  0  0
  3  8  2  0  0  0  0
  3 17  1  0  0  0  0
  4  9  1  0  0  0  0
  4 17  2  0  0  0  0
  5 20  1  0  0  0  0
  6 22  1  0  0  0  0
  7 10  2  0  0  0  0
  7 21  1  0  0  0  0
  8 25  1  0  0  0  0
  9 25  2  0  0  0  0
 10 26  1  0  0  0  0
 11 12  2  0  0  0  0
 11 27  1  0  0  0  0
 12 29  1  0  0  0  0
 13 18  1  0  0  0  0
 13 28  2  0  0  0  0
 14 23  1  0  0  0  0
 14 26  2  0  0  0  0
 15 24  1  0  0  0  0
 15 30  2  0  0  0  0
 16 29  2  0  0  0  0
 16 31  1  0  0  0  0
 17 32  1  0  0  0  0
 18 24  2  0  0  0  0
 18 35  1  0  0  0  0
 19 32  1  0  0  0  0
 19 33  2  0  0  0  0
 19 36  1  0  0  0  0
 20 22  2  0  0  0  0
 20 41  1  0  0  0  0
 21 23  2  0  0  0  0
 21 42  1  0  0  0  0
 22 50  1  0  0  0  0
 23 43  1  0  0  0  0
 24 71  1  0  0  0  0
 25 80  1  0  0  0  0
 26 81  1  0  0  0  0
 27 31  2  0  0  0  0
 27 80  1  0  0  0  0
 28 30  1  0  0  0  0
 28 82  1  0  0  0  0
 29 83  1  0  0  0  0
 30 84  1  0  0  0  0
 31 85  1  0  0  0  0
 32 65  2  0  0  0  0
 33 66  1  0  0  0  0
 33 69  1  0  0  0  0
 34 35  2  0  0  0  0
 36 70  1  0  0  0  0
 36 75  2  0  0  0  0
 37 51  1  0  0  0  0
 37 72  1  0  0  0  0
 37 76  2  0  0  0  0
 38 62  1  0  0  0  0
 38 67  1  0  0  0  0
 38 77  2  0  0  0  0
 39 63  1  0  0  0  0
 39 73  1  0  0  0  0
 39 78  2  0  0  0  0
 40 68  1  0  0  0  0
 40 71  1  0  0  0  0
 40 79  2  0  0  0  0
 41 44  1  0  0  0  0
 42 51  1  0  0  0  0
 43 67  1  0  0  0  0
 44 46  1  0  0  0  0
 45 47  1  0  0  0  0
 45 48  1  0  0  0  0
 46 50  1  0  0  0  0
 47 52  1  0  0  0  0
 48 68  1  0  0  0  0
 49 52  1  0  0  0  0
 49 68  1  0  0  0  0
 50 72  1  0  0  0  0
 51 67  1  0  0  0  0
 52 66  1  0  0  0  0
 53 63  1  0  0  0  0
 54 64  1  0  0  0  0
 55 64  1  0  0  0  0
 56 64  1  0  0  0  0
 57 74  1  0  0  0  0
 58 59  1  0  0  0  0
 58 60  1  0  0  0  0
 59 61  1  0  0  0  0
 60 81  1  0  0  0  0
 61 82  1  0  0  0  0
 62 64  1  0  0  0  0
 62 73  1  0  0  0  0
 63 74  1  0  0  0  0
 65 66  1  0  0  0  0
M  CHG  1  74   1
M  ISO  4  40 100  60 101  71 100  81 101
M  END
> <Batch ID>
0118

> <Smiles>
C=Cc1cc(OCCC[101CH2:1][101O:1]c2ccc3c(c2)CN(C(=O)C(NC(=O)C(C)NC)C(C)(C)C)C(C(=O)NC2CCCc4ccccc42)C3)c(F)cc1[100NH:0][100C:0](=O)N1CCCC(n2nc(-c3ccc(Oc4ccc(F)cc4F)cc3)c(C(N)=O)c2N)C1

> <Shape>
0.248

> <Color>
0.159

> <Negative vol penalty>
0.000

$$$$

  -OEChem-04052301483D

 86 95  0     1  0  0  0  0  0999 V2000
  -19.1551  -30.5146   24.6918 C   0  0  0  0  0  0  0  0  0  0  0  0
  -20.5154  -30.3010   24.4935 C   0  0  0  0  0  0  0  0  0  0  0  0
  -22.3082  -17.0563   19.8446 C   0  0  0  0  0  0  0  0  0  0  0  0
  -22.7725  -15.3346   18.2145 C   0  0  0  0  0  0  0  0  0  0  0  0
  -18.2265  -29.6090   24.1802 C   0  0  0  0  0  0  0  0  0  0  0  0
  -20.9480  -29.1810   23.7844 C   0  0  0  0  0  0  0  0  0  0  0  0
  -25.8043  -28.8250   20.0701 C   0  0  0  0  0  0  0  0  0  0  0  0
  -21.2616  -17.5255   19.0510 C   0  0  0  0  0  0  0  0  0  0  0  0
  -21.7258  -15.8038   17.4208 C   0  0  0  0  0  0  0  0  0  0  0  0
  -27.0999  -28.3478   20.2633 C   0  0  0  0  0  0  0  0  0  0  0  0
  -21.1880  -18.3405   15.2513 C   0  0  0  0  0  0  0  0  0  0  0  0
  -21.4224  -18.4754   13.8829 C   0  0  0  0  0  0  0  0  0  0  0  0
  -29.2044  -20.5182   21.2490 C   0  0  0  0  0  0  0  0  0  0  0  0
  -29.1674  -21.8643   21.7145 C   0  0  0  0  0  0  0  0  0  0  0  0
  -26.4519  -26.2239   19.3209 C   0  0  0  0  0  0  0  0  0  0  0  0
  -19.6425  -16.9076   13.4234 C   0  0  0  0  0  0  0  0  0  0  0  0
  -23.0638  -15.9608   19.4263 C   0  0  0  0  0  0  0  0  0  0  0  0
  -24.0618  -14.9915   21.5645 C   0  0  0  0  0  0  0  0  0  0  0  0
  -18.6476  -28.4825   23.4562 C   0  0  0  0  0  0  0  0  0  0  0  0
  -24.8182  -28.0002   19.5099 C   0  0  0  0  0  0  0  0  0  0  0  0
  -20.0243  -28.2587   23.2638 C   0  0  0  0  0  0  0  0  0  0  0  0
  -25.1451  -26.6938   19.1193 C   0  0  0  0  0  0  0  0  0  0  0  0
  -20.9703  -16.8993   17.8391 C   0  0  0  0  0  0  0  0  0  0  0  0
  -27.4232  -27.0462   19.8914 C   0  0  0  0  0  0  0  0  0  0  0  0
  -20.1809  -17.4890   15.7057 C   0  0  0  0  0  0  0  0  0  0  0  0
  -20.6497  -17.7590   12.9690 C   0  0  0  0  0  0  0  0  0  0  0  0
  -19.4081  -16.7726   14.7918 C   0  0  0  0  0  0  0  0  0  0  0  0
  -24.1455  -15.4760   20.2454 C   0  0  0  0  0  0  0  0  0  0  0  0
  -30.4897  -20.0949   20.9915 C   0  0  0  0  0  0  0  0  0  0  0  0
  -25.3538  -14.6585   21.8906 C   0  0  0  0  0  0  0  0  0  0  0  0
  -30.4261  -22.4186   21.7953 C   0  0  0  0  0  0  0  0  0  0  0  0
  -31.6844  -26.2987   21.7498 C   0  0  0  0  0  0  0  0  0  0  0  0
  -30.3613  -26.0786   21.7253 C   0  0  0  0  0  0  0  0  0  0  0  0
  -32.5976  -25.2755   22.3072 C   0  0  0  0  0  0  0  0  0  0  0  0
  -30.9504  -18.7834   20.5019 C   0  0  0  0  0  0  0  0  0  0  0  0
  -22.9184  -14.8545   22.4187 C   0  0  0  0  0  0  0  0  0  0  0  0
  -22.0345  -26.8357   20.5094 C   0  0  0  0  0  0  0  0  0  0  0  0
  -21.8296  -25.7635   17.4547 C   0  0  0  0  0  0  0  0  0  0  0  0
  -23.4439  -24.8615   14.5864 C   0  0  0  0  0  0  0  0  0  0  0  0
  -30.6264  -16.6191   19.7933 C   0  0  0  0  0  0  0  0  0  0  0  0
  -17.6088  -27.5065   22.9631 C   0  0  0  0  0  0  0  0  0  0  0  0
  -23.4321  -28.5386   19.2835 C   0  0  0  0  0  0  0  0  0  0  0  0
  -24.1281  -25.7748   18.4950 C   0  0  0  0  0  0  0  0  0  0  0  0
  -32.0127  -24.0023   22.8679 C   0  0  0  0  0  0  0  0  0  0  0  0
  -18.1333  -26.5434   21.9012 C   0  0  0  0  0  0  0  0  0  0  0  0
  -29.4657  -13.2078   19.9371 C   0  0  0  0  0  0  0  0  0  0  0  0
  -19.4795  -25.9639   22.3243 C   0  0  0  0  0  0  0  0  0  0  0  0
  -27.9558  -13.3624   20.1191 C   0  0  0  0  0  0  0  0  0  0  0  0
  -30.0388  -14.3106   19.0522 C   0  0  0  0  0  0  0  0  0  0  0  0
  -28.2100  -15.8501   19.7113 C   0  0  0  0  0  0  0  0  0  0  0  0
  -20.5317  -27.0687   22.4786 C   0  0  1  0  0  0  0  0  0  0  0  0
  -29.7253  -24.7850   22.2044 C   0  0  2  0  0  0  0  0  0  0  0  0
  -22.3754  -27.4433   19.1781 C   0  0  1  0  0  0  0  0  0  0  0  0
  -27.6013  -14.7722   20.6245 C   0  0  1  0  0  0  0  0  0  0  0  0
  -29.0988  -24.9575   23.5910 C   0  0  0  0  0  0  0  0  0  0  0  0
  -23.0113  -23.9917   12.2726 C   0  0  0  0  0  0  0  0  0  0  0  0
  -21.3269  -22.9796   18.5979 C   0  0  0  0  0  0  0  0  0  0  0  0
  -21.8481  -22.0340   16.3391 C   0  0  0  0  0  0  0  0  0  0  0  0
  -19.9045  -23.5708   16.6277 C   0  0  0  0  0  0  0  0  0  0  0  0
  -24.6364  -27.2638   13.3350 C   0  0  0  0  0  0  0  0  0  0  0  0
  -29.4235  -27.1183   21.1756 C   0  0  0  0  0  0  0  0  0  1  0  0
  -22.2508  -24.5067   16.7323 C   0  0  1  0  0  0  0  0  0  0  0  0
  -23.1995  -25.2306   13.1343 C   0  0  2  0  0  0  0  0  0  0  0  0
  -21.3515  -23.2892   17.0878 C   0  0  0  0  0  0  0  0  0  0  0  0
  -25.3921  -15.4547   19.7664 N   0  0  0  0  0  0  0  0  0  0  0  0
  -30.1231  -17.8228   20.2486 N   0  0  0  0  0  0  0  0  0  0  0  0
  -26.1037  -14.9528   20.7900 N   0  0  0  0  0  0  0  0  0  0  0  0
  -30.7373  -23.7128   22.2132 N   0  0  3  0  0  0  0  0  0  0  0  0
  -22.7850  -26.3454   18.3000 N   0  0  0  0  0  0  0  0  0  0  0  0
  -29.6533  -15.6338   19.5447 N   0  0  0  0  0  0  0  0  0  0  0  0
  -25.9103  -14.1458   23.0086 N   0  0  0  0  0  0  0  0  0  0  0  0
  -22.2006  -13.6512   22.3864 N   0  0  0  0  0  0  0  0  0  0  0  0
  -21.0186  -27.4877   21.1818 N   0  0  0  0  0  0  0  0  0  0  0  0
  -22.2717  -24.8397   15.3121 N   0  0  0  0  0  0  0  0  0  0  0  0
  -24.3523  -26.0067   12.5961 N   0  3  0  0  0  0  0  0  0  0  0  0
  -33.8059  -25.5025   22.3536 O   0  0  0  0  0  0  0  0  0  0  0  0
  -22.5346  -15.7782   23.1757 O   0  0  0  0  0  0  0  0  0  0  0  0
  -22.6468  -25.8475   20.8971 O   0  0  0  0  0  0  0  0  0  0  0  0
  -20.6972  -26.2165   17.2702 O   0  0  0  0  0  0  0  0  0  0  0  0
  -24.5624  -24.6136   15.0315 O   0  0  0  0  0  0  0  0  0  0  0  0
  -31.8259  -16.4022   19.6062 O   0  0  0  0  0  0  0  0  0  0  0  0
  -19.9489  -17.3567   17.0645 O   0  0  0  0  0  0  0  0  0  0  0  0
  -28.6869  -26.5778   20.0794 O   0  0  0  0  0  0  0  0  0  1  0  0
  -20.8738  -17.8899   11.6549 F   0  0  0  0  0  0  0  0  0  0  0  0
  -18.4384  -15.9541   15.2223 F   0  0  0  0  0  0  0  0  0  0  0  0
  -31.6451  -21.3178   21.3109 S   0  0  0  0  0  0  0  0  0  0  0  0
  1  2  1  0  0  0  0
  1  5  2  0  0  0  0
  2  6  2  0  0  0  0
  3  8  2  0  0  0  0
  3 17  1  0  0  0  0
  4  9  1  0  0  0  0
  4 17  2  0  0  0  0
  5 19  1  0  0  0  0
  6 21  1  0  0  0  0
  7 10  2  0  0  0  0
  7 20  1  0  0  0  0
  8 23  1  0  0  0  0
  9 23  2  0  0  0  0
 10 24  1  0  0  0  0
 11 12  2  0  0  0  0
 11 25  1  0  0  0  0
 12 26  1  0  0  0  0
 13 14  1  0  0  0  0
 13 29  2  0  0  0  0
 14 31  2  0  0  0  0
 15 22  1  0  0  0  0
 15 24  2  0  0  0  0
 16 26  2  0  0  0  0
 16 27  1  0  0  0  0
 17 28  1  0  0  0  0
 18 28  1  0  0  0  0
 18 30  2  0  0  0  0
 18 36  1  0  0  0  0
 19 21  2  0  0  0  0
 19 41  1  0  0  0  0
 20 22  2  0  0  0  0
 20 42  1  0  0  0  0
 21 51  1  0  0  0  0
 22 43  1  0  0  0  0
 23 82  1  0  0  0  0
 24 83  1  0  0  0  0
 25 27  2  0  0  0  0
 25 82  1  0  0  0  0
 26 84  1  0  0  0  0
 27 85  1  0  0  0  0
 28 65  2  0  0  0  0
 29 35  1  0  0  0  0
 29 86  1  0  0  0  0
 30 67  1  0  0  0  0
 30 71  1  0  0  0  0
 31 68  1  0  0  0  0
 31 86  1  0  0  0  0
 32 33  2  0  0  0  0
 32 34  1  0  0  0  0
 33 52  1  0  0  0  0
 33 61  1  0  0  0  0
 34 44  1  0  0  0  0
 34 76  2  0  0  0  0
 35 66  2  0  0  0  0
 36 72  1  0  0  0  0
 36 77  2  0  0  0  0
 37 53  1  0  0  0  0
 37 73  1  0  0  0  0
 37 78  2  0  0  0  0
 38 62  1  0  0  0  0
 38 69  1  0  0  0  0
 38 79  2  0  0  0  0
 39 63  1  0  0  0  0
 39 74  1  0  0  0  0
 39 80  2  0  0  0  0
 40 66  1  0  0  0  0
 40 70  1  0  0  0  0
 40 81  2  0  0  0  0
 41 45  1  0  0  0  0
 42 53  1  0  0  0  0
 43 69  1  0  0  0  0
 44 68  1  0  0  0  0
 45 47  1  0  0  0  0
 46 48  1  0  0  0  0
 46 49  1  0  0  0  0
 47 51  1  0  0  0  0
 48 54  1  0  0  0  0
 49 70  1  0  0  0  0
 50 54  1  0  0  0  0
 50 70  1  0  0  0  0
 51 73  1  0  0  0  0
 52 55  1  0  0  0  0
 52 68  1  0  0  0  0
 53 69  1  0  0  0  0
 54 67  1  0  0  0  0
 56 63  1  0  0  0  0
 57 64  1  0  0  0  0
 58 64  1  0  0  0  0
 59 64  1  0  0  0  0
 60 75  1  0  0  0  0
 61 83  1  0  0  0  0
 62 64  1  0  0  0  0
 62 74  1  0  0  0  0
 63 75  1  0  0  0  0
 65 67  1  0  0  0  0
M  CHG  1  75   1
M  ISO  4  40 100  61 101  66 100  83 101
M  END
> <Batch ID>
0118

> <Smiles>
CNC(C)C(=O)NC(C(=O)N1Cc2cc([101O:1][101CH2:1]C3=C(C)N(c4ccc(C=[100N:0][100C:0](=O)N5CCCC(n6nc(-c7ccc(Oc8ccc(F)cc8F)cc7)c(C(N)=O)c6N)C5)s4)CC(=O)C3)ccc2CC1C(=O)NC1CCCc2ccccc21)C(C)(C)C

> <Shape>
0.194

> <Color>
0.080

> <Negative vol penalty>
0.000

$$$$

  -OEChem-04052301483D

 85 93  0     1  0  0  0  0  0999 V2000
  -26.9068  -17.9780   16.8373 C   0  0  0  0  0  0  0  0  0  0  0  0
  -26.5852  -19.2544   16.3870 C   0  0  0  0  0  0  0  0  0  0  0  0
  -23.1483  -13.9359   21.3731 C   0  0  0  0  0  0  0  0  0  0  0  0
  -25.0287  -14.9316   22.5176 C   0  0  0  0  0  0  0  0  0  0  0  0
  -27.0769  -17.7435   18.2011 C   0  0  0  0  0  0  0  0  0  0  0  0
  -26.4324  -20.2968   17.3004 C   0  0  0  0  0  0  0  0  0  0  0  0
  -27.4306  -27.3629   17.9256 C   0  0  0  0  0  0  0  0  0  0  0  0
  -23.9902  -12.9607   20.8383 C   0  0  0  0  0  0  0  0  0  0  0  0
  -25.8705  -13.9564   21.9829 C   0  0  0  0  0  0  0  0  0  0  0  0
  -26.7432  -28.5197   18.2903 C   0  0  0  0  0  0  0  0  0  0  0  0
  -28.5782  -11.9430   20.6322 C   0  0  0  0  0  0  0  0  0  0  0  0
  -29.8013  -12.3596   20.1067 C   0  0  0  0  0  0  0  0  0  0  0  0
  -27.1390  -28.0145   20.6157 C   0  0  0  0  0  0  0  0  0  0  0  0
  -20.9431  -27.1368   23.0872 C   0  0  0  0  0  0  0  0  0  0  0  0
  -18.8453  -26.0564   22.5689 C   0  0  0  0  0  0  0  0  0  0  0  0
  -19.2889  -28.2872   21.7541 C   0  0  0  0  0  0  0  0  0  0  0  0
  -28.6408  -13.7573   18.5140 C   0  0  0  0  0  0  0  0  0  0  0  0
  -23.6676  -14.9214   22.2127 C   0  0  0  0  0  0  0  0  0  0  0  0
  -22.0911  -15.8686   23.9805 C   0  0  0  0  0  0  0  0  0  0  0  0
  -26.9357  -18.7857   19.1309 C   0  0  0  0  0  0  0  0  0  0  0  0
  -27.9689  -26.5161   18.9052 C   0  0  0  0  0  0  0  0  0  0  0  0
  -26.5995  -20.0758   18.6781 C   0  0  0  0  0  0  0  0  0  0  0  0
  -27.8351  -26.8489   20.2607 C   0  0  0  0  0  0  0  0  0  0  0  0
  -20.0960  -26.0331   23.1861 C   0  0  0  0  0  0  0  0  0  0  0  0
  -20.5396  -28.2639   22.3712 C   0  0  0  0  0  0  0  0  0  0  0  0
  -25.3513  -12.9709   21.1433 C   0  0  0  0  0  0  0  0  0  0  0  0
  -26.5947  -28.8441   19.6356 C   0  0  0  0  0  0  0  0  0  0  0  0
  -27.3864  -12.4334   20.0985 C   0  0  0  0  0  0  0  0  0  0  0  0
  -29.8326  -13.2668   19.0476 C   0  0  0  0  0  0  0  0  0  0  0  0
  -18.4417  -27.1834   21.8529 C   0  0  0  0  0  0  0  0  0  0  0  0
  -27.4177  -13.3406   19.0394 C   0  0  0  0  0  0  0  0  0  0  0  0
  -22.7986  -15.9293   22.7649 C   0  0  0  0  0  0  0  0  0  0  0  0
  -21.4187  -17.0644   24.0465 C   0  0  0  0  0  0  0  0  0  0  0  0
  -22.0458  -14.8246   24.9622 C   0  0  0  0  0  0  0  0  0  0  0  0
  -27.4941  -23.4926   19.7635 C   0  0  0  0  0  0  0  0  0  0  0  0
  -30.0055  -24.0660   21.7349 C   0  0  0  0  0  0  0  0  0  0  0  0
  -22.6696  -29.5305   22.8198 C   0  0  0  0  0  0  0  0  0  0  0  0
  -31.8840  -26.3439   23.4464 C   0  0  0  0  0  0  0  0  0  0  0  0
  -21.3541  -22.5169   23.5851 C   0  0  0  0  0  0  0  0  0  0  0  0
  -27.0828  -18.4736   20.5991 C   0  0  0  0  0  0  0  0  0  0  0  0
  -28.7308  -25.2860   18.4945 C   0  0  0  0  0  0  0  0  0  0  0  0
  -28.4118  -25.9838   21.3504 C   0  0  0  0  0  0  0  0  0  0  0  0
  -27.2717  -19.7134   21.4694 C   0  0  0  0  0  0  0  0  0  0  0  0
  -20.7256  -20.6520   20.5479 C   0  0  0  0  0  0  0  0  0  0  0  0
  -26.2606  -20.7908   21.0905 C   0  0  0  0  0  0  0  0  0  0  0  0
  -21.1546  -19.2431   20.9618 C   0  0  0  0  0  0  0  0  0  0  0  0
  -21.6359  -21.7104   21.1638 C   0  0  0  0  0  0  0  0  0  0  0  0
  -22.1712  -20.2357   23.0645 C   0  0  0  0  0  0  0  0  0  0  0  0
  -26.4498  -21.2378   19.6359 C   0  0  1  0  0  0  0  0  0  0  0  0
  -28.7932  -24.2277   19.5916 C   0  0  1  0  0  0  0  0  0  0  0  0
  -21.2762  -19.1214   22.4924 C   0  0  2  0  0  0  0  0  0  0  0  0
  -33.8473  -26.5083   25.0007 C   0  0  0  0  0  0  0  0  0  0  0  0
  -28.2624  -23.0803   24.0371 C   0  0  0  0  0  0  0  0  0  0  0  0
  -29.8826  -24.1391   25.6252 C   0  0  0  0  0  0  0  0  0  0  0  0
  -30.6370  -22.2998   24.1182 C   0  0  0  0  0  0  0  0  0  0  0  0
  -33.4144  -27.9949   21.5253 C   0  0  0  0  0  0  0  0  0  0  0  0
  -20.5273  -24.8276   23.9510 C   0  0  0  0  0  0  0  0  0  0  0  0
  -23.2477  -30.8949   22.4705 C   0  0  0  0  0  0  0  0  0  0  0  0
  -24.0379  -30.8816   21.1665 C   0  0  0  0  0  0  0  0  0  0  0  0
  -25.2386  -29.9502   21.2461 C   0  0  0  0  0  0  0  0  0  1  0  0
  -30.1618  -24.5841   23.1442 C   0  0  1  0  0  0  0  0  0  0  0  0
  -33.3863  -26.5350   23.5518 C   0  0  2  0  0  0  0  0  0  0  0  0
  -29.7233  -23.5413   24.2109 C   0  0  0  0  0  0  0  0  0  0  0  0
  -22.5945  -17.0731   22.1061 N   0  0  0  0  0  0  0  0  0  0  0  0
  -21.7511  -17.7422   22.9106 N   0  0  0  0  0  0  0  0  0  0  0  0
  -29.1427  -24.7883   20.8984 N   0  0  0  0  0  0  0  0  0  0  0  0
  -21.6935  -21.5505   22.6237 N   0  0  0  0  0  0  0  0  0  0  0  0
  -20.5814  -17.5917   24.9649 N   0  0  0  0  0  0  0  0  0  0  0  0
  -22.7970  -13.6629   24.7372 N   0  0  0  0  0  0  0  0  0  0  0  0
  -21.3987  -29.3840   22.2710 N   0  0  0  0  0  0  0  0  0  0  0  0
  -27.5807  -22.1341   19.5256 N   0  0  0  0  0  0  0  0  0  0  0  0
  -31.5490  -25.0183   23.2680 N   0  0  0  0  0  0  0  0  0  0  0  0
  -20.9174  -23.7375   23.0848 N   0  0  0  0  0  0  0  0  0  0  0  0
  -33.7853  -27.8413   22.9556 N   0  3  0  0  0  0  0  0  0  0  0  0
  -21.3467  -14.9123   26.0000 O   0  0  0  0  0  0  0  0  0  0  0  0
  -26.4881  -24.1117   20.0893 O   0  0  0  0  0  0  0  0  0  0  0  0
  -30.6315  -23.0618   21.3868 O   0  0  0  0  0  0  0  0  0  0  0  0
  -23.2876  -28.7152   23.4963 O   0  0  0  0  0  0  0  0  0  0  0  0
  -31.0871  -27.2768   23.5192 O   0  0  0  0  0  0  0  0  0  0  0  0
  -21.4295  -22.3058   24.8004 O   0  0  0  0  0  0  0  0  0  0  0  0
  -26.1730  -12.0194   20.6218 O   0  0  0  0  0  0  0  0  0  0  0  0
  -25.9236  -29.9723   19.9944 O   0  0  0  0  0  0  0  0  0  1  0  0
  -31.0072  -13.6680   18.5441 F   0  0  0  0  0  0  0  0  0  0  0  0
  -17.2407  -27.2056   21.2603 F   0  0  0  0  0  0  0  0  0  0  0  0
  -26.2761  -13.8162   18.5234 F   0  0  0  0  0  0  0  0  0  0  0  0
  1  2  1  0  0  0  0
  1  5  2  0  0  0  0
  2  6  2  0  0  0  0
  3  8  2  0  0  0  0
  3 18  1  0  0  0  0
  4  9  1  0  0  0  0
  4 18  2  0  0  0  0
  5 20  1  0  0  0  0
  6 22  1  0  0  0  0
  7 10  2  0  0  0  0
  7 21  1  0  0  0  0
  8 26  1  0  0  0  0
  9 26  2  0  0  0  0
 10 27  1  0  0  0  0
 11 12  2  0  0  0  0
 11 28  1  0  0  0  0
 12 29  1  0  0  0  0
 13 23  1  0  0  0  0
 13 27  2  0  0  0  0
 14 24  1  0  0  0  0
 14 25  2  0  0  0  0
 15 24  2  0  0  0  0
 15 30  1  0  0  0  0
 16 25  1  0  0  0  0
 16 30  2  0  0  0  0
 17 29  2  0  0  0  0
 17 31  1  0  0  0  0
 18 32  1  0  0  0  0
 19 32  1  0  0  0  0
 19 33  2  0  0  0  0
 19 34  1  0  0  0  0
 20 22  2  0  0  0  0
 20 40  1  0  0  0  0
 21 23  2  0  0  0  0
 21 41  1  0  0  0  0
 22 49  1  0  0  0  0
 23 42  1  0  0  0  0
 24 57  1  0  0  0  0
 25 70  1  0  0  0  0
 26 81  1  0  0  0  0
 27 82  1  0  0  0  0
 28 31  2  0  0  0  0
 28 81  1  0  0  0  0
 29 83  1  0  0  0  0
 30 84  1  0  0  0  0
 31 85  1  0  0  0  0
 32 64  2  0  0  0  0
 33 65  1  0  0  0  0
 33 68  1  0  0  0  0
 34 69  1  0  0  0  0
 34 75  2  0  0  0  0
 35 50  1  0  0  0  0
 35 71  1  0  0  0  0
 35 76  2  0  0  0  0
 36 61  1  0  0  0  0
 36 66  1  0  0  0  0
 36 77  2  0  0  0  0
 37 58  1  0  0  0  0
 37 70  1  0  0  0  0
 37 78  2  0  0  0  0
 38 62  1  0  0  0  0
 38 72  1  0  0  0  0
 38 79  2  0  0  0  0
 39 67  1  0  0  0  0
 39 73  1  0  0  0  0
 39 80  2  0  0  0  0
 40 43  1  0  0  0  0
 41 50  1  0  0  0  0
 42 66  1  0  0  0  0
 43 45  1  0  0  0  0
 44 46  1  0  0  0  0
 44 47  1  0  0  0  0
 45 49  1  0  0  0  0
 46 51  1  0  0  0  0
 47 67  1  0  0  0  0
 48 51  1  0  0  0  0
 48 67  1  0  0  0  0
 49 71  1  0  0  0  0
 50 66  1  0  0  0  0
 51 65  1  0  0  0  0
 52 62  1  0  0  0  0
 53 63  1  0  0  0  0
 54 63  1  0  0  0  0
 55 63  1  0  0  0  0
 56 74  1  0  0  0  0
 57 73  1  0  0  0  0
 58 59  1  0  0  0  0
 59 60  1  0  0  0  0
 60 82  1  0  0  0  0
 61 63  1  0  0  0  0
 61 72  1  0  0  0  0
 62 74  1  0  0  0  0
 64 65  1  0  0  0  0
M  CHG  1  74   1
M  ISO  4  39 100  60 101  73 100  82 101
M  END
> <Batch ID>
0118

> <Smiles>
CNC(C)C(=O)NC(C(=O)N1Cc2cc([101O:1][101CH2:1]CCC(=O)Nc3cc(F)cc(C[100NH:0][100C:0](=O)N4CCCC(n5nc(-c6ccc(Oc7ccc(F)cc7F)cc6)c(C(N)=O)c5N)C4)c3)ccc2CC1C(=O)NC1CCCc2ccccc21)C(C)(C)C

> <Shape>
0.202

> <Color>
0.085

> <Negative vol penalty>
0.000

$$$$

  -OEChem-04052301483D

 80 88  0     1  0  0  0  0  0999 V2000
  -39.5737  -24.8079   31.7838 C   0  0  0  0  0  0  0  0  0  0  0  0
  -39.0485  -23.8304   30.9447 C   0  0  0  0  0  0  0  0  0  0  0  0
  -23.0001   -9.8942   19.9809 C   0  0  0  0  0  0  0  0  0  0  0  0
  -23.7251   -9.9446   22.2850 C   0  0  0  0  0  0  0  0  0  0  0  0
  -39.7094  -26.1180   31.3266 C   0  0  0  0  0  0  0  0  0  0  0  0
  -38.6576  -24.1629   29.6481 C   0  0  0  0  0  0  0  0  0  0  0  0
  -39.0699  -20.6340   24.6598 C   0  0  0  0  0  0  0  0  0  0  0  0
  -22.2333   -8.7598   20.2470 C   0  0  0  0  0  0  0  0  0  0  0  0
  -22.9583   -8.8102   22.5511 C   0  0  0  0  0  0  0  0  0  0  0  0
  -38.1396  -19.8350   23.9966 C   0  0  0  0  0  0  0  0  0  0  0  0
  -23.2020   -5.4713   22.0787 C   0  0  0  0  0  0  0  0  0  0  0  0
  -23.7893   -4.4539   22.8306 C   0  0  0  0  0  0  0  0  0  0  0  0
  -31.8208  -17.4757   21.6970 C   0  0  0  0  0  0  0  0  0  0  0  0
  -37.6934  -21.6404   22.4601 C   0  0  0  0  0  0  0  0  0  0  0  0
  -22.0653   -4.6969   24.5058 C   0  0  0  0  0  0  0  0  0  0  0  0
  -23.7460  -10.4866   20.9999 C   0  0  0  0  0  0  0  0  0  0  0  0
  -31.9203  -18.7493   22.3282 C   0  0  0  0  0  0  0  0  0  0  0  0
  -24.1319  -13.0021   20.8243 C   0  0  0  0  0  0  0  0  0  0  0  0
  -39.3290  -26.4646   30.0206 C   0  0  0  0  0  0  0  0  0  0  0  0
  -39.3114  -21.9482   24.2341 C   0  0  0  0  0  0  0  0  0  0  0  0
  -38.7871  -25.4792   29.1734 C   0  0  0  0  0  0  0  0  0  0  0  0
  -38.6291  -22.4532   23.1181 C   0  0  0  0  0  0  0  0  0  0  0  0
  -22.2124   -8.2178   21.5321 C   0  0  0  0  0  0  0  0  0  0  0  0
  -37.4490  -20.3391   22.8983 C   0  0  0  0  0  0  0  0  0  0  0  0
  -22.0464   -6.1016   22.5403 C   0  0  0  0  0  0  0  0  0  0  0  0
  -23.2210   -4.0666   24.0442 C   0  0  0  0  0  0  0  0  0  0  0  0
  -21.4781   -5.7144   23.7538 C   0  0  0  0  0  0  0  0  0  0  0  0
  -24.5388  -11.6581   20.7255 C   0  0  0  0  0  0  0  0  0  0  0  0
  -30.7676  -19.0831   23.0045 C   0  0  0  0  0  0  0  0  0  0  0  0
  -25.2418  -13.7246   20.4601 C   0  0  0  0  0  0  0  0  0  0  0  0
  -30.5957  -16.8845   21.9153 C   0  0  0  0  0  0  0  0  0  0  0  0
  -33.1086  -19.6170   22.2723 C   0  0  0  0  0  0  0  0  0  0  0  0
  -34.2561  -19.3187   21.6434 C   0  0  0  0  0  0  0  0  0  0  0  0
  -22.8640  -13.5487   21.2108 C   0  0  0  0  0  0  0  0  0  0  0  0
  -38.9794  -24.8263   25.5417 C   0  0  0  0  0  0  0  0  0  0  0  0
  -40.4501  -25.8034   22.8205 C   0  0  0  0  0  0  0  0  0  0  0  0
  -41.1993  -25.1836   19.5492 C   0  0  0  0  0  0  0  0  0  0  0  0
  -30.7215  -14.6844   20.6947 C   0  0  0  0  0  0  0  0  0  0  0  0
  -39.4506  -27.9040   29.5869 C   0  0  0  0  0  0  0  0  0  0  0  0
  -40.3375  -22.7882   24.9439 C   0  0  0  0  0  0  0  0  0  0  0  0
  -38.8667  -23.8506   22.6088 C   0  0  0  0  0  0  0  0  0  0  0  0
  -39.3612  -28.0942   28.0749 C   0  0  0  0  0  0  0  0  0  0  0  0
  -29.6028  -12.2323   18.3681 C   0  0  0  0  0  0  0  0  0  0  0  0
  -38.1918  -27.2977   27.5048 C   0  0  0  0  0  0  0  0  0  0  0  0
  -28.1521  -11.9749   18.7821 C   0  0  0  0  0  0  0  0  0  0  0  0
  -30.5033  -12.4752   19.5780 C   0  0  0  0  0  0  0  0  0  0  0  0
  -28.5880  -13.2642   20.9116 C   0  0  0  0  0  0  0  0  0  0  0  0
  -38.3748  -25.7954   27.7521 C   0  0  1  0  0  0  0  0  0  0  0  0
  -40.1291  -24.2855   24.7395 C   0  0  1  0  0  0  0  0  0  0  0  0
  -27.6304  -13.0783   19.7233 C   0  0  2  0  0  0  0  0  0  0  0  0
  -30.4584  -20.3038   23.7854 C   0  0  0  0  0  0  0  0  0  0  0  0
  -42.3842  -26.1836   17.5760 C   0  0  0  0  0  0  0  0  0  0  0  0
  -38.1237  -27.7335   22.4048 C   0  0  0  0  0  0  0  0  0  0  0  0
  -38.8556  -27.9933   20.0247 C   0  0  0  0  0  0  0  0  0  0  0  0
  -40.3756  -28.6850   21.8777 C   0  0  0  0  0  0  0  0  0  0  0  0
  -43.0930  -22.9148   19.3895 C   0  0  0  0  0  0  0  0  0  0  0  0
  -35.4429  -20.2279   21.6259 C   0  0  0  0  0  0  0  0  0  1  0  0
  -39.9867  -26.2243   21.4468 C   0  0  1  0  0  0  0  0  0  0  0  0
  -42.5068  -25.2656   18.7823 C   0  0  2  0  0  0  0  0  0  0  0  0
  -39.3293  -27.6333   21.4490 C   0  0  0  0  0  0  0  0  0  0  0  0
  -25.8080  -11.5314   20.3294 N   0  0  0  0  0  0  0  0  0  0  0  0
  -26.2083  -12.8051   20.1760 N   0  0  0  0  0  0  0  0  0  0  0  0
  -39.8752  -24.6350   23.3403 N   0  0  0  0  0  0  0  0  0  0  0  0
  -29.9484  -13.5361   20.4215 N   0  0  0  0  0  0  0  0  0  0  0  0
  -25.4755  -15.0502   20.3583 N   0  0  0  0  0  0  0  0  0  0  0  0
  -21.8320  -12.6647   21.5542 N   0  0  0  0  0  0  0  0  0  0  0  0
  -30.0774  -15.6396   21.4804 N   0  0  0  0  0  0  0  0  0  0  0  0
  -39.3264  -25.2409   26.8133 N   0  0  0  0  0  0  0  0  0  0  0  0
  -41.1476  -26.1080   20.5710 N   0  0  0  0  0  0  0  0  0  0  0  0
  -42.9129  -23.9136   18.3046 N   0  3  0  0  0  0  0  0  0  0  0  0
  -22.6475  -14.7841   21.2348 O   0  0  0  0  0  0  0  0  0  0  0  0
  -37.8606  -24.8660   25.0432 O   0  0  0  0  0  0  0  0  0  0  0  0
  -41.2963  -26.4822   23.4076 O   0  0  0  0  0  0  0  0  0  0  0  0
  -40.3110  -24.3822   19.2676 O   0  0  0  0  0  0  0  0  0  0  0  0
  -31.8602  -14.8232   20.2407 O   0  0  0  0  0  0  0  0  0  0  0  0
  -21.4641   -7.1110   21.7922 O   0  0  0  0  0  0  0  0  0  0  0  0
  -36.5400  -19.5616   22.2495 O   0  0  0  0  0  0  0  0  0  1  0  0
  -23.7842   -3.0885   24.7655 F   0  0  0  0  0  0  0  0  0  0  0  0
  -20.3673   -6.3154   24.2018 F   0  0  0  0  0  0  0  0  0  0  0  0
  -29.5720  -17.8638   22.8773 S   0  0  0  0  0  0  0  0  0  0  0  0
  1  2  1  0  0  0  0
  1  5  2  0  0  0  0
  2  6  2  0  0  0  0
  3  8  2  0  0  0  0
  3 16  1  0  0  0  0
  4  9  1  0  0  0  0
  4 16  2  0  0  0  0
  5 19  1  0  0  0  0
  6 21  1  0  0  0  0
  7 10  2  0  0  0  0
  7 20  1  0  0  0  0
  8 23  1  0  0  0  0
  9 23  2  0  0  0  0
 10 24  1  0  0  0  0
 11 12  2  0  0  0  0
 11 25  1  0  0  0  0
 12 26  1  0  0  0  0
 13 17  1  0  0  0  0
 13 31  2  0  0  0  0
 14 22  1  0  0  0  0
 14 24  2  0  0  0  0
 15 26  2  0  0  0  0
 15 27  1  0  0  0  0
 16 28  1  0  0  0  0
 17 29  2  0  0  0  0
 17 32  1  0  0  0  0
 18 28  1  0  0  0  0
 18 30  2  0  0  0  0
 18 34  1  0  0  0  0
 19 21  2  0  0  0  0
 19 39  1  0  0  0  0
 20 22  2  0  0  0  0
 20 40  1  0  0  0  0
 21 48  1  0  0  0  0
 22 41  1  0  0  0  0
 23 76  1  0  0  0  0
 24 77  1  0  0  0  0
 25 27  2  0  0  0  0
 25 76  1  0  0  0  0
 26 78  1  0  0  0  0
 27 79  1  0  0  0  0
 28 61  2  0  0  0  0
 29 51  1  0  0  0  0
 29 80  1  0  0  0  0
 30 62  1  0  0  0  0
 30 65  1  0  0  0  0
 31 67  1  0  0  0  0
 31 80  1  0  0  0  0
 32 33  2  0  0  0  0
 33 57  1  0  0  0  0
 34 66  1  0  0  0  0
 34 71  2  0  0  0  0
 35 49  1  0  0  0  0
 35 68  1  0  0  0  0
 35 72  2  0  0  0  0
 36 58  1  0  0  0  0
 36 63  1  0  0  0  0
 36 73  2  0  0  0  0
 37 59  1  0  0  0  0
 37 69  1  0  0  0  0
 37 74  2  0  0  0  0
 38 64  1  0  0  0  0
 38 67  1  0  0  0  0
 38 75  2  0  0  0  0
 39 42  1  0  0  0  0
 40 49  1  0  0  0  0
 41 63  1  0  0  0  0
 42 44  1  0  0  0  0
 43 45  1  0  0  0  0
 43 46  1  0  0  0  0
 44 48  1  0  0  0  0
 45 50  1  0  0  0  0
 46 64  1  0  0  0  0
 47 50  1  0  0  0  0
 47 64  1  0  0  0  0
 48 68  1  0  0  0  0
 49 63  1  0  0  0  0
 50 62  1  0  0  0  0
 52 59  1  0  0  0  0
 53 60  1  0  0  0  0
 54 60  1  0  0  0  0
 55 60  1  0  0  0  0
 56 70  1  0  0  0  0
 57 77  1  0  0  0  0
 58 60  1  0  0  0  0
 58 69  1  0  0  0  0
 59 70  1  0  0  0  0
 61 62  1  0  0  0  0
M  CHG  1  70   1
M  ISO  4  38 100  57 101  67 100  77 101
M  END
> <Batch ID>
0118

> <Smiles>
CNC(C)C(=O)NC(C(=O)N1Cc2cc([101O:1][101CH2:1]C=Cc3cc([100NH:0][100C:0](=O)N4CCCC(n5nc(-c6ccc(Oc7ccc(F)cc7F)cc6)c(C(N)=O)c5N)C4)sc3C)ccc2CC1C(=O)NC1CCCc2ccccc21)C(C)(C)C

> <Shape>
0.176

> <Color>
0.206

> <Negative vol penalty>
0.000

$$$$

  -OEChem-04052301483D

 83 91  0     1  0  0  0  0  0999 V2000
  -15.4532  -26.4609   26.3893 C   0  0  0  0  0  0  0  0  0  0  0  0
  -16.2486  -25.4053   25.9551 C   0  0  0  0  0  0  0  0  0  0  0  0
  -22.9724   -9.9550   20.0520 C   0  0  0  0  0  0  0  0  0  0  0  0
  -23.7774  -10.0069   22.3294 C   0  0  0  0  0  0  0  0  0  0  0  0
  -15.5825  -27.7179   25.8001 C   0  0  0  0  0  0  0  0  0  0  0  0
  -17.1730  -25.6059   24.9305 C   0  0  0  0  0  0  0  0  0  0  0  0
  -22.6616  -22.9514   24.3525 C   0  0  0  0  0  0  0  0  0  0  0  0
  -22.1835   -8.8456   20.3561 C   0  0  0  0  0  0  0  0  0  0  0  0
  -22.9884   -8.8976   22.6336 C   0  0  0  0  0  0  0  0  0  0  0  0
  -23.1025  -21.8623   23.6020 C   0  0  0  0  0  0  0  0  0  0  0  0
  -19.7407   -8.2666   23.3230 C   0  0  0  0  0  0  0  0  0  0  0  0
  -19.0062   -8.3010   24.5082 C   0  0  0  0  0  0  0  0  0  0  0  0
  -28.3261  -18.8505   19.9900 C   0  0  0  0  0  0  0  0  0  0  0  0
  -29.9962  -17.1195   19.7626 C   0  0  0  0  0  0  0  0  0  0  0  0
  -23.8493  -23.3659   21.8698 C   0  0  0  0  0  0  0  0  0  0  0  0
  -20.1752   -6.3363   25.2897 C   0  0  0  0  0  0  0  0  0  0  0  0
  -23.7695  -10.5356   21.0386 C   0  0  0  0  0  0  0  0  0  0  0  0
  -27.9569  -18.3312   21.2308 C   0  0  0  0  0  0  0  0  0  0  0  0
  -29.6270  -16.6003   21.0034 C   0  0  0  0  0  0  0  0  0  0  0  0
  -24.2201  -13.0372   20.8233 C   0  0  0  0  0  0  0  0  0  0  0  0
  -16.5157  -27.9364   24.7744 C   0  0  0  0  0  0  0  0  0  0  0  0
  -22.8017  -24.2575   23.8616 C   0  0  0  0  0  0  0  0  0  0  0  0
  -17.3139  -26.8667   24.3261 C   0  0  0  0  0  0  0  0  0  0  0  0
  -23.4118  -24.4701   22.6171 C   0  0  0  0  0  0  0  0  0  0  0  0
  -22.1914   -8.3169   21.6469 C   0  0  0  0  0  0  0  0  0  0  0  0
  -23.6938  -22.0693   22.3592 C   0  0  0  0  0  0  0  0  0  0  0  0
  -20.6925   -7.2670   23.1210 C   0  0  0  0  0  0  0  0  0  0  0  0
  -28.6073  -17.2061   21.7376 C   0  0  0  0  0  0  0  0  0  0  0  0
  -19.2235   -7.3359   25.4916 C   0  0  0  0  0  0  0  0  0  0  0  0
  -29.3458  -18.2446   19.2558 C   0  0  0  0  0  0  0  0  0  0  0  0
  -20.9097   -6.3019   24.1044 C   0  0  0  0  0  0  0  0  0  0  0  0
  -24.5851  -11.6812   20.7250 C   0  0  0  0  0  0  0  0  0  0  0  0
  -25.3368  -13.7240   20.4138 C   0  0  0  0  0  0  0  0  0  0  0  0
  -26.8775  -18.9908   21.9845 C   0  0  0  0  0  0  0  0  0  0  0  0
  -25.6213  -19.1653   21.5452 C   0  0  0  0  0  0  0  0  0  0  0  0
  -30.3223  -15.4254   21.5117 C   0  0  0  0  0  0  0  0  0  0  0  0
  -22.9822  -13.6236   21.2470 C   0  0  0  0  0  0  0  0  0  0  0  0
  -30.8857  -14.4082   20.5946 C   0  0  0  0  0  0  0  0  0  0  0  0
  -20.7874  -26.5941   23.0958 C   0  0  0  0  0  0  0  0  0  0  0  0
  -23.5220  -28.2924   22.6959 C   0  0  0  0  0  0  0  0  0  0  0  0
  -26.8761  -28.2771   22.0663 C   0  0  0  0  0  0  0  0  0  0  0  0
  -16.5862  -29.3008   24.1356 C   0  0  0  0  0  0  0  0  0  0  0  0
  -22.3453  -25.4233   24.6952 C   0  0  0  0  0  0  0  0  0  0  0  0
  -23.6040  -25.8538   22.0542 C   0  0  0  0  0  0  0  0  0  0  0  0
  -17.8521  -29.5231   23.3121 C   0  0  0  0  0  0  0  0  0  0  0  0
  -29.5670  -12.1165   18.1726 C   0  0  0  0  0  0  0  0  0  0  0  0
  -18.1190  -28.3233   22.4088 C   0  0  0  0  0  0  0  0  0  0  0  0
  -28.1352  -11.8809   18.6525 C   0  0  0  0  0  0  0  0  0  0  0  0
  -30.5226  -12.3169   19.3444 C   0  0  0  0  0  0  0  0  0  0  0  0
  -28.6789  -13.1816   20.7591 C   0  0  0  0  0  0  0  0  0  0  0  0
  -18.3454  -27.0509   23.2343 C   0  0  1  0  0  0  0  0  0  0  0  0
  -22.0723  -26.6772   23.8703 C   0  0  1  0  0  0  0  0  0  0  0  0
  -27.6797  -13.0026   19.6028 C   0  0  2  0  0  0  0  0  0  0  0  0
  -28.8304  -29.8216   21.7624 C   0  0  0  0  0  0  0  0  0  0  0  0
  -22.5290  -28.9945   19.8976 C   0  0  0  0  0  0  0  0  0  0  0  0
  -24.8611  -29.7008   19.3229 C   0  0  0  0  0  0  0  0  0  0  0  0
  -23.6095  -30.8859   21.1261 C   0  0  0  0  0  0  0  0  0  0  0  0
  -28.3038  -27.1142   24.3832 C   0  0  0  0  0  0  0  0  0  0  0  0
  -24.5612  -19.8549   22.3427 C   0  0  0  0  0  0  0  0  0  1  0  0
  -24.4655  -28.5441   21.5447 C   0  0  1  0  0  0  0  0  0  0  0  0
  -28.0325  -28.9842   22.7498 C   0  0  2  0  0  0  0  0  0  0  0  0
  -23.8610  -29.5050   20.4823 C   0  0  0  0  0  0  0  0  0  0  0  0
  -25.8359  -11.5144   20.2872 N   0  0  0  0  0  0  0  0  0  0  0  0
  -30.4958  -15.1926   22.7834 N   0  0  0  0  0  0  0  0  0  0  0  0
  -26.2665  -12.7746   20.1067 N   0  0  0  0  0  0  0  0  0  0  0  0
  -30.0424  -13.3628   20.2453 N   0  0  0  0  0  0  0  0  0  0  0  0
  -23.1355  -26.9608   22.9042 N   0  0  0  0  0  0  0  0  0  0  0  0
  -25.6043  -15.0414   20.2900 N   0  0  0  0  0  0  0  0  0  0  0  0
  -21.9380  -12.7729   21.6346 N   0  0  0  0  0  0  0  0  0  0  0  0
  -19.6808  -27.0414   23.7921 N   0  0  0  0  0  0  0  0  0  0  0  0
  -25.7135  -29.0153   22.1352 N   0  0  0  0  0  0  0  0  0  0  0  0
  -28.9515  -27.9905   23.3735 N   0  3  0  0  0  0  0  0  0  0  0  0
  -22.8017  -14.8648   21.2652 O   0  0  0  0  0  0  0  0  0  0  0  0
  -32.0419  -14.5995   20.2411 O   0  0  0  0  0  0  0  0  0  0  0  0
  -20.7993  -26.1579   21.9507 O   0  0  0  0  0  0  0  0  0  0  0  0
  -23.1475  -29.2413   23.3895 O   0  0  0  0  0  0  0  0  0  0  0  0
  -26.9933  -27.1813   21.5222 O   0  0  0  0  0  0  0  0  0  0  0  0
  -28.2515  -16.6928   22.9519 O   0  0  0  0  0  0  0  0  0  0  0  0
  -21.4215   -7.2346   21.9441 O   0  0  0  0  0  0  0  0  0  0  0  0
  -24.1244  -21.0079   21.6243 O   0  0  0  0  0  0  0  0  0  1  0  0
  -18.5191   -7.3700   26.6305 F   0  0  0  0  0  0  0  0  0  0  0  0
  -29.7005  -18.7426   18.0641 F   0  0  0  0  0  0  0  0  0  0  0  0
  -21.8235   -5.3399   23.9166 F   0  0  0  0  0  0  0  0  0  0  0  0
  1  2  1  0  0  0  0
  1  5  2  0  0  0  0
  2  6  2  0  0  0  0
  3  8  2  0  0  0  0
  3 17  1  0  0  0  0
  4  9  1  0  0  0  0
  4 17  2  0  0  0  0
  5 21  1  0  0  0  0
  6 23  1  0  0  0  0
  7 10  2  0  0  0  0
  7 22  1  0  0  0  0
  8 25  1  0  0  0  0
  9 25  2  0  0  0  0
 10 26  1  0  0  0  0
 11 12  2  0  0  0  0
 11 27  1  0  0  0  0
 12 29  1  0  0  0  0
 13 18  1  0  0  0  0
 13 30  2  0  0  0  0
 14 19  2  0  0  0  0
 14 30  1  0  0  0  0
 15 24  1  0  0  0  0
 15 26  2  0  0  0  0
 16 29  2  0  0  0  0
 16 31  1  0  0  0  0
 17 32  1  0  0  0  0
 18 28  2  0  0  0  0
 18 34  1  0  0  0  0
 19 28  1  0  0  0  0
 19 36  1  0  0  0  0
 20 32  1  0  0  0  0
 20 33  2  0  0  0  0
 20 37  1  0  0  0  0
 21 23  2  0  0  0  0
 21 42  1  0  0  0  0
 22 24  2  0  0  0  0
 22 43  1  0  0  0  0
 23 51  1  0  0  0  0
 24 44  1  0  0  0  0
 25 79  1  0  0  0  0
 26 80  1  0  0  0  0
 27 31  2  0  0  0  0
 27 79  1  0  0  0  0
 28 78  1  0  0  0  0
 29 81  1  0  0  0  0
 30 82  1  0  0  0  0
 31 83  1  0  0  0  0
 32 63  2  0  0  0  0
 33 65  1  0  0  0  0
 33 68  1  0  0  0  0
 34 35  2  0  0  0  0
 35 59  1  0  0  0  0
 36 38  1  0  0  0  0
 36 64  2  0  0  0  0
 37 69  1  0  0  0  0
 37 73  2  0  0  0  0
 38 66  1  0  0  0  0
 38 74  2  0  0  0  0
 39 52  1  0  0  0  0
 39 70  1  0  0  0  0
 39 75  2  0  0  0  0
 40 60  1  0  0  0  0
 40 67  1  0  0  0  0
 40 76  2  0  0  0  0
 41 61  1  0  0  0  0
 41 71  1  0  0  0  0
 41 77  2  0  0  0  0
 42 45  1  0  0  0  0
 43 52  1  0  0  0  0
 44 67  1  0  0  0  0
 45 47  1  0  0  0  0
 46 48  1  0  0  0  0
 46 49  1  0  0  0  0
 47 51  1  0  0  0  0
 48 53  1  0  0  0  0
 49 66  1  0  0  0  0
 50 53  1  0  0  0  0
 50 66  1  0  0  0  0
 51 70  1  0  0  0  0
 52 67  1  0  0  0  0
 53 65  1  0  0  0  0
 54 61  1  0  0  0  0
 55 62  1  0  0  0  0
 56 62  1  0  0  0  0
 57 62  1  0  0  0  0
 58 72  1  0  0  0  0
 59 80  1  0  0  0  0
 60 62  1  0  0  0  0
 60 71  1  0  0  0  0
 61 72  1  0  0  0  0
 63 65  1  0  0  0  0
M  CHG  1  72   1
M  ISO  4  36 100  38 100  59 101  80 101
M  END
> <Batch ID>
0118

> <Smiles>
CNC(C)C(=O)NC(C(=O)N1Cc2cc([101O:1][101CH2:1]C=Cc3cc(F)cc([100C:0](=N)[100C:0](=O)N4CCCC(n5nc(-c6ccc(Oc7ccc(F)cc7F)cc6)c(C(N)=O)c5N)C4)c3O)ccc2CC1C(=O)NC1CCCc2ccccc21)C(C)(C)C

> <Shape>
0.307

> <Color>
0.200

> <Negative vol penalty>
0.000

$$$$

  -OEChem-04052301483D

 84 92  0     1  0  0  0  0  0999 V2000
  -25.7669  -34.7195   22.1665 C   0  0  0  0  0  0  0  0  0  0  0  0
  -26.5807  -33.8098   21.4990 C   0  0  0  0  0  0  0  0  0  0  0  0
  -24.0318   -9.7046   19.9571 C   0  0  0  0  0  0  0  0  0  0  0  0
  -24.6779  -10.0189   22.2638 C   0  0  0  0  0  0  0  0  0  0  0  0
  -26.7113  -20.9771   19.7159 C   0  0  0  0  0  0  0  0  0  0  0  0
  -25.3798  -34.4716   23.4828 C   0  0  0  0  0  0  0  0  0  0  0  0
  -27.0089  -32.6522   22.1479 C   0  0  0  0  0  0  0  0  0  0  0  0
  -27.9009  -27.1390   19.6350 C   0  0  0  0  0  0  0  0  0  0  0  0
  -23.6843   -8.3826   20.2346 C   0  0  0  0  0  0  0  0  0  0  0  0
  -24.3303   -8.6969   22.5413 C   0  0  0  0  0  0  0  0  0  0  0  0
  -27.6123  -21.6118   18.8610 C   0  0  0  0  0  0  0  0  0  0  0  0
  -29.0492  -26.4861   19.1890 C   0  0  0  0  0  0  0  0  0  0  0  0
  -23.2743   -5.5106   23.9380 C   0  0  0  0  0  0  0  0  0  0  0  0
  -22.5344   -5.2628   25.0942 C   0  0  0  0  0  0  0  0  0  0  0  0
  -29.2170  -25.3461   21.3083 C   0  0  0  0  0  0  0  0  0  0  0  0
  -29.4440  -20.4614   19.9375 C   0  0  0  0  0  0  0  0  0  0  0  0
  -20.7637   -6.6821   24.2653 C   0  0  0  0  0  0  0  0  0  0  0  0
  -24.5287  -10.5228   20.9717 C   0  0  0  0  0  0  0  0  0  0  0  0
  -27.1766  -20.0846   20.6817 C   0  0  0  0  0  0  0  0  0  0  0  0
  -24.0562  -13.0211   20.7645 C   0  0  0  0  0  0  0  0  0  0  0  0
  -25.7955  -33.3057   24.1449 C   0  0  0  0  0  0  0  0  0  0  0  0
  -27.4074  -26.9081   20.9271 C   0  0  0  0  0  0  0  0  0  0  0  0
  -26.6281  -32.3892   23.4748 C   0  0  0  0  0  0  0  0  0  0  0  0
  -28.0608  -25.9953   21.7674 C   0  0  0  0  0  0  0  0  0  0  0  0
  -28.5429  -19.8268   20.7924 C   0  0  0  0  0  0  0  0  0  0  0  0
  -23.8335   -7.8787   21.5267 C   0  0  0  0  0  0  0  0  0  0  0  0
  -29.7091  -25.5917   20.0267 C   0  0  0  0  0  0  0  0  0  0  0  0
  -28.9787  -21.3540   18.9718 C   0  0  0  0  0  0  0  0  0  0  0  0
  -22.7589   -6.3443   22.9455 C   0  0  0  0  0  0  0  0  0  0  0  0
  -21.2791   -5.8485   25.2578 C   0  0  0  0  0  0  0  0  0  0  0  0
  -21.5036   -6.9300   23.1091 C   0  0  0  0  0  0  0  0  0  0  0  0
  -24.8884  -11.8884   20.6856 C   0  0  0  0  0  0  0  0  0  0  0  0
  -24.8653  -14.0680   20.3961 C   0  0  0  0  0  0  0  0  0  0  0  0
  -25.2474  -18.6383   21.1305 C   0  0  0  0  0  0  0  0  0  0  0  0
  -26.2102  -19.4397   21.5609 C   0  0  0  0  0  0  0  0  0  0  0  0
  -22.6752  -13.1183   21.1376 C   0  0  0  0  0  0  0  0  0  0  0  0
  -26.9432  -28.7078   23.5058 C   0  0  0  0  0  0  0  0  0  0  0  0
  -25.5588  -26.0109   24.6602 C   0  0  0  0  0  0  0  0  0  0  0  0
  -25.2920  -22.6108   24.5381 C   0  0  0  0  0  0  0  0  0  0  0  0
  -29.7346  -16.7820   20.6593 C   0  0  0  0  0  0  0  0  0  0  0  0
  -25.3902  -33.1042   25.5836 C   0  0  0  0  0  0  0  0  0  0  0  0
  -26.1523  -27.6001   21.3837 C   0  0  0  0  0  0  0  0  0  0  0  0
  -27.5600  -25.6972   23.1562 C   0  0  0  0  0  0  0  0  0  0  0  0
  -25.5797  -31.6713   26.0748 C   0  0  0  0  0  0  0  0  0  0  0  0
  -29.4869  -14.0918   18.3403 C   0  0  0  0  0  0  0  0  0  0  0  0
  -26.9500  -31.1427   25.6630 C   0  0  0  0  0  0  0  0  0  0  0  0
  -28.2038  -13.3690   18.7542 C   0  0  0  0  0  0  0  0  0  0  0  0
  -30.2486  -14.6272   19.5507 C   0  0  0  0  0  0  0  0  0  0  0  0
  -28.1707  -14.7557   20.8696 C   0  0  0  0  0  0  0  0  0  0  0  0
  -27.0928  -31.1100   24.1365 C   0  0  1  0  0  0  0  0  0  0  0  0
  -26.0312  -27.6773   22.9025 C   0  0  1  0  0  0  0  0  0  0  0  0
  -27.3395  -14.2466   19.6794 C   0  0  2  0  0  0  0  0  0  0  0  0
  -24.4018  -20.3246   25.0655 C   0  0  0  0  0  0  0  0  0  0  0  0
  -27.4105  -26.2435   27.0741 C   0  0  0  0  0  0  0  0  0  0  0  0
  -26.8728  -23.8620   27.6283 C   0  0  0  0  0  0  0  0  0  0  0  0
  -25.0625  -25.5782   27.6207 C   0  0  0  0  0  0  0  0  0  0  0  0
  -23.2442  -22.7902   22.4089 C   0  0  0  0  0  0  0  0  0  0  0  0
  -29.0766  -18.8768   21.8161 C   0  0  0  0  0  0  0  0  0  0  0  0
  -31.7660  -23.4443   17.9606 C   0  0  0  0  0  0  0  0  0  0  0  0
  -30.9304  -24.6930   18.1946 C   0  0  0  0  0  0  0  0  0  1  0  0
  -31.1675  -22.2234   18.6413 C   0  0  0  0  0  0  0  0  0  0  0  0
  -26.0444  -24.8026   25.4238 C   0  0  1  0  0  0  0  0  0  0  0  0
  -24.0811  -21.6964   24.4927 C   0  0  2  0  0  0  0  0  0  0  0  0
  -26.3584  -25.1284   26.9113 C   0  0  0  0  0  0  0  0  0  0  0  0
  -26.1309  -12.1875   20.2973 N   0  0  0  0  0  0  0  0  0  0  0  0
  -26.0854  -13.5200   20.1290 N   0  0  0  0  0  0  0  0  0  0  0  0
  -26.3327  -26.4036   23.5590 N   0  0  0  0  0  0  0  0  0  0  0  0
  -29.3729  -15.4525   20.3861 N   0  0  0  0  0  0  0  0  0  0  0  0
  -24.6451  -15.3946   20.2778 N   0  0  0  0  0  0  0  0  0  0  0  0
  -21.9935  -11.9447   21.4877 N   0  0  0  0  0  0  0  0  0  0  0  0
  -26.3889  -29.9709   23.5874 N   0  0  0  0  0  0  0  0  0  0  0  0
  -25.0314  -23.7690   25.2395 N   0  0  0  0  0  0  0  0  0  0  0  0
  -28.8458  -17.4962   21.4535 N   0  0  0  0  0  0  0  0  0  0  0  0
  -23.6161  -21.5221   23.0876 N   0  3  0  0  0  0  0  0  0  0  0  0
  -22.0594  -14.2111   21.1441 O   0  0  0  0  0  0  0  0  0  0  0  0
  -28.0661  -28.3808   23.8717 O   0  0  0  0  0  0  0  0  0  0  0  0
  -24.5268  -26.5810   25.0230 O   0  0  0  0  0  0  0  0  0  0  0  0
  -26.3632  -22.3245   24.0079 O   0  0  0  0  0  0  0  0  0  0  0  0
  -30.7701  -17.2963   20.2229 O   0  0  0  0  0  0  0  0  0  0  0  0
  -23.4943   -6.5887   21.7979 O   0  0  0  0  0  0  0  0  0  0  0  0
  -30.8305  -24.9537   19.5940 O   0  0  0  0  0  0  0  0  0  1  0  0
  -29.8640  -21.9772   18.1313 O   0  0  0  0  0  0  0  0  0  0  0  0
  -20.5681   -5.6092   26.3675 F   0  0  0  0  0  0  0  0  0  0  0  0
  -21.0027   -7.7308   22.1585 F   0  0  0  0  0  0  0  0  0  0  0  0
  1  2  1  0  0  0  0
  1  6  2  0  0  0  0
  2  7  2  0  0  0  0
  3  9  2  0  0  0  0
  3 18  1  0  0  0  0
  4 10  1  0  0  0  0
  4 18  2  0  0  0  0
  5 11  2  0  0  0  0
  5 19  1  0  0  0  0
  6 21  1  0  0  0  0
  7 23  1  0  0  0  0
  8 12  2  0  0  0  0
  8 22  1  0  0  0  0
  9 26  1  0  0  0  0
 10 26  2  0  0  0  0
 11 28  1  0  0  0  0
 12 27  1  0  0  0  0
 13 14  2  0  0  0  0
 13 29  1  0  0  0  0
 14 30  1  0  0  0  0
 15 24  1  0  0  0  0
 15 27  2  0  0  0  0
 16 25  1  0  0  0  0
 16 28  2  0  0  0  0
 17 30  2  0  0  0  0
 17 31  1  0  0  0  0
 18 32  1  0  0  0  0
 19 25  2  0  0  0  0
 19 35  1  0  0  0  0
 20 32  1  0  0  0  0
 20 33  2  0  0  0  0
 20 36  1  0  0  0  0
 21 23  2  0  0  0  0
 21 41  1  0  0  0  0
 22 24  2  0  0  0  0
 22 42  1  0  0  0  0
 23 50  1  0  0  0  0
 24 43  1  0  0  0  0
 25 58  1  0  0  0  0
 26 80  1  0  0  0  0
 27 81  1  0  0  0  0
 28 82  1  0  0  0  0
 29 31  2  0  0  0  0
 29 80  1  0  0  0  0
 30 83  1  0  0  0  0
 31 84  1  0  0  0  0
 32 65  2  0  0  0  0
 33 66  1  0  0  0  0
 33 69  1  0  0  0  0
 34 35  2  0  0  0  0
 36 70  1  0  0  0  0
 36 75  2  0  0  0  0
 37 51  1  0  0  0  0
 37 71  1  0  0  0  0
 37 76  2  0  0  0  0
 38 62  1  0  0  0  0
 38 67  1  0  0  0  0
 38 77  2  0  0  0  0
 39 63  1  0  0  0  0
 39 72  1  0  0  0  0
 39 78  2  0  0  0  0
 40 68  1  0  0  0  0
 40 73  1  0  0  0  0
 40 79  2  0  0  0  0
 41 44  1  0  0  0  0
 42 51  1  0  0  0  0
 43 67  1  0  0  0  0
 44 46  1  0  0  0  0
 45 47  1  0  0  0  0
 45 48  1  0  0  0  0
 46 50  1  0  0  0  0
 47 52  1  0  0  0  0
 48 68  1  0  0  0  0
 49 52  1  0  0  0  0
 49 68  1  0  0  0  0
 50 71  1  0  0  0  0
 51 67  1  0  0  0  0
 52 66  1  0  0  0  0
 53 63  1  0  0  0  0
 54 64  1  0  0  0  0
 55 64  1  0  0  0  0
 56 64  1  0  0  0  0
 57 74  1  0  0  0  0
 58 73  1  0  0  0  0
 59 60  1  0  0  0  0
 59 61  1  0  0  0  0
 60 81  1  0  0  0  0
 61 82  1  0  0  0  0
 62 64  1  0  0  0  0
 62 72  1  0  0  0  0
 63 74  1  0  0  0  0
 65 66  1  0  0  0  0
M  CHG  1  74   1
M  ISO  4  40 100  60 101  73 100  81 101
M  END
> <Batch ID>
0118

> <Smiles>
C=Cc1ccc(OCC[101CH2:1][101O:1]c2ccc3c(c2)CN(C(=O)C(NC(=O)C(C)NC)C(C)(C)C)C(C(=O)NC2CCCc4ccccc42)C3)cc1C[100NH:0][100C:0](=O)N1CCCC(n2nc(-c3ccc(Oc4ccc(F)cc4F)cc3)c(C(N)=O)c2N)C1

> <Shape>
0.299

> <Color>
0.119

> <Negative vol penalty>
0.000

$$$$

  -OEChem-04052301483D

 86 94  0     1  0  0  0  0  0999 V2000
  -30.3960  -35.6671   24.4572 C   0  0  0  0  0  0  0  0  0  0  0  0
  -30.0880  -34.5468   23.6920 C   0  0  0  0  0  0  0  0  0  0  0  0
  -23.2031  -10.3978   21.0015 C   0  0  0  0  0  0  0  0  0  0  0  0
  -24.7063   -8.9446   22.2122 C   0  0  0  0  0  0  0  0  0  0  0  0
  -29.5727  -36.0303   25.5221 C   0  0  0  0  0  0  0  0  0  0  0  0
  -28.9569  -33.7884   23.9920 C   0  0  0  0  0  0  0  0  0  0  0  0
  -25.3135  -30.8815   20.0195 C   0  0  0  0  0  0  0  0  0  0  0  0
  -22.3159   -9.3356   20.8280 C   0  0  0  0  0  0  0  0  0  0  0  0
  -23.8190   -7.8824   22.0388 C   0  0  0  0  0  0  0  0  0  0  0  0
  -25.2486  -29.5516   19.6062 C   0  0  0  0  0  0  0  0  0  0  0  0
  -20.9352   -6.7960   23.4258 C   0  0  0  0  0  0  0  0  0  0  0  0
  -20.6681   -5.9895   24.5320 C   0  0  0  0  0  0  0  0  0  0  0  0
  -27.2557  -20.3159   18.5765 C   0  0  0  0  0  0  0  0  0  0  0  0
  -23.5080  -29.1397   21.2248 C   0  0  0  0  0  0  0  0  0  0  0  0
  -29.4648  -19.4265   20.0296 C   0  0  0  0  0  0  0  0  0  0  0  0
  -21.5164   -4.0689   23.3366 C   0  0  0  0  0  0  0  0  0  0  0  0
  -24.3984  -10.2023   21.6936 C   0  0  0  0  0  0  0  0  0  0  0  0
  -27.4492  -18.9505   18.7854 C   0  0  0  0  0  0  0  0  0  0  0  0
  -25.3446  -12.2175   22.9392 C   0  0  0  0  0  0  0  0  0  0  0  0
  -28.4257  -35.2816   25.8294 C   0  0  0  0  0  0  0  0  0  0  0  0
  -24.4823  -31.3486   21.0478 C   0  0  0  0  0  0  0  0  0  0  0  0
  -28.1182  -34.1412   25.0629 C   0  0  0  0  0  0  0  0  0  0  0  0
  -23.5625  -30.4767   21.6475 C   0  0  0  0  0  0  0  0  0  0  0  0
  -28.5538  -18.5058   19.5120 C   0  0  0  0  0  0  0  0  0  0  0  0
  -22.6238   -8.0779   21.3466 C   0  0  0  0  0  0  0  0  0  0  0  0
  -24.3478  -28.6797   20.2108 C   0  0  0  0  0  0  0  0  0  0  0  0
  -21.4929   -6.2390   22.2749 C   0  0  0  0  0  0  0  0  0  0  0  0
  -28.1668  -21.2367   19.0940 C   0  0  0  0  0  0  0  0  0  0  0  0
  -20.9587   -4.6260   24.4874 C   0  0  0  0  0  0  0  0  0  0  0  0
  -29.2713  -20.7920   19.8205 C   0  0  0  0  0  0  0  0  0  0  0  0
  -21.7835   -4.8755   22.2303 C   0  0  0  0  0  0  0  0  0  0  0  0
  -25.3155  -11.2991   21.8726 C   0  0  0  0  0  0  0  0  0  0  0  0
  -26.3930  -13.0541   22.6434 C   0  0  0  0  0  0  0  0  0  0  0  0
  -26.2345  -17.8985   16.9325 C   0  0  0  0  0  0  0  0  0  0  0  0
  -26.4761  -18.0181   18.2288 C   0  0  0  0  0  0  0  0  0  0  0  0
  -24.4996  -12.3063   24.0940 C   0  0  0  0  0  0  0  0  0  0  0  0
  -24.9655  -32.5751   23.9402 C   0  0  0  0  0  0  0  0  0  0  0  0
  -21.7524  -33.0142   23.8640 C   0  0  0  0  0  0  0  0  0  0  0  0
  -18.7302  -32.0800   22.5835 C   0  0  0  0  0  0  0  0  0  0  0  0
  -28.9533  -16.1967   18.6731 C   0  0  0  0  0  0  0  0  0  0  0  0
  -27.5920  -35.6859   27.0194 C   0  0  0  0  0  0  0  0  0  0  0  0
  -24.5458  -32.7927   21.4638 C   0  0  0  0  0  0  0  0  0  0  0  0
  -22.6340  -30.9336   22.7419 C   0  0  0  0  0  0  0  0  0  0  0  0
  -26.2066  -35.0453   27.0385 C   0  0  0  0  0  0  0  0  0  0  0  0
  -30.0273  -12.7005   19.1561 C   0  0  0  0  0  0  0  0  0  0  0  0
  -26.3044  -33.5528   26.7391 C   0  0  0  0  0  0  0  0  0  0  0  0
  -28.8637  -12.0917   19.9367 C   0  0  0  0  0  0  0  0  0  0  0  0
  -29.5670  -13.8351   18.2456 C   0  0  0  0  0  0  0  0  0  0  0  0
  -27.6453  -14.2964   19.7371 C   0  0  0  0  0  0  0  0  0  0  0  0
  -26.8865  -33.3075   25.3417 C   0  0  1  0  0  0  0  0  0  0  0  0
  -24.0122  -33.0326   22.8727 C   0  0  1  0  0  0  0  0  0  0  0  0
  -28.0836  -13.1790   20.6958 C   0  0  1  0  0  0  0  0  0  0  0  0
  -16.2794  -32.5962   22.7411 C   0  0  0  0  0  0  0  0  0  0  0  0
  -21.6111  -31.5203   26.5208 C   0  0  0  0  0  0  0  0  0  0  0  0
  -19.1513  -31.2365   26.1506 C   0  0  0  0  0  0  0  0  0  0  0  0
  -20.1220  -33.5239   26.3701 C   0  0  0  0  0  0  0  0  0  0  0  0
  -29.0758  -16.6547   21.1113 C   0  0  0  0  0  0  0  0  0  0  0  0
  -18.5916  -32.8554   19.7306 C   0  0  0  0  0  0  0  0  0  0  0  0
  -25.4796  -25.2962   19.5813 C   0  0  0  0  0  0  0  0  0  0  0  0
  -26.7567  -24.6302   19.0810 C   0  0  0  0  0  0  0  0  0  0  0  0
  -25.4841  -26.7947   19.3099 C   0  0  0  0  0  0  0  0  0  1  0  0
  -26.7719  -23.1399   19.3902 C   0  0  0  0  0  0  0  0  0  0  0  0
  -20.5513  -32.1921   24.2644 C   0  0  1  0  0  0  0  0  0  0  0  0
  -17.5820  -32.8942   22.0149 C   0  0  2  0  0  0  0  0  0  0  0  0
  -20.3776  -32.1088   25.8072 C   0  0  0  0  0  0  0  0  0  0  0  0
  -26.2695  -11.5304   20.9668 N   0  0  0  0  0  0  0  0  0  0  0  0
  -26.9078  -12.6037   21.4634 N   0  0  0  0  0  0  0  0  0  0  0  0
  -22.7384  -32.3532   23.1180 N   0  0  0  0  0  0  0  0  0  0  0  0
  -28.7893  -14.8316   18.9829 N   0  0  0  0  0  0  0  0  0  0  0  0
  -26.9154  -14.1237   23.2801 N   0  0  0  0  0  0  0  0  0  0  0  0
  -23.4703  -11.3667   24.2427 N   0  0  0  0  0  0  0  0  0  0  0  0
  -25.8797  -33.5362   24.3275 N   0  0  0  0  0  0  0  0  0  0  0  0
  -19.4091  -32.7707   23.5649 N   0  0  0  0  0  0  0  0  0  0  0  0
  -28.7814  -17.0991   19.7450 N   0  0  0  0  0  0  0  0  0  0  0  0
  -17.3949  -32.5863   20.5688 N   0  3  0  0  0  0  0  0  0  0  0  0
  -24.6424  -13.2026   24.9599 O   0  0  0  0  0  0  0  0  0  0  0  0
  -24.8771  -31.4351   24.3809 O   0  0  0  0  0  0  0  0  0  0  0  0
  -21.8103  -34.2012   24.1948 O   0  0  0  0  0  0  0  0  0  0  0  0
  -18.9957  -30.9435   22.1983 O   0  0  0  0  0  0  0  0  0  0  0  0
  -29.2584  -16.5756   17.5359 O   0  0  0  0  0  0  0  0  0  0  0  0
  -21.7582   -7.0412   21.1777 O   0  0  0  0  0  0  0  0  0  0  0  0
  -24.2829  -27.3810   19.8097 O   0  0  0  0  0  0  0  0  0  1  0  0
  -27.9762  -22.5783   18.8871 O   0  0  0  0  0  0  0  0  0  0  0  0
  -20.7035   -3.8519   25.5504 F   0  0  0  0  0  0  0  0  0  0  0  0
  -30.1502  -21.6720   20.3196 F   0  0  0  0  0  0  0  0  0  0  0  0
  -22.3204   -4.3349   21.1279 F   0  0  0  0  0  0  0  0  0  0  0  0
  1  2  1  0  0  0  0
  1  5  2  0  0  0  0
  2  6  2  0  0  0  0
  3  8  2  0  0  0  0
  3 17  1  0  0  0  0
  4  9  1  0  0  0  0
  4 17  2  0  0  0  0
  5 20  1  0  0  0  0
  6 22  1  0  0  0  0
  7 10  2  0  0  0  0
  7 21  1  0  0  0  0
  8 25  1  0  0  0  0
  9 25  2  0  0  0  0
 10 26  1  0  0  0  0
 11 12  2  0  0  0  0
 11 27  1  0  0  0  0
 12 29  1  0  0  0  0
 13 18  1  0  0  0  0
 13 28  2  0  0  0  0
 14 23  1  0  0  0  0
 14 26  2  0  0  0  0
 15 24  1  0  0  0  0
 15 30  2  0  0  0  0
 16 29  2  0  0  0  0
 16 31  1  0  0  0  0
 17 32  1  0  0  0  0
 18 24  2  0  0  0  0
 18 35  1  0  0  0  0
 19 32  1  0  0  0  0
 19 33  2  0  0  0  0
 19 36  1  0  0  0  0
 20 22  2  0  0  0  0
 20 41  1  0  0  0  0
 21 23  2  0  0  0  0
 21 42  1  0  0  0  0
 22 50  1  0  0  0  0
 23 43  1  0  0  0  0
 24 74  1  0  0  0  0
 25 81  1  0  0  0  0
 26 82  1  0  0  0  0
 27 31  2  0  0  0  0
 27 81  1  0  0  0  0
 28 30  1  0  0  0  0
 28 83  1  0  0  0  0
 29 84  1  0  0  0  0
 30 85  1  0  0  0  0
 31 86  1  0  0  0  0
 32 66  2  0  0  0  0
 33 67  1  0  0  0  0
 33 70  1  0  0  0  0
 34 35  2  0  0  0  0
 36 71  1  0  0  0  0
 36 76  2  0  0  0  0
 37 51  1  0  0  0  0
 37 72  1  0  0  0  0
 37 77  2  0  0  0  0
 38 63  1  0  0  0  0
 38 68  1  0  0  0  0
 38 78  2  0  0  0  0
 39 64  1  0  0  0  0
 39 73  1  0  0  0  0
 39 79  2  0  0  0  0
 40 69  1  0  0  0  0
 40 74  1  0  0  0  0
 40 80  2  0  0  0  0
 41 44  1  0  0  0  0
 42 51  1  0  0  0  0
 43 68  1  0  0  0  0
 44 46  1  0  0  0  0
 45 47  1  0  0  0  0
 45 48  1  0  0  0  0
 46 50  1  0  0  0  0
 47 52  1  0  0  0  0
 48 69  1  0  0  0  0
 49 52  1  0  0  0  0
 49 69  1  0  0  0  0
 50 72  1  0  0  0  0
 51 68  1  0  0  0  0
 52 67  1  0  0  0  0
 53 64  1  0  0  0  0
 54 65  1  0  0  0  0
 55 65  1  0  0  0  0
 56 65  1  0  0  0  0
 57 74  1  0  0  0  0
 58 75  1  0  0  0  0
 59 60  1  0  0  0  0
 59 61  1  0  0  0  0
 60 62  1  0  0  0  0
 61 82  1  0  0  0  0
 62 83  1  0  0  0  0
 63 65  1  0  0  0  0
 63 73  1  0  0  0  0
 64 75  1  0  0  0  0
 66 67  1  0  0  0  0
M  CHG  1  75   1
M  ISO  4  40 100  61 101  74 100  82 101
M  END
> <Batch ID>
0118

> <Smiles>
C=Cc1cc(OCCC[101CH2:1][101O:1]c2ccc3c(c2)CN(C(=O)C(NC(=O)C(C)NC)C(C)(C)C)C(C(=O)NC2CCCc4ccccc42)C3)c(F)cc1[100N:0](C)[100C:0](=O)N1CCCC(n2nc(-c3ccc(Oc4ccc(F)cc4F)cc3)c(C(N)=O)c2N)C1

> <Shape>
0.281

> <Color>
0.118

> <Negative vol penalty>
0.000

$$$$

  -OEChem-04052301483D

 83 91  0     1  0  0  0  0  0999 V2000
  -19.6025  -29.7621   18.8827 C   0  0  0  0  0  0  0  0  0  0  0  0
  -20.9011  -29.2917   18.7161 C   0  0  0  0  0  0  0  0  0  0  0  0
  -22.7391  -10.3064   21.6520 C   0  0  0  0  0  0  0  0  0  0  0  0
  -24.6268   -9.4441   20.4151 C   0  0  0  0  0  0  0  0  0  0  0  0
  -19.3810  -30.9845   19.5158 C   0  0  0  0  0  0  0  0  0  0  0  0
  -21.9791  -30.0439   19.1815 C   0  0  0  0  0  0  0  0  0  0  0  0
  -25.4407  -27.1888   21.7030 C   0  0  0  0  0  0  0  0  0  0  0  0
  -22.1589   -9.0380   21.6508 C   0  0  0  0  0  0  0  0  0  0  0  0
  -24.0466   -8.1756   20.4140 C   0  0  0  0  0  0  0  0  0  0  0  0
  -26.3296  -26.4147   20.9584 C   0  0  0  0  0  0  0  0  0  0  0  0
  -20.3503   -5.9494   22.2868 C   0  0  0  0  0  0  0  0  0  0  0  0
  -19.8032   -5.4854   23.4830 C   0  0  0  0  0  0  0  0  0  0  0  0
  -30.2175  -19.9789   16.1940 C   0  0  0  0  0  0  0  0  0  0  0  0
  -28.0133  -28.1246   21.2020 C   0  0  0  0  0  0  0  0  0  0  0  0
  -21.9660   -5.6698   24.5438 C   0  0  0  0  0  0  0  0  0  0  0  0
  -23.9731  -10.5095   21.0340 C   0  0  0  0  0  0  0  0  0  0  0  0
  -29.5009  -18.8039   15.8637 C   0  0  0  0  0  0  0  0  0  0  0  0
  -25.4485  -12.3535   21.9986 C   0  0  0  0  0  0  0  0  0  0  0  0
  -20.4562  -31.7475   19.9978 C   0  0  0  0  0  0  0  0  0  0  0  0
  -25.8283  -28.4436   22.1950 C   0  0  0  0  0  0  0  0  0  0  0  0
  -21.7718  -31.2782   19.8204 C   0  0  0  0  0  0  0  0  0  0  0  0
  -27.1290  -28.9105   21.9566 C   0  0  0  0  0  0  0  0  0  0  0  0
  -22.8126   -7.9726   21.0319 C   0  0  0  0  0  0  0  0  0  0  0  0
  -27.6153  -26.8836   20.7059 C   0  0  0  0  0  0  0  0  0  0  0  0
  -21.7053   -6.2735   22.2190 C   0  0  0  0  0  0  0  0  0  0  0  0
  -20.6110   -5.3457   24.6115 C   0  0  0  0  0  0  0  0  0  0  0  0
  -22.5132   -6.1337   23.3475 C   0  0  0  0  0  0  0  0  0  0  0  0
  -24.5727  -11.8197   21.0344 C   0  0  0  0  0  0  0  0  0  0  0  0
  -29.3554  -20.7578   16.9302 C   0  0  0  0  0  0  0  0  0  0  0  0
  -28.2520  -18.9485   16.4219 C   0  0  0  0  0  0  0  0  0  0  0  0
  -25.7297  -13.6187   21.5440 C   0  0  0  0  0  0  0  0  0  0  0  0
  -31.1920  -17.5535   14.6021 C   0  0  0  0  0  0  0  0  0  0  0  0
  -29.9507  -17.6961   15.1167 C   0  0  0  0  0  0  0  0  0  0  0  0
  -29.6255  -22.0847   17.5117 C   0  0  0  0  0  0  0  0  0  0  0  0
  -28.7343  -22.8081   18.2037 C   0  0  0  0  0  0  0  0  0  0  0  0
  -25.9621  -11.7588   23.1979 C   0  0  0  0  0  0  0  0  0  0  0  0
  -29.1052  -24.1483   18.7438 C   0  0  0  0  0  0  0  0  0  0  0  0
  -24.8619  -31.4740   21.8368 C   0  0  0  0  0  0  0  0  0  0  0  0
  -27.1820  -16.9465   17.4094 C   0  0  0  0  0  0  0  0  0  0  0  0
  -27.1601  -31.9381   24.1940 C   0  0  0  0  0  0  0  0  0  0  0  0
  -25.9408  -35.0853   24.6924 C   0  0  0  0  0  0  0  0  0  0  0  0
  -20.1700  -33.0849   20.6333 C   0  0  0  0  0  0  0  0  0  0  0  0
  -24.8637  -29.2499   23.0220 C   0  0  0  0  0  0  0  0  0  0  0  0
  -27.5944  -30.2480   22.4657 C   0  0  0  0  0  0  0  0  0  0  0  0
  -21.3449  -33.6439   21.4316 C   0  0  0  0  0  0  0  0  0  0  0  0
  -23.6225  -16.3458   17.8523 C   0  0  0  0  0  0  0  0  0  0  0  0
  -22.6390  -33.5216   20.6334 C   0  0  0  0  0  0  0  0  0  0  0  0
  -23.6305  -15.1323   18.7811 C   0  0  0  0  0  0  0  0  0  0  0  0
  -24.7842  -16.3032   16.8630 C   0  0  0  0  0  0  0  0  0  0  0  0
  -26.1339  -14.9569   18.4411 C   0  0  0  0  0  0  0  0  0  0  0  0
  -22.9657  -32.0536   20.3337 C   0  0  1  0  0  0  0  0  0  0  0  0
  -25.2158  -30.7342   23.0957 C   0  0  1  0  0  0  0  0  0  0  0  0
  -24.9953  -14.9773   19.4747 C   0  0  2  0  0  0  0  0  0  0  0  0
  -26.1370  -37.0517   26.2391 C   0  0  0  0  0  0  0  0  0  0  0  0
  -25.4961  -30.4594   26.2797 C   0  0  0  0  0  0  0  0  0  0  0  0
  -24.9324  -32.6758   27.2984 C   0  0  0  0  0  0  0  0  0  0  0  0
  -27.3043  -31.9072   27.2225 C   0  0  0  0  0  0  0  0  0  0  0  0
  -26.8717  -36.8556   22.5111 C   0  0  0  0  0  0  0  0  0  0  0  0
  -27.0483  -18.1025   16.4504 C   0  0  0  0  0  0  0  0  0  0  0  0
  -28.0139  -24.8683   19.5076 C   0  0  0  0  0  0  0  0  0  1  0  0
  -26.1721  -32.6469   25.0864 C   0  0  1  0  0  0  0  0  0  0  0  0
  -26.6401  -36.4064   24.9572 C   0  0  2  0  0  0  0  0  0  0  0  0
  -25.9705  -31.9171   26.4444 C   0  0  0  0  0  0  0  0  0  0  0  0
  -24.3143  -12.6758   20.0422 N   0  0  0  0  0  0  0  0  0  0  0  0
  -25.0321  -13.7604   20.3806 N   0  0  0  0  0  0  0  0  0  0  0  0
  -26.6472  -30.9566   23.3363 N   0  0  0  0  0  0  0  0  0  0  0  0
  -26.0632  -16.1270   17.5612 N   0  0  0  0  0  0  0  0  0  0  0  0
  -26.5031  -14.6127   22.0300 N   0  0  0  0  0  0  0  0  0  0  0  0
  -25.5715  -10.4508   23.5153 N   0  0  0  0  0  0  0  0  0  0  0  0
  -23.5221  -31.4105   21.5047 N   0  0  0  0  0  0  0  0  0  0  0  0
  -26.6471  -34.0206   25.2111 N   0  0  0  0  0  0  0  0  0  0  0  0
  -26.4034  -37.3526   23.8304 N   0  3  0  0  0  0  0  0  0  0  0  0
  -26.7312  -12.3753   23.9738 O   0  0  0  0  0  0  0  0  0  0  0  0
  -30.2217  -24.6321   18.5785 O   0  0  0  0  0  0  0  0  0  0  0  0
  -25.7391  -32.0604   21.2137 O   0  0  0  0  0  0  0  0  0  0  0  0
  -28.2485  -16.7801   18.0068 O   0  0  0  0  0  0  0  0  0  0  0  0
  -28.3553  -32.2391   24.2591 O   0  0  0  0  0  0  0  0  0  0  0  0
  -24.8728  -35.0060   24.0894 O   0  0  0  0  0  0  0  0  0  0  0  0
  -28.1553  -20.1369   17.0738 O   0  0  0  0  0  0  0  0  0  0  0  0
  -22.2469   -6.7347   21.0308 O   0  0  0  0  0  0  0  0  0  0  0  0
  -28.4851  -26.1298   19.9799 O   0  0  0  0  0  0  0  0  0  1  0  0
  -20.0851   -4.9017   25.7606 F   0  0  0  0  0  0  0  0  0  0  0  0
  -23.8154   -6.4446   23.2888 F   0  0  0  0  0  0  0  0  0  0  0  0
  1  2  1  0  0  0  0
  1  5  2  0  0  0  0
  2  6  2  0  0  0  0
  3  8  2  0  0  0  0
  3 16  1  0  0  0  0
  4  9  1  0  0  0  0
  4 16  2  0  0  0  0
  5 19  1  0  0  0  0
  6 21  1  0  0  0  0
  7 10  2  0  0  0  0
  7 20  1  0  0  0  0
  8 23  1  0  0  0  0
  9 23  2  0  0  0  0
 10 24  1  0  0  0  0
 11 12  2  0  0  0  0
 11 25  1  0  0  0  0
 12 26  1  0  0  0  0
 13 17  1  0  0  0  0
 13 29  2  0  0  0  0
 14 22  1  0  0  0  0
 14 24  2  0  0  0  0
 15 26  2  0  0  0  0
 15 27  1  0  0  0  0
 16 28  1  0  0  0  0
 17 30  2  0  0  0  0
 17 33  1  0  0  0  0
 18 28  1  0  0  0  0
 18 31  2  0  0  0  0
 18 36  1  0  0  0  0
 19 21  2  0  0  0  0
 19 42  1  0  0  0  0
 20 22  2  0  0  0  0
 20 43  1  0  0  0  0
 21 51  1  0  0  0  0
 22 44  1  0  0  0  0
 23 80  1  0  0  0  0
 24 81  1  0  0  0  0
 25 27  2  0  0  0  0
 25 80  1  0  0  0  0
 26 82  1  0  0  0  0
 27 83  1  0  0  0  0
 28 64  2  0  0  0  0
 29 34  1  0  0  0  0
 29 79  1  0  0  0  0
 30 59  1  0  0  0  0
 30 79  1  0  0  0  0
 31 65  1  0  0  0  0
 31 68  1  0  0  0  0
 32 33  2  0  0  0  0
 34 35  2  0  0  0  0
 35 37  1  0  0  0  0
 36 69  1  0  0  0  0
 36 73  2  0  0  0  0
 37 60  1  0  0  0  0
 37 74  2  0  0  0  0
 38 52  1  0  0  0  0
 38 70  1  0  0  0  0
 38 75  2  0  0  0  0
 39 59  1  0  0  0  0
 39 67  1  0  0  0  0
 39 76  2  0  0  0  0
 40 61  1  0  0  0  0
 40 66  1  0  0  0  0
 40 77  2  0  0  0  0
 41 62  1  0  0  0  0
 41 71  1  0  0  0  0
 41 78  2  0  0  0  0
 42 45  1  0  0  0  0
 43 52  1  0  0  0  0
 44 66  1  0  0  0  0
 45 47  1  0  0  0  0
 46 48  1  0  0  0  0
 46 49  1  0  0  0  0
 47 51  1  0  0  0  0
 48 53  1  0  0  0  0
 49 67  1  0  0  0  0
 50 53  1  0  0  0  0
 50 67  1  0  0  0  0
 51 70  1  0  0  0  0
 52 66  1  0  0  0  0
 53 65  1  0  0  0  0
 54 62  1  0  0  0  0
 55 63  1  0  0  0  0
 56 63  1  0  0  0  0
 57 63  1  0  0  0  0
 58 72  1  0  0  0  0
 60 81  1  0  0  0  0
 61 63  1  0  0  0  0
 61 71  1  0  0  0  0
 62 72  1  0  0  0  0
 64 65  1  0  0  0  0
M  CHG  1  72   1
M  ISO  4  39 100  59 100  60 101  81 101
M  END
> <Batch ID>
0118

> <Smiles>
C=Cc1cc(C=CC(=O)[101CH2:1][101O:1]c2ccc3c(c2)CN(C(=O)C(NC(=O)C(C)NC)C(C)(C)C)C(C(=O)NC2CCCc4ccccc42)C3)oc1[100CH2:0][100C:0](=O)N1CCCC(n2nc(-c3ccc(Oc4ccc(F)cc4F)cc3)c(C(N)=O)c2N)C1

> <Shape>
0.257

> <Color>
0.121

> <Negative vol penalty>
0.000

$$$$

  -OEChem-04052301483D

 86 94  0     1  0  0  0  0  0999 V2000
  -22.5067  -26.9085   13.3270 C   0  0  0  0  0  0  0  0  0  0  0  0
  -22.5421  -27.2750   14.6686 C   0  0  0  0  0  0  0  0  0  0  0  0
  -25.6254  -15.5760   20.8930 C   0  0  0  0  0  0  0  0  0  0  0  0
  -23.4865  -14.9778   19.9419 C   0  0  0  0  0  0  0  0  0  0  0  0
  -23.0146  -25.6724   12.9295 C   0  0  0  0  0  0  0  0  0  0  0  0
  -23.0846  -26.4050   15.6137 C   0  0  0  0  0  0  0  0  0  0  0  0
  -26.1556  -28.7568   18.8822 C   0  0  0  0  0  0  0  0  0  0  0  0
  -25.9840  -14.2287   20.9340 C   0  0  0  0  0  0  0  0  0  0  0  0
  -23.8451  -13.6304   19.9829 C   0  0  0  0  0  0  0  0  0  0  0  0
  -25.5555  -29.4857   19.9081 C   0  0  0  0  0  0  0  0  0  0  0  0
  -24.0550  -10.0068   20.1704 C   0  0  0  0  0  0  0  0  0  0  0  0
  -23.1095   -9.0984   20.6462 C   0  0  0  0  0  0  0  0  0  0  0  0
  -20.5452  -27.1009   23.6285 C   0  0  0  0  0  0  0  0  0  0  0  0
  -25.9462  -27.6547   21.4293 C   0  0  0  0  0  0  0  0  0  0  0  0
  -19.1375  -26.1506   21.4154 C   0  0  0  0  0  0  0  0  0  0  0  0
  -23.0647  -10.2556   22.7666 C   0  0  0  0  0  0  0  0  0  0  0  0
  -24.3766  -15.9506   20.3970 C   0  0  0  0  0  0  0  0  0  0  0  0
  -19.7866  -25.9351   23.7326 C   0  0  0  0  0  0  0  0  0  0  0  0
  -24.2212  -18.2480   19.2992 C   0  0  0  0  0  0  0  0  0  0  0  0
  -23.5723  -24.7909   13.8690 C   0  0  0  0  0  0  0  0  0  0  0  0
  -26.6465  -27.4649   19.1199 C   0  0  0  0  0  0  0  0  0  0  0  0
  -23.5992  -25.1554   15.2287 C   0  0  0  0  0  0  0  0  0  0  0  0
  -26.5543  -26.9125   20.4054 C   0  0  0  0  0  0  0  0  0  0  0  0
  -19.0828  -25.4599   22.6260 C   0  0  0  0  0  0  0  0  0  0  0  0
  -20.5999  -27.7917   22.4179 C   0  0  0  0  0  0  0  0  0  0  0  0
  -25.0939  -13.2559   20.4789 C   0  0  0  0  0  0  0  0  0  0  0  0
  -25.4481  -28.9335   21.1812 C   0  0  0  0  0  0  0  0  0  0  0  0
  -24.5055  -11.0396   20.9927 C   0  0  0  0  0  0  0  0  0  0  0  0
  -22.6143   -9.2228   21.9442 C   0  0  0  0  0  0  0  0  0  0  0  0
  -19.8961  -27.3165   21.3113 C   0  0  0  0  0  0  0  0  0  0  0  0
  -24.0103  -11.1640   22.2907 C   0  0  0  0  0  0  0  0  0  0  0  0
  -24.0053  -17.3422   20.3549 C   0  0  0  0  0  0  0  0  0  0  0  0
  -23.6893  -19.4320   19.7484 C   0  0  0  0  0  0  0  0  0  0  0  0
  -20.8277  -24.7758   25.6266 C   0  0  0  0  0  0  0  0  0  0  0  0
  -22.6354  -31.9375   23.4959 C   0  0  0  0  0  0  0  0  0  0  0  0
  -19.7493  -25.2358   25.0104 C   0  0  0  0  0  0  0  0  0  0  0  0
  -24.8465  -18.0380   18.0262 C   0  0  0  0  0  0  0  0  0  0  0  0
  -22.8481  -30.7370   22.9335 C   0  0  0  0  0  0  0  0  0  0  0  0
  -25.9732  -24.5679   17.9984 C   0  0  0  0  0  0  0  0  0  0  0  0
  -28.5447  -23.7072   19.7787 C   0  0  0  0  0  0  0  0  0  0  0  0
  -30.6004  -24.3863   22.4168 C   0  0  0  0  0  0  0  0  0  0  0  0
  -19.6213  -22.2248   22.1146 C   0  0  0  0  0  0  0  0  0  0  0  0
  -24.0660  -23.4457   13.3984 C   0  0  0  0  0  0  0  0  0  0  0  0
  -27.3151  -26.7022   18.0092 C   0  0  0  0  0  0  0  0  0  0  0  0
  -27.0838  -25.5375   20.7174 C   0  0  0  0  0  0  0  0  0  0  0  0
  -24.9642  -22.7385   14.4100 C   0  0  0  0  0  0  0  0  0  0  0  0
  -22.0768  -20.7839   24.3488 C   0  0  0  0  0  0  0  0  0  0  0  0
  -24.3487  -22.7990   15.8044 C   0  0  0  0  0  0  0  0  0  0  0  0
  -22.8180  -19.8292   23.4111 C   0  0  0  0  0  0  0  0  0  0  0  0
  -20.5840  -20.8186   24.0352 C   0  0  0  0  0  0  0  0  0  0  0  0
  -20.9988  -20.2101   21.6834 C   0  0  0  0  0  0  0  0  0  0  0  0
  -24.2020  -24.2493   16.2802 C   0  0  1  0  0  0  0  0  0  0  0  0
  -27.3181  -25.1938   18.2376 C   0  0  1  0  0  0  0  0  0  0  0  0
  -22.5164  -20.1473   21.9347 C   0  0  2  0  0  0  0  0  0  0  0  0
  -32.5910  -23.4803   23.6472 C   0  0  0  0  0  0  0  0  0  0  0  0
  -26.7679  -21.6105   21.1042 C   0  0  0  0  0  0  0  0  0  0  0  0
  -28.4792  -21.4096   22.9206 C   0  0  0  0  0  0  0  0  0  0  0  0
  -29.0831  -20.8295   20.5708 C   0  0  0  0  0  0  0  0  0  0  0  0
  -32.2165  -26.7896   21.8077 C   0  0  0  0  0  0  0  0  0  0  0  0
  -18.2594  -24.2144   22.7008 C   0  0  0  0  0  0  0  0  0  0  0  0
  -22.1124  -29.5115   23.4081 C   0  0  0  0  0  0  0  0  0  0  0  0
  -23.8424  -30.5696   21.8143 C   0  0  0  0  0  0  0  0  0  1  0  0
  -28.7556  -23.2553   21.2036 C   0  0  1  0  0  0  0  0  0  0  0  0
  -32.1136  -24.4028   22.5365 C   0  0  2  0  0  0  0  0  0  0  0  0
  -28.2596  -21.8014   21.4438 C   0  0  0  0  0  0  0  0  0  0  0  0
  -23.3848  -17.9026   21.3965 N   0  0  0  0  0  0  0  0  0  0  0  0
  -23.2063  -19.1734   20.9975 N   0  0  0  0  0  0  0  0  0  0  0  0
  -27.7233  -24.8288   19.5966 N   0  0  0  0  0  0  0  0  0  0  0  0
  -20.3650  -21.1450   22.6190 N   0  0  0  0  0  0  0  0  0  0  0  0
  -23.5924  -20.6586   19.1930 N   0  0  0  0  0  0  0  0  0  0  0  0
  -25.3382  -16.7604   17.7259 N   0  0  0  0  0  0  0  0  0  0  0  0
  -21.3546  -28.9502   22.3164 N   0  0  0  0  0  0  0  0  0  0  0  0
  -25.4786  -24.7673   16.7237 N   0  0  0  0  0  0  0  0  0  0  0  0
  -30.1713  -23.4589   21.4911 N   0  0  0  0  0  0  0  0  0  0  0  0
  -19.0480  -23.0588   23.0666 N   0  0  0  0  0  0  0  0  0  0  0  0
  -32.5949  -25.7820   22.8316 N   0  3  0  0  0  0  0  0  0  0  0  0
  -24.9804  -18.9603   17.1865 O   0  0  0  0  0  0  0  0  0  0  0  0
  -25.4256  -23.9485   18.9030 O   0  0  0  0  0  0  0  0  0  0  0  0
  -29.0943  -23.0921   18.8616 O   0  0  0  0  0  0  0  0  0  0  0  0
  -29.8716  -25.1200   23.0810 O   0  0  0  0  0  0  0  0  0  0  0  0
  -19.4827  -22.4335   20.9045 O   0  0  0  0  0  0  0  0  0  0  0  0
  -25.4436  -11.9411   20.5186 O   0  0  0  0  0  0  0  0  0  0  0  0
  -24.8623  -29.6425   22.1841 O   0  0  0  0  0  0  0  0  0  1  0  0
  -21.7052   -8.3513   22.4005 F   0  0  0  0  0  0  0  0  0  0  0  0
  -19.9418  -27.9723   20.1429 F   0  0  0  0  0  0  0  0  0  0  0  0
  -24.4384  -12.1548   23.0850 F   0  0  0  0  0  0  0  0  0  0  0  0
  1  2  1  0  0  0  0
  1  5  2  0  0  0  0
  2  6  2  0  0  0  0
  3  8  2  0  0  0  0
  3 17  1  0  0  0  0
  4  9  1  0  0  0  0
  4 17  2  0  0  0  0
  5 20  1  0  0  0  0
  6 22  1  0  0  0  0
  7 10  2  0  0  0  0
  7 21  1  0  0  0  0
  8 26  1  0  0  0  0
  9 26  2  0  0  0  0
 10 27  1  0  0  0  0
 11 12  2  0  0  0  0
 11 28  1  0  0  0  0
 12 29  1  0  0  0  0
 13 18  1  0  0  0  0
 13 25  2  0  0  0  0
 14 23  1  0  0  0  0
 14 27  2  0  0  0  0
 15 24  1  0  0  0  0
 15 30  2  0  0  0  0
 16 29  2  0  0  0  0
 16 31  1  0  0  0  0
 17 32  1  0  0  0  0
 18 24  2  0  0  0  0
 18 36  1  0  0  0  0
 19 32  1  0  0  0  0
 19 33  2  0  0  0  0
 19 37  1  0  0  0  0
 20 22  2  0  0  0  0
 20 43  1  0  0  0  0
 21 23  2  0  0  0  0
 21 44  1  0  0  0  0
 22 52  1  0  0  0  0
 23 45  1  0  0  0  0
 24 60  1  0  0  0  0
 25 30  1  0  0  0  0
 25 72  1  0  0  0  0
 26 82  1  0  0  0  0
 27 83  1  0  0  0  0
 28 31  2  0  0  0  0
 28 82  1  0  0  0  0
 29 84  1  0  0  0  0
 30 85  1  0  0  0  0
 31 86  1  0  0  0  0
 32 66  2  0  0  0  0
 33 67  1  0  0  0  0
 33 70  1  0  0  0  0
 34 36  2  0  0  0  0
 35 38  2  0  0  0  0
 37 71  1  0  0  0  0
 37 77  2  0  0  0  0
 38 61  1  0  0  0  0
 38 62  1  0  0  0  0
 39 53  1  0  0  0  0
 39 73  1  0  0  0  0
 39 78  2  0  0  0  0
 40 63  1  0  0  0  0
 40 68  1  0  0  0  0
 40 79  2  0  0  0  0
 41 64  1  0  0  0  0
 41 74  1  0  0  0  0
 41 80  2  0  0  0  0
 42 69  1  0  0  0  0
 42 75  1  0  0  0  0
 42 81  2  0  0  0  0
 43 46  1  0  0  0  0
 44 53  1  0  0  0  0
 45 68  1  0  0  0  0
 46 48  1  0  0  0  0
 47 49  1  0  0  0  0
 47 50  1  0  0  0  0
 48 52  1  0  0  0  0
 49 54  1  0  0  0  0
 50 69  1  0  0  0  0
 51 54  1  0  0  0  0
 51 69  1  0  0  0  0
 52 73  1  0  0  0  0
 53 68  1  0  0  0  0
 54 67  1  0  0  0  0
 55 64  1  0  0  0  0
 56 65  1  0  0  0  0
 57 65  1  0  0  0  0
 58 65  1  0  0  0  0
 59 76  1  0  0  0  0
 60 75  1  0  0  0  0
 61 72  1  0  0  0  0
 62 83  1  0  0  0  0
 63 65  1  0  0  0  0
 63 74  1  0  0  0  0
 64 76  1  0  0  0  0
 66 67  1  0  0  0  0
M  CHG  1  76   1
M  ISO  4  42 100  62 101  75 100  83 101
M  END
> <Batch ID>
0118

> <Smiles>
C=Cc1cc(NCC(=C)[101CH2:1][101O:1]c2ccc3c(c2)CN(C(=O)C(NC(=O)C(C)NC)C(C)(C)C)C(C(=O)NC2CCCc4ccccc42)C3)c(F)cc1C[100NH:0][100C:0](=O)N1CCCC(n2nc(-c3ccc(Oc4ccc(F)cc4F)cc3)c(C(N)=O)c2N)C1

> <Shape>
0.188

> <Color>
0.080

> <Negative vol penalty>
0.000

$$$$

  -OEChem-04052301483D

 81 89  0     1  0  0  0  0  0999 V2000
  -29.6766  -23.3518   20.9412 C   0  0  0  0  0  0  0  0  0  0  0  0
  -28.3858  -23.6816   21.3416 C   0  0  0  0  0  0  0  0  0  0  0  0
  -22.9079  -10.0597   22.0933 C   0  0  0  0  0  0  0  0  0  0  0  0
  -23.9205   -9.3826   20.0068 C   0  0  0  0  0  0  0  0  0  0  0  0
  -30.7610  -24.0933   21.4083 C   0  0  0  0  0  0  0  0  0  0  0  0
  -28.1787  -24.7524   22.2103 C   0  0  0  0  0  0  0  0  0  0  0  0
  -24.3369  -27.7158   20.7597 C   0  0  0  0  0  0  0  0  0  0  0  0
  -22.2515   -8.8316   22.1733 C   0  0  0  0  0  0  0  0  0  0  0  0
  -23.2640   -8.1545   20.0868 C   0  0  0  0  0  0  0  0  0  0  0  0
  -23.0462  -27.2604   21.0249 C   0  0  0  0  0  0  0  0  0  0  0  0
  -20.5921   -5.7356   23.1094 C   0  0  0  0  0  0  0  0  0  0  0  0
  -20.5976   -5.0762   24.3385 C   0  0  0  0  0  0  0  0  0  0  0  0
  -21.0305  -22.4154   20.4501 C   0  0  0  0  0  0  0  0  0  0  0  0
  -22.9416  -28.7005   22.9574 C   0  0  0  0  0  0  0  0  0  0  0  0
  -23.0117   -4.9955   24.2844 C   0  0  0  0  0  0  0  0  0  0  0  0
  -20.6940  -22.8662   18.2914 C   0  0  0  0  0  0  0  0  0  0  0  0
  -23.7424  -10.3353   21.0100 C   0  0  0  0  0  0  0  0  0  0  0  0
  -20.7308  -23.4527   19.5351 C   0  0  0  0  0  0  0  0  0  0  0  0
  -25.6917  -11.9238   21.4395 C   0  0  0  0  0  0  0  0  0  0  0  0
  -30.5663  -25.1798   22.2756 C   0  0  0  0  0  0  0  0  0  0  0  0
  -24.9449  -28.6605   21.5990 C   0  0  0  0  0  0  0  0  0  0  0  0
  -29.2616  -25.5083   22.6906 C   0  0  0  0  0  0  0  0  0  0  0  0
  -24.2392  -29.1682   22.6992 C   0  0  0  0  0  0  0  0  0  0  0  0
  -22.4295   -7.8790   21.1701 C   0  0  0  0  0  0  0  0  0  0  0  0
  -22.3494  -27.7506   22.1255 C   0  0  0  0  0  0  0  0  0  0  0  0
  -21.7964   -6.0250   22.4678 C   0  0  0  0  0  0  0  0  0  0  0  0
  -21.8074   -4.7062   24.9261 C   0  0  0  0  0  0  0  0  0  0  0  0
  -23.0062   -5.6549   23.0553 C   0  0  0  0  0  0  0  0  0  0  0  0
  -24.4203  -11.6039   20.9265 C   0  0  0  0  0  0  0  0  0  0  0  0
  -21.1552  -21.2689   19.7005 C   0  0  0  0  0  0  0  0  0  0  0  0
  -25.8770  -13.2419   21.1007 C   0  0  0  0  0  0  0  0  0  0  0  0
  -20.4974  -24.8790   19.8160 C   0  0  0  0  0  0  0  0  0  0  0  0
  -21.4534  -19.9676   20.1666 C   0  0  0  0  0  0  0  0  0  0  0  0
  -21.5965  -18.8327   19.4054 C   0  0  0  0  0  0  0  0  0  0  0  0
  -20.5335  -25.4433   21.0335 C   0  0  0  0  0  0  0  0  0  0  0  0
  -26.6221  -11.1028   22.1579 C   0  0  0  0  0  0  0  0  0  0  0  0
  -21.9205  -17.5408   20.0432 C   0  0  0  0  0  0  0  0  0  0  0  0
  -27.5307  -28.6839   23.4475 C   0  0  0  0  0  0  0  0  0  0  0  0
  -26.7666  -31.8156   23.8091 C   0  0  0  0  0  0  0  0  0  0  0  0
  -24.3678  -34.2415   23.7204 C   0  0  0  0  0  0  0  0  0  0  0  0
  -31.7734  -25.9223   22.7915 C   0  0  0  0  0  0  0  0  0  0  0  0
  -26.3277  -29.1615   21.2840 C   0  0  0  0  0  0  0  0  0  0  0  0
  -24.8394  -30.1984   23.6195 C   0  0  0  0  0  0  0  0  0  0  0  0
  -31.4366  -27.2753   23.4130 C   0  0  0  0  0  0  0  0  0  0  0  0
  -24.6437  -16.4865   17.8286 C   0  0  0  0  0  0  0  0  0  0  0  0
  -30.2482  -27.1465   24.3605 C   0  0  0  0  0  0  0  0  0  0  0  0
  -24.9744  -15.1118   18.4037 C   0  0  0  0  0  0  0  0  0  0  0  0
  -23.1532  -16.8061   17.9321 C   0  0  0  0  0  0  0  0  0  0  0  0
  -22.9417  -15.3032   19.8909 C   0  0  0  0  0  0  0  0  0  0  0  0
  -28.9942  -26.6784   23.6123 C   0  0  1  0  0  0  0  0  0  0  0  0
  -27.0438  -29.7428   22.4991 C   0  0  1  0  0  0  0  0  0  0  0  0
  -24.4433  -14.9805   19.8399 C   0  0  1  0  0  0  0  0  0  0  0  0
  -18.8306  -27.1864   21.5724 C   0  0  0  0  0  0  0  0  0  0  0  0
  -24.0375  -36.7000   24.1000 C   0  0  0  0  0  0  0  0  0  0  0  0
  -26.8517  -31.3590   26.8248 C   0  0  0  0  0  0  0  0  0  0  0  0
  -25.6156  -33.5166   27.1162 C   0  0  0  0  0  0  0  0  0  0  0  0
  -27.8783  -33.5095   26.0659 C   0  0  0  0  0  0  0  0  0  0  0  0
  -23.5169  -34.6776   20.9196 C   0  0  0  0  0  0  0  0  0  0  0  0
  -20.2969  -26.9073   21.2699 C   0  0  1  0  0  0  0  0  0  1  0  0
  -25.9069  -32.6024   24.7688 C   0  0  1  0  0  0  0  0  0  0  0  0
  -24.3497  -35.6171   23.0788 C   0  0  2  0  0  0  0  0  0  0  0  0
  -26.5522  -32.7260   26.1779 C   0  0  0  0  0  0  0  0  0  0  0  0
  -23.8390  -12.6358   20.3090 N   0  0  0  0  0  0  0  0  0  0  0  0
  -24.7491  -13.6169   20.4318 N   0  0  0  0  0  0  0  0  0  0  0  0
  -22.6560  -16.6168   19.3031 N   0  0  0  0  0  0  0  0  0  0  0  0
  -26.1964  -30.6522   23.2731 N   0  0  0  0  0  0  0  0  0  0  0  0
  -26.8930  -14.1051   21.3128 N   0  0  0  0  0  0  0  0  0  0  0  0
  -26.2731   -9.7712   22.4215 N   0  0  0  0  0  0  0  0  0  0  0  0
  -28.4042  -27.7772   22.8780 N   0  0  0  0  0  0  0  0  0  0  0  0
  -25.6372  -33.8813   24.1207 N   0  0  0  0  0  0  0  0  0  0  0  0
  -23.3192  -35.6738   22.0038 N   0  3  0  0  0  0  0  0  0  0  0  0
  -27.7230  -11.5418   22.5686 O   0  0  0  0  0  0  0  0  0  0  0  0
  -21.5154  -17.3565   21.1924 O   0  0  0  0  0  0  0  0  0  0  0  0
  -27.1437  -28.6899   24.6102 O   0  0  0  0  0  0  0  0  0  0  0  0
  -27.8995  -32.2222   23.5394 O   0  0  0  0  0  0  0  0  0  0  0  0
  -23.3564  -33.5566   23.8565 O   0  0  0  0  0  0  0  0  0  0  0  0
  -20.9515  -21.5351   18.3836 O   0  0  0  0  0  0  0  0  0  0  0  0
  -21.7893   -6.6804   21.2479 O   0  0  0  0  0  0  0  0  0  0  0  0
  -21.0897  -27.3072   22.3870 O   0  0  0  0  0  0  0  0  0  1  0  0
  -21.8126   -4.0743   26.1071 F   0  0  0  0  0  0  0  0  0  0  0  0
  -24.1663   -5.9313   22.4442 F   0  0  0  0  0  0  0  0  0  0  0  0
  1  2  1  0  0  0  0
  1  5  2  0  0  0  0
  2  6  2  0  0  0  0
  3  8  2  0  0  0  0
  3 17  1  0  0  0  0
  4  9  1  0  0  0  0
  4 17  2  0  0  0  0
  5 20  1  0  0  0  0
  6 22  1  0  0  0  0
  7 10  2  0  0  0  0
  7 21  1  0  0  0  0
  8 24  1  0  0  0  0
  9 24  2  0  0  0  0
 10 25  1  0  0  0  0
 11 12  2  0  0  0  0
 11 26  1  0  0  0  0
 12 27  1  0  0  0  0
 13 18  1  0  0  0  0
 13 30  2  0  0  0  0
 14 23  1  0  0  0  0
 14 25  2  0  0  0  0
 15 27  2  0  0  0  0
 15 28  1  0  0  0  0
 16 18  2  0  0  0  0
 16 77  1  0  0  0  0
 17 29  1  0  0  0  0
 18 32  1  0  0  0  0
 19 29  1  0  0  0  0
 19 31  2  0  0  0  0
 19 36  1  0  0  0  0
 20 22  2  0  0  0  0
 20 41  1  0  0  0  0
 21 23  2  0  0  0  0
 21 42  1  0  0  0  0
 22 50  1  0  0  0  0
 23 43  1  0  0  0  0
 24 78  1  0  0  0  0
 25 79  1  0  0  0  0
 26 28  2  0  0  0  0
 26 78  1  0  0  0  0
 27 80  1  0  0  0  0
 28 81  1  0  0  0  0
 29 63  2  0  0  0  0
 30 33  1  0  0  0  0
 30 77  1  0  0  0  0
 31 64  1  0  0  0  0
 31 67  1  0  0  0  0
 32 35  2  0  0  0  0
 33 34  2  0  0  0  0
 34 37  1  0  0  0  0
 35 59  1  0  0  0  0
 36 68  1  0  0  0  0
 36 72  2  0  0  0  0
 37 65  1  0  0  0  0
 37 73  2  0  0  0  0
 38 51  1  0  0  0  0
 38 69  1  0  0  0  0
 38 74  2  0  0  0  0
 39 60  1  0  0  0  0
 39 66  1  0  0  0  0
 39 75  2  0  0  0  0
 40 61  1  0  0  0  0
 40 70  1  0  0  0  0
 40 76  2  0  0  0  0
 41 44  1  0  0  0  0
 42 51  1  0  0  0  0
 43 66  1  0  0  0  0
 44 46  1  0  0  0  0
 45 47  1  0  0  0  0
 45 48  1  0  0  0  0
 46 50  1  0  0  0  0
 47 52  1  0  0  0  0
 48 65  1  0  0  0  0
 49 52  1  0  0  0  0
 49 65  1  0  0  0  0
 50 69  1  0  0  0  0
 51 66  1  0  0  0  0
 52 64  1  0  0  0  0
 53 59  1  0  0  0  0
 54 61  1  0  0  0  0
 55 62  1  0  0  0  0
 56 62  1  0  0  0  0
 57 62  1  0  0  0  0
 58 71  1  0  0  0  0
 59 79  1  0  0  0  0
 60 62  1  0  0  0  0
 60 70  1  0  0  0  0
 61 71  1  0  0  0  0
 63 64  1  0  0  0  0
M  CHG  1  71   1
M  ISO  4  34 100  37 100  59 101  79 101
M  END
> <Batch ID>
0118

> <Smiles>
CNC(C)C(=O)NC(C(=O)N1Cc2cc([101O:1][101CH:1](C)C=Cc3coc(C=[100CH:0][100C:0](=O)N4CCCC(n5nc(-c6ccc(Oc7ccc(F)cc7F)cc6)c(C(N)=O)c5N)C4)c3)ccc2CC1C(=O)NC1CCCc2ccccc21)C(C)(C)C

> <Shape>
0.249

> <Color>
0.100

> <Negative vol penalty>
0.000

$$$$

  -OEChem-04052301483D

 81 89  0     1  0  0  0  0  0999 V2000
  -29.8757  -35.6768   19.0554 C   0  0  0  0  0  0  0  0  0  0  0  0
  -29.7425  -34.3269   18.7468 C   0  0  0  0  0  0  0  0  0  0  0  0
  -24.2237   -9.6016   22.1848 C   0  0  0  0  0  0  0  0  0  0  0  0
  -24.3635   -8.9008   19.8769 C   0  0  0  0  0  0  0  0  0  0  0  0
  -29.5494  -36.1345   20.3313 C   0  0  0  0  0  0  0  0  0  0  0  0
  -29.2839  -33.4336   19.7143 C   0  0  0  0  0  0  0  0  0  0  0  0
  -25.7827  -28.4930   18.7989 C   0  0  0  0  0  0  0  0  0  0  0  0
  -23.1112   -8.7801   22.3669 C   0  0  0  0  0  0  0  0  0  0  0  0
  -23.2510   -8.0792   20.0590 C   0  0  0  0  0  0  0  0  0  0  0  0
  -26.0859  -27.1372   18.6810 C   0  0  0  0  0  0  0  0  0  0  0  0
  -20.4536   -6.5926   23.5361 C   0  0  0  0  0  0  0  0  0  0  0  0
  -20.4095   -5.8064   24.6874 C   0  0  0  0  0  0  0  0  0  0  0  0
  -25.5916  -26.8293   21.0220 C   0  0  0  0  0  0  0  0  0  0  0  0
  -31.3853  -21.9974   19.9828 C   0  0  0  0  0  0  0  0  0  0  0  0
  -22.4518   -4.7053   24.0138 C   0  0  0  0  0  0  0  0  0  0  0  0
  -24.8498   -9.6620   20.9398 C   0  0  0  0  0  0  0  0  0  0  0  0
  -27.3506  -10.1656   20.9374 C   0  0  0  0  0  0  0  0  0  0  0  0
  -29.0774  -35.2479   21.3121 C   0  0  0  0  0  0  0  0  0  0  0  0
  -25.3915  -29.0301   20.0338 C   0  0  0  0  0  0  0  0  0  0  0  0
  -28.9522  -33.8796   21.0049 C   0  0  0  0  0  0  0  0  0  0  0  0
  -25.2815  -28.1916   21.1523 C   0  0  0  0  0  0  0  0  0  0  0  0
  -31.6068  -20.6651   20.4059 C   0  0  0  0  0  0  0  0  0  0  0  0
  -22.6249   -8.0189   21.3040 C   0  0  0  0  0  0  0  0  0  0  0  0
  -25.9932  -26.3058   19.7933 C   0  0  0  0  0  0  0  0  0  0  0  0
  -21.4968   -6.4351   22.6236 C   0  0  0  0  0  0  0  0  0  0  0  0
  -21.4086   -4.8628   24.9263 C   0  0  0  0  0  0  0  0  0  0  0  0
  -22.4959   -5.4915   22.8624 C   0  0  0  0  0  0  0  0  0  0  0  0
  -25.9986  -10.5109   20.7509 C   0  0  0  0  0  0  0  0  0  0  0  0
  -30.0281  -22.1180   19.7951 C   0  0  0  0  0  0  0  0  0  0  0  0
  -30.3690  -20.0666   20.4468 C   0  0  0  0  0  0  0  0  0  0  0  0
  -28.0430  -11.3114   20.6306 C   0  0  0  0  0  0  0  0  0  0  0  0
  -29.2906  -23.3141   19.3549 C   0  0  0  0  0  0  0  0  0  0  0  0
  -30.0626  -18.7339   20.8112 C   0  0  0  0  0  0  0  0  0  0  0  0
  -28.8198  -18.1498   20.8248 C   0  0  0  0  0  0  0  0  0  0  0  0
  -27.9637  -23.3788   19.1641 C   0  0  0  0  0  0  0  0  0  0  0  0
  -27.9288   -8.9205   21.3510 C   0  0  0  0  0  0  0  0  0  0  0  0
  -28.6633  -16.7363   21.2227 C   0  0  0  0  0  0  0  0  0  0  0  0
  -26.5739  -31.2318   21.9979 C   0  0  0  0  0  0  0  0  0  0  0  0
  -23.8021  -30.7260   23.6052 C   0  0  0  0  0  0  0  0  0  0  0  0
  -21.2004  -28.6316   24.3065 C   0  0  0  0  0  0  0  0  0  0  0  0
  -28.7822  -35.7816   22.6915 C   0  0  0  0  0  0  0  0  0  0  0  0
  -25.0421  -30.4893   20.1383 C   0  0  0  0  0  0  0  0  0  0  0  0
  -24.8465  -28.7150   22.4959 C   0  0  0  0  0  0  0  0  0  0  0  0
  -27.9472  -34.8316   23.5463 C   0  0  0  0  0  0  0  0  0  0  0  0
  -26.5321  -15.6068   18.4633 C   0  0  0  0  0  0  0  0  0  0  0  0
  -28.4970  -33.4114   23.4584 C   0  0  0  0  0  0  0  0  0  0  0  0
  -26.2787  -14.1557   18.8631 C   0  0  0  0  0  0  0  0  0  0  0  0
  -26.6405  -16.5245   19.6802 C   0  0  0  0  0  0  0  0  0  0  0  0
  -27.4022  -14.6243   21.0763 C   0  0  0  0  0  0  0  0  0  0  0  0
  -28.4345  -32.8837   22.0200 C   0  0  1  0  0  0  0  0  0  0  0  0
  -25.1506  -31.0293   21.5610 C   0  0  1  0  0  0  0  0  0  0  0  0
  -27.3366  -13.6756   19.8692 C   0  0  1  0  0  0  0  0  0  0  0  0
  -32.9126  -20.0595   20.7330 C   0  0  0  0  0  0  0  0  0  0  0  0
  -19.1093  -28.4812   25.6856 C   0  0  0  0  0  0  0  0  0  0  0  0
  -25.4861  -30.2234   26.0995 C   0  0  0  0  0  0  0  0  0  0  0  0
  -23.4762  -29.1727   27.1599 C   0  0  0  0  0  0  0  0  0  0  0  0
  -23.4189  -31.5753   26.4914 C   0  0  0  0  0  0  0  0  0  0  0  0
  -19.4974  -28.3440   21.9032 C   0  0  0  0  0  0  0  0  0  0  0  0
  -27.2601  -24.6145   18.7022 C   0  0  0  0  0  0  0  0  0  1  0  0
  -23.3584  -29.7894   24.7029 C   0  0  1  0  0  0  0  0  0  0  0  0
  -19.7006  -28.8639   24.3377 C   0  0  2  0  0  0  0  0  0  0  0  0
  -23.9450  -30.1804   26.0887 C   0  0  0  0  0  0  0  0  0  0  0  0
  -25.8395  -11.7770   20.3563 N   0  0  0  0  0  0  0  0  0  0  0  0
  -27.1005  -12.2373   20.2924 N   0  0  0  0  0  0  0  0  0  0  0  0
  -27.6159  -16.0132   20.6548 N   0  0  0  0  0  0  0  0  0  0  0  0
  -24.5218  -30.1500   22.5487 N   0  0  0  0  0  0  0  0  0  0  0  0
  -29.3602  -11.6071   20.6198 N   0  0  0  0  0  0  0  0  0  0  0  0
  -27.0730   -7.8452   21.6264 N   0  0  0  0  0  0  0  0  0  0  0  0
  -27.0854  -32.4777   21.6888 N   0  0  0  0  0  0  0  0  0  0  0  0
  -21.9004  -29.7670   24.6559 N   0  0  0  0  0  0  0  0  0  0  0  0
  -19.0288  -28.0536   23.2827 N   0  3  0  0  0  0  0  0  0  0  0  0
  -29.1666   -8.7708   21.4885 O   0  0  0  0  0  0  0  0  0  0  0  0
  -29.4679  -16.2829   22.0386 O   0  0  0  0  0  0  0  0  0  0  0  0
  -27.1638  -30.3255   22.5742 O   0  0  0  0  0  0  0  0  0  0  0  0
  -23.5143  -31.9232   23.6788 O   0  0  0  0  0  0  0  0  0  0  0  0
  -21.7009  -27.5501   24.0061 O   0  0  0  0  0  0  0  0  0  0  0  0
  -29.4013  -20.9455   20.0760 O   0  0  0  0  0  0  0  0  0  0  0  0
  -21.5396   -7.2169   21.4814 O   0  0  0  0  0  0  0  0  0  0  0  0
  -26.2891  -24.9822   19.6811 O   0  0  0  0  0  0  0  0  0  1  0  0
  -21.3669   -4.1090   26.0328 F   0  0  0  0  0  0  0  0  0  0  0  0
  -23.5012   -5.3365   21.9900 F   0  0  0  0  0  0  0  0  0  0  0  0
  1  2  1  0  0  0  0
  1  5  2  0  0  0  0
  2  6  2  0  0  0  0
  3  8  2  0  0  0  0
  3 16  1  0  0  0  0
  4  9  1  0  0  0  0
  4 16  2  0  0  0  0
  5 18  1  0  0  0  0
  6 20  1  0  0  0  0
  7 10  2  0  0  0  0
  7 19  1  0  0  0  0
  8 23  1  0  0  0  0
  9 23  2  0  0  0  0
 10 24  1  0  0  0  0
 11 12  2  0  0  0  0
 11 25  1  0  0  0  0
 12 26  1  0  0  0  0
 13 21  1  0  0  0  0
 13 24  2  0  0  0  0
 14 22  1  0  0  0  0
 14 29  2  0  0  0  0
 15 26  2  0  0  0  0
 15 27  1  0  0  0  0
 16 28  1  0  0  0  0
 17 28  1  0  0  0  0
 17 31  2  0  0  0  0
 17 36  1  0  0  0  0
 18 20  2  0  0  0  0
 18 41  1  0  0  0  0
 19 21  2  0  0  0  0
 19 42  1  0  0  0  0
 20 50  1  0  0  0  0
 21 43  1  0  0  0  0
 22 30  2  0  0  0  0
 22 53  1  0  0  0  0
 23 78  1  0  0  0  0
 24 79  1  0  0  0  0
 25 27  2  0  0  0  0
 25 78  1  0  0  0  0
 26 80  1  0  0  0  0
 27 81  1  0  0  0  0
 28 63  2  0  0  0  0
 29 32  1  0  0  0  0
 29 77  1  0  0  0  0
 30 33  1  0  0  0  0
 30 77  1  0  0  0  0
 31 64  1  0  0  0  0
 31 67  1  0  0  0  0
 32 35  2  0  0  0  0
 33 34  2  0  0  0  0
 34 37  1  0  0  0  0
 35 59  1  0  0  0  0
 36 68  1  0  0  0  0
 36 72  2  0  0  0  0
 37 65  1  0  0  0  0
 37 73  2  0  0  0  0
 38 51  1  0  0  0  0
 38 69  1  0  0  0  0
 38 74  2  0  0  0  0
 39 60  1  0  0  0  0
 39 66  1  0  0  0  0
 39 75  2  0  0  0  0
 40 61  1  0  0  0  0
 40 70  1  0  0  0  0
 40 76  2  0  0  0  0
 41 44  1  0  0  0  0
 42 51  1  0  0  0  0
 43 66  1  0  0  0  0
 44 46  1  0  0  0  0
 45 47  1  0  0  0  0
 45 48  1  0  0  0  0
 46 50  1  0  0  0  0
 47 52  1  0  0  0  0
 48 65  1  0  0  0  0
 49 52  1  0  0  0  0
 49 65  1  0  0  0  0
 50 69  1  0  0  0  0
 51 66  1  0  0  0  0
 52 64  1  0  0  0  0
 54 61  1  0  0  0  0
 55 62  1  0  0  0  0
 56 62  1  0  0  0  0
 57 62  1  0  0  0  0
 58 71  1  0  0  0  0
 59 79  1  0  0  0  0
 60 62  1  0  0  0  0
 60 70  1  0  0  0  0
 61 71  1  0  0  0  0
 63 64  1  0  0  0  0
M  CHG  1  71   1
M  ISO  4  34 100  37 100  59 101  79 101
M  END
> <Batch ID>
0118

> <Smiles>
CNC(C)C(=O)NC(C(=O)N1Cc2cc([101O:1][101CH2:1]C=Cc3cc(C)c(C=[100CH:0][100C:0](=O)N4CCCC(n5nc(-c6ccc(Oc7ccc(F)cc7F)cc6)c(C(N)=O)c5N)C4)o3)ccc2CC1C(=O)NC1CCCc2ccccc21)C(C)(C)C

> <Shape>
0.268

> <Color>
0.129

> <Negative vol penalty>
0.000

$$$$

  -OEChem-04052301483D

 86 95  0     1  0  0  0  0  0999 V2000
  -29.2391  -32.4995   25.0881 C   0  0  0  0  0  0  0  0  0  0  0  0
  -29.0414  -31.1268   24.9789 C   0  0  0  0  0  0  0  0  0  0  0  0
  -22.8517  -10.1603   21.5612 C   0  0  0  0  0  0  0  0  0  0  0  0
  -24.4132  -10.3701   23.3928 C   0  0  0  0  0  0  0  0  0  0  0  0
  -28.1559  -33.3699   24.9745 C   0  0  0  0  0  0  0  0  0  0  0  0
  -27.7600  -30.6235   24.7572 C   0  0  0  0  0  0  0  0  0  0  0  0
  -27.6773  -27.0167   21.2035 C   0  0  0  0  0  0  0  0  0  0  0  0
  -32.1740  -18.8995   21.6317 C   0  0  0  0  0  0  0  0  0  0  0  0
  -31.6921  -17.6771   21.1637 C   0  0  0  0  0  0  0  0  0  0  0  0
  -22.1741   -9.1570   22.2538 C   0  0  0  0  0  0  0  0  0  0  0  0
  -23.7355   -9.3668   24.0855 C   0  0  0  0  0  0  0  0  0  0  0  0
  -28.1046  -25.7436   21.5783 C   0  0  0  0  0  0  0  0  0  0  0  0
  -19.9340   -8.9496   24.7781 C   0  0  0  0  0  0  0  0  0  0  0  0
  -18.5409   -9.0106   24.8088 C   0  0  0  0  0  0  0  0  0  0  0  0
  -29.4300  -18.5131   21.3090 C   0  0  0  0  0  0  0  0  0  0  0  0
  -25.8067  -25.0480   21.8128 C   0  0  0  0  0  0  0  0  0  0  0  0
  -18.4226   -6.8541   23.7259 C   0  0  0  0  0  0  0  0  0  0  0  0
  -23.9714  -10.7668   22.1307 C   0  0  0  0  0  0  0  0  0  0  0  0
  -29.9119  -19.7356   21.7770 C   0  0  0  0  0  0  0  0  0  0  0  0
  -24.1514  -13.0356   20.9784 C   0  0  0  0  0  0  0  0  0  0  0  0
  -26.8620  -32.8776   24.7417 C   0  0  0  0  0  0  0  0  0  0  0  0
  -26.3094  -27.3186   21.1409 C   0  0  0  0  0  0  0  0  0  0  0  0
  -26.6582  -31.4880   24.6418 C   0  0  0  0  0  0  0  0  0  0  0  0
  -25.3646  -26.3249   21.4344 C   0  0  0  0  0  0  0  0  0  0  0  0
  -31.2839  -19.9288   21.9384 C   0  0  0  0  0  0  0  0  0  0  0  0
  -30.3202  -17.4839   21.0023 C   0  0  0  0  0  0  0  0  0  0  0  0
  -22.6159   -8.7602   23.5159 C   0  0  0  0  0  0  0  0  0  0  0  0
  -27.1693  -24.7599   21.8858 C   0  0  0  0  0  0  0  0  0  0  0  0
  -20.5715   -7.8408   24.2212 C   0  0  0  0  0  0  0  0  0  0  0  0
  -17.7851   -7.9628   24.2827 C   0  0  0  0  0  0  0  0  0  0  0  0
  -19.8158   -6.7931   23.6952 C   0  0  0  0  0  0  0  0  0  0  0  0
  -24.6722  -11.8029   21.4154 C   0  0  0  0  0  0  0  0  0  0  0  0
  -25.2086  -13.6538   20.3565 C   0  0  0  0  0  0  0  0  0  0  0  0
  -27.5695  -21.8496   23.9501 C   0  0  0  0  0  0  0  0  0  0  0  0
  -27.2191  -23.0548   23.4861 C   0  0  0  0  0  0  0  0  0  1  0  0
  -28.9523  -20.8033   22.0920 C   0  0  0  0  0  0  0  0  0  0  0  0
  -22.8303  -13.5738   21.1217 C   0  0  0  0  0  0  0  0  0  0  0  0
  -24.3924  -29.3621   22.6419 C   0  0  0  0  0  0  0  0  0  0  0  0
  -22.2039  -28.2705   20.5109 C   0  0  0  0  0  0  0  0  0  0  0  0
  -21.1928  -25.7698   18.4201 C   0  0  0  0  0  0  0  0  0  0  0  0
  -30.5783  -15.1164   20.1808 C   0  0  0  0  0  0  0  0  0  0  0  0
  -25.7150  -33.8545   24.6733 C   0  0  0  0  0  0  0  0  0  0  0  0
  -25.8644  -28.6889   20.7090 C   0  0  0  0  0  0  0  0  0  0  0  0
  -23.8842  -26.5923   21.3628 C   0  0  0  0  0  0  0  0  0  0  0  0
  -27.1503  -21.3701   25.3169 C   0  0  0  0  0  0  0  0  0  0  0  0
  -24.4462  -33.2626   24.0649 C   0  0  0  0  0  0  0  0  0  0  0  0
  -28.2993  -20.4523   25.7027 C   0  0  0  0  0  0  0  0  0  0  0  0
  -29.7458  -11.8586   19.0099 C   0  0  0  0  0  0  0  0  0  0  0  0
  -24.1521  -31.8938   24.6704 C   0  0  0  0  0  0  0  0  0  0  0  0
  -28.3088  -11.6551   19.4954 C   0  0  0  0  0  0  0  0  0  0  0  0
  -28.7590  -19.8841   24.3732 C   0  0  0  0  0  0  0  0  0  0  0  0
  -30.5823  -12.6364   20.0243 C   0  0  0  0  0  0  0  0  0  0  0  0
  -28.5648  -13.7098   20.9445 C   0  0  0  0  0  0  0  0  0  0  0  0
  -25.2870  -30.9052   24.3766 C   0  0  1  0  0  0  0  0  0  0  0  0
  -24.4539  -29.0342   21.1768 C   0  0  1  0  0  0  0  0  0  0  0  0
  -27.6659  -12.9876   19.9276 C   0  0  2  0  0  0  0  0  0  0  0  0
  -31.8268  -21.2280   22.4378 C   0  0  0  0  0  0  0  0  0  0  0  0
  -19.3444  -25.1497   16.8402 C   0  0  0  0  0  0  0  0  0  0  0  0
  -20.3865  -27.6537   22.8830 C   0  0  0  0  0  0  0  0  0  0  0  0
  -19.0168  -26.2058   21.3678 C   0  0  0  0  0  0  0  0  0  0  0  0
  -19.2209  -28.6488   20.9068 C   0  0  0  0  0  0  0  0  0  0  0  0
  -23.0549  -25.5960   16.1263 C   0  0  0  0  0  0  0  0  0  0  0  0
  -21.2051  -27.1387   20.4890 C   0  0  1  0  0  0  0  0  0  0  0  0
  -20.7155  -25.7928   16.9793 C   0  0  2  0  0  0  0  0  0  0  0  0
  -19.9852  -27.4069   21.4150 C   0  0  0  0  0  0  0  0  0  0  0  0
  -25.9600  -11.6455   21.0980 N   0  0  0  0  0  0  0  0  0  0  0  0
  -26.2574  -12.7874   20.4548 N   0  0  0  0  0  0  0  0  0  0  0  0
  -28.4173  -20.9085   23.3775 N   0  0  0  0  0  0  0  0  0  0  0  0
  -23.4990  -27.9494   20.9416 N   0  0  0  0  0  0  0  0  0  0  0  0
  -29.9133  -13.8886   20.3836 N   0  0  0  0  0  0  0  0  0  0  0  0
  -25.3341  -14.8485   19.7407 N   0  0  0  0  0  0  0  0  0  0  0  0
  -21.8649  -12.8065   21.7878 N   0  0  0  0  0  0  0  0  0  0  0  0
  -29.8310  -16.2412   20.5288 N   0  0  0  0  0  0  0  0  0  0  0  0
  -25.1965  -30.4219   23.0155 N   0  0  0  0  0  0  0  0  0  0  0  0
  -20.8570  -26.9284   19.0880 N   0  0  0  0  0  0  0  0  0  0  0  0
  -21.6712  -25.0555   16.1052 N   0  3  0  0  0  0  0  0  0  0  0  0
  -28.7314  -21.6075   21.1842 O   0  0  0  0  0  0  0  0  0  0  0  0
  -22.5108  -14.6948   20.6581 O   0  0  0  0  0  0  0  0  0  0  0  0
  -23.6677  -28.7034   23.3785 O   0  0  0  0  0  0  0  0  0  0  0  0
  -21.8500  -29.3963   20.1520 O   0  0  0  0  0  0  0  0  0  0  0  0
  -21.7994  -24.8176   18.9058 O   0  0  0  0  0  0  0  0  0  0  0  0
  -31.7158  -15.1676   19.7061 O   0  0  0  0  0  0  0  0  0  0  0  0
  -21.9547   -7.7814   24.1922 O   0  0  0  0  0  0  0  0  0  0  0  0
  -27.5837  -23.5166   22.2526 O   0  0  0  0  0  0  0  0  0  1  0  0
  -16.4473   -8.0208   24.3137 F   0  0  0  0  0  0  0  0  0  0  0  0
  -20.4225   -5.7248   23.1600 F   0  0  0  0  0  0  0  0  0  0  0  0
  1  2  1  0  0  0  0
  1  5  2  0  0  0  0
  2  6  2  0  0  0  0
  3 10  2  0  0  0  0
  3 18  1  0  0  0  0
  4 11  1  0  0  0  0
  4 18  2  0  0  0  0
  5 21  1  0  0  0  0
  6 23  1  0  0  0  0
  7 12  2  0  0  0  0
  7 22  1  0  0  0  0
  8  9  2  0  0  0  0
  8 25  1  0  0  0  0
  9 26  1  0  0  0  0
 10 27  1  0  0  0  0
 11 27  2  0  0  0  0
 12 28  1  0  0  0  0
 13 14  2  0  0  0  0
 13 29  1  0  0  0  0
 14 30  1  0  0  0  0
 15 19  1  0  0  0  0
 15 26  2  0  0  0  0
 16 24  1  0  0  0  0
 16 28  2  0  0  0  0
 17 30  2  0  0  0  0
 17 31  1  0  0  0  0
 18 32  1  0  0  0  0
 19 25  2  0  0  0  0
 19 36  1  0  0  0  0
 20 32  1  0  0  0  0
 20 33  2  0  0  0  0
 20 37  1  0  0  0  0
 21 23  2  0  0  0  0
 21 42  1  0  0  0  0
 22 24  2  0  0  0  0
 22 43  1  0  0  0  0
 23 54  1  0  0  0  0
 24 44  1  0  0  0  0
 25 57  1  0  0  0  0
 26 73  1  0  0  0  0
 27 83  1  0  0  0  0
 28 84  1  0  0  0  0
 29 31  2  0  0  0  0
 29 83  1  0  0  0  0
 30 85  1  0  0  0  0
 31 86  1  0  0  0  0
 32 66  2  0  0  0  0
 33 67  1  0  0  0  0
 33 71  1  0  0  0  0
 34 35  2  0  0  0  0
 34 45  1  0  0  0  0
 34 68  1  0  0  0  0
 35 84  1  0  0  0  0
 36 68  1  0  0  0  0
 36 77  2  0  0  0  0
 37 72  1  0  0  0  0
 37 78  2  0  0  0  0
 38 55  1  0  0  0  0
 38 74  1  0  0  0  0
 38 79  2  0  0  0  0
 39 63  1  0  0  0  0
 39 69  1  0  0  0  0
 39 80  2  0  0  0  0
 40 64  1  0  0  0  0
 40 75  1  0  0  0  0
 40 81  2  0  0  0  0
 41 70  1  0  0  0  0
 41 73  1  0  0  0  0
 41 82  2  0  0  0  0
 42 46  1  0  0  0  0
 43 55  1  0  0  0  0
 44 69  1  0  0  0  0
 45 47  1  0  0  0  0
 46 49  1  0  0  0  0
 47 51  1  0  0  0  0
 48 50  1  0  0  0  0
 48 52  1  0  0  0  0
 49 54  1  0  0  0  0
 50 56  1  0  0  0  0
 51 68  1  0  0  0  0
 52 70  1  0  0  0  0
 53 56  1  0  0  0  0
 53 70  1  0  0  0  0
 54 74  1  0  0  0  0
 55 69  1  0  0  0  0
 56 67  1  0  0  0  0
 58 64  1  0  0  0  0
 59 65  1  0  0  0  0
 60 65  1  0  0  0  0
 61 65  1  0  0  0  0
 62 76  1  0  0  0  0
 63 65  1  0  0  0  0
 63 75  1  0  0  0  0
 64 76  1  0  0  0  0
 66 67  1  0  0  0  0
M  CHG  1  76   1
M  ISO  4  35 101  41 100  73 100  84 101
M  END
> <Batch ID>
0118

> <Smiles>
CNC(C)C(=O)NC(C(=O)N1Cc2cc([101O:1][101CH:1]=C3CCCN3C(=O)c3cc([100NH:0][100C:0](=O)N4CCCC(n5nc(-c6ccc(Oc7ccc(F)cc7F)cc6)c(C(N)=O)c5N)C4)ccc3C)ccc2CC1C(=O)NC1CCCc2ccccc21)C(C)(C)C

> <Shape>
0.282

> <Color>
0.152

> <Negative vol penalty>
0.000

$$$$

  -OEChem-04052301483D

 81 89  0     1  0  0  0  0  0999 V2000
  -27.0149  -35.0157   22.1405 C   0  0  0  0  0  0  0  0  0  0  0  0
  -27.3824  -33.6924   22.3620 C   0  0  0  0  0  0  0  0  0  0  0  0
  -24.4302   -9.8118   21.8949 C   0  0  0  0  0  0  0  0  0  0  0  0
  -24.6568  -11.1691   23.8807 C   0  0  0  0  0  0  0  0  0  0  0  0
  -30.2649  -21.1059   21.2351 C   0  0  0  0  0  0  0  0  0  0  0  0
  -25.6885  -35.4082   22.3150 C   0  0  0  0  0  0  0  0  0  0  0  0
  -26.4238  -32.7608   22.7592 C   0  0  0  0  0  0  0  0  0  0  0  0
  -26.7928  -28.3922   20.2246 C   0  0  0  0  0  0  0  0  0  0  0  0
  -30.1504  -19.7579   20.8955 C   0  0  0  0  0  0  0  0  0  0  0  0
  -24.0456   -8.7257   22.6810 C   0  0  0  0  0  0  0  0  0  0  0  0
  -24.2721  -10.0829   24.6669 C   0  0  0  0  0  0  0  0  0  0  0  0
  -27.8003  -27.5118   20.6166 C   0  0  0  0  0  0  0  0  0  0  0  0
  -22.6555   -5.6977   24.1351 C   0  0  0  0  0  0  0  0  0  0  0  0
  -21.5604   -4.9454   23.7106 C   0  0  0  0  0  0  0  0  0  0  0  0
  -27.8571  -21.3008   21.2736 C   0  0  0  0  0  0  0  0  0  0  0  0
  -26.1835  -26.2257   21.8619 C   0  0  0  0  0  0  0  0  0  0  0  0
  -20.1596   -6.9094   23.8433 C   0  0  0  0  0  0  0  0  0  0  0  0
  -24.7358  -11.0335   22.4947 C   0  0  0  0  0  0  0  0  0  0  0  0
  -29.1183  -21.8774   21.4242 C   0  0  0  0  0  0  0  0  0  0  0  0
  -27.7426  -19.9527   20.9340 C   0  0  0  0  0  0  0  0  0  0  0  0
  -24.2951  -13.1315   21.1121 C   0  0  0  0  0  0  0  0  0  0  0  0
  -24.7113  -34.4789   22.7052 C   0  0  0  0  0  0  0  0  0  0  0  0
  -25.4728  -28.2018   20.6580 C   0  0  0  0  0  0  0  0  0  0  0  0
  -25.0833  -33.1415   22.9404 C   0  0  0  0  0  0  0  0  0  0  0  0
  -25.1606  -27.1036   21.4719 C   0  0  0  0  0  0  0  0  0  0  0  0
  -28.8893  -19.1813   20.7449 C   0  0  0  0  0  0  0  0  0  0  0  0
  -23.9666   -8.8613   24.0670 C   0  0  0  0  0  0  0  0  0  0  0  0
  -27.4962  -26.4300   21.4377 C   0  0  0  0  0  0  0  0  0  0  0  0
  -22.5027   -7.0559   24.4138 C   0  0  0  0  0  0  0  0  0  0  0  0
  -20.3125   -5.5512   23.5646 C   0  0  0  0  0  0  0  0  0  0  0  0
  -21.2548   -7.6617   24.2679 C   0  0  0  0  0  0  0  0  0  0  0  0
  -25.1337  -12.1556   21.6832 C   0  0  0  0  0  0  0  0  0  0  0  0
  -25.1515  -13.9706   20.4420 C   0  0  0  0  0  0  0  0  0  0  0  0
  -25.5319  -19.8007   19.8827 C   0  0  0  0  0  0  0  0  0  0  0  0
  -29.2401  -23.3002   21.7839 C   0  0  0  0  0  0  0  0  0  0  0  0
  -26.4079  -19.3850   20.7843 C   0  0  0  0  0  0  0  0  0  0  0  0
  -28.3532  -24.2540   21.4735 C   0  0  0  0  0  0  0  0  0  1  0  0
  -22.8695  -13.2675   21.1813 C   0  0  0  0  0  0  0  0  0  0  0  0
  -23.4230  -29.8832   22.4115 C   0  0  0  0  0  0  0  0  0  0  0  0
  -21.3608  -27.5315   21.5520 C   0  0  0  0  0  0  0  0  0  0  0  0
  -20.9077  -24.3136   20.5093 C   0  0  0  0  0  0  0  0  0  0  0  0
  -29.8625  -16.9272   20.1808 C   0  0  0  0  0  0  0  0  0  0  0  0
  -23.2992  -34.9603   22.9269 C   0  0  0  0  0  0  0  0  0  0  0  0
  -24.3927  -29.1453   20.2045 C   0  0  0  0  0  0  0  0  0  0  0  0
  -23.7556  -26.8433   21.9479 C   0  0  0  0  0  0  0  0  0  0  0  0
  -22.2732  -33.8315   22.9863 C   0  0  0  0  0  0  0  0  0  0  0  0
  -30.0686  -13.4713   19.3494 C   0  0  0  0  0  0  0  0  0  0  0  0
  -22.7690  -32.7065   23.8892 C   0  0  0  0  0  0  0  0  0  0  0  0
  -28.7341  -12.9012   19.8354 C   0  0  0  0  0  0  0  0  0  0  0  0
  -30.5972  -14.5557   20.2866 C   0  0  0  0  0  0  0  0  0  0  0  0
  -28.3165  -15.0704   21.0630 C   0  0  0  0  0  0  0  0  0  0  0  0
  -24.0676  -32.0964   23.3480 C   0  0  1  0  0  0  0  0  0  0  0  0
  -23.1761  -29.1475   21.1249 C   0  0  1  0  0  0  0  0  0  0  0  0
  -27.7123  -14.0202   20.1167 C   0  0  2  0  0  0  0  0  0  0  0  0
  -19.1060  -22.6663   19.9284 C   0  0  0  0  0  0  0  0  0  0  0  0
  -20.7605  -27.1455   24.5186 C   0  0  0  0  0  0  0  0  0  0  0  0
  -19.7333  -24.9338   23.9516 C   0  0  0  0  0  0  0  0  0  0  0  0
  -18.7571  -27.0344   23.0258 C   0  0  0  0  0  0  0  0  0  0  0  0
  -21.8979  -24.0330   17.7345 C   0  0  0  0  0  0  0  0  0  0  0  0
  -20.9656  -26.1930   22.1276 C   0  0  1  0  0  0  0  0  0  0  0  0
  -20.0590  -23.7254   19.3966 C   0  0  2  0  0  0  0  0  0  0  0  0
  -20.0810  -26.3324   23.3987 C   0  0  0  0  0  0  0  0  0  0  0  0
  -26.4238  -12.3549   21.4004 N   0  0  0  0  0  0  0  0  0  0  0  0
  -26.4022  -13.4657   20.6442 N   0  0  0  0  0  0  0  0  0  0  0  0
  -22.7356  -27.7976   21.4826 N   0  0  0  0  0  0  0  0  0  0  0  0
  -29.5768  -15.5836   20.5034 N   0  0  0  0  0  0  0  0  0  0  0  0
  -24.9491  -15.0836   19.7053 N   0  0  0  0  0  0  0  0  0  0  0  0
  -22.1424  -12.3181   21.9123 N   0  0  0  0  0  0  0  0  0  0  0  0
  -28.8051  -17.8098   20.3989 N   0  0  0  0  0  0  0  0  0  0  0  0
  -23.7855  -31.2059   22.2427 N   0  0  0  0  0  0  0  0  0  0  0  0
  -20.3367  -25.4507   21.0405 N   0  0  0  0  0  0  0  0  0  0  0  0
  -20.9266  -23.0987   18.3595 N   0  3  0  0  0  0  0  0  0  0  0  0
  -22.2569  -14.1939   20.5982 O   0  0  0  0  0  0  0  0  0  0  0  0
  -23.2928  -29.2948   23.4785 O   0  0  0  0  0  0  0  0  0  0  0  0
  -20.4823  -28.3091   21.1711 O   0  0  0  0  0  0  0  0  0  0  0  0
  -21.9691  -23.8123   20.8736 O   0  0  0  0  0  0  0  0  0  0  0  0
  -30.9548  -17.2653   19.7178 O   0  0  0  0  0  0  0  0  0  0  0  0
  -23.5911   -7.8017   24.8345 O   0  0  0  0  0  0  0  0  0  0  0  0
  -28.4778  -25.5695   21.8223 O   0  0  0  0  0  0  0  0  0  1  0  0
  -19.2613   -4.8289   23.1554 F   0  0  0  0  0  0  0  0  0  0  0  0
  -21.1021   -8.9664   24.5330 F   0  0  0  0  0  0  0  0  0  0  0  0
  1  2  1  0  0  0  0
  1  6  2  0  0  0  0
  2  7  2  0  0  0  0
  3 10  2  0  0  0  0
  3 18  1  0  0  0  0
  4 11  1  0  0  0  0
  4 18  2  0  0  0  0
  5  9  2  0  0  0  0
  5 19  1  0  0  0  0
  6 22  1  0  0  0  0
  7 24  1  0  0  0  0
  8 12  2  0  0  0  0
  8 23  1  0  0  0  0
  9 26  1  0  0  0  0
 10 27  1  0  0  0  0
 11 27  2  0  0  0  0
 12 28  1  0  0  0  0
 13 14  2  0  0  0  0
 13 29  1  0  0  0  0
 14 30  1  0  0  0  0
 15 19  2  0  0  0  0
 15 20  1  0  0  0  0
 16 25  1  0  0  0  0
 16 28  2  0  0  0  0
 17 30  2  0  0  0  0
 17 31  1  0  0  0  0
 18 32  1  0  0  0  0
 19 35  1  0  0  0  0
 20 26  2  0  0  0  0
 20 36  1  0  0  0  0
 21 32  1  0  0  0  0
 21 33  2  0  0  0  0
 21 38  1  0  0  0  0
 22 24  2  0  0  0  0
 22 43  1  0  0  0  0
 23 25  2  0  0  0  0
 23 44  1  0  0  0  0
 24 52  1  0  0  0  0
 25 45  1  0  0  0  0
 26 69  1  0  0  0  0
 27 78  1  0  0  0  0
 28 79  1  0  0  0  0
 29 31  2  0  0  0  0
 29 78  1  0  0  0  0
 30 80  1  0  0  0  0
 31 81  1  0  0  0  0
 32 63  2  0  0  0  0
 33 64  1  0  0  0  0
 33 67  1  0  0  0  0
 34 36  2  0  0  0  0
 35 37  2  0  0  0  0
 37 79  1  0  0  0  0
 38 68  1  0  0  0  0
 38 73  2  0  0  0  0
 39 53  1  0  0  0  0
 39 70  1  0  0  0  0
 39 74  2  0  0  0  0
 40 60  1  0  0  0  0
 40 65  1  0  0  0  0
 40 75  2  0  0  0  0
 41 61  1  0  0  0  0
 41 71  1  0  0  0  0
 41 76  2  0  0  0  0
 42 66  1  0  0  0  0
 42 69  1  0  0  0  0
 42 77  2  0  0  0  0
 43 46  1  0  0  0  0
 44 53  1  0  0  0  0
 45 65  1  0  0  0  0
 46 48  1  0  0  0  0
 47 49  1  0  0  0  0
 47 50  1  0  0  0  0
 48 52  1  0  0  0  0
 49 54  1  0  0  0  0
 50 66  1  0  0  0  0
 51 54  1  0  0  0  0
 51 66  1  0  0  0  0
 52 70  1  0  0  0  0
 53 65  1  0  0  0  0
 54 64  1  0  0  0  0
 55 61  1  0  0  0  0
 56 62  1  0  0  0  0
 57 62  1  0  0  0  0
 58 62  1  0  0  0  0
 59 72  1  0  0  0  0
 60 62  1  0  0  0  0
 60 71  1  0  0  0  0
 61 72  1  0  0  0  0
 63 64  1  0  0  0  0
M  CHG  1  72   1
M  ISO  4  37 101  42 100  69 100  79 101
M  END
> <Batch ID>
0118

> <Smiles>
C=Cc1cc(C=[101CH:1][101O:1]c2ccc3c(c2)CN(C(=O)C(NC(=O)C(C)NC)C(C)(C)C)C(C(=O)NC2CCCc4ccccc42)C3)ccc1[100NH:0][100C:0](=O)N1CCCC(n2nc(-c3ccc(Oc4ccc(F)cc4F)cc3)c(C(N)=O)c2N)C1

> <Shape>
0.298

> <Color>
0.108

> <Negative vol penalty>
0.000

$$$$

  -OEChem-04052301483D

 85 93  0     1  0  0  0  0  0999 V2000
  -21.2880  -29.6329   23.2330 C   0  0  0  0  0  0  0  0  0  0  0  0
  -22.0351  -28.6892   23.9306 C   0  0  0  0  0  0  0  0  0  0  0  0
  -22.9488   -9.9160   20.1046 C   0  0  0  0  0  0  0  0  0  0  0  0
  -23.6357  -10.1537   22.4087 C   0  0  0  0  0  0  0  0  0  0  0  0
  -21.8492  -30.2978   22.1436 C   0  0  0  0  0  0  0  0  0  0  0  0
  -23.3436  -28.4091   23.5385 C   0  0  0  0  0  0  0  0  0  0  0  0
  -28.0502  -26.9676   27.1821 C   0  0  0  0  0  0  0  0  0  0  0  0
  -22.1566   -8.8223   20.4536 C   0  0  0  0  0  0  0  0  0  0  0  0
  -22.8434   -9.0600   22.7577 C   0  0  0  0  0  0  0  0  0  0  0  0
  -28.6259  -25.7470   27.5321 C   0  0  0  0  0  0  0  0  0  0  0  0
  -23.0326   -5.6890   22.5802 C   0  0  0  0  0  0  0  0  0  0  0  0
  -23.5880   -4.7307   23.4281 C   0  0  0  0  0  0  0  0  0  0  0  0
  -30.7397  -14.9915   23.8139 C   0  0  0  0  0  0  0  0  0  0  0  0
  -30.2869  -26.0429   25.8080 C   0  0  0  0  0  0  0  0  0  0  0  0
  -31.7038  -16.6124   25.3239 C   0  0  0  0  0  0  0  0  0  0  0  0
  -21.8408   -5.1477   25.0438 C   0  0  0  0  0  0  0  0  0  0  0  0
  -23.6884  -10.5817   21.0822 C   0  0  0  0  0  0  0  0  0  0  0  0
  -30.6923  -15.9566   22.8081 C   0  0  0  0  0  0  0  0  0  0  0  0
  -24.1241  -13.0655   20.6970 C   0  0  0  0  0  0  0  0  0  0  0  0
  -23.1685  -30.0327   21.7438 C   0  0  0  0  0  0  0  0  0  0  0  0
  -28.5829  -27.7311   26.1334 C   0  0  0  0  0  0  0  0  0  0  0  0
  -23.9225  -29.0701   22.4418 C   0  0  0  0  0  0  0  0  0  0  0  0
  -29.7177  -27.2740   25.4483 C   0  0  0  0  0  0  0  0  0  0  0  0
  -31.1507  -17.2497   23.0601 C   0  0  0  0  0  0  0  0  0  0  0  0
  -22.1039   -8.3943   21.7801 C   0  0  0  0  0  0  0  0  0  0  0  0
  -29.7427  -25.2831   26.8432 C   0  0  0  0  0  0  0  0  0  0  0  0
  -21.8813   -6.3767   22.9642 C   0  0  0  0  0  0  0  0  0  0  0  0
  -31.6564  -17.5776   24.3180 C   0  0  0  0  0  0  0  0  0  0  0  0
  -22.9921   -4.4600   24.6598 C   0  0  0  0  0  0  0  0  0  0  0  0
  -31.2454  -15.3194   25.0719 C   0  0  0  0  0  0  0  0  0  0  0  0
  -21.2855   -6.1060   24.1960 C   0  0  0  0  0  0  0  0  0  0  0  0
  -24.5074  -11.7112   20.7222 C   0  0  0  0  0  0  0  0  0  0  0  0
  -25.2533  -13.7345   20.2922 C   0  0  0  0  0  0  0  0  0  0  0  0
  -30.1586  -15.5849   21.5043 C   0  0  0  0  0  0  0  0  0  0  0  0
  -22.8603  -13.6653   21.0114 C   0  0  0  0  0  0  0  0  0  0  0  0
  -30.7785  -14.5084   20.6980 C   0  0  0  0  0  0  0  0  0  0  0  0
  -27.4959  -28.7554   23.3275 C   0  0  0  0  0  0  0  0  0  0  0  0
  -30.3206  -30.3487   23.2548 C   0  0  0  0  0  0  0  0  0  0  0  0
  -33.5511  -30.5693   24.3327 C   0  0  0  0  0  0  0  0  0  0  0  0
  -23.7160  -30.7423   20.5309 C   0  0  0  0  0  0  0  0  0  0  0  0
  -27.9663  -29.0583   25.7857 C   0  0  0  0  0  0  0  0  0  0  0  0
  -30.3401  -28.0655   24.3282 C   0  0  0  0  0  0  0  0  0  0  0  0
  -25.2355  -30.6595   20.4109 C   0  0  0  0  0  0  0  0  0  0  0  0
  -29.6086  -12.0194   18.3973 C   0  0  0  0  0  0  0  0  0  0  0  0
  -25.7126  -29.2303   20.6486 C   0  0  0  0  0  0  0  0  0  0  0  0
  -28.1566  -11.8012   18.8214 C   0  0  0  0  0  0  0  0  0  0  0  0
  -30.5010  -12.3224   19.5966 C   0  0  0  0  0  0  0  0  0  0  0  0
  -28.5787  -13.2672   20.8458 C   0  0  0  0  0  0  0  0  0  0  0  0
  -25.3535  -28.7567   22.0622 C   0  0  1  0  0  0  0  0  0  0  0  0
  -28.2817  -29.5092   24.3629 C   0  0  1  0  0  0  0  0  0  0  0  0
  -27.6418  -12.9859   19.6581 C   0  0  2  0  0  0  0  0  0  0  0  0
  -31.1030  -18.2912   21.9874 C   0  0  0  0  0  0  0  0  0  0  0  0
  -35.6249  -31.9576   24.0701 C   0  0  0  0  0  0  0  0  0  0  0  0
  -30.8279  -29.0712   20.5307 C   0  0  0  0  0  0  0  0  0  0  0  0
  -33.2384  -29.7081   20.7586 C   0  0  0  0  0  0  0  0  0  0  0  0
  -31.4831  -31.4793   20.6918 C   0  0  0  0  0  0  0  0  0  0  0  0
  -33.5802  -31.2783   27.2059 C   0  0  0  0  0  0  0  0  0  0  0  0
  -30.8395  -21.8654   26.4147 C   0  0  0  0  0  0  0  0  0  0  0  0
  -31.5357  -21.0426   25.3362 C   0  0  0  0  0  0  0  0  0  0  0  0
  -30.9526  -23.3594   26.1420 C   0  0  0  0  0  0  0  0  0  1  0  0
  -31.4601  -19.5511   25.6304 C   0  0  0  0  0  0  0  0  0  0  0  0
  -31.7110  -30.0374   22.7561 C   0  0  1  0  0  0  0  0  0  0  0  0
  -34.3541  -31.7374   24.8759 C   0  0  2  0  0  0  0  0  0  0  0  0
  -31.8024  -30.0579   21.2041 C   0  0  0  0  0  0  0  0  0  0  0  0
  -25.7806  -11.5289   20.3620 N   0  0  0  0  0  0  0  0  0  0  0  0
  -29.1184  -16.1607   20.9680 N   0  0  0  0  0  0  0  0  0  0  0  0
  -26.2071  -12.7774   20.1066 N   0  0  0  0  0  0  0  0  0  0  0  0
  -29.9648  -13.4275   20.3886 N   0  0  0  0  0  0  0  0  0  0  0  0
  -29.6971  -29.3539   24.0214 N   0  0  0  0  0  0  0  0  0  0  0  0
  -25.5135  -15.0421   20.0805 N   0  0  0  0  0  0  0  0  0  0  0  0
  -21.8063  -12.8322   21.4107 N   0  0  0  0  0  0  0  0  0  0  0  0
  -26.2695  -29.3189   23.0315 N   0  0  0  0  0  0  0  0  0  0  0  0
  -32.6036  -30.9815   23.4197 N   0  0  0  0  0  0  0  0  0  0  0  0
  -34.7348  -31.4888   26.2952 N   0  3  0  0  0  0  0  0  0  0  0  0
  -22.6666  -14.9016   20.9244 O   0  0  0  0  0  0  0  0  0  0  0  0
  -31.9493  -14.6882   20.3893 O   0  0  0  0  0  0  0  0  0  0  0  0
  -27.9681  -27.7386   22.8327 O   0  0  0  0  0  0  0  0  0  0  0  0
  -29.8093  -31.4372   22.9804 O   0  0  0  0  0  0  0  0  0  0  0  0
  -33.7473  -29.4069   24.6805 O   0  0  0  0  0  0  0  0  0  0  0  0
  -21.3307   -7.3273   22.1211 O   0  0  0  0  0  0  0  0  0  0  0  0
  -30.3062  -24.0918   27.1823 O   0  0  0  0  0  0  0  0  0  1  0  0
  -32.1115  -18.8427   24.5850 O   0  0  0  0  0  0  0  0  0  0  0  0
  -23.5247   -3.5387   25.4732 F   0  0  0  0  0  0  0  0  0  0  0  0
  -31.2911  -14.3924   26.0378 F   0  0  0  0  0  0  0  0  0  0  0  0
  -20.1787   -6.7626   24.5699 F   0  0  0  0  0  0  0  0  0  0  0  0
  1  2  1  0  0  0  0
  1  5  2  0  0  0  0
  2  6  2  0  0  0  0
  3  8  2  0  0  0  0
  3 17  1  0  0  0  0
  4  9  1  0  0  0  0
  4 17  2  0  0  0  0
  5 20  1  0  0  0  0
  6 22  1  0  0  0  0
  7 10  2  0  0  0  0
  7 21  1  0  0  0  0
  8 25  1  0  0  0  0
  9 25  2  0  0  0  0
 10 26  1  0  0  0  0
 11 12  2  0  0  0  0
 11 27  1  0  0  0  0
 12 29  1  0  0  0  0
 13 18  2  0  0  0  0
 13 30  1  0  0  0  0
 14 23  1  0  0  0  0
 14 26  2  0  0  0  0
 15 28  1  0  0  0  0
 15 30  2  0  0  0  0
 16 29  2  0  0  0  0
 16 31  1  0  0  0  0
 17 32  1  0  0  0  0
 18 24  1  0  0  0  0
 18 34  1  0  0  0  0
 19 32  1  0  0  0  0
 19 33  2  0  0  0  0
 19 35  1  0  0  0  0
 20 22  2  0  0  0  0
 20 40  1  0  0  0  0
 21 23  2  0  0  0  0
 21 41  1  0  0  0  0
 22 49  1  0  0  0  0
 23 42  1  0  0  0  0
 24 28  2  0  0  0  0
 24 52  1  0  0  0  0
 25 80  1  0  0  0  0
 26 81  1  0  0  0  0
 27 31  2  0  0  0  0
 27 80  1  0  0  0  0
 28 82  1  0  0  0  0
 29 83  1  0  0  0  0
 30 84  1  0  0  0  0
 31 85  1  0  0  0  0
 32 65  2  0  0  0  0
 33 67  1  0  0  0  0
 33 70  1  0  0  0  0
 34 36  1  0  0  0  0
 34 66  2  0  0  0  0
 35 71  1  0  0  0  0
 35 75  2  0  0  0  0
 36 68  1  0  0  0  0
 36 76  2  0  0  0  0
 37 50  1  0  0  0  0
 37 72  1  0  0  0  0
 37 77  2  0  0  0  0
 38 62  1  0  0  0  0
 38 69  1  0  0  0  0
 38 78  2  0  0  0  0
 39 63  1  0  0  0  0
 39 73  1  0  0  0  0
 39 79  2  0  0  0  0
 40 43  1  0  0  0  0
 41 50  1  0  0  0  0
 42 69  1  0  0  0  0
 43 45  1  0  0  0  0
 44 46  1  0  0  0  0
 44 47  1  0  0  0  0
 45 49  1  0  0  0  0
 46 51  1  0  0  0  0
 47 68  1  0  0  0  0
 48 51  1  0  0  0  0
 48 68  1  0  0  0  0
 49 72  1  0  0  0  0
 50 69  1  0  0  0  0
 51 67  1  0  0  0  0
 53 63  1  0  0  0  0
 54 64  1  0  0  0  0
 55 64  1  0  0  0  0
 56 64  1  0  0  0  0
 57 74  1  0  0  0  0
 58 59  1  0  0  0  0
 58 60  1  0  0  0  0
 59 61  1  0  0  0  0
 60 81  1  0  0  0  0
 61 82  1  0  0  0  0
 62 64  1  0  0  0  0
 62 73  1  0  0  0  0
 63 74  1  0  0  0  0
 65 67  1  0  0  0  0
M  CHG  1  74   1
M  ISO  4  34 100  36 100  60 101  81 101
M  END
> <Batch ID>
0118

> <Smiles>
CNC(C)C(=O)NC(C(=O)N1Cc2cc([101O:1][101CH2:1]CCCOc3cc(F)cc([100C:0](=N)[100C:0](=O)N4CCCC(n5nc(-c6ccc(Oc7ccc(F)cc7F)cc6)c(C(N)=O)c5N)C4)c3C)ccc2CC1C(=O)NC1CCCc2ccccc21)C(C)(C)C

> <Shape>
0.248

> <Color>
0.202

> <Negative vol penalty>
0.000

$$$$

  -OEChem-04052301482D

  0  0  0     0  0  0  0  0  0999 V2000
M  END
$$$$

  -OEChem-04052301483D

 83 91  0     1  0  0  0  0  0999 V2000
  -31.4624  -34.9855   24.2750 C   0  0  0  0  0  0  0  0  0  0  0  0
  -31.5642  -33.6919   23.7734 C   0  0  0  0  0  0  0  0  0  0  0  0
  -23.6264   -9.7464   21.4882 C   0  0  0  0  0  0  0  0  0  0  0  0
  -24.1510  -10.8524   23.5711 C   0  0  0  0  0  0  0  0  0  0  0  0
  -30.3922  -35.3300   25.0995 C   0  0  0  0  0  0  0  0  0  0  0  0
  -30.5964  -32.7417   24.0970 C   0  0  0  0  0  0  0  0  0  0  0  0
  -28.5180  -28.2345   20.5093 C   0  0  0  0  0  0  0  0  0  0  0  0
  -23.0586   -8.6859   22.1942 C   0  0  0  0  0  0  0  0  0  0  0  0
  -23.5832   -9.7919   24.2772 C   0  0  0  0  0  0  0  0  0  0  0  0
  -28.8327  -26.8786   20.4293 C   0  0  0  0  0  0  0  0  0  0  0  0
  -24.1303   -5.9640   23.8876 C   0  0  0  0  0  0  0  0  0  0  0  0
  -24.4530   -4.6693   23.4812 C   0  0  0  0  0  0  0  0  0  0  0  0
  -28.4212  -20.0138   18.0669 C   0  0  0  0  0  0  0  0  0  0  0  0
  -28.4244  -17.6808   18.6946 C   0  0  0  0  0  0  0  0  0  0  0  0
  -26.9546  -26.3649   21.8534 C   0  0  0  0  0  0  0  0  0  0  0  0
  -22.1181   -4.2227   23.0498 C   0  0  0  0  0  0  0  0  0  0  0  0
  -24.1727  -10.8296   22.1766 C   0  0  0  0  0  0  0  0  0  0  0  0
  -29.1148  -20.3292   19.2352 C   0  0  0  0  0  0  0  0  0  0  0  0
  -29.1181  -17.9961   19.8629 C   0  0  0  0  0  0  0  0  0  0  0  0
  -24.1109  -13.0889   20.9936 C   0  0  0  0  0  0  0  0  0  0  0  0
  -29.4055  -34.3862   25.4255 C   0  0  0  0  0  0  0  0  0  0  0  0
  -27.4239  -28.6674   21.2721 C   0  0  0  0  0  0  0  0  0  0  0  0
  -29.5126  -33.0735   24.9277 C   0  0  0  0  0  0  0  0  0  0  0  0
  -26.6267  -27.7265   21.9394 C   0  0  0  0  0  0  0  0  0  0  0  0
  -29.4633  -19.3203   20.1332 C   0  0  0  0  0  0  0  0  0  0  0  0
  -23.0370   -8.7086   23.5888 C   0  0  0  0  0  0  0  0  0  0  0  0
  -28.0527  -25.9438   21.1037 C   0  0  0  0  0  0  0  0  0  0  0  0
  -22.8014   -6.3881   23.8751 C   0  0  0  0  0  0  0  0  0  0  0  0
  -23.4469   -3.7986   23.0623 C   0  0  0  0  0  0  0  0  0  0  0  0
  -28.0759  -18.6896   17.7966 C   0  0  0  0  0  0  0  0  0  0  0  0
  -21.7954   -5.5175   23.4562 C   0  0  0  0  0  0  0  0  0  0  0  0
  -24.7599  -11.9252   21.4479 C   0  0  0  0  0  0  0  0  0  0  0  0
  -25.0970  -13.8085   20.3642 C   0  0  0  0  0  0  0  0  0  0  0  0
  -29.4624  -21.7375   19.4883 C   0  0  0  0  0  0  0  0  0  0  0  0
  -28.5829  -22.7467   19.5845 C   0  0  0  0  0  0  0  0  0  0  0  0
  -29.4675  -16.9198   20.7808 C   0  0  0  0  0  0  0  0  0  0  0  0
  -22.7393  -13.4841   21.1287 C   0  0  0  0  0  0  0  0  0  0  0  0
  -30.3272  -15.7925   20.3525 C   0  0  0  0  0  0  0  0  0  0  0  0
  -27.0629  -30.5415   23.8140 C   0  0  0  0  0  0  0  0  0  0  0  0
  -23.9073  -30.0988   23.2066 C   0  0  0  0  0  0  0  0  0  0  0  0
  -21.4704  -28.1648   21.8039 C   0  0  0  0  0  0  0  0  0  0  0  0
  -28.2926  -34.7923   26.3588 C   0  0  0  0  0  0  0  0  0  0  0  0
  -27.0819  -30.1311   21.3266 C   0  0  0  0  0  0  0  0  0  0  0  0
  -25.4293  -28.1379   22.7553 C   0  0  0  0  0  0  0  0  0  0  0  0
  -27.1083  -33.8292   26.3499 C   0  0  0  0  0  0  0  0  0  0  0  0
  -29.7872  -12.5089   19.0173 C   0  0  0  0  0  0  0  0  0  0  0  0
  -27.5933  -32.3858   26.4407 C   0  0  0  0  0  0  0  0  0  0  0  0
  -28.3930  -12.1454   19.5269 C   0  0  0  0  0  0  0  0  0  0  0  0
  -30.5471  -13.3603   20.0293 C   0  0  0  0  0  0  0  0  0  0  0  0
  -28.4211  -14.2408   20.9530 C   0  0  0  0  0  0  0  0  0  0  0  0
  -28.4694  -32.0215   25.2360 C   0  0  1  0  0  0  0  0  0  0  0  0
  -26.2511  -30.5054   22.5502 C   0  0  1  0  0  0  0  0  0  0  0  0
  -27.6128  -13.4041   19.9460 C   0  0  2  0  0  0  0  0  0  0  0  0
  -30.2082  -19.6501   21.3903 C   0  0  0  0  0  0  0  0  0  0  0  0
  -18.9820  -28.0421   21.5034 C   0  0  0  0  0  0  0  0  0  0  0  0
  -23.6043  -29.1952   26.1052 C   0  0  0  0  0  0  0  0  0  0  0  0
  -21.3867  -28.2078   25.4924 C   0  0  0  0  0  0  0  0  0  0  0  0
  -21.7598  -30.6644   25.2722 C   0  0  0  0  0  0  0  0  0  0  0  0
  -21.7043  -28.2773   18.8558 C   0  0  0  0  0  0  0  0  0  0  0  0
  -28.9854  -24.1657   19.8293 C   0  0  0  0  0  0  0  0  0  1  0  0
  -22.8677  -29.0906   23.6328 C   0  0  1  0  0  0  0  0  0  0  0  0
  -20.2978  -28.5160   20.9061 C   0  0  2  0  0  0  0  0  0  0  0  0
  -22.4283  -29.2816   25.1119 C   0  0  0  0  0  0  0  0  0  0  0  0
  -26.0578  -11.9026   21.1335 N   0  0  0  0  0  0  0  0  0  0  0  0
  -29.0581  -16.8758   22.0183 N   0  0  0  0  0  0  0  0  0  0  0  0
  -26.2324  -13.0610   20.4750 N   0  0  0  0  0  0  0  0  0  0  0  0
  -29.7641  -14.5266   20.4327 N   0  0  0  0  0  0  0  0  0  0  0  0
  -25.1395  -29.5811   22.7829 N   0  0  0  0  0  0  0  0  0  0  0  0
  -25.0950  -15.0014   19.7321 N   0  0  0  0  0  0  0  0  0  0  0  0
  -21.8603  -12.6268   21.8044 N   0  0  0  0  0  0  0  0  0  0  0  0
  -27.6478  -31.7665   24.0722 N   0  0  0  0  0  0  0  0  0  0  0  0
  -21.7786  -29.1944   22.6677 N   0  0  0  0  0  0  0  0  0  0  0  0
  -20.4619  -27.8813   19.5677 N   0  3  0  0  0  0  0  0  0  0  0  0
  -22.3024  -14.5580   20.6496 O   0  0  0  0  0  0  0  0  0  0  0  0
  -31.4492  -16.0999   19.9719 O   0  0  0  0  0  0  0  0  0  0  0  0
  -27.1507  -29.5330   24.5046 O   0  0  0  0  0  0  0  0  0  0  0  0
  -23.6337  -31.3011   23.2414 O   0  0  0  0  0  0  0  0  0  0  0  0
  -22.0521  -27.0836   21.7475 O   0  0  0  0  0  0  0  0  0  0  0  0
  -22.4828   -7.6741   24.2780 O   0  0  0  0  0  0  0  0  0  0  0  0
  -28.3580  -24.6199   21.0278 O   0  0  0  0  0  0  0  0  0  1  0  0
  -23.7571   -2.5558   22.6707 F   0  0  0  0  0  0  0  0  0  0  0  0
  -27.4103  -18.3866   16.6744 F   0  0  0  0  0  0  0  0  0  0  0  0
  -20.5172   -5.9196   23.4409 F   0  0  0  0  0  0  0  0  0  0  0  0
  1  2  1  0  0  0  0
  1  5  2  0  0  0  0
  2  6  2  0  0  0  0
  3  8  2  0  0  0  0
  3 17  1  0  0  0  0
  4  9  1  0  0  0  0
  4 17  2  0  0  0  0
  5 21  1  0  0  0  0
  6 23  1  0  0  0  0
  7 10  2  0  0  0  0
  7 22  1  0  0  0  0
  8 26  1  0  0  0  0
  9 26  2  0  0  0  0
 10 27  1  0  0  0  0
 11 12  2  0  0  0  0
 11 28  1  0  0  0  0
 12 29  1  0  0  0  0
 13 18  1  0  0  0  0
 13 30  2  0  0  0  0
 14 19  2  0  0  0  0
 14 30  1  0  0  0  0
 15 24  1  0  0  0  0
 15 27  2  0  0  0  0
 16 29  2  0  0  0  0
 16 31  1  0  0  0  0
 17 32  1  0  0  0  0
 18 25  2  0  0  0  0
 18 34  1  0  0  0  0
 19 25  1  0  0  0  0
 19 36  1  0  0  0  0
 20 32  1  0  0  0  0
 20 33  2  0  0  0  0
 20 37  1  0  0  0  0
 21 23  2  0  0  0  0
 21 42  1  0  0  0  0
 22 24  2  0  0  0  0
 22 43  1  0  0  0  0
 23 51  1  0  0  0  0
 24 44  1  0  0  0  0
 25 54  1  0  0  0  0
 26 79  1  0  0  0  0
 27 80  1  0  0  0  0
 28 31  2  0  0  0  0
 28 79  1  0  0  0  0
 29 81  1  0  0  0  0
 30 82  1  0  0  0  0
 31 83  1  0  0  0  0
 32 64  2  0  0  0  0
 33 66  1  0  0  0  0
 33 69  1  0  0  0  0
 34 35  2  0  0  0  0
 35 60  1  0  0  0  0
 36 38  1  0  0  0  0
 36 65  2  0  0  0  0
 37 70  1  0  0  0  0
 37 74  2  0  0  0  0
 38 67  1  0  0  0  0
 38 75  2  0  0  0  0
 39 52  1  0  0  0  0
 39 71  1  0  0  0  0
 39 76  2  0  0  0  0
 40 61  1  0  0  0  0
 40 68  1  0  0  0  0
 40 77  2  0  0  0  0
 41 62  1  0  0  0  0
 41 72  1  0  0  0  0
 41 78  2  0  0  0  0
 42 45  1  0  0  0  0
 43 52  1  0  0  0  0
 44 68  1  0  0  0  0
 45 47  1  0  0  0  0
 46 48  1  0  0  0  0
 46 49  1  0  0  0  0
 47 51  1  0  0  0  0
 48 53  1  0  0  0  0
 49 67  1  0  0  0  0
 50 53  1  0  0  0  0
 50 67  1  0  0  0  0
 51 71  1  0  0  0  0
 52 68  1  0  0  0  0
 53 66  1  0  0  0  0
 55 62  1  0  0  0  0
 56 63  1  0  0  0  0
 57 63  1  0  0  0  0
 58 63  1  0  0  0  0
 59 73  1  0  0  0  0
 60 80  1  0  0  0  0
 61 63  1  0  0  0  0
 61 72  1  0  0  0  0
 62 73  1  0  0  0  0
 64 66  1  0  0  0  0
M  CHG  1  73   1
M  ISO  4  36 100  38 100  60 101  80 101
M  END
> <Batch ID>
0118

> <Smiles>
CNC(C)C(=O)NC(C(=O)N1Cc2cc([101O:1][101CH2:1]C=Cc3cc(F)cc([100C:0](=N)[100C:0](=O)N4CCCC(n5nc(-c6ccc(Oc7ccc(F)cc7F)cc6)c(C(N)=O)c5N)C4)c3C)ccc2CC1C(=O)NC1CCCc2ccccc21)C(C)(C)C

> <Shape>
0.334

> <Color>
0.138

> <Negative vol penalty>
0.000

$$$$

  -OEChem-04052301483D

 82 90  0     1  0  0  0  0  0999 V2000
  -28.4400  -24.2204   16.9149 C   0  0  0  0  0  0  0  0  0  0  0  0
  -27.2730  -24.3525   17.6606 C   0  0  0  0  0  0  0  0  0  0  0  0
  -26.9654  -13.3066   20.1844 C   0  0  0  0  0  0  0  0  0  0  0  0
  -24.6311  -13.9169   20.3096 C   0  0  0  0  0  0  0  0  0  0  0  0
  -18.6476  -21.8514   19.4170 C   0  0  0  0  0  0  0  0  0  0  0  0
  -29.6088  -24.8552   17.3332 C   0  0  0  0  0  0  0  0  0  0  0  0
  -27.2743  -25.1186   18.8257 C   0  0  0  0  0  0  0  0  0  0  0  0
  -23.2399  -28.1617   19.1547 C   0  0  0  0  0  0  0  0  0  0  0  0
  -19.0596  -20.7573   18.6563 C   0  0  0  0  0  0  0  0  0  0  0  0
  -26.6956  -12.1308   20.8844 C   0  0  0  0  0  0  0  0  0  0  0  0
  -24.3612  -12.7410   21.0095 C   0  0  0  0  0  0  0  0  0  0  0  0
  -22.0346  -27.5809   19.5466 C   0  0  0  0  0  0  0  0  0  0  0  0
  -22.9951   -9.7268   22.5150 C   0  0  0  0  0  0  0  0  0  0  0  0
  -21.8766   -8.9860   22.1331 C   0  0  0  0  0  0  0  0  0  0  0  0
  -20.9425  -22.2868   20.0341 C   0  0  0  0  0  0  0  0  0  0  0  0
  -22.3747  -28.4025   21.7890 C   0  0  0  0  0  0  0  0  0  0  0  0
  -22.8071   -8.7225   19.9191 C   0  0  0  0  0  0  0  0  0  0  0  0
  -25.9332  -14.1998   19.8970 C   0  0  0  0  0  0  0  0  0  0  0  0
  -19.5890  -22.6162   20.1059 C   0  0  0  0  0  0  0  0  0  0  0  0
  -26.7524  -15.5293   17.8798 C   0  0  0  0  0  0  0  0  0  0  0  0
  -29.6220  -25.6373   18.4989 C   0  0  0  0  0  0  0  0  0  0  0  0
  -24.0283  -28.8591   20.0811 C   0  0  0  0  0  0  0  0  0  0  0  0
  -28.4447  -25.7633   19.2607 C   0  0  0  0  0  0  0  0  0  0  0  0
  -23.5884  -28.9935   21.4057 C   0  0  0  0  0  0  0  0  0  0  0  0
  -20.4131  -20.4278   18.5846 C   0  0  0  0  0  0  0  0  0  0  0  0
  -21.3546  -21.1926   19.2735 C   0  0  0  0  0  0  0  0  0  0  0  0
  -25.3935  -11.8479   21.2970 C   0  0  0  0  0  0  0  0  0  0  0  0
  -21.6032  -27.6988   20.8646 C   0  0  0  0  0  0  0  0  0  0  0  0
  -24.0196   -9.9655   21.5989 C   0  0  0  0  0  0  0  0  0  0  0  0
  -21.7826   -8.4839   20.8352 C   0  0  0  0  0  0  0  0  0  0  0  0
  -23.9256   -9.4633   20.3010 C   0  0  0  0  0  0  0  0  0  0  0  0
  -26.2115  -15.4149   19.1745 C   0  0  0  0  0  0  0  0  0  0  0  0
  -26.8192  -16.8824   17.6539 C   0  0  0  0  0  0  0  0  0  0  0  0
  -19.1525  -23.7712   20.9079 C   0  0  0  0  0  0  0  0  0  0  0  0
  -19.8639  -24.3416   21.8929 C   0  0  0  0  0  0  0  0  0  0  0  0
  -27.1581  -14.5040   16.9634 C   0  0  0  0  0  0  0  0  0  0  0  0
  -26.9583  -28.4936   21.2581 C   0  0  0  0  0  0  0  0  0  0  0  0
  -26.3272  -31.3465   22.6669 C   0  0  0  0  0  0  0  0  0  0  0  0
  -23.9947  -33.5645   23.8013 C   0  0  0  0  0  0  0  0  0  0  0  0
  -23.7840  -21.5413   19.8417 C   0  0  0  0  0  0  0  0  0  0  0  0
  -30.9213  -26.2657   18.9367 C   0  0  0  0  0  0  0  0  0  0  0  0
  -25.3130  -29.5027   19.6362 C   0  0  0  0  0  0  0  0  0  0  0  0
  -24.3881  -29.7493   22.4341 C   0  0  0  0  0  0  0  0  0  0  0  0
  -30.7448  -27.3653   19.9807 C   0  0  0  0  0  0  0  0  0  0  0  0
  -27.3075  -21.0460   19.9691 C   0  0  0  0  0  0  0  0  0  0  0  0
  -29.7933  -26.9081   21.0819 C   0  0  0  0  0  0  0  0  0  0  0  0
  -27.4760  -19.5574   19.6560 C   0  0  0  0  0  0  0  0  0  0  0  0
  -26.0605  -21.3109   20.8109 C   0  0  0  0  0  0  0  0  0  0  0  0
  -24.9829  -19.2684   19.9528 C   0  0  0  0  0  0  0  0  0  0  0  0
  -28.4001  -26.6060   20.5169 C   0  0  1  0  0  0  0  0  0  0  0  0
  -26.2859  -29.7511   20.7847 C   0  0  1  0  0  0  0  0  0  0  0  0
  -26.1900  -18.9596   19.0522 C   0  0  2  0  0  0  0  0  0  0  0  0
  -20.8257  -19.2496   17.7631 C   0  0  0  0  0  0  0  0  0  0  0  0
  -23.7832  -35.7913   24.9387 C   0  0  0  0  0  0  0  0  0  0  0  0
  -27.0705  -30.0545   25.3293 C   0  0  0  0  0  0  0  0  0  0  0  0
  -25.9529  -31.9699   26.4913 C   0  0  0  0  0  0  0  0  0  0  0  0
  -27.9279  -32.3840   25.0248 C   0  0  0  0  0  0  0  0  0  0  0  0
  -22.5516  -34.7344   21.4974 C   0  0  0  0  0  0  0  0  0  0  0  0
  -19.3735  -25.5146   22.6969 C   0  0  0  0  0  0  0  0  0  0  0  0
  -20.3291  -26.6985   22.6058 C   0  0  0  0  0  0  0  0  0  1  0  0
  -25.7090  -31.7797   23.9743 C   0  0  1  0  0  0  0  0  0  0  0  0
  -23.8505  -35.0629   23.6054 C   0  0  2  0  0  0  0  0  0  0  0  0
  -26.6507  -31.5311   25.1862 C   0  0  0  0  0  0  0  0  0  0  0  0
  -25.9532  -16.6009   19.7320 N   0  0  0  0  0  0  0  0  0  0  0  0
  -26.3336  -17.4733   18.7831 N   0  0  0  0  0  0  0  0  0  0  0  0
  -25.6401  -30.3553   21.9518 N   0  0  0  0  0  0  0  0  0  0  0  0
  -24.8813  -20.7193   20.1751 N   0  0  0  0  0  0  0  0  0  0  0  0
  -27.2456  -17.6125   16.6015 N   0  0  0  0  0  0  0  0  0  0  0  0
  -26.2113  -14.0028   16.0596 N   0  0  0  0  0  0  0  0  0  0  0  0
  -22.7339  -20.8738   19.2121 N   0  0  0  0  0  0  0  0  0  0  0  0
  -27.6747  -27.8351   20.2769 N   0  0  0  0  0  0  0  0  0  0  0  0
  -25.3171  -33.1739   23.7983 N   0  0  0  0  0  0  0  0  0  0  0  0
  -22.6089  -35.3682   22.8398 N   0  3  0  0  0  0  0  0  0  0  0  0
  -28.3212  -14.0342   16.9574 O   0  0  0  0  0  0  0  0  0  0  0  0
  -26.8375  -28.1471   22.4273 O   0  0  0  0  0  0  0  0  0  0  0  0
  -27.3771  -31.8734   22.2904 O   0  0  0  0  0  0  0  0  0  0  0  0
  -23.0308  -32.8159   23.9463 O   0  0  0  0  0  0  0  0  0  0  0  0
  -23.7876  -22.7534   20.0715 O   0  0  0  0  0  0  0  0  0  0  0  0
  -25.1297  -10.7004   21.9798 O   0  0  0  0  0  0  0  0  0  0  0  0
  -20.4274  -27.1323   21.2499 O   0  0  0  0  0  0  0  0  0  1  0  0
  -20.7092   -7.7712   20.4690 F   0  0  0  0  0  0  0  0  0  0  0  0
  -24.9071   -9.6883   19.4169 F   0  0  0  0  0  0  0  0  0  0  0  0
  1  2  1  0  0  0  0
  1  6  2  0  0  0  0
  2  7  2  0  0  0  0
  3 10  2  0  0  0  0
  3 18  1  0  0  0  0
  4 11  1  0  0  0  0
  4 18  2  0  0  0  0
  5  9  2  0  0  0  0
  5 19  1  0  0  0  0
  6 21  1  0  0  0  0
  7 23  1  0  0  0  0
  8 12  2  0  0  0  0
  8 22  1  0  0  0  0
  9 25  1  0  0  0  0
 10 27  1  0  0  0  0
 11 27  2  0  0  0  0
 12 28  1  0  0  0  0
 13 14  2  0  0  0  0
 13 29  1  0  0  0  0
 14 30  1  0  0  0  0
 15 19  2  0  0  0  0
 15 26  1  0  0  0  0
 16 24  1  0  0  0  0
 16 28  2  0  0  0  0
 17 30  2  0  0  0  0
 17 31  1  0  0  0  0
 18 32  1  0  0  0  0
 19 34  1  0  0  0  0
 20 32  1  0  0  0  0
 20 33  2  0  0  0  0
 20 36  1  0  0  0  0
 21 23  2  0  0  0  0
 21 41  1  0  0  0  0
 22 24  2  0  0  0  0
 22 42  1  0  0  0  0
 23 50  1  0  0  0  0
 24 43  1  0  0  0  0
 25 26  2  0  0  0  0
 25 53  1  0  0  0  0
 26 70  1  0  0  0  0
 27 79  1  0  0  0  0
 28 80  1  0  0  0  0
 29 31  2  0  0  0  0
 29 79  1  0  0  0  0
 30 81  1  0  0  0  0
 31 82  1  0  0  0  0
 32 64  2  0  0  0  0
 33 65  1  0  0  0  0
 33 68  1  0  0  0  0
 34 35  2  0  0  0  0
 35 59  1  0  0  0  0
 36 69  1  0  0  0  0
 36 74  2  0  0  0  0
 37 51  1  0  0  0  0
 37 71  1  0  0  0  0
 37 75  2  0  0  0  0
 38 61  1  0  0  0  0
 38 66  1  0  0  0  0
 38 76  2  0  0  0  0
 39 62  1  0  0  0  0
 39 72  1  0  0  0  0
 39 77  2  0  0  0  0
 40 67  1  0  0  0  0
 40 70  1  0  0  0  0
 40 78  2  0  0  0  0
 41 44  1  0  0  0  0
 42 51  1  0  0  0  0
 43 66  1  0  0  0  0
 44 46  1  0  0  0  0
 45 47  1  0  0  0  0
 45 48  1  0  0  0  0
 46 50  1  0  0  0  0
 47 52  1  0  0  0  0
 48 67  1  0  0  0  0
 49 52  1  0  0  0  0
 49 67  1  0  0  0  0
 50 71  1  0  0  0  0
 51 66  1  0  0  0  0
 52 65  1  0  0  0  0
 54 62  1  0  0  0  0
 55 63  1  0  0  0  0
 56 63  1  0  0  0  0
 57 63  1  0  0  0  0
 58 73  1  0  0  0  0
 59 60  1  0  0  0  0
 60 80  1  0  0  0  0
 61 63  1  0  0  0  0
 61 72  1  0  0  0  0
 62 73  1  0  0  0  0
 64 65  1  0  0  0  0
M  CHG  1  73   1
M  ISO  4  40 100  60 101  70 100  80 101
M  END
> <Batch ID>
0118

> <Smiles>
CNC(C)C(=O)NC(C(=O)N1Cc2cc([101O:1][101CH2:1]CC=Cc3ccc(C)c([100NH:0][100C:0](=O)N4CCCC(n5nc(-c6ccc(Oc7ccc(F)cc7F)cc6)c(C(N)=O)c5N)C4)c3)ccc2CC1C(=O)NC1CCCc2ccccc21)C(C)(C)C

> <Shape>
0.278

> <Color>
0.087

> <Negative vol penalty>
0.000

$$$$

  -OEChem-04052301483D

 85 93  0     1  0  0  0  0  0999 V2000
  -21.7272  -27.3159   16.8836 C   0  0  0  0  0  0  0  0  0  0  0  0
  -22.5952  -26.2411   17.0473 C   0  0  0  0  0  0  0  0  0  0  0  0
  -23.2370   -9.8671   21.4107 C   0  0  0  0  0  0  0  0  0  0  0  0
  -23.8929  -10.7476   23.5629 C   0  0  0  0  0  0  0  0  0  0  0  0
  -21.1063  -27.8845   17.9950 C   0  0  0  0  0  0  0  0  0  0  0  0
  -22.8437  -25.7350   18.3227 C   0  0  0  0  0  0  0  0  0  0  0  0
  -22.7210  -20.6743   18.4625 C   0  0  0  0  0  0  0  0  0  0  0  0
  -22.5384   -8.8394   22.0441 C   0  0  0  0  0  0  0  0  0  0  0  0
  -23.1942   -9.7198   24.1963 C   0  0  0  0  0  0  0  0  0  0  0  0
  -23.8413  -19.9968   17.9832 C   0  0  0  0  0  0  0  0  0  0  0  0
  -20.8803   -5.7764   23.0895 C   0  0  0  0  0  0  0  0  0  0  0  0
  -21.0342   -4.4827   22.5913 C   0  0  0  0  0  0  0  0  0  0  0  0
  -30.3782  -15.6511   21.9996 C   0  0  0  0  0  0  0  0  0  0  0  0
  -29.7744  -17.2382   23.7181 C   0  0  0  0  0  0  0  0  0  0  0  0
  -30.2570  -14.9454   24.3071 C   0  0  0  0  0  0  0  0  0  0  0  0
  -24.6063  -19.6721   20.2478 C   0  0  0  0  0  0  0  0  0  0  0  0
  -23.4065   -4.5940   23.0349 C   0  0  0  0  0  0  0  0  0  0  0  0
  -23.9143  -10.8212   22.1701 C   0  0  0  0  0  0  0  0  0  0  0  0
  -30.0161  -16.9444   22.3761 C   0  0  0  0  0  0  0  0  0  0  0  0
  -30.4987  -14.6515   22.9651 C   0  0  0  0  0  0  0  0  0  0  0  0
  -24.1408  -13.1484   21.1500 C   0  0  0  0  0  0  0  0  0  0  0  0
  -21.3398  -27.3789   19.2836 C   0  0  0  0  0  0  0  0  0  0  0  0
  -22.5402  -20.8657   19.8398 C   0  0  0  0  0  0  0  0  0  0  0  0
  -22.2264  -26.2982   19.4525 C   0  0  0  0  0  0  0  0  0  0  0  0
  -23.4816  -20.3502   20.7422 C   0  0  0  0  0  0  0  0  0  0  0  0
  -22.5169   -8.7657   23.4368 C   0  0  0  0  0  0  0  0  0  0  0  0
  -24.7856  -19.4981   18.8758 C   0  0  0  0  0  0  0  0  0  0  0  0
  -21.9896   -6.4790   23.5603 C   0  0  0  0  0  0  0  0  0  0  0  0
  -29.8949  -16.2387   24.6836 C   0  0  0  0  0  0  0  0  0  0  0  0
  -22.2972   -3.8914   22.5641 C   0  0  0  0  0  0  0  0  0  0  0  0
  -23.2526   -5.8878   23.5330 C   0  0  0  0  0  0  0  0  0  0  0  0
  -24.6367  -11.8828   21.5165 C   0  0  0  0  0  0  0  0  0  0  0  0
  -25.2112  -13.7807   20.5661 C   0  0  0  0  0  0  0  0  0  0  0  0
  -29.8894  -18.0000   21.3574 C   0  0  0  0  0  0  0  0  0  0  0  0
  -29.7189  -17.7909   20.0425 C   0  0  0  0  0  0  0  0  0  0  0  0
  -30.8746  -13.3023   22.5725 C   0  0  0  0  0  0  0  0  0  0  0  0
  -22.8299  -13.7029   21.3222 C   0  0  0  0  0  0  0  0  0  0  0  0
  -31.1364  -12.9562   21.1566 C   0  0  0  0  0  0  0  0  0  0  0  0
  -22.3381  -23.4023   21.7446 C   0  0  0  0  0  0  0  0  0  0  0  0
  -21.6440  -21.1710   23.9945 C   0  0  0  0  0  0  0  0  0  0  0  0
  -21.8803  -17.9269   25.0272 C   0  0  0  0  0  0  0  0  0  0  0  0
  -20.6824  -28.0569   20.4595 C   0  0  0  0  0  0  0  0  0  0  0  0
  -21.3128  -21.5754   20.3421 C   0  0  0  0  0  0  0  0  0  0  0  0
  -23.3236  -20.5113   22.2313 C   0  0  0  0  0  0  0  0  0  0  0  0
  -20.7089  -27.2217   21.7370 C   0  0  0  0  0  0  0  0  0  0  0  0
  -29.2207  -12.8977   18.1262 C   0  0  0  0  0  0  0  0  0  0  0  0
  -22.1001  -26.6391   21.9652 C   0  0  0  0  0  0  0  0  0  0  0  0
  -27.7865  -12.7070   18.6188 C   0  0  0  0  0  0  0  0  0  0  0  0
  -30.2184  -12.1605   19.0135 C   0  0  0  0  0  0  0  0  0  0  0  0
  -28.6906  -12.3399   20.9583 C   0  0  0  0  0  0  0  0  0  0  0  0
  -22.5022  -25.7053   20.8172 C   0  0  1  0  0  0  0  0  0  0  0  0
  -21.4911  -22.1612   21.7394 C   0  0  1  0  0  0  0  0  0  0  0  0
  -27.6566  -13.0928   20.1030 C   0  0  2  0  0  0  0  0  0  0  0  0
  -21.2481  -16.4130   26.9261 C   0  0  0  0  0  0  0  0  0  0  0  0
  -23.8880  -22.3598   25.6860 C   0  0  0  0  0  0  0  0  0  0  0  0
  -23.8435  -20.2811   27.0807 C   0  0  0  0  0  0  0  0  0  0  0  0
  -21.8288  -21.7476   26.9663 C   0  0  0  0  0  0  0  0  0  0  0  0
  -20.2308  -16.2140   23.2654 C   0  0  0  0  0  0  0  0  0  0  0  0
  -29.7995  -15.4559   26.9273 C   0  0  0  0  0  0  0  0  0  0  0  0
  -29.5898  -18.9017   19.0390 C   0  0  0  0  0  0  0  0  0  0  0  0
  -28.2756  -18.8006   18.2670 C   0  0  0  0  0  0  0  0  0  0  0  0
  -27.0719  -18.9239   19.1910 C   0  0  0  0  0  0  0  0  0  1  0  0
  -22.4526  -20.3399   24.9610 C   0  0  1  0  0  0  0  0  0  0  0  0
  -20.8393  -16.9638   25.5689 C   0  0  2  0  0  0  0  0  0  0  0  0
  -23.0075  -21.1806   26.1454 C   0  0  0  0  0  0  0  0  0  0  0  0
  -25.9220  -11.7190   21.1923 N   0  0  0  0  0  0  0  0  0  0  0  0
  -31.0075  -12.3198   23.4220 N   0  0  0  0  0  0  0  0  0  0  0  0
  -26.2429  -12.8899   20.6160 N   0  0  0  0  0  0  0  0  0  0  0  0
  -30.0440  -12.5222   20.4188 N   0  0  0  0  0  0  0  0  0  0  0  0
  -22.1100  -21.2180   22.6730 N   0  0  0  0  0  0  0  0  0  0  0  0
  -25.3612  -15.0061   20.0199 N   0  0  0  0  0  0  0  0  0  0  0  0
  -21.8483  -12.9175   21.9418 N   0  0  0  0  0  0  0  0  0  0  0  0
  -21.8450  -24.4233   20.9547 N   0  0  0  0  0  0  0  0  0  0  0  0
  -21.5932  -19.2324   25.3653 N   0  0  0  0  0  0  0  0  0  0  0  0
  -20.6562  -15.8188   24.6328 N   0  3  0  0  0  0  0  0  0  0  0  0
  -22.5331  -14.8546   20.9231 O   0  0  0  0  0  0  0  0  0  0  0  0
  -32.2955  -13.0905   20.7865 O   0  0  0  0  0  0  0  0  0  0  0  0
  -23.3623  -23.4320   22.4168 O   0  0  0  0  0  0  0  0  0  0  0  0
  -20.6320  -21.7513   24.3956 O   0  0  0  0  0  0  0  0  0  0  0  0
  -22.8530  -17.5575   24.3729 O   0  0  0  0  0  0  0  0  0  0  0  0
  -21.8351   -7.7631   24.0552 O   0  0  0  0  0  0  0  0  0  0  0  0
  -29.6581  -16.5250   25.9931 O   0  0  0  0  0  0  0  0  0  0  0  0
  -25.8803  -18.8369   18.4106 O   0  0  0  0  0  0  0  0  0  1  0  0
  -22.4446   -2.6485   22.0872 F   0  0  0  0  0  0  0  0  0  0  0  0
  -24.3218   -6.5574   23.9851 F   0  0  0  0  0  0  0  0  0  0  0  0
  1  2  1  0  0  0  0
  1  5  2  0  0  0  0
  2  6  2  0  0  0  0
  3  8  2  0  0  0  0
  3 18  1  0  0  0  0
  4  9  1  0  0  0  0
  4 18  2  0  0  0  0
  5 22  1  0  0  0  0
  6 24  1  0  0  0  0
  7 10  2  0  0  0  0
  7 23  1  0  0  0  0
  8 26  1  0  0  0  0
  9 26  2  0  0  0  0
 10 27  1  0  0  0  0
 11 12  2  0  0  0  0
 11 28  1  0  0  0  0
 12 30  1  0  0  0  0
 13 19  2  0  0  0  0
 13 20  1  0  0  0  0
 14 19  1  0  0  0  0
 14 29  2  0  0  0  0
 15 20  2  0  0  0  0
 15 29  1  0  0  0  0
 16 25  1  0  0  0  0
 16 27  2  0  0  0  0
 17 30  2  0  0  0  0
 17 31  1  0  0  0  0
 18 32  1  0  0  0  0
 19 34  1  0  0  0  0
 20 36  1  0  0  0  0
 21 32  1  0  0  0  0
 21 33  2  0  0  0  0
 21 37  1  0  0  0  0
 22 24  2  0  0  0  0
 22 42  1  0  0  0  0
 23 25  2  0  0  0  0
 23 43  1  0  0  0  0
 24 51  1  0  0  0  0
 25 44  1  0  0  0  0
 26 81  1  0  0  0  0
 27 83  1  0  0  0  0
 28 31  2  0  0  0  0
 28 81  1  0  0  0  0
 29 82  1  0  0  0  0
 30 84  1  0  0  0  0
 31 85  1  0  0  0  0
 32 66  2  0  0  0  0
 33 68  1  0  0  0  0
 33 71  1  0  0  0  0
 34 35  2  0  0  0  0
 35 60  1  0  0  0  0
 36 38  1  0  0  0  0
 36 67  2  0  0  0  0
 37 72  1  0  0  0  0
 37 76  2  0  0  0  0
 38 69  1  0  0  0  0
 38 77  2  0  0  0  0
 39 52  1  0  0  0  0
 39 73  1  0  0  0  0
 39 78  2  0  0  0  0
 40 63  1  0  0  0  0
 40 70  1  0  0  0  0
 40 79  2  0  0  0  0
 41 64  1  0  0  0  0
 41 74  1  0  0  0  0
 41 80  2  0  0  0  0
 42 45  1  0  0  0  0
 43 52  1  0  0  0  0
 44 70  1  0  0  0  0
 45 47  1  0  0  0  0
 46 48  1  0  0  0  0
 46 49  1  0  0  0  0
 47 51  1  0  0  0  0
 48 53  1  0  0  0  0
 49 69  1  0  0  0  0
 50 53  1  0  0  0  0
 50 69  1  0  0  0  0
 51 73  1  0  0  0  0
 52 70  1  0  0  0  0
 53 68  1  0  0  0  0
 54 64  1  0  0  0  0
 55 65  1  0  0  0  0
 56 65  1  0  0  0  0
 57 65  1  0  0  0  0
 58 75  1  0  0  0  0
 59 82  1  0  0  0  0
 60 61  1  0  0  0  0
 61 62  1  0  0  0  0
 62 83  1  0  0  0  0
 63 65  1  0  0  0  0
 63 74  1  0  0  0  0
 64 75  1  0  0  0  0
 66 68  1  0  0  0  0
M  CHG  1  75   1
M  ISO  4  36 100  38 100  62 101  83 101
M  END
> <Batch ID>
0118

> <Smiles>
CNC(C)C(=O)NC(C(=O)N1Cc2cc([101O:1][101CH2:1]CCC=Cc3cc(OC)cc([100C:0](=N)[100C:0](=O)N4CCCC(n5nc(-c6ccc(Oc7ccc(F)cc7F)cc6)c(C(N)=O)c5N)C4)c3)ccc2CC1C(=O)NC1CCCc2ccccc21)C(C)(C)C

> <Shape>
0.193

> <Color>
0.134

> <Negative vol penalty>
0.000

$$$$

  -OEChem-04052301483D

 83 91  0     1  0  0  0  0  0999 V2000
  -18.0200  -24.9713   23.1245 C   0  0  0  0  0  0  0  0  0  0  0  0
  -19.3509  -24.6148   22.9322 C   0  0  0  0  0  0  0  0  0  0  0  0
  -24.5102   -9.7662   22.0307 C   0  0  0  0  0  0  0  0  0  0  0  0
  -23.3501   -9.6294   19.9158 C   0  0  0  0  0  0  0  0  0  0  0  0
  -17.5941  -26.2629   22.8174 C   0  0  0  0  0  0  0  0  0  0  0  0
  -20.2565  -25.5495   22.4315 C   0  0  0  0  0  0  0  0  0  0  0  0
  -26.1823  -26.0786   23.8843 C   0  0  0  0  0  0  0  0  0  0  0  0
  -23.4462   -9.1166   22.6564 C   0  0  0  0  0  0  0  0  0  0  0  0
  -22.2861   -8.9798   20.5415 C   0  0  0  0  0  0  0  0  0  0  0  0
  -27.3455  -25.6388   23.2540 C   0  0  0  0  0  0  0  0  0  0  0  0
  -22.3019   -5.9510   22.9769 C   0  0  0  0  0  0  0  0  0  0  0  0
  -22.6049   -4.9259   23.8730 C   0  0  0  0  0  0  0  0  0  0  0  0
  -27.5939  -27.8023   22.2163 C   0  0  0  0  0  0  0  0  0  0  0  0
  -31.9312  -19.5912   17.1023 C   0  0  0  0  0  0  0  0  0  0  0  0
  -21.4971   -6.1439   25.6411 C   0  0  0  0  0  0  0  0  0  0  0  0
  -24.4622  -10.0227   20.6604 C   0  0  0  0  0  0  0  0  0  0  0  0
  -26.6952  -10.0996   19.4294 C   0  0  0  0  0  0  0  0  0  0  0  0
  -18.4970  -27.2167   22.3218 C   0  0  0  0  0  0  0  0  0  0  0  0
  -25.7094  -27.3823   23.6764 C   0  0  0  0  0  0  0  0  0  0  0  0
  -19.8420  -26.8547   22.1161 C   0  0  0  0  0  0  0  0  0  0  0  0
  -26.4259  -28.2570   22.8472 C   0  0  0  0  0  0  0  0  0  0  0  0
  -32.0217  -21.0022   17.1658 C   0  0  0  0  0  0  0  0  0  0  0  0
  -22.3342   -8.7234   21.9118 C   0  0  0  0  0  0  0  0  0  0  0  0
  -28.0499  -26.4998   22.4176 C   0  0  0  0  0  0  0  0  0  0  0  0
  -21.5966   -7.0727   23.4130 C   0  0  0  0  0  0  0  0  0  0  0  0
  -22.2025   -5.0223   25.2050 C   0  0  0  0  0  0  0  0  0  0  0  0
  -21.1942   -7.1691   24.7451 C   0  0  0  0  0  0  0  0  0  0  0  0
  -25.5607  -10.6942   20.0136 C   0  0  0  0  0  0  0  0  0  0  0  0
  -31.1474  -19.2104   18.1665 C   0  0  0  0  0  0  0  0  0  0  0  0
  -31.2865  -21.3831   18.2642 C   0  0  0  0  0  0  0  0  0  0  0  0
  -27.4319  -11.1577   18.9559 C   0  0  0  0  0  0  0  0  0  0  0  0
  -30.7695  -17.8961   18.5257 C   0  0  0  0  0  0  0  0  0  0  0  0
  -31.0619  -22.7488   18.7701 C   0  0  0  0  0  0  0  0  0  0  0  0
  -29.9681  -17.5283   19.5794 C   0  0  0  0  0  0  0  0  0  0  0  0
  -30.3121  -23.0506   19.8394 C   0  0  0  0  0  0  0  0  0  0  0  0
  -27.0512   -8.7147   19.3242 C   0  0  0  0  0  0  0  0  0  0  0  0
  -30.1396  -24.4700   20.2649 C   0  0  0  0  0  0  0  0  0  0  0  0
  -29.6549  -16.1052   19.8194 C   0  0  0  0  0  0  0  0  0  0  0  0
  -23.0610  -28.6384   22.4469 C   0  0  0  0  0  0  0  0  0  0  0  0
  -24.3726  -31.4231   23.4702 C   0  0  0  0  0  0  0  0  0  0  0  0
  -27.1833  -33.1607   24.3229 C   0  0  0  0  0  0  0  0  0  0  0  0
  -17.9799  -28.5864   21.9596 C   0  0  0  0  0  0  0  0  0  0  0  0
  -24.4676  -27.8499   24.3848 C   0  0  0  0  0  0  0  0  0  0  0  0
  -25.9714  -29.6727   22.6070 C   0  0  0  0  0  0  0  0  0  0  0  0
  -19.0827  -29.6276   21.7864 C   0  0  0  0  0  0  0  0  0  0  0  0
  -26.2594  -16.0353   18.4419 C   0  0  0  0  0  0  0  0  0  0  0  0
  -20.2151  -29.0687   20.9309 C   0  0  0  0  0  0  0  0  0  0  0  0
  -25.8558  -14.5915   18.7288 C   0  0  0  0  0  0  0  0  0  0  0  0
  -27.1677  -16.6024   19.5319 C   0  0  0  0  0  0  0  0  0  0  0  0
  -27.9722  -14.3240   20.0814 C   0  0  0  0  0  0  0  0  0  0  0  0
  -20.8597  -27.8477   21.5983 C   0  0  1  0  0  0  0  0  0  0  0  0
  -23.7967  -29.0342   23.6957 C   0  0  1  0  0  0  0  0  0  0  0  0
  -27.0963  -13.7179   18.9737 C   0  0  1  0  0  0  0  0  0  0  0  0
  -32.7617  -21.8717   16.2303 C   0  0  0  0  0  0  0  0  0  0  0  0
  -27.9427  -35.4289   25.0819 C   0  0  0  0  0  0  0  0  0  0  0  0
  -24.0112  -32.4902   20.6346 C   0  0  0  0  0  0  0  0  0  0  0  0
  -25.6078  -34.3340   21.1997 C   0  0  0  0  0  0  0  0  0  0  0  0
  -23.4555  -34.1255   22.4433 C   0  0  0  0  0  0  0  0  0  0  0  0
  -28.2778  -32.0767   26.8500 C   0  0  0  0  0  0  0  0  0  0  0  0
  -29.2704  -24.6835   21.4862 C   0  0  0  0  0  0  0  0  0  1  0  0
  -25.3012  -32.4514   22.8708 C   0  0  1  0  0  0  0  0  0  0  0  0
  -27.4993  -34.0413   25.5184 C   0  0  2  0  0  0  0  0  0  0  0  0
  -24.6017  -33.3230   21.7899 C   0  0  0  0  0  0  0  0  0  0  0  0
  -25.5715  -12.0266   19.9210 N   0  0  0  0  0  0  0  0  0  0  0  0
  -26.7218  -12.2780   19.2732 N   0  0  0  0  0  0  0  0  0  0  0  0
  -28.3158  -15.7201   19.7888 N   0  0  0  0  0  0  0  0  0  0  0  0
  -24.7481  -30.0810   23.3172 N   0  0  0  0  0  0  0  0  0  0  0  0
  -28.6115  -11.2297   18.3034 N   0  0  0  0  0  0  0  0  0  0  0  0
  -26.1808   -7.7582   19.8644 N   0  0  0  0  0  0  0  0  0  0  0  0
  -21.7484  -28.2636   22.6621 N   0  0  0  0  0  0  0  0  0  0  0  0
  -25.8461  -33.2114   23.9905 N   0  0  0  0  0  0  0  0  0  0  0  0
  -28.5887  -33.4350   26.3348 N   0  3  0  0  0  0  0  0  0  0  0  0
  -28.1177   -8.3376   18.7822 O   0  0  0  0  0  0  0  0  0  0  0  0
  -30.6687  -25.4004   19.6629 O   0  0  0  0  0  0  0  0  0  0  0  0
  -30.5993  -15.3441   20.0375 O   0  0  0  0  0  0  0  0  0  0  0  0
  -23.6407  -28.6720   21.3678 O   0  0  0  0  0  0  0  0  0  0  0  0
  -23.3552  -31.7973   24.0590 O   0  0  0  0  0  0  0  0  0  0  0  0
  -28.0380  -32.4974   23.7398 O   0  0  0  0  0  0  0  0  0  0  0  0
  -30.7502  -20.2967   18.8797 O   0  0  0  0  0  0  0  0  0  0  0  0
  -21.2958   -8.0892   22.5220 O   0  0  0  0  0  0  0  0  0  0  0  0
  -29.1852  -26.0729   21.8006 O   0  0  0  0  0  0  0  0  0  1  0  0
  -22.4922   -4.0371   26.0650 F   0  0  0  0  0  0  0  0  0  0  0  0
  -20.5152   -8.2437   25.1696 F   0  0  0  0  0  0  0  0  0  0  0  0
  1  2  1  0  0  0  0
  1  5  2  0  0  0  0
  2  6  2  0  0  0  0
  3  8  2  0  0  0  0
  3 16  1  0  0  0  0
  4  9  1  0  0  0  0
  4 16  2  0  0  0  0
  5 18  1  0  0  0  0
  6 20  1  0  0  0  0
  7 10  2  0  0  0  0
  7 19  1  0  0  0  0
  8 23  1  0  0  0  0
  9 23  2  0  0  0  0
 10 24  1  0  0  0  0
 11 12  2  0  0  0  0
 11 25  1  0  0  0  0
 12 26  1  0  0  0  0
 13 21  1  0  0  0  0
 13 24  2  0  0  0  0
 14 22  1  0  0  0  0
 14 29  2  0  0  0  0
 15 26  2  0  0  0  0
 15 27  1  0  0  0  0
 16 28  1  0  0  0  0
 17 28  1  0  0  0  0
 17 31  2  0  0  0  0
 17 36  1  0  0  0  0
 18 20  2  0  0  0  0
 18 42  1  0  0  0  0
 19 21  2  0  0  0  0
 19 43  1  0  0  0  0
 20 51  1  0  0  0  0
 21 44  1  0  0  0  0
 22 30  2  0  0  0  0
 22 54  1  0  0  0  0
 23 80  1  0  0  0  0
 24 81  1  0  0  0  0
 25 27  2  0  0  0  0
 25 80  1  0  0  0  0
 26 82  1  0  0  0  0
 27 83  1  0  0  0  0
 28 64  2  0  0  0  0
 29 32  1  0  0  0  0
 29 79  1  0  0  0  0
 30 33  1  0  0  0  0
 30 79  1  0  0  0  0
 31 65  1  0  0  0  0
 31 68  1  0  0  0  0
 32 34  2  0  0  0  0
 33 35  2  0  0  0  0
 34 38  1  0  0  0  0
 35 37  1  0  0  0  0
 36 69  1  0  0  0  0
 36 73  2  0  0  0  0
 37 60  1  0  0  0  0
 37 74  2  0  0  0  0
 38 66  1  0  0  0  0
 38 75  2  0  0  0  0
 39 52  1  0  0  0  0
 39 70  1  0  0  0  0
 39 76  2  0  0  0  0
 40 61  1  0  0  0  0
 40 67  1  0  0  0  0
 40 77  2  0  0  0  0
 41 62  1  0  0  0  0
 41 71  1  0  0  0  0
 41 78  2  0  0  0  0
 42 45  1  0  0  0  0
 43 52  1  0  0  0  0
 44 67  1  0  0  0  0
 45 47  1  0  0  0  0
 46 48  1  0  0  0  0
 46 49  1  0  0  0  0
 47 51  1  0  0  0  0
 48 53  1  0  0  0  0
 49 66  1  0  0  0  0
 50 53  1  0  0  0  0
 50 66  1  0  0  0  0
 51 70  1  0  0  0  0
 52 67  1  0  0  0  0
 53 65  1  0  0  0  0
 55 62  1  0  0  0  0
 56 63  1  0  0  0  0
 57 63  1  0  0  0  0
 58 63  1  0  0  0  0
 59 72  1  0  0  0  0
 60 81  1  0  0  0  0
 61 63  1  0  0  0  0
 61 71  1  0  0  0  0
 62 72  1  0  0  0  0
 64 65  1  0  0  0  0
M  CHG  1  72   1
M  ISO  4  34 100  38 100  60 101  81 101
M  END
> <Batch ID>
0118

> <Smiles>
CNC(C)C(=O)NC(C(=O)N1Cc2cc([101O:1][101CH2:1]C(=O)C=Cc3oc(C=[100CH:0][100C:0](=O)N4CCCC(n5nc(-c6ccc(Oc7ccc(F)cc7F)cc6)c(C(N)=O)c5N)C4)cc3C)ccc2CC1C(=O)NC1CCCc2ccccc21)C(C)(C)C

> <Shape>
0.279

> <Color>
0.100

> <Negative vol penalty>
0.000

$$$$

  -OEChem-04052301483D

 79 87  0     1  0  0  0  0  0999 V2000
  -26.8739  -33.4067   14.3558 C   0  0  0  0  0  0  0  0  0  0  0  0
  -27.2702  -32.1047   14.6444 C   0  0  0  0  0  0  0  0  0  0  0  0
  -24.2328   -9.3629   22.1681 C   0  0  0  0  0  0  0  0  0  0  0  0
  -24.4082   -8.6438   19.8683 C   0  0  0  0  0  0  0  0  0  0  0  0
  -26.7757  -34.3474   15.3802 C   0  0  0  0  0  0  0  0  0  0  0  0
  -27.5695  -31.7430   15.9574 C   0  0  0  0  0  0  0  0  0  0  0  0
  -26.5396  -26.3189   18.6077 C   0  0  0  0  0  0  0  0  0  0  0  0
  -23.1328   -8.5241   22.3465 C   0  0  0  0  0  0  0  0  0  0  0  0
  -23.3082   -7.8049   20.0467 C   0  0  0  0  0  0  0  0  0  0  0  0
  -27.3638  -25.2201   18.8467 C   0  0  0  0  0  0  0  0  0  0  0  0
  -20.5010   -6.3021   23.5090 C   0  0  0  0  0  0  0  0  0  0  0  0
  -20.4584   -5.5257   24.6670 C   0  0  0  0  0  0  0  0  0  0  0  0
  -27.7826  -26.0278   21.0809 C   0  0  0  0  0  0  0  0  0  0  0  0
  -31.2046  -21.8581   19.9204 C   0  0  0  0  0  0  0  0  0  0  0  0
  -22.5260   -4.4537   24.0242 C   0  0  0  0  0  0  0  0  0  0  0  0
  -24.8706   -9.4228   20.9290 C   0  0  0  0  0  0  0  0  0  0  0  0
  -27.3623   -9.9691   20.9473 C   0  0  0  0  0  0  0  0  0  0  0  0
  -27.0647  -33.9945   16.7078 C   0  0  0  0  0  0  0  0  0  0  0  0
  -26.3390  -27.2877   19.6015 C   0  0  0  0  0  0  0  0  0  0  0  0
  -27.4764  -32.6802   17.0002 C   0  0  0  0  0  0  0  0  0  0  0  0
  -26.9533  -27.1366   20.8529 C   0  0  0  0  0  0  0  0  0  0  0  0
  -31.4440  -20.5349   20.3619 C   0  0  0  0  0  0  0  0  0  0  0  0
  -22.6704   -7.7451   21.2859 C   0  0  0  0  0  0  0  0  0  0  0  0
  -27.9878  -25.0759   20.0824 C   0  0  0  0  0  0  0  0  0  0  0  0
  -21.5560   -6.1542   22.6085 C   0  0  0  0  0  0  0  0  0  0  0  0
  -21.4710   -4.6016   24.9246 C   0  0  0  0  0  0  0  0  0  0  0  0
  -22.5685   -5.2301   22.8661 C   0  0  0  0  0  0  0  0  0  0  0  0
  -26.0067  -10.2895   20.7439 C   0  0  0  0  0  0  0  0  0  0  0  0
  -30.2164  -19.9155   20.3960 C   0  0  0  0  0  0  0  0  0  0  0  0
  -29.8476  -21.9529   19.7158 C   0  0  0  0  0  0  0  0  0  0  0  0
  -28.0383  -11.1238   20.6369 C   0  0  0  0  0  0  0  0  0  0  0  0
  -29.9291  -18.5813   20.7695 C   0  0  0  0  0  0  0  0  0  0  0  0
  -28.6963  -17.9760   20.7759 C   0  0  0  0  0  0  0  0  0  0  0  0
  -27.9574   -8.7379   21.3781 C   0  0  0  0  0  0  0  0  0  0  0  0
  -28.5599  -16.5637   21.1852 C   0  0  0  0  0  0  0  0  0  0  0  0
  -26.9436  -30.3979   19.8568 C   0  0  0  0  0  0  0  0  0  0  0  0
  -25.3087  -30.0903   22.6415 C   0  0  0  0  0  0  0  0  0  0  0  0
  -24.2539  -28.0587   25.1727 C   0  0  0  0  0  0  0  0  0  0  0  0
  -26.9898  -35.0582   17.7744 C   0  0  0  0  0  0  0  0  0  0  0  0
  -25.4257  -28.4532   19.3371 C   0  0  0  0  0  0  0  0  0  0  0  0
  -26.7543  -28.1381   21.9601 C   0  0  0  0  0  0  0  0  0  0  0  0
  -26.9630  -34.4968   19.1937 C   0  0  0  0  0  0  0  0  0  0  0  0
  -26.4767  -15.3729   18.4150 C   0  0  0  0  0  0  0  0  0  0  0  0
  -28.0331  -33.4230   19.3633 C   0  0  0  0  0  0  0  0  0  0  0  0
  -26.2439  -13.9213   18.8255 C   0  0  0  0  0  0  0  0  0  0  0  0
  -26.5568  -16.3033   19.6244 C   0  0  0  0  0  0  0  0  0  0  0  0
  -27.3365  -14.4291   21.0456 C   0  0  0  0  0  0  0  0  0  0  0  0
  -27.7857  -32.2431   18.4157 C   0  0  1  0  0  0  0  0  0  0  0  0
  -25.7018  -29.6469   20.2460 C   0  0  1  0  0  0  0  0  0  0  0  0
  -27.2995  -13.4685   19.8467 C   0  0  1  0  0  0  0  0  0  0  0  0
  -32.7562  -19.9561   20.7109 C   0  0  0  0  0  0  0  0  0  0  0  0
  -22.9673  -28.1015   27.3268 C   0  0  0  0  0  0  0  0  0  0  0  0
  -27.6988  -31.3705   24.0409 C   0  0  0  0  0  0  0  0  0  0  0  0
  -26.7863  -30.5310   26.2160 C   0  0  0  0  0  0  0  0  0  0  0  0
  -25.4689  -32.1557   24.8567 C   0  0  0  0  0  0  0  0  0  0  0  0
  -22.2267  -26.1692   24.1340 C   0  0  0  0  0  0  0  0  0  0  0  0
  -28.9547  -23.0671   19.2546 C   0  0  0  0  0  0  0  0  0  1  0  0
  -25.6788  -29.7628   24.0680 C   0  0  1  0  0  0  0  0  0  0  0  0
  -22.8937  -27.8837   25.8235 C   0  0  2  0  0  0  0  0  0  0  0  0
  -26.4137  -30.9369   24.7741 C   0  0  0  0  0  0  0  0  0  0  0  0
  -25.8300  -11.5490   20.3361 N   0  0  0  0  0  0  0  0  0  0  0  0
  -27.0836  -12.0303   20.2807 N   0  0  0  0  0  0  0  0  0  0  0  0
  -27.5308  -15.8176   20.6135 N   0  0  0  0  0  0  0  0  0  0  0  0
  -25.8572  -29.2637   21.6507 N   0  0  0  0  0  0  0  0  0  0  0  0
  -29.3502  -11.4419   20.6367 N   0  0  0  0  0  0  0  0  0  0  0  0
  -27.1173   -7.6507   21.6548 N   0  0  0  0  0  0  0  0  0  0  0  0
  -26.7286  -31.3972   18.9270 N   0  0  0  0  0  0  0  0  0  0  0  0
  -24.4438  -29.3491   24.7254 N   0  0  0  0  0  0  0  0  0  0  0  0
  -22.3723  -26.5103   25.5726 N   0  3  0  0  0  0  0  0  0  0  0  0
  -29.1961   -8.6107   21.5295 O   0  0  0  0  0  0  0  0  0  0  0  0
  -29.3637  -16.1315   22.0133 O   0  0  0  0  0  0  0  0  0  0  0  0
  -28.0172  -30.0941   20.3636 O   0  0  0  0  0  0  0  0  0  0  0  0
  -24.5548  -31.0401   22.4152 O   0  0  0  0  0  0  0  0  0  0  0  0
  -25.0682  -27.1434   25.0746 O   0  0  0  0  0  0  0  0  0  0  0  0
  -29.2380  -20.7730   20.0034 O   0  0  0  0  0  0  0  0  0  0  0  0
  -21.5971   -6.9263   21.4597 O   0  0  0  0  0  0  0  0  0  0  0  0
  -28.7933  -24.0047   20.3181 O   0  0  0  0  0  0  0  0  0  1  0  0
  -21.4308   -3.8572   26.0375 F   0  0  0  0  0  0  0  0  0  0  0  0
  -23.5852   -5.0845   22.0054 F   0  0  0  0  0  0  0  0  0  0  0  0
  1  2  1  0  0  0  0
  1  5  2  0  0  0  0
  2  6  2  0  0  0  0
  3  8  2  0  0  0  0
  3 16  1  0  0  0  0
  4  9  1  0  0  0  0
  4 16  2  0  0  0  0
  5 18  1  0  0  0  0
  6 20  1  0  0  0  0
  7 10  2  0  0  0  0
  7 19  1  0  0  0  0
  8 23  1  0  0  0  0
  9 23  2  0  0  0  0
 10 24  1  0  0  0  0
 11 12  2  0  0  0  0
 11 25  1  0  0  0  0
 12 26  1  0  0  0  0
 13 21  1  0  0  0  0
 13 24  2  0  0  0  0
 14 22  1  0  0  0  0
 14 30  2  0  0  0  0
 15 26  2  0  0  0  0
 15 27  1  0  0  0  0
 16 28  1  0  0  0  0
 17 28  1  0  0  0  0
 17 31  2  0  0  0  0
 17 34  1  0  0  0  0
 18 20  2  0  0  0  0
 18 39  1  0  0  0  0
 19 21  2  0  0  0  0
 19 40  1  0  0  0  0
 20 48  1  0  0  0  0
 21 41  1  0  0  0  0
 22 29  2  0  0  0  0
 22 51  1  0  0  0  0
 23 76  1  0  0  0  0
 24 77  1  0  0  0  0
 25 27  2  0  0  0  0
 25 76  1  0  0  0  0
 26 78  1  0  0  0  0
 27 79  1  0  0  0  0
 28 61  2  0  0  0  0
 29 32  1  0  0  0  0
 29 75  1  0  0  0  0
 30 57  1  0  0  0  0
 30 75  1  0  0  0  0
 31 62  1  0  0  0  0
 31 65  1  0  0  0  0
 32 33  2  0  0  0  0
 33 35  1  0  0  0  0
 34 66  1  0  0  0  0
 34 70  2  0  0  0  0
 35 63  1  0  0  0  0
 35 71  2  0  0  0  0
 36 49  1  0  0  0  0
 36 67  1  0  0  0  0
 36 72  2  0  0  0  0
 37 58  1  0  0  0  0
 37 64  1  0  0  0  0
 37 73  2  0  0  0  0
 38 59  1  0  0  0  0
 38 68  1  0  0  0  0
 38 74  2  0  0  0  0
 39 42  1  0  0  0  0
 40 49  1  0  0  0  0
 41 64  1  0  0  0  0
 42 44  1  0  0  0  0
 43 45  1  0  0  0  0
 43 46  1  0  0  0  0
 44 48  1  0  0  0  0
 45 50  1  0  0  0  0
 46 63  1  0  0  0  0
 47 50  1  0  0  0  0
 47 63  1  0  0  0  0
 48 67  1  0  0  0  0
 49 64  1  0  0  0  0
 50 62  1  0  0  0  0
 52 59  1  0  0  0  0
 53 60  1  0  0  0  0
 54 60  1  0  0  0  0
 55 60  1  0  0  0  0
 56 69  1  0  0  0  0
 57 77  1  0  0  0  0
 58 60  1  0  0  0  0
 58 68  1  0  0  0  0
 59 69  1  0  0  0  0
 61 62  1  0  0  0  0
M  CHG  1  69   1
M  ISO  4  33 100  35 100  57 101  77 101
M  END
> <Batch ID>
0118

> <Smiles>
CNC(C)C(=O)NC(C(=O)N1Cc2cc([101O:1][101CH2:1]c3cc(C)c(C=[100CH:0][100C:0](=O)N4CCCC(n5nc(-c6ccc(Oc7ccc(F)cc7F)cc6)c(C(N)=O)c5N)C4)o3)ccc2CC1C(=O)NC1CCCc2ccccc21)C(C)(C)C

> <Shape>
0.242

> <Color>
0.121

> <Negative vol penalty>
0.000

$$$$

  -OEChem-04052301483D

 88 97  0     1  0  0  0  0  0999 V2000
  -21.9340  -11.4359   21.1694 C   0  0  0  0  0  0  0  0  0  0  0  0
  -21.7188  -12.7800   21.4567 C   0  0  0  0  0  0  0  0  0  0  0  0
  -26.5239  -25.7095   25.3815 C   0  0  0  0  0  0  0  0  0  0  0  0
  -25.3567  -24.7539   23.4943 C   0  0  0  0  0  0  0  0  0  0  0  0
  -23.2238  -10.9794   20.9012 C   0  0  0  0  0  0  0  0  0  0  0  0
  -22.7936  -13.6682   21.4770 C   0  0  0  0  0  0  0  0  0  0  0  0
  -21.7757  -18.0048   19.0679 C   0  0  0  0  0  0  0  0  0  0  0  0
  -26.0100  -24.7087   26.2061 C   0  0  0  0  0  0  0  0  0  0  0  0
  -24.8428  -23.7531   24.3189 C   0  0  0  0  0  0  0  0  0  0  0  0
  -20.9975  -18.9422   19.7457 C   0  0  0  0  0  0  0  0  0  0  0  0
  -22.3607  -23.4277   26.5913 C   0  0  0  0  0  0  0  0  0  0  0  0
  -21.0059  -23.1193   26.4689 C   0  0  0  0  0  0  0  0  0  0  0  0
  -22.9923  -20.1659   20.3311 C   0  0  0  0  0  0  0  0  0  0  0  0
  -19.3201  -29.0490   23.0640 C   0  0  0  0  0  0  0  0  0  0  0  0
  -20.1847  -27.0173   22.1105 C   0  0  0  0  0  0  0  0  0  0  0  0
  -21.5766  -20.8475   25.8769 C   0  0  0  0  0  0  0  0  0  0  0  0
  -26.1972  -25.7321   24.0256 C   0  0  0  0  0  0  0  0  0  0  0  0
  -28.0832  -27.0412   22.9133 C   0  0  0  0  0  0  0  0  0  0  0  0
  -24.3135  -11.8643   20.9087 C   0  0  0  0  0  0  0  0  0  0  0  0
  -23.1713  -18.1351   19.0258 C   0  0  0  0  0  0  0  0  0  0  0  0
  -24.0993  -13.2229   21.2099 C   0  0  0  0  0  0  0  0  0  0  0  0
  -23.7857  -19.2301   19.6500 C   0  0  0  0  0  0  0  0  0  0  0  0
  -20.3338  -28.3696   22.3977 C   0  0  0  0  0  0  0  0  0  0  0  0
  -25.1695  -23.7305   25.6748 C   0  0  0  0  0  0  0  0  0  0  0  0
  -21.6060  -20.0214   20.3799 C   0  0  0  0  0  0  0  0  0  0  0  0
  -23.3235  -22.4461   26.3564 C   0  0  0  0  0  0  0  0  0  0  0  0
  -20.6138  -21.8292   26.1117 C   0  0  0  0  0  0  0  0  0  0  0  0
  -22.9314  -21.1560   25.9993 C   0  0  0  0  0  0  0  0  0  0  0  0
  -26.7273  -26.7659   23.1733 C   0  0  0  0  0  0  0  0  0  0  0  0
  -18.1861  -28.3363   23.4188 C   0  0  0  0  0  0  0  0  0  0  0  0
  -19.0121  -26.3955   22.5082 C   0  0  0  0  0  0  0  0  0  0  0  0
  -28.0573  -28.1083   22.0491 C   0  0  0  0  0  0  0  0  0  0  0  0
  -20.1912  -23.2522   21.1200 C   0  0  0  0  0  0  0  0  0  0  0  0
  -19.9802  -24.1431   22.1259 C   0  0  0  0  0  0  0  0  0  0  0  0
  -17.4333  -24.7884   20.2646 C   0  0  0  0  0  0  0  0  0  0  0  0
  -29.2608  -26.3903   23.4087 C   0  0  0  0  0  0  0  0  0  0  0  0
  -25.6197  -16.3824   20.0443 C   0  0  0  0  0  0  0  0  0  0  0  0
  -27.3683  -18.6104   18.4629 C   0  0  0  0  0  0  0  0  0  0  0  0
  -29.6111  -20.8398   17.1796 C   0  0  0  0  0  0  0  0  0  0  0  0
  -22.6251  -28.5321   21.3427 C   0  0  0  0  0  0  0  0  0  0  0  0
  -25.6960  -11.3155   20.6591 C   0  0  0  0  0  0  0  0  0  0  0  0
  -23.9944  -17.1299   18.2678 C   0  0  0  0  0  0  0  0  0  0  0  0
  -25.2786  -19.4267   19.6171 C   0  0  0  0  0  0  0  0  0  0  0  0
  -19.3209  -23.1383   19.8728 C   0  0  0  0  0  0  0  0  0  0  0  0
  -18.6152  -24.4089   19.3998 C   0  0  0  0  0  0  0  0  0  0  0  0
  -17.5471  -24.5748   21.7541 C   0  0  0  0  0  0  0  0  0  0  0  0
  -26.7285  -12.3913   20.3321 C   0  0  0  0  0  0  0  0  0  0  0  0
  -24.8778  -31.6606   21.2766 C   0  0  0  0  0  0  0  0  0  0  0  0
  -26.6142  -13.5559   21.3106 C   0  0  0  0  0  0  0  0  0  0  0  0
  -26.0743  -30.8359   21.7339 C   0  0  0  0  0  0  0  0  0  0  0  0
  -23.5819  -30.8905   21.5155 C   0  0  0  0  0  0  0  0  0  0  0  0
  -24.8246  -29.0842   20.3216 C   0  0  0  0  0  0  0  0  0  0  0  0
  -25.2361  -14.2218   21.2170 C   0  0  1  0  0  0  0  0  0  0  0  0
  -25.4489  -17.0818   18.7254 C   0  0  1  0  0  0  0  0  0  0  0  0
  -26.1589  -29.4952   20.9773 C   0  0  2  0  0  0  0  0  0  0  0  0
  -17.0776  -29.0336   24.1344 C   0  0  0  0  0  0  0  0  0  0  0  0
  -20.9191  -24.1934   23.3181 C   0  0  0  0  0  0  0  0  0  0  0  0
  -31.9887  -21.6043   17.4243 C   0  0  0  0  0  0  0  0  0  0  0  0
  -26.6186  -20.1201   21.0062 C   0  0  0  0  0  0  0  0  0  0  0  0
  -28.6411  -21.5563   20.6666 C   0  0  0  0  0  0  0  0  0  0  0  0
  -28.9030  -19.1026   21.0321 C   0  0  0  0  0  0  0  0  0  0  0  0
  -30.2635  -20.0817   14.3942 C   0  0  0  0  0  0  0  0  0  0  0  0
  -21.3453  -22.2743   21.0957 C   0  0  0  0  0  0  0  0  0  1  0  0
  -27.9906  -19.9368   18.8267 C   0  0  1  0  0  0  0  0  0  0  0  0
  -31.0393  -20.6662   16.6953 C   0  0  2  0  0  0  0  0  0  0  0  0
  -28.0185  -20.1769   20.3627 C   0  0  0  0  0  0  0  0  0  0  0  0
  -25.9003  -27.5917   22.5267 N   0  0  0  0  0  0  0  0  0  0  0  0
  -18.0053  -27.0223   23.1571 N   0  0  0  0  0  0  0  0  0  0  0  0
  -26.7389  -28.3964   21.8519 N   0  0  0  0  0  0  0  0  0  0  0  0
  -18.8742  -25.0103   22.2078 N   0  0  0  0  0  0  0  0  0  0  0  0
  -26.0408  -18.4136   18.8686 N   0  0  0  0  0  0  0  0  0  0  0  0
  -23.6506  -29.4808   21.1033 N   0  0  0  0  0  0  0  0  0  0  0  0
  -29.0340  -28.8191   21.4462 N   0  0  0  0  0  0  0  0  0  0  0  0
  -29.7835  -25.3115   22.6826 N   0  0  0  0  0  0  0  0  0  0  0  0
  -21.5150  -29.0529   22.0131 N   0  0  0  0  0  0  0  0  0  0  0  0
  -25.1661  -15.0772   20.0517 N   0  0  0  0  0  0  0  0  0  0  0  0
  -29.3053  -19.9581   18.1947 N   0  0  0  0  0  0  0  0  0  0  0  0
  -31.1289  -20.9486   15.2348 N   0  3  0  0  0  0  0  0  0  0  0  0
  -16.4123  -25.2668   19.7686 O   0  0  0  0  0  0  0  0  0  0  0  0
  -29.8231  -26.7442   24.4727 O   0  0  0  0  0  0  0  0  0  0  0  0
  -26.1268  -16.9821   20.9850 O   0  0  0  0  0  0  0  0  0  0  0  0
  -28.0333  -17.7823   17.8354 O   0  0  0  0  0  0  0  0  0  0  0  0
  -28.8447  -21.6765   16.7074 O   0  0  0  0  0  0  0  0  0  0  0  0
  -22.7293  -27.3594   20.9771 O   0  0  0  0  0  0  0  0  0  0  0  0
  -24.6681  -22.7537   26.4791 O   0  0  0  0  0  0  0  0  0  0  0  0
  -20.8488  -20.9375   21.0427 O   0  0  0  0  0  0  0  0  0  1  0  0
  -19.3127  -21.5327   25.9957 F   0  0  0  0  0  0  0  0  0  0  0  0
  -23.8517  -20.2084   25.7735 F   0  0  0  0  0  0  0  0  0  0  0  0
  1  2  1  0  0  0  0
  1  5  2  0  0  0  0
  2  6  2  0  0  0  0
  3  8  2  0  0  0  0
  3 17  1  0  0  0  0
  4  9  1  0  0  0  0
  4 17  2  0  0  0  0
  5 19  1  0  0  0  0
  6 21  1  0  0  0  0
  7 10  2  0  0  0  0
  7 20  1  0  0  0  0
  8 24  1  0  0  0  0
  9 24  2  0  0  0  0
 10 25  1  0  0  0  0
 11 12  2  0  0  0  0
 11 26  1  0  0  0  0
 12 27  1  0  0  0  0
 13 22  1  0  0  0  0
 13 25  2  0  0  0  0
 14 23  1  0  0  0  0
 14 30  2  0  0  0  0
 15 23  2  0  0  0  0
 15 31  1  0  0  0  0
 16 27  2  0  0  0  0
 16 28  1  0  0  0  0
 17 29  1  0  0  0  0
 18 29  1  0  0  0  0
 18 32  2  0  0  0  0
 18 36  1  0  0  0  0
 19 21  2  0  0  0  0
 19 41  1  0  0  0  0
 20 22  2  0  0  0  0
 20 42  1  0  0  0  0
 21 53  1  0  0  0  0
 22 43  1  0  0  0  0
 23 75  1  0  0  0  0
 24 85  1  0  0  0  0
 25 86  1  0  0  0  0
 26 28  2  0  0  0  0
 26 85  1  0  0  0  0
 27 87  1  0  0  0  0
 28 88  1  0  0  0  0
 29 67  2  0  0  0  0
 30 56  1  0  0  0  0
 30 68  1  0  0  0  0
 31 68  2  0  0  0  0
 31 70  1  0  0  0  0
 32 69  1  0  0  0  0
 32 73  1  0  0  0  0
 33 34  2  0  0  0  0
 33 44  1  0  0  0  0
 33 63  1  0  0  0  0
 34 57  1  0  0  0  0
 34 70  1  0  0  0  0
 35 45  1  0  0  0  0
 35 46  1  0  0  0  0
 35 79  2  0  0  0  0
 36 74  1  0  0  0  0
 36 80  2  0  0  0  0
 37 54  1  0  0  0  0
 37 76  1  0  0  0  0
 37 81  2  0  0  0  0
 38 64  1  0  0  0  0
 38 71  1  0  0  0  0
 38 82  2  0  0  0  0
 39 65  1  0  0  0  0
 39 77  1  0  0  0  0
 39 83  2  0  0  0  0
 40 72  1  0  0  0  0
 40 75  1  0  0  0  0
 40 84  2  0  0  0  0
 41 47  1  0  0  0  0
 42 54  1  0  0  0  0
 43 71  1  0  0  0  0
 44 45  1  0  0  0  0
 46 70  1  0  0  0  0
 47 49  1  0  0  0  0
 48 50  1  0  0  0  0
 48 51  1  0  0  0  0
 49 53  1  0  0  0  0
 50 55  1  0  0  0  0
 51 72  1  0  0  0  0
 52 55  1  0  0  0  0
 52 72  1  0  0  0  0
 53 76  1  0  0  0  0
 54 71  1  0  0  0  0
 55 69  1  0  0  0  0
 58 65  1  0  0  0  0
 59 66  1  0  0  0  0
 60 66  1  0  0  0  0
 61 66  1  0  0  0  0
 62 78  1  0  0  0  0
 63 86  1  0  0  0  0
 64 66  1  0  0  0  0
 64 77  1  0  0  0  0
 65 78  1  0  0  0  0
 67 69  1  0  0  0  0
M  CHG  1  78   1
M  ISO  4  40 100  63 101  75 100  86 101
M  END
> <Batch ID>
0118

> <Smiles>
CNC(C)C(=O)NC(C(=O)N1Cc2cc([101O:1][101CH2:1]C3=C(C)N(c4cc([100NH:0][100C:0](=O)N5CCCC(n6nc(-c7ccc(Oc8ccc(F)cc8F)cc7)c(C(N)=O)c6N)C5)cc(C)n4)CC(=O)CC3)ccc2CC1C(=O)NC1CCCc2ccccc21)C(C)(C)C

> <Shape>
0.199

> <Color>
0.084

> <Negative vol penalty>
0.000

$$$$

  -OEChem-04052301483D

 82 90  0     1  0  0  0  0  0999 V2000
  -30.8958  -36.3709   23.0035 C   0  0  0  0  0  0  0  0  0  0  0  0
  -31.0445  -35.1696   22.3177 C   0  0  0  0  0  0  0  0  0  0  0  0
  -23.0880   -9.8146   20.0618 C   0  0  0  0  0  0  0  0  0  0  0  0
  -24.3809   -9.2438   22.0213 C   0  0  0  0  0  0  0  0  0  0  0  0
  -29.8601  -36.5229   23.9243 C   0  0  0  0  0  0  0  0  0  0  0  0
  -30.1581  -34.1193   22.5532 C   0  0  0  0  0  0  0  0  0  0  0  0
  -26.9946  -28.6283   19.2129 C   0  0  0  0  0  0  0  0  0  0  0  0
  -22.4945   -8.5526   20.0858 C   0  0  0  0  0  0  0  0  0  0  0  0
  -23.7874   -7.9817   22.0453 C   0  0  0  0  0  0  0  0  0  0  0  0
  -26.8038  -27.2534   19.3438 C   0  0  0  0  0  0  0  0  0  0  0  0
  -20.8538   -6.6291   23.0375 C   0  0  0  0  0  0  0  0  0  0  0  0
  -20.4078   -6.1477   24.2683 C   0  0  0  0  0  0  0  0  0  0  0  0
  -29.9873  -20.2171   20.8227 C   0  0  0  0  0  0  0  0  0  0  0  0
  -30.7732  -19.0534   21.0645 C   0  0  0  0  0  0  0  0  0  0  0  0
  -25.0045  -27.6574   20.8990 C   0  0  0  0  0  0  0  0  0  0  0  0
  -21.8998   -4.2578   24.0697 C   0  0  0  0  0  0  0  0  0  0  0  0
  -24.0312  -10.1602   21.0296 C   0  0  0  0  0  0  0  0  0  0  0  0
  -24.1885  -12.6305   21.6465 C   0  0  0  0  0  0  0  0  0  0  0  0
  -28.9547  -35.4773   24.1642 C   0  0  0  0  0  0  0  0  0  0  0  0
  -26.1977  -29.5293   19.9335 C   0  0  0  0  0  0  0  0  0  0  0  0
  -29.1101  -34.2570   23.4792 C   0  0  0  0  0  0  0  0  0  0  0  0
  -25.1855  -29.0433   20.7734 C   0  0  0  0  0  0  0  0  0  0  0  0
  -22.8442   -7.6361   21.0775 C   0  0  0  0  0  0  0  0  0  0  0  0
  -25.8105  -26.7677   20.1892 C   0  0  0  0  0  0  0  0  0  0  0  0
  -21.8227   -5.9249   22.3228 C   0  0  0  0  0  0  0  0  0  0  0  0
  -20.9308   -4.9620   24.7844 C   0  0  0  0  0  0  0  0  0  0  0  0
  -22.3458   -4.7393   22.8389 C   0  0  0  0  0  0  0  0  0  0  0  0
  -24.6451  -11.4636   21.0050 C   0  0  0  0  0  0  0  0  0  0  0  0
  -28.8064  -20.2005   21.5316 C   0  0  0  0  0  0  0  0  0  0  0  0
  -30.1629  -18.1918   21.9495 C   0  0  0  0  0  0  0  0  0  0  0  0
  -25.1148  -13.5891   21.3156 C   0  0  0  0  0  0  0  0  0  0  0  0
  -27.7335  -21.2104   21.5545 C   0  0  0  0  0  0  0  0  0  0  0  0
  -27.7585  -22.3629   20.8706 C   0  0  0  0  0  0  0  0  0  0  0  0
  -23.0306  -12.8301   22.4682 C   0  0  0  0  0  0  0  0  0  0  0  0
  -26.6228  -23.3251   20.9698 C   0  0  0  0  0  0  0  0  0  0  0  0
  -26.7538  -31.7418   22.1470 C   0  0  0  0  0  0  0  0  0  0  0  0
  -23.6025  -32.3901   21.7333 C   0  0  0  0  0  0  0  0  0  0  0  0
  -20.5232  -31.2928   20.7529 C   0  0  0  0  0  0  0  0  0  0  0  0
  -30.4121  -15.2112   20.6433 C   0  0  0  0  0  0  0  0  0  0  0  0
  -27.8794  -35.6722   25.2036 C   0  0  0  0  0  0  0  0  0  0  0  0
  -26.3985  -31.0099   19.7608 C   0  0  0  0  0  0  0  0  0  0  0  0
  -24.2897  -29.9691   21.5536 C   0  0  0  0  0  0  0  0  0  0  0  0
  -26.7575  -34.6404   25.1202 C   0  0  0  0  0  0  0  0  0  0  0  0
  -28.8669  -13.5098   17.9241 C   0  0  0  0  0  0  0  0  0  0  0  0
  -27.3339  -33.2353   24.9781 C   0  0  0  0  0  0  0  0  0  0  0  0
  -27.5970  -12.9172   18.5376 C   0  0  0  0  0  0  0  0  0  0  0  0
  -30.0342  -13.4840   18.9083 C   0  0  0  0  0  0  0  0  0  0  0  0
  -28.4880  -13.5199   20.8271 C   0  0  0  0  0  0  0  0  0  0  0  0
  -28.1538  -33.1031   23.6890 C   0  0  1  0  0  0  0  0  0  0  0  0
  -25.8686  -31.8259   20.9358 C   0  0  1  0  0  0  0  0  0  0  0  0
  -27.2684  -13.5752   19.8912 C   0  0  2  0  0  0  0  0  0  0  0  0
  -18.1342  -32.0377   20.5657 C   0  0  0  0  0  0  0  0  0  0  0  0
  -23.2691  -32.0706   24.7493 C   0  0  0  0  0  0  0  0  0  0  0  0
  -20.7996  -31.8768   24.3856 C   0  0  0  0  0  0  0  0  0  0  0  0
  -21.9905  -33.9759   23.7544 C   0  0  0  0  0  0  0  0  0  0  0  0
  -20.5096  -30.9011   17.8194 C   0  0  0  0  0  0  0  0  0  0  0  0
  -30.6535  -16.8909   22.4542 C   0  0  0  0  0  0  0  0  0  0  0  0
  -26.7671  -24.5907   20.1512 C   0  0  0  0  0  0  0  0  0  1  0  0
  -22.3187  -31.8959   22.3551 C   0  0  1  0  0  0  0  0  0  0  0  0
  -19.4717  -31.9155   19.8523 C   0  0  2  0  0  0  0  0  0  0  0  0
  -22.1125  -32.4371   23.7980 C   0  0  0  0  0  0  0  0  0  0  0  0
  -25.7737  -11.6606   20.3184 N   0  0  0  0  0  0  0  0  0  0  0  0
  -26.0339  -12.9626   20.5264 N   0  0  0  0  0  0  0  0  0  0  0  0
  -24.5295  -31.4082   21.3558 N   0  0  0  0  0  0  0  0  0  0  0  0
  -29.6576  -14.1248   20.1706 N   0  0  0  0  0  0  0  0  0  0  0  0
  -25.2245  -14.8984   21.6255 N   0  0  0  0  0  0  0  0  0  0  0  0
  -22.1848  -11.7384   22.7074 N   0  0  0  0  0  0  0  0  0  0  0  0
  -27.2783  -32.9563   22.5460 N   0  0  0  0  0  0  0  0  0  0  0  0
  -21.2518  -32.2509   21.4256 N   0  0  0  0  0  0  0  0  0  0  0  0
  -29.9835  -15.7643   21.8437 N   0  0  0  0  0  0  0  0  0  0  0  0
  -19.2784  -31.0845   18.6304 N   0  3  0  0  0  0  0  0  0  0  0  0
  -22.7453  -13.9475   22.9618 O   0  0  0  0  0  0  0  0  0  0  0  0
  -25.6382  -23.1024   21.6691 O   0  0  0  0  0  0  0  0  0  0  0  0
  -26.9455  -30.6556   22.6810 O   0  0  0  0  0  0  0  0  0  0  0  0
  -23.7734  -33.6022   21.5813 O   0  0  0  0  0  0  0  0  0  0  0  0
  -20.6800  -30.0779   20.8528 O   0  0  0  0  0  0  0  0  0  0  0  0
  -31.3918  -15.6588   20.0375 O   0  0  0  0  0  0  0  0  0  0  0  0
  -22.2651   -6.4046   21.1013 O   0  0  0  0  0  0  0  0  0  0  0  0
  -25.6226  -25.4263   20.3193 O   0  0  0  0  0  0  0  0  0  1  0  0
  -20.5035   -4.5006   25.9671 F   0  0  0  0  0  0  0  0  0  0  0  0
  -23.2777   -4.0590   22.1573 F   0  0  0  0  0  0  0  0  0  0  0  0
  -28.6487  -18.7862   22.4842 S   0  0  0  0  0  0  0  0  0  0  0  0
  1  2  1  0  0  0  0
  1  5  2  0  0  0  0
  2  6  2  0  0  0  0
  3  8  2  0  0  0  0
  3 17  1  0  0  0  0
  4  9  1  0  0  0  0
  4 17  2  0  0  0  0
  5 19  1  0  0  0  0
  6 21  1  0  0  0  0
  7 10  2  0  0  0  0
  7 20  1  0  0  0  0
  8 23  1  0  0  0  0
  9 23  2  0  0  0  0
 10 24  1  0  0  0  0
 11 12  2  0  0  0  0
 11 25  1  0  0  0  0
 12 26  1  0  0  0  0
 13 14  1  0  0  0  0
 13 29  2  0  0  0  0
 14 30  2  0  0  0  0
 15 22  1  0  0  0  0
 15 24  2  0  0  0  0
 16 26  2  0  0  0  0
 16 27  1  0  0  0  0
 17 28  1  0  0  0  0
 18 28  1  0  0  0  0
 18 31  2  0  0  0  0
 18 34  1  0  0  0  0
 19 21  2  0  0  0  0
 19 40  1  0  0  0  0
 20 22  2  0  0  0  0
 20 41  1  0  0  0  0
 21 49  1  0  0  0  0
 22 42  1  0  0  0  0
 23 78  1  0  0  0  0
 24 79  1  0  0  0  0
 25 27  2  0  0  0  0
 25 78  1  0  0  0  0
 26 80  1  0  0  0  0
 27 81  1  0  0  0  0
 28 62  2  0  0  0  0
 29 32  1  0  0  0  0
 29 82  1  0  0  0  0
 30 57  1  0  0  0  0
 30 82  1  0  0  0  0
 31 63  1  0  0  0  0
 31 66  1  0  0  0  0
 32 33  2  0  0  0  0
 33 35  1  0  0  0  0
 34 67  1  0  0  0  0
 34 72  2  0  0  0  0
 35 58  1  0  0  0  0
 35 73  2  0  0  0  0
 36 50  1  0  0  0  0
 36 68  1  0  0  0  0
 36 74  2  0  0  0  0
 37 59  1  0  0  0  0
 37 64  1  0  0  0  0
 37 75  2  0  0  0  0
 38 60  1  0  0  0  0
 38 69  1  0  0  0  0
 38 76  2  0  0  0  0
 39 65  1  0  0  0  0
 39 70  1  0  0  0  0
 39 77  2  0  0  0  0
 40 43  1  0  0  0  0
 41 50  1  0  0  0  0
 42 64  1  0  0  0  0
 43 45  1  0  0  0  0
 44 46  1  0  0  0  0
 44 47  1  0  0  0  0
 45 49  1  0  0  0  0
 46 51  1  0  0  0  0
 47 65  1  0  0  0  0
 48 51  1  0  0  0  0
 48 65  1  0  0  0  0
 49 68  1  0  0  0  0
 50 64  1  0  0  0  0
 51 63  1  0  0  0  0
 52 60  1  0  0  0  0
 53 61  1  0  0  0  0
 54 61  1  0  0  0  0
 55 61  1  0  0  0  0
 56 71  1  0  0  0  0
 57 70  1  0  0  0  0
 58 79  1  0  0  0  0
 59 61  1  0  0  0  0
 59 69  1  0  0  0  0
 60 71  1  0  0  0  0
 62 63  1  0  0  0  0
M  CHG  1  71   1
M  ISO  4  39 100  58 101  70 100  79 101
M  END
> <Batch ID>
0118

> <Smiles>
CNC(C)C(=O)NC(C(=O)N1Cc2cc([101O:1][101CH2:1]C(=O)C=Cc3ccc(C[100NH:0][100C:0](=O)N4CCCC(n5nc(-c6ccc(Oc7ccc(F)cc7F)cc6)c(C(N)=O)c5N)C4)s3)ccc2CC1C(=O)NC1CCCc2ccccc21)C(C)(C)C

> <Shape>
0.307

> <Color>
0.143

> <Negative vol penalty>
0.000

$$$$

  -OEChem-04052301483D

 85 94  0     1  0  0  0  0  0999 V2000
  -21.5866  -35.7620   19.0399 C   0  0  0  0  0  0  0  0  0  0  0  0
  -21.2442  -34.4215   19.1854 C   0  0  0  0  0  0  0  0  0  0  0  0
  -23.0713   -9.8752   19.9366 C   0  0  0  0  0  0  0  0  0  0  0  0
  -23.8404   -9.8685   22.2268 C   0  0  0  0  0  0  0  0  0  0  0  0
  -22.1326  -36.2145   17.8394 C   0  0  0  0  0  0  0  0  0  0  0  0
  -21.4466  -33.5329   18.1300 C   0  0  0  0  0  0  0  0  0  0  0  0
  -25.6465  -27.7337   18.9188 C   0  0  0  0  0  0  0  0  0  0  0  0
  -31.5111  -18.4273   20.0685 C   0  0  0  0  0  0  0  0  0  0  0  0
  -31.2497  -19.4846   19.1971 C   0  0  0  0  0  0  0  0  0  0  0  0
  -22.3281   -8.7208   20.1827 C   0  0  0  0  0  0  0  0  0  0  0  0
  -23.0972   -8.7141   22.4730 C   0  0  0  0  0  0  0  0  0  0  0  0
  -26.2651  -26.4906   19.0533 C   0  0  0  0  0  0  0  0  0  0  0  0
  -19.8714   -7.9135   23.0839 C   0  0  0  0  0  0  0  0  0  0  0  0
  -19.1191   -7.8668   24.2576 C   0  0  0  0  0  0  0  0  0  0  0  0
  -25.8638  -26.0257   16.7143 C   0  0  0  0  0  0  0  0  0  0  0  0
  -29.3017  -18.6631   21.0174 C   0  0  0  0  0  0  0  0  0  0  0  0
  -20.3630   -5.9248   24.9776 C   0  0  0  0  0  0  0  0  0  0  0  0
  -23.8275  -10.4491   20.9586 C   0  0  0  0  0  0  0  0  0  0  0  0
  -24.1695  -12.9748   20.8521 C   0  0  0  0  0  0  0  0  0  0  0  0
  -22.3508  -35.3291   16.7722 C   0  0  0  0  0  0  0  0  0  0  0  0
  -25.1472  -28.1344   17.6764 C   0  0  0  0  0  0  0  0  0  0  0  0
  -21.9948  -33.9742   16.9137 C   0  0  0  0  0  0  0  0  0  0  0  0
  -25.2541  -27.2749   16.5706 C   0  0  0  0  0  0  0  0  0  0  0  0
  -30.5371  -18.0165   20.9786 C   0  0  0  0  0  0  0  0  0  0  0  0
  -30.0143  -20.1312   19.2358 C   0  0  0  0  0  0  0  0  0  0  0  0
  -22.3411   -8.1402   21.4510 C   0  0  0  0  0  0  0  0  0  0  0  0
  -26.3733  -25.6386   17.9538 C   0  0  0  0  0  0  0  0  0  0  0  0
  -20.8694   -6.9657   22.8570 C   0  0  0  0  0  0  0  0  0  0  0  0
  -19.3650   -6.8725   25.2045 C   0  0  0  0  0  0  0  0  0  0  0  0
  -29.0403  -19.7204   20.1460 C   0  0  0  0  0  0  0  0  0  0  0  0
  -21.1152   -5.9714   23.8039 C   0  0  0  0  0  0  0  0  0  0  0  0
  -24.5958  -11.6413   20.7048 C   0  0  0  0  0  0  0  0  0  0  0  0
  -25.2603  -13.7262   20.4888 C   0  0  0  0  0  0  0  0  0  0  0  0
  -28.7637  -23.0223   17.3787 C   0  0  0  0  0  0  0  0  0  0  0  0
  -28.0867  -24.1744   17.3269 C   0  0  0  0  0  0  0  0  0  1  0  0
  -22.9008  -13.4884   21.2792 C   0  0  0  0  0  0  0  0  0  0  0  0
  -23.4253  -30.8004   15.6754 C   0  0  0  0  0  0  0  0  0  0  0  0
  -25.6441  -29.6462   13.8991 C   0  0  0  0  0  0  0  0  0  0  0  0
  -28.4564  -28.4001   12.4242 C   0  0  0  0  0  0  0  0  0  0  0  0
  -30.7451  -14.7428   20.6610 C   0  0  0  0  0  0  0  0  0  0  0  0
  -22.8996  -35.8740   15.4774 C   0  0  0  0  0  0  0  0  0  0  0  0
  -24.4184  -29.4387   17.4993 C   0  0  0  0  0  0  0  0  0  0  0  0
  -24.6717  -27.7335   15.2616 C   0  0  0  0  0  0  0  0  0  0  0  0
  -29.9756  -22.6991   16.5635 C   0  0  0  0  0  0  0  0  0  0  0  0
  -28.4935  -21.9089   18.3456 C   0  0  0  0  0  0  0  0  0  0  0  0
  -23.4298  -34.7939   14.5380 C   0  0  0  0  0  0  0  0  0  0  0  0
  -29.5972  -12.3727   18.2648 C   0  0  0  0  0  0  0  0  0  0  0  0
  -22.4364  -33.6407   14.4359 C   0  0  0  0  0  0  0  0  0  0  0  0
  -28.1614  -12.0767   18.7018 C   0  0  0  0  0  0  0  0  0  0  0  0
  -30.7556  -21.7550   17.4741 C   0  0  0  0  0  0  0  0  0  0  0  0
  -30.5192  -12.5862   19.4633 C   0  0  0  0  0  0  0  0  0  0  0  0
  -28.6233  -13.3095   20.8618 C   0  0  0  0  0  0  0  0  0  0  0  0
  -22.2222  -32.9747   15.8004 C   0  0  1  0  0  0  0  0  0  0  0  0
  -24.6662  -30.0868   16.1254 C   0  0  1  0  0  0  0  0  0  0  0  0
  -27.6443  -13.1421   19.6871 C   0  0  2  0  0  0  0  0  0  0  0  0
  -29.8145  -28.5630   10.3203 C   0  0  0  0  0  0  0  0  0  0  0  0
  -23.5649  -27.9653   12.4310 C   0  0  0  0  0  0  0  0  0  0  0  0
  -25.3293  -27.3736   10.7563 C   0  0  0  0  0  0  0  0  0  0  0  0
  -24.6318  -29.7514   11.0432 C   0  0  0  0  0  0  0  0  0  0  0  0
  -30.8409  -29.3476   13.8990 C   0  0  0  0  0  0  0  0  0  0  0  0
  -30.8165  -16.8860   21.9102 C   0  0  0  0  0  0  0  0  0  0  0  0
  -26.0226  -28.6423   12.8397 C   0  0  1  0  0  0  0  0  0  0  0  0
  -29.6214  -29.0870   11.7348 C   0  0  2  0  0  0  0  0  0  0  0  0
  -24.8911  -28.4278   11.7952 C   0  0  0  0  0  0  0  0  0  0  0  0
  -25.8590  -11.5476   20.2808 N   0  0  0  0  0  0  0  0  0  0  0  0
  -26.2357  -12.8318   20.1585 N   0  0  0  0  0  0  0  0  0  0  0  0
  -29.7580  -21.1779   18.3720 N   0  0  3  0  0  0  0  0  0  0  0  0
  -24.9955  -29.1510   15.0369 N   0  0  0  0  0  0  0  0  0  0  0  0
  -29.9725  -13.6096   20.3575 N   0  0  0  0  0  0  0  0  0  0  0  0
  -25.4708  -15.0580   20.4228 N   0  0  0  0  0  0  0  0  0  0  0  0
  -21.8901  -12.5775   21.6152 N   0  0  0  0  0  0  0  0  0  0  0  0
  -23.3349  -32.1059   16.1191 N   0  0  0  0  0  0  0  0  0  0  0  0
  -27.2825  -29.1066   12.2690 N   0  0  0  0  0  0  0  0  0  0  0  0
  -30.1496  -15.6668   21.5109 N   0  0  0  0  0  0  0  0  0  0  0  0
  -30.8817  -28.8588   12.4967 N   0  3  0  0  0  0  0  0  0  0  0  0
  -22.6651  -14.7187   21.3447 O   0  0  0  0  0  0  0  0  0  0  0  0
  -22.6097  -30.2113   14.9758 O   0  0  0  0  0  0  0  0  0  0  0  0
  -25.9100  -30.8385   13.7227 O   0  0  0  0  0  0  0  0  0  0  0  0
  -28.5750  -27.3406   13.0357 O   0  0  0  0  0  0  0  0  0  0  0  0
  -31.8792  -14.9207   20.2038 O   0  0  0  0  0  0  0  0  0  0  0  0
  -21.6158   -7.0139   21.6916 O   0  0  0  0  0  0  0  0  0  0  0  0
  -26.9825  -24.4284   18.0911 O   0  0  0  0  0  0  0  0  0  1  0  0
  -18.6436   -6.8288   26.3322 F   0  0  0  0  0  0  0  0  0  0  0  0
  -27.8496  -20.3347   20.1917 F   0  0  0  0  0  0  0  0  0  0  0  0
  -22.0735   -5.0589   23.5920 F   0  0  0  0  0  0  0  0  0  0  0  0
  1  2  1  0  0  0  0
  1  5  2  0  0  0  0
  2  6  2  0  0  0  0
  3 10  2  0  0  0  0
  3 18  1  0  0  0  0
  4 11  1  0  0  0  0
  4 18  2  0  0  0  0
  5 20  1  0  0  0  0
  6 22  1  0  0  0  0
  7 12  2  0  0  0  0
  7 21  1  0  0  0  0
  8  9  2  0  0  0  0
  8 24  1  0  0  0  0
  9 25  1  0  0  0  0
 10 26  1  0  0  0  0
 11 26  2  0  0  0  0
 12 27  1  0  0  0  0
 13 14  2  0  0  0  0
 13 28  1  0  0  0  0
 14 29  1  0  0  0  0
 15 23  1  0  0  0  0
 15 27  2  0  0  0  0
 16 24  2  0  0  0  0
 16 30  1  0  0  0  0
 17 29  2  0  0  0  0
 17 31  1  0  0  0  0
 18 32  1  0  0  0  0
 19 32  1  0  0  0  0
 19 33  2  0  0  0  0
 19 36  1  0  0  0  0
 20 22  2  0  0  0  0
 20 41  1  0  0  0  0
 21 23  2  0  0  0  0
 21 42  1  0  0  0  0
 22 53  1  0  0  0  0
 23 43  1  0  0  0  0
 24 61  1  0  0  0  0
 25 30  2  0  0  0  0
 25 67  1  0  0  0  0
 26 81  1  0  0  0  0
 27 82  1  0  0  0  0
 28 31  2  0  0  0  0
 28 81  1  0  0  0  0
 29 83  1  0  0  0  0
 30 84  1  0  0  0  0
 31 85  1  0  0  0  0
 32 65  2  0  0  0  0
 33 66  1  0  0  0  0
 33 70  1  0  0  0  0
 34 35  2  0  0  0  0
 34 44  1  0  0  0  0
 34 45  1  0  0  0  0
 35 82  1  0  0  0  0
 36 71  1  0  0  0  0
 36 76  2  0  0  0  0
 37 54  1  0  0  0  0
 37 72  1  0  0  0  0
 37 77  2  0  0  0  0
 38 62  1  0  0  0  0
 38 68  1  0  0  0  0
 38 78  2  0  0  0  0
 39 63  1  0  0  0  0
 39 73  1  0  0  0  0
 39 79  2  0  0  0  0
 40 69  1  0  0  0  0
 40 74  1  0  0  0  0
 40 80  2  0  0  0  0
 41 46  1  0  0  0  0
 42 54  1  0  0  0  0
 43 68  1  0  0  0  0
 44 50  1  0  0  0  0
 45 67  1  0  0  0  0
 46 48  1  0  0  0  0
 47 49  1  0  0  0  0
 47 51  1  0  0  0  0
 48 53  1  0  0  0  0
 49 55  1  0  0  0  0
 50 67  1  0  0  0  0
 51 69  1  0  0  0  0
 52 55  1  0  0  0  0
 52 69  1  0  0  0  0
 53 72  1  0  0  0  0
 54 68  1  0  0  0  0
 55 66  1  0  0  0  0
 56 63  1  0  0  0  0
 57 64  1  0  0  0  0
 58 64  1  0  0  0  0
 59 64  1  0  0  0  0
 60 75  1  0  0  0  0
 61 74  1  0  0  0  0
 62 64  1  0  0  0  0
 62 73  1  0  0  0  0
 63 75  1  0  0  0  0
 65 66  1  0  0  0  0
M  CHG  1  75   1
M  ISO  4  35 101  40 100  74 100  82 101
M  END
> <Batch ID>
0118

> <Smiles>
CNC(C)C(=O)NC(C(=O)N1Cc2cc([101O:1][101CH:1]=C3CCN(c4ccc(C[100NH:0][100C:0](=O)N5CCCC(n6nc(-c7ccc(Oc8ccc(F)cc8F)cc7)c(C(N)=O)c6N)C5)cc4F)C3)ccc2CC1C(=O)NC1CCCc2ccccc21)C(C)(C)C

> <Shape>
0.223

> <Color>
0.196

> <Negative vol penalty>
0.000

$$$$

  -OEChem-04052301483D

 81 89  0     1  0  0  0  0  0999 V2000
  -28.3396  -36.7782   19.8513 C   0  0  0  0  0  0  0  0  0  0  0  0
  -28.6734  -35.4438   19.6433 C   0  0  0  0  0  0  0  0  0  0  0  0
  -23.9031   -9.3307   20.3714 C   0  0  0  0  0  0  0  0  0  0  0  0
  -22.8730  -11.2732   21.3726 C   0  0  0  0  0  0  0  0  0  0  0  0
  -28.2267  -20.3381   18.5240 C   0  0  0  0  0  0  0  0  0  0  0  0
  -27.4837  -37.1269   20.8953 C   0  0  0  0  0  0  0  0  0  0  0  0
  -28.1523  -34.4573   20.4799 C   0  0  0  0  0  0  0  0  0  0  0  0
  -26.5821  -28.7502   18.9087 C   0  0  0  0  0  0  0  0  0  0  0  0
  -28.2259  -18.9532   18.6901 C   0  0  0  0  0  0  0  0  0  0  0  0
  -22.9472   -8.5131   20.9741 C   0  0  0  0  0  0  0  0  0  0  0  0
  -21.9170  -10.4556   21.9753 C   0  0  0  0  0  0  0  0  0  0  0  0
  -27.2444  -27.5290   19.0264 C   0  0  0  0  0  0  0  0  0  0  0  0
  -22.3732   -7.1888   24.0304 C   0  0  0  0  0  0  0  0  0  0  0  0
  -22.8180   -6.0203   24.6487 C   0  0  0  0  0  0  0  0  0  0  0  0
  -26.0628  -27.0933   21.0839 C   0  0  0  0  0  0  0  0  0  0  0  0
  -29.9487  -19.1540   20.3721 C   0  0  0  0  0  0  0  0  0  0  0  0
  -21.4387   -4.7081   23.1611 C   0  0  0  0  0  0  0  0  0  0  0  0
  -23.8660  -10.7108   20.5706 C   0  0  0  0  0  0  0  0  0  0  0  0
  -29.0885  -21.1310   19.2819 C   0  0  0  0  0  0  0  0  0  0  0  0
  -24.7741  -12.1665   18.6828 C   0  0  0  0  0  0  0  0  0  0  0  0
  -26.9443  -36.1433   21.7391 C   0  0  0  0  0  0  0  0  0  0  0  0
  -25.6616  -29.1577   19.8850 C   0  0  0  0  0  0  0  0  0  0  0  0
  -27.2895  -34.7933   21.5369 C   0  0  0  0  0  0  0  0  0  0  0  0
  -25.3882  -28.3189   20.9749 C   0  0  0  0  0  0  0  0  0  0  0  0
  -29.9495  -20.5389   20.2059 C   0  0  0  0  0  0  0  0  0  0  0  0
  -29.0869  -18.3611   19.6141 C   0  0  0  0  0  0  0  0  0  0  0  0
  -21.9542   -9.0755   21.7761 C   0  0  0  0  0  0  0  0  0  0  0  0
  -26.9870  -26.7017   20.1156 C   0  0  0  0  0  0  0  0  0  0  0  0
  -21.4611   -7.1170   22.9775 C   0  0  0  0  0  0  0  0  0  0  0  0
  -22.3508   -4.7799   24.2141 C   0  0  0  0  0  0  0  0  0  0  0  0
  -20.9939   -5.8767   22.5429 C   0  0  0  0  0  0  0  0  0  0  0  0
  -24.8535  -11.5559   19.9487 C   0  0  0  0  0  0  0  0  0  0  0  0
  -25.9550  -12.8571   18.5600 C   0  0  0  0  0  0  0  0  0  0  0  0
  -29.0652  -22.5899   19.0837 C   0  0  0  0  0  0  0  0  0  0  0  0
  -27.9908  -23.3767   19.2507 C   0  0  0  0  0  0  0  0  0  0  0  0
  -23.7265  -12.1142   17.7053 C   0  0  0  0  0  0  0  0  0  0  0  0
  -25.4790  -31.5949   21.9173 C   0  0  0  0  0  0  0  0  0  0  0  0
  -22.5501  -30.3483   22.5417 C   0  0  0  0  0  0  0  0  0  0  0  0
  -20.4976  -27.6218   22.5221 C   0  0  0  0  0  0  0  0  0  0  0  0
  -29.8788  -16.2073   20.6534 C   0  0  0  0  0  0  0  0  0  0  0  0
  -26.0610  -36.5734   22.8835 C   0  0  0  0  0  0  0  0  0  0  0  0
  -24.9357  -30.4658   19.7296 C   0  0  0  0  0  0  0  0  0  0  0  0
  -24.3940  -28.7011   22.0398 C   0  0  0  0  0  0  0  0  0  0  0  0
  -25.2544  -35.4299   23.4934 C   0  0  0  0  0  0  0  0  0  0  0  0
  -30.1523  -12.7338   21.3865 C   0  0  0  0  0  0  0  0  0  0  0  0
  -26.1452  -34.2140   23.7280 C   0  0  0  0  0  0  0  0  0  0  0  0
  -28.7916  -12.1679   20.9736 C   0  0  0  0  0  0  0  0  0  0  0  0
  -30.0243  -14.1257   22.0028 C   0  0  0  0  0  0  0  0  0  0  0  0
  -27.9285  -14.5349   20.7743 C   0  0  0  0  0  0  0  0  0  0  0  0
  -26.7249  -33.6920   22.4078 C   0  0  1  0  0  0  0  0  0  0  0  0
  -24.3997  -31.0122   21.0493 C   0  0  1  0  0  0  0  0  0  0  0  0
  -28.0131  -13.1613   20.0889 C   0  0  2  0  0  0  0  0  0  0  0  0
  -30.8859  -21.3572   21.0355 C   0  0  0  0  0  0  0  0  0  0  0  0
  -18.1707  -26.9034   23.1276 C   0  0  0  0  0  0  0  0  0  0  0  0
  -23.3291  -30.3199   25.4917 C   0  0  0  0  0  0  0  0  0  0  0  0
  -21.4174  -28.7583   25.9097 C   0  0  0  0  0  0  0  0  0  0  0  0
  -20.9819  -31.0552   25.0396 C   0  0  0  0  0  0  0  0  0  0  0  0
  -19.8726  -26.8846   19.7248 C   0  0  0  0  0  0  0  0  0  0  0  0
  -28.0123  -24.8544   19.0237 C   0  0  0  0  0  0  0  0  0  1  0  0
  -22.0083  -29.3240   23.5094 C   0  0  1  0  0  0  0  0  0  0  0  0
  -19.0748  -27.4356   22.0267 C   0  0  2  0  0  0  0  0  0  0  0  0
  -21.9544  -29.8577   24.9687 C   0  0  0  0  0  0  0  0  0  0  0  0
  -25.9947  -11.8339   20.5846 N   0  0  0  0  0  0  0  0  0  0  0  0
  -26.6433  -12.6268   19.7147 N   0  0  0  0  0  0  0  0  0  0  0  0
  -23.7145  -29.9928   21.8464 N   0  0  0  0  0  0  0  0  0  0  0  0
  -29.2794  -15.0133   21.1071 N   0  0  0  0  0  0  0  0  0  0  0  0
  -26.4613  -13.6327   17.5779 N   0  0  0  0  0  0  0  0  0  0  0  0
  -22.5818  -11.3582   17.9925 N   0  0  0  0  0  0  0  0  0  0  0  0
  -29.0880  -16.9540   19.7807 N   0  0  0  0  0  0  0  0  0  0  0  0
  -25.7280  -32.9337   21.6828 N   0  0  0  0  0  0  0  0  0  0  0  0
  -20.7158  -28.9045   22.9784 N   0  0  0  0  0  0  0  0  0  0  0  0
  -19.0444  -26.4746   20.8880 N   0  3  0  0  0  0  0  0  0  0  0  0
  -23.8103  -12.7066   16.6028 O   0  0  0  0  0  0  0  0  0  0  0  0
  -26.0428  -30.8829   22.7400 O   0  0  0  0  0  0  0  0  0  0  0  0
  -21.9578  -31.4213   22.4025 O   0  0  0  0  0  0  0  0  0  0  0  0
  -21.3310  -26.7185   22.5092 O   0  0  0  0  0  0  0  0  0  0  0  0
  -31.0209  -16.5291   20.9911 O   0  0  0  0  0  0  0  0  0  0  0  0
  -21.0211   -8.2780   22.3642 O   0  0  0  0  0  0  0  0  0  0  0  0
  -27.6325  -25.5095   20.2332 O   0  0  0  0  0  0  0  0  0  1  0  0
  -22.7792   -3.6578   24.8069 F   0  0  0  0  0  0  0  0  0  0  0  0
  -20.1185   -5.8013   21.5310 F   0  0  0  0  0  0  0  0  0  0  0  0
  1  2  1  0  0  0  0
  1  6  2  0  0  0  0
  2  7  2  0  0  0  0
  3 10  2  0  0  0  0
  3 18  1  0  0  0  0
  4 11  1  0  0  0  0
  4 18  2  0  0  0  0
  5  9  2  0  0  0  0
  5 19  1  0  0  0  0
  6 21  1  0  0  0  0
  7 23  1  0  0  0  0
  8 12  2  0  0  0  0
  8 22  1  0  0  0  0
  9 26  1  0  0  0  0
 10 27  1  0  0  0  0
 11 27  2  0  0  0  0
 12 28  1  0  0  0  0
 13 14  2  0  0  0  0
 13 29  1  0  0  0  0
 14 30  1  0  0  0  0
 15 24  1  0  0  0  0
 15 28  2  0  0  0  0
 16 25  1  0  0  0  0
 16 26  2  0  0  0  0
 17 30  2  0  0  0  0
 17 31  1  0  0  0  0
 18 32  1  0  0  0  0
 19 25  2  0  0  0  0
 19 34  1  0  0  0  0
 20 32  1  0  0  0  0
 20 33  2  0  0  0  0
 20 36  1  0  0  0  0
 21 23  2  0  0  0  0
 21 41  1  0  0  0  0
 22 24  2  0  0  0  0
 22 42  1  0  0  0  0
 23 50  1  0  0  0  0
 24 43  1  0  0  0  0
 25 53  1  0  0  0  0
 26 69  1  0  0  0  0
 27 78  1  0  0  0  0
 28 79  1  0  0  0  0
 29 31  2  0  0  0  0
 29 78  1  0  0  0  0
 30 80  1  0  0  0  0
 31 81  1  0  0  0  0
 32 63  2  0  0  0  0
 33 64  1  0  0  0  0
 33 67  1  0  0  0  0
 34 35  2  0  0  0  0
 35 59  1  0  0  0  0
 36 68  1  0  0  0  0
 36 73  2  0  0  0  0
 37 51  1  0  0  0  0
 37 70  1  0  0  0  0
 37 74  2  0  0  0  0
 38 60  1  0  0  0  0
 38 65  1  0  0  0  0
 38 75  2  0  0  0  0
 39 61  1  0  0  0  0
 39 71  1  0  0  0  0
 39 76  2  0  0  0  0
 40 66  1  0  0  0  0
 40 69  1  0  0  0  0
 40 77  2  0  0  0  0
 41 44  1  0  0  0  0
 42 51  1  0  0  0  0
 43 65  1  0  0  0  0
 44 46  1  0  0  0  0
 45 47  1  0  0  0  0
 45 48  1  0  0  0  0
 46 50  1  0  0  0  0
 47 52  1  0  0  0  0
 48 66  1  0  0  0  0
 49 52  1  0  0  0  0
 49 66  1  0  0  0  0
 50 70  1  0  0  0  0
 51 65  1  0  0  0  0
 52 64  1  0  0  0  0
 54 61  1  0  0  0  0
 55 62  1  0  0  0  0
 56 62  1  0  0  0  0
 57 62  1  0  0  0  0
 58 72  1  0  0  0  0
 59 79  1  0  0  0  0
 60 62  1  0  0  0  0
 60 71  1  0  0  0  0
 61 72  1  0  0  0  0
 63 64  1  0  0  0  0
M  CHG  1  72   1
M  ISO  4  40 100  59 101  69 100  79 101
M  END
> <Batch ID>
0118

> <Smiles>
CNC(C)C(=O)NC(C(=O)N1Cc2cc([101O:1][101CH2:1]C=Cc3ccc([100NH:0][100C:0](=O)N4CCCC(n5nc(-c6ccc(Oc7ccc(F)cc7F)cc6)c(C(N)=O)c5N)C4)cc3C)ccc2CC1C(=O)NC1CCCc2ccccc21)C(C)(C)C

> <Shape>
0.342

> <Color>
0.091

> <Negative vol penalty>
0.000

$$$$

  -OEChem-04052301483D

 84 92  0     1  0  0  0  0  0999 V2000
  -21.6347  -32.4011   13.4181 C   0  0  0  0  0  0  0  0  0  0  0  0
  -22.3495  -31.3613   14.0041 C   0  0  0  0  0  0  0  0  0  0  0  0
  -24.3264   -8.8354   21.3810 C   0  0  0  0  0  0  0  0  0  0  0  0
  -24.7752  -10.0912   23.3957 C   0  0  0  0  0  0  0  0  0  0  0  0
  -21.9157  -33.7216   13.7662 C   0  0  0  0  0  0  0  0  0  0  0  0
  -23.3466  -31.6416   14.9378 C   0  0  0  0  0  0  0  0  0  0  0  0
  -24.8372  -28.2985   19.8477 C   0  0  0  0  0  0  0  0  0  0  0  0
  -29.9074  -20.2537   20.6450 C   0  0  0  0  0  0  0  0  0  0  0  0
  -29.7776  -18.9236   20.2457 C   0  0  0  0  0  0  0  0  0  0  0  0
  -24.0501   -7.7036   22.1480 C   0  0  0  0  0  0  0  0  0  0  0  0
  -24.4988   -8.9594   24.1627 C   0  0  0  0  0  0  0  0  0  0  0  0
  -25.8473  -27.3649   20.0754 C   0  0  0  0  0  0  0  0  0  0  0  0
  -22.8758   -4.5813   23.5929 C   0  0  0  0  0  0  0  0  0  0  0  0
  -21.7456   -3.8339   23.2621 C   0  0  0  0  0  0  0  0  0  0  0  0
  -27.2124  -29.0915   21.0624 C   0  0  0  0  0  0  0  0  0  0  0  0
  -27.5181  -20.3871   20.9774 C   0  0  0  0  0  0  0  0  0  0  0  0
  -20.3504   -5.7646   23.6658 C   0  0  0  0  0  0  0  0  0  0  0  0
  -24.6890  -10.0292   22.0048 C   0  0  0  0  0  0  0  0  0  0  0  0
  -24.0640  -12.1886   20.7991 C   0  0  0  0  0  0  0  0  0  0  0  0
  -22.9101  -34.0177   14.7118 C   0  0  0  0  0  0  0  0  0  0  0  0
  -25.0117  -29.6401   20.2165 C   0  0  0  0  0  0  0  0  0  0  0  0
  -23.6421  -32.9674   15.2978 C   0  0  0  0  0  0  0  0  0  0  0  0
  -26.2020  -30.0396   20.8407 C   0  0  0  0  0  0  0  0  0  0  0  0
  -27.3883  -19.0570   20.5781 C   0  0  0  0  0  0  0  0  0  0  0  0
  -28.7776  -20.9855   21.0109 C   0  0  0  0  0  0  0  0  0  0  0  0
  -28.5181  -18.3252   20.2122 C   0  0  0  0  0  0  0  0  0  0  0  0
  -24.1363   -7.7656   23.5389 C   0  0  0  0  0  0  0  0  0  0  0  0
  -27.0363  -27.7619   20.6802 C   0  0  0  0  0  0  0  0  0  0  0  0
  -22.7433   -5.9205   23.9602 C   0  0  0  0  0  0  0  0  0  0  0  0
  -20.4829   -4.4255   23.2985 C   0  0  0  0  0  0  0  0  0  0  0  0
  -21.4807   -6.5121   23.9967 C   0  0  0  0  0  0  0  0  0  0  0  0
  -24.9751  -11.1985   21.2131 C   0  0  0  0  0  0  0  0  0  0  0  0
  -24.8252  -13.0756   20.0777 C   0  0  0  0  0  0  0  0  0  0  0  0
  -28.8260  -23.1984   20.4698 C   0  0  0  0  0  0  0  0  0  0  0  0
  -22.6556  -12.2970   21.0447 C   0  0  0  0  0  0  0  0  0  0  0  0
  -28.9594  -24.6438   20.8242 C   0  0  0  0  0  0  0  0  0  0  0  0
  -25.0907  -32.4049   18.6502 C   0  0  0  0  0  0  0  0  0  0  0  0
  -25.2265  -33.6499   21.6425 C   0  0  0  0  0  0  0  0  0  0  0  0
  -26.0251  -33.2078   24.9309 C   0  0  0  0  0  0  0  0  0  0  0  0
  -29.4400  -16.1200   19.4162 C   0  0  0  0  0  0  0  0  0  0  0  0
  -23.2105  -35.4630   15.0210 C   0  0  0  0  0  0  0  0  0  0  0  0
  -23.9020  -30.6295   19.9884 C   0  0  0  0  0  0  0  0  0  0  0  0
  -26.4310  -31.4638   21.2740 C   0  0  0  0  0  0  0  0  0  0  0  0
  -24.0262  -35.6561   16.2968 C   0  0  0  0  0  0  0  0  0  0  0  0
  -29.5810  -12.7160   18.3820 C   0  0  0  0  0  0  0  0  0  0  0  0
  -25.2011  -34.6839   16.3315 C   0  0  0  0  0  0  0  0  0  0  0  0
  -28.3203  -12.0992   18.9923 C   0  0  0  0  0  0  0  0  0  0  0  0
  -30.2067  -13.7589   19.3064 C   0  0  0  0  0  0  0  0  0  0  0  0
  -28.0303  -14.1944   20.3754 C   0  0  0  0  0  0  0  0  0  0  0  0
  -24.7142  -33.2299   16.3332 C   0  0  1  0  0  0  0  0  0  0  0  0
  -24.3903  -32.0739   19.9376 C   0  0  1  0  0  0  0  0  0  0  0  0
  -27.3279  -13.1848   19.4528 C   0  0  2  0  0  0  0  0  0  0  0  0
  -25.4666  -18.3363   19.1379 C   0  0  0  0  0  0  0  0  0  0  0  0
  -26.0613  -34.4177   27.1291 C   0  0  0  0  0  0  0  0  0  0  0  0
  -27.7202  -35.1713   20.7612 C   0  0  0  0  0  0  0  0  0  0  0  0
  -28.2385  -35.5816   23.1760 C   0  0  0  0  0  0  0  0  0  0  0  0
  -26.1400  -36.4915   22.1804 C   0  0  0  0  0  0  0  0  0  0  0  0
  -24.1313  -31.2882   26.1507 C   0  0  0  0  0  0  0  0  0  0  0  0
  -26.0268  -18.4412   20.5527 C   0  0  0  0  0  0  0  0  0  0  0  0
  -27.7750  -25.5092   20.4916 C   0  0  0  0  0  0  0  0  0  1  0  0
  -26.3355  -34.0064   22.6027 C   0  0  1  0  0  0  0  0  0  0  0  0
  -25.2581  -33.5167   26.2040 C   0  0  2  0  0  0  0  0  0  0  0  0
  -27.1053  -35.2862   22.1703 C   0  0  0  0  0  0  0  0  0  0  0  0
  -26.2199  -11.4338   20.7897 N   0  0  0  0  0  0  0  0  0  0  0  0
  -28.9086  -22.3254   21.4128 N   0  0  0  0  0  0  0  0  0  0  0  0
  -26.0963  -12.5818   20.1021 N   0  0  0  0  0  0  0  0  0  0  0  0
  -25.3186  -32.3952   21.0236 N   0  0  0  0  0  0  0  0  0  0  0  0
  -29.2091  -14.7570   19.6980 N   0  0  0  0  0  0  0  0  0  0  0  0
  -24.5245  -14.2218   19.4310 N   0  0  0  0  0  0  0  0  0  0  0  0
  -22.0313  -11.2988   21.8051 N   0  0  0  0  0  0  0  0  0  0  0  0
  -28.4073  -16.9724   19.8056 N   0  0  0  0  0  0  0  0  0  0  0  0
  -24.2486  -32.8542   17.6510 N   0  0  0  0  0  0  0  0  0  0  0  0
  -25.7196  -34.0968   23.9222 N   0  0  0  0  0  0  0  0  0  0  0  0
  -24.9389  -32.2577   26.9348 N   0  3  0  0  0  0  0  0  0  0  0  0
  -21.9680  -13.2421   20.5892 O   0  0  0  0  0  0  0  0  0  0  0  0
  -29.9918  -25.0144   21.3602 O   0  0  0  0  0  0  0  0  0  0  0  0
  -26.3054  -32.2646   18.5698 O   0  0  0  0  0  0  0  0  0  0  0  0
  -24.3086  -34.4521   21.4540 O   0  0  0  0  0  0  0  0  0  0  0  0
  -26.8188  -32.2737   24.8414 O   0  0  0  0  0  0  0  0  0  0  0  0
  -30.4655  -16.5000   18.8451 O   0  0  0  0  0  0  0  0  0  0  0  0
  -23.8665   -6.6615   24.2876 O   0  0  0  0  0  0  0  0  0  0  0  0
  -28.0241  -26.8527   20.9029 O   0  0  0  0  0  0  0  0  0  1  0  0
  -19.3978   -3.7080   22.9793 F   0  0  0  0  0  0  0  0  0  0  0  0
  -21.3473   -7.7985   24.3477 F   0  0  0  0  0  0  0  0  0  0  0  0
  1  2  1  0  0  0  0
  1  5  2  0  0  0  0
  2  6  2  0  0  0  0
  3 10  2  0  0  0  0
  3 18  1  0  0  0  0
  4 11  1  0  0  0  0
  4 18  2  0  0  0  0
  5 20  1  0  0  0  0
  6 22  1  0  0  0  0
  7 12  2  0  0  0  0
  7 21  1  0  0  0  0
  8  9  2  0  0  0  0
  8 25  1  0  0  0  0
  9 26  1  0  0  0  0
 10 27  1  0  0  0  0
 11 27  2  0  0  0  0
 12 28  1  0  0  0  0
 13 14  2  0  0  0  0
 13 29  1  0  0  0  0
 14 30  1  0  0  0  0
 15 23  1  0  0  0  0
 15 28  2  0  0  0  0
 16 24  1  0  0  0  0
 16 25  2  0  0  0  0
 17 30  2  0  0  0  0
 17 31  1  0  0  0  0
 18 32  1  0  0  0  0
 19 32  1  0  0  0  0
 19 33  2  0  0  0  0
 19 35  1  0  0  0  0
 20 22  2  0  0  0  0
 20 41  1  0  0  0  0
 21 23  2  0  0  0  0
 21 42  1  0  0  0  0
 22 50  1  0  0  0  0
 23 43  1  0  0  0  0
 24 26  2  0  0  0  0
 24 59  1  0  0  0  0
 25 65  1  0  0  0  0
 26 71  1  0  0  0  0
 27 81  1  0  0  0  0
 28 82  1  0  0  0  0
 29 31  2  0  0  0  0
 29 81  1  0  0  0  0
 30 83  1  0  0  0  0
 31 84  1  0  0  0  0
 32 64  2  0  0  0  0
 33 66  1  0  0  0  0
 33 69  1  0  0  0  0
 34 36  1  0  0  0  0
 34 65  2  0  0  0  0
 35 70  1  0  0  0  0
 35 75  2  0  0  0  0
 36 60  1  0  0  0  0
 36 76  2  0  0  0  0
 37 51  1  0  0  0  0
 37 72  1  0  0  0  0
 37 77  2  0  0  0  0
 38 61  1  0  0  0  0
 38 67  1  0  0  0  0
 38 78  2  0  0  0  0
 39 62  1  0  0  0  0
 39 73  1  0  0  0  0
 39 79  2  0  0  0  0
 40 68  1  0  0  0  0
 40 71  1  0  0  0  0
 40 80  2  0  0  0  0
 41 44  1  0  0  0  0
 42 51  1  0  0  0  0
 43 67  1  0  0  0  0
 44 46  1  0  0  0  0
 45 47  1  0  0  0  0
 45 48  1  0  0  0  0
 46 50  1  0  0  0  0
 47 52  1  0  0  0  0
 48 68  1  0  0  0  0
 49 52  1  0  0  0  0
 49 68  1  0  0  0  0
 50 72  1  0  0  0  0
 51 67  1  0  0  0  0
 52 66  1  0  0  0  0
 53 59  1  0  0  0  0
 54 62  1  0  0  0  0
 55 63  1  0  0  0  0
 56 63  1  0  0  0  0
 57 63  1  0  0  0  0
 58 74  1  0  0  0  0
 60 82  1  0  0  0  0
 61 63  1  0  0  0  0
 61 73  1  0  0  0  0
 62 74  1  0  0  0  0
 64 66  1  0  0  0  0
M  CHG  1  74   1
M  ISO  4  40 100  60 101  71 100  82 101
M  END
> <Batch ID>
0118

> <Smiles>
C=Cc1cc(NCC(=O)[101CH2:1][101O:1]c2ccc3c(c2)CN(C(=O)C(NC(=O)C(C)NC)C(C)(C)C)C(C(=O)NC2CCCc4ccccc42)C3)ccc1[100NH:0][100C:0](=O)N1CCCC(n2nc(-c3ccc(Oc4ccc(F)cc4F)cc3)c(C(N)=O)c2N)C1

> <Shape>
0.303

> <Color>
0.115

> <Negative vol penalty>
0.000

$$$$

  -OEChem-04052301483D

 88 97  0     1  0  0  0  0  0999 V2000
  -20.7427  -28.6738   14.8410 C   0  0  0  0  0  0  0  0  0  0  0  0
  -21.7197  -28.0921   15.6425 C   0  0  0  0  0  0  0  0  0  0  0  0
  -23.3657   -9.6674   21.0901 C   0  0  0  0  0  0  0  0  0  0  0  0
  -23.9604  -10.5290   23.2674 C   0  0  0  0  0  0  0  0  0  0  0  0
  -20.7178  -30.0570   14.6672 C   0  0  0  0  0  0  0  0  0  0  0  0
  -22.6732  -28.8932   16.2698 C   0  0  0  0  0  0  0  0  0  0  0  0
  -23.4151  -27.6015   21.1099 C   0  0  0  0  0  0  0  0  0  0  0  0
  -22.6973   -8.6024   21.6940 C   0  0  0  0  0  0  0  0  0  0  0  0
  -23.2920   -9.4640   23.8714 C   0  0  0  0  0  0  0  0  0  0  0  0
  -24.2062  -26.4801   21.3555 C   0  0  0  0  0  0  0  0  0  0  0  0
  -19.7250   -8.0676   23.2146 C   0  0  0  0  0  0  0  0  0  0  0  0
  -18.4628   -7.7328   22.7245 C   0  0  0  0  0  0  0  0  0  0  0  0
  -31.1396  -19.9088   22.4909 C   0  0  0  0  0  0  0  0  0  0  0  0
  -31.6012  -17.7291   21.5568 C   0  0  0  0  0  0  0  0  0  0  0  0
  -26.0831  -27.9170   21.8368 C   0  0  0  0  0  0  0  0  0  0  0  0
  -29.3218  -18.5114   21.7293 C   0  0  0  0  0  0  0  0  0  0  0  0
  -19.2619   -5.5191   22.1787 C   0  0  0  0  0  0  0  0  0  0  0  0
  -23.9973  -10.6307   21.8768 C   0  0  0  0  0  0  0  0  0  0  0  0
  -32.0532  -18.9215   22.1220 C   0  0  0  0  0  0  0  0  0  0  0  0
  -24.1508  -12.9841   20.9046 C   0  0  0  0  0  0  0  0  0  0  0  0
  -21.6656  -30.8763   15.3005 C   0  0  0  0  0  0  0  0  0  0  0  0
  -23.9559  -28.8910   21.2154 C   0  0  0  0  0  0  0  0  0  0  0  0
  -22.6618  -30.2884   16.1032 C   0  0  0  0  0  0  0  0  0  0  0  0
  -25.2961  -29.0532   21.5944 C   0  0  0  0  0  0  0  0  0  0  0  0
  -29.7739  -19.7038   22.2946 C   0  0  0  0  0  0  0  0  0  0  0  0
  -30.2355  -17.5240   21.3604 C   0  0  0  0  0  0  0  0  0  0  0  0
  -22.6605   -8.5008   23.0846 C   0  0  0  0  0  0  0  0  0  0  0  0
  -25.5411  -26.6376   21.7162 C   0  0  0  0  0  0  0  0  0  0  0  0
  -20.7558   -7.1282   23.1867 C   0  0  0  0  0  0  0  0  0  0  0  0
  -18.2312   -6.4586   22.2066 C   0  0  0  0  0  0  0  0  0  0  0  0
  -20.5242   -5.8539   22.6687 C   0  0  0  0  0  0  0  0  0  0  0  0
  -24.6883  -11.7307   21.2535 C   0  0  0  0  0  0  0  0  0  0  0  0
  -25.2046  -13.6666   20.3476 C   0  0  0  0  0  0  0  0  0  0  0  0
  -27.7885  -23.9261   21.0262 C   0  0  0  0  0  0  0  0  0  0  0  0
  -26.9996  -24.9980   20.9065 C   0  0  0  0  0  0  0  0  0  1  0  0
  -33.4772  -19.1354   22.3269 C   0  0  0  0  0  0  0  0  0  0  0  0
  -22.8181  -13.4867   21.0692 C   0  0  0  0  0  0  0  0  0  0  0  0
  -24.3977  -31.3099   19.2011 C   0  0  0  0  0  0  0  0  0  0  0  0
  -25.3347  -32.8664   21.8883 C   0  0  0  0  0  0  0  0  0  0  0  0
  -26.5683  -32.6776   25.0647 C   0  0  0  0  0  0  0  0  0  0  0  0
  -30.5482  -15.2316   20.3638 C   0  0  0  0  0  0  0  0  0  0  0  0
  -21.6273  -32.3621   15.0447 C   0  0  0  0  0  0  0  0  0  0  0  0
  -23.0822  -30.0912   20.9732 C   0  0  0  0  0  0  0  0  0  0  0  0
  -25.9193  -30.4165   21.7413 C   0  0  0  0  0  0  0  0  0  0  0  0
  -28.5610  -23.2850   19.9120 C   0  0  0  0  0  0  0  0  0  0  0  0
  -27.9911  -23.1419   22.2835 C   0  0  0  0  0  0  0  0  0  0  0  0
  -22.4461  -33.1737   16.0452 C   0  0  0  0  0  0  0  0  0  0  0  0
  -29.7918  -12.0595   18.9345 C   0  0  0  0  0  0  0  0  0  0  0  0
  -23.8203  -32.5430   16.2467 C   0  0  0  0  0  0  0  0  0  0  0  0
  -28.3524  -11.7943   19.3817 C   0  0  0  0  0  0  0  0  0  0  0  0
  -30.6002  -12.7714   20.0177 C   0  0  0  0  0  0  0  0  0  0  0  0
  -28.5511  -13.7356   20.9876 C   0  0  0  0  0  0  0  0  0  0  0  0
  -28.7999  -21.8680   20.4163 C   0  0  0  0  0  0  0  0  0  0  0  0
  -23.6983  -31.1261   16.8203 C   0  0  1  0  0  0  0  0  0  0  0  0
  -23.8743  -31.3431   20.6091 C   0  0  1  0  0  0  0  0  0  0  0  0
  -27.6793  -13.0782   19.9052 C   0  0  2  0  0  0  0  0  0  0  0  0
  -33.9823  -20.5475   22.2636 C   0  0  0  0  0  0  0  0  0  0  0  0
  -28.8624  -21.1228   24.1783 C   0  0  0  0  0  0  0  0  0  0  0  0
  -27.2641  -34.1201   26.9967 C   0  0  0  0  0  0  0  0  0  0  0  0
  -27.9202  -33.5699   20.4288 C   0  0  0  0  0  0  0  0  0  0  0  0
  -28.9305  -34.1525   22.6443 C   0  0  0  0  0  0  0  0  0  0  0  0
  -26.9586  -35.4264   21.8010 C   0  0  0  0  0  0  0  0  0  0  0  0
  -24.5241  -31.4848   26.8417 C   0  0  0  0  0  0  0  0  0  0  0  0
  -28.7838  -20.7733   22.6943 C   0  0  1  0  0  0  0  0  0  0  0  0
  -26.6455  -33.0530   22.6137 C   0  0  1  0  0  0  0  0  0  0  0  0
  -26.1265  -33.3388   26.3579 C   0  0  2  0  0  0  0  0  0  0  0  0
  -27.6028  -34.0246   21.8674 C   0  0  0  0  0  0  0  0  0  0  0  0
  -25.9830  -11.6206   20.9440 N   0  0  0  0  0  0  0  0  0  0  0  0
  -26.2678  -12.8136   20.3946 N   0  0  0  0  0  0  0  0  0  0  0  0
  -25.0258  -31.5588   21.4876 N   0  0  0  0  0  0  0  0  0  0  0  0
  -29.9033  -13.9805   20.4620 N   0  0  0  0  0  0  0  0  0  0  0  0
  -25.3163  -14.9072   19.8270 N   0  0  0  0  0  0  0  0  0  0  0  0
  -21.8583  -12.6537   21.6602 N   0  0  0  0  0  0  0  0  0  0  0  0
  -29.7757  -16.3131   20.7859 N   0  0  0  0  0  0  0  0  0  0  0  0
  -23.4150  -31.1777   18.2386 N   0  0  0  0  0  0  0  0  0  0  0  0
  -26.3058  -33.4725   23.9691 N   0  0  0  0  0  0  0  0  0  0  0  0
  -28.9499  -22.0333   21.9118 N   0  3  2  0  0  0  0  0  0  0  0  0
  -25.6572  -32.3119   27.3306 N   0  3  0  0  0  0  0  0  0  0  0  0
  -34.3013  -18.2445   22.5438 O   0  0  0  0  0  0  0  0  0  0  0  0
  -22.4842  -14.6342   20.6883 O   0  0  0  0  0  0  0  0  0  0  0  0
  -25.6036  -31.3991   19.0024 O   0  0  0  0  0  0  0  0  0  0  0  0
  -24.6083  -33.8436   21.6910 O   0  0  0  0  0  0  0  0  0  0  0  0
  -27.0970  -31.5686   25.0304 O   0  0  0  0  0  0  0  0  0  0  0  0
  -31.6908  -15.3390   19.9112 O   0  0  0  0  0  0  0  0  0  0  0  0
  -22.0082   -7.4618   23.6743 O   0  0  0  0  0  0  0  0  0  0  0  0
  -26.3157  -25.5446   21.9559 O   0  0  0  0  0  0  0  0  0  1  0  0
  -17.0186   -6.1367   21.7374 F   0  0  0  0  0  0  0  0  0  0  0  0
  -21.5102   -4.9468   22.6403 F   0  0  0  0  0  0  0  0  0  0  0  0
  1  2  1  0  0  0  0
  1  5  2  0  0  0  0
  2  6  2  0  0  0  0
  3  8  2  0  0  0  0
  3 18  1  0  0  0  0
  4  9  1  0  0  0  0
  4 18  2  0  0  0  0
  5 21  1  0  0  0  0
  6 23  1  0  0  0  0
  7 10  2  0  0  0  0
  7 22  1  0  0  0  0
  8 27  1  0  0  0  0
  9 27  2  0  0  0  0
 10 28  1  0  0  0  0
 11 12  2  0  0  0  0
 11 29  1  0  0  0  0
 12 30  1  0  0  0  0
 13 19  1  0  0  0  0
 13 25  2  0  0  0  0
 14 19  2  0  0  0  0
 14 26  1  0  0  0  0
 15 24  1  0  0  0  0
 15 28  2  0  0  0  0
 16 25  1  0  0  0  0
 16 26  2  0  0  0  0
 17 30  2  0  0  0  0
 17 31  1  0  0  0  0
 18 32  1  0  0  0  0
 19 36  1  0  0  0  0
 20 32  1  0  0  0  0
 20 33  2  0  0  0  0
 20 37  1  0  0  0  0
 21 23  2  0  0  0  0
 21 42  1  0  0  0  0
 22 24  2  0  0  0  0
 22 43  1  0  0  0  0
 23 54  1  0  0  0  0
 24 44  1  0  0  0  0
 25 64  1  0  0  0  0
 26 74  1  0  0  0  0
 27 85  1  0  0  0  0
 28 86  1  0  0  0  0
 29 31  2  0  0  0  0
 29 85  1  0  0  0  0
 30 87  1  0  0  0  0
 31 88  1  0  0  0  0
 32 68  2  0  0  0  0
 33 69  1  0  0  0  0
 33 72  1  0  0  0  0
 34 35  2  0  0  0  0
 34 45  1  0  0  0  0
 34 46  1  0  0  0  0
 35 86  1  0  0  0  0
 36 57  1  0  0  0  0
 36 79  2  0  0  0  0
 37 73  1  0  0  0  0
 37 80  2  0  0  0  0
 38 55  1  0  0  0  0
 38 75  1  0  0  0  0
 38 81  2  0  0  0  0
 39 65  1  0  0  0  0
 39 70  1  0  0  0  0
 39 82  2  0  0  0  0
 40 66  1  0  0  0  0
 40 76  1  0  0  0  0
 40 83  2  0  0  0  0
 41 71  1  0  0  0  0
 41 74  1  0  0  0  0
 41 84  2  0  0  0  0
 42 47  1  0  0  0  0
 43 55  1  0  0  0  0
 44 70  1  0  0  0  0
 45 53  1  0  0  0  0
 46 77  1  0  0  0  0
 47 49  1  0  0  0  0
 48 50  1  0  0  0  0
 48 51  1  0  0  0  0
 49 54  1  0  0  0  0
 50 56  1  0  0  0  0
 51 71  1  0  0  0  0
 52 56  1  0  0  0  0
 52 71  1  0  0  0  0
 53 77  1  0  0  0  0
 54 75  1  0  0  0  0
 55 70  1  0  0  0  0
 56 69  1  0  0  0  0
 58 64  1  0  0  0  0
 59 66  1  0  0  0  0
 60 67  1  0  0  0  0
 61 67  1  0  0  0  0
 62 67  1  0  0  0  0
 63 78  1  0  0  0  0
 64 77  1  0  0  0  0
 65 67  1  0  0  0  0
 65 76  1  0  0  0  0
 66 78  1  0  0  0  0
 68 69  1  0  0  0  0
M  CHG  2  77   1  78   1
M  ISO  4  35 101  41 100  74 100  86 101
M  END
> <Batch ID>
0118

> <Smiles>
CNC(C)C(=O)NC(C(=O)N1Cc2cc([101O:1][101CH:1]=C3CCN(C(C)c4cc([100NH:0][100C:0](=O)N5CCCC(n6nc(-c7ccc(Oc8ccc(F)cc8F)cc7)c(C(N)=O)c6N)C5)cc(C(C)=O)c4)C3)ccc2CC1C(=O)NC1CCCc2ccccc21)C(C)(C)C

> <Shape>
0.277

> <Color>
0.160

> <Negative vol penalty>
0.000

$$$$

  -OEChem-04052301483D

 84 92  0     1  0  0  0  0  0999 V2000
  -27.8436  -31.3832   21.1155 C   0  0  0  0  0  0  0  0  0  0  0  0
  -28.2846  -30.6089   22.1839 C   0  0  0  0  0  0  0  0  0  0  0  0
  -23.9675   -9.8183   22.1374 C   0  0  0  0  0  0  0  0  0  0  0  0
  -24.4393  -11.2861   23.9975 C   0  0  0  0  0  0  0  0  0  0  0  0
  -27.0683  -30.8058   20.1108 C   0  0  0  0  0  0  0  0  0  0  0  0
  -27.9496  -29.2569   22.2487 C   0  0  0  0  0  0  0  0  0  0  0  0
  -31.3985  -24.7123   24.4753 C   0  0  0  0  0  0  0  0  0  0  0  0
  -23.5091   -8.8431   23.0232 C   0  0  0  0  0  0  0  0  0  0  0  0
  -23.9808  -10.3110   24.8833 C   0  0  0  0  0  0  0  0  0  0  0  0
  -31.4093  -24.0602   25.7075 C   0  0  0  0  0  0  0  0  0  0  0  0
  -25.1458   -7.4525   26.2627 C   0  0  0  0  0  0  0  0  0  0  0  0
  -25.9112   -7.1995   27.4010 C   0  0  0  0  0  0  0  0  0  0  0  0
  -33.1729  -16.5199   24.8881 C   0  0  0  0  0  0  0  0  0  0  0  0
  -30.9415  -16.1734   24.0293 C   0  0  0  0  0  0  0  0  0  0  0  0
  -30.0226  -22.3134   24.7884 C   0  0  0  0  0  0  0  0  0  0  0  0
  -32.8561  -15.4546   22.7429 C   0  0  0  0  0  0  0  0  0  0  0  0
  -24.0391   -7.8181   28.7973 C   0  0  0  0  0  0  0  0  0  0  0  0
  -24.4327  -11.0397   22.6246 C   0  0  0  0  0  0  0  0  0  0  0  0
  -31.7910  -16.6440   25.0306 C   0  0  0  0  0  0  0  0  0  0  0  0
  -24.1500  -13.0649   21.0993 C   0  0  0  0  0  0  0  0  0  0  0  0
  -26.7318  -29.4437   20.1584 C   0  0  0  0  0  0  0  0  0  0  0  0
  -30.6895  -24.1745   23.3915 C   0  0  0  0  0  0  0  0  0  0  0  0
  -27.1680  -28.6610   21.2444 C   0  0  0  0  0  0  0  0  0  0  0  0
  -30.0065  -22.9593   23.5427 C   0  0  0  0  0  0  0  0  0  0  0  0
  -33.7055  -15.9253   23.7442 C   0  0  0  0  0  0  0  0  0  0  0  0
  -31.4741  -15.5787   22.8854 C   0  0  0  0  0  0  0  0  0  0  0  0
  -23.5157   -9.0895   24.3961 C   0  0  0  0  0  0  0  0  0  0  0  0
  -30.7189  -22.8620   25.8650 C   0  0  0  0  0  0  0  0  0  0  0  0
  -23.8270   -7.8883   26.3917 C   0  0  0  0  0  0  0  0  0  0  0  0
  -25.3579   -7.3823   28.6683 C   0  0  0  0  0  0  0  0  0  0  0  0
  -23.2737   -8.0711   27.6590 C   0  0  0  0  0  0  0  0  0  0  0  0
  -24.9069  -12.0472   21.7102 C   0  0  0  0  0  0  0  0  0  0  0  0
  -25.0563  -13.7515   20.3288 C   0  0  0  0  0  0  0  0  0  0  0  0
  -31.2282  -17.2722   26.2376 C   0  0  0  0  0  0  0  0  0  0  0  0
  -31.8963  -18.0855   27.0706 C   0  0  0  0  0  0  0  0  0  0  0  0
  -22.7526  -13.3630   21.2179 C   0  0  0  0  0  0  0  0  0  0  0  0
  -28.2446  -25.1450   21.6071 C   0  0  0  0  0  0  0  0  0  0  0  0
  -28.9290  -22.4692   19.9058 C   0  0  0  0  0  0  0  0  0  0  0  0
  -30.3200  -19.3535   19.8417 C   0  0  0  0  0  0  0  0  0  0  0  0
  -30.9764  -14.4865   20.6705 C   0  0  0  0  0  0  0  0  0  0  0  0
  -25.8520  -28.8750   19.0734 C   0  0  0  0  0  0  0  0  0  0  0  0
  -30.7098  -24.8765   22.0614 C   0  0  0  0  0  0  0  0  0  0  0  0
  -29.2468  -22.3297   22.4048 C   0  0  0  0  0  0  0  0  0  0  0  0
  -25.8551  -27.3493   19.0239 C   0  0  0  0  0  0  0  0  0  0  0  0
  -29.1530  -13.1380   17.9257 C   0  0  0  0  0  0  0  0  0  0  0  0
  -25.6863  -26.7694   20.4246 C   0  0  0  0  0  0  0  0  0  0  0  0
  -27.7863  -12.8035   18.5277 C   0  0  0  0  0  0  0  0  0  0  0  0
  -30.2881  -12.8708   18.9125 C   0  0  0  0  0  0  0  0  0  0  0  0
  -28.7676  -13.1779   20.8263 C   0  0  0  0  0  0  0  0  0  0  0  0
  -26.8462  -27.1852   21.3373 C   0  0  1  0  0  0  0  0  0  0  0  0
  -29.5301  -24.5016   21.1698 C   0  0  1  0  0  0  0  0  0  0  0  0
  -27.5877  -13.4922   19.8922 C   0  0  2  0  0  0  0  0  0  0  0  0
  -35.8058  -17.0024   22.8984 C   0  0  0  0  0  0  0  0  0  0  0  0
  -30.6914  -17.3929   18.3199 C   0  0  0  0  0  0  0  0  0  0  0  0
  -26.0043  -21.6638   20.2337 C   0  0  0  0  0  0  0  0  0  0  0  0
  -26.6413  -19.3388   19.5577 C   0  0  0  0  0  0  0  0  0  0  0  0
  -26.9574  -21.2304   17.9625 C   0  0  0  0  0  0  0  0  0  0  0  0
  -33.2616  -19.5876   20.0673 C   0  0  0  0  0  0  0  0  0  0  0  0
  -35.1832  -15.7929   23.5910 C   0  0  0  0  0  0  0  0  0  0  0  0
  -31.2780  -18.7081   28.2903 C   0  0  0  0  0  0  0  0  0  0  0  0
  -31.3702  -20.2321   28.2412 C   0  0  0  0  0  0  0  0  0  0  0  0
  -30.6157  -20.8012   27.0476 C   0  0  0  0  0  0  0  0  0  1  0  0
  -28.4913  -21.0255   19.9619 C   0  0  1  0  0  0  0  0  0  0  0  0
  -31.2681  -18.6937   18.8567 C   0  0  2  0  0  0  0  0  0  0  0  0
  -27.0362  -20.8272   19.4511 C   0  0  0  0  0  0  0  0  0  0  0  0
  -26.1949  -12.0805   21.3579 N   0  0  0  0  0  0  0  0  0  0  0  0
  -26.2543  -13.1274   20.5173 N   0  0  0  0  0  0  0  0  0  0  0  0
  -29.2914  -23.0575   21.1258 N   0  0  0  0  0  0  0  0  0  0  0  0
  -30.0337  -13.5581   20.1804 N   0  0  0  0  0  0  0  0  0  0  0  0
  -24.9373  -14.8220   19.5151 N   0  0  0  0  0  0  0  0  0  0  0  0
  -21.9660  -12.5572   22.0523 N   0  0  0  0  0  0  0  0  0  0  0  0
  -30.6114  -15.1015   21.8676 N   0  0  0  0  0  0  0  0  0  0  0  0
  -28.0224  -26.3913   21.0533 N   0  0  0  0  0  0  0  0  0  0  0  0
  -29.4931  -20.2662   19.2216 N   0  0  0  0  0  0  0  0  0  0  0  0
  -32.5716  -18.3940   19.5139 N   0  3  0  0  0  0  0  0  0  0  0  0
  -22.2141  -14.3057   20.5894 O   0  0  0  0  0  0  0  0  0  0  0  0
  -27.5080  -24.5537   22.3878 O   0  0  0  0  0  0  0  0  0  0  0  0
  -28.9554  -23.0514   18.8186 O   0  0  0  0  0  0  0  0  0  0  0  0
  -30.3110  -19.0833   21.0406 O   0  0  0  0  0  0  0  0  0  0  0  0
  -32.0173  -14.7391   20.0582 O   0  0  0  0  0  0  0  0  0  0  0  0
  -23.0681   -8.1383   25.2607 O   0  0  0  0  0  0  0  0  0  0  0  0
  -30.7272  -22.2237   27.0669 O   0  0  0  0  0  0  0  0  0  1  0  0
  -26.0926   -7.1378   29.7613 F   0  0  0  0  0  0  0  0  0  0  0  0
  -22.0069   -8.4884   27.7893 F   0  0  0  0  0  0  0  0  0  0  0  0
  1  2  1  0  0  0  0
  1  5  2  0  0  0  0
  2  6  2  0  0  0  0
  3  8  2  0  0  0  0
  3 18  1  0  0  0  0
  4  9  1  0  0  0  0
  4 18  2  0  0  0  0
  5 21  1  0  0  0  0
  6 23  1  0  0  0  0
  7 10  2  0  0  0  0
  7 22  1  0  0  0  0
  8 27  1  0  0  0  0
  9 27  2  0  0  0  0
 10 28  1  0  0  0  0
 11 12  2  0  0  0  0
 11 29  1  0  0  0  0
 12 30  1  0  0  0  0
 13 19  2  0  0  0  0
 13 25  1  0  0  0  0
 14 19  1  0  0  0  0
 14 26  2  0  0  0  0
 15 24  1  0  0  0  0
 15 28  2  0  0  0  0
 16 25  2  0  0  0  0
 16 26  1  0  0  0  0
 17 30  2  0  0  0  0
 17 31  1  0  0  0  0
 18 32  1  0  0  0  0
 19 34  1  0  0  0  0
 20 32  1  0  0  0  0
 20 33  2  0  0  0  0
 20 36  1  0  0  0  0
 21 23  2  0  0  0  0
 21 41  1  0  0  0  0
 22 24  2  0  0  0  0
 22 42  1  0  0  0  0
 23 50  1  0  0  0  0
 24 43  1  0  0  0  0
 25 59  1  0  0  0  0
 26 72  1  0  0  0  0
 27 81  1  0  0  0  0
 28 82  1  0  0  0  0
 29 31  2  0  0  0  0
 29 81  1  0  0  0  0
 30 83  1  0  0  0  0
 31 84  1  0  0  0  0
 32 66  2  0  0  0  0
 33 67  1  0  0  0  0
 33 70  1  0  0  0  0
 34 35  2  0  0  0  0
 35 60  1  0  0  0  0
 36 71  1  0  0  0  0
 36 76  2  0  0  0  0
 37 51  1  0  0  0  0
 37 73  1  0  0  0  0
 37 77  2  0  0  0  0
 38 63  1  0  0  0  0
 38 68  1  0  0  0  0
 38 78  2  0  0  0  0
 39 64  1  0  0  0  0
 39 74  1  0  0  0  0
 39 79  2  0  0  0  0
 40 69  1  0  0  0  0
 40 72  1  0  0  0  0
 40 80  2  0  0  0  0
 41 44  1  0  0  0  0
 42 51  1  0  0  0  0
 43 68  1  0  0  0  0
 44 46  1  0  0  0  0
 45 47  1  0  0  0  0
 45 48  1  0  0  0  0
 46 50  1  0  0  0  0
 47 52  1  0  0  0  0
 48 69  1  0  0  0  0
 49 52  1  0  0  0  0
 49 69  1  0  0  0  0
 50 73  1  0  0  0  0
 51 68  1  0  0  0  0
 52 67  1  0  0  0  0
 53 59  1  0  0  0  0
 54 64  1  0  0  0  0
 55 65  1  0  0  0  0
 56 65  1  0  0  0  0
 57 65  1  0  0  0  0
 58 75  1  0  0  0  0
 60 61  1  0  0  0  0
 61 62  1  0  0  0  0
 62 82  1  0  0  0  0
 63 65  1  0  0  0  0
 63 74  1  0  0  0  0
 64 75  1  0  0  0  0
 66 67  1  0  0  0  0
M  CHG  1  75   1
M  ISO  4  40 100  62 101  72 100  82 101
M  END
> <Batch ID>
0118

> <Smiles>
CCc1cc(C=CCC[101CH2:1][101O:1]c2ccc3c(c2)CN(C(=O)C(NC(=O)C(C)NC)C(C)(C)C)C(C(=O)NC2CCCc4ccccc42)C3)cc([100NH:0][100C:0](=O)N2CCCC(n3nc(-c4ccc(Oc5ccc(F)cc5F)cc4)c(C(N)=O)c3N)C2)c1

> <Shape>
0.209

> <Color>
0.156

> <Negative vol penalty>
0.000

$$$$

  -OEChem-04052301483D

 83 91  0     1  0  0  0  0  0999 V2000
  -28.7887  -33.1099   25.7626 C   0  0  0  0  0  0  0  0  0  0  0  0
  -28.7321  -31.7241   25.6541 C   0  0  0  0  0  0  0  0  0  0  0  0
  -23.1948   -9.7575   21.5379 C   0  0  0  0  0  0  0  0  0  0  0  0
  -23.6690  -11.0283   23.5373 C   0  0  0  0  0  0  0  0  0  0  0  0
  -27.6488  -33.8743   25.5171 C   0  0  0  0  0  0  0  0  0  0  0  0
  -27.5353  -31.1018   25.3011 C   0  0  0  0  0  0  0  0  0  0  0  0
  -28.1809  -27.4837   21.8172 C   0  0  0  0  0  0  0  0  0  0  0  0
  -22.4797   -8.8308   22.2965 C   0  0  0  0  0  0  0  0  0  0  0  0
  -22.9538  -10.1016   24.2959 C   0  0  0  0  0  0  0  0  0  0  0  0
  -28.6799  -26.2583   22.2567 C   0  0  0  0  0  0  0  0  0  0  0  0
  -23.1638   -6.2211   24.3325 C   0  0  0  0  0  0  0  0  0  0  0  0
  -23.3914   -4.8676   24.0840 C   0  0  0  0  0  0  0  0  0  0  0  0
  -31.0346  -20.0614   21.3848 C   0  0  0  0  0  0  0  0  0  0  0  0
  -26.4445  -25.3517   22.2485 C   0  0  0  0  0  0  0  0  0  0  0  0
  -31.4842  -17.7345   20.9152 C   0  0  0  0  0  0  0  0  0  0  0  0
  -21.0623   -4.5815   23.5091 C   0  0  0  0  0  0  0  0  0  0  0  0
  -23.7895  -10.8562   22.1583 C   0  0  0  0  0  0  0  0  0  0  0  0
  -29.6759  -19.8453   21.1548 C   0  0  0  0  0  0  0  0  0  0  0  0
  -24.0273  -12.9744   20.7567 C   0  0  0  0  0  0  0  0  0  0  0  0
  -26.4398  -33.2617   25.1514 C   0  0  0  0  0  0  0  0  0  0  0  0
  -26.8062  -27.6557   21.6001 C   0  0  0  0  0  0  0  0  0  0  0  0
  -26.3778  -31.8586   25.0517 C   0  0  0  0  0  0  0  0  0  0  0  0
  -25.9308  -26.5795   21.8037 C   0  0  0  0  0  0  0  0  0  0  0  0
  -29.2214  -18.5738   20.8050 C   0  0  0  0  0  0  0  0  0  0  0  0
  -30.1255  -17.5184   20.6852 C   0  0  0  0  0  0  0  0  0  0  0  0
  -22.3591   -9.0029   23.6754 C   0  0  0  0  0  0  0  0  0  0  0  0
  -27.8114  -25.1929   22.4752 C   0  0  0  0  0  0  0  0  0  0  0  0
  -21.8854   -6.7548   24.1695 C   0  0  0  0  0  0  0  0  0  0  0  0
  -22.3407   -4.0478   23.6722 C   0  0  0  0  0  0  0  0  0  0  0  0
  -31.9388  -19.0060   21.2650 C   0  0  0  0  0  0  0  0  0  0  0  0
  -20.8347   -5.9350   23.7577 C   0  0  0  0  0  0  0  0  0  0  0  0
  -24.5288  -11.8135   21.3754 C   0  0  0  0  0  0  0  0  0  0  0  0
  -25.1201  -13.5353   20.1421 C   0  0  0  0  0  0  0  0  0  0  0  0
  -28.7504  -20.9826   21.2891 C   0  0  0  0  0  0  0  0  0  0  0  0
  -28.5457  -21.6854   22.4141 C   0  0  0  0  0  0  0  0  0  0  0  0
  -22.6930  -13.4988   20.7393 C   0  0  0  0  0  0  0  0  0  0  0  0
  -24.5539  -29.5188   22.8490 C   0  0  0  0  0  0  0  0  0  0  0  0
  -22.7254  -28.2152   20.5082 C   0  0  0  0  0  0  0  0  0  0  0  0
  -22.1879  -25.6194   18.3589 C   0  0  0  0  0  0  0  0  0  0  0  0
  -30.4707  -15.0755   20.1757 C   0  0  0  0  0  0  0  0  0  0  0  0
  -25.2220  -34.1265   24.9421 C   0  0  0  0  0  0  0  0  0  0  0  0
  -26.2869  -28.9759   21.1003 C   0  0  0  0  0  0  0  0  0  0  0  0
  -24.4490  -26.7065   21.5659 C   0  0  0  0  0  0  0  0  0  0  0  0
  -24.0887  -33.4150   24.2075 C   0  0  0  0  0  0  0  0  0  0  0  0
  -29.7644  -11.6849   19.3497 C   0  0  0  0  0  0  0  0  0  0  0  0
  -23.8572  -32.0279   24.7987 C   0  0  0  0  0  0  0  0  0  0  0  0
  -28.2981  -11.5116   19.7521 C   0  0  0  0  0  0  0  0  0  0  0  0
  -30.5151  -12.5951   20.3201 C   0  0  0  0  0  0  0  0  0  0  0  0
  -28.4232  -13.7294   20.9575 C   0  0  0  0  0  0  0  0  0  0  0  0
  -25.1042  -31.1485   24.6469 C   0  0  1  0  0  0  0  0  0  0  0  0
  -24.8075  -29.1901   21.4050 C   0  0  1  0  0  0  0  0  0  0  0  0
  -27.6098  -12.8728   19.9734 C   0  0  2  0  0  0  0  0  0  0  0  0
  -27.4435  -18.2392   19.0690 C   0  0  0  0  0  0  0  0  0  0  0  0
  -20.5913  -24.8202   16.5956 C   0  0  0  0  0  0  0  0  0  0  0  0
  -20.7214  -27.4438   22.6759 C   0  0  0  0  0  0  0  0  0  0  0  0
  -19.6679  -25.8657   21.0426 C   0  0  0  0  0  0  0  0  0  0  0  0
  -19.6948  -28.3145   20.5682 C   0  0  0  0  0  0  0  0  0  0  0  0
  -24.3006  -25.6083   16.2863 C   0  0  0  0  0  0  0  0  0  0  0  0
  -27.7634  -18.3345   20.5558 C   0  0  0  0  0  0  0  0  0  0  0  0
  -27.5832  -22.8259   22.5057 C   0  0  0  0  0  0  0  0  0  1  0  0
  -21.8442  -26.9947   20.3947 C   0  0  1  0  0  0  0  0  0  0  0  0
  -21.8731  -25.5896   16.8741 C   0  0  2  0  0  0  0  0  0  0  0  0
  -20.5097  -27.1525   21.1768 C   0  0  0  0  0  0  0  0  0  0  0  0
  -25.8382  -11.6456   21.1721 N   0  0  0  0  0  0  0  0  0  0  0  0
  -26.1687  -12.7083   20.4188 N   0  0  0  0  0  0  0  0  0  0  0  0
  -23.9889  -28.0192   21.0835 N   0  0  0  0  0  0  0  0  0  0  0  0
  -29.8070  -13.8674   20.4770 N   0  0  0  0  0  0  0  0  0  0  0  0
  -25.2766  -14.6502   19.3972 N   0  0  0  0  0  0  0  0  0  0  0  0
  -21.6903  -12.7971   21.4223 N   0  0  0  0  0  0  0  0  0  0  0  0
  -29.6869  -16.2183   20.3312 N   0  0  0  0  0  0  0  0  0  0  0  0
  -25.2102  -30.6514   23.2919 N   0  0  0  0  0  0  0  0  0  0  0  0
  -21.6744  -26.7451   18.9674 N   0  0  0  0  0  0  0  0  0  0  0  0
  -22.9839  -24.9404   16.1220 N   0  3  0  0  0  0  0  0  0  0  0  0
  -22.3954  -14.5497   20.1223 O   0  0  0  0  0  0  0  0  0  0  0  0
  -23.8162  -28.7991   23.5120 O   0  0  0  0  0  0  0  0  0  0  0  0
  -22.3109  -29.3010   20.0949 O   0  0  0  0  0  0  0  0  0  0  0  0
  -22.8225  -24.7309   18.9232 O   0  0  0  0  0  0  0  0  0  0  0  0
  -31.6394  -15.0929   19.7809 O   0  0  0  0  0  0  0  0  0  0  0  0
  -21.6612   -8.0989   24.4159 O   0  0  0  0  0  0  0  0  0  0  0  0
  -28.2958  -23.9960   22.9049 O   0  0  0  0  0  0  0  0  0  1  0  0
  -22.5597   -2.7483   23.4320 F   0  0  0  0  0  0  0  0  0  0  0  0
  -33.2434  -19.2133   21.4867 F   0  0  0  0  0  0  0  0  0  0  0  0
  -19.6046   -6.4423   23.5982 F   0  0  0  0  0  0  0  0  0  0  0  0
  1  2  1  0  0  0  0
  1  5  2  0  0  0  0
  2  6  2  0  0  0  0
  3  8  2  0  0  0  0
  3 17  1  0  0  0  0
  4  9  1  0  0  0  0
  4 17  2  0  0  0  0
  5 20  1  0  0  0  0
  6 22  1  0  0  0  0
  7 10  2  0  0  0  0
  7 21  1  0  0  0  0
  8 26  1  0  0  0  0
  9 26  2  0  0  0  0
 10 27  1  0  0  0  0
 11 12  2  0  0  0  0
 11 28  1  0  0  0  0
 12 29  1  0  0  0  0
 13 18  2  0  0  0  0
 13 30  1  0  0  0  0
 14 23  1  0  0  0  0
 14 27  2  0  0  0  0
 15 25  1  0  0  0  0
 15 30  2  0  0  0  0
 16 29  2  0  0  0  0
 16 31  1  0  0  0  0
 17 32  1  0  0  0  0
 18 24  1  0  0  0  0
 18 34  1  0  0  0  0
 19 32  1  0  0  0  0
 19 33  2  0  0  0  0
 19 36  1  0  0  0  0
 20 22  2  0  0  0  0
 20 41  1  0  0  0  0
 21 23  2  0  0  0  0
 21 42  1  0  0  0  0
 22 50  1  0  0  0  0
 23 43  1  0  0  0  0
 24 25  2  0  0  0  0
 24 59  1  0  0  0  0
 25 70  1  0  0  0  0
 26 79  1  0  0  0  0
 27 80  1  0  0  0  0
 28 31  2  0  0  0  0
 28 79  1  0  0  0  0
 29 81  1  0  0  0  0
 30 82  1  0  0  0  0
 31 83  1  0  0  0  0
 32 64  2  0  0  0  0
 33 65  1  0  0  0  0
 33 68  1  0  0  0  0
 34 35  2  0  0  0  0
 35 60  1  0  0  0  0
 36 69  1  0  0  0  0
 36 74  2  0  0  0  0
 37 51  1  0  0  0  0
 37 71  1  0  0  0  0
 37 75  2  0  0  0  0
 38 61  1  0  0  0  0
 38 66  1  0  0  0  0
 38 76  2  0  0  0  0
 39 62  1  0  0  0  0
 39 72  1  0  0  0  0
 39 77  2  0  0  0  0
 40 67  1  0  0  0  0
 40 70  1  0  0  0  0
 40 78  2  0  0  0  0
 41 44  1  0  0  0  0
 42 51  1  0  0  0  0
 43 66  1  0  0  0  0
 44 46  1  0  0  0  0
 45 47  1  0  0  0  0
 45 48  1  0  0  0  0
 46 50  1  0  0  0  0
 47 52  1  0  0  0  0
 48 67  1  0  0  0  0
 49 52  1  0  0  0  0
 49 67  1  0  0  0  0
 50 71  1  0  0  0  0
 51 66  1  0  0  0  0
 52 65  1  0  0  0  0
 53 59  1  0  0  0  0
 54 62  1  0  0  0  0
 55 63  1  0  0  0  0
 56 63  1  0  0  0  0
 57 63  1  0  0  0  0
 58 73  1  0  0  0  0
 60 80  1  0  0  0  0
 61 63  1  0  0  0  0
 61 72  1  0  0  0  0
 62 73  1  0  0  0  0
 64 65  1  0  0  0  0
M  CHG  1  73   1
M  ISO  4  40 100  60 101  70 100  80 101
M  END
> <Batch ID>
0118

> <Smiles>
CCc1c(C=C[101CH2:1][101O:1]c2ccc3c(c2)CN(C(=O)C(NC(=O)C(C)NC)C(C)(C)C)C(C(=O)NC2CCCc4ccccc42)C3)cc(F)cc1[100NH:0][100C:0](=O)N1CCCC(n2nc(-c3ccc(Oc4ccc(F)cc4F)cc3)c(C(N)=O)c2N)C1

> <Shape>
0.312

> <Color>
0.139

> <Negative vol penalty>
0.000

$$$$

  -OEChem-04052301483D

 86 94  0     1  0  0  0  0  0999 V2000
  -32.2674  -21.6390   17.5875 C   0  0  0  0  0  0  0  0  0  0  0  0
  -31.9389  -22.0294   18.8817 C   0  0  0  0  0  0  0  0  0  0  0  0
  -25.1670  -14.2186   19.6534 C   0  0  0  0  0  0  0  0  0  0  0  0
  -26.3379  -12.9278   21.3268 C   0  0  0  0  0  0  0  0  0  0  0  0
  -31.9486  -22.4641   16.5097 C   0  0  0  0  0  0  0  0  0  0  0  0
  -31.2925  -23.2456   19.0991 C   0  0  0  0  0  0  0  0  0  0  0  0
  -27.4588  -22.8483   22.3839 C   0  0  0  0  0  0  0  0  0  0  0  0
  -24.4622  -13.0785   19.2671 C   0  0  0  0  0  0  0  0  0  0  0  0
  -25.6331  -11.7877   20.9405 C   0  0  0  0  0  0  0  0  0  0  0  0
  -27.7844  -22.7877   23.7382 C   0  0  0  0  0  0  0  0  0  0  0  0
  -23.8823   -8.6158   20.6378 C   0  0  0  0  0  0  0  0  0  0  0  0
  -23.3550   -7.8064   21.6440 C   0  0  0  0  0  0  0  0  0  0  0  0
  -27.2498  -25.1290   23.9655 C   0  0  0  0  0  0  0  0  0  0  0  0
  -34.4251  -19.5200   24.3137 C   0  0  0  0  0  0  0  0  0  0  0  0
  -34.2834  -20.8840   26.3028 C   0  0  0  0  0  0  0  0  0  0  0  0
  -22.0305   -9.6624   22.4428 C   0  0  0  0  0  0  0  0  0  0  0  0
  -26.1048  -14.1432   20.6832 C   0  0  0  0  0  0  0  0  0  0  0  0
  -32.2709  -20.0094   25.2918 C   0  0  0  0  0  0  0  0  0  0  0  0
  -26.4624  -16.2574   22.0652 C   0  0  0  0  0  0  0  0  0  0  0  0
  -31.2893  -23.6866   16.7131 C   0  0  0  0  0  0  0  0  0  0  0  0
  -27.0360  -24.0544   21.8069 C   0  0  0  0  0  0  0  0  0  0  0  0
  -30.9658  -24.0884   18.0231 C   0  0  0  0  0  0  0  0  0  0  0  0
  -26.9170  -25.2017   22.6042 C   0  0  0  0  0  0  0  0  0  0  0  0
  -33.0362  -19.3916   24.3028 C   0  0  0  0  0  0  0  0  0  0  0  0
  -24.6952  -11.8631   19.9106 C   0  0  0  0  0  0  0  0  0  0  0  0
  -27.6827  -23.9287   24.5286 C   0  0  0  0  0  0  0  0  0  0  0  0
  -23.4837   -9.9485   20.5341 C   0  0  0  0  0  0  0  0  0  0  0  0
  -32.8944  -20.7556   26.2918 C   0  0  0  0  0  0  0  0  0  0  0  0
  -22.4291   -8.3297   22.5465 C   0  0  0  0  0  0  0  0  0  0  0  0
  -35.0487  -20.2661   25.3137 C   0  0  0  0  0  0  0  0  0  0  0  0
  -22.5578  -10.4718   21.4366 C   0  0  0  0  0  0  0  0  0  0  0  0
  -26.8336  -15.3204   21.0824 C   0  0  0  0  0  0  0  0  0  0  0  0
  -27.4814  -17.1783   22.0638 C   0  0  0  0  0  0  0  0  0  0  0  0
  -30.1274  -19.3767   26.3019 C   0  0  0  0  0  0  0  0  0  0  0  0
  -30.8157  -19.8816   25.2918 C   0  0  0  0  0  0  0  0  0  0  0  0
  -25.3005  -16.2922   22.9045 C   0  0  0  0  0  0  0  0  0  0  0  0
  -28.1473  -25.9553   19.5144 C   0  0  0  0  0  0  0  0  0  0  0  0
  -25.3530  -27.5287   20.0027 C   0  0  0  0  0  0  0  0  0  0  0  0
  -22.7699  -28.2603   22.1097 C   0  0  0  0  0  0  0  0  0  0  0  0
  -32.9030  -18.4438   21.9724 C   0  0  0  0  0  0  0  0  0  0  0  0
  -31.0077  -24.5666   15.5210 C   0  0  0  0  0  0  0  0  0  0  0  0
  -26.6628  -24.0969   20.3504 C   0  0  0  0  0  0  0  0  0  0  0  0
  -26.4485  -26.5162   22.0375 C   0  0  0  0  0  0  0  0  0  0  0  0
  -29.9874  -25.6664   15.8033 C   0  0  0  0  0  0  0  0  0  0  0  0
  -31.3281  -17.8298   18.8388 C   0  0  0  0  0  0  0  0  0  0  0  0
  -30.3091  -26.3681   17.1189 C   0  0  0  0  0  0  0  0  0  0  0  0
  -29.9878  -17.1993   19.2240 C   0  0  0  0  0  0  0  0  0  0  0  0
  -32.4534  -17.3834   19.7705 C   0  0  0  0  0  0  0  0  0  0  0  0
  -30.8477  -16.9462   21.5870 C   0  0  0  0  0  0  0  0  0  0  0  0
  -30.2422  -25.3890   18.2972 C   0  0  1  0  0  0  0  0  0  0  0  0
  -26.7359  -25.4999   19.7556 C   0  0  1  0  0  0  0  0  0  0  0  0
  -29.6710  -17.4168   20.7166 C   0  0  2  0  0  0  0  0  0  0  0  0
  -20.6551  -29.6048   22.2408 C   0  0  0  0  0  0  0  0  0  0  0  0
  -26.9960  -30.0712   20.3845 C   0  0  0  0  0  0  0  0  0  0  0  0
  -24.9820  -31.1330   21.4259 C   0  0  0  0  0  0  0  0  0  0  0  0
  -24.9017  -30.3729   19.0514 C   0  0  0  0  0  0  0  0  0  0  0  0
  -21.1179  -25.8383   22.5143 C   0  0  0  0  0  0  0  0  0  0  0  0
  -30.6247  -23.8107   27.1513 C   0  0  0  0  0  0  0  0  0  0  0  0
  -29.4435  -24.6772   27.5882 C   0  0  0  0  0  0  0  0  0  0  0  0
  -31.5726  -23.4572   28.2962 C   0  0  0  0  0  0  0  0  0  0  0  0
  -28.5125  -25.0636   26.4468 C   0  0  0  0  0  0  0  0  0  1  0  0
  -32.7137  -22.5671   27.8220 C   0  0  0  0  0  0  0  0  0  0  0  0
  -24.9023  -28.6526   20.9042 C   0  0  1  0  0  0  0  0  0  0  0  0
  -21.2664  -28.2547   21.8999 C   0  0  2  0  0  0  0  0  0  0  0  0
  -25.4562  -30.0333   20.4521 C   0  0  0  0  0  0  0  0  0  0  0  0
  -27.9974  -15.6187   20.4989 N   0  0  0  0  0  0  0  0  0  0  0  0
  -28.3663  -16.7537   21.1168 N   0  0  0  0  0  0  0  0  0  0  0  0
  -26.1014  -26.5084   20.6067 N   0  0  0  0  0  0  0  0  0  0  0  0
  -32.0843  -17.6239   21.1672 N   0  0  0  0  0  0  0  0  0  0  0  0
  -27.6978  -18.3019   22.7802 N   0  0  0  0  0  0  0  0  0  0  0  0
  -24.3527  -15.2677   22.7762 N   0  0  0  0  0  0  0  0  0  0  0  0
  -32.4343  -18.6267   23.2730 N   0  0  0  0  0  0  0  0  0  0  0  0
  -28.8659  -25.1350   18.6658 N   0  0  0  0  0  0  0  0  0  0  0  0
  -23.4460  -28.5793   20.9511 N   0  0  0  0  0  0  0  0  0  0  0  0
  -20.6273  -27.2188   22.7598 N   0  3  0  0  0  0  0  0  0  0  0  0
  -25.1003  -17.2136   23.7318 O   0  0  0  0  0  0  0  0  0  0  0  0
  -28.5538  -26.9761   20.0569 O   0  0  0  0  0  0  0  0  0  0  0  0
  -25.0460  -27.5514   18.8082 O   0  0  0  0  0  0  0  0  0  0  0  0
  -23.2921  -28.0105   23.1938 O   0  0  0  0  0  0  0  0  0  0  0  0
  -33.9289  -18.9688   21.5321 O   0  0  0  0  0  0  0  0  0  0  0  0
  -24.0076  -10.7505   19.5341 O   0  0  0  0  0  0  0  0  0  0  0  0
  -28.0006  -23.8724   25.8506 O   0  0  0  0  0  0  0  0  0  1  0  0
  -32.1695  -21.3727   27.2781 O   0  0  0  0  0  0  0  0  0  0  0  0
  -21.9216   -7.5519   23.5117 F   0  0  0  0  0  0  0  0  0  0  0  0
  -36.3826  -20.3876   25.3245 F   0  0  0  0  0  0  0  0  0  0  0  0
  -22.1702  -11.7510   21.3412 F   0  0  0  0  0  0  0  0  0  0  0  0
  1  2  1  0  0  0  0
  1  5  2  0  0  0  0
  2  6  2  0  0  0  0
  3  8  2  0  0  0  0
  3 17  1  0  0  0  0
  4  9  1  0  0  0  0
  4 17  2  0  0  0  0
  5 20  1  0  0  0  0
  6 22  1  0  0  0  0
  7 10  2  0  0  0  0
  7 21  1  0  0  0  0
  8 25  1  0  0  0  0
  9 25  2  0  0  0  0
 10 26  1  0  0  0  0
 11 12  2  0  0  0  0
 11 27  1  0  0  0  0
 12 29  1  0  0  0  0
 13 23  1  0  0  0  0
 13 26  2  0  0  0  0
 14 24  2  0  0  0  0
 14 30  1  0  0  0  0
 15 28  1  0  0  0  0
 15 30  2  0  0  0  0
 16 29  2  0  0  0  0
 16 31  1  0  0  0  0
 17 32  1  0  0  0  0
 18 24  1  0  0  0  0
 18 28  2  0  0  0  0
 18 35  1  0  0  0  0
 19 32  1  0  0  0  0
 19 33  2  0  0  0  0
 19 36  1  0  0  0  0
 20 22  2  0  0  0  0
 20 41  1  0  0  0  0
 21 23  2  0  0  0  0
 21 42  1  0  0  0  0
 22 50  1  0  0  0  0
 23 43  1  0  0  0  0
 24 72  1  0  0  0  0
 25 81  1  0  0  0  0
 26 82  1  0  0  0  0
 27 31  2  0  0  0  0
 27 81  1  0  0  0  0
 28 83  1  0  0  0  0
 29 84  1  0  0  0  0
 30 85  1  0  0  0  0
 31 86  1  0  0  0  0
 32 66  2  0  0  0  0
 33 67  1  0  0  0  0
 33 70  1  0  0  0  0
 34 35  2  0  0  0  0
 36 71  1  0  0  0  0
 36 76  2  0  0  0  0
 37 51  1  0  0  0  0
 37 73  1  0  0  0  0
 37 77  2  0  0  0  0
 38 63  1  0  0  0  0
 38 68  1  0  0  0  0
 38 78  2  0  0  0  0
 39 64  1  0  0  0  0
 39 74  1  0  0  0  0
 39 79  2  0  0  0  0
 40 69  1  0  0  0  0
 40 72  1  0  0  0  0
 40 80  2  0  0  0  0
 41 44  1  0  0  0  0
 42 51  1  0  0  0  0
 43 68  1  0  0  0  0
 44 46  1  0  0  0  0
 45 47  1  0  0  0  0
 45 48  1  0  0  0  0
 46 50  1  0  0  0  0
 47 52  1  0  0  0  0
 48 69  1  0  0  0  0
 49 52  1  0  0  0  0
 49 69  1  0  0  0  0
 50 73  1  0  0  0  0
 51 68  1  0  0  0  0
 52 67  1  0  0  0  0
 53 64  1  0  0  0  0
 54 65  1  0  0  0  0
 55 65  1  0  0  0  0
 56 65  1  0  0  0  0
 57 75  1  0  0  0  0
 58 59  1  0  0  0  0
 58 60  1  0  0  0  0
 59 61  1  0  0  0  0
 60 62  1  0  0  0  0
 61 82  1  0  0  0  0
 62 83  1  0  0  0  0
 63 65  1  0  0  0  0
 63 74  1  0  0  0  0
 64 75  1  0  0  0  0
 66 67  1  0  0  0  0
M  CHG  1  75   1
M  ISO  4  40 100  61 101  72 100  82 101
M  END
> <Batch ID>
0118

> <Smiles>
C=Cc1c([100NH:0][100C:0](=O)N2CCCC(n3nc(-c4ccc(Oc5ccc(F)cc5F)cc4)c(C(N)=O)c3N)C2)cc(F)cc1OCCCC[101CH2:1][101O:1]c1ccc2c(c1)CN(C(=O)C(NC(=O)C(C)NC)C(C)(C)C)C(C(=O)NC1CCCc3ccccc31)C2

> <Shape>
0.212

> <Color>
0.057

> <Negative vol penalty>
0.000

$$$$

  -OEChem-04052301483D

 87 96  0     1  0  0  0  0  0999 V2000
  -19.3525  -29.7897   19.8671 C   0  0  0  0  0  0  0  0  0  0  0  0
  -20.7277  -29.6271   20.0004 C   0  0  0  0  0  0  0  0  0  0  0  0
  -26.5053  -13.6729   20.9980 C   0  0  0  0  0  0  0  0  0  0  0  0
  -25.4335  -12.7369   19.0455 C   0  0  0  0  0  0  0  0  0  0  0  0
  -31.4823  -22.0829   18.2251 C   0  0  0  0  0  0  0  0  0  0  0  0
  -18.4842  -29.0773   20.6932 C   0  0  0  0  0  0  0  0  0  0  0  0
  -21.2355  -28.7527   20.9607 C   0  0  0  0  0  0  0  0  0  0  0  0
  -24.9597  -25.8345   19.1554 C   0  0  0  0  0  0  0  0  0  0  0  0
  -31.4282  -23.2665   18.9611 C   0  0  0  0  0  0  0  0  0  0  0  0
  -25.5002  -13.1403   21.8051 C   0  0  0  0  0  0  0  0  0  0  0  0
  -24.4283  -12.2043   19.8527 C   0  0  0  0  0  0  0  0  0  0  0  0
  -26.2203  -26.4164   19.0292 C   0  0  0  0  0  0  0  0  0  0  0  0
  -24.0267   -9.5453   21.8994 C   0  0  0  0  0  0  0  0  0  0  0  0
  -23.6393   -8.2262   21.6639 C   0  0  0  0  0  0  0  0  0  0  0  0
  -30.5664  -24.4298   17.0270 C   0  0  0  0  0  0  0  0  0  0  0  0
  -26.9028  -25.3711   21.0934 C   0  0  0  0  0  0  0  0  0  0  0  0
  -21.3874   -8.9700   21.2023 C   0  0  0  0  0  0  0  0  0  0  0  0
  -26.4720  -13.4713   19.6181 C   0  0  0  0  0  0  0  0  0  0  0  0
  -31.0785  -22.0727   16.8899 C   0  0  0  0  0  0  0  0  0  0  0  0
  -30.6205  -23.2462   16.2909 C   0  0  0  0  0  0  0  0  0  0  0  0
  -28.7202  -13.4051   18.4145 C   0  0  0  0  0  0  0  0  0  0  0  0
  -18.9813  -28.1865   21.6576 C   0  0  0  0  0  0  0  0  0  0  0  0
  -24.6572  -25.0239   20.2590 C   0  0  0  0  0  0  0  0  0  0  0  0
  -20.3730  -28.0287   21.8013 C   0  0  0  0  0  0  0  0  0  0  0  0
  -25.6385  -24.7780   21.2299 C   0  0  0  0  0  0  0  0  0  0  0  0
  -30.9702  -24.4399   18.3621 C   0  0  0  0  0  0  0  0  0  0  0  0
  -24.4617  -12.4060   21.2325 C   0  0  0  0  0  0  0  0  0  0  0  0
  -27.1912  -26.1872   19.9997 C   0  0  0  0  0  0  0  0  0  0  0  0
  -23.0944  -10.5767   21.7865 C   0  0  0  0  0  0  0  0  0  0  0  0
  -22.3197   -7.9385   21.3153 C   0  0  0  0  0  0  0  0  0  0  0  0
  -21.7748  -10.2891   21.4379 C   0  0  0  0  0  0  0  0  0  0  0  0
  -27.5097  -14.0217   18.7837 C   0  0  0  0  0  0  0  0  0  0  0  0
  -29.3507  -14.3332   17.6224 C   0  0  0  0  0  0  0  0  0  0  0  0
  -31.2893  -25.8129   20.4697 C   0  0  0  0  0  0  0  0  0  0  0  0
  -30.7804  -24.0070   13.9648 C   0  0  0  0  0  0  0  0  0  0  0  0
  -30.1938  -23.2723   14.8974 C   0  0  0  0  0  0  0  0  0  0  0  0
  -31.1511  -20.8150   16.1554 C   0  0  0  0  0  0  0  0  0  0  0  0
  -29.2292  -12.1092   18.7569 C   0  0  0  0  0  0  0  0  0  0  0  0
  -30.9888  -19.5171   16.8410 C   0  0  0  0  0  0  0  0  0  0  0  0
  -22.5602  -25.1721   22.6432 C   0  0  0  0  0  0  0  0  0  0  0  0
  -23.7184  -22.2204   23.3277 C   0  0  0  0  0  0  0  0  0  0  0  0
  -26.2859  -19.9860   23.0781 C   0  0  0  0  0  0  0  0  0  0  0  0
  -18.0048  -27.4740   22.5595 C   0  0  0  0  0  0  0  0  0  0  0  0
  -23.3012  -24.3819   20.3667 C   0  0  0  0  0  0  0  0  0  0  0  0
  -25.3705  -23.8992   22.4234 C   0  0  0  0  0  0  0  0  0  0  0  0
  -31.0809  -27.2640   20.8334 C   0  0  0  0  0  0  0  0  0  0  0  0
  -18.6142  -26.2857   23.2991 C   0  0  0  0  0  0  0  0  0  0  0  0
  -31.0310  -27.9617   19.4873 C   0  0  0  0  0  0  0  0  0  0  0  0
  -27.6664  -18.6242   15.5776 C   0  0  0  0  0  0  0  0  0  0  0  0
  -19.9612  -26.6675   23.9045 C   0  0  0  0  0  0  0  0  0  0  0  0
  -27.4150  -17.3115   16.3148 C   0  0  0  0  0  0  0  0  0  0  0  0
  -28.4723  -19.6094   16.4229 C   0  0  0  0  0  0  0  0  0  0  0  0
  -29.5045  -17.7332   17.6699 C   0  0  0  0  0  0  0  0  0  0  0  0
  -20.9615  -27.0709   22.8145 C   0  0  1  0  0  0  0  0  0  0  0  0
  -22.9374  -23.9902   21.7956 C   0  0  1  0  0  0  0  0  0  0  0  0
  -28.7357  -16.7094   16.8201 C   0  0  1  0  0  0  0  0  0  0  0  0
  -30.4298  -26.9130   18.5582 C   0  0  2  0  0  0  0  0  0  0  0  0
  -27.5027  -17.8027   23.3019 C   0  0  0  0  0  0  0  0  0  0  0  0
  -24.2512  -23.2232   26.1598 C   0  0  0  0  0  0  0  0  0  0  0  0
  -25.7464  -21.2448   26.5042 C   0  0  0  0  0  0  0  0  0  0  0  0
  -23.3207  -20.9054   26.0315 C   0  0  0  0  0  0  0  0  0  0  0  0
  -25.2671  -19.0184   20.4734 C   0  0  0  0  0  0  0  0  0  0  0  0
  -28.9015  -26.9917   18.5563 C   0  0  0  0  0  0  0  0  0  1  0  0
  -24.8482  -21.6850   24.1739 C   0  0  1  0  0  0  0  0  0  0  0  0
  -26.3105  -18.5194   22.6872 C   0  0  2  0  0  0  0  0  0  0  0  0
  -24.5464  -21.7828   25.6960 C   0  0  0  0  0  0  0  0  0  0  0  0
  -27.3770  -15.2468   18.2686 N   0  0  0  0  0  0  0  0  0  0  0  0
  -31.3579  -20.7514   14.8700 N   0  0  0  0  0  0  0  0  0  0  0  0
  -28.5123  -15.4076   17.5677 N   0  0  0  0  0  0  0  0  0  0  0  0
  -30.9151  -25.6547   19.1184 N   0  0  0  0  0  0  0  0  0  0  0  0
  -29.7017  -18.9923   16.9429 N   0  0  0  0  0  0  0  0  0  0  0  0
  -24.0276  -23.2992   22.4872 N   0  0  0  0  0  0  0  0  0  0  0  0
  -30.5349  -14.3270   16.9743 N   0  0  0  0  0  0  0  0  0  0  0  0
  -28.4527  -11.2826   19.5804 N   0  0  0  0  0  0  0  0  0  0  0  0
  -21.4902  -25.8967   22.1540 N   0  0  0  0  0  0  0  0  0  0  0  0
  -25.1048  -20.3288   23.7015 N   0  0  0  0  0  0  0  0  0  0  0  0
  -26.3907  -18.3794   21.2057 N   0  3  0  0  0  0  0  0  0  0  0  0
  -31.6869  -24.9895   21.2813 O   0  0  0  0  0  0  0  0  0  0  0  0
  -30.3470  -11.7029   18.3582 O   0  0  0  0  0  0  0  0  0  0  0  0
  -32.0038  -18.9785   17.2864 O   0  0  0  0  0  0  0  0  0  0  0  0
  -23.1923  -25.4083   23.6662 O   0  0  0  0  0  0  0  0  0  0  0  0
  -22.6045  -21.6960   23.4042 O   0  0  0  0  0  0  0  0  0  0  0  0
  -27.2225  -20.7503   22.8562 O   0  0  0  0  0  0  0  0  0  0  0  0
  -23.4808  -11.8859   22.0199 O   0  0  0  0  0  0  0  0  0  0  0  0
  -28.4223  -26.7545   19.8793 O   0  0  0  0  0  0  0  0  0  1  0  0
  -21.9482   -6.6719   21.0876 F   0  0  0  0  0  0  0  0  0  0  0  0
  -20.8750  -11.2759   21.3267 F   0  0  0  0  0  0  0  0  0  0  0  0
  1  2  1  0  0  0  0
  1  6  2  0  0  0  0
  2  7  2  0  0  0  0
  3 10  2  0  0  0  0
  3 18  1  0  0  0  0
  4 11  1  0  0  0  0
  4 18  2  0  0  0  0
  5  9  2  0  0  0  0
  5 19  1  0  0  0  0
  6 22  1  0  0  0  0
  7 24  1  0  0  0  0
  8 12  2  0  0  0  0
  8 23  1  0  0  0  0
  9 26  1  0  0  0  0
 10 27  1  0  0  0  0
 11 27  2  0  0  0  0
 12 28  1  0  0  0  0
 13 14  2  0  0  0  0
 13 29  1  0  0  0  0
 14 30  1  0  0  0  0
 15 20  1  0  0  0  0
 15 26  2  0  0  0  0
 16 25  1  0  0  0  0
 16 28  2  0  0  0  0
 17 30  2  0  0  0  0
 17 31  1  0  0  0  0
 18 32  1  0  0  0  0
 19 20  2  0  0  0  0
 19 37  1  0  0  0  0
 20 36  1  0  0  0  0
 21 32  1  0  0  0  0
 21 33  2  0  0  0  0
 21 38  1  0  0  0  0
 22 24  2  0  0  0  0
 22 43  1  0  0  0  0
 23 25  2  0  0  0  0
 23 44  1  0  0  0  0
 24 54  1  0  0  0  0
 25 45  1  0  0  0  0
 26 70  1  0  0  0  0
 27 84  1  0  0  0  0
 28 85  1  0  0  0  0
 29 31  2  0  0  0  0
 29 84  1  0  0  0  0
 30 86  1  0  0  0  0
 31 87  1  0  0  0  0
 32 67  2  0  0  0  0
 33 69  1  0  0  0  0
 33 73  1  0  0  0  0
 34 46  1  0  0  0  0
 34 70  1  0  0  0  0
 34 78  2  0  0  0  0
 35 36  2  0  0  0  0
 37 39  1  0  0  0  0
 37 68  2  0  0  0  0
 38 74  1  0  0  0  0
 38 79  2  0  0  0  0
 39 71  1  0  0  0  0
 39 80  2  0  0  0  0
 40 55  1  0  0  0  0
 40 75  1  0  0  0  0
 40 81  2  0  0  0  0
 41 64  1  0  0  0  0
 41 72  1  0  0  0  0
 41 82  2  0  0  0  0
 42 65  1  0  0  0  0
 42 76  1  0  0  0  0
 42 83  2  0  0  0  0
 43 47  1  0  0  0  0
 44 55  1  0  0  0  0
 45 72  1  0  0  0  0
 46 48  1  0  0  0  0
 47 50  1  0  0  0  0
 48 57  1  0  0  0  0
 49 51  1  0  0  0  0
 49 52  1  0  0  0  0
 50 54  1  0  0  0  0
 51 56  1  0  0  0  0
 52 71  1  0  0  0  0
 53 56  1  0  0  0  0
 53 71  1  0  0  0  0
 54 75  1  0  0  0  0
 55 72  1  0  0  0  0
 56 69  1  0  0  0  0
 57 63  1  0  0  0  0
 57 70  1  0  0  0  0
 58 65  1  0  0  0  0
 59 66  1  0  0  0  0
 60 66  1  0  0  0  0
 61 66  1  0  0  0  0
 62 77  1  0  0  0  0
 63 85  1  0  0  0  0
 64 66  1  0  0  0  0
 64 76  1  0  0  0  0
 65 77  1  0  0  0  0
 67 69  1  0  0  0  0
M  CHG  1  77   1
M  ISO  4  37 100  39 100  63 101  85 101
M  END
> <Batch ID>
0118

> <Smiles>
C=Cc1cc(N2C(=O)CCC2[101CH2:1][101O:1]c2ccc3c(c2)CN(C(=O)C(NC(=O)C(C)NC)C(C)(C)C)C(C(=O)NC2CCCc4ccccc42)C3)ccc1[100C:0](=N)[100C:0](=O)N1CCCC(n2nc(-c3ccc(Oc4ccc(F)cc4F)cc3)c(C(N)=O)c2N)C1

> <Shape>
0.211

> <Color>
0.062

> <Negative vol penalty>
0.000

$$$$

  -OEChem-04052301483D

 86 95  0     1  0  0  0  0  0999 V2000
  -27.9704  -36.7094   18.0442 C   0  0  0  0  0  0  0  0  0  0  0  0
  -27.9785  -35.3574   17.7162 C   0  0  0  0  0  0  0  0  0  0  0  0
  -24.6147   -8.6382   20.6855 C   0  0  0  0  0  0  0  0  0  0  0  0
  -23.0963  -10.5174   20.6673 C   0  0  0  0  0  0  0  0  0  0  0  0
  -27.8964  -37.1010   19.3803 C   0  0  0  0  0  0  0  0  0  0  0  0
  -27.9139  -34.3962   18.7243 C   0  0  0  0  0  0  0  0  0  0  0  0
  -25.1104  -28.9582   18.4516 C   0  0  0  0  0  0  0  0  0  0  0  0
  -23.5637   -7.7924   21.0402 C   0  0  0  0  0  0  0  0  0  0  0  0
  -22.0453   -9.6716   21.0219 C   0  0  0  0  0  0  0  0  0  0  0  0
  -25.5836  -27.6703   18.2043 C   0  0  0  0  0  0  0  0  0  0  0  0
  -21.8397   -7.0007   23.8375 C   0  0  0  0  0  0  0  0  0  0  0  0
  -22.0695   -6.0739   24.8543 C   0  0  0  0  0  0  0  0  0  0  0  0
  -25.7270  -27.2733   20.5793 C   0  0  0  0  0  0  0  0  0  0  0  0
  -29.2326  -19.1945   20.6498 C   0  0  0  0  0  0  0  0  0  0  0  0
  -21.5808   -4.2713   23.3218 C   0  0  0  0  0  0  0  0  0  0  0  0
  -24.3810  -10.0007   20.4991 C   0  0  0  0  0  0  0  0  0  0  0  0
  -25.8903  -11.2052   18.8322 C   0  0  0  0  0  0  0  0  0  0  0  0
  -27.8211  -36.1441   20.4047 C   0  0  0  0  0  0  0  0  0  0  0  0
  -24.9520  -29.4178   19.7669 C   0  0  0  0  0  0  0  0  0  0  0  0
  -27.8402  -34.7753   20.0755 C   0  0  0  0  0  0  0  0  0  0  0  0
  -25.2491  -28.5665   20.8407 C   0  0  0  0  0  0  0  0  0  0  0  0
  -29.1944  -20.5058   20.1760 C   0  0  0  0  0  0  0  0  0  0  0  0
  -28.3897  -19.7110   18.0411 C   0  0  0  0  0  0  0  0  0  0  0  0
  -28.4280  -18.3996   18.5149 C   0  0  0  0  0  0  0  0  0  0  0  0
  -28.7729  -20.7641   18.8717 C   0  0  0  0  0  0  0  0  0  0  0  0
  -28.8494  -18.1413   19.8192 C   0  0  0  0  0  0  0  0  0  0  0  0
  -22.2791   -8.3091   21.2084 C   0  0  0  0  0  0  0  0  0  0  0  0
  -25.8947  -26.8286   19.2682 C   0  0  0  0  0  0  0  0  0  0  0  0
  -21.4803   -6.5627   22.5628 C   0  0  0  0  0  0  0  0  0  0  0  0
  -21.9401   -4.7092   24.5965 C   0  0  0  0  0  0  0  0  0  0  0  0
  -21.3509   -5.1981   22.3050 C   0  0  0  0  0  0  0  0  0  0  0  0
  -25.4663  -10.8750   20.1333 C   0  0  0  0  0  0  0  0  0  0  0  0
  -26.9469  -12.0619   19.0224 C   0  0  0  0  0  0  0  0  0  0  0  0
  -28.0649  -24.2514   18.0297 C   0  0  0  0  0  0  0  0  0  0  0  0
  -27.5189  -25.4366   18.3221 C   0  0  0  0  0  0  0  0  0  1  0  0
  -25.3750  -10.7760   17.5649 C   0  0  0  0  0  0  0  0  0  0  0  0
  -26.2175  -31.7714   21.4883 C   0  0  0  0  0  0  0  0  0  0  0  0
  -24.0331  -30.8136   23.6868 C   0  0  0  0  0  0  0  0  0  0  0  0
  -22.0394  -28.3211   24.8947 C   0  0  0  0  0  0  0  0  0  0  0  0
  -29.2913  -16.4087   21.5938 C   0  0  0  0  0  0  0  0  0  0  0  0
  -27.7903  -36.6152   21.8371 C   0  0  0  0  0  0  0  0  0  0  0  0
  -24.4151  -30.8005   20.0170 C   0  0  0  0  0  0  0  0  0  0  0  0
  -25.0774  -29.0049   22.2714 C   0  0  0  0  0  0  0  0  0  0  0  0
  -29.3322  -24.0544   17.2596 C   0  0  0  0  0  0  0  0  0  0  0  0
  -27.5637  -22.9281   18.5250 C   0  0  0  0  0  0  0  0  0  0  0  0
  -27.3468  -35.5376   22.8232 C   0  0  0  0  0  0  0  0  0  0  0  0
  -29.5088  -13.2504   23.2231 C   0  0  0  0  0  0  0  0  0  0  0  0
  -28.0734  -34.2260   22.5432 C   0  0  0  0  0  0  0  0  0  0  0  0
  -28.5114  -12.3780   22.4574 C   0  0  0  0  0  0  0  0  0  0  0  0
  -29.8913  -22.7631   17.8504 C   0  0  0  0  0  0  0  0  0  0  0  0
  -29.0125  -14.6882   23.3650 C   0  0  0  0  0  0  0  0  0  0  0  0
  -27.6256  -14.4652   21.3411 C   0  0  0  0  0  0  0  0  0  0  0  0
  -27.7465  -33.7030   21.1392 C   0  0  1  0  0  0  0  0  0  0  0  0
  -24.7803  -31.3430   21.3953 C   0  0  1  0  0  0  0  0  0  0  0  0
  -28.1112  -13.0238   21.1164 C   0  0  2  0  0  0  0  0  0  0  0  0
  -29.6108  -21.6129   21.0893 C   0  0  0  0  0  0  0  0  0  0  0  0
  -27.9368  -19.9849   16.6407 C   0  0  0  0  0  0  0  0  0  0  0  0
  -28.0155  -17.2716   17.6212 C   0  0  0  0  0  0  0  0  0  0  0  0
  -20.3957  -27.8258   26.7251 C   0  0  0  0  0  0  0  0  0  0  0  0
  -26.3297  -30.5772   25.6817 C   0  0  0  0  0  0  0  0  0  0  0  0
  -24.8268  -29.2084   27.1433 C   0  0  0  0  0  0  0  0  0  0  0  0
  -24.2347  -31.5736   26.6160 C   0  0  0  0  0  0  0  0  0  0  0  0
  -19.8700  -27.7743   22.9572 C   0  0  0  0  0  0  0  0  0  0  0  0
  -24.0211  -29.8114   24.8156 C   0  0  1  0  0  0  0  0  0  0  0  0
  -20.5747  -28.3068   25.2936 C   0  0  2  0  0  0  0  0  0  0  0  0
  -24.8583  -30.2847   26.0373 C   0  0  0  0  0  0  0  0  0  0  0  0
  -26.1942  -11.4730   21.0802 N   0  0  0  0  0  0  0  0  0  0  0  0
  -27.0863  -12.1875   20.3733 N   0  0  0  0  0  0  0  0  0  0  0  0
  -28.7348  -22.0633   18.4047 N   0  0  3  0  0  0  0  0  0  0  0  0
  -24.5554  -30.3679   22.4643 N   0  0  0  0  0  0  0  0  0  0  0  0
  -28.6561  -15.2360   22.0544 N   0  0  0  0  0  0  0  0  0  0  0  0
  -27.7610  -12.7124   18.1642 N   0  0  0  0  0  0  0  0  0  0  0  0
  -24.2855   -9.8946   17.5504 N   0  0  0  0  0  0  0  0  0  0  0  0
  -28.8953  -16.8168   20.3205 N   0  0  0  0  0  0  0  0  0  0  0  0
  -26.4377  -33.0854   21.1220 N   0  0  0  0  0  0  0  0  0  0  0  0
  -22.6173  -29.5531   25.1173 N   0  0  0  0  0  0  0  0  0  0  0  0
  -19.8018  -27.4041   24.3943 N   0  3  0  0  0  0  0  0  0  0  0  0
  -25.8767  -11.1499   16.4776 O   0  0  0  0  0  0  0  0  0  0  0  0
  -27.0637  -30.9695   21.8659 O   0  0  0  0  0  0  0  0  0  0  0  0
  -23.5886  -31.9479   23.8804 O   0  0  0  0  0  0  0  0  0  0  0  0
  -22.6143  -27.3367   24.4354 O   0  0  0  0  0  0  0  0  0  0  0  0
  -30.1450  -16.9916   22.2671 O   0  0  0  0  0  0  0  0  0  0  0  0
  -21.2533   -7.4841   21.5542 O   0  0  0  0  0  0  0  0  0  0  0  0
  -26.3574  -25.5713   19.0295 O   0  0  0  0  0  0  0  0  0  1  0  0
  -22.1623   -3.8193   25.5726 F   0  0  0  0  0  0  0  0  0  0  0  0
  -21.0071   -4.7713   21.0821 F   0  0  0  0  0  0  0  0  0  0  0  0
  1  2  1  0  0  0  0
  1  5  2  0  0  0  0
  2  6  2  0  0  0  0
  3  8  2  0  0  0  0
  3 16  1  0  0  0  0
  4  9  1  0  0  0  0
  4 16  2  0  0  0  0
  5 18  1  0  0  0  0
  6 20  1  0  0  0  0
  7 10  2  0  0  0  0
  7 19  1  0  0  0  0
  8 27  1  0  0  0  0
  9 27  2  0  0  0  0
 10 28  1  0  0  0  0
 11 12  2  0  0  0  0
 11 29  1  0  0  0  0
 12 30  1  0  0  0  0
 13 21  1  0  0  0  0
 13 28  2  0  0  0  0
 14 22  2  0  0  0  0
 14 26  1  0  0  0  0
 15 30  2  0  0  0  0
 15 31  1  0  0  0  0
 16 32  1  0  0  0  0
 17 32  1  0  0  0  0
 17 33  2  0  0  0  0
 17 36  1  0  0  0  0
 18 20  2  0  0  0  0
 18 41  1  0  0  0  0
 19 21  2  0  0  0  0
 19 42  1  0  0  0  0
 20 53  1  0  0  0  0
 21 43  1  0  0  0  0
 22 25  1  0  0  0  0
 22 56  1  0  0  0  0
 23 24  1  0  0  0  0
 23 25  2  0  0  0  0
 23 57  1  0  0  0  0
 24 26  2  0  0  0  0
 24 58  1  0  0  0  0
 25 69  1  0  0  0  0
 26 74  1  0  0  0  0
 27 83  1  0  0  0  0
 28 84  1  0  0  0  0
 29 31  2  0  0  0  0
 29 83  1  0  0  0  0
 30 85  1  0  0  0  0
 31 86  1  0  0  0  0
 32 67  2  0  0  0  0
 33 68  1  0  0  0  0
 33 72  1  0  0  0  0
 34 35  2  0  0  0  0
 34 44  1  0  0  0  0
 34 45  1  0  0  0  0
 35 84  1  0  0  0  0
 36 73  1  0  0  0  0
 36 78  2  0  0  0  0
 37 54  1  0  0  0  0
 37 75  1  0  0  0  0
 37 79  2  0  0  0  0
 38 64  1  0  0  0  0
 38 70  1  0  0  0  0
 38 80  2  0  0  0  0
 39 65  1  0  0  0  0
 39 76  1  0  0  0  0
 39 81  2  0  0  0  0
 40 71  1  0  0  0  0
 40 74  1  0  0  0  0
 40 82  2  0  0  0  0
 41 46  1  0  0  0  0
 42 54  1  0  0  0  0
 43 70  1  0  0  0  0
 44 50  1  0  0  0  0
 45 69  1  0  0  0  0
 46 48  1  0  0  0  0
 47 49  1  0  0  0  0
 47 51  1  0  0  0  0
 48 53  1  0  0  0  0
 49 55  1  0  0  0  0
 50 69  1  0  0  0  0
 51 71  1  0  0  0  0
 52 55  1  0  0  0  0
 52 71  1  0  0  0  0
 53 75  1  0  0  0  0
 54 70  1  0  0  0  0
 55 68  1  0  0  0  0
 59 65  1  0  0  0  0
 60 66  1  0  0  0  0
 61 66  1  0  0  0  0
 62 66  1  0  0  0  0
 63 77  1  0  0  0  0
 64 66  1  0  0  0  0
 64 76  1  0  0  0  0
 65 77  1  0  0  0  0
 67 68  1  0  0  0  0
M  CHG  1  77   1
M  ISO  4  35 101  40 100  74 100  84 101
M  END
> <Batch ID>
0118

> <Smiles>
CNC(C)C(=O)NC(C(=O)N1Cc2cc([101O:1][101CH:1]=C3CCN(c4c(C)cc([100NH:0][100C:0](=O)N5CCCC(n6nc(-c7ccc(Oc8ccc(F)cc8F)cc7)c(C(N)=O)c6N)C5)c(C)c4C)C3)ccc2CC1C(=O)NC1CCCc2ccccc21)C(C)(C)C

> <Shape>
0.309

> <Color>
0.109

> <Negative vol penalty>
0.000

$$$$

  -OEChem-04052301483D

 80 88  0     1  0  0  0  0  0999 V2000
  -29.1252  -35.7134   25.9906 C   0  0  0  0  0  0  0  0  0  0  0  0
  -29.5814  -34.9571   24.9157 C   0  0  0  0  0  0  0  0  0  0  0  0
  -24.0894   -9.8405   21.8838 C   0  0  0  0  0  0  0  0  0  0  0  0
  -24.6318  -11.2047   23.8026 C   0  0  0  0  0  0  0  0  0  0  0  0
  -28.1749  -35.1824   26.8617 C   0  0  0  0  0  0  0  0  0  0  0  0
  -29.0882  -33.6689   24.7119 C   0  0  0  0  0  0  0  0  0  0  0  0
  -27.5171  -29.0584   19.4591 C   0  0  0  0  0  0  0  0  0  0  0  0
  -23.6763   -8.8126   22.7313 C   0  0  0  0  0  0  0  0  0  0  0  0
  -24.2186  -10.1768   24.6502 C   0  0  0  0  0  0  0  0  0  0  0  0
  -27.7744  -27.7460   19.0652 C   0  0  0  0  0  0  0  0  0  0  0  0
  -20.9576   -8.0631   24.5967 C   0  0  0  0  0  0  0  0  0  0  0  0
  -19.7578   -7.4183   24.2966 C   0  0  0  0  0  0  0  0  0  0  0  0
  -29.8025  -20.7912   18.8873 C   0  0  0  0  0  0  0  0  0  0  0  0
  -30.1890  -19.4285   18.9178 C   0  0  0  0  0  0  0  0  0  0  0  0
  -26.0763  -26.9621   20.5888 C   0  0  0  0  0  0  0  0  0  0  0  0
  -20.9373   -5.3200   24.0892 C   0  0  0  0  0  0  0  0  0  0  0  0
  -24.5672  -11.0366   22.4195 C   0  0  0  0  0  0  0  0  0  0  0  0
  -24.2051  -13.1424   21.0258 C   0  0  0  0  0  0  0  0  0  0  0  0
  -27.6627  -33.8906   26.6629 C   0  0  0  0  0  0  0  0  0  0  0  0
  -26.5433  -29.3321   20.4304 C   0  0  0  0  0  0  0  0  0  0  0  0
  -28.1311  -33.1196   25.5820 C   0  0  0  0  0  0  0  0  0  0  0  0
  -25.8067  -28.2791   20.9914 C   0  0  0  0  0  0  0  0  0  0  0  0
  -23.7409   -8.9807   24.1145 C   0  0  0  0  0  0  0  0  0  0  0  0
  -27.0560  -26.6974   19.6321 C   0  0  0  0  0  0  0  0  0  0  0  0
  -22.1474   -7.3364   24.6430 C   0  0  0  0  0  0  0  0  0  0  0  0
  -19.7476   -6.0467   24.0429 C   0  0  0  0  0  0  0  0  0  0  0  0
  -22.1372   -5.9649   24.3893 C   0  0  0  0  0  0  0  0  0  0  0  0
  -24.9946  -12.0986   21.5445 C   0  0  0  0  0  0  0  0  0  0  0  0
  -28.5538  -20.8775   19.4624 C   0  0  0  0  0  0  0  0  0  0  0  0
  -29.1648  -18.7236   19.5105 C   0  0  0  0  0  0  0  0  0  0  0  0
  -25.0725  -13.8797   20.2575 C   0  0  0  0  0  0  0  0  0  0  0  0
  -27.6517  -22.0145   19.7104 C   0  0  0  0  0  0  0  0  0  0  0  0
  -28.0438  -23.2731   19.9626 C   0  0  0  0  0  0  0  0  0  0  0  0
  -22.8122  -13.4206   21.2212 C   0  0  0  0  0  0  0  0  0  0  0  0
  -26.5692  -30.6462   23.3246 C   0  0  0  0  0  0  0  0  0  0  0  0
  -23.3493  -30.3569   23.0582 C   0  0  0  0  0  0  0  0  0  0  0  0
  -20.6920  -28.7671   21.6236 C   0  0  0  0  0  0  0  0  0  0  0  0
  -30.0035  -16.3483   19.4862 C   0  0  0  0  0  0  0  0  0  0  0  0
  -26.6716  -33.3416   27.6584 C   0  0  0  0  0  0  0  0  0  0  0  0
  -26.2591  -30.7554   20.8250 C   0  0  0  0  0  0  0  0  0  0  0  0
  -24.7367  -28.5214   22.0233 C   0  0  0  0  0  0  0  0  0  0  0  0
  -25.9228  -32.1097   27.1563 C   0  0  0  0  0  0  0  0  0  0  0  0
  -29.7938  -12.8744   18.7343 C   0  0  0  0  0  0  0  0  0  0  0  0
  -26.8930  -31.1148   26.5273 C   0  0  0  0  0  0  0  0  0  0  0  0
  -28.4616  -12.4487   19.3557 C   0  0  0  0  0  0  0  0  0  0  0  0
  -30.5107  -13.9178   19.5893 C   0  0  0  0  0  0  0  0  0  0  0  0
  -28.3737  -14.6708   20.5564 C   0  0  0  0  0  0  0  0  0  0  0  0
  -27.6018  -31.7275   25.3134 C   0  0  1  0  0  0  0  0  0  0  0  0
  -25.6029  -30.8755   22.1970 C   0  0  1  0  0  0  0  0  0  0  0  0
  -27.5842  -13.6687   19.6984 C   0  0  2  0  0  0  0  0  0  0  0  0
  -18.1830  -28.7239   21.6327 C   0  0  0  0  0  0  0  0  0  0  0  0
  -23.3868  -28.8790   25.7274 C   0  0  0  0  0  0  0  0  0  0  0  0
  -21.0783  -28.0520   25.2226 C   0  0  0  0  0  0  0  0  0  0  0  0
  -21.5008  -30.4992   25.4585 C   0  0  0  0  0  0  0  0  0  0  0  0
  -26.9265  -19.2574   20.4817 C   0  0  0  0  0  0  0  0  0  0  0  0
  -20.5537  -29.4814   18.7549 C   0  0  0  0  0  0  0  0  0  0  0  0
  -27.0888  -24.3938   20.2224 C   0  0  0  0  0  0  0  0  0  1  0  0
  -22.3396  -29.2890   23.4033 C   0  0  1  0  0  0  0  0  0  0  0  0
  -19.4272  -29.3024   20.9770 C   0  0  2  0  0  0  0  0  0  0  0  0
  -22.0978  -29.1747   24.9349 C   0  0  0  0  0  0  0  0  0  0  0  0
  -26.2658  -12.1635   21.1397 N   0  0  0  0  0  0  0  0  0  0  0  0
  -28.1760  -19.6145   19.8372 N   0  0  0  0  0  0  0  0  0  0  0  0
  -26.2816  -13.2569   20.3584 N   0  0  0  0  0  0  0  0  0  0  0  0
  -24.5001  -29.9298   22.3808 N   0  0  0  0  0  0  0  0  0  0  0  0
  -29.6200  -15.0459   19.8702 N   0  0  0  0  0  0  0  0  0  0  0  0
  -24.9112  -14.9936   19.5120 N   0  0  0  0  0  0  0  0  0  0  0  0
  -22.0679  -12.5616   22.0413 N   0  0  0  0  0  0  0  0  0  0  0  0
  -29.0621  -17.3355   19.7756 N   0  0  0  0  0  0  0  0  0  0  0  0
  -26.7222  -31.7330   24.1642 N   0  0  0  0  0  0  0  0  0  0  0  0
  -21.1409  -29.5955   22.6303 N   0  0  0  0  0  0  0  0  0  0  0  0
  -19.3994  -28.9552   19.5279 N   0  3  0  0  0  0  0  0  0  0  0  0
  -22.2407  -14.3924   20.6712 O   0  0  0  0  0  0  0  0  0  0  0  0
  -27.1330  -29.5629   23.4262 O   0  0  0  0  0  0  0  0  0  0  0  0
  -23.1218  -31.5281   23.3717 O   0  0  0  0  0  0  0  0  0  0  0  0
  -21.2262  -27.7171   21.2733 O   0  0  0  0  0  0  0  0  0  0  0  0
  -31.0754  -16.5676   18.9161 O   0  0  0  0  0  0  0  0  0  0  0  0
  -23.3377   -7.9780   24.9418 O   0  0  0  0  0  0  0  0  0  0  0  0
  -27.3057  -25.4154   19.2499 O   0  0  0  0  0  0  0  0  0  1  0  0
  -18.5951   -5.4273   23.7563 F   0  0  0  0  0  0  0  0  0  0  0  0
  -23.2769   -5.2613   24.4334 F   0  0  0  0  0  0  0  0  0  0  0  0
  1  2  1  0  0  0  0
  1  5  2  0  0  0  0
  2  6  2  0  0  0  0
  3  8  2  0  0  0  0
  3 17  1  0  0  0  0
  4  9  1  0  0  0  0
  4 17  2  0  0  0  0
  5 19  1  0  0  0  0
  6 21  1  0  0  0  0
  7 10  2  0  0  0  0
  7 20  1  0  0  0  0
  8 23  1  0  0  0  0
  9 23  2  0  0  0  0
 10 24  1  0  0  0  0
 11 12  2  0  0  0  0
 11 25  1  0  0  0  0
 12 26  1  0  0  0  0
 13 14  1  0  0  0  0
 13 29  2  0  0  0  0
 14 30  2  0  0  0  0
 15 22  1  0  0  0  0
 15 24  2  0  0  0  0
 16 26  2  0  0  0  0
 16 27  1  0  0  0  0
 17 28  1  0  0  0  0
 18 28  1  0  0  0  0
 18 31  2  0  0  0  0
 18 34  1  0  0  0  0
 19 21  2  0  0  0  0
 19 39  1  0  0  0  0
 20 22  2  0  0  0  0
 20 40  1  0  0  0  0
 21 48  1  0  0  0  0
 22 41  1  0  0  0  0
 23 77  1  0  0  0  0
 24 78  1  0  0  0  0
 25 27  2  0  0  0  0
 25 77  1  0  0  0  0
 26 79  1  0  0  0  0
 27 80  1  0  0  0  0
 28 61  2  0  0  0  0
 29 32  1  0  0  0  0
 29 62  1  0  0  0  0
 30 62  1  0  0  0  0
 30 68  1  0  0  0  0
 31 63  1  0  0  0  0
 31 66  1  0  0  0  0
 32 33  2  0  0  0  0
 33 57  1  0  0  0  0
 34 67  1  0  0  0  0
 34 72  2  0  0  0  0
 35 49  1  0  0  0  0
 35 69  1  0  0  0  0
 35 73  2  0  0  0  0
 36 58  1  0  0  0  0
 36 64  1  0  0  0  0
 36 74  2  0  0  0  0
 37 59  1  0  0  0  0
 37 70  1  0  0  0  0
 37 75  2  0  0  0  0
 38 65  1  0  0  0  0
 38 68  1  0  0  0  0
 38 76  2  0  0  0  0
 39 42  1  0  0  0  0
 40 49  1  0  0  0  0
 41 64  1  0  0  0  0
 42 44  1  0  0  0  0
 43 45  1  0  0  0  0
 43 46  1  0  0  0  0
 44 48  1  0  0  0  0
 45 50  1  0  0  0  0
 46 65  1  0  0  0  0
 47 50  1  0  0  0  0
 47 65  1  0  0  0  0
 48 69  1  0  0  0  0
 49 64  1  0  0  0  0
 50 63  1  0  0  0  0
 51 59  1  0  0  0  0
 52 60  1  0  0  0  0
 53 60  1  0  0  0  0
 54 60  1  0  0  0  0
 55 62  1  0  0  0  0
 56 71  1  0  0  0  0
 57 78  1  0  0  0  0
 58 60  1  0  0  0  0
 58 70  1  0  0  0  0
 59 71  1  0  0  0  0
 61 63  1  0  0  0  0
M  CHG  1  71   1
M  ISO  4  38 100  57 101  68 100  78 101
M  END
> <Batch ID>
0118

> <Smiles>
CNC(C)C(=O)NC(C(=O)N1Cc2cc([101O:1][101CH2:1]C=Cc3ccc([100NH:0][100C:0](=O)N4CCCC(n5nc(-c6ccc(Oc7ccc(F)cc7F)cc6)c(C(N)=O)c5N)C4)n3C)ccc2CC1C(=O)NC1CCCc2ccccc21)C(C)(C)C

> <Shape>
0.321

> <Color>
0.140

> <Negative vol penalty>
0.000

$$$$

  -OEChem-04052301483D

 81 89  0     1  0  0  0  0  0999 V2000
  -24.0718  -28.2282   20.1380 C   0  0  0  0  0  0  0  0  0  0  0  0
  -24.0266  -26.9329   19.6324 C   0  0  0  0  0  0  0  0  0  0  0  0
  -19.2902  -22.2576   21.9575 C   0  0  0  0  0  0  0  0  0  0  0  0
  -21.4246  -23.3874   21.8885 C   0  0  0  0  0  0  0  0  0  0  0  0
  -25.3000  -28.8155   20.4384 C   0  0  0  0  0  0  0  0  0  0  0  0
  -25.2098  -26.2246   19.4257 C   0  0  0  0  0  0  0  0  0  0  0  0
  -26.0617  -20.1991   20.1131 C   0  0  0  0  0  0  0  0  0  0  0  0
  -18.7312  -23.3536   22.6147 C   0  0  0  0  0  0  0  0  0  0  0  0
  -20.8656  -24.4835   22.5457 C   0  0  0  0  0  0  0  0  0  0  0  0
  -26.0808  -19.1444   19.2015 C   0  0  0  0  0  0  0  0  0  0  0  0
  -18.9302  -27.1384   21.7548 C   0  0  0  0  0  0  0  0  0  0  0  0
  -19.2302  -28.4089   21.2635 C   0  0  0  0  0  0  0  0  0  0  0  0
  -26.3183  -11.8983   20.5719 C   0  0  0  0  0  0  0  0  0  0  0  0
  -25.1034  -11.7412   21.2807 C   0  0  0  0  0  0  0  0  0  0  0  0
  -28.4864  -19.2882   19.0947 C   0  0  0  0  0  0  0  0  0  0  0  0
  -20.2135  -28.9991   23.3900 C   0  0  0  0  0  0  0  0  0  0  0  0
  -20.6369  -22.2744   21.5944 C   0  0  0  0  0  0  0  0  0  0  0  0
  -21.2836  -20.9282   19.5264 C   0  0  0  0  0  0  0  0  0  0  0  0
  -26.4984  -28.1106   20.2444 C   0  0  0  0  0  0  0  0  0  0  0  0
  -27.2560  -20.8144   20.5148 C   0  0  0  0  0  0  0  0  0  0  0  0
  -26.4554  -26.8036   19.7225 C   0  0  0  0  0  0  0  0  0  0  0  0
  -28.4800  -20.3488   20.0135 C   0  0  0  0  0  0  0  0  0  0  0  0
  -19.5189  -24.4665   22.9088 C   0  0  0  0  0  0  0  0  0  0  0  0
  -27.2930  -18.6907   18.6899 C   0  0  0  0  0  0  0  0  0  0  0  0
  -19.2717  -26.7983   23.0638 C   0  0  0  0  0  0  0  0  0  0  0  0
  -19.8719  -29.3392   22.0810 C   0  0  0  0  0  0  0  0  0  0  0  0
  -19.9134  -27.7286   23.8813 C   0  0  0  0  0  0  0  0  0  0  0  0
  -21.2150  -21.1423   20.9160 C   0  0  0  0  0  0  0  0  0  0  0  0
  -26.2018  -13.0758   19.8705 C   0  0  0  0  0  0  0  0  0  0  0  0
  -24.3311  -12.8339   20.9621 C   0  0  0  0  0  0  0  0  0  0  0  0
  -21.9208  -19.7184   19.3964 C   0  0  0  0  0  0  0  0  0  0  0  0
  -27.2013  -13.6853   18.9776 C   0  0  0  0  0  0  0  0  0  0  0  0
  -27.0338  -14.8299   18.2967 C   0  0  0  0  0  0  0  0  0  0  0  0
  -20.8135  -21.7495   18.4492 C   0  0  0  0  0  0  0  0  0  0  0  0
  -23.0225  -13.2150   21.3708 C   0  0  0  0  0  0  0  0  0  0  0  0
  -22.3748  -14.4541   20.8955 C   0  0  0  0  0  0  0  0  0  0  0  0
  -28.4567  -23.7482   20.2810 C   0  0  0  0  0  0  0  0  0  0  0  0
  -30.8115  -22.5118   22.1381 C   0  0  0  0  0  0  0  0  0  0  0  0
  -32.5092  -19.7515   23.2083 C   0  0  0  0  0  0  0  0  0  0  0  0
  -27.8047  -28.8045   20.5391 C   0  0  0  0  0  0  0  0  0  0  0  0
  -27.2204  -21.9333   21.5194 C   0  0  0  0  0  0  0  0  0  0  0  0
  -29.7916  -20.9621   20.4283 C   0  0  0  0  0  0  0  0  0  0  0  0
  -28.9914  -27.8500   20.6437 C   0  0  0  0  0  0  0  0  0  0  0  0
  -24.3630  -16.8880   22.7809 C   0  0  0  0  0  0  0  0  0  0  0  0
  -28.9825  -26.8582   19.4848 C   0  0  0  0  0  0  0  0  0  0  0  0
  -23.6856  -18.1953   22.3784 C   0  0  0  0  0  0  0  0  0  0  0  0
  -23.3678  -15.7321   22.8696 C   0  0  0  0  0  0  0  0  0  0  0  0
  -21.8880  -16.8473   21.2243 C   0  0  0  0  0  0  0  0  0  0  0  0
  -27.7158  -25.9942   19.5078 C   0  0  1  0  0  0  0  0  0  0  0  0
  -28.4578  -22.8241   21.4657 C   0  0  1  0  0  0  0  0  0  0  0  0
  -22.8784  -18.0138   21.0832 C   0  0  1  0  0  0  0  0  0  0  0  0
  -34.4075  -19.0608   24.6972 C   0  0  0  0  0  0  0  0  0  0  0  0
  -32.8052  -23.5009   20.0508 C   0  0  0  0  0  0  0  0  0  0  0  0
  -34.5203  -21.9920   21.0754 C   0  0  0  0  0  0  0  0  0  0  0  0
  -33.5233  -23.8399   22.4223 C   0  0  0  0  0  0  0  0  0  0  0  0
  -30.7311  -18.1033   24.9056 C   0  0  0  0  0  0  0  0  0  0  0  0
  -28.0785  -15.4114   17.3839 C   0  0  0  0  0  0  0  0  0  0  0  0
  -28.4693  -16.8237   17.8032 C   0  0  0  0  0  0  0  0  0  1  0  0
  -32.1212  -21.8081   21.8763 C   0  0  1  0  0  0  0  0  0  0  0  0
  -32.9073  -19.2901   24.5987 C   0  0  2  0  0  0  0  0  0  0  0  0
  -33.2178  -22.7747   21.3467 C   0  0  0  0  0  0  0  0  0  0  0  0
  -21.7645  -20.1482   21.6187 N   0  0  0  0  0  0  0  0  0  0  0  0
  -22.2640  -12.5151   22.1989 N   0  0  0  0  0  0  0  0  0  0  0  0
  -22.1844  -19.2977   20.6667 N   0  0  0  0  0  0  0  0  0  0  0  0
  -22.5673  -15.6156   21.6414 N   0  0  0  0  0  0  0  0  0  0  0  0
  -29.7040  -22.0574   21.4081 N   0  0  0  0  0  0  0  0  0  0  0  0
  -22.2755  -18.9840   18.3206 N   0  0  0  0  0  0  0  0  0  0  0  0
  -20.1813  -22.9612   18.7597 N   0  0  0  0  0  0  0  0  0  0  0  0
  -27.8293  -24.9576   20.5114 N   0  0  0  0  0  0  0  0  0  0  0  0
  -32.4737  -21.1269   23.1173 N   0  0  0  0  0  0  0  0  0  0  0  0
  -32.2137  -18.0160   24.9400 N   0  3  0  0  0  0  0  0  0  0  0  0
  -20.9354  -21.4109   17.2476 O   0  0  0  0  0  0  0  0  0  0  0  0
  -21.6978  -14.3838   19.8682 O   0  0  0  0  0  0  0  0  0  0  0  0
  -28.9873  -23.3911   19.2357 O   0  0  0  0  0  0  0  0  0  0  0  0
  -30.7710  -23.4262   22.9651 O   0  0  0  0  0  0  0  0  0  0  0  0
  -32.2585  -18.9701   22.2935 O   0  0  0  0  0  0  0  0  0  0  0  0
  -24.9935  -13.6523   20.1030 O   0  0  0  0  0  0  0  0  0  0  0  0
  -18.9738  -25.5363   23.5499 O   0  0  0  0  0  0  0  0  0  0  0  0
  -27.3145  -17.6619   17.7994 O   0  0  0  0  0  0  0  0  0  1  0  0
  -20.1614  -30.5587   21.6085 F   0  0  0  0  0  0  0  0  0  0  0  0
  -20.2450  -27.4072   25.1393 F   0  0  0  0  0  0  0  0  0  0  0  0
  1  2  1  0  0  0  0
  1  5  2  0  0  0  0
  2  6  2  0  0  0  0
  3  8  2  0  0  0  0
  3 17  1  0  0  0  0
  4  9  1  0  0  0  0
  4 17  2  0  0  0  0
  5 19  1  0  0  0  0
  6 21  1  0  0  0  0
  7 10  2  0  0  0  0
  7 20  1  0  0  0  0
  8 23  1  0  0  0  0
  9 23  2  0  0  0  0
 10 24  1  0  0  0  0
 11 12  2  0  0  0  0
 11 25  1  0  0  0  0
 12 26  1  0  0  0  0
 13 14  1  0  0  0  0
 13 29  2  0  0  0  0
 14 30  2  0  0  0  0
 15 22  1  0  0  0  0
 15 24  2  0  0  0  0
 16 26  2  0  0  0  0
 16 27  1  0  0  0  0
 17 28  1  0  0  0  0
 18 28  1  0  0  0  0
 18 31  2  0  0  0  0
 18 34  1  0  0  0  0
 19 21  2  0  0  0  0
 19 40  1  0  0  0  0
 20 22  2  0  0  0  0
 20 41  1  0  0  0  0
 21 49  1  0  0  0  0
 22 42  1  0  0  0  0
 23 78  1  0  0  0  0
 24 79  1  0  0  0  0
 25 27  2  0  0  0  0
 25 78  1  0  0  0  0
 26 80  1  0  0  0  0
 27 81  1  0  0  0  0
 28 62  2  0  0  0  0
 29 32  1  0  0  0  0
 29 77  1  0  0  0  0
 30 35  1  0  0  0  0
 30 77  1  0  0  0  0
 31 64  1  0  0  0  0
 31 67  1  0  0  0  0
 32 33  2  0  0  0  0
 33 57  1  0  0  0  0
 34 68  1  0  0  0  0
 34 72  2  0  0  0  0
 35 36  1  0  0  0  0
 35 63  2  0  0  0  0
 36 65  1  0  0  0  0
 36 73  2  0  0  0  0
 37 50  1  0  0  0  0
 37 69  1  0  0  0  0
 37 74  2  0  0  0  0
 38 59  1  0  0  0  0
 38 66  1  0  0  0  0
 38 75  2  0  0  0  0
 39 60  1  0  0  0  0
 39 70  1  0  0  0  0
 39 76  2  0  0  0  0
 40 43  1  0  0  0  0
 41 50  1  0  0  0  0
 42 66  1  0  0  0  0
 43 45  1  0  0  0  0
 44 46  1  0  0  0  0
 44 47  1  0  0  0  0
 45 49  1  0  0  0  0
 46 51  1  0  0  0  0
 47 65  1  0  0  0  0
 48 51  1  0  0  0  0
 48 65  1  0  0  0  0
 49 69  1  0  0  0  0
 50 66  1  0  0  0  0
 51 64  1  0  0  0  0
 52 60  1  0  0  0  0
 53 61  1  0  0  0  0
 54 61  1  0  0  0  0
 55 61  1  0  0  0  0
 56 71  1  0  0  0  0
 57 58  1  0  0  0  0
 58 79  1  0  0  0  0
 59 61  1  0  0  0  0
 59 70  1  0  0  0  0
 60 71  1  0  0  0  0
 62 64  1  0  0  0  0
M  CHG  1  71   1
M  ISO  4  35 100  36 100  58 101  79 101
M  END
> <Batch ID>
0118

> <Smiles>
CNC(C)C(=O)NC(C(=O)N1Cc2cc([101O:1][101CH2:1]CC=Cc3ccc([100C:0](=N)[100C:0](=O)N4CCCC(n5nc(-c6ccc(Oc7ccc(F)cc7F)cc6)c(C(N)=O)c5N)C4)o3)ccc2CC1C(=O)NC1CCCc2ccccc21)C(C)(C)C

> <Shape>
0.195

> <Color>
0.079

> <Negative vol penalty>
0.000

$$$$

  -OEChem-04052301483D

 89 98  0     1  0  0  0  0  0999 V2000
  -17.9144  -26.5333   23.7414 C   0  0  0  0  0  0  0  0  0  0  0  0
  -19.1197  -26.0518   23.2407 C   0  0  0  0  0  0  0  0  0  0  0  0
  -23.4052  -17.1737   22.0443 C   0  0  0  0  0  0  0  0  0  0  0  0
  -24.4894  -19.0954   23.0285 C   0  0  0  0  0  0  0  0  0  0  0  0
  -17.5299  -27.8486   23.4844 C   0  0  0  0  0  0  0  0  0  0  0  0
  -19.9408  -26.8850   22.4817 C   0  0  0  0  0  0  0  0  0  0  0  0
  -26.0640  -26.9160   22.3760 C   0  0  0  0  0  0  0  0  0  0  0  0
  -22.4362  -18.0067   21.4852 C   0  0  0  0  0  0  0  0  0  0  0  0
  -23.5204  -19.9285   22.4693 C   0  0  0  0  0  0  0  0  0  0  0  0
  -26.9898  -26.3539   21.4982 C   0  0  0  0  0  0  0  0  0  0  0  0
  -22.8515  -21.2917   19.4502 C   0  0  0  0  0  0  0  0  0  0  0  0
  -23.2859  -22.4626   18.8290 C   0  0  0  0  0  0  0  0  0  0  0  0
  -27.1400  -28.4542   20.3212 C   0  0  0  0  0  0  0  0  0  0  0  0
  -29.9917  -22.8897   19.0474 C   0  0  0  0  0  0  0  0  0  0  0  0
  -28.7732  -20.3842   18.9049 C   0  0  0  0  0  0  0  0  0  0  0  0
  -21.9740  -23.7715   20.3791 C   0  0  0  0  0  0  0  0  0  0  0  0
  -24.4318  -17.7181   22.8160 C   0  0  0  0  0  0  0  0  0  0  0  0
  -25.2252  -15.8044   24.3046 C   0  0  0  0  0  0  0  0  0  0  0  0
  -18.3512  -28.7013   22.7301 C   0  0  0  0  0  0  0  0  0  0  0  0
  -25.6603  -28.2506   22.2261 C   0  0  0  0  0  0  0  0  0  0  0  0
  -19.5663  -28.2126   22.2133 C   0  0  0  0  0  0  0  0  0  0  0  0
  -26.2109  -29.0316   21.2000 C   0  0  0  0  0  0  0  0  0  0  0  0
  -30.2423  -21.9353   20.0332 C   0  0  0  0  0  0  0  0  0  0  0  0
  -29.1318  -22.5914   17.9904 C   0  0  0  0  0  0  0  0  0  0  0  0
  -29.6331  -20.6825   19.9620 C   0  0  0  0  0  0  0  0  0  0  0  0
  -22.4938  -19.3841   21.6976 C   0  0  0  0  0  0  0  0  0  0  0  0
  -27.5258  -27.1221   20.4688 C   0  0  0  0  0  0  0  0  0  0  0  0
  -21.9783  -21.3606   20.5358 C   0  0  0  0  0  0  0  0  0  0  0  0
  -22.8472  -23.7025   19.2935 C   0  0  0  0  0  0  0  0  0  0  0  0
  -28.5226  -21.3387   17.9191 C   0  0  0  0  0  0  0  0  0  0  0  0
  -21.5396  -22.6006   21.0003 C   0  0  0  0  0  0  0  0  0  0  0  0
  -25.4328  -16.8580   23.3944 C   0  0  0  0  0  0  0  0  0  0  0  0
  -26.4822  -15.3055   24.5448 C   0  0  0  0  0  0  0  0  0  0  0  0
  -30.0479  -26.2471   16.6111 C   0  0  0  0  0  0  0  0  0  0  0  0
  -28.9288  -26.0208   17.3227 C   0  0  0  0  0  0  0  0  0  0  0  0
  -30.6256  -25.3262   15.6001 C   0  0  0  0  0  0  0  0  0  0  0  0
  -24.0053  -15.3198   24.8814 C   0  0  0  0  0  0  0  0  0  0  0  0
  -22.8965  -29.7053   21.6355 C   0  0  0  0  0  0  0  0  0  0  0  0
  -24.6447  -32.3883   22.1530 C   0  0  0  0  0  0  0  0  0  0  0  0
  -26.1208  -35.4595   22.3413 C   0  0  0  0  0  0  0  0  0  0  0  0
  -29.3432  -18.4087   21.0274 C   0  0  0  0  0  0  0  0  0  0  0  0
  -17.8710  -30.1011   22.4386 C   0  0  0  0  0  0  0  0  0  0  0  0
  -24.6808  -28.8499   23.1977 C   0  0  0  0  0  0  0  0  0  0  0  0
  -25.8258  -30.4751   21.0085 C   0  0  0  0  0  0  0  0  0  0  0  0
  -29.6881  -24.4432   14.8158 C   0  0  0  0  0  0  0  0  0  0  0  0
  -18.9739  -31.0322   21.9416 C   0  0  0  0  0  0  0  0  0  0  0  0
  -30.9007  -17.2461   24.3574 C   0  0  0  0  0  0  0  0  0  0  0  0
  -19.8033  -30.3475   20.8599 C   0  0  0  0  0  0  0  0  0  0  0  0
  -29.5562  -16.7003   24.8212 C   0  0  0  0  0  0  0  0  0  0  0  0
  -29.2255  -23.2340   15.6124 C   0  0  0  0  0  0  0  0  0  0  0  0
  -30.7092  -18.1860   23.1702 C   0  0  0  0  0  0  0  0  0  0  0  0
  -29.3772  -16.2666   22.2905 C   0  0  0  0  0  0  0  0  0  0  0  0
  -20.4957  -29.0933   21.4067 C   0  0  1  0  0  0  0  0  0  0  0  0
  -28.0904  -24.7492   17.3452 C   0  0  1  0  0  0  0  0  0  0  0  0
  -23.9546  -30.0693   22.6383 C   0  0  1  0  0  0  0  0  0  0  0  0
  -28.8431  -15.9236   23.6963 C   0  0  2  0  0  0  0  0  0  0  0  0
  -31.1656  -22.2828   21.1556 C   0  0  0  0  0  0  0  0  0  0  0  0
  -26.8073  -24.8471   16.5128 C   0  0  0  0  0  0  0  0  0  0  0  0
  -25.8194  -37.8387   21.6023 C   0  0  0  0  0  0  0  0  0  0  0  0
  -25.5281  -31.6223   19.3347 C   0  0  0  0  0  0  0  0  0  0  0  0
  -26.1199  -34.0232   18.9427 C   0  0  0  0  0  0  0  0  0  0  0  0
  -23.7578  -33.3861   19.4297 C   0  0  0  0  0  0  0  0  0  0  0  0
  -26.0048  -36.4340   25.1334 C   0  0  0  0  0  0  0  0  0  0  0  0
  -28.4538  -27.0901   18.2794 C   0  0  0  0  0  0  0  0  0  1  0  0
  -25.4704  -33.3097   21.2879 C   0  0  1  0  0  0  0  0  0  0  0  0
  -25.5642  -36.8240   22.7059 C   0  0  2  0  0  0  0  0  0  0  0  0
  -25.2306  -33.0709   19.7704 C   0  0  0  0  0  0  0  0  0  0  0  0
  -26.7203  -17.0200   23.0780 N   0  0  0  0  0  0  0  0  0  0  0  0
  -27.3331  -16.0614   23.7934 N   0  0  0  0  0  0  0  0  0  0  0  0
  -28.8806  -23.5514   17.0011 N   0  0  3  0  0  0  0  0  0  0  0  0
  -24.8598  -31.0136   21.9802 N   0  0  0  0  0  0  0  0  0  0  0  0
  -29.7831  -17.6676   22.1527 N   0  0  0  0  0  0  0  0  0  0  0  0
  -26.9315  -14.2984   25.3234 N   0  0  0  0  0  0  0  0  0  0  0  0
  -23.5690  -15.8798   26.0899 N   0  0  0  0  0  0  0  0  0  0  0  0
  -29.8735  -19.6996   20.9551 N   0  0  0  0  0  0  0  0  0  0  0  0
  -21.6559  -29.4579   22.1913 N   0  0  0  0  0  0  0  0  0  0  0  0
  -25.1706  -34.6660   21.7341 N   0  0  0  0  0  0  0  0  0  0  0  0
  -26.1972  -37.3235   23.9592 N   0  3  0  0  0  0  0  0  0  0  0  0
  -31.8364  -25.3382   15.3864 O   0  0  0  0  0  0  0  0  0  0  0  0
  -23.3309  -14.4056   24.3495 O   0  0  0  0  0  0  0  0  0  0  0  0
  -23.1841  -29.6542   20.4453 O   0  0  0  0  0  0  0  0  0  0  0  0
  -23.8436  -32.8707   22.9575 O   0  0  0  0  0  0  0  0  0  0  0  0
  -27.2833  -35.1318   22.5688 O   0  0  0  0  0  0  0  0  0  0  0  0
  -28.5648  -17.9295   20.2002 O   0  0  0  0  0  0  0  0  0  0  0  0
  -21.5486  -20.1973   21.1519 O   0  0  0  0  0  0  0  0  0  0  0  0
  -28.4292  -26.5757   19.6102 O   0  0  0  0  0  0  0  0  0  1  0  0
  -23.2656  -24.8269   18.6979 F   0  0  0  0  0  0  0  0  0  0  0  0
  -27.6933  -21.0412   16.9086 F   0  0  0  0  0  0  0  0  0  0  0  0
  -20.7017  -22.6733   22.0435 F   0  0  0  0  0  0  0  0  0  0  0  0
  1  2  1  0  0  0  0
  1  5  2  0  0  0  0
  2  6  2  0  0  0  0
  3  8  2  0  0  0  0
  3 17  1  0  0  0  0
  4  9  1  0  0  0  0
  4 17  2  0  0  0  0
  5 19  1  0  0  0  0
  6 21  1  0  0  0  0
  7 10  2  0  0  0  0
  7 20  1  0  0  0  0
  8 26  1  0  0  0  0
  9 26  2  0  0  0  0
 10 27  1  0  0  0  0
 11 12  2  0  0  0  0
 11 28  1  0  0  0  0
 12 29  1  0  0  0  0
 13 22  1  0  0  0  0
 13 27  2  0  0  0  0
 14 23  2  0  0  0  0
 14 24  1  0  0  0  0
 15 25  2  0  0  0  0
 15 30  1  0  0  0  0
 16 29  2  0  0  0  0
 16 31  1  0  0  0  0
 17 32  1  0  0  0  0
 18 32  1  0  0  0  0
 18 33  2  0  0  0  0
 18 37  1  0  0  0  0
 19 21  2  0  0  0  0
 19 42  1  0  0  0  0
 20 22  2  0  0  0  0
 20 43  1  0  0  0  0
 21 53  1  0  0  0  0
 22 44  1  0  0  0  0
 23 25  1  0  0  0  0
 23 57  1  0  0  0  0
 24 30  2  0  0  0  0
 24 70  1  0  0  0  0
 25 75  1  0  0  0  0
 26 85  1  0  0  0  0
 27 86  1  0  0  0  0
 28 31  2  0  0  0  0
 28 85  1  0  0  0  0
 29 87  1  0  0  0  0
 30 88  1  0  0  0  0
 31 89  1  0  0  0  0
 32 68  2  0  0  0  0
 33 69  1  0  0  0  0
 33 73  1  0  0  0  0
 34 35  2  0  0  0  0
 34 36  1  0  0  0  0
 35 54  1  0  0  0  0
 35 64  1  0  0  0  0
 36 45  1  0  0  0  0
 36 79  2  0  0  0  0
 37 74  1  0  0  0  0
 37 80  2  0  0  0  0
 38 55  1  0  0  0  0
 38 76  1  0  0  0  0
 38 81  2  0  0  0  0
 39 65  1  0  0  0  0
 39 71  1  0  0  0  0
 39 82  2  0  0  0  0
 40 66  1  0  0  0  0
 40 77  1  0  0  0  0
 40 83  2  0  0  0  0
 41 72  1  0  0  0  0
 41 75  1  0  0  0  0
 41 84  2  0  0  0  0
 42 46  1  0  0  0  0
 43 55  1  0  0  0  0
 44 71  1  0  0  0  0
 45 50  1  0  0  0  0
 46 48  1  0  0  0  0
 47 49  1  0  0  0  0
 47 51  1  0  0  0  0
 48 53  1  0  0  0  0
 49 56  1  0  0  0  0
 50 70  1  0  0  0  0
 51 72  1  0  0  0  0
 52 56  1  0  0  0  0
 52 72  1  0  0  0  0
 53 76  1  0  0  0  0
 54 58  1  0  0  0  0
 54 70  1  0  0  0  0
 55 71  1  0  0  0  0
 56 69  1  0  0  0  0
 59 66  1  0  0  0  0
 60 67  1  0  0  0  0
 61 67  1  0  0  0  0
 62 67  1  0  0  0  0
 63 78  1  0  0  0  0
 64 86  1  0  0  0  0
 65 67  1  0  0  0  0
 65 77  1  0  0  0  0
 66 78  1  0  0  0  0
 68 69  1  0  0  0  0
M  CHG  1  78   1
M  ISO  4  41 100  64 101  75 100  86 101
M  END
> <Batch ID>
0118

> <Smiles>
CNC(C)C(=O)NC(C(=O)N1Cc2cc([101O:1][101CH2:1]C3=C(C)N(c4cc(C)c([100NH:0][100C:0](=O)N5CCCC(n6nc(-c7ccc(Oc8ccc(F)cc8F)cc7)c(C(N)=O)c6N)C5)cc4F)CCC(=O)C3)ccc2CC1C(=O)NC1CCCc2ccccc21)C(C)(C)C

> <Shape>
0.209

> <Color>
0.106

> <Negative vol penalty>
0.000

$$$$

  -OEChem-04052301483D

 85 94  0     1  0  0  0  0  0999 V2000
  -26.7983  -34.2517   25.7098 C   0  0  0  0  0  0  0  0  0  0  0  0
  -27.2136  -33.0757   25.0935 C   0  0  0  0  0  0  0  0  0  0  0  0
  -23.6485  -13.7812   22.7290 C   0  0  0  0  0  0  0  0  0  0  0  0
  -25.5197  -14.3090   21.2948 C   0  0  0  0  0  0  0  0  0  0  0  0
  -25.4673  -34.4023   26.0965 C   0  0  0  0  0  0  0  0  0  0  0  0
  -26.2982  -32.0489   24.8646 C   0  0  0  0  0  0  0  0  0  0  0  0
  -26.7133  -30.0760   20.2191 C   0  0  0  0  0  0  0  0  0  0  0  0
  -23.3170  -12.7082   21.9017 C   0  0  0  0  0  0  0  0  0  0  0  0
  -25.1883  -13.2360   20.4675 C   0  0  0  0  0  0  0  0  0  0  0  0
  -27.7602  -29.1821   19.9982 C   0  0  0  0  0  0  0  0  0  0  0  0
  -24.3867   -9.5436   21.3779 C   0  0  0  0  0  0  0  0  0  0  0  0
  -24.0704   -8.3292   21.9868 C   0  0  0  0  0  0  0  0  0  0  0  0
  -26.2274  -27.3357   20.2438 C   0  0  0  0  0  0  0  0  0  0  0  0
  -31.7917  -21.7507   19.1812 C   0  0  0  0  0  0  0  0  0  0  0  0
  -30.6689  -20.3177   20.7695 C   0  0  0  0  0  0  0  0  0  0  0  0
  -29.6420  -22.3923   20.0778 C   0  0  0  0  0  0  0  0  0  0  0  0
  -21.8769   -8.3938   20.9760 C   0  0  0  0  0  0  0  0  0  0  0  0
  -24.7498  -14.5817   22.4255 C   0  0  0  0  0  0  0  0  0  0  0  0
  -25.4294  -15.6393   24.6452 C   0  0  0  0  0  0  0  0  0  0  0  0
  -24.5330  -33.3807   25.8636 C   0  0  0  0  0  0  0  0  0  0  0  0
  -25.4155  -29.6054   20.4653 C   0  0  0  0  0  0  0  0  0  0  0  0
  -24.9537  -32.1854   25.2498 C   0  0  0  0  0  0  0  0  0  0  0  0
  -25.1653  -28.2257   20.4650 C   0  0  0  0  0  0  0  0  0  0  0  0
  -31.7598  -20.5816   19.9412 C   0  0  0  0  0  0  0  0  0  0  0  0
  -30.7328  -22.6562   19.2495 C   0  0  0  0  0  0  0  0  0  0  0  0
  -29.6100  -21.2231   20.8378 C   0  0  0  0  0  0  0  0  0  0  0  0
  -24.0870  -12.4355   20.7710 C   0  0  0  0  0  0  0  0  0  0  0  0
  -27.5179  -27.8117   20.0134 C   0  0  0  0  0  0  0  0  0  0  0  0
  -23.4481  -10.1832   20.5681 C   0  0  0  0  0  0  0  0  0  0  0  0
  -22.8155   -7.7543   21.7859 C   0  0  0  0  0  0  0  0  0  0  0  0
  -22.1933   -9.6083   20.3672 C   0  0  0  0  0  0  0  0  0  0  0  0
  -25.0923  -15.6906   23.2793 C   0  0  0  0  0  0  0  0  0  0  0  0
  -25.6671  -16.9476   24.9895 C   0  0  0  0  0  0  0  0  0  0  0  0
  -30.2270  -26.1978   18.2906 C   0  0  0  0  0  0  0  0  0  0  0  0
  -29.2071  -27.0084   18.6091 C   0  0  0  0  0  0  0  0  0  1  0  0
  -25.5198  -14.5101   25.5240 C   0  0  0  0  0  0  0  0  0  0  0  0
  -23.3768  -29.8145   22.8951 C   0  0  0  0  0  0  0  0  0  0  0  0
  -21.3591  -28.3492   20.8204 C   0  0  0  0  0  0  0  0  0  0  0  0
  -20.9692  -26.3717   18.0665 C   0  0  0  0  0  0  0  0  0  0  0  0
  -27.3694  -21.7469   21.8632 C   0  0  0  0  0  0  0  0  0  0  0  0
  -23.1154  -33.5705   26.3421 C   0  0  0  0  0  0  0  0  0  0  0  0
  -24.2920  -30.5832   20.6753 C   0  0  0  0  0  0  0  0  0  0  0  0
  -23.7861  -27.6698   20.7044 C   0  0  0  0  0  0  0  0  0  0  0  0
  -30.9489  -26.2943   16.9756 C   0  0  0  0  0  0  0  0  0  0  0  0
  -30.7153  -25.1099   19.2126 C   0  0  0  0  0  0  0  0  0  0  0  0
  -22.1271  -32.5842   25.7251 C   0  0  0  0  0  0  0  0  0  0  0  0
  -30.9261  -24.9353   16.2845 C   0  0  0  0  0  0  0  0  0  0  0  0
  -24.4097  -21.4167   23.8148 C   0  0  0  0  0  0  0  0  0  0  0  0
  -22.6879  -31.1664   25.7726 C   0  0  0  0  0  0  0  0  0  0  0  0
  -24.2829  -19.9066   24.0284 C   0  0  0  0  0  0  0  0  0  0  0  0
  -31.4596  -23.8235   17.1906 C   0  0  0  0  0  0  0  0  0  0  0  0
  -24.9487  -21.7496   22.4247 C   0  0  0  0  0  0  0  0  0  0  0  0
  -26.0753  -19.5635   22.2801 C   0  0  0  0  0  0  0  0  0  0  0  0
  -23.9852  -31.0588   24.9620 C   0  0  1  0  0  0  0  0  0  0  0  0
  -23.1083  -29.9811   21.4261 C   0  0  1  0  0  0  0  0  0  0  0  0
  -25.5977  -19.1772   23.6894 C   0  0  2  0  0  0  0  0  0  0  0  0
  -32.8920  -19.6137   19.8681 C   0  0  0  0  0  0  0  0  0  0  0  0
  -19.1998  -25.3166   16.6335 C   0  0  0  0  0  0  0  0  0  0  0  0
  -20.8736  -26.2436   22.9746 C   0  0  0  0  0  0  0  0  0  0  0  0
  -19.8957  -24.7628   21.2085 C   0  0  0  0  0  0  0  0  0  0  0  0
  -18.8242  -26.9544   21.7298 C   0  0  0  0  0  0  0  0  0  0  0  0
  -21.8713  -27.8464   15.6642 C   0  0  0  0  0  0  0  0  0  0  0  0
  -21.0252  -26.9154   20.4863 C   0  0  1  0  0  0  0  0  0  0  0  0
  -20.1010  -26.5256   16.8307 C   0  0  2  0  0  0  0  0  0  0  0  0
  -20.1811  -26.2292   21.5972 C   0  0  0  0  0  0  0  0  0  0  0  0
  -25.1126  -16.9330   22.7895 N   0  0  0  0  0  0  0  0  0  0  0  0
  -25.4653  -17.6746   23.8533 N   0  0  0  0  0  0  0  0  0  0  0  0
  -30.7653  -23.8307   18.4859 N   0  0  1  0  0  0  0  0  0  0  0  0
  -22.7220  -28.6660   20.9109 N   0  0  0  0  0  0  0  0  0  0  0  0
  -26.1973  -21.0261   22.1754 N   0  0  0  0  0  0  0  0  0  0  0  0
  -26.0268  -17.5354   26.1503 N   0  0  0  0  0  0  0  0  0  0  0  0
  -26.7495  -13.8468   25.6353 N   0  0  0  0  0  0  0  0  0  0  0  0
  -28.5019  -20.9544   21.6790 N   0  0  0  0  0  0  0  0  0  0  0  0
  -23.6925  -30.9917   23.5463 N   0  0  0  0  0  0  0  0  0  0  0  0
  -20.3822  -26.9405   19.1770 N   0  0  0  0  0  0  0  0  0  0  0  0
  -20.9512  -26.6810   15.6165 N   0  3  0  0  0  0  0  0  0  0  0  0
  -24.5350  -14.0914   26.1785 O   0  0  0  0  0  0  0  0  0  0  0  0
  -23.3015  -28.7007   23.4005 O   0  0  0  0  0  0  0  0  0  0  0  0
  -20.4446  -29.1600   20.9877 O   0  0  0  0  0  0  0  0  0  0  0  0
  -22.0573  -25.8006   18.0492 O   0  0  0  0  0  0  0  0  0  0  0  0
  -27.3744  -22.9786   21.7933 O   0  0  0  0  0  0  0  0  0  0  0  0
  -23.7640  -11.3884   19.9637 O   0  0  0  0  0  0  0  0  0  0  0  0
  -28.5380  -26.9370   19.7987 O   0  0  0  0  0  0  0  0  0  1  0  0
  -22.5124   -6.5874   22.3694 F   0  0  0  0  0  0  0  0  0  0  0  0
  -21.2879  -10.2174   19.5893 F   0  0  0  0  0  0  0  0  0  0  0  0
  1  2  1  0  0  0  0
  1  5  2  0  0  0  0
  2  6  2  0  0  0  0
  3  8  2  0  0  0  0
  3 18  1  0  0  0  0
  4  9  1  0  0  0  0
  4 18  2  0  0  0  0
  5 20  1  0  0  0  0
  6 22  1  0  0  0  0
  7 10  2  0  0  0  0
  7 21  1  0  0  0  0
  8 27  1  0  0  0  0
  9 27  2  0  0  0  0
 10 28  1  0  0  0  0
 11 12  2  0  0  0  0
 11 29  1  0  0  0  0
 12 30  1  0  0  0  0
 13 23  1  0  0  0  0
 13 28  2  0  0  0  0
 14 24  2  0  0  0  0
 14 25  1  0  0  0  0
 15 24  1  0  0  0  0
 15 26  2  0  0  0  0
 16 25  2  0  0  0  0
 16 26  1  0  0  0  0
 17 30  2  0  0  0  0
 17 31  1  0  0  0  0
 18 32  1  0  0  0  0
 19 32  1  0  0  0  0
 19 33  2  0  0  0  0
 19 36  1  0  0  0  0
 20 22  2  0  0  0  0
 20 41  1  0  0  0  0
 21 23  2  0  0  0  0
 21 42  1  0  0  0  0
 22 54  1  0  0  0  0
 23 43  1  0  0  0  0
 24 57  1  0  0  0  0
 25 68  1  0  0  0  0
 26 73  1  0  0  0  0
 27 82  1  0  0  0  0
 28 83  1  0  0  0  0
 29 31  2  0  0  0  0
 29 82  1  0  0  0  0
 30 84  1  0  0  0  0
 31 85  1  0  0  0  0
 32 66  2  0  0  0  0
 33 67  1  0  0  0  0
 33 71  1  0  0  0  0
 34 35  2  0  0  0  0
 34 44  1  0  0  0  0
 34 45  1  0  0  0  0
 35 83  1  0  0  0  0
 36 72  1  0  0  0  0
 36 77  2  0  0  0  0
 37 55  1  0  0  0  0
 37 74  1  0  0  0  0
 37 78  2  0  0  0  0
 38 63  1  0  0  0  0
 38 69  1  0  0  0  0
 38 79  2  0  0  0  0
 39 64  1  0  0  0  0
 39 75  1  0  0  0  0
 39 80  2  0  0  0  0
 40 70  1  0  0  0  0
 40 73  1  0  0  0  0
 40 81  2  0  0  0  0
 41 46  1  0  0  0  0
 42 55  1  0  0  0  0
 43 69  1  0  0  0  0
 44 47  1  0  0  0  0
 45 68  1  0  0  0  0
 46 49  1  0  0  0  0
 47 51  1  0  0  0  0
 48 50  1  0  0  0  0
 48 52  1  0  0  0  0
 49 54  1  0  0  0  0
 50 56  1  0  0  0  0
 51 68  1  0  0  0  0
 52 70  1  0  0  0  0
 53 56  1  0  0  0  0
 53 70  1  0  0  0  0
 54 74  1  0  0  0  0
 55 69  1  0  0  0  0
 56 67  1  0  0  0  0
 58 64  1  0  0  0  0
 59 65  1  0  0  0  0
 60 65  1  0  0  0  0
 61 65  1  0  0  0  0
 62 76  1  0  0  0  0
 63 65  1  0  0  0  0
 63 75  1  0  0  0  0
 64 76  1  0  0  0  0
 66 67  1  0  0  0  0
M  CHG  1  76   1
M  ISO  4  35 101  40 100  73 100  83 101
M  END
> <Batch ID>
0118

> <Smiles>
CNC(C)C(=O)NC(C(=O)N1Cc2cc([101O:1][101CH:1]=C3CCCN(c4cc(C)cc([100NH:0][100C:0](=O)N5CCCC(n6nc(-c7ccc(Oc8ccc(F)cc8F)cc7)c(C(N)=O)c6N)C5)c4)C3)ccc2CC1C(=O)NC1CCCc2ccccc21)C(C)(C)C

> <Shape>
0.268

> <Color>
0.074

> <Negative vol penalty>
0.000

$$$$

  -OEChem-04052301483D

 84 92  0     1  0  0  0  0  0999 V2000
  -32.0085  -37.8840   21.5108 C   0  0  0  0  0  0  0  0  0  0  0  0
  -32.2072  -36.5361   21.2298 C   0  0  0  0  0  0  0  0  0  0  0  0
  -23.3213   -9.6189   20.1898 C   0  0  0  0  0  0  0  0  0  0  0  0
  -23.9052  -10.0447   22.4952 C   0  0  0  0  0  0  0  0  0  0  0  0
  -31.1879  -38.2598   22.5735 C   0  0  0  0  0  0  0  0  0  0  0  0
  -31.5861  -35.5630   22.0120 C   0  0  0  0  0  0  0  0  0  0  0  0
  -29.4560  -30.1370   20.1340 C   0  0  0  0  0  0  0  0  0  0  0  0
  -22.6880   -8.4354   20.5688 C   0  0  0  0  0  0  0  0  0  0  0  0
  -23.2717   -8.8612   22.8742 C   0  0  0  0  0  0  0  0  0  0  0  0
  -29.9916  -28.8508   20.1839 C   0  0  0  0  0  0  0  0  0  0  0  0
  -20.1112   -7.7892   23.4055 C   0  0  0  0  0  0  0  0  0  0  0  0
  -19.2786   -7.8310   24.5238 C   0  0  0  0  0  0  0  0  0  0  0  0
  -30.2478  -21.6349   19.2887 C   0  0  0  0  0  0  0  0  0  0  0  0
  -28.7639  -28.4249   22.2163 C   0  0  0  0  0  0  0  0  0  0  0  0
  -31.8355  -20.1859   21.0671 C   0  0  0  0  0  0  0  0  0  0  0  0
  -20.6614   -6.1774   25.6150 C   0  0  0  0  0  0  0  0  0  0  0  0
  -23.9300  -10.4236   21.1530 C   0  0  0  0  0  0  0  0  0  0  0  0
  -31.1817  -22.2953   20.0870 C   0  0  0  0  0  0  0  0  0  0  0  0
  -24.0093  -12.9274   20.6714 C   0  0  0  0  0  0  0  0  0  0  0  0
  -30.5488  -37.2909   23.3632 C   0  0  0  0  0  0  0  0  0  0  0  0
  -28.5773  -30.5814   21.1325 C   0  0  0  0  0  0  0  0  0  0  0  0
  -30.7573  -35.9261   23.0871 C   0  0  0  0  0  0  0  0  0  0  0  0
  -28.2165  -29.7163   22.1753 C   0  0  0  0  0  0  0  0  0  0  0  0
  -30.1077  -20.2500   19.3796 C   0  0  0  0  0  0  0  0  0  0  0  0
  -31.9755  -21.5708   20.9762 C   0  0  0  0  0  0  0  0  0  0  0  0
  -22.6631   -8.0565   21.9110 C   0  0  0  0  0  0  0  0  0  0  0  0
  -29.6479  -27.9955   21.2267 C   0  0  0  0  0  0  0  0  0  0  0  0
  -21.2188   -6.9415   23.3919 C   0  0  0  0  0  0  0  0  0  0  0  0
  -30.9015  -19.5256   20.2687 C   0  0  0  0  0  0  0  0  0  0  0  0
  -19.5537   -7.0251   25.6286 C   0  0  0  0  0  0  0  0  0  0  0  0
  -21.4939   -6.1356   24.4967 C   0  0  0  0  0  0  0  0  0  0  0  0
  -24.5850  -11.6460   20.7621 C   0  0  0  0  0  0  0  0  0  0  0  0
  -25.0393  -13.7384   20.2616 C   0  0  0  0  0  0  0  0  0  0  0  0
  -31.3060  -23.7577   19.9688 C   0  0  0  0  0  0  0  0  0  0  0  0
  -30.3156  -24.6384   20.1801 C   0  0  0  0  0  0  0  0  0  0  0  0
  -22.6638  -13.3472   20.9341 C   0  0  0  0  0  0  0  0  0  0  0  0
  -28.6326  -32.9103   23.2950 C   0  0  0  0  0  0  0  0  0  0  0  0
  -30.3753  -15.3548   20.7128 C   0  0  0  0  0  0  0  0  0  0  0  0
  -25.5906  -31.9327   23.8548 C   0  0  0  0  0  0  0  0  0  0  0  0
  -23.2744  -29.4319   23.6894 C   0  0  0  0  0  0  0  0  0  0  0  0
  -29.7087  -37.7448   24.5306 C   0  0  0  0  0  0  0  0  0  0  0  0
  -27.9873  -31.9625   21.0498 C   0  0  0  0  0  0  0  0  0  0  0  0
  -27.2615  -30.1380   23.2609 C   0  0  0  0  0  0  0  0  0  0  0  0
  -28.7887  -36.6568   25.0785 C   0  0  0  0  0  0  0  0  0  0  0  0
  -29.6481  -12.6033   18.5356 C   0  0  0  0  0  0  0  0  0  0  0  0
  -29.5516  -35.3465   25.2450 C   0  0  0  0  0  0  0  0  0  0  0  0
  -28.2304  -12.1951   18.9341 C   0  0  0  0  0  0  0  0  0  0  0  0
  -30.4509  -13.0823   19.7410 C   0  0  0  0  0  0  0  0  0  0  0  0
  -28.3824  -13.7852   20.9023 C   0  0  0  0  0  0  0  0  0  0  0  0
  -30.0812  -34.8414   23.8974 C   0  0  1  0  0  0  0  0  0  0  0  0
  -27.5037  -32.4873   22.3981 C   0  0  1  0  0  0  0  0  0  0  0  0
  -27.5274  -13.3239   19.7087 C   0  0  2  0  0  0  0  0  0  0  0  0
  -29.1016  -19.5592   18.5192 C   0  0  0  0  0  0  0  0  0  0  0  0
  -32.9860  -22.2446   21.8481 C   0  0  0  0  0  0  0  0  0  0  0  0
  -20.8846  -28.9195   24.2582 C   0  0  0  0  0  0  0  0  0  0  0  0
  -26.3510  -31.6655   26.7977 C   0  0  0  0  0  0  0  0  0  0  0  0
  -24.2902  -30.2838   27.1327 C   0  0  0  0  0  0  0  0  0  0  0  0
  -24.0915  -32.6569   26.3898 C   0  0  0  0  0  0  0  0  0  0  0  0
  -22.5897  -28.9148   20.8570 C   0  0  0  0  0  0  0  0  0  0  0  0
  -30.4865  -26.1166   20.0341 C   0  0  0  0  0  0  0  0  0  1  0  0
  -29.5773  -16.3949   21.4580 C   0  0  0  0  0  0  0  0  0  0  0  0
  -30.4088  -17.6513   21.6472 C   0  0  0  0  0  0  0  0  0  0  0  0
  -24.9446  -30.9171   24.7659 C   0  0  1  0  0  0  0  0  0  0  0  0
  -21.8421  -29.4171   23.1867 C   0  0  2  0  0  0  0  0  0  0  0  0
  -24.9388  -31.3732   26.2523 C   0  0  0  0  0  0  0  0  0  0  0  0
  -25.8802  -11.6383   20.4360 N   0  0  0  0  0  0  0  0  0  0  0  0
  -26.1269  -12.9250   20.1363 N   0  0  0  0  0  0  0  0  0  0  0  0
  -26.7162  -31.5002   23.1394 N   0  0  0  0  0  0  0  0  0  0  0  0
  -29.7393  -14.1386   20.4628 N   0  0  0  0  0  0  0  0  0  0  0  0
  -25.1117  -15.0607   19.9998 N   0  0  0  0  0  0  0  0  0  0  0  0
  -21.7322  -12.3849   21.3470 N   0  0  0  0  0  0  0  0  0  0  0  0
  -29.0160  -34.2280   23.1336 N   0  0  0  0  0  0  0  0  0  0  0  0
  -23.6186  -30.6593   24.2148 N   0  0  0  0  0  0  0  0  0  0  0  0
  -21.7197  -28.5276   21.9973 N   0  3  0  0  0  0  0  0  0  0  0  0
  -22.2944  -14.5374   20.7907 O   0  0  0  0  0  0  0  0  0  0  0  0
  -29.1187  -32.1014   24.0768 O   0  0  0  0  0  0  0  0  0  0  0  0
  -31.5284  -15.6182   20.3616 O   0  0  0  0  0  0  0  0  0  0  0  0
  -25.1099  -33.0659   23.7752 O   0  0  0  0  0  0  0  0  0  0  0  0
  -24.0127  -28.4513   23.6260 O   0  0  0  0  0  0  0  0  0  0  0  0
  -22.0449   -6.9018   22.2812 O   0  0  0  0  0  0  0  0  0  0  0  0
  -30.1698  -26.7398   21.2781 O   0  0  0  0  0  0  0  0  0  1  0  0
  -30.7757  -18.1728   20.3715 O   0  0  0  0  0  0  0  0  0  0  0  0
  -18.7550   -7.0664   26.7031 F   0  0  0  0  0  0  0  0  0  0  0  0
  -22.5573   -5.3201   24.4899 F   0  0  0  0  0  0  0  0  0  0  0  0
  1  2  1  0  0  0  0
  1  5  2  0  0  0  0
  2  6  2  0  0  0  0
  3  8  2  0  0  0  0
  3 17  1  0  0  0  0
  4  9  1  0  0  0  0
  4 17  2  0  0  0  0
  5 20  1  0  0  0  0
  6 22  1  0  0  0  0
  7 10  2  0  0  0  0
  7 21  1  0  0  0  0
  8 26  1  0  0  0  0
  9 26  2  0  0  0  0
 10 27  1  0  0  0  0
 11 12  2  0  0  0  0
 11 28  1  0  0  0  0
 12 30  1  0  0  0  0
 13 18  1  0  0  0  0
 13 24  2  0  0  0  0
 14 23  1  0  0  0  0
 14 27  2  0  0  0  0
 15 25  1  0  0  0  0
 15 29  2  0  0  0  0
 16 30  2  0  0  0  0
 16 31  1  0  0  0  0
 17 32  1  0  0  0  0
 18 25  2  0  0  0  0
 18 34  1  0  0  0  0
 19 32  1  0  0  0  0
 19 33  2  0  0  0  0
 19 36  1  0  0  0  0
 20 22  2  0  0  0  0
 20 41  1  0  0  0  0
 21 23  2  0  0  0  0
 21 42  1  0  0  0  0
 22 50  1  0  0  0  0
 23 43  1  0  0  0  0
 24 29  1  0  0  0  0
 24 53  1  0  0  0  0
 25 54  1  0  0  0  0
 26 80  1  0  0  0  0
 27 81  1  0  0  0  0
 28 31  2  0  0  0  0
 28 80  1  0  0  0  0
 29 82  1  0  0  0  0
 30 83  1  0  0  0  0
 31 84  1  0  0  0  0
 32 66  2  0  0  0  0
 33 67  1  0  0  0  0
 33 70  1  0  0  0  0
 34 35  2  0  0  0  0
 35 60  1  0  0  0  0
 36 71  1  0  0  0  0
 36 75  2  0  0  0  0
 37 51  1  0  0  0  0
 37 72  1  0  0  0  0
 37 76  2  0  0  0  0
 38 61  1  0  0  0  0
 38 69  1  0  0  0  0
 38 77  2  0  0  0  0
 39 63  1  0  0  0  0
 39 68  1  0  0  0  0
 39 78  2  0  0  0  0
 40 64  1  0  0  0  0
 40 73  1  0  0  0  0
 40 79  2  0  0  0  0
 41 44  1  0  0  0  0
 42 51  1  0  0  0  0
 43 68  1  0  0  0  0
 44 46  1  0  0  0  0
 45 47  1  0  0  0  0
 45 48  1  0  0  0  0
 46 50  1  0  0  0  0
 47 52  1  0  0  0  0
 48 69  1  0  0  0  0
 49 52  1  0  0  0  0
 49 69  1  0  0  0  0
 50 72  1  0  0  0  0
 51 68  1  0  0  0  0
 52 67  1  0  0  0  0
 55 64  1  0  0  0  0
 56 65  1  0  0  0  0
 57 65  1  0  0  0  0
 58 65  1  0  0  0  0
 59 74  1  0  0  0  0
 60 81  1  0  0  0  0
 61 62  1  0  0  0  0
 62 82  1  0  0  0  0
 63 65  1  0  0  0  0
 63 73  1  0  0  0  0
 64 74  1  0  0  0  0
 66 67  1  0  0  0  0
M  CHG  1  74   1
M  ISO  4  38 100  60 101  61 100  81 101
M  END
> <Batch ID>
0118

> <Smiles>
CNC(C)C(=O)NC(C(=O)N1Cc2cc([101O:1][101CH2:1]C=Cc3cc(C)c(OC[100CH2:0][100C:0](=O)N4CCCC(n5nc(-c6ccc(Oc7ccc(F)cc7F)cc6)c(C(N)=O)c5N)C4)cc3C)ccc2CC1C(=O)NC1CCCc2ccccc21)C(C)(C)C

> <Shape>
0.332

> <Color>
0.199

> <Negative vol penalty>
0.000

$$$$

  -OEChem-04052301483D

 85 94  0     1  0  0  0  0  0999 V2000
  -17.1517  -29.3865   24.7672 C   0  0  0  0  0  0  0  0  0  0  0  0
  -17.8459  -28.2626   24.3311 C   0  0  0  0  0  0  0  0  0  0  0  0
  -22.4498  -14.2405   20.5216 C   0  0  0  0  0  0  0  0  0  0  0  0
  -24.0004  -15.0284   22.1985 C   0  0  0  0  0  0  0  0  0  0  0  0
  -17.3659  -30.6191   24.1518 C   0  0  0  0  0  0  0  0  0  0  0  0
  -18.7541  -28.3704   23.2785 C   0  0  0  0  0  0  0  0  0  0  0  0
  -23.0942  -25.9290   24.1994 C   0  0  0  0  0  0  0  0  0  0  0  0
  -28.8529  -20.1462   21.2702 C   0  0  0  0  0  0  0  0  0  0  0  0
  -27.5063  -20.4640   21.0927 C   0  0  0  0  0  0  0  0  0  0  0  0
  -21.5560  -15.2520   20.8727 C   0  0  0  0  0  0  0  0  0  0  0  0
  -23.1065  -16.0401   22.5496 C   0  0  0  0  0  0  0  0  0  0  0  0
  -23.0905  -24.5434   24.0448 C   0  0  0  0  0  0  0  0  0  0  0  0
  -20.2788  -16.3420   24.3782 C   0  0  0  0  0  0  0  0  0  0  0  0
  -20.0547  -16.5662   25.7365 C   0  0  0  0  0  0  0  0  0  0  0  0
  -24.1186  -24.7887   21.8763 C   0  0  0  0  0  0  0  0  0  0  0  0
  -27.1417  -18.3251   20.0298 C   0  0  0  0  0  0  0  0  0  0  0  0
  -20.8556  -18.8327   25.4945 C   0  0  0  0  0  0  0  0  0  0  0  0
  -23.6720  -14.1286   21.1846 C   0  0  0  0  0  0  0  0  0  0  0  0
  -24.3709  -11.6947   20.8754 C   0  0  0  0  0  0  0  0  0  0  0  0
  -18.2843  -30.7440   23.0975 C   0  0  0  0  0  0  0  0  0  0  0  0
  -23.6010  -26.7568   23.1873 C   0  0  0  0  0  0  0  0  0  0  0  0
  -18.9799  -29.6056   22.6475 C   0  0  0  0  0  0  0  0  0  0  0  0
  -24.1299  -26.1844   22.0217 C   0  0  0  0  0  0  0  0  0  0  0  0
  -29.3439  -18.9180   20.8274 C   0  0  0  0  0  0  0  0  0  0  0  0
  -26.6508  -19.5534   20.4726 C   0  0  0  0  0  0  0  0  0  0  0  0
  -28.4883  -18.0074   20.2073 C   0  0  0  0  0  0  0  0  0  0  0  0
  -21.8843  -16.1519   21.8867 C   0  0  0  0  0  0  0  0  0  0  0  0
  -23.6001  -23.9732   22.8819 C   0  0  0  0  0  0  0  0  0  0  0  0
  -20.7913  -17.3631   23.5780 C   0  0  0  0  0  0  0  0  0  0  0  0
  -20.3431  -17.8115   26.2947 C   0  0  0  0  0  0  0  0  0  0  0  0
  -21.0797  -18.6085   24.1362 C   0  0  0  0  0  0  0  0  0  0  0  0
  -24.5955  -13.0835   20.8227 C   0  0  0  0  0  0  0  0  0  0  0  0
  -25.5462  -11.1397   20.4314 C   0  0  0  0  0  0  0  0  0  0  0  0
  -23.2546  -20.9527   21.0629 C   0  0  0  0  0  0  0  0  0  0  0  0
  -22.9059  -22.0951   21.6730 C   0  0  0  0  0  0  0  0  0  1  0  0
  -23.2042  -10.9711   21.2887 C   0  0  0  0  0  0  0  0  0  0  0  0
  -22.3834  -29.0301   21.3291 C   0  0  0  0  0  0  0  0  0  0  0  0
  -25.4698  -29.3748   20.3925 C   0  0  0  0  0  0  0  0  0  0  0  0
  -28.5681  -27.9838   20.0564 C   0  0  0  0  0  0  0  0  0  0  0  0
  -28.2455  -15.7408   19.1152 C   0  0  0  0  0  0  0  0  0  0  0  0
  -18.4473  -32.0877   22.4322 C   0  0  0  0  0  0  0  0  0  0  0  0
  -23.6222  -28.2482   23.3809 C   0  0  0  0  0  0  0  0  0  0  0  0
  -24.7041  -27.0281   20.9140 C   0  0  0  0  0  0  0  0  0  0  0  0
  -22.4774  -20.3948   19.9037 C   0  0  0  0  0  0  0  0  0  0  0  0
  -24.4663  -20.1539   21.4730 C   0  0  0  0  0  0  0  0  0  0  0  0
  -19.7033  -32.1925   21.5709 C   0  0  0  0  0  0  0  0  0  0  0  0
  -23.4166  -20.1701   18.7238 C   0  0  0  0  0  0  0  0  0  0  0  0
  -30.1321  -12.6545   20.4501 C   0  0  0  0  0  0  0  0  0  0  0  0
  -19.8460  -30.9605   20.6829 C   0  0  0  0  0  0  0  0  0  0  0  0
  -28.8145  -11.9606   20.7718 C   0  0  0  0  0  0  0  0  0  0  0  0
  -24.6217  -19.3126   19.1134 C   0  0  0  0  0  0  0  0  0  0  0  0
  -29.9023  -14.1454   20.2186 C   0  0  0  0  0  0  0  0  0  0  0  0
  -28.1298  -13.2949   18.6800 C   0  0  0  0  0  0  0  0  0  0  0  0
  -19.9916  -29.6873   21.5250 C   0  0  1  0  0  0  0  0  0  0  0  0
  -23.6922  -29.0203   22.0670 C   0  0  1  0  0  0  0  0  0  0  0  0
  -27.7957  -12.1234   19.6261 C   0  0  2  0  0  0  0  0  0  0  0  0
  -30.7907  -18.6046   21.0307 C   0  0  0  0  0  0  0  0  0  0  0  0
  -30.8785  -28.4984   19.2231 C   0  0  0  0  0  0  0  0  0  0  0  0
  -24.5024  -29.0503   17.5169 C   0  0  0  0  0  0  0  0  0  0  0  0
  -26.8746  -28.6214   16.8409 C   0  0  0  0  0  0  0  0  0  0  0  0
  -26.2418  -30.8182   17.8393 C   0  0  0  0  0  0  0  0  0  0  0  0
  -29.7527  -27.5682   22.7365 C   0  0  0  0  0  0  0  0  0  0  0  0
  -26.3341  -28.7669   19.3143 C   0  0  1  0  0  0  0  0  0  0  0  0
  -29.9481  -28.4970   20.4261 C   0  0  2  0  0  0  0  0  0  0  0  0
  -25.9757  -29.2981   17.8977 C   0  0  0  0  0  0  0  0  0  0  0  0
  -25.8175  -13.3917   20.3803 N   0  0  0  0  0  0  0  0  0  0  0  0
  -26.3713  -12.1889   20.1510 N   0  0  0  0  0  0  0  0  0  0  0  0
  -25.2981  -19.8730   20.2944 N   0  0  2  0  0  0  0  0  0  0  0  0
  -24.6966  -28.4816   21.1477 N   0  0  0  0  0  0  0  0  0  0  0  0
  -28.7395  -14.4363   19.3669 N   0  0  0  0  0  0  0  0  0  0  0  0
  -25.9441   -9.8615   20.2575 N   0  0  0  0  0  0  0  0  0  0  0  0
  -22.0842  -11.6973   21.7160 N   0  0  0  0  0  0  0  0  0  0  0  0
  -28.9684  -16.7541   19.7505 N   0  0  0  0  0  0  0  0  0  0  0  0
  -21.3370  -29.5775   22.0468 N   0  0  0  0  0  0  0  0  0  0  0  0
  -27.7161  -29.0120   19.7124 N   0  0  0  0  0  0  0  0  0  0  0  0
  -30.5520  -27.6414   21.4863 N   0  3  0  0  0  0  0  0  0  0  0  0
  -23.1620   -9.7175   21.2950 O   0  0  0  0  0  0  0  0  0  0  0  0
  -22.3273  -28.5761   20.1923 O   0  0  0  0  0  0  0  0  0  0  0  0
  -25.4857  -30.5963   20.5632 O   0  0  0  0  0  0  0  0  0  0  0  0
  -28.2762  -26.7900   20.0678 O   0  0  0  0  0  0  0  0  0  0  0  0
  -27.2656  -15.9340   18.3927 O   0  0  0  0  0  0  0  0  0  0  0  0
  -21.0124  -17.1393   22.2294 O   0  0  0  0  0  0  0  0  0  0  0  0
  -23.5971  -22.6211   22.7281 O   0  0  0  0  0  0  0  0  0  1  0  0
  -20.1265  -18.0271   27.5988 F   0  0  0  0  0  0  0  0  0  0  0  0
  -21.5711  -19.5937   23.3722 F   0  0  0  0  0  0  0  0  0  0  0  0
  1  2  1  0  0  0  0
  1  5  2  0  0  0  0
  2  6  2  0  0  0  0
  3 10  2  0  0  0  0
  3 18  1  0  0  0  0
  4 11  1  0  0  0  0
  4 18  2  0  0  0  0
  5 20  1  0  0  0  0
  6 22  1  0  0  0  0
  7 12  2  0  0  0  0
  7 21  1  0  0  0  0
  8  9  2  0  0  0  0
  8 24  1  0  0  0  0
  9 25  1  0  0  0  0
 10 27  1  0  0  0  0
 11 27  2  0  0  0  0
 12 28  1  0  0  0  0
 13 14  2  0  0  0  0
 13 29  1  0  0  0  0
 14 30  1  0  0  0  0
 15 23  1  0  0  0  0
 15 28  2  0  0  0  0
 16 25  2  0  0  0  0
 16 26  1  0  0  0  0
 17 30  2  0  0  0  0
 17 31  1  0  0  0  0
 18 32  1  0  0  0  0
 19 32  1  0  0  0  0
 19 33  2  0  0  0  0
 19 36  1  0  0  0  0
 20 22  2  0  0  0  0
 20 41  1  0  0  0  0
 21 23  2  0  0  0  0
 21 42  1  0  0  0  0
 22 54  1  0  0  0  0
 23 43  1  0  0  0  0
 24 26  2  0  0  0  0
 24 57  1  0  0  0  0
 25 68  1  0  0  0  0
 26 73  1  0  0  0  0
 27 82  1  0  0  0  0
 28 83  1  0  0  0  0
 29 31  2  0  0  0  0
 29 82  1  0  0  0  0
 30 84  1  0  0  0  0
 31 85  1  0  0  0  0
 32 66  2  0  0  0  0
 33 67  1  0  0  0  0
 33 71  1  0  0  0  0
 34 35  2  0  0  0  0
 34 44  1  0  0  0  0
 34 45  1  0  0  0  0
 35 83  1  0  0  0  0
 36 72  1  0  0  0  0
 36 77  2  0  0  0  0
 37 55  1  0  0  0  0
 37 74  1  0  0  0  0
 37 78  2  0  0  0  0
 38 63  1  0  0  0  0
 38 69  1  0  0  0  0
 38 79  2  0  0  0  0
 39 64  1  0  0  0  0
 39 75  1  0  0  0  0
 39 80  2  0  0  0  0
 40 70  1  0  0  0  0
 40 73  1  0  0  0  0
 40 81  2  0  0  0  0
 41 46  1  0  0  0  0
 42 55  1  0  0  0  0
 43 69  1  0  0  0  0
 44 47  1  0  0  0  0
 45 68  1  0  0  0  0
 46 49  1  0  0  0  0
 47 51  1  0  0  0  0
 48 50  1  0  0  0  0
 48 52  1  0  0  0  0
 49 54  1  0  0  0  0
 50 56  1  0  0  0  0
 51 68  1  0  0  0  0
 52 70  1  0  0  0  0
 53 56  1  0  0  0  0
 53 70  1  0  0  0  0
 54 74  1  0  0  0  0
 55 69  1  0  0  0  0
 56 67  1  0  0  0  0
 58 64  1  0  0  0  0
 59 65  1  0  0  0  0
 60 65  1  0  0  0  0
 61 65  1  0  0  0  0
 62 76  1  0  0  0  0
 63 65  1  0  0  0  0
 63 75  1  0  0  0  0
 64 76  1  0  0  0  0
 66 67  1  0  0  0  0
M  CHG  1  76   1
M  ISO  4  35 101  40 100  73 100  83 101
M  END
> <Batch ID>
0118

> <Smiles>
CNC(C)C(=O)NC(C(=O)N1Cc2cc([101O:1][101CH:1]=C3CCCN(c4ccc(C)c([100NH:0][100C:0](=O)N5CCCC(n6nc(-c7ccc(Oc8ccc(F)cc8F)cc7)c(C(N)=O)c6N)C5)c4)C3)ccc2CC1C(=O)NC1CCCc2ccccc21)C(C)(C)C

> <Shape>
0.228

> <Color>
0.095

> <Negative vol penalty>
0.000

$$$$

  -OEChem-04052301483D

 83 91  0     1  0  0  0  0  0999 V2000
  -24.9027  -22.9041   19.5068 C   0  0  0  0  0  0  0  0  0  0  0  0
  -26.0237  -22.6932   20.3033 C   0  0  0  0  0  0  0  0  0  0  0  0
  -23.0745   -9.8760   19.9384 C   0  0  0  0  0  0  0  0  0  0  0  0
  -23.8356   -9.8776   22.2314 C   0  0  0  0  0  0  0  0  0  0  0  0
  -24.6213  -24.1820   19.0256 C   0  0  0  0  0  0  0  0  0  0  0  0
  -26.8646  -23.7601   20.6181 C   0  0  0  0  0  0  0  0  0  0  0  0
  -28.1790  -23.8203   25.5083 C   0  0  0  0  0  0  0  0  0  0  0  0
  -22.3309   -8.7221   20.1861 C   0  0  0  0  0  0  0  0  0  0  0  0
  -23.0920   -8.7238   22.4791 C   0  0  0  0  0  0  0  0  0  0  0  0
  -29.1716  -22.9283   25.9118 C   0  0  0  0  0  0  0  0  0  0  0  0
  -19.3836   -7.9217   21.6371 C   0  0  0  0  0  0  0  0  0  0  0  0
  -18.0764   -7.8765   21.1525 C   0  0  0  0  0  0  0  0  0  0  0  0
  -30.7958  -24.7103   25.8348 C   0  0  0  0  0  0  0  0  0  0  0  0
  -29.8783  -17.4592   23.1503 C   0  0  0  0  0  0  0  0  0  0  0  0
  -32.0622  -16.6128   22.5577 C   0  0  0  0  0  0  0  0  0  0  0  0
  -18.6356   -5.9366   19.8253 C   0  0  0  0  0  0  0  0  0  0  0  0
  -23.8269  -10.4537   20.9611 C   0  0  0  0  0  0  0  0  0  0  0  0
  -31.8520  -18.3597   24.2134 C   0  0  0  0  0  0  0  0  0  0  0  0
  -24.1684  -12.9792   20.8468 C   0  0  0  0  0  0  0  0  0  0  0  0
  -25.4538  -25.2670   19.3427 C   0  0  0  0  0  0  0  0  0  0  0  0
  -28.4900  -25.1638   25.2540 C   0  0  0  0  0  0  0  0  0  0  0  0
  -26.5948  -25.0536   20.1396 C   0  0  0  0  0  0  0  0  0  0  0  0
  -29.8048  -25.6179   25.4307 C   0  0  0  0  0  0  0  0  0  0  0  0
  -30.4661  -18.3416   24.0566 C   0  0  0  0  0  0  0  0  0  0  0  0
  -32.6501  -17.4953   23.4639 C   0  0  0  0  0  0  0  0  0  0  0  0
  -30.6763  -16.5947   22.4009 C   0  0  0  0  0  0  0  0  0  0  0  0
  -22.3396   -8.1461   21.4564 C   0  0  0  0  0  0  0  0  0  0  0  0
  -30.4808  -23.3726   26.0724 C   0  0  0  0  0  0  0  0  0  0  0  0
  -20.3168   -6.9745   21.2158 C   0  0  0  0  0  0  0  0  0  0  0  0
  -17.7024   -6.8839   20.2466 C   0  0  0  0  0  0  0  0  0  0  0  0
  -19.9428   -5.9819   20.3099 C   0  0  0  0  0  0  0  0  0  0  0  0
  -24.5957  -11.6453   20.7058 C   0  0  0  0  0  0  0  0  0  0  0  0
  -25.2602  -13.7296   20.4848 C   0  0  0  0  0  0  0  0  0  0  0  0
  -32.4736  -19.2929   25.1676 C   0  0  0  0  0  0  0  0  0  0  0  0
  -32.8980  -20.5316   24.8726 C   0  0  0  0  0  0  0  0  0  0  0  0
  -22.8980  -13.4938   21.2677 C   0  0  0  0  0  0  0  0  0  0  0  0
  -28.3474  -27.0554   22.7035 C   0  0  0  0  0  0  0  0  0  0  0  0
  -29.1913  -29.3464   24.8393 C   0  0  0  0  0  0  0  0  0  0  0  0
  -30.6705  -30.1316   27.8129 C   0  0  0  0  0  0  0  0  0  0  0  0
  -30.7264  -14.7755   20.6589 C   0  0  0  0  0  0  0  0  0  0  0  0
  -25.1350  -26.6211   18.7603 C   0  0  0  0  0  0  0  0  0  0  0  0
  -27.4027  -26.1193   24.8452 C   0  0  0  0  0  0  0  0  0  0  0  0
  -30.1867  -27.0548   25.1902 C   0  0  0  0  0  0  0  0  0  0  0  0
  -25.8694  -27.7686   19.4489 C   0  0  0  0  0  0  0  0  0  0  0  0
  -29.6110  -12.3672   18.2856 C   0  0  0  0  0  0  0  0  0  0  0  0
  -27.3444  -27.4253   19.6311 C   0  0  0  0  0  0  0  0  0  0  0  0
  -28.1716  -12.0744   18.7152 C   0  0  0  0  0  0  0  0  0  0  0  0
  -30.5267  -12.5933   19.4872 C   0  0  0  0  0  0  0  0  0  0  0  0
  -28.6204  -13.3142   20.8713 C   0  0  0  0  0  0  0  0  0  0  0  0
  -27.5172  -26.1902   20.5234 C   0  0  1  0  0  0  0  0  0  0  0  0
  -27.9321  -27.3509   24.1170 C   0  0  1  0  0  0  0  0  0  0  0  0
  -27.6470  -13.1436   19.6936 C   0  0  2  0  0  0  0  0  0  0  0  0
  -29.5764  -19.2510   24.8425 C   0  0  0  0  0  0  0  0  0  0  0  0
  -34.1389  -17.4838   23.6029 C   0  0  0  0  0  0  0  0  0  0  0  0
  -31.2417  -32.0917   29.2720 C   0  0  0  0  0  0  0  0  0  0  0  0
  -31.4967  -30.0609   22.9726 C   0  0  0  0  0  0  0  0  0  0  0  0
  -32.5494  -31.3154   24.8664 C   0  0  0  0  0  0  0  0  0  0  0  0
  -30.3266  -32.0258   23.9848 C   0  0  0  0  0  0  0  0  0  0  0  0
  -29.0061  -29.1094   30.0364 C   0  0  0  0  0  0  0  0  0  0  0  0
  -33.5402  -21.4486   25.8773 C   0  0  0  0  0  0  0  0  0  0  0  0
  -32.7785  -22.7623   26.0081 C   0  0  0  0  0  0  0  0  0  1  0  0
  -30.4985  -29.9039   25.3485 C   0  0  1  0  0  0  0  0  0  0  0  0
  -30.2158  -31.0126   28.9625 C   0  0  2  0  0  0  0  0  0  0  0  0
  -31.2113  -30.7989   24.2958 C   0  0  0  0  0  0  0  0  0  0  0  0
  -25.8603  -11.5506   20.2865 N   0  0  0  0  0  0  0  0  0  0  0  0
  -26.2370  -12.8345   20.1610 N   0  0  0  0  0  0  0  0  0  0  0  0
  -29.0893  -27.9491   24.7858 N   0  0  0  0  0  0  0  0  0  0  0  0
  -29.9681  -13.6219   20.3674 N   0  0  0  0  0  0  0  0  0  0  0  0
  -25.4704  -15.0613   20.4148 N   0  0  0  0  0  0  0  0  0  0  0  0
  -21.8864  -12.5837   21.6034 N   0  0  0  0  0  0  0  0  0  0  0  0
  -30.0793  -15.6986   21.4799 N   0  0  0  0  0  0  0  0  0  0  0  0
  -27.3350  -26.5426   21.9151 N   0  0  0  0  0  0  0  0  0  0  0  0
  -30.1914  -30.5845   26.6019 N   0  0  0  0  0  0  0  0  0  0  0  0
  -30.0085  -30.1950   30.1911 N   0  3  0  0  0  0  0  0  0  0  0  0
  -22.6617  -14.7243   21.3281 O   0  0  0  0  0  0  0  0  0  0  0  0
  -29.5006  -27.2778   22.3536 O   0  0  0  0  0  0  0  0  0  0  0  0
  -28.2912  -30.1221   24.5081 O   0  0  0  0  0  0  0  0  0  0  0  0
  -31.3826  -29.1428   27.9728 O   0  0  0  0  0  0  0  0  0  0  0  0
  -31.8552  -14.9455   20.1911 O   0  0  0  0  0  0  0  0  0  0  0  0
  -21.6140   -7.0203   21.6985 O   0  0  0  0  0  0  0  0  0  0  0  0
  -31.4517  -22.5039   26.4655 O   0  0  0  0  0  0  0  0  0  1  0  0
  -16.4467   -6.8397   19.7825 F   0  0  0  0  0  0  0  0  0  0  0  0
  -20.8346   -5.0684   19.9025 F   0  0  0  0  0  0  0  0  0  0  0  0
  1  2  1  0  0  0  0
  1  5  2  0  0  0  0
  2  6  2  0  0  0  0
  3  8  2  0  0  0  0
  3 17  1  0  0  0  0
  4  9  1  0  0  0  0
  4 17  2  0  0  0  0
  5 20  1  0  0  0  0
  6 22  1  0  0  0  0
  7 10  2  0  0  0  0
  7 21  1  0  0  0  0
  8 27  1  0  0  0  0
  9 27  2  0  0  0  0
 10 28  1  0  0  0  0
 11 12  2  0  0  0  0
 11 29  1  0  0  0  0
 12 30  1  0  0  0  0
 13 23  1  0  0  0  0
 13 28  2  0  0  0  0
 14 24  2  0  0  0  0
 14 26  1  0  0  0  0
 15 25  1  0  0  0  0
 15 26  2  0  0  0  0
 16 30  2  0  0  0  0
 16 31  1  0  0  0  0
 17 32  1  0  0  0  0
 18 24  1  0  0  0  0
 18 25  2  0  0  0  0
 18 34  1  0  0  0  0
 19 32  1  0  0  0  0
 19 33  2  0  0  0  0
 19 36  1  0  0  0  0
 20 22  2  0  0  0  0
 20 41  1  0  0  0  0
 21 23  2  0  0  0  0
 21 42  1  0  0  0  0
 22 50  1  0  0  0  0
 23 43  1  0  0  0  0
 24 53  1  0  0  0  0
 25 54  1  0  0  0  0
 26 71  1  0  0  0  0
 27 80  1  0  0  0  0
 28 81  1  0  0  0  0
 29 31  2  0  0  0  0
 29 80  1  0  0  0  0
 30 82  1  0  0  0  0
 31 83  1  0  0  0  0
 32 65  2  0  0  0  0
 33 66  1  0  0  0  0
 33 69  1  0  0  0  0
 34 35  2  0  0  0  0
 35 60  1  0  0  0  0
 36 70  1  0  0  0  0
 36 75  2  0  0  0  0
 37 51  1  0  0  0  0
 37 72  1  0  0  0  0
 37 76  2  0  0  0  0
 38 62  1  0  0  0  0
 38 67  1  0  0  0  0
 38 77  2  0  0  0  0
 39 63  1  0  0  0  0
 39 73  1  0  0  0  0
 39 78  2  0  0  0  0
 40 68  1  0  0  0  0
 40 71  1  0  0  0  0
 40 79  2  0  0  0  0
 41 44  1  0  0  0  0
 42 51  1  0  0  0  0
 43 67  1  0  0  0  0
 44 46  1  0  0  0  0
 45 47  1  0  0  0  0
 45 48  1  0  0  0  0
 46 50  1  0  0  0  0
 47 52  1  0  0  0  0
 48 68  1  0  0  0  0
 49 52  1  0  0  0  0
 49 68  1  0  0  0  0
 50 72  1  0  0  0  0
 51 67  1  0  0  0  0
 52 66  1  0  0  0  0
 55 63  1  0  0  0  0
 56 64  1  0  0  0  0
 57 64  1  0  0  0  0
 58 64  1  0  0  0  0
 59 74  1  0  0  0  0
 60 61  1  0  0  0  0
 61 81  1  0  0  0  0
 62 64  1  0  0  0  0
 62 73  1  0  0  0  0
 63 74  1  0  0  0  0
 65 66  1  0  0  0  0
M  CHG  1  74   1
M  ISO  4  40 100  61 101  71 100  81 101
M  END
> <Batch ID>
0118

> <Smiles>
CNC(C)C(=O)NC(C(=O)N1Cc2cc([101O:1][101CH2:1]CC=Cc3c(C)cc([100NH:0][100C:0](=O)N4CCCC(n5nc(-c6ccc(Oc7ccc(F)cc7F)cc6)c(C(N)=O)c5N)C4)cc3C)ccc2CC1C(=O)NC1CCCc2ccccc21)C(C)(C)C

> <Shape>
0.186

> <Color>
0.201

> <Negative vol penalty>
0.000

$$$$

  -OEChem-04052301483D

 84 92  0     1  0  0  0  0  0999 V2000
  -20.4357  -24.6109   24.1415 C   0  0  0  0  0  0  0  0  0  0  0  0
  -21.3630  -24.7901   23.1200 C   0  0  0  0  0  0  0  0  0  0  0  0
  -26.0968  -11.7890   21.1919 C   0  0  0  0  0  0  0  0  0  0  0  0
  -26.0345  -12.1789   18.8083 C   0  0  0  0  0  0  0  0  0  0  0  0
  -19.4762  -25.5915   24.3903 C   0  0  0  0  0  0  0  0  0  0  0  0
  -21.3306  -25.9494   22.3459 C   0  0  0  0  0  0  0  0  0  0  0  0
  -25.9332  -27.9362   21.6296 C   0  0  0  0  0  0  0  0  0  0  0  0
  -24.8480  -11.1715   21.1236 C   0  0  0  0  0  0  0  0  0  0  0  0
  -24.7856  -11.5614   18.7400 C   0  0  0  0  0  0  0  0  0  0  0  0
  -26.7469  -27.3295   20.6738 C   0  0  0  0  0  0  0  0  0  0  0  0
  -23.6032   -8.1634   20.2099 C   0  0  0  0  0  0  0  0  0  0  0  0
  -23.4343   -6.9641   20.9019 C   0  0  0  0  0  0  0  0  0  0  0  0
  -28.4905  -21.1441   14.5643 C   0  0  0  0  0  0  0  0  0  0  0  0
  -29.0258  -20.9680   16.9137 C   0  0  0  0  0  0  0  0  0  0  0  0
  -26.1620  -29.0528   19.0905 C   0  0  0  0  0  0  0  0  0  0  0  0
  -29.0248  -18.9920   15.5236 C   0  0  0  0  0  0  0  0  0  0  0  0
  -21.6700   -7.9683   22.2118 C   0  0  0  0  0  0  0  0  0  0  0  0
  -26.6901  -12.2928   20.0343 C   0  0  0  0  0  0  0  0  0  0  0  0
  -28.6692  -21.7441   15.8108 C   0  0  0  0  0  0  0  0  0  0  0  0
  -29.2402  -12.3184   19.9709 C   0  0  0  0  0  0  0  0  0  0  0  0
  -19.4381  -26.7678   23.6252 C   0  0  0  0  0  0  0  0  0  0  0  0
  -25.2180  -29.1018   21.3190 C   0  0  0  0  0  0  0  0  0  0  0  0
  -20.3688  -26.9460   22.5838 C   0  0  0  0  0  0  0  0  0  0  0  0
  -25.3419  -29.6739   20.0449 C   0  0  0  0  0  0  0  0  0  0  0  0
  -28.6683  -19.7680   14.4207 C   0  0  0  0  0  0  0  0  0  0  0  0
  -29.2036  -19.5920   16.7701 C   0  0  0  0  0  0  0  0  0  0  0  0
  -24.1924  -11.0577   19.8976 C   0  0  0  0  0  0  0  0  0  0  0  0
  -26.8592  -27.8861   19.4032 C   0  0  0  0  0  0  0  0  0  0  0  0
  -22.8055   -9.2652   20.5190 C   0  0  0  0  0  0  0  0  0  0  0  0
  -22.4677   -6.8666   21.9027 C   0  0  0  0  0  0  0  0  0  0  0  0
  -21.8389   -9.1677   21.5198 C   0  0  0  0  0  0  0  0  0  0  0  0
  -27.9798  -12.9313   20.1043 C   0  0  0  0  0  0  0  0  0  0  0  0
  -30.1390  -13.3469   20.1147 C   0  0  0  0  0  0  0  0  0  0  0  0
  -28.4809  -23.1976   15.9632 C   0  0  0  0  0  0  0  0  0  0  0  0
  -28.2489  -23.8169   17.1290 C   0  0  0  0  0  0  0  0  0  0  0  0
  -29.5689  -10.9425   19.7376 C   0  0  0  0  0  0  0  0  0  0  0  0
  -28.0622  -25.2963   17.1746 C   0  0  0  0  0  0  0  0  0  0  0  0
  -22.1380  -29.8774   21.1946 C   0  0  0  0  0  0  0  0  0  0  0  0
  -23.3100  -32.8549   20.6622 C   0  0  0  0  0  0  0  0  0  0  0  0
  -25.8925  -34.7990   19.5677 C   0  0  0  0  0  0  0  0  0  0  0  0
  -29.7801  -19.2405   19.1971 C   0  0  0  0  0  0  0  0  0  0  0  0
  -18.3527  -27.7781   23.9006 C   0  0  0  0  0  0  0  0  0  0  0  0
  -24.3655  -29.7590   22.3695 C   0  0  0  0  0  0  0  0  0  0  0  0
  -24.6108  -30.9355   19.6676 C   0  0  0  0  0  0  0  0  0  0  0  0
  -18.6218  -29.1460   23.2787 C   0  0  0  0  0  0  0  0  0  0  0  0
  -30.6451  -17.6081   22.2408 C   0  0  0  0  0  0  0  0  0  0  0  0
  -19.0722  -28.9942   21.8292 C   0  0  0  0  0  0  0  0  0  0  0  0
  -30.1800  -16.1663   22.0239 C   0  0  0  0  0  0  0  0  0  0  0  0
  -29.6908  -18.6144   21.6002 C   0  0  0  0  0  0  0  0  0  0  0  0
  -28.9347  -16.9354   19.9636 C   0  0  0  0  0  0  0  0  0  0  0  0
  -20.3815  -28.2012   21.7385 C   0  0  1  0  0  0  0  0  0  0  0  0
  -23.2803  -30.6565   21.7828 C   0  0  1  0  0  0  0  0  0  0  0  0
  -29.8987  -15.8829   20.5352 C   0  0  2  0  0  0  0  0  0  0  0  0
  -27.0373  -18.6691   12.8654 C   0  0  0  0  0  0  0  0  0  0  0  0
  -26.5416  -37.1977   19.2176 C   0  0  0  0  0  0  0  0  0  0  0  0
  -21.5599  -32.9615   18.1651 C   0  0  0  0  0  0  0  0  0  0  0  0
  -22.9274  -34.9038   17.3743 C   0  0  0  0  0  0  0  0  0  0  0  0
  -21.6176  -35.0819   19.4898 C   0  0  0  0  0  0  0  0  0  0  0  0
  -28.1540  -34.5849   21.4648 C   0  0  0  0  0  0  0  0  0  0  0  0
  -28.4767  -19.1259   13.0883 C   0  0  0  0  0  0  0  0  0  0  0  0
  -27.8067  -25.8792   18.5485 C   0  0  0  0  0  0  0  0  0  1  0  0
  -23.6990  -33.6476   19.4377 C   0  0  1  0  0  0  0  0  0  0  0  0
  -26.5645  -36.0169   20.1758 C   0  0  2  0  0  0  0  0  0  0  0  0
  -22.4634  -34.1238   18.6229 C   0  0  0  0  0  0  0  0  0  0  0  0
  -28.0662  -14.2471   20.3168 N   0  0  0  0  0  0  0  0  0  0  0  0
  -29.3916  -14.4695   20.3180 N   0  0  0  0  0  0  0  0  0  0  0  0
  -23.7847  -31.5372   20.7273 N   0  0  0  0  0  0  0  0  0  0  0  0
  -29.4747  -18.2852   20.1896 N   0  0  0  0  0  0  0  0  0  0  0  0
  -31.4880  -13.3914   20.0860 N   0  0  0  0  0  0  0  0  0  0  0  0
  -28.5234  -10.0173   19.6144 N   0  0  0  0  0  0  0  0  0  0  0  0
  -29.5648  -18.8034   17.8905 N   0  0  0  0  0  0  0  0  0  0  0  0
  -21.5061  -29.0399   22.0939 N   0  0  0  0  0  0  0  0  0  0  0  0
  -24.5580  -34.7291   19.9075 N   0  0  0  0  0  0  0  0  0  0  0  0
  -27.9840  -35.7117   20.5116 N   0  3  0  0  0  0  0  0  0  0  0  0
  -30.7552  -10.5425   19.6577 O   0  0  0  0  0  0  0  0  0  0  0  0
  -28.1134  -25.9918   16.1638 O   0  0  0  0  0  0  0  0  0  0  0  0
  -21.8503  -30.0263   20.0128 O   0  0  0  0  0  0  0  0  0  0  0  0
  -22.6167  -33.3876   21.5324 O   0  0  0  0  0  0  0  0  0  0  0  0
  -26.4907  -33.9925   18.8590 O   0  0  0  0  0  0  0  0  0  0  0  0
  -30.2274  -20.3539   19.4837 O   0  0  0  0  0  0  0  0  0  0  0  0
  -22.9739  -10.4549   19.8306 O   0  0  0  0  0  0  0  0  0  0  0  0
  -27.6522  -27.2956   18.4682 O   0  0  0  0  0  0  0  0  0  1  0  0
  -22.3046   -5.7144   22.5661 F   0  0  0  0  0  0  0  0  0  0  0  0
  -21.0688  -10.2224   21.8204 F   0  0  0  0  0  0  0  0  0  0  0  0
  1  2  1  0  0  0  0
  1  5  2  0  0  0  0
  2  6  2  0  0  0  0
  3  8  2  0  0  0  0
  3 18  1  0  0  0  0
  4  9  1  0  0  0  0
  4 18  2  0  0  0  0
  5 21  1  0  0  0  0
  6 23  1  0  0  0  0
  7 10  2  0  0  0  0
  7 22  1  0  0  0  0
  8 27  1  0  0  0  0
  9 27  2  0  0  0  0
 10 28  1  0  0  0  0
 11 12  2  0  0  0  0
 11 29  1  0  0  0  0
 12 30  1  0  0  0  0
 13 19  2  0  0  0  0
 13 25  1  0  0  0  0
 14 19  1  0  0  0  0
 14 26  2  0  0  0  0
 15 24  1  0  0  0  0
 15 28  2  0  0  0  0
 16 25  2  0  0  0  0
 16 26  1  0  0  0  0
 17 30  2  0  0  0  0
 17 31  1  0  0  0  0
 18 32  1  0  0  0  0
 19 34  1  0  0  0  0
 20 32  1  0  0  0  0
 20 33  2  0  0  0  0
 20 36  1  0  0  0  0
 21 23  2  0  0  0  0
 21 42  1  0  0  0  0
 22 24  2  0  0  0  0
 22 43  1  0  0  0  0
 23 51  1  0  0  0  0
 24 44  1  0  0  0  0
 25 60  1  0  0  0  0
 26 71  1  0  0  0  0
 27 81  1  0  0  0  0
 28 82  1  0  0  0  0
 29 31  2  0  0  0  0
 29 81  1  0  0  0  0
 30 83  1  0  0  0  0
 31 84  1  0  0  0  0
 32 65  2  0  0  0  0
 33 66  1  0  0  0  0
 33 69  1  0  0  0  0
 34 35  2  0  0  0  0
 35 37  1  0  0  0  0
 36 70  1  0  0  0  0
 36 75  2  0  0  0  0
 37 61  1  0  0  0  0
 37 76  2  0  0  0  0
 38 52  1  0  0  0  0
 38 72  1  0  0  0  0
 38 77  2  0  0  0  0
 39 62  1  0  0  0  0
 39 67  1  0  0  0  0
 39 78  2  0  0  0  0
 40 63  1  0  0  0  0
 40 73  1  0  0  0  0
 40 79  2  0  0  0  0
 41 68  1  0  0  0  0
 41 71  1  0  0  0  0
 41 80  2  0  0  0  0
 42 45  1  0  0  0  0
 43 52  1  0  0  0  0
 44 67  1  0  0  0  0
 45 47  1  0  0  0  0
 46 48  1  0  0  0  0
 46 49  1  0  0  0  0
 47 51  1  0  0  0  0
 48 53  1  0  0  0  0
 49 68  1  0  0  0  0
 50 53  1  0  0  0  0
 50 68  1  0  0  0  0
 51 72  1  0  0  0  0
 52 67  1  0  0  0  0
 53 66  1  0  0  0  0
 54 60  1  0  0  0  0
 55 63  1  0  0  0  0
 56 64  1  0  0  0  0
 57 64  1  0  0  0  0
 58 64  1  0  0  0  0
 59 74  1  0  0  0  0
 61 82  1  0  0  0  0
 62 64  1  0  0  0  0
 62 73  1  0  0  0  0
 63 74  1  0  0  0  0
 65 66  1  0  0  0  0
M  CHG  1  74   1
M  ISO  4  41 100  61 101  71 100  82 101
M  END
> <Batch ID>
0118

> <Smiles>
CCc1cc(C=CC(=O)[101CH2:1][101O:1]c2ccc3c(c2)CN(C(=O)C(NC(=O)C(C)NC)C(C)(C)C)C(C(=O)NC2CCCc4ccccc42)C3)cc([100NH:0][100C:0](=O)N2CCCC(n3nc(-c4ccc(Oc5ccc(F)cc5F)cc4)c(C(N)=O)c3N)C2)c1

> <Shape>
0.264

> <Color>
0.097

> <Negative vol penalty>
0.000

$$$$

  -OEChem-04052301483D

 84 92  0     1  0  0  0  0  0999 V2000
  -26.9251  -32.6632   27.1891 C   0  0  0  0  0  0  0  0  0  0  0  0
  -27.2828  -31.6310   26.3277 C   0  0  0  0  0  0  0  0  0  0  0  0
  -24.0739   -9.7293   22.1595 C   0  0  0  0  0  0  0  0  0  0  0  0
  -22.9460  -10.1681   20.0685 C   0  0  0  0  0  0  0  0  0  0  0  0
  -27.3449  -21.7340   24.4942 C   0  0  0  0  0  0  0  0  0  0  0  0
  -27.3904  -23.0983   24.7807 C   0  0  0  0  0  0  0  0  0  0  0  0
  -25.5826  -32.8776   27.4987 C   0  0  0  0  0  0  0  0  0  0  0  0
  -26.2983  -30.8118   25.7763 C   0  0  0  0  0  0  0  0  0  0  0  0
  -26.9979  -29.9956   20.8276 C   0  0  0  0  0  0  0  0  0  0  0  0
  -23.2464   -8.6273   22.3747 C   0  0  0  0  0  0  0  0  0  0  0  0
  -22.1185   -9.0661   20.2836 C   0  0  0  0  0  0  0  0  0  0  0  0
  -27.9674  -29.0607   20.4673 C   0  0  0  0  0  0  0  0  0  0  0  0
  -23.0297   -5.4279   21.3025 C   0  0  0  0  0  0  0  0  0  0  0  0
  -23.6258   -4.2452   21.7401 C   0  0  0  0  0  0  0  0  0  0  0  0
  -29.0808  -22.0236   22.8390 C   0  0  0  0  0  0  0  0  0  0  0  0
  -26.2403  -27.4132   20.1178 C   0  0  0  0  0  0  0  0  0  0  0  0
  -22.2676   -4.2996   23.7375 C   0  0  0  0  0  0  0  0  0  0  0  0
  -23.9237  -10.4998   21.0064 C   0  0  0  0  0  0  0  0  0  0  0  0
  -28.1901  -21.1966   23.5234 C   0  0  0  0  0  0  0  0  0  0  0  0
  -28.2811  -23.9253   24.0964 C   0  0  0  0  0  0  0  0  0  0  0  0
  -26.0181  -11.6539   20.1179 C   0  0  0  0  0  0  0  0  0  0  0  0
  -24.5804  -32.0667   26.9432 C   0  0  0  0  0  0  0  0  0  0  0  0
  -25.6409  -29.6426   20.8463 C   0  0  0  0  0  0  0  0  0  0  0  0
  -24.9413  -31.0147   26.0798 C   0  0  0  0  0  0  0  0  0  0  0  0
  -25.2554  -28.3462   20.4763 C   0  0  0  0  0  0  0  0  0  0  0  0
  -29.1264  -23.3880   23.1256 C   0  0  0  0  0  0  0  0  0  0  0  0
  -22.2687   -8.2957   21.4368 C   0  0  0  0  0  0  0  0  0  0  0  0
  -27.5890  -27.7685   20.1151 C   0  0  0  0  0  0  0  0  0  0  0  0
  -22.0526   -6.0465   22.0825 C   0  0  0  0  0  0  0  0  0  0  0  0
  -23.2447   -3.6811   22.9576 C   0  0  0  0  0  0  0  0  0  0  0  0
  -21.6715   -5.4824   23.2999 C   0  0  0  0  0  0  0  0  0  0  0  0
  -24.7779  -11.6386   20.7839 C   0  0  0  0  0  0  0  0  0  0  0  0
  -26.4220  -12.9654   20.1743 C   0  0  0  0  0  0  0  0  0  0  0  0
  -27.2455  -26.1373   24.3193 C   0  0  0  0  0  0  0  0  0  0  0  0
  -28.1423  -19.7738   23.2260 C   0  0  0  0  0  0  0  0  0  0  0  0
  -28.3031  -25.3465   24.4189 C   0  0  0  0  0  0  0  0  0  0  0  0
  -27.1129  -18.9480   23.5113 C   0  0  0  0  0  0  0  0  0  0  0  0
  -29.5863  -24.7196   21.3255 C   0  0  0  0  0  0  0  0  0  0  0  0
  -26.7403  -10.5786   19.5032 C   0  0  0  0  0  0  0  0  0  0  0  0
  -27.2112  -17.5234   23.1353 C   0  0  0  0  0  0  0  0  0  0  0  0
  -23.3903  -29.5023   23.0865 C   0  0  0  0  0  0  0  0  0  0  0  0
  -21.4645  -28.8469   20.5598 C   0  0  0  0  0  0  0  0  0  0  0  0
  -21.1691  -27.6642   17.3722 C   0  0  0  0  0  0  0  0  0  0  0  0
  -23.1466  -32.3071   27.3446 C   0  0  0  0  0  0  0  0  0  0  0  0
  -24.6052  -30.6703   21.2115 C   0  0  0  0  0  0  0  0  0  0  0  0
  -23.8100  -27.9228   20.4605 C   0  0  0  0  0  0  0  0  0  0  0  0
  -22.1346  -31.6303   26.4236 C   0  0  0  0  0  0  0  0  0  0  0  0
  -23.9350  -17.1346   21.5393 C   0  0  0  0  0  0  0  0  0  0  0  0
  -22.5426  -30.1859   26.1518 C   0  0  0  0  0  0  0  0  0  0  0  0
  -23.9532  -15.6489   21.1895 C   0  0  0  0  0  0  0  0  0  0  0  0
  -24.6772  -17.4241   22.8430 C   0  0  0  0  0  0  0  0  0  0  0  0
  -26.0931  -15.4178   22.5114 C   0  0  0  0  0  0  0  0  0  0  0  0
  -23.9004  -30.1204   25.4420 C   0  0  1  0  0  0  0  0  0  0  0  0
  -23.2951  -30.0537   21.6920 C   0  0  1  0  0  0  0  0  0  0  0  0
  -25.3924  -15.1098   21.1789 C   0  0  1  0  0  0  0  0  0  0  0  0
  -19.4628  -27.2164   15.5874 C   0  0  0  0  0  0  0  0  0  0  0  0
  -20.5478  -26.3559   22.0646 C   0  0  0  0  0  0  0  0  0  0  0  0
  -19.6169  -25.4825   19.9108 C   0  0  0  0  0  0  0  0  0  0  0  0
  -18.7215  -27.5955   20.8887 C   0  0  0  0  0  0  0  0  0  0  0  0
  -22.4608  -29.5574   15.4998 C   0  0  0  0  0  0  0  0  0  0  0  0
  -30.4614  -25.6172   20.4921 C   0  0  0  0  0  0  0  0  0  0  0  0
  -29.8226  -26.9894   20.3602 C   0  0  0  0  0  0  0  0  0  1  0  0
  -21.0255  -27.5902   19.8478 C   0  0  1  0  0  0  0  0  0  0  0  0
  -20.4549  -28.2204   16.1536 C   0  0  2  0  0  0  0  0  0  0  0  0
  -20.0054  -26.7631   20.6800 C   0  0  0  0  0  0  0  0  0  0  0  0
  -24.4177  -12.8447   21.2307 N   0  0  0  0  0  0  0  0  0  0  0  0
  -30.0329  -24.1978   22.4210 N   0  0  0  0  0  0  0  0  0  0  0  0
  -25.4377  -13.6301   20.8448 N   0  0  0  0  0  0  0  0  0  0  0  0
  -26.0303  -16.8482   22.8314 N   0  0  0  0  0  0  0  0  0  0  0  0
  -22.8352  -28.9618   20.8315 N   0  0  0  0  0  0  0  0  0  0  0  0
  -27.5196  -13.6034   19.7153 N   0  0  0  0  0  0  0  0  0  0  0  0
  -26.1815   -9.2937   19.5358 N   0  0  0  0  0  0  0  0  0  0  0  0
  -23.7523  -30.4370   24.0377 N   0  0  0  0  0  0  0  0  0  0  0  0
  -20.5290  -28.0128   18.5427 N   0  0  0  0  0  0  0  0  0  0  0  0
  -21.4387  -28.5613   15.0874 N   0  3  0  0  0  0  0  0  0  0  0  0
  -27.8561  -10.7491   18.9560 O   0  0  0  0  0  0  0  0  0  0  0  0
  -28.3341  -17.0161   23.1178 O   0  0  0  0  0  0  0  0  0  0  0  0
  -23.1514  -28.3168   23.2850 O   0  0  0  0  0  0  0  0  0  0  0  0
  -20.6232  -29.6986   20.8573 O   0  0  0  0  0  0  0  0  0  0  0  0
  -22.1904  -26.9851   17.2935 O   0  0  0  0  0  0  0  0  0  0  0  0
  -21.4611   -7.2203   21.6463 O   0  0  0  0  0  0  0  0  0  0  0  0
  -28.5333  -26.8539   19.7637 O   0  0  0  0  0  0  0  0  0  1  0  0
  -23.8161   -2.5445   23.3769 F   0  0  0  0  0  0  0  0  0  0  0  0
  -20.7325   -6.0715   24.0529 F   0  0  0  0  0  0  0  0  0  0  0  0
  1  2  1  0  0  0  0
  1  7  2  0  0  0  0
  2  8  2  0  0  0  0
  3 10  2  0  0  0  0
  3 18  1  0  0  0  0
  4 11  1  0  0  0  0
  4 18  2  0  0  0  0
  5  6  2  0  0  0  0
  5 19  1  0  0  0  0
  6 20  1  0  0  0  0
  7 22  1  0  0  0  0
  8 24  1  0  0  0  0
  9 12  2  0  0  0  0
  9 23  1  0  0  0  0
 10 27  1  0  0  0  0
 11 27  2  0  0  0  0
 12 28  1  0  0  0  0
 13 14  2  0  0  0  0
 13 29  1  0  0  0  0
 14 30  1  0  0  0  0
 15 19  2  0  0  0  0
 15 26  1  0  0  0  0
 16 25  1  0  0  0  0
 16 28  2  0  0  0  0
 17 30  2  0  0  0  0
 17 31  1  0  0  0  0
 18 32  1  0  0  0  0
 19 35  1  0  0  0  0
 20 26  2  0  0  0  0
 20 36  1  0  0  0  0
 21 32  1  0  0  0  0
 21 33  2  0  0  0  0
 21 39  1  0  0  0  0
 22 24  2  0  0  0  0
 22 44  1  0  0  0  0
 23 25  2  0  0  0  0
 23 45  1  0  0  0  0
 24 53  1  0  0  0  0
 25 46  1  0  0  0  0
 26 67  1  0  0  0  0
 27 81  1  0  0  0  0
 28 82  1  0  0  0  0
 29 31  2  0  0  0  0
 29 81  1  0  0  0  0
 30 83  1  0  0  0  0
 31 84  1  0  0  0  0
 32 66  2  0  0  0  0
 33 68  1  0  0  0  0
 33 71  1  0  0  0  0
 34 36  2  0  0  0  0
 35 37  2  0  0  0  0
 37 40  1  0  0  0  0
 38 61  1  0  0  0  0
 38 67  2  0  0  0  0
 39 72  1  0  0  0  0
 39 76  2  0  0  0  0
 40 69  1  0  0  0  0
 40 77  2  0  0  0  0
 41 54  1  0  0  0  0
 41 73  1  0  0  0  0
 41 78  2  0  0  0  0
 42 63  1  0  0  0  0
 42 70  1  0  0  0  0
 42 79  2  0  0  0  0
 43 64  1  0  0  0  0
 43 74  1  0  0  0  0
 43 80  2  0  0  0  0
 44 47  1  0  0  0  0
 45 54  1  0  0  0  0
 46 70  1  0  0  0  0
 47 49  1  0  0  0  0
 48 50  1  0  0  0  0
 48 51  1  0  0  0  0
 49 53  1  0  0  0  0
 50 55  1  0  0  0  0
 51 69  1  0  0  0  0
 52 55  1  0  0  0  0
 52 69  1  0  0  0  0
 53 73  1  0  0  0  0
 54 70  1  0  0  0  0
 55 68  1  0  0  0  0
 56 64  1  0  0  0  0
 57 65  1  0  0  0  0
 58 65  1  0  0  0  0
 59 65  1  0  0  0  0
 60 75  1  0  0  0  0
 61 62  1  0  0  0  0
 62 82  1  0  0  0  0
 63 65  1  0  0  0  0
 63 74  1  0  0  0  0
 64 75  1  0  0  0  0
 66 68  1  0  0  0  0
M  CHG  1  75   1
M  ISO  4  37 100  40 100  62 101  82 101
M  END
> <Batch ID>
0118

> <Smiles>
C=Cc1ccc(C=[100CH:0][100C:0](=O)N2CCCC(n3nc(-c4ccc(Oc5ccc(F)cc5F)cc4)c(C(N)=O)c3N)C2)cc1NC=C[101CH2:1][101O:1]c1ccc2c(c1)CN(C(=O)C(NC(=O)C(C)NC)C(C)(C)C)C(C(=O)NC1CCCc3ccccc31)C2

> <Shape>
0.271

> <Color>
0.109

> <Negative vol penalty>
0.000

$$$$

  -OEChem-04052301483D

 84 92  0     1  0  0  0  0  0999 V2000
  -26.7032  -38.0993   20.9431 C   0  0  0  0  0  0  0  0  0  0  0  0
  -27.3495  -36.9946   20.3979 C   0  0  0  0  0  0  0  0  0  0  0  0
  -24.5570   -8.6354   21.3380 C   0  0  0  0  0  0  0  0  0  0  0  0
  -23.7179  -10.6252   22.4214 C   0  0  0  0  0  0  0  0  0  0  0  0
  -25.8958  -37.9474   22.0696 C   0  0  0  0  0  0  0  0  0  0  0  0
  -27.1897  -35.7374   20.9795 C   0  0  0  0  0  0  0  0  0  0  0  0
  -26.8876  -28.7893   19.2624 C   0  0  0  0  0  0  0  0  0  0  0  0
  -24.0326   -7.8538   22.3673 C   0  0  0  0  0  0  0  0  0  0  0  0
  -23.1935   -9.8436   23.4507 C   0  0  0  0  0  0  0  0  0  0  0  0
  -27.4648  -27.5683   19.6083 C   0  0  0  0  0  0  0  0  0  0  0  0
  -21.0142   -6.6303   23.2759 C   0  0  0  0  0  0  0  0  0  0  0  0
  -20.3217   -5.4723   22.9222 C   0  0  0  0  0  0  0  0  0  0  0  0
  -25.5259  -19.3259   20.3056 C   0  0  0  0  0  0  0  0  0  0  0  0
  -25.7491  -17.2616   19.0703 C   0  0  0  0  0  0  0  0  0  0  0  0
  -25.9823  -27.4117   21.5049 C   0  0  0  0  0  0  0  0  0  0  0  0
  -21.9061   -4.1433   24.1713 C   0  0  0  0  0  0  0  0  0  0  0  0
  -24.3997  -10.0212   21.3650 C   0  0  0  0  0  0  0  0  0  0  0  0
  -26.8573  -19.6357   20.0284 C   0  0  0  0  0  0  0  0  0  0  0  0
  -27.0805  -17.5715   18.7930 C   0  0  0  0  0  0  0  0  0  0  0  0
  -24.2978  -11.2076   19.1090 C   0  0  0  0  0  0  0  0  0  0  0  0
  -25.7183  -36.6860   22.6596 C   0  0  0  0  0  0  0  0  0  0  0  0
  -25.8591  -29.3369   20.0427 C   0  0  0  0  0  0  0  0  0  0  0  0
  -26.3803  -35.5687   22.1157 C   0  0  0  0  0  0  0  0  0  0  0  0
  -25.3920  -28.6386   21.1653 C   0  0  0  0  0  0  0  0  0  0  0  0
  -27.6346  -18.7586   19.2721 C   0  0  0  0  0  0  0  0  0  0  0  0
  -23.3508   -8.4579   23.4237 C   0  0  0  0  0  0  0  0  0  0  0  0
  -27.0142  -26.8806   20.7314 C   0  0  0  0  0  0  0  0  0  0  0  0
  -22.1527   -6.5448   24.0773 C   0  0  0  0  0  0  0  0  0  0  0  0
  -20.7677   -4.2288   23.3699 C   0  0  0  0  0  0  0  0  0  0  0  0
  -24.9717  -18.1387   19.8266 C   0  0  0  0  0  0  0  0  0  0  0  0
  -22.5987   -5.3013   24.5250 C   0  0  0  0  0  0  0  0  0  0  0  0
  -24.9418  -10.8292   20.3022 C   0  0  0  0  0  0  0  0  0  0  0  0
  -25.2291  -11.9648   18.4414 C   0  0  0  0  0  0  0  0  0  0  0  0
  -27.4094  -20.8977   20.5508 C   0  0  0  0  0  0  0  0  0  0  0  0
  -26.9285  -22.1206   20.2762 C   0  0  0  0  0  0  0  0  0  0  0  0
  -27.5045  -23.3288   20.8233 C   0  0  0  0  0  0  0  0  0  0  0  0
  -27.0298  -24.5485   20.5534 C   0  0  0  0  0  0  0  0  0  1  0  0
  -27.8661  -16.6347   18.0004 C   0  0  0  0  0  0  0  0  0  0  0  0
  -22.9759  -10.9020   18.6454 C   0  0  0  0  0  0  0  0  0  0  0  0
  -29.0933  -16.0082   18.5434 C   0  0  0  0  0  0  0  0  0  0  0  0
  -25.5109  -31.9962   21.7486 C   0  0  0  0  0  0  0  0  0  0  0  0
  -22.4645  -30.9285   22.0679 C   0  0  0  0  0  0  0  0  0  0  0  0
  -20.3025  -28.2880   22.0438 C   0  0  0  0  0  0  0  0  0  0  0  0
  -24.8735  -36.5793   23.9044 C   0  0  0  0  0  0  0  0  0  0  0  0
  -25.2287  -30.6421   19.6409 C   0  0  0  0  0  0  0  0  0  0  0  0
  -24.2767  -29.1736   22.0246 C   0  0  0  0  0  0  0  0  0  0  0  0
  -24.4575  -35.1488   24.2374 C   0  0  0  0  0  0  0  0  0  0  0  0
  -30.1528  -12.6705   19.3136 C   0  0  0  0  0  0  0  0  0  0  0  0
  -25.6525  -34.2068   24.1310 C   0  0  0  0  0  0  0  0  0  0  0  0
  -28.8394  -11.9356   19.5796 C   0  0  0  0  0  0  0  0  0  0  0  0
  -30.0848  -14.1215   19.7786 C   0  0  0  0  0  0  0  0  0  0  0  0
  -27.6269  -14.1581   19.4533 C   0  0  0  0  0  0  0  0  0  0  0  0
  -26.2120  -34.1843   22.7034 C   0  0  1  0  0  0  0  0  0  0  0  0
  -24.5384  -31.3541   20.8001 C   0  0  1  0  0  0  0  0  0  0  0  0
  -27.6479  -12.6969   18.9717 C   0  0  2  0  0  0  0  0  0  0  0  0
  -29.0653  -19.0836   18.9698 C   0  0  0  0  0  0  0  0  0  0  0  0
  -17.8802  -27.7223   22.3755 C   0  0  0  0  0  0  0  0  0  0  0  0
  -22.8137  -31.2132   25.0857 C   0  0  0  0  0  0  0  0  0  0  0  0
  -20.7866  -29.7748   25.3858 C   0  0  0  0  0  0  0  0  0  0  0  0
  -20.5942  -31.9698   24.2163 C   0  0  0  0  0  0  0  0  0  0  0  0
  -20.0457  -27.2557   19.2821 C   0  0  0  0  0  0  0  0  0  0  0  0
  -21.7403  -30.0409   23.0511 C   0  0  1  0  0  0  0  0  0  0  0  0
  -18.9571  -28.0939   21.3680 C   0  0  2  0  0  0  0  0  0  0  0  0
  -21.5061  -30.7403   24.4198 C   0  0  0  0  0  0  0  0  0  0  0  0
  -26.1861  -11.3065   20.3904 N   0  0  0  0  0  0  0  0  0  0  0  0
  -27.5492  -16.2879   16.7837 N   0  0  0  0  0  0  0  0  0  0  0  0
  -26.3315  -11.9926   19.2440 N   0  0  0  0  0  0  0  0  0  0  0  0
  -28.9232  -14.8041   19.2122 N   0  0  0  0  0  0  0  0  0  0  0  0
  -23.6969  -30.4566   21.5941 N   0  0  0  0  0  0  0  0  0  0  0  0
  -25.2045  -12.6029   17.2520 N   0  0  0  0  0  0  0  0  0  0  0  0
  -22.1498  -10.1114   19.4559 N   0  0  0  0  0  0  0  0  0  0  0  0
  -25.3786  -33.3682   21.8467 N   0  0  0  0  0  0  0  0  0  0  0  0
  -20.5172  -29.6067   22.3849 N   0  0  0  0  0  0  0  0  0  0  0  0
  -19.0411  -27.0101   20.3486 N   0  3  0  0  0  0  0  0  0  0  0  0
  -22.5459  -11.3040   17.5377 O   0  0  0  0  0  0  0  0  0  0  0  0
  -30.1324  -16.6236   18.3433 O   0  0  0  0  0  0  0  0  0  0  0  0
  -26.3203  -31.2984   22.3483 O   0  0  0  0  0  0  0  0  0  0  0  0
  -21.9523  -31.9976   21.7272 O   0  0  0  0  0  0  0  0  0  0  0  0
  -21.0832  -27.3619   22.2519 O   0  0  0  0  0  0  0  0  0  0  0  0
  -22.8387   -7.6954   24.4282 O   0  0  0  0  0  0  0  0  0  0  0  0
  -27.5762  -25.6889   21.0716 O   0  0  0  0  0  0  0  0  0  1  0  0
  -20.1017   -3.1170   23.0314 F   0  0  0  0  0  0  0  0  0  0  0  0
  -23.6930  -17.8413   20.0922 F   0  0  0  0  0  0  0  0  0  0  0  0
  -23.6911   -5.2129   25.2961 F   0  0  0  0  0  0  0  0  0  0  0  0
  1  2  1  0  0  0  0
  1  5  2  0  0  0  0
  2  6  2  0  0  0  0
  3  8  2  0  0  0  0
  3 17  1  0  0  0  0
  4  9  1  0  0  0  0
  4 17  2  0  0  0  0
  5 21  1  0  0  0  0
  6 23  1  0  0  0  0
  7 10  2  0  0  0  0
  7 22  1  0  0  0  0
  8 26  1  0  0  0  0
  9 26  2  0  0  0  0
 10 27  1  0  0  0  0
 11 12  2  0  0  0  0
 11 28  1  0  0  0  0
 12 29  1  0  0  0  0
 13 18  1  0  0  0  0
 13 30  2  0  0  0  0
 14 19  2  0  0  0  0
 14 30  1  0  0  0  0
 15 24  1  0  0  0  0
 15 27  2  0  0  0  0
 16 29  2  0  0  0  0
 16 31  1  0  0  0  0
 17 32  1  0  0  0  0
 18 25  2  0  0  0  0
 18 34  1  0  0  0  0
 19 25  1  0  0  0  0
 19 38  1  0  0  0  0
 20 32  1  0  0  0  0
 20 33  2  0  0  0  0
 20 39  1  0  0  0  0
 21 23  2  0  0  0  0
 21 44  1  0  0  0  0
 22 24  2  0  0  0  0
 22 45  1  0  0  0  0
 23 53  1  0  0  0  0
 24 46  1  0  0  0  0
 25 56  1  0  0  0  0
 26 80  1  0  0  0  0
 27 81  1  0  0  0  0
 28 31  2  0  0  0  0
 28 80  1  0  0  0  0
 29 82  1  0  0  0  0
 30 83  1  0  0  0  0
 31 84  1  0  0  0  0
 32 65  2  0  0  0  0
 33 67  1  0  0  0  0
 33 70  1  0  0  0  0
 34 35  2  0  0  0  0
 35 36  1  0  0  0  0
 36 37  2  0  0  0  0
 37 81  1  0  0  0  0
 38 40  1  0  0  0  0
 38 66  2  0  0  0  0
 39 71  1  0  0  0  0
 39 75  2  0  0  0  0
 40 68  1  0  0  0  0
 40 76  2  0  0  0  0
 41 54  1  0  0  0  0
 41 72  1  0  0  0  0
 41 77  2  0  0  0  0
 42 62  1  0  0  0  0
 42 69  1  0  0  0  0
 42 78  2  0  0  0  0
 43 63  1  0  0  0  0
 43 73  1  0  0  0  0
 43 79  2  0  0  0  0
 44 47  1  0  0  0  0
 45 54  1  0  0  0  0
 46 69  1  0  0  0  0
 47 49  1  0  0  0  0
 48 50  1  0  0  0  0
 48 51  1  0  0  0  0
 49 53  1  0  0  0  0
 50 55  1  0  0  0  0
 51 68  1  0  0  0  0
 52 55  1  0  0  0  0
 52 68  1  0  0  0  0
 53 72  1  0  0  0  0
 54 69  1  0  0  0  0
 55 67  1  0  0  0  0
 57 63  1  0  0  0  0
 58 64  1  0  0  0  0
 59 64  1  0  0  0  0
 60 64  1  0  0  0  0
 61 74  1  0  0  0  0
 62 64  1  0  0  0  0
 62 73  1  0  0  0  0
 63 74  1  0  0  0  0
 65 67  1  0  0  0  0
M  CHG  1  74   1
M  ISO  4  37 101  38 100  40 100  81 101
M  END
> <Batch ID>
0118

> <Smiles>
CNC(C)C(=O)NC(C(=O)N1Cc2cc([101O:1][101CH:1]=CC=Cc3cc(F)cc([100C:0](=N)[100C:0](=O)N4CCCC(n5nc(-c6ccc(Oc7ccc(F)cc7F)cc6)c(C(N)=O)c5N)C4)c3C)ccc2CC1C(=O)NC1CCCc2ccccc21)C(C)(C)C

> <Shape>
0.299

> <Color>
0.095

> <Negative vol penalty>
0.000

$$$$

  -OEChem-04052301483D

 84 92  0     1  0  0  0  0  0999 V2000
  -27.5728  -24.2322   17.1460 C   0  0  0  0  0  0  0  0  0  0  0  0
  -26.4273  -24.5114   17.8844 C   0  0  0  0  0  0  0  0  0  0  0  0
  -26.6541  -13.1117   19.9967 C   0  0  0  0  0  0  0  0  0  0  0  0
  -24.4790  -13.6352   20.9088 C   0  0  0  0  0  0  0  0  0  0  0  0
  -28.8062  -24.7351   17.5581 C   0  0  0  0  0  0  0  0  0  0  0  0
  -26.5147  -25.2927   19.0360 C   0  0  0  0  0  0  0  0  0  0  0  0
  -22.8580  -28.7865   19.2953 C   0  0  0  0  0  0  0  0  0  0  0  0
  -26.5150  -11.7909   20.4230 C   0  0  0  0  0  0  0  0  0  0  0  0
  -24.3398  -12.3144   21.3350 C   0  0  0  0  0  0  0  0  0  0  0  0
  -21.5928  -28.3557   19.6923 C   0  0  0  0  0  0  0  0  0  0  0  0
  -23.5429   -9.3284   19.9678 C   0  0  0  0  0  0  0  0  0  0  0  0
  -22.3217   -8.6977   19.7306 C   0  0  0  0  0  0  0  0  0  0  0  0
  -22.0208  -29.1723   21.9214 C   0  0  0  0  0  0  0  0  0  0  0  0
  -24.3400  -23.0526   23.4230 C   0  0  0  0  0  0  0  0  0  0  0  0
  -22.7658  -21.2346   23.6548 C   0  0  0  0  0  0  0  0  0  0  0  0
  -22.0331   -8.3629   22.1058 C   0  0  0  0  0  0  0  0  0  0  0  0
  -25.6361  -14.0339   20.2396 C   0  0  0  0  0  0  0  0  0  0  0  0
  -25.3888  -15.9376   18.5596 C   0  0  0  0  0  0  0  0  0  0  0  0
  -28.9073  -25.5311   18.7100 C   0  0  0  0  0  0  0  0  0  0  0  0
  -23.7197  -29.4046   20.2127 C   0  0  0  0  0  0  0  0  0  0  0  0
  -27.7508  -25.8057   19.4647 C   0  0  0  0  0  0  0  0  0  0  0  0
  -23.2954  -29.6123   21.5329 C   0  0  0  0  0  0  0  0  0  0  0  0
  -23.2952  -23.9707   23.5278 C   0  0  0  0  0  0  0  0  0  0  0  0
  -24.0753  -21.6845   23.4864 C   0  0  0  0  0  0  0  0  0  0  0  0
  -25.3579  -11.3922   21.0921 C   0  0  0  0  0  0  0  0  0  0  0  0
  -21.1751  -28.5460   21.0062 C   0  0  0  0  0  0  0  0  0  0  0  0
  -24.0094   -9.4763   21.2741 C   0  0  0  0  0  0  0  0  0  0  0  0
  -21.9856  -23.5208   23.6962 C   0  0  0  0  0  0  0  0  0  0  0  0
  -21.5668   -8.2150   20.7996 C   0  0  0  0  0  0  0  0  0  0  0  0
  -21.7209  -22.1527   23.7596 C   0  0  0  0  0  0  0  0  0  0  0  0
  -23.2545   -8.9936   22.3430 C   0  0  0  0  0  0  0  0  0  0  0  0
  -25.7795  -15.3985   19.8000 C   0  0  0  0  0  0  0  0  0  0  0  0
  -25.7390  -17.2635   18.6358 C   0  0  0  0  0  0  0  0  0  0  0  0
  -24.7651  -15.2970   17.4387 C   0  0  0  0  0  0  0  0  0  0  0  0
  -26.5854  -28.7243   21.4080 C   0  0  0  0  0  0  0  0  0  0  0  0
  -26.2849  -31.6555   22.7644 C   0  0  0  0  0  0  0  0  0  0  0  0
  -24.2217  -34.1477   23.8503 C   0  0  0  0  0  0  0  0  0  0  0  0
  -26.4926  -21.0299   23.2131 C   0  0  0  0  0  0  0  0  0  0  0  0
  -30.2695  -26.0130   19.1422 C   0  0  0  0  0  0  0  0  0  0  0  0
  -25.0710  -29.8876   19.7620 C   0  0  0  0  0  0  0  0  0  0  0  0
  -24.1748  -30.2890   22.5514 C   0  0  0  0  0  0  0  0  0  0  0  0
  -30.2189  -27.1440   20.1662 C   0  0  0  0  0  0  0  0  0  0  0  0
  -28.9014  -20.1870   20.7303 C   0  0  0  0  0  0  0  0  0  0  0  0
  -29.2187  -26.8193   21.2712 C   0  0  0  0  0  0  0  0  0  0  0  0
  -28.3355  -18.9159   20.0929 C   0  0  0  0  0  0  0  0  0  0  0  0
  -28.6336  -20.2354   22.2335 C   0  0  0  0  0  0  0  0  0  0  0  0
  -26.6635  -18.7775   21.9830 C   0  0  0  0  0  0  0  0  0  0  0  0
  -27.8011  -26.6701   20.7058 C   0  0  1  0  0  0  0  0  0  0  0  0
  -26.0637  -30.0424   20.9101 C   0  0  1  0  0  0  0  0  0  0  0  0
  -26.8518  -18.7146   20.4584 C   0  0  2  0  0  0  0  0  0  0  0  0
  -23.5965  -25.4315   23.4564 C   0  0  0  0  0  0  0  0  0  0  0  0
  -24.2664  -36.4039   24.9479 C   0  0  0  0  0  0  0  0  0  0  0  0
  -26.8685  -30.3339   25.4518 C   0  0  0  0  0  0  0  0  0  0  0  0
  -25.9771  -32.3858   26.5757 C   0  0  0  0  0  0  0  0  0  0  0  0
  -27.9897  -32.5431   25.1105 C   0  0  0  0  0  0  0  0  0  0  0  0
  -22.9283  -35.4353   21.5205 C   0  0  0  0  0  0  0  0  0  0  0  0
  -18.4621  -26.2352   21.6580 C   0  0  0  0  0  0  0  0  0  0  0  0
  -19.1819  -25.7650   22.9172 C   0  0  0  0  0  0  0  0  0  0  0  0
  -19.3989  -26.9900   20.7241 C   0  0  0  0  0  0  0  0  0  1  0  0
  -20.3109  -24.7976   22.5913 C   0  0  0  0  0  0  0  0  0  0  0  0
  -25.7182  -32.1804   24.0614 C   0  0  1  0  0  0  0  0  0  0  0  0
  -24.2520  -35.6491   23.6278 C   0  0  2  0  0  0  0  0  0  0  0  0
  -26.6223  -31.8463   25.2814 C   0  0  0  0  0  0  0  0  0  0  0  0
  -26.3354  -16.3077   20.6052 N   0  0  0  0  0  0  0  0  0  0  0  0
  -26.2967  -17.4314   19.8691 N   0  0  0  0  0  0  0  0  0  0  0  0
  -25.4895  -30.7377   22.0638 N   0  0  0  0  0  0  0  0  0  0  0  0
  -27.2073  -20.0417   22.5037 N   0  0  0  0  0  0  0  0  0  0  0  0
  -25.6213  -18.2904   17.7675 N   0  0  0  0  0  0  0  0  0  0  0  0
  -24.4741  -13.9289   17.5278 N   0  0  0  0  0  0  0  0  0  0  0  0
  -25.1366  -20.7515   23.3814 N   0  0  0  0  0  0  0  0  0  0  0  0
  -27.2230  -27.9702   20.4414 N   0  0  0  0  0  0  0  0  0  0  0  0
  -25.4902  -33.6071   23.8596 N   0  0  0  0  0  0  0  0  0  0  0  0
  -23.0555  -36.0819   22.8519 N   0  3  0  0  0  0  0  0  0  0  0  0
  -24.4895  -15.9158   16.3830 O   0  0  0  0  0  0  0  0  0  0  0  0
  -26.4229  -28.4149   22.5826 O   0  0  0  0  0  0  0  0  0  0  0  0
  -27.3894  -32.0510   22.3831 O   0  0  0  0  0  0  0  0  0  0  0  0
  -23.1776  -33.5181   24.0043 O   0  0  0  0  0  0  0  0  0  0  0  0
  -27.0371  -22.0609   23.6161 O   0  0  0  0  0  0  0  0  0  0  0  0
  -25.2217  -10.1034   21.5080 O   0  0  0  0  0  0  0  0  0  0  0  0
  -19.9410  -28.1259   21.3965 O   0  0  0  0  0  0  0  0  0  1  0  0
  -20.9480  -24.4104   23.8009 O   0  0  0  0  0  0  0  0  0  0  0  0
  -20.3932   -7.6107   20.5717 F   0  0  0  0  0  0  0  0  0  0  0  0
  -20.4650  -21.7136   23.9214 F   0  0  0  0  0  0  0  0  0  0  0  0
  -23.6968   -9.1339   23.6002 F   0  0  0  0  0  0  0  0  0  0  0  0
  1  2  1  0  0  0  0
  1  5  2  0  0  0  0
  2  6  2  0  0  0  0
  3  8  2  0  0  0  0
  3 17  1  0  0  0  0
  4  9  1  0  0  0  0
  4 17  2  0  0  0  0
  5 19  1  0  0  0  0
  6 21  1  0  0  0  0
  7 10  2  0  0  0  0
  7 20  1  0  0  0  0
  8 25  1  0  0  0  0
  9 25  2  0  0  0  0
 10 26  1  0  0  0  0
 11 12  2  0  0  0  0
 11 27  1  0  0  0  0
 12 29  1  0  0  0  0
 13 22  1  0  0  0  0
 13 26  2  0  0  0  0
 14 23  2  0  0  0  0
 14 24  1  0  0  0  0
 15 24  2  0  0  0  0
 15 30  1  0  0  0  0
 16 29  2  0  0  0  0
 16 31  1  0  0  0  0
 17 32  1  0  0  0  0
 18 32  1  0  0  0  0
 18 33  2  0  0  0  0
 18 34  1  0  0  0  0
 19 21  2  0  0  0  0
 19 39  1  0  0  0  0
 20 22  2  0  0  0  0
 20 40  1  0  0  0  0
 21 48  1  0  0  0  0
 22 41  1  0  0  0  0
 23 28  1  0  0  0  0
 23 51  1  0  0  0  0
 24 70  1  0  0  0  0
 25 79  1  0  0  0  0
 26 80  1  0  0  0  0
 27 31  2  0  0  0  0
 27 79  1  0  0  0  0
 28 30  2  0  0  0  0
 28 81  1  0  0  0  0
 29 82  1  0  0  0  0
 30 83  1  0  0  0  0
 31 84  1  0  0  0  0
 32 64  2  0  0  0  0
 33 65  1  0  0  0  0
 33 68  1  0  0  0  0
 34 69  1  0  0  0  0
 34 74  2  0  0  0  0
 35 49  1  0  0  0  0
 35 71  1  0  0  0  0
 35 75  2  0  0  0  0
 36 61  1  0  0  0  0
 36 66  1  0  0  0  0
 36 76  2  0  0  0  0
 37 62  1  0  0  0  0
 37 72  1  0  0  0  0
 37 77  2  0  0  0  0
 38 67  1  0  0  0  0
 38 70  1  0  0  0  0
 38 78  2  0  0  0  0
 39 42  1  0  0  0  0
 40 49  1  0  0  0  0
 41 66  1  0  0  0  0
 42 44  1  0  0  0  0
 43 45  1  0  0  0  0
 43 46  1  0  0  0  0
 44 48  1  0  0  0  0
 45 50  1  0  0  0  0
 46 67  1  0  0  0  0
 47 50  1  0  0  0  0
 47 67  1  0  0  0  0
 48 71  1  0  0  0  0
 49 66  1  0  0  0  0
 50 65  1  0  0  0  0
 52 62  1  0  0  0  0
 53 63  1  0  0  0  0
 54 63  1  0  0  0  0
 55 63  1  0  0  0  0
 56 73  1  0  0  0  0
 57 58  1  0  0  0  0
 57 59  1  0  0  0  0
 58 60  1  0  0  0  0
 59 80  1  0  0  0  0
 60 81  1  0  0  0  0
 61 63  1  0  0  0  0
 61 72  1  0  0  0  0
 62 73  1  0  0  0  0
 64 65  1  0  0  0  0
M  CHG  1  73   1
M  ISO  4  38 100  59 101  70 100  80 101
M  END
> <Batch ID>
0118

> <Smiles>
CNC(C)C(=O)NC(C(=O)N1Cc2cc([101O:1][101CH2:1]CCCOc3c(C)cc([100NH:0][100C:0](=O)N4CCCC(n5nc(-c6ccc(Oc7ccc(F)cc7F)cc6)c(C(N)=O)c5N)C4)cc3F)ccc2CC1C(=O)NC1CCCc2ccccc21)C(C)(C)C

> <Shape>
0.307

> <Color>
0.089

> <Negative vol penalty>
0.000

$$$$

  -OEChem-04052301483D

 83 91  0     1  0  0  0  0  0999 V2000
  -19.3807  -33.5962   21.0642 C   0  0  0  0  0  0  0  0  0  0  0  0
  -20.7045  -33.2583   20.8020 C   0  0  0  0  0  0  0  0  0  0  0  0
  -24.0638   -9.8601   22.0852 C   0  0  0  0  0  0  0  0  0  0  0  0
  -23.5229   -9.5770   19.7476 C   0  0  0  0  0  0  0  0  0  0  0  0
  -28.5989  -21.6548   20.8257 C   0  0  0  0  0  0  0  0  0  0  0  0
  -29.8236  -21.1400   18.8078 C   0  0  0  0  0  0  0  0  0  0  0  0
  -18.6542  -32.8786   22.0136 C   0  0  0  0  0  0  0  0  0  0  0  0
  -21.3029  -32.2032   21.4898 C   0  0  0  0  0  0  0  0  0  0  0  0
  -25.4753  -28.2847   19.3123 C   0  0  0  0  0  0  0  0  0  0  0  0
  -28.7446  -23.0175   20.5666 C   0  0  0  0  0  0  0  0  0  0  0  0
  -29.9693  -22.5028   18.5486 C   0  0  0  0  0  0  0  0  0  0  0  0
  -23.0535   -8.9616   22.4279 C   0  0  0  0  0  0  0  0  0  0  0  0
  -22.5126   -8.6784   20.0903 C   0  0  0  0  0  0  0  0  0  0  0  0
  -26.8643  -28.2364   19.4225 C   0  0  0  0  0  0  0  0  0  0  0  0
  -22.6110   -5.6097   22.4732 C   0  0  0  0  0  0  0  0  0  0  0  0
  -22.9071   -4.6331   23.4240 C   0  0  0  0  0  0  0  0  0  0  0  0
  -26.6581  -26.7046   21.2745 C   0  0  0  0  0  0  0  0  0  0  0  0
  -21.1519   -5.4870   24.8478 C   0  0  0  0  0  0  0  0  0  0  0  0
  -24.2985  -10.1679   20.7451 C   0  0  0  0  0  0  0  0  0  0  0  0
  -29.1384  -20.7160   19.9463 C   0  0  0  0  0  0  0  0  0  0  0  0
  -26.6891  -10.7966   20.1148 C   0  0  0  0  0  0  0  0  0  0  0  0
  -19.2411  -31.8081   22.7065 C   0  0  0  0  0  0  0  0  0  0  0  0
  -24.6657  -27.5505   20.1908 C   0  0  0  0  0  0  0  0  0  0  0  0
  -20.5841  -31.4716   22.4503 C   0  0  0  0  0  0  0  0  0  0  0  0
  -25.2592  -26.7432   21.1718 C   0  0  0  0  0  0  0  0  0  0  0  0
  -29.4298  -23.4416   19.4280 C   0  0  0  0  0  0  0  0  0  0  0  0
  -22.2779   -8.3707   21.4304 C   0  0  0  0  0  0  0  0  0  0  0  0
  -27.4559  -27.4486   20.4056 C   0  0  0  0  0  0  0  0  0  0  0  0
  -21.5854   -6.5251   22.7097 C   0  0  0  0  0  0  0  0  0  0  0  0
  -22.1776   -4.5717   24.6113 C   0  0  0  0  0  0  0  0  0  0  0  0
  -20.8558   -6.4637   23.8970 C   0  0  0  0  0  0  0  0  0  0  0  0
  -25.3416  -11.0965   20.3905 C   0  0  0  0  0  0  0  0  0  0  0  0
  -27.2613  -12.0133   19.8342 C   0  0  0  0  0  0  0  0  0  0  0  0
  -28.9864  -19.2948   20.2160 C   0  0  0  0  0  0  0  0  0  0  0  0
  -28.0587  -18.7468   21.0296 C   0  0  0  0  0  0  0  0  0  0  0  0
  -30.6314  -25.3715   19.6650 C   0  0  0  0  0  0  0  0  0  0  0  0
  -27.3634   -9.5312   20.1125 C   0  0  0  0  0  0  0  0  0  0  0  0
  -28.0258  -17.2796   21.1933 C   0  0  0  0  0  0  0  0  0  0  0  0
  -22.4617  -28.2906   22.3585 C   0  0  0  0  0  0  0  0  0  0  0  0
  -22.0902  -25.0717   22.5104 C   0  0  0  0  0  0  0  0  0  0  0  0
  -23.4377  -21.9737   22.0271 C   0  0  0  0  0  0  0  0  0  0  0  0
  -18.4305  -31.0921   23.7577 C   0  0  0  0  0  0  0  0  0  0  0  0
  -23.1695  -27.5924   20.0417 C   0  0  0  0  0  0  0  0  0  0  0  0
  -24.4350  -25.9202   22.1266 C   0  0  0  0  0  0  0  0  0  0  0  0
  -19.0232  -29.7482   24.1733 C   0  0  0  0  0  0  0  0  0  0  0  0
  -25.1813  -16.5321   19.0066 C   0  0  0  0  0  0  0  0  0  0  0  0
  -20.5212  -29.8815   24.4286 C   0  0  0  0  0  0  0  0  0  0  0  0
  -25.0563  -15.0223   19.1932 C   0  0  0  0  0  0  0  0  0  0  0  0
  -25.6404  -17.2302   20.2858 C   0  0  0  0  0  0  0  0  0  0  0  0
  -26.7777  -15.1605   21.0365 C   0  0  0  0  0  0  0  0  0  0  0  0
  -21.2607  -30.3177   23.1580 C   0  0  1  0  0  0  0  0  0  0  0  0
  -22.4307  -27.2059   21.3192 C   0  0  1  0  0  0  0  0  0  0  0  0
  -26.3623  -14.4325   19.7486 C   0  0  1  0  0  0  0  0  0  0  0  0
  -31.7376  -27.0012   18.1859 C   0  0  0  0  0  0  0  0  0  0  0  0
  -22.9066  -19.5338   22.2762 C   0  0  0  0  0  0  0  0  0  0  0  0
  -22.5050  -25.2916   25.5252 C   0  0  0  0  0  0  0  0  0  0  0  0
  -22.9118  -22.8219   25.5792 C   0  0  0  0  0  0  0  0  0  0  0  0
  -20.7008  -23.7040   24.8335 C   0  0  0  0  0  0  0  0  0  0  0  0
  -23.7640  -21.4876   19.1260 C   0  0  0  0  0  0  0  0  0  0  0  0
  -29.5672  -27.5830   19.3192 C   0  0  0  0  0  0  0  0  0  1  0  0
  -30.8969  -26.8443   19.4469 C   0  0  1  0  0  0  0  0  0  0  0  0
  -22.7114  -23.9609   23.3224 C   0  0  1  0  0  0  0  0  0  0  0  0
  -22.8923  -20.7337   21.3420 C   0  0  2  0  0  0  0  0  0  0  0  0
  -22.2230  -23.9615   24.7985 C   0  0  0  0  0  0  0  0  0  0  0  0
  -25.0736  -12.4015   20.2940 N   0  0  0  0  0  0  0  0  0  0  0  0
  -29.5761  -24.8141   19.1665 N   0  0  0  0  0  0  0  0  0  0  0  0
  -26.2607  -12.9323   19.9546 N   0  0  0  0  0  0  0  0  0  0  0  0
  -26.8584  -16.6108   20.8296 N   0  0  0  0  0  0  0  0  0  0  0  0
  -22.9762  -25.9995   21.9447 N   0  0  0  0  0  0  0  0  0  0  0  0
  -28.5176  -12.3760   19.4988 N   0  0  0  0  0  0  0  0  0  0  0  0
  -26.6259   -8.3806   20.4233 N   0  0  0  0  0  0  0  0  0  0  0  0
  -21.4231  -29.1963   22.2576 N   0  0  0  0  0  0  0  0  0  0  0  0
  -22.4331  -22.7235   22.6014 N   0  0  0  0  0  0  0  0  0  0  0  0
  -23.7100  -20.4037   20.1406 N   0  3  0  0  0  0  0  0  0  0  0  0
  -28.5874   -9.4261   19.8589 O   0  0  0  0  0  0  0  0  0  0  0  0
  -29.0340  -16.7354   21.6474 O   0  0  0  0  0  0  0  0  0  0  0  0
  -23.3607  -28.3039   23.1912 O   0  0  0  0  0  0  0  0  0  0  0  0
  -20.8645  -25.1105   22.3768 O   0  0  0  0  0  0  0  0  0  0  0  0
  -24.6355  -22.2477   22.0536 O   0  0  0  0  0  0  0  0  0  0  0  0
  -21.2921   -7.4936   21.7644 O   0  0  0  0  0  0  0  0  0  0  0  0
  -28.8114  -27.4002   20.5157 O   0  0  0  0  0  0  0  0  0  1  0  0
  -22.4610   -3.6328   25.5236 F   0  0  0  0  0  0  0  0  0  0  0  0
  -19.8686   -7.3397   24.1293 F   0  0  0  0  0  0  0  0  0  0  0  0
  1  2  1  0  0  0  0
  1  7  2  0  0  0  0
  2  8  2  0  0  0  0
  3 12  2  0  0  0  0
  3 19  1  0  0  0  0
  4 13  1  0  0  0  0
  4 19  2  0  0  0  0
  5 10  2  0  0  0  0
  5 20  1  0  0  0  0
  6 11  1  0  0  0  0
  6 20  2  0  0  0  0
  7 22  1  0  0  0  0
  8 24  1  0  0  0  0
  9 14  2  0  0  0  0
  9 23  1  0  0  0  0
 10 26  1  0  0  0  0
 11 26  2  0  0  0  0
 12 27  1  0  0  0  0
 13 27  2  0  0  0  0
 14 28  1  0  0  0  0
 15 16  2  0  0  0  0
 15 29  1  0  0  0  0
 16 30  1  0  0  0  0
 17 25  1  0  0  0  0
 17 28  2  0  0  0  0
 18 30  2  0  0  0  0
 18 31  1  0  0  0  0
 19 32  1  0  0  0  0
 20 34  1  0  0  0  0
 21 32  1  0  0  0  0
 21 33  2  0  0  0  0
 21 37  1  0  0  0  0
 22 24  2  0  0  0  0
 22 42  1  0  0  0  0
 23 25  2  0  0  0  0
 23 43  1  0  0  0  0
 24 51  1  0  0  0  0
 25 44  1  0  0  0  0
 26 66  1  0  0  0  0
 27 80  1  0  0  0  0
 28 81  1  0  0  0  0
 29 31  2  0  0  0  0
 29 80  1  0  0  0  0
 30 82  1  0  0  0  0
 31 83  1  0  0  0  0
 32 65  2  0  0  0  0
 33 67  1  0  0  0  0
 33 70  1  0  0  0  0
 34 35  2  0  0  0  0
 35 38  1  0  0  0  0
 36 61  1  0  0  0  0
 36 66  2  0  0  0  0
 37 71  1  0  0  0  0
 37 75  2  0  0  0  0
 38 68  1  0  0  0  0
 38 76  2  0  0  0  0
 39 52  1  0  0  0  0
 39 72  1  0  0  0  0
 39 77  2  0  0  0  0
 40 62  1  0  0  0  0
 40 69  1  0  0  0  0
 40 78  2  0  0  0  0
 41 63  1  0  0  0  0
 41 73  1  0  0  0  0
 41 79  2  0  0  0  0
 42 45  1  0  0  0  0
 43 52  1  0  0  0  0
 44 69  1  0  0  0  0
 45 47  1  0  0  0  0
 46 48  1  0  0  0  0
 46 49  1  0  0  0  0
 47 51  1  0  0  0  0
 48 53  1  0  0  0  0
 49 68  1  0  0  0  0
 50 53  1  0  0  0  0
 50 68  1  0  0  0  0
 51 72  1  0  0  0  0
 52 69  1  0  0  0  0
 53 67  1  0  0  0  0
 54 61  1  0  0  0  0
 55 63  1  0  0  0  0
 56 64  1  0  0  0  0
 57 64  1  0  0  0  0
 58 64  1  0  0  0  0
 59 74  1  0  0  0  0
 60 61  1  0  0  0  0
 60 81  1  0  0  0  0
 62 64  1  0  0  0  0
 62 73  1  0  0  0  0
 63 74  1  0  0  0  0
 65 67  1  0  0  0  0
M  CHG  1  74   1
M  ISO  4  35 100  38 100  60 101  81 101
M  END
> <Batch ID>
0118

> <Smiles>
CNC(C)C(=O)NC(C(=O)N1Cc2cc([101O:1][101CH2:1]C(C)=CNc3ccc(C=[100CH:0][100C:0](=O)N4CCCC(n5nc(-c6ccc(Oc7ccc(F)cc7F)cc6)c(C(N)=O)c5N)C4)cc3)ccc2CC1C(=O)NC1CCCc2ccccc21)C(C)(C)C

> <Shape>
0.277

> <Color>
0.116

> <Negative vol penalty>
0.000

$$$$

  -OEChem-04052301483D

 83 91  0     1  0  0  0  0  0999 V2000
  -24.9495  -27.2280    5.1858 C   0  0  0  0  0  0  0  0  0  0  0  0
  -25.3774  -26.1022    5.8820 C   0  0  0  0  0  0  0  0  0  0  0  0
  -22.9871   -9.9081   19.9909 C   0  0  0  0  0  0  0  0  0  0  0  0
  -23.7687   -9.9352   22.2768 C   0  0  0  0  0  0  0  0  0  0  0  0
  -25.1482  -28.4978    5.7264 C   0  0  0  0  0  0  0  0  0  0  0  0
  -26.0054  -26.2455    7.1187 C   0  0  0  0  0  0  0  0  0  0  0  0
  -25.5878  -22.4663   11.9197 C   0  0  0  0  0  0  0  0  0  0  0  0
  -22.2275   -8.7706   20.2641 C   0  0  0  0  0  0  0  0  0  0  0  0
  -23.0090   -8.7977   22.5501 C   0  0  0  0  0  0  0  0  0  0  0  0
  -26.4198  -21.4510   12.3894 C   0  0  0  0  0  0  0  0  0  0  0  0
  -23.2420   -5.4640   22.0374 C   0  0  0  0  0  0  0  0  0  0  0  0
  -23.8480   -4.4392   22.7641 C   0  0  0  0  0  0  0  0  0  0  0  0
  -27.4344  -23.0041   13.9313 C   0  0  0  0  0  0  0  0  0  0  0  0
  -29.1941  -17.1011   19.8855 C   0  0  0  0  0  0  0  0  0  0  0  0
  -22.1657   -4.6640   24.4837 C   0  0  0  0  0  0  0  0  0  0  0  0
  -23.7577  -10.4904   20.9973 C   0  0  0  0  0  0  0  0  0  0  0  0
  -24.1383  -13.0078   20.8382 C   0  0  0  0  0  0  0  0  0  0  0  0
  -25.7703  -28.6562    6.9748 C   0  0  0  0  0  0  0  0  0  0  0  0
  -25.6804  -23.7629   12.4455 C   0  0  0  0  0  0  0  0  0  0  0  0
  -26.2139  -27.5186    7.6759 C   0  0  0  0  0  0  0  0  0  0  0  0
  -26.6006  -24.0335   13.4684 C   0  0  0  0  0  0  0  0  0  0  0  0
  -22.2384   -8.2154   21.5437 C   0  0  0  0  0  0  0  0  0  0  0  0
  -27.3453  -21.7205   13.3933 C   0  0  0  0  0  0  0  0  0  0  0  0
  -22.0979   -6.0889   22.5338 C   0  0  0  0  0  0  0  0  0  0  0  0
  -28.4461  -18.3128   19.8371 C   0  0  0  0  0  0  0  0  0  0  0  0
  -23.3098   -4.0392   23.9873 C   0  0  0  0  0  0  0  0  0  0  0  0
  -21.5598   -5.6888   23.7569 C   0  0  0  0  0  0  0  0  0  0  0  0
  -24.5431  -11.6651   20.7155 C   0  0  0  0  0  0  0  0  0  0  0  0
  -29.4496  -16.7019   21.1789 C   0  0  0  0  0  0  0  0  0  0  0  0
  -28.1580  -18.7935   21.0957 C   0  0  0  0  0  0  0  0  0  0  0  0
  -25.2387  -13.7346   20.4542 C   0  0  0  0  0  0  0  0  0  0  0  0
  -22.8802  -13.5497   21.2614 C   0  0  0  0  0  0  0  0  0  0  0  0
  -30.1628  -15.5541   21.6370 C   0  0  0  0  0  0  0  0  0  0  0  0
  -30.7638  -14.5728   20.7047 C   0  0  0  0  0  0  0  0  0  0  0  0
  -26.4038  -26.6200   11.2549 C   0  0  0  0  0  0  0  0  0  0  0  0
  -25.5585  -27.6365   14.2170 C   0  0  0  0  0  0  0  0  0  0  0  0
  -25.1648  -26.9072   17.5276 C   0  0  0  0  0  0  0  0  0  0  0  0
  -26.0058  -30.0515    7.4967 C   0  0  0  0  0  0  0  0  0  0  0  0
  -24.7572  -24.8406   11.9468 C   0  0  0  0  0  0  0  0  0  0  0  0
  -26.7257  -25.4039   14.0805 C   0  0  0  0  0  0  0  0  0  0  0  0
  -26.3429  -30.0963    8.9849 C   0  0  0  0  0  0  0  0  0  0  0  0
  -29.5343  -12.2956   18.2229 C   0  0  0  0  0  0  0  0  0  0  0  0
  -27.3941  -29.0450    9.3260 C   0  0  0  0  0  0  0  0  0  0  0  0
  -28.1054  -12.0093   18.6834 C   0  0  0  0  0  0  0  0  0  0  0  0
  -30.4727  -12.4986   19.4080 C   0  0  0  0  0  0  0  0  0  0  0  0
  -28.5916  -13.2806   20.8217 C   0  0  0  0  0  0  0  0  0  0  0  0
  -26.8769  -27.6318    9.0315 C   0  0  1  0  0  0  0  0  0  0  0  0
  -25.2922  -26.2476   12.1948 C   0  0  1  0  0  0  0  0  0  0  0  0
  -27.6090  -13.0974   19.6520 C   0  0  2  0  0  0  0  0  0  0  0  0
  -27.4075  -20.0116   21.4747 C   0  0  0  0  0  0  0  0  0  0  0  0
  -24.4963  -27.9523   19.7090 C   0  0  0  0  0  0  0  0  0  0  0  0
  -28.2633  -29.0401   14.3707 C   0  0  0  0  0  0  0  0  0  0  0  0
  -27.9404  -29.2406   16.8454 C   0  0  0  0  0  0  0  0  0  0  0  0
  -26.3483  -30.3624   15.2866 C   0  0  0  0  0  0  0  0  0  0  0  0
  -22.8911  -25.0417   17.8575 C   0  0  0  0  0  0  0  0  0  0  0  0
  -28.2358  -18.5851   14.9566 C   0  0  0  0  0  0  0  0  0  0  0  0
  -27.8643  -19.1751   16.3126 C   0  0  0  0  0  0  0  0  0  0  0  0
  -27.6502  -19.3991   13.8104 C   0  0  0  0  0  0  0  0  0  1  0  0
  -28.4132  -18.3381   17.4593 C   0  0  0  0  0  0  0  0  0  0  0  0
  -26.2855  -27.8460   15.5234 C   0  0  1  0  0  0  0  0  0  0  0  0
  -24.0219  -27.1772   18.4896 C   0  0  2  0  0  0  0  0  0  0  0  0
  -27.2086  -29.0968   15.4939 C   0  0  0  0  0  0  0  0  0  0  0  0
  -25.8023  -11.5432   20.2870 N   0  0  0  0  0  0  0  0  0  0  0  0
  -30.3570  -15.2576   22.9095 N   0  0  0  0  0  0  0  0  0  0  0  0
  -26.1982  -12.8187   20.1369 N   0  0  0  0  0  0  0  0  0  0  0  0
  -29.9542  -13.5112   20.3255 N   0  0  0  0  0  0  0  0  0  0  0  0
  -25.8053  -26.4256   13.5547 N   0  0  0  0  0  0  0  0  0  0  0  0
  -25.4695  -15.0614   20.3603 N   0  0  0  0  0  0  0  0  0  0  0  0
  -21.8573  -12.6616   21.6209 N   0  0  0  0  0  0  0  0  0  0  0  0
  -25.9735  -27.1966   10.0751 N   0  0  0  0  0  0  0  0  0  0  0  0
  -25.2596  -27.8848   16.5599 N   0  0  0  0  0  0  0  0  0  0  0  0
  -23.4206  -25.8947   18.9526 N   0  3  0  0  0  0  0  0  0  0  0  0
  -22.6640  -14.7846   21.3034 O   0  0  0  0  0  0  0  0  0  0  0  0
  -31.9173  -14.8043   20.3669 O   0  0  0  0  0  0  0  0  0  0  0  0
  -27.5658  -26.4018   11.5769 O   0  0  0  0  0  0  0  0  0  0  0  0
  -24.7940  -28.5118   13.8033 O   0  0  0  0  0  0  0  0  0  0  0  0
  -25.9022  -25.9291   17.6272 O   0  0  0  0  0  0  0  0  0  0  0  0
  -21.4971   -7.1056   21.8107 O   0  0  0  0  0  0  0  0  0  0  0  0
  -28.1592  -20.7315   13.8531 O   0  0  0  0  0  0  0  0  0  1  0  0
  -28.0463  -18.9471   18.6896 O   0  0  0  0  0  0  0  0  0  0  0  0
  -23.8909   -3.0540   24.6843 F   0  0  0  0  0  0  0  0  0  0  0  0
  -20.4602   -6.2846   24.2383 F   0  0  0  0  0  0  0  0  0  0  0  0
  -28.7887  -17.7858   22.3282 S   0  0  0  0  0  0  0  0  0  0  0  0
  1  2  1  0  0  0  0
  1  5  2  0  0  0  0
  2  6  2  0  0  0  0
  3  8  2  0  0  0  0
  3 16  1  0  0  0  0
  4  9  1  0  0  0  0
  4 16  2  0  0  0  0
  5 18  1  0  0  0  0
  6 20  1  0  0  0  0
  7 10  2  0  0  0  0
  7 19  1  0  0  0  0
  8 22  1  0  0  0  0
  9 22  2  0  0  0  0
 10 23  1  0  0  0  0
 11 12  2  0  0  0  0
 11 24  1  0  0  0  0
 12 26  1  0  0  0  0
 13 21  1  0  0  0  0
 13 23  2  0  0  0  0
 14 25  1  0  0  0  0
 14 29  2  0  0  0  0
 15 26  2  0  0  0  0
 15 27  1  0  0  0  0
 16 28  1  0  0  0  0
 17 28  1  0  0  0  0
 17 31  2  0  0  0  0
 17 32  1  0  0  0  0
 18 20  2  0  0  0  0
 18 38  1  0  0  0  0
 19 21  2  0  0  0  0
 19 39  1  0  0  0  0
 20 47  1  0  0  0  0
 21 40  1  0  0  0  0
 22 78  1  0  0  0  0
 23 79  1  0  0  0  0
 24 27  2  0  0  0  0
 24 78  1  0  0  0  0
 25 30  2  0  0  0  0
 25 80  1  0  0  0  0
 26 81  1  0  0  0  0
 27 82  1  0  0  0  0
 28 63  2  0  0  0  0
 29 33  1  0  0  0  0
 29 83  1  0  0  0  0
 30 50  1  0  0  0  0
 30 83  1  0  0  0  0
 31 65  1  0  0  0  0
 31 68  1  0  0  0  0
 32 69  1  0  0  0  0
 32 73  2  0  0  0  0
 33 34  1  0  0  0  0
 33 64  2  0  0  0  0
 34 66  1  0  0  0  0
 34 74  2  0  0  0  0
 35 48  1  0  0  0  0
 35 70  1  0  0  0  0
 35 75  2  0  0  0  0
 36 60  1  0  0  0  0
 36 67  1  0  0  0  0
 36 76  2  0  0  0  0
 37 61  1  0  0  0  0
 37 71  1  0  0  0  0
 37 77  2  0  0  0  0
 38 41  1  0  0  0  0
 39 48  1  0  0  0  0
 40 67  1  0  0  0  0
 41 43  1  0  0  0  0
 42 44  1  0  0  0  0
 42 45  1  0  0  0  0
 43 47  1  0  0  0  0
 44 49  1  0  0  0  0
 45 66  1  0  0  0  0
 46 49  1  0  0  0  0
 46 66  1  0  0  0  0
 47 70  1  0  0  0  0
 48 67  1  0  0  0  0
 49 65  1  0  0  0  0
 51 61  1  0  0  0  0
 52 62  1  0  0  0  0
 53 62  1  0  0  0  0
 54 62  1  0  0  0  0
 55 72  1  0  0  0  0
 56 57  1  0  0  0  0
 56 58  1  0  0  0  0
 57 59  1  0  0  0  0
 58 79  1  0  0  0  0
 59 80  1  0  0  0  0
 60 62  1  0  0  0  0
 60 71  1  0  0  0  0
 61 72  1  0  0  0  0
 63 65  1  0  0  0  0
M  CHG  1  72   1
M  ISO  4  33 100  34 100  58 101  79 101
M  END
> <Batch ID>
0118

> <Smiles>
CNC(C)C(=O)NC(C(=O)N1Cc2cc([101O:1][101CH2:1]CCCOc3cc([100C:0](=N)[100C:0](=O)N4CCCC(n5nc(-c6ccc(Oc7ccc(F)cc7F)cc6)c(C(N)=O)c5N)C4)sc3C)ccc2CC1C(=O)NC1CCCc2ccccc21)C(C)(C)C

> <Shape>
0.214

> <Color>
0.194

> <Negative vol penalty>
0.000

$$$$

  -OEChem-04052301483D

 88 97  0     1  0  0  0  0  0999 V2000
  -23.8148  -32.8832   24.3583 C   0  0  0  0  0  0  0  0  0  0  0  0
  -24.4174  -31.6804   24.0040 C   0  0  0  0  0  0  0  0  0  0  0  0
  -24.5259   -9.9881   21.9163 C   0  0  0  0  0  0  0  0  0  0  0  0
  -24.6592  -11.3096   23.9344 C   0  0  0  0  0  0  0  0  0  0  0  0
  -22.4454  -32.9260   24.6165 C   0  0  0  0  0  0  0  0  0  0  0  0
  -23.6511  -30.5194   23.9087 C   0  0  0  0  0  0  0  0  0  0  0  0
  -24.7163  -27.8237   19.7562 C   0  0  0  0  0  0  0  0  0  0  0  0
  -24.1425   -8.8779   22.6686 C   0  0  0  0  0  0  0  0  0  0  0  0
  -24.2758  -10.1994   24.6868 C   0  0  0  0  0  0  0  0  0  0  0  0
  -25.8748  -27.0484   19.7802 C   0  0  0  0  0  0  0  0  0  0  0  0
  -21.3303   -7.7219   24.1478 C   0  0  0  0  0  0  0  0  0  0  0  0
  -20.2642   -6.9560   23.6761 C   0  0  0  0  0  0  0  0  0  0  0  0
  -27.7025  -21.5614   21.6289 C   0  0  0  0  0  0  0  0  0  0  0  0
  -24.5481  -25.0918   20.2608 C   0  0  0  0  0  0  0  0  0  0  0  0
  -30.0417  -20.0792   21.2916 C   0  0  0  0  0  0  0  0  0  0  0  0
  -21.7093   -5.0240   23.5472 C   0  0  0  0  0  0  0  0  0  0  0  0
  -24.7843  -11.2040   22.5492 C   0  0  0  0  0  0  0  0  0  0  0  0
  -27.6299  -20.2186   21.2588 C   0  0  0  0  0  0  0  0  0  0  0  0
  -24.3380  -13.3191   21.1947 C   0  0  0  0  0  0  0  0  0  0  0  0
  -21.6601  -31.7668   24.5149 C   0  0  0  0  0  0  0  0  0  0  0  0
  -23.4640  -27.2398   19.9955 C   0  0  0  0  0  0  0  0  0  0  0  0
  -22.2700  -30.5464   24.1671 C   0  0  0  0  0  0  0  0  0  0  0  0
  -23.3750  -25.8614   20.2367 C   0  0  0  0  0  0  0  0  0  0  0  0
  -28.9447  -22.1633   21.8302 C   0  0  0  0  0  0  0  0  0  0  0  0
  -28.7995  -19.4774   21.0902 C   0  0  0  0  0  0  0  0  0  0  0  0
  -24.0174   -8.9835   24.0539 C   0  0  0  0  0  0  0  0  0  0  0  0
  -25.7911  -25.6827   20.0354 C   0  0  0  0  0  0  0  0  0  0  0  0
  -22.5859   -7.1389   24.3192 C   0  0  0  0  0  0  0  0  0  0  0  0
  -20.4537   -5.6071   23.3759 C   0  0  0  0  0  0  0  0  0  0  0  0
  -30.1142  -21.4221   21.6616 C   0  0  0  0  0  0  0  0  0  0  0  0
  -22.7754   -5.7900   24.0189 C   0  0  0  0  0  0  0  0  0  0  0  0
  -25.1809  -12.3510   21.7726 C   0  0  0  0  0  0  0  0  0  0  0  0
  -25.1949  -14.1907   20.5683 C   0  0  0  0  0  0  0  0  0  0  0  0
  -30.9388  -25.0893   21.5369 C   0  0  0  0  0  0  0  0  0  0  0  0
  -25.4556  -20.0383   20.1384 C   0  0  0  0  0  0  0  0  0  0  0  0
  -26.3139  -19.6239   21.0574 C   0  0  0  0  0  0  0  0  0  0  0  0
  -22.9081  -13.4213   21.2216 C   0  0  0  0  0  0  0  0  0  0  0  0
  -21.1996  -27.6107   22.1952 C   0  0  0  0  0  0  0  0  0  0  0  0
  -19.5634  -25.5510   20.2971 C   0  0  0  0  0  0  0  0  0  0  0  0
  -19.6586  -23.0822   17.9428 C   0  0  0  0  0  0  0  0  0  0  0  0
  -29.8418  -17.2578   20.5131 C   0  0  0  0  0  0  0  0  0  0  0  0
  -20.1920  -31.8529   24.8496 C   0  0  0  0  0  0  0  0  0  0  0  0
  -22.2211  -28.0851   19.9397 C   0  0  0  0  0  0  0  0  0  0  0  0
  -22.0526  -25.1826   20.4797 C   0  0  0  0  0  0  0  0  0  0  0  0
  -31.3424  -25.7963   20.2662 C   0  0  0  0  0  0  0  0  0  0  0  0
  -19.3846  -30.6529   24.3615 C   0  0  0  0  0  0  0  0  0  0  0  0
  -30.5505  -25.0658   19.1857 C   0  0  0  0  0  0  0  0  0  0  0  0
  -30.1539  -13.8249   19.6212 C   0  0  0  0  0  0  0  0  0  0  0  0
  -20.0977  -29.3511   24.7130 C   0  0  0  0  0  0  0  0  0  0  0  0
  -28.8186  -13.2151   20.0538 C   0  0  0  0  0  0  0  0  0  0  0  0
  -30.6278  -14.9018   20.5956 C   0  0  0  0  0  0  0  0  0  0  0  0
  -28.3128  -15.3491   21.3098 C   0  0  0  0  0  0  0  0  0  0  0  0
  -21.4679  -29.2706   24.0292 C   0  0  1  0  0  0  0  0  0  0  0  0
  -21.0503  -27.4775   20.7060 C   0  0  1  0  0  0  0  0  0  0  0  0
  -27.7627  -14.3048   20.3246 C   0  0  2  0  0  0  0  0  0  0  0  0
  -29.2945  -24.5790   19.9019 C   0  0  2  0  0  0  0  0  0  0  0  0
  -18.1617  -21.5688   16.6138 C   0  0  0  0  0  0  0  0  0  0  0  0
  -19.1264  -23.8165   22.7691 C   0  0  0  0  0  0  0  0  0  0  0  0
  -18.4919  -21.9314   21.2485 C   0  0  0  0  0  0  0  0  0  0  0  0
  -17.1325  -24.0228   21.2737 C   0  0  0  0  0  0  0  0  0  0  0  0
  -20.6029  -24.2112   15.3752 C   0  0  0  0  0  0  0  0  0  0  0  0
  -29.0199  -23.6088   22.2288 C   0  0  0  0  0  0  0  0  0  0  0  0
  -28.1574  -25.5919   19.8160 C   0  0  0  0  0  0  0  0  0  1  0  0
  -19.4285  -24.0496   20.2156 C   0  0  1  0  0  0  0  0  0  0  0  0
  -18.8962  -22.9001   16.6428 C   0  0  2  0  0  0  0  0  0  0  0  0
  -18.5701  -23.4679   21.3741 C   0  0  0  0  0  0  0  0  0  0  0  0
  -26.4742  -12.5852   21.5345 N   0  0  0  0  0  0  0  0  0  0  0  0
  -26.4502  -13.7102   20.7998 N   0  0  0  0  0  0  0  0  0  0  0  0
  -29.7594  -24.3990   21.2657 N   0  0  0  0  0  0  0  0  0  0  0  0
  -20.8666  -26.0529   20.4211 N   0  0  0  0  0  0  0  0  0  0  0  0
  -29.5776  -15.9018   20.8002 N   0  0  0  0  0  0  0  0  0  0  0  0
  -24.9897  -15.3135   19.8474 N   0  0  0  0  0  0  0  0  0  0  0  0
  -22.1810  -12.4411   21.9107 N   0  0  0  0  0  0  0  0  0  0  0  0
  -28.7579  -18.1117   20.7150 N   0  0  0  0  0  0  0  0  0  0  0  0
  -21.3166  -28.9157   22.6343 N   0  0  0  0  0  0  0  0  0  0  0  0
  -18.9104  -23.7580   18.8833 N   0  0  0  0  0  0  0  0  0  0  0  0
  -19.8311  -22.9465   15.4831 N   0  3  0  0  0  0  0  0  0  0  0  0
  -31.5442  -25.1656   22.5956 O   0  0  0  0  0  0  0  0  0  0  0  0
  -22.2925  -14.3452   20.6377 O   0  0  0  0  0  0  0  0  0  0  0  0
  -21.2064  -26.6042   22.8942 O   0  0  0  0  0  0  0  0  0  0  0  0
  -18.5503  -26.2528   20.2453 O   0  0  0  0  0  0  0  0  0  0  0  0
  -20.8021  -22.6633   18.1087 O   0  0  0  0  0  0  0  0  0  0  0  0
  -30.9398  -17.6298   20.0912 O   0  0  0  0  0  0  0  0  0  0  0  0
  -23.6431   -7.9004   24.7883 O   0  0  0  0  0  0  0  0  0  0  0  0
  -26.9204  -24.9238   20.0601 O   0  0  0  0  0  0  0  0  0  1  0  0
  -19.4295   -4.8713   22.9244 F   0  0  0  0  0  0  0  0  0  0  0  0
  -31.3124  -21.9917   21.8531 F   0  0  0  0  0  0  0  0  0  0  0  0
  -23.9790   -5.2241   24.1826 F   0  0  0  0  0  0  0  0  0  0  0  0
  1  2  1  0  0  0  0
  1  5  2  0  0  0  0
  2  6  2  0  0  0  0
  3  8  2  0  0  0  0
  3 17  1  0  0  0  0
  4  9  1  0  0  0  0
  4 17  2  0  0  0  0
  5 20  1  0  0  0  0
  6 22  1  0  0  0  0
  7 10  2  0  0  0  0
  7 21  1  0  0  0  0
  8 26  1  0  0  0  0
  9 26  2  0  0  0  0
 10 27  1  0  0  0  0
 11 12  2  0  0  0  0
 11 28  1  0  0  0  0
 12 29  1  0  0  0  0
 13 18  1  0  0  0  0
 13 24  2  0  0  0  0
 14 23  1  0  0  0  0
 14 27  2  0  0  0  0
 15 25  1  0  0  0  0
 15 30  2  0  0  0  0
 16 29  2  0  0  0  0
 16 31  1  0  0  0  0
 17 32  1  0  0  0  0
 18 25  2  0  0  0  0
 18 36  1  0  0  0  0
 19 32  1  0  0  0  0
 19 33  2  0  0  0  0
 19 37  1  0  0  0  0
 20 22  2  0  0  0  0
 20 42  1  0  0  0  0
 21 23  2  0  0  0  0
 21 43  1  0  0  0  0
 22 53  1  0  0  0  0
 23 44  1  0  0  0  0
 24 30  1  0  0  0  0
 24 62  1  0  0  0  0
 25 74  1  0  0  0  0
 26 84  1  0  0  0  0
 27 85  1  0  0  0  0
 28 31  2  0  0  0  0
 28 84  1  0  0  0  0
 29 86  1  0  0  0  0
 30 87  1  0  0  0  0
 31 88  1  0  0  0  0
 32 67  2  0  0  0  0
 33 68  1  0  0  0  0
 33 72  1  0  0  0  0
 34 45  1  0  0  0  0
 34 69  1  0  0  0  0
 34 78  2  0  0  0  0
 35 36  2  0  0  0  0
 37 73  1  0  0  0  0
 37 79  2  0  0  0  0
 38 54  1  0  0  0  0
 38 75  1  0  0  0  0
 38 80  2  0  0  0  0
 39 64  1  0  0  0  0
 39 70  1  0  0  0  0
 39 81  2  0  0  0  0
 40 65  1  0  0  0  0
 40 76  1  0  0  0  0
 40 82  2  0  0  0  0
 41 71  1  0  0  0  0
 41 74  1  0  0  0  0
 41 83  2  0  0  0  0
 42 46  1  0  0  0  0
 43 54  1  0  0  0  0
 44 70  1  0  0  0  0
 45 47  1  0  0  0  0
 46 49  1  0  0  0  0
 47 56  1  0  0  0  0
 48 50  1  0  0  0  0
 48 51  1  0  0  0  0
 49 53  1  0  0  0  0
 50 55  1  0  0  0  0
 51 71  1  0  0  0  0
 52 55  1  0  0  0  0
 52 71  1  0  0  0  0
 53 75  1  0  0  0  0
 54 70  1  0  0  0  0
 55 68  1  0  0  0  0
 56 63  1  0  0  0  0
 56 69  1  0  0  0  0
 57 65  1  0  0  0  0
 58 66  1  0  0  0  0
 59 66  1  0  0  0  0
 60 66  1  0  0  0  0
 61 77  1  0  0  0  0
 62 69  1  0  0  0  0
 63 85  1  0  0  0  0
 64 66  1  0  0  0  0
 64 76  1  0  0  0  0
 65 77  1  0  0  0  0
 67 68  1  0  0  0  0
M  CHG  1  77   1
M  ISO  4  41 100  63 101  74 100  85 101
M  END
> <Batch ID>
0118

> <Smiles>
C=Cc1cc(CN2C(=O)CCC2[101CH2:1][101O:1]c2ccc3c(c2)CN(C(=O)C(NC(=O)C(C)NC)C(C)(C)C)C(C(=O)NC2CCCc4ccccc42)C3)c(F)cc1[100NH:0][100C:0](=O)N1CCCC(n2nc(-c3ccc(Oc4ccc(F)cc4F)cc3)c(C(N)=O)c2N)C1

> <Shape>
0.261

> <Color>
0.104

> <Negative vol penalty>
0.000

$$$$

  -OEChem-04052301483D

 83 91  0     1  0  0  0  0  0999 V2000
  -25.4800  -27.7633   35.2116 C   0  0  0  0  0  0  0  0  0  0  0  0
  -25.7852  -27.2083   33.9730 C   0  0  0  0  0  0  0  0  0  0  0  0
  -22.9997   -9.8943   19.9815 C   0  0  0  0  0  0  0  0  0  0  0  0
  -23.7251   -9.9447   22.2855 C   0  0  0  0  0  0  0  0  0  0  0  0
  -26.4447  -28.4947   35.9032 C   0  0  0  0  0  0  0  0  0  0  0  0
  -27.0550  -27.3853   33.4247 C   0  0  0  0  0  0  0  0  0  0  0  0
  -28.9466  -23.1074   31.4839 C   0  0  0  0  0  0  0  0  0  0  0  0
  -22.2328   -8.7601   20.2478 C   0  0  0  0  0  0  0  0  0  0  0  0
  -22.9582   -8.8105   22.5518 C   0  0  0  0  0  0  0  0  0  0  0  0
  -28.4708  -22.7098   30.2352 C   0  0  0  0  0  0  0  0  0  0  0  0
  -23.2013   -5.4715   22.0794 C   0  0  0  0  0  0  0  0  0  0  0  0
  -23.7886   -4.4540   22.8313 C   0  0  0  0  0  0  0  0  0  0  0  0
  -31.6592  -19.3251   22.7472 C   0  0  0  0  0  0  0  0  0  0  0  0
  -30.4499  -23.6193   29.1981 C   0  0  0  0  0  0  0  0  0  0  0  0
  -31.8919  -17.2437   21.5427 C   0  0  0  0  0  0  0  0  0  0  0  0
  -22.0649   -4.6973   24.5067 C   0  0  0  0  0  0  0  0  0  0  0  0
  -23.7459  -10.4867   21.0004 C   0  0  0  0  0  0  0  0  0  0  0  0
  -30.3638  -18.9652   23.1187 C   0  0  0  0  0  0  0  0  0  0  0  0
  -24.1320  -13.0021   20.8246 C   0  0  0  0  0  0  0  0  0  0  0  0
  -27.7300  -28.6726   35.3676 C   0  0  0  0  0  0  0  0  0  0  0  0
  -30.1747  -23.7748   31.5981 C   0  0  0  0  0  0  0  0  0  0  0  0
  -28.0374  -28.1209   34.1092 C   0  0  0  0  0  0  0  0  0  0  0  0
  -30.9402  -24.0220   30.4497 C   0  0  0  0  0  0  0  0  0  0  0  0
  -29.8324  -17.7446   22.7023 C   0  0  0  0  0  0  0  0  0  0  0  0
  -30.5965  -16.8838   21.9142 C   0  0  0  0  0  0  0  0  0  0  0  0
  -22.2120   -8.2181   21.5329 C   0  0  0  0  0  0  0  0  0  0  0  0
  -29.2211  -22.9683   29.0918 C   0  0  0  0  0  0  0  0  0  0  0  0
  -22.0459   -6.1020   22.5412 C   0  0  0  0  0  0  0  0  0  0  0  0
  -23.2204   -4.0669   24.0449 C   0  0  0  0  0  0  0  0  0  0  0  0
  -32.4232  -18.4643   21.9591 C   0  0  0  0  0  0  0  0  0  0  0  0
  -21.4777   -5.7149   23.7548 C   0  0  0  0  0  0  0  0  0  0  0  0
  -24.5387  -11.6580   20.7258 C   0  0  0  0  0  0  0  0  0  0  0  0
  -25.2420  -13.7244   20.4602 C   0  0  0  0  0  0  0  0  0  0  0  0
  -29.5853  -19.8993   23.9505 C   0  0  0  0  0  0  0  0  0  0  0  0
  -29.9537  -20.3404   25.1637 C   0  0  0  0  0  0  0  0  0  0  0  0
  -29.1543  -21.2653   25.9358 C   0  0  0  0  0  0  0  0  0  0  0  0
  -29.5162  -21.7077   27.1438 C   0  0  0  0  0  0  0  0  0  1  0  0
  -22.8643  -13.5489   21.2114 C   0  0  0  0  0  0  0  0  0  0  0  0
  -31.0823  -26.6417   32.6282 C   0  0  0  0  0  0  0  0  0  0  0  0
  -34.0576  -25.4401   32.1526 C   0  0  0  0  0  0  0  0  0  0  0  0
  -36.0489  -23.1900   30.5343 C   0  0  0  0  0  0  0  0  0  0  0  0
  -30.7218  -14.6836   20.6937 C   0  0  0  0  0  0  0  0  0  0  0  0
  -28.7248  -29.5110   36.1305 C   0  0  0  0  0  0  0  0  0  0  0  0
  -30.6864  -24.1734   32.9552 C   0  0  0  0  0  0  0  0  0  0  0  0
  -32.2744  -24.7173   30.5206 C   0  0  0  0  0  0  0  0  0  0  0  0
  -30.1636  -29.3356   35.6515 C   0  0  0  0  0  0  0  0  0  0  0  0
  -29.6025  -12.2314   18.3676 C   0  0  0  0  0  0  0  0  0  0  0  0
  -30.2308  -29.3993   34.1289 C   0  0  0  0  0  0  0  0  0  0  0  0
  -28.1518  -11.9742   18.7819 C   0  0  0  0  0  0  0  0  0  0  0  0
  -30.5032  -12.4743   19.5773 C   0  0  0  0  0  0  0  0  0  0  0  0
  -28.5882  -13.2637   20.9111 C   0  0  0  0  0  0  0  0  0  0  0  0
  -29.4114  -28.2700   33.4927 C   0  0  1  0  0  0  0  0  0  0  0  0
  -31.7097  -25.3036   32.8996 C   0  0  1  0  0  0  0  0  0  0  0  0
  -27.6304  -13.0778   19.7230 C   0  0  2  0  0  0  0  0  0  0  0  0
  -28.4415  -17.3517   23.0971 C   0  0  0  0  0  0  0  0  0  0  0  0
  -38.4448  -22.4739   30.3240 C   0  0  0  0  0  0  0  0  0  0  0  0
  -34.6370  -27.8923   30.4319 C   0  0  0  0  0  0  0  0  0  0  0  0
  -36.6257  -26.6861   29.5055 C   0  0  0  0  0  0  0  0  0  0  0  0
  -36.5108  -27.2108   31.9415 C   0  0  0  0  0  0  0  0  0  0  0  0
  -35.4403  -20.4626   31.5090 C   0  0  0  0  0  0  0  0  0  0  0  0
  -35.0220  -25.4015   30.9918 C   0  0  1  0  0  0  0  0  0  0  0  0
  -37.1244  -22.2476   31.0438 C   0  0  2  0  0  0  0  0  0  0  0  0
  -35.6729  -26.7863   30.7158 C   0  0  0  0  0  0  0  0  0  0  0  0
  -25.8079  -11.5311   20.3295 N   0  0  0  0  0  0  0  0  0  0  0  0
  -26.2083  -12.8048   20.1760 N   0  0  0  0  0  0  0  0  0  0  0  0
  -32.7289  -25.0931   31.8696 N   0  0  0  0  0  0  0  0  0  0  0  0
  -29.9486  -13.5354   20.4208 N   0  0  0  0  0  0  0  0  0  0  0  0
  -25.4759  -15.0500   20.3583 N   0  0  0  0  0  0  0  0  0  0  0  0
  -21.8322  -12.6651   21.5549 N   0  0  0  0  0  0  0  0  0  0  0  0
  -30.0780  -15.6389   21.4795 N   0  0  0  0  0  0  0  0  0  0  0  0
  -30.1360  -27.0191   33.5617 N   0  0  0  0  0  0  0  0  0  0  0  0
  -35.9781  -24.3408   31.2906 N   0  0  0  0  0  0  0  0  0  0  0  0
  -36.7125  -20.8306   30.8358 N   0  3  0  0  0  0  0  0  0  0  0  0
  -22.6480  -14.7843   21.2353 O   0  0  0  0  0  0  0  0  0  0  0  0
  -31.4320  -27.2847   31.6454 O   0  0  0  0  0  0  0  0  0  0  0  0
  -34.4695  -25.7592   33.2707 O   0  0  0  0  0  0  0  0  0  0  0  0
  -35.3447  -22.9328   29.5604 O   0  0  0  0  0  0  0  0  0  0  0  0
  -31.8605  -14.8222   20.2396 O   0  0  0  0  0  0  0  0  0  0  0  0
  -21.4636   -7.1115   21.7931 O   0  0  0  0  0  0  0  0  0  0  0  0
  -28.7586  -22.5818   27.8716 O   0  0  0  0  0  0  0  0  0  1  0  0
  -23.7836   -3.0887   24.7662 F   0  0  0  0  0  0  0  0  0  0  0  0
  -33.6675  -18.8096   21.6030 F   0  0  0  0  0  0  0  0  0  0  0  0
  -20.3671   -6.3160   24.2030 F   0  0  0  0  0  0  0  0  0  0  0  0
  1  2  1  0  0  0  0
  1  5  2  0  0  0  0
  2  6  2  0  0  0  0
  3  8  2  0  0  0  0
  3 17  1  0  0  0  0
  4  9  1  0  0  0  0
  4 17  2  0  0  0  0
  5 20  1  0  0  0  0
  6 22  1  0  0  0  0
  7 10  2  0  0  0  0
  7 21  1  0  0  0  0
  8 26  1  0  0  0  0
  9 26  2  0  0  0  0
 10 27  1  0  0  0  0
 11 12  2  0  0  0  0
 11 28  1  0  0  0  0
 12 29  1  0  0  0  0
 13 18  1  0  0  0  0
 13 30  2  0  0  0  0
 14 23  1  0  0  0  0
 14 27  2  0  0  0  0
 15 25  2  0  0  0  0
 15 30  1  0  0  0  0
 16 29  2  0  0  0  0
 16 31  1  0  0  0  0
 17 32  1  0  0  0  0
 18 24  2  0  0  0  0
 18 34  1  0  0  0  0
 19 32  1  0  0  0  0
 19 33  2  0  0  0  0
 19 38  1  0  0  0  0
 20 22  2  0  0  0  0
 20 43  1  0  0  0  0
 21 23  2  0  0  0  0
 21 44  1  0  0  0  0
 22 52  1  0  0  0  0
 23 45  1  0  0  0  0
 24 25  1  0  0  0  0
 24 55  1  0  0  0  0
 25 70  1  0  0  0  0
 26 79  1  0  0  0  0
 27 80  1  0  0  0  0
 28 31  2  0  0  0  0
 28 79  1  0  0  0  0
 29 81  1  0  0  0  0
 30 82  1  0  0  0  0
 31 83  1  0  0  0  0
 32 64  2  0  0  0  0
 33 65  1  0  0  0  0
 33 68  1  0  0  0  0
 34 35  2  0  0  0  0
 35 36  1  0  0  0  0
 36 37  2  0  0  0  0
 37 80  1  0  0  0  0
 38 69  1  0  0  0  0
 38 74  2  0  0  0  0
 39 53  1  0  0  0  0
 39 71  1  0  0  0  0
 39 75  2  0  0  0  0
 40 61  1  0  0  0  0
 40 66  1  0  0  0  0
 40 76  2  0  0  0  0
 41 62  1  0  0  0  0
 41 72  1  0  0  0  0
 41 77  2  0  0  0  0
 42 67  1  0  0  0  0
 42 70  1  0  0  0  0
 42 78  2  0  0  0  0
 43 46  1  0  0  0  0
 44 53  1  0  0  0  0
 45 66  1  0  0  0  0
 46 48  1  0  0  0  0
 47 49  1  0  0  0  0
 47 50  1  0  0  0  0
 48 52  1  0  0  0  0
 49 54  1  0  0  0  0
 50 67  1  0  0  0  0
 51 54  1  0  0  0  0
 51 67  1  0  0  0  0
 52 71  1  0  0  0  0
 53 66  1  0  0  0  0
 54 65  1  0  0  0  0
 56 62  1  0  0  0  0
 57 63  1  0  0  0  0
 58 63  1  0  0  0  0
 59 63  1  0  0  0  0
 60 73  1  0  0  0  0
 61 63  1  0  0  0  0
 61 72  1  0  0  0  0
 62 73  1  0  0  0  0
 64 65  1  0  0  0  0
M  CHG  1  73   1
M  ISO  4  37 101  42 100  70 100  80 101
M  END
> <Batch ID>
0118

> <Smiles>
CNC(C)C(=O)NC(C(=O)N1Cc2cc([101O:1][101CH:1]=CC=Cc3cc(F)cc([100NH:0][100C:0](=O)N4CCCC(n5nc(-c6ccc(Oc7ccc(F)cc7F)cc6)c(C(N)=O)c5N)C4)c3C)ccc2CC1C(=O)NC1CCCc2ccccc21)C(C)(C)C

> <Shape>
0.177

> <Color>
0.206

> <Negative vol penalty>
0.000

$$$$

  -OEChem-04052301483D

 85 93  0     1  0  0  0  0  0999 V2000
  -22.0876  -35.8850   15.1603 C   0  0  0  0  0  0  0  0  0  0  0  0
  -23.3367  -35.5101   15.6448 C   0  0  0  0  0  0  0  0  0  0  0  0
  -22.9702   -9.9374   19.9702 C   0  0  0  0  0  0  0  0  0  0  0  0
  -23.8021   -9.8798   22.2378 C   0  0  0  0  0  0  0  0  0  0  0  0
  -28.9848  -17.5264   22.1609 C   0  0  0  0  0  0  0  0  0  0  0  0
  -20.9836  -35.8895   16.0118 C   0  0  0  0  0  0  0  0  0  0  0  0
  -23.4826  -35.1406   16.9814 C   0  0  0  0  0  0  0  0  0  0  0  0
  -25.9979  -28.6334   18.7763 C   0  0  0  0  0  0  0  0  0  0  0  0
  -22.2061   -8.7979   20.2216 C   0  0  0  0  0  0  0  0  0  0  0  0
  -23.0380   -8.7403   22.4891 C   0  0  0  0  0  0  0  0  0  0  0  0
  -28.2916  -18.6640   21.7474 C   0  0  0  0  0  0  0  0  0  0  0  0
  -26.6696  -27.4864   19.1997 C   0  0  0  0  0  0  0  0  0  0  0  0
  -23.2282   -5.4241   21.8586 C   0  0  0  0  0  0  0  0  0  0  0  0
  -23.8403   -4.3699   22.5365 C   0  0  0  0  0  0  0  0  0  0  0  0
  -29.3431  -16.9058   19.8537 C   0  0  0  0  0  0  0  0  0  0  0  0
  -26.2974  -28.1072   21.5071 C   0  0  0  0  0  0  0  0  0  0  0  0
  -22.1985   -4.5504   24.2998 C   0  0  0  0  0  0  0  0  0  0  0  0
  -23.7683  -10.4784   20.9783 C   0  0  0  0  0  0  0  0  0  0  0  0
  -29.5106  -16.6473   21.2141 C   0  0  0  0  0  0  0  0  0  0  0  0
  -28.6498  -18.0433   19.4401 C   0  0  0  0  0  0  0  0  0  0  0  0
  -24.1690  -12.9964   20.8962 C   0  0  0  0  0  0  0  0  0  0  0  0
  -21.1142  -35.5105   17.3571 C   0  0  0  0  0  0  0  0  0  0  0  0
  -25.4594  -29.5149   19.7178 C   0  0  0  0  0  0  0  0  0  0  0  0
  -22.3795  -35.1413   17.8520 C   0  0  0  0  0  0  0  0  0  0  0  0
  -25.6127  -29.2514   21.0889 C   0  0  0  0  0  0  0  0  0  0  0  0
  -22.2399   -8.1993   21.4810 C   0  0  0  0  0  0  0  0  0  0  0  0
  -26.8192  -27.2241   20.5618 C   0  0  0  0  0  0  0  0  0  0  0  0
  -28.1241  -18.9224   20.3869 C   0  0  0  0  0  0  0  0  0  0  0  0
  -22.1013   -6.0415   22.4013 C   0  0  0  0  0  0  0  0  0  0  0  0
  -23.3255   -3.9330   23.7571 C   0  0  0  0  0  0  0  0  0  0  0  0
  -21.5864   -5.6047   23.6219 C   0  0  0  0  0  0  0  0  0  0  0  0
  -24.5583  -11.6551   20.7191 C   0  0  0  0  0  0  0  0  0  0  0  0
  -25.2675  -13.7262   20.5127 C   0  0  0  0  0  0  0  0  0  0  0  0
  -27.8408  -17.4750   17.1956 C   0  0  0  0  0  0  0  0  0  0  0  0
  -28.4880  -18.2915   18.0137 C   0  0  0  0  0  0  0  0  0  0  0  0
  -30.2333  -15.4615   21.6463 C   0  0  0  0  0  0  0  0  0  0  0  0
  -22.9257  -13.5344   21.3656 C   0  0  0  0  0  0  0  0  0  0  0  0
  -30.8043  -14.5074   20.6682 C   0  0  0  0  0  0  0  0  0  0  0  0
  -23.5417  -32.6773   20.3483 C   0  0  0  0  0  0  0  0  0  0  0  0
  -22.5533  -30.6135   22.3914 C   0  0  0  0  0  0  0  0  0  0  0  0
  -21.4463  -27.9350   24.1906 C   0  0  0  0  0  0  0  0  0  0  0  0
  -19.9012  -35.5765   18.2510 C   0  0  0  0  0  0  0  0  0  0  0  0
  -24.7816  -30.7941   19.3077 C   0  0  0  0  0  0  0  0  0  0  0  0
  -25.0471  -30.2455   22.0660 C   0  0  0  0  0  0  0  0  0  0  0  0
  -20.0678  -34.8115   19.5614 C   0  0  0  0  0  0  0  0  0  0  0  0
  -29.4992  -12.3270   18.1385 C   0  0  0  0  0  0  0  0  0  0  0  0
  -21.4147  -35.1342   20.2004 C   0  0  0  0  0  0  0  0  0  0  0  0
  -28.0781  -12.0375   18.6208 C   0  0  0  0  0  0  0  0  0  0  0  0
  -30.4653  -12.4812   19.3087 C   0  0  0  0  0  0  0  0  0  0  0  0
  -28.6232  -13.2309   20.7897 C   0  0  0  0  0  0  0  0  0  0  0  0
  -22.5732  -34.7101   19.2896 C   0  0  1  0  0  0  0  0  0  0  0  0
  -23.6155  -31.1830   20.2341 C   0  0  1  0  0  0  0  0  0  0  0  0
  -27.6134  -13.0962   19.6367 C   0  0  2  0  0  0  0  0  0  0  0  0
  -19.7791  -27.3011   25.9558 C   0  0  0  0  0  0  0  0  0  0  0  0
  -24.3191  -31.9043   24.5174 C   0  0  0  0  0  0  0  0  0  0  0  0
  -23.1821  -30.4738   26.2289 C   0  0  0  0  0  0  0  0  0  0  0  0
  -21.8618  -32.1369   24.9198 C   0  0  0  0  0  0  0  0  0  0  0  0
  -20.0789  -26.0340   22.3808 C   0  0  0  0  0  0  0  0  0  0  0  0
  -27.4598  -23.6857   20.9381 C   0  0  0  0  0  0  0  0  0  0  0  0
  -27.4067  -22.4416   20.0583 C   0  0  0  0  0  0  0  0  0  0  0  0
  -27.4006  -24.9624   20.1099 C   0  0  0  0  0  0  0  0  0  1  0  0
  -27.5091  -21.1657   20.8820 C   0  0  0  0  0  0  0  0  0  0  0  0
  -22.6932  -30.0397   23.7786 C   0  0  1  0  0  0  0  0  0  0  0  0
  -20.0470  -27.4131   24.4630 C   0  0  2  0  0  0  0  0  0  0  0  0
  -23.0271  -31.1269   24.8388 C   0  0  0  0  0  0  0  0  0  0  0  0
  -25.8065  -11.5370   20.2587 N   0  0  0  0  0  0  0  0  0  0  0  0
  -30.4288  -15.1593   22.9014 N   0  0  0  0  0  0  0  0  0  0  0  0
  -26.2111  -12.8134   20.1432 N   0  0  0  0  0  0  0  0  0  0  0  0
  -29.9767  -13.4665   20.2712 N   0  0  0  0  0  0  0  0  0  0  0  0
  -23.7180  -30.6898   21.6180 N   0  0  0  0  0  0  0  0  0  0  0  0
  -25.5086  -15.0534   20.4587 N   0  0  0  0  0  0  0  0  0  0  0  0
  -21.9025  -12.6434   21.7175 N   0  0  0  0  0  0  0  0  0  0  0  0
  -22.7787  -33.2796   19.3661 N   0  0  0  0  0  0  0  0  0  0  0  0
  -21.4604  -29.3059   24.0431 N   0  0  0  0  0  0  0  0  0  0  0  0
  -19.8683  -26.0661   23.8510 N   0  3  0  0  0  0  0  0  0  0  0  0
  -22.7221  -14.7690   21.4543 O   0  0  0  0  0  0  0  0  0  0  0  0
  -31.9523  -14.7403   20.3128 O   0  0  0  0  0  0  0  0  0  0  0  0
  -24.1319  -33.2434   21.2609 O   0  0  0  0  0  0  0  0  0  0  0  0
  -21.4438  -30.9900   22.0035 O   0  0  0  0  0  0  0  0  0  0  0  0
  -22.4291  -27.2004   24.1196 O   0  0  0  0  0  0  0  0  0  0  0  0
  -21.4942   -7.0875   21.7267 O   0  0  0  0  0  0  0  0  0  0  0  0
  -27.4721  -26.1002   20.9682 O   0  0  0  0  0  0  0  0  0  1  0  0
  -27.4388  -20.0475   20.0081 O   0  0  0  0  0  0  0  0  0  0  0  0
  -23.9125   -2.9196   24.4072 F   0  0  0  0  0  0  0  0  0  0  0  0
  -20.5033   -6.1932   24.1477 F   0  0  0  0  0  0  0  0  0  0  0  0
  1  2  1  0  0  0  0
  1  6  2  0  0  0  0
  2  7  2  0  0  0  0
  3  9  2  0  0  0  0
  3 18  1  0  0  0  0
  4 10  1  0  0  0  0
  4 18  2  0  0  0  0
  5 11  2  0  0  0  0
  5 19  1  0  0  0  0
  6 22  1  0  0  0  0
  7 24  1  0  0  0  0
  8 12  2  0  0  0  0
  8 23  1  0  0  0  0
  9 26  1  0  0  0  0
 10 26  2  0  0  0  0
 11 28  1  0  0  0  0
 12 27  1  0  0  0  0
 13 14  2  0  0  0  0
 13 29  1  0  0  0  0
 14 30  1  0  0  0  0
 15 19  2  0  0  0  0
 15 20  1  0  0  0  0
 16 25  1  0  0  0  0
 16 27  2  0  0  0  0
 17 30  2  0  0  0  0
 17 31  1  0  0  0  0
 18 32  1  0  0  0  0
 19 36  1  0  0  0  0
 20 28  2  0  0  0  0
 20 35  1  0  0  0  0
 21 32  1  0  0  0  0
 21 33  2  0  0  0  0
 21 37  1  0  0  0  0
 22 24  2  0  0  0  0
 22 42  1  0  0  0  0
 23 25  2  0  0  0  0
 23 43  1  0  0  0  0
 24 51  1  0  0  0  0
 25 44  1  0  0  0  0
 26 81  1  0  0  0  0
 27 82  1  0  0  0  0
 28 83  1  0  0  0  0
 29 31  2  0  0  0  0
 29 81  1  0  0  0  0
 30 84  1  0  0  0  0
 31 85  1  0  0  0  0
 32 66  2  0  0  0  0
 33 68  1  0  0  0  0
 33 71  1  0  0  0  0
 34 35  2  0  0  0  0
 36 38  1  0  0  0  0
 36 67  2  0  0  0  0
 37 72  1  0  0  0  0
 37 76  2  0  0  0  0
 38 69  1  0  0  0  0
 38 77  2  0  0  0  0
 39 52  1  0  0  0  0
 39 73  1  0  0  0  0
 39 78  2  0  0  0  0
 40 63  1  0  0  0  0
 40 70  1  0  0  0  0
 40 79  2  0  0  0  0
 41 64  1  0  0  0  0
 41 74  1  0  0  0  0
 41 80  2  0  0  0  0
 42 45  1  0  0  0  0
 43 52  1  0  0  0  0
 44 70  1  0  0  0  0
 45 47  1  0  0  0  0
 46 48  1  0  0  0  0
 46 49  1  0  0  0  0
 47 51  1  0  0  0  0
 48 53  1  0  0  0  0
 49 69  1  0  0  0  0
 50 53  1  0  0  0  0
 50 69  1  0  0  0  0
 51 73  1  0  0  0  0
 52 70  1  0  0  0  0
 53 68  1  0  0  0  0
 54 64  1  0  0  0  0
 55 65  1  0  0  0  0
 56 65  1  0  0  0  0
 57 65  1  0  0  0  0
 58 75  1  0  0  0  0
 59 60  1  0  0  0  0
 59 61  1  0  0  0  0
 60 62  1  0  0  0  0
 61 82  1  0  0  0  0
 62 83  1  0  0  0  0
 63 65  1  0  0  0  0
 63 74  1  0  0  0  0
 64 75  1  0  0  0  0
 66 68  1  0  0  0  0
M  CHG  1  75   1
M  ISO  4  36 100  38 100  61 101  82 101
M  END
> <Batch ID>
0118

> <Smiles>
C=Cc1cc([100C:0](=N)[100C:0](=O)N2CCCC(n3nc(-c4ccc(Oc5ccc(F)cc5F)cc4)c(C(N)=O)c3N)C2)ccc1OCCC[101CH2:1][101O:1]c1ccc2c(c1)CN(C(=O)C(NC(=O)C(C)NC)C(C)(C)C)C(C(=O)NC1CCCc3ccccc31)C2

> <Shape>
0.339

> <Color>
0.242

> <Negative vol penalty>
0.000

$$$$

  -OEChem-04052301483D

 86 95  0     1  0  0  0  0  0999 V2000
  -28.2165  -36.2548   20.7145 C   0  0  0  0  0  0  0  0  0  0  0  0
  -28.5150  -34.8975   20.6508 C   0  0  0  0  0  0  0  0  0  0  0  0
  -23.3261   -9.9317   20.2449 C   0  0  0  0  0  0  0  0  0  0  0  0
  -23.9811   -9.6002   22.5467 C   0  0  0  0  0  0  0  0  0  0  0  0
  -31.1017  -19.6669   17.9992 C   0  0  0  0  0  0  0  0  0  0  0  0
  -27.2903  -36.7207   21.6467 C   0  0  0  0  0  0  0  0  0  0  0  0
  -27.8882  -34.0054   21.5200 C   0  0  0  0  0  0  0  0  0  0  0  0
  -26.2779  -29.8156   19.1753 C   0  0  0  0  0  0  0  0  0  0  0  0
  -32.1858  -20.5197   17.7918 C   0  0  0  0  0  0  0  0  0  0  0  0
  -23.0059   -8.5781   20.1411 C   0  0  0  0  0  0  0  0  0  0  0  0
  -23.6608   -8.2465   22.4429 C   0  0  0  0  0  0  0  0  0  0  0  0
  -27.2334  -28.8445   18.8792 C   0  0  0  0  0  0  0  0  0  0  0  0
  -20.8728   -6.3374   22.4935 C   0  0  0  0  0  0  0  0  0  0  0  0
  -20.1435   -5.7638   23.5350 C   0  0  0  0  0  0  0  0  0  0  0  0
  -29.9886  -21.3917   19.2732 C   0  0  0  0  0  0  0  0  0  0  0  0
  -26.5414  -27.5820   20.8147 C   0  0  0  0  0  0  0  0  0  0  0  0
  -21.9435   -4.2028   23.9357 C   0  0  0  0  0  0  0  0  0  0  0  0
  -23.8138  -10.4427   21.4477 C   0  0  0  0  0  0  0  0  0  0  0  0
  -30.0030  -20.1029   18.7398 C   0  0  0  0  0  0  0  0  0  0  0  0
  -23.2922  -12.8889   21.9494 C   0  0  0  0  0  0  0  0  0  0  0  0
  -26.6446  -35.8325   22.5214 C   0  0  0  0  0  0  0  0  0  0  0  0
  -25.4529  -29.6823   20.3014 C   0  0  0  0  0  0  0  0  0  0  0  0
  -26.9534  -34.4600   22.4657 C   0  0  0  0  0  0  0  0  0  0  0  0
  -25.5744  -28.5515   21.1215 C   0  0  0  0  0  0  0  0  0  0  0  0
  -32.1714  -21.8085   18.3251 C   0  0  0  0  0  0  0  0  0  0  0  0
  -31.0727  -22.2445   19.0658 C   0  0  0  0  0  0  0  0  0  0  0  0
  -23.1732   -7.7355   21.2401 C   0  0  0  0  0  0  0  0  0  0  0  0
  -27.3673  -27.7289   19.7006 C   0  0  0  0  0  0  0  0  0  0  0  0
  -22.1374   -5.8436   22.1730 C   0  0  0  0  0  0  0  0  0  0  0  0
  -20.6789   -4.6966   24.2561 C   0  0  0  0  0  0  0  0  0  0  0  0
  -22.6728   -4.7764   22.8941 C   0  0  0  0  0  0  0  0  0  0  0  0
  -24.1454  -11.8408   21.5554 C   0  0  0  0  0  0  0  0  0  0  0  0
  -24.0787  -14.0132   21.8884 C   0  0  0  0  0  0  0  0  0  0  0  0
  -30.2334  -25.6184   20.1696 C   0  0  0  0  0  0  0  0  0  0  0  0
  -28.8727  -19.2133   18.9557 C   0  0  0  0  0  0  0  0  0  0  0  0
  -29.2684  -26.5282   20.3447 C   0  0  0  0  0  0  0  0  0  1  0  0
  -28.9016  -17.8684   18.8416 C   0  0  0  0  0  0  0  0  0  0  0  0
  -21.9120  -12.8497   22.3360 C   0  0  0  0  0  0  0  0  0  0  0  0
  -27.6680  -17.1002   19.1039 C   0  0  0  0  0  0  0  0  0  0  0  0
  -24.9958  -31.3653   22.9589 C   0  0  0  0  0  0  0  0  0  0  0  0
  -22.6079  -29.2232   23.4403 C   0  0  0  0  0  0  0  0  0  0  0  0
  -21.3229  -26.1258   22.8063 C   0  0  0  0  0  0  0  0  0  0  0  0
  -25.6858  -36.3891   23.5439 C   0  0  0  0  0  0  0  0  0  0  0  0
  -24.4090  -30.7255   20.5920 C   0  0  0  0  0  0  0  0  0  0  0  0
  -24.6994  -28.3513   22.3309 C   0  0  0  0  0  0  0  0  0  0  0  0
  -31.3118  -25.3106   21.1590 C   0  0  0  0  0  0  0  0  0  0  0  0
  -24.7876  -35.3295   24.1769 C   0  0  0  0  0  0  0  0  0  0  0  0
  -29.0621  -14.5346   21.3189 C   0  0  0  0  0  0  0  0  0  0  0  0
  -25.6082  -34.1120   24.5906 C   0  0  0  0  0  0  0  0  0  0  0  0
  -27.8340  -13.6632   21.5684 C   0  0  0  0  0  0  0  0  0  0  0  0
  -31.5548  -23.8205   20.9417 C   0  0  0  0  0  0  0  0  0  0  0  0
  -29.0683  -15.1235   19.9090 C   0  0  0  0  0  0  0  0  0  0  0  0
  -26.5950  -15.0005   19.8201 C   0  0  0  0  0  0  0  0  0  0  0  0
  -26.2760  -33.4578   23.3751 C   0  0  1  0  0  0  0  0  0  0  0  0
  -30.3279  -24.6597   19.0104 C   0  0  1  0  0  0  0  0  0  0  0  0
  -23.9715  -30.7420   22.0534 C   0  0  1  0  0  0  0  0  0  0  0  0
  -26.5444  -14.4356   21.2482 C   0  0  1  0  0  0  0  0  0  0  0  0
  -33.3461  -22.7006   18.0872 C   0  0  0  0  0  0  0  0  0  0  0  0
  -31.1362  -25.2772   17.8704 C   0  0  0  0  0  0  0  0  0  0  0  0
  -19.3755  -24.6475   23.3717 C   0  0  0  0  0  0  0  0  0  0  0  0
  -23.8297  -28.6655   26.1800 C   0  0  0  0  0  0  0  0  0  0  0  0
  -22.4590  -26.5732   26.2881 C   0  0  0  0  0  0  0  0  0  0  0  0
  -21.3323  -28.7950   26.1583 C   0  0  0  0  0  0  0  0  0  0  0  0
  -20.4632  -25.9805   19.9781 C   0  0  0  0  0  0  0  0  0  0  0  0
  -22.4997  -27.8759   24.1127 C   0  0  1  0  0  0  0  0  0  0  0  0
  -19.9311  -25.6766   22.3995 C   0  0  2  0  0  0  0  0  0  0  0  0
  -22.5481  -27.9818   25.6632 C   0  0  0  0  0  0  0  0  0  0  0  0
  -25.3794  -12.2617   21.2654 N   0  0  0  0  0  0  0  0  0  0  0  0
  -25.3072  -13.5869   21.4773 N   0  0  0  0  0  0  0  0  0  0  0  0
  -31.0418  -23.5208   19.6019 N   0  0  3  0  0  0  0  0  0  0  0  0
  -27.8019  -15.8067   19.6055 N   0  0  0  0  0  0  0  0  0  0  0  0
  -23.6979  -29.4020   22.5767 N   0  0  0  0  0  0  0  0  0  0  0  0
  -23.8322  -15.3151   22.1468 N   0  0  0  0  0  0  0  0  0  0  0  0
  -21.2553  -11.6115   22.3438 N   0  0  0  0  0  0  0  0  0  0  0  0
  -25.3149  -32.6698   22.6336 N   0  0  0  0  0  0  0  0  0  0  0  0
  -21.2848  -27.2570   23.5937 N   0  0  0  0  0  0  0  0  0  0  0  0
  -19.9596  -25.0701   21.0386 N   0  3  0  0  0  0  0  0  0  0  0  0
  -21.2755  -13.8842   22.6490 O   0  0  0  0  0  0  0  0  0  0  0  0
  -26.5927  -17.6497   18.8579 O   0  0  0  0  0  0  0  0  0  0  0  0
  -25.4610  -30.7115   23.8852 O   0  0  0  0  0  0  0  0  0  0  0  0
  -21.7527  -30.0827   23.6672 O   0  0  0  0  0  0  0  0  0  0  0  0
  -22.3419  -25.5304   22.4632 O   0  0  0  0  0  0  0  0  0  0  0  0
  -22.8605   -6.4147   21.1392 O   0  0  0  0  0  0  0  0  0  0  0  0
  -28.2996  -26.7799   19.4142 O   0  0  0  0  0  0  0  0  0  1  0  0
  -19.9791   -4.1469   25.2573 F   0  0  0  0  0  0  0  0  0  0  0  0
  -23.8877   -4.2985   22.5916 F   0  0  0  0  0  0  0  0  0  0  0  0
  1  2  1  0  0  0  0
  1  6  2  0  0  0  0
  2  7  2  0  0  0  0
  3 10  2  0  0  0  0
  3 18  1  0  0  0  0
  4 11  1  0  0  0  0
  4 18  2  0  0  0  0
  5  9  2  0  0  0  0
  5 19  1  0  0  0  0
  6 21  1  0  0  0  0
  7 23  1  0  0  0  0
  8 12  2  0  0  0  0
  8 22  1  0  0  0  0
  9 25  1  0  0  0  0
 10 27  1  0  0  0  0
 11 27  2  0  0  0  0
 12 28  1  0  0  0  0
 13 14  2  0  0  0  0
 13 29  1  0  0  0  0
 14 30  1  0  0  0  0
 15 19  2  0  0  0  0
 15 26  1  0  0  0  0
 16 24  1  0  0  0  0
 16 28  2  0  0  0  0
 17 30  2  0  0  0  0
 17 31  1  0  0  0  0
 18 32  1  0  0  0  0
 19 35  1  0  0  0  0
 20 32  1  0  0  0  0
 20 33  2  0  0  0  0
 20 38  1  0  0  0  0
 21 23  2  0  0  0  0
 21 43  1  0  0  0  0
 22 24  2  0  0  0  0
 22 44  1  0  0  0  0
 23 54  1  0  0  0  0
 24 45  1  0  0  0  0
 25 26  2  0  0  0  0
 25 58  1  0  0  0  0
 26 70  1  0  0  0  0
 27 83  1  0  0  0  0
 28 84  1  0  0  0  0
 29 31  2  0  0  0  0
 29 83  1  0  0  0  0
 30 85  1  0  0  0  0
 31 86  1  0  0  0  0
 32 68  2  0  0  0  0
 33 69  1  0  0  0  0
 33 73  1  0  0  0  0
 34 36  2  0  0  0  0
 34 46  1  0  0  0  0
 34 55  1  0  0  0  0
 35 37  2  0  0  0  0
 36 84  1  0  0  0  0
 37 39  1  0  0  0  0
 38 74  1  0  0  0  0
 38 78  2  0  0  0  0
 39 71  1  0  0  0  0
 39 79  2  0  0  0  0
 40 56  1  0  0  0  0
 40 75  1  0  0  0  0
 40 80  2  0  0  0  0
 41 65  1  0  0  0  0
 41 72  1  0  0  0  0
 41 81  2  0  0  0  0
 42 66  1  0  0  0  0
 42 76  1  0  0  0  0
 42 82  2  0  0  0  0
 43 47  1  0  0  0  0
 44 56  1  0  0  0  0
 45 72  1  0  0  0  0
 46 51  1  0  0  0  0
 47 49  1  0  0  0  0
 48 50  1  0  0  0  0
 48 52  1  0  0  0  0
 49 54  1  0  0  0  0
 50 57  1  0  0  0  0
 51 70  1  0  0  0  0
 52 71  1  0  0  0  0
 53 57  1  0  0  0  0
 53 71  1  0  0  0  0
 54 75  1  0  0  0  0
 55 59  1  0  0  0  0
 55 70  1  0  0  0  0
 56 72  1  0  0  0  0
 57 69  1  0  0  0  0
 60 66  1  0  0  0  0
 61 67  1  0  0  0  0
 62 67  1  0  0  0  0
 63 67  1  0  0  0  0
 64 77  1  0  0  0  0
 65 67  1  0  0  0  0
 65 76  1  0  0  0  0
 66 77  1  0  0  0  0
 68 69  1  0  0  0  0
M  CHG  1  77   1
M  ISO  4  36 101  37 100  39 100  84 101
M  END
> <Batch ID>
0118

> <Smiles>
CNC(C)C(=O)NC(C(=O)N1Cc2cc([101O:1][101CH:1]=C3CCN(c4cc(C=[100CH:0][100C:0](=O)N5CCCC(n6nc(-c7ccc(Oc8ccc(F)cc8F)cc7)c(C(N)=O)c6N)C5)ccc4C)C3C)ccc2CC1C(=O)NC1CCCc2ccccc21)C(C)(C)C

> <Shape>
0.329

> <Color>
0.091

> <Negative vol penalty>
0.000

$$$$

  -OEChem-04052301483D

 83 91  0     1  0  0  0  0  0999 V2000
  -25.8053  -35.0774   20.0710 C   0  0  0  0  0  0  0  0  0  0  0  0
  -26.3321  -33.8176   20.3370 C   0  0  0  0  0  0  0  0  0  0  0  0
  -23.0851   -9.8475   19.9600 C   0  0  0  0  0  0  0  0  0  0  0  0
  -23.8691   -9.8795   22.2451 C   0  0  0  0  0  0  0  0  0  0  0  0
  -24.6017  -35.4664   20.6574 C   0  0  0  0  0  0  0  0  0  0  0  0
  -25.6561  -32.9464   21.1906 C   0  0  0  0  0  0  0  0  0  0  0  0
  -25.3693  -26.8448   20.7503 C   0  0  0  0  0  0  0  0  0  0  0  0
  -22.3390   -8.7008   20.2320 C   0  0  0  0  0  0  0  0  0  0  0  0
  -23.1230   -8.7328   22.5171 C   0  0  0  0  0  0  0  0  0  0  0  0
  -26.0729  -25.8242   21.3883 C   0  0  0  0  0  0  0  0  0  0  0  0
  -19.8980   -7.9566   23.1632 C   0  0  0  0  0  0  0  0  0  0  0  0
  -19.1532   -7.9345   24.3424 C   0  0  0  0  0  0  0  0  0  0  0  0
  -24.2900  -25.6100   22.9990 C   0  0  0  0  0  0  0  0  0  0  0  0
  -28.8367  -17.7183   21.8460 C   0  0  0  0  0  0  0  0  0  0  0  0
  -20.3941   -6.0009   25.0898 C   0  0  0  0  0  0  0  0  0  0  0  0
  -23.8502  -10.4368   20.9665 C   0  0  0  0  0  0  0  0  0  0  0  0
  -24.2015  -12.9588   20.8116 C   0  0  0  0  0  0  0  0  0  0  0  0
  -23.9057  -34.5959   21.5110 C   0  0  0  0  0  0  0  0  0  0  0  0
  -24.1235  -27.2638   21.2391 C   0  0  0  0  0  0  0  0  0  0  0  0
  -24.4427  -33.3247   21.7900 C   0  0  0  0  0  0  0  0  0  0  0  0
  -23.5713  -26.6344   22.3639 C   0  0  0  0  0  0  0  0  0  0  0  0
  -22.3579   -8.1434   21.5106 C   0  0  0  0  0  0  0  0  0  0  0  0
  -25.5347  -25.2086   22.5145 C   0  0  0  0  0  0  0  0  0  0  0  0
  -20.8907   -7.0008   22.9473 C   0  0  0  0  0  0  0  0  0  0  0  0
  -28.2857  -18.5786   20.8664 C   0  0  0  0  0  0  0  0  0  0  0  0
  -19.4012   -6.9566   25.3057 C   0  0  0  0  0  0  0  0  0  0  0  0
  -21.1388   -6.0230   23.9106 C   0  0  0  0  0  0  0  0  0  0  0  0
  -24.6216  -11.6210   20.6860 C   0  0  0  0  0  0  0  0  0  0  0  0
  -29.4714  -16.7114   21.1567 C   0  0  0  0  0  0  0  0  0  0  0  0
  -28.6232  -18.0361   19.6483 C   0  0  0  0  0  0  0  0  0  0  0  0
  -25.2929  -13.6989   20.4277 C   0  0  0  0  0  0  0  0  0  0  0  0
  -22.9376  -13.4853   21.2374 C   0  0  0  0  0  0  0  0  0  0  0  0
  -30.1970  -15.5731   21.6080 C   0  0  0  0  0  0  0  0  0  0  0  0
  -30.8082  -14.6005   20.6732 C   0  0  0  0  0  0  0  0  0  0  0  0
  -22.9691  -29.9907   22.3947 C   0  0  0  0  0  0  0  0  0  0  0  0
  -20.1614  -28.3666   22.3542 C   0  0  0  0  0  0  0  0  0  0  0  0
  -18.5552  -25.3557   22.3938 C   0  0  0  0  0  0  0  0  0  0  0  0
  -22.6321  -35.0787   22.1588 C   0  0  0  0  0  0  0  0  0  0  0  0
  -23.3649  -28.3478   20.5237 C   0  0  0  0  0  0  0  0  0  0  0  0
  -22.2282  -27.0334   22.9164 C   0  0  0  0  0  0  0  0  0  0  0  0
  -21.7886  -33.9552   22.7559 C   0  0  0  0  0  0  0  0  0  0  0  0
  -29.6021  -12.3138   18.1886 C   0  0  0  0  0  0  0  0  0  0  0  0
  -22.6622  -33.0076   23.5718 C   0  0  0  0  0  0  0  0  0  0  0  0
  -28.1772  -12.0102   18.6503 C   0  0  0  0  0  0  0  0  0  0  0  0
  -30.5396  -12.5255   19.3730 C   0  0  0  0  0  0  0  0  0  0  0  0
  -28.6513  -13.2831   20.7904 C   0  0  0  0  0  0  0  0  0  0  0  0
  -23.7264  -32.3421   22.6910 C   0  0  1  0  0  0  0  0  0  0  0  0
  -22.3388  -29.0449   21.4118 C   0  0  1  0  0  0  0  0  0  0  0  0
  -27.6694  -13.0906   19.6215 C   0  0  2  0  0  0  0  0  0  0  0  0
  -28.3619  -18.4364   18.2579 C   0  0  0  0  0  0  0  0  0  0  0  0
  -16.2564  -24.3492   22.3902 C   0  0  0  0  0  0  0  0  0  0  0  0
  -19.8369  -29.1031   25.2973 C   0  0  0  0  0  0  0  0  0  0  0  0
  -18.0807  -27.3277   25.4760 C   0  0  0  0  0  0  0  0  0  0  0  0
  -17.7404  -29.2666   23.9438 C   0  0  0  0  0  0  0  0  0  0  0  0
  -19.0502  -23.9461   19.8391 C   0  0  0  0  0  0  0  0  0  0  0  0
  -26.2097  -21.8922   23.8071 C   0  0  0  0  0  0  0  0  0  0  0  0
  -26.5197  -21.4174   22.3918 C   0  0  0  0  0  0  0  0  0  0  0  0
  -25.4490  -23.2116   23.8030 C   0  0  0  0  0  0  0  0  0  1  0  0
  -27.3172  -20.1209   22.3958 C   0  0  0  0  0  0  0  0  0  0  0  0
  -19.4235  -27.4825   23.3304 C   0  0  1  0  0  0  0  0  0  0  0  0
  -17.4308  -24.8025   21.5370 C   0  0  2  0  0  0  0  0  0  0  0  0
  -18.7966  -28.2885   24.5029 C   0  0  0  0  0  0  0  0  0  0  0  0
  -25.8815  -11.5145   20.2558 N   0  0  0  0  0  0  0  0  0  0  0  0
  -30.3993  -15.2715   22.8802 N   0  0  0  0  0  0  0  0  0  0  0  0
  -26.2625  -12.7948   20.1076 N   0  0  0  0  0  0  0  0  0  0  0  0
  -30.0105  -13.5304   20.2929 N   0  0  0  0  0  0  0  0  0  0  0  0
  -21.5280  -28.1026   22.1856 N   0  0  0  0  0  0  0  0  0  0  0  0
  -25.5082  -15.0285   20.3359 N   0  0  0  0  0  0  0  0  0  0  0  0
  -21.9255  -12.5848   21.5965 N   0  0  0  0  0  0  0  0  0  0  0  0
  -23.1405  -31.2735   21.9105 N   0  0  0  0  0  0  0  0  0  0  0  0
  -18.4578  -26.7230   22.5438 N   0  0  0  0  0  0  0  0  0  0  0  0
  -17.9110  -23.6375   20.7413 N   0  3  0  0  0  0  0  0  0  0  0  0
  -22.7072  -14.7175   21.2819 O   0  0  0  0  0  0  0  0  0  0  0  0
  -31.9585  -14.8460   20.3345 O   0  0  0  0  0  0  0  0  0  0  0  0
  -23.2758  -29.5868   23.5103 O   0  0  0  0  0  0  0  0  0  0  0  0
  -19.5463  -29.2539   21.7576 O   0  0  0  0  0  0  0  0  0  0  0  0
  -19.4301  -24.6455   22.8844 O   0  0  0  0  0  0  0  0  0  0  0  0
  -29.3460  -16.8977   19.8165 O   0  0  0  0  0  0  0  0  0  0  0  0
  -21.6298   -7.0246   21.7764 O   0  0  0  0  0  0  0  0  0  0  0  0
  -26.2197  -24.2127   23.1396 O   0  0  0  0  0  0  0  0  0  1  0  0
  -27.5595  -19.7261   21.0525 O   0  0  0  0  0  0  0  0  0  0  0  0
  -18.6870   -6.9364   26.4386 F   0  0  0  0  0  0  0  0  0  0  0  0
  -22.0921   -5.1029   23.7093 F   0  0  0  0  0  0  0  0  0  0  0  0
  1  2  1  0  0  0  0
  1  5  2  0  0  0  0
  2  6  2  0  0  0  0
  3  8  2  0  0  0  0
  3 16  1  0  0  0  0
  4  9  1  0  0  0  0
  4 16  2  0  0  0  0
  5 18  1  0  0  0  0
  6 20  1  0  0  0  0
  7 10  2  0  0  0  0
  7 19  1  0  0  0  0
  8 22  1  0  0  0  0
  9 22  2  0  0  0  0
 10 23  1  0  0  0  0
 11 12  2  0  0  0  0
 11 24  1  0  0  0  0
 12 26  1  0  0  0  0
 13 21  1  0  0  0  0
 13 23  2  0  0  0  0
 14 25  1  0  0  0  0
 14 29  2  0  0  0  0
 15 26  2  0  0  0  0
 15 27  1  0  0  0  0
 16 28  1  0  0  0  0
 17 28  1  0  0  0  0
 17 31  2  0  0  0  0
 17 32  1  0  0  0  0
 18 20  2  0  0  0  0
 18 38  1  0  0  0  0
 19 21  2  0  0  0  0
 19 39  1  0  0  0  0
 20 47  1  0  0  0  0
 21 40  1  0  0  0  0
 22 79  1  0  0  0  0
 23 80  1  0  0  0  0
 24 27  2  0  0  0  0
 24 79  1  0  0  0  0
 25 30  2  0  0  0  0
 25 81  1  0  0  0  0
 26 82  1  0  0  0  0
 27 83  1  0  0  0  0
 28 63  2  0  0  0  0
 29 33  1  0  0  0  0
 29 78  1  0  0  0  0
 30 50  1  0  0  0  0
 30 78  1  0  0  0  0
 31 65  1  0  0  0  0
 31 68  1  0  0  0  0
 32 69  1  0  0  0  0
 32 73  2  0  0  0  0
 33 34  1  0  0  0  0
 33 64  2  0  0  0  0
 34 66  1  0  0  0  0
 34 74  2  0  0  0  0
 35 48  1  0  0  0  0
 35 70  1  0  0  0  0
 35 75  2  0  0  0  0
 36 60  1  0  0  0  0
 36 67  1  0  0  0  0
 36 76  2  0  0  0  0
 37 61  1  0  0  0  0
 37 71  1  0  0  0  0
 37 77  2  0  0  0  0
 38 41  1  0  0  0  0
 39 48  1  0  0  0  0
 40 67  1  0  0  0  0
 41 43  1  0  0  0  0
 42 44  1  0  0  0  0
 42 45  1  0  0  0  0
 43 47  1  0  0  0  0
 44 49  1  0  0  0  0
 45 66  1  0  0  0  0
 46 49  1  0  0  0  0
 46 66  1  0  0  0  0
 47 70  1  0  0  0  0
 48 67  1  0  0  0  0
 49 65  1  0  0  0  0
 51 61  1  0  0  0  0
 52 62  1  0  0  0  0
 53 62  1  0  0  0  0
 54 62  1  0  0  0  0
 55 72  1  0  0  0  0
 56 57  1  0  0  0  0
 56 58  1  0  0  0  0
 57 59  1  0  0  0  0
 58 80  1  0  0  0  0
 59 81  1  0  0  0  0
 60 62  1  0  0  0  0
 60 71  1  0  0  0  0
 61 72  1  0  0  0  0
 63 65  1  0  0  0  0
M  CHG  1  72   1
M  ISO  4  33 100  34 100  58 101  80 101
M  END
> <Batch ID>
0118

> <Smiles>
CNC(C)C(=O)NC(C(=O)N1Cc2cc([101O:1][101CH2:1]CCCOc3cc([100C:0](=N)[100C:0](=O)N4CCCC(n5nc(-c6ccc(Oc7ccc(F)cc7F)cc6)c(C(N)=O)c5N)C4)oc3C)ccc2CC1C(=O)NC1CCCc2ccccc21)C(C)(C)C

> <Shape>
0.312

> <Color>
0.202

> <Negative vol penalty>
0.000

$$$$

  -OEChem-04052301483D

 82 90  0     1  0  0  0  0  0999 V2000
  -20.0721  -24.6493   24.1823 C   0  0  0  0  0  0  0  0  0  0  0  0
  -21.3282  -25.0065   23.7028 C   0  0  0  0  0  0  0  0  0  0  0  0
  -23.4871  -11.1263   22.1595 C   0  0  0  0  0  0  0  0  0  0  0  0
  -24.6492  -10.3184   20.2015 C   0  0  0  0  0  0  0  0  0  0  0  0
  -18.9689  -25.4585   23.9142 C   0  0  0  0  0  0  0  0  0  0  0  0
  -21.4816  -26.1727   22.9537 C   0  0  0  0  0  0  0  0  0  0  0  0
  -25.5189  -28.8785   24.3763 C   0  0  0  0  0  0  0  0  0  0  0  0
  -22.6501  -10.0111   22.1229 C   0  0  0  0  0  0  0  0  0  0  0  0
  -23.8123   -9.2032   20.1649 C   0  0  0  0  0  0  0  0  0  0  0  0
  -26.7667  -28.4400   23.9356 C   0  0  0  0  0  0  0  0  0  0  0  0
  -22.8041   -6.7510   23.0066 C   0  0  0  0  0  0  0  0  0  0  0  0
  -22.5549   -6.0878   24.2081 C   0  0  0  0  0  0  0  0  0  0  0  0
  -26.7285  -30.1044   22.1899 C   0  0  0  0  0  0  0  0  0  0  0  0
  -20.1924   -6.5295   23.9620 C   0  0  0  0  0  0  0  0  0  0  0  0
  -27.8150  -23.7363   20.8646 C   0  0  0  0  0  0  0  0  0  0  0  0
  -24.4866  -11.2800   21.1988 C   0  0  0  0  0  0  0  0  0  0  0  0
  -26.5787  -12.5524   21.9144 C   0  0  0  0  0  0  0  0  0  0  0  0
  -19.1105  -26.6402   23.1697 C   0  0  0  0  0  0  0  0  0  0  0  0
  -24.8604  -29.9279   23.7193 C   0  0  0  0  0  0  0  0  0  0  0  0
  -20.3789  -26.9977   22.6742 C   0  0  0  0  0  0  0  0  0  0  0  0
  -25.4735  -30.5561   22.6258 C   0  0  0  0  0  0  0  0  0  0  0  0
  -22.8127   -9.0495   21.1256 C   0  0  0  0  0  0  0  0  0  0  0  0
  -27.3705  -29.0510   22.8405 C   0  0  0  0  0  0  0  0  0  0  0  0
  -21.7474   -7.3036   22.2828 C   0  0  0  0  0  0  0  0  0  0  0  0
  -21.2491   -5.9770   24.6858 C   0  0  0  0  0  0  0  0  0  0  0  0
  -20.4416   -7.1928   22.7605 C   0  0  0  0  0  0  0  0  0  0  0  0
  -25.3512  -12.4321   21.2357 C   0  0  0  0  0  0  0  0  0  0  0  0
  -26.7904  -22.8227   20.5523 C   0  0  0  0  0  0  0  0  0  0  0  0
  -27.0007  -13.8296   21.6369 C   0  0  0  0  0  0  0  0  0  0  0  0
  -27.4728  -24.8809   20.1868 C   0  0  0  0  0  0  0  0  0  0  0  0
  -26.7409  -21.4940   21.0455 C   0  0  0  0  0  0  0  0  0  0  0  0
  -25.7863  -20.5504   20.7640 C   0  0  0  0  0  0  0  0  0  0  0  0
  -27.2751  -11.5951   22.7233 C   0  0  0  0  0  0  0  0  0  0  0  0
  -25.8797  -19.1987   21.3514 C   0  0  0  0  0  0  0  0  0  0  0  0
  -22.1149  -30.2161   22.1436 C   0  0  0  0  0  0  0  0  0  0  0  0
  -22.9243  -33.3568   22.0908 C   0  0  0  0  0  0  0  0  0  0  0  0
  -25.3841  -35.7177   22.2413 C   0  0  0  0  0  0  0  0  0  0  0  0
  -17.8804  -27.4581   22.8652 C   0  0  0  0  0  0  0  0  0  0  0  0
  -23.5267  -30.4069   24.2236 C   0  0  0  0  0  0  0  0  0  0  0  0
  -24.8174  -31.7002   21.8984 C   0  0  0  0  0  0  0  0  0  0  0  0
  -18.1934  -28.8720   22.3821 C   0  0  0  0  0  0  0  0  0  0  0  0
  -25.3014  -17.2249   18.3180 C   0  0  0  0  0  0  0  0  0  0  0  0
  -19.2844  -28.8427   21.3164 C   0  0  0  0  0  0  0  0  0  0  0  0
  -25.3178  -15.8070   18.8827 C   0  0  0  0  0  0  0  0  0  0  0  0
  -24.7036  -18.2265   19.3050 C   0  0  0  0  0  0  0  0  0  0  0  0
  -25.3774  -16.7904   21.2086 C   0  0  0  0  0  0  0  0  0  0  0  0
  -20.5899  -28.2679   21.8791 C   0  0  1  0  0  0  0  0  0  0  0  0
  -22.7159  -31.1434   23.1617 C   0  0  1  0  0  0  0  0  0  0  0  0
  -26.0179  -15.7739   20.2505 C   0  0  1  0  0  0  0  0  0  0  0  0
  -25.7424  -38.1990   22.1312 C   0  0  0  0  0  0  0  0  0  0  0  0
  -22.5461  -33.2747   19.0643 C   0  0  0  0  0  0  0  0  0  0  0  0
  -23.8061  -35.4333   18.9182 C   0  0  0  0  0  0  0  0  0  0  0  0
  -21.6520  -35.3310   20.1719 C   0  0  0  0  0  0  0  0  0  0  0  0
  -25.5507  -25.4827   18.6855 C   0  0  0  0  0  0  0  0  0  0  0  0
  -26.5040  -35.7944   24.9797 C   0  0  0  0  0  0  0  0  0  0  0  0
  -29.8379  -27.6786   20.5735 C   0  0  0  0  0  0  0  0  0  0  0  0
  -28.8678  -28.7629   21.0154 C   0  0  0  0  0  0  0  0  0  1  0  0
  -29.2845  -26.2842   20.8223 C   0  0  0  0  0  0  0  0  0  0  0  0
  -23.7112  -34.2425   21.1552 C   0  0  1  0  0  0  0  0  0  0  0  0
  -25.4984  -37.0039   23.0394 C   0  0  2  0  0  0  0  0  0  0  0  0
  -22.9406  -34.5475   19.8397 C   0  0  0  0  0  0  0  0  0  0  0  0
  -25.0152  -13.5443   20.5768 N   0  0  0  0  0  0  0  0  0  0  0  0
  -25.8665  -23.3421   19.7395 N   0  0  0  0  0  0  0  0  0  0  0  0
  -26.0377  -14.3756   20.8401 N   0  0  0  0  0  0  0  0  0  0  0  0
  -26.3092  -24.5945   19.5354 N   0  0  0  0  0  0  0  0  0  0  0  0
  -25.3503  -18.1352   20.6226 N   0  0  0  0  0  0  0  0  0  0  0  0
  -23.5111  -32.1282   22.4254 N   0  0  0  0  0  0  0  0  0  0  0  0
  -28.0979  -14.5278   21.9991 N   0  0  0  0  0  0  0  0  0  0  0  0
  -26.7004  -10.3299   22.9051 N   0  0  0  0  0  0  0  0  0  0  0  0
  -21.2747  -29.2594   22.6806 N   0  0  0  0  0  0  0  0  0  0  0  0
  -24.0739  -35.4282   21.9239 N   0  0  0  0  0  0  0  0  0  0  0  0
  -26.6259  -36.9130   24.0097 N   0  3  0  0  0  0  0  0  0  0  0  0
  -28.3666  -11.8597   23.2821 O   0  0  0  0  0  0  0  0  0  0  0  0
  -26.4172  -19.0944   22.4554 O   0  0  0  0  0  0  0  0  0  0  0  0
  -22.3917  -30.3589   20.9584 O   0  0  0  0  0  0  0  0  0  0  0  0
  -21.8327  -33.7441   22.5150 O   0  0  0  0  0  0  0  0  0  0  0  0
  -26.3600  -35.0397   21.9273 O   0  0  0  0  0  0  0  0  0  0  0  0
  -21.9963   -7.9611   21.0897 O   0  0  0  0  0  0  0  0  0  0  0  0
  -28.5881  -28.6244   22.4079 O   0  0  0  0  0  0  0  0  0  1  0  0
  -28.0751  -26.1087   20.0968 O   0  0  0  0  0  0  0  0  0  0  0  0
  -21.0098   -5.3387   25.8389 F   0  0  0  0  0  0  0  0  0  0  0  0
  -19.4222   -7.7206   22.0690 F   0  0  0  0  0  0  0  0  0  0  0  0
  1  2  1  0  0  0  0
  1  5  2  0  0  0  0
  2  6  2  0  0  0  0
  3  8  2  0  0  0  0
  3 16  1  0  0  0  0
  4  9  1  0  0  0  0
  4 16  2  0  0  0  0
  5 18  1  0  0  0  0
  6 20  1  0  0  0  0
  7 10  2  0  0  0  0
  7 19  1  0  0  0  0
  8 22  1  0  0  0  0
  9 22  2  0  0  0  0
 10 23  1  0  0  0  0
 11 12  2  0  0  0  0
 11 24  1  0  0  0  0
 12 25  1  0  0  0  0
 13 21  1  0  0  0  0
 13 23  2  0  0  0  0
 14 25  2  0  0  0  0
 14 26  1  0  0  0  0
 15 28  1  0  0  0  0
 15 30  2  0  0  0  0
 16 27  1  0  0  0  0
 17 27  1  0  0  0  0
 17 29  2  0  0  0  0
 17 33  1  0  0  0  0
 18 20  2  0  0  0  0
 18 38  1  0  0  0  0
 19 21  2  0  0  0  0
 19 39  1  0  0  0  0
 20 47  1  0  0  0  0
 21 40  1  0  0  0  0
 22 78  1  0  0  0  0
 23 79  1  0  0  0  0
 24 26  2  0  0  0  0
 24 78  1  0  0  0  0
 25 81  1  0  0  0  0
 26 82  1  0  0  0  0
 27 62  2  0  0  0  0
 28 31  1  0  0  0  0
 28 63  2  0  0  0  0
 29 64  1  0  0  0  0
 29 68  1  0  0  0  0
 30 65  1  0  0  0  0
 30 80  1  0  0  0  0
 31 32  2  0  0  0  0
 32 34  1  0  0  0  0
 33 69  1  0  0  0  0
 33 73  2  0  0  0  0
 34 66  1  0  0  0  0
 34 74  2  0  0  0  0
 35 48  1  0  0  0  0
 35 70  1  0  0  0  0
 35 75  2  0  0  0  0
 36 59  1  0  0  0  0
 36 67  1  0  0  0  0
 36 76  2  0  0  0  0
 37 60  1  0  0  0  0
 37 71  1  0  0  0  0
 37 77  2  0  0  0  0
 38 41  1  0  0  0  0
 39 48  1  0  0  0  0
 40 67  1  0  0  0  0
 41 43  1  0  0  0  0
 42 44  1  0  0  0  0
 42 45  1  0  0  0  0
 43 47  1  0  0  0  0
 44 49  1  0  0  0  0
 45 66  1  0  0  0  0
 46 49  1  0  0  0  0
 46 66  1  0  0  0  0
 47 70  1  0  0  0  0
 48 67  1  0  0  0  0
 49 64  1  0  0  0  0
 50 60  1  0  0  0  0
 51 61  1  0  0  0  0
 52 61  1  0  0  0  0
 53 61  1  0  0  0  0
 54 65  1  0  0  0  0
 55 72  1  0  0  0  0
 56 57  1  0  0  0  0
 56 58  1  0  0  0  0
 57 79  1  0  0  0  0
 58 80  1  0  0  0  0
 59 61  1  0  0  0  0
 59 71  1  0  0  0  0
 60 72  1  0  0  0  0
 62 64  1  0  0  0  0
 63 65  1  0  0  0  0
M  CHG  1  72   1
M  ISO  4  32 100  34 100  57 101  79 101
M  END
> <Batch ID>
0118

> <Smiles>
CNC(C)C(=O)NC(C(=O)N1Cc2cc([101O:1][101CH2:1]CCOc3cc(C=[100CH:0][100C:0](=O)N4CCCC(n5nc(-c6ccc(Oc7ccc(F)cc7F)cc6)c(C(N)=O)c5N)C4)nn3C)ccc2CC1C(=O)NC1CCCc2ccccc21)C(C)(C)C

> <Shape>
0.264

> <Color>
0.117

> <Negative vol penalty>
0.000

$$$$

  -OEChem-04052301483D

 84 92  0     1  0  0  0  0  0999 V2000
  -29.4902  -33.9656   26.0648 C   0  0  0  0  0  0  0  0  0  0  0  0
  -29.6374  -32.8686   25.2220 C   0  0  0  0  0  0  0  0  0  0  0  0
  -24.6240   -9.0061   21.3658 C   0  0  0  0  0  0  0  0  0  0  0  0
  -23.3633  -10.8696   22.2463 C   0  0  0  0  0  0  0  0  0  0  0  0
  -28.2639  -34.2098   26.6816 C   0  0  0  0  0  0  0  0  0  0  0  0
  -28.5586  -32.0144   24.9964 C   0  0  0  0  0  0  0  0  0  0  0  0
  -27.2213  -29.0664   19.7977 C   0  0  0  0  0  0  0  0  0  0  0  0
  -27.7905  -20.4088   20.0959 C   0  0  0  0  0  0  0  0  0  0  0  0
  -28.2080  -19.0901   20.2760 C   0  0  0  0  0  0  0  0  0  0  0  0
  -24.0888   -8.1779   22.3522 C   0  0  0  0  0  0  0  0  0  0  0  0
  -22.8280  -10.0413   23.2327 C   0  0  0  0  0  0  0  0  0  0  0  0
  -27.4569  -27.7594   19.3732 C   0  0  0  0  0  0  0  0  0  0  0  0
  -21.1908   -6.5305   22.9187 C   0  0  0  0  0  0  0  0  0  0  0  0
  -20.7304   -5.2727   22.5294 C   0  0  0  0  0  0  0  0  0  0  0  0
  -25.2382  -27.1349   20.0847 C   0  0  0  0  0  0  0  0  0  0  0  0
  -25.7688  -19.9376   21.3319 C   0  0  0  0  0  0  0  0  0  0  0  0
  -22.3136   -4.2297   24.0271 C   0  0  0  0  0  0  0  0  0  0  0  0
  -24.2614  -10.3520   21.3129 C   0  0  0  0  0  0  0  0  0  0  0  0
  -24.2861  -11.4564   19.0134 C   0  0  0  0  0  0  0  0  0  0  0  0
  -27.1668  -33.3637   26.4558 C   0  0  0  0  0  0  0  0  0  0  0  0
  -25.9943  -29.4155   20.3798 C   0  0  0  0  0  0  0  0  0  0  0  0
  -27.3168  -32.2467   25.6118 C   0  0  0  0  0  0  0  0  0  0  0  0
  -24.9886  -28.4475   20.5134 C   0  0  0  0  0  0  0  0  0  0  0  0
  -26.1862  -18.6189   21.5119 C   0  0  0  0  0  0  0  0  0  0  0  0
  -26.5709  -20.8326   20.6239 C   0  0  0  0  0  0  0  0  0  0  0  0
  -27.4058  -18.1952   20.9840 C   0  0  0  0  0  0  0  0  0  0  0  0
  -23.1907   -8.6954   23.2857 C   0  0  0  0  0  0  0  0  0  0  0  0
  -26.4663  -26.7928   19.5194 C   0  0  0  0  0  0  0  0  0  0  0  0
  -22.2126   -6.6380   23.8622 C   0  0  0  0  0  0  0  0  0  0  0  0
  -21.2918   -4.1223   23.0836 C   0  0  0  0  0  0  0  0  0  0  0  0
  -22.7739   -5.4876   24.4164 C   0  0  0  0  0  0  0  0  0  0  0  0
  -24.8144  -11.2083   20.2945 C   0  0  0  0  0  0  0  0  0  0  0  0
  -25.1757  -12.3309   18.4387 C   0  0  0  0  0  0  0  0  0  0  0  0
  -23.2323  -16.6637   21.2900 C   0  0  0  0  0  0  0  0  0  0  0  0
  -24.5653  -16.7184   21.3894 C   0  0  0  0  0  0  0  0  0  0  0  0
  -23.0975  -10.9424   18.3981 C   0  0  0  0  0  0  0  0  0  0  0  0
  -25.0924  -30.5167   23.2219 C   0  0  0  0  0  0  0  0  0  0  0  0
  -22.1905  -30.7230   21.7869 C   0  0  0  0  0  0  0  0  0  0  0  0
  -26.8196  -23.1875   19.7717 C   0  0  0  0  0  0  0  0  0  0  0  0
  -20.0943  -29.6403   19.3210 C   0  0  0  0  0  0  0  0  0  0  0  0
  -29.0358  -16.2967   20.6919 C   0  0  0  0  0  0  0  0  0  0  0  0
  -25.8744  -33.6413   27.1820 C   0  0  0  0  0  0  0  0  0  0  0  0
  -25.7462  -30.8358   20.8080 C   0  0  0  0  0  0  0  0  0  0  0  0
  -23.6467  -28.7758   21.1134 C   0  0  0  0  0  0  0  0  0  0  0  0
  -24.6751  -32.9009   26.5958 C   0  0  0  0  0  0  0  0  0  0  0  0
  -29.8005  -13.5702   18.5335 C   0  0  0  0  0  0  0  0  0  0  0  0
  -25.0234  -31.4379   26.3410 C   0  0  0  0  0  0  0  0  0  0  0  0
  -28.5581  -12.6807   18.6189 C   0  0  0  0  0  0  0  0  0  0  0  0
  -30.1276  -14.2182   19.8778 C   0  0  0  0  0  0  0  0  0  0  0  0
  -27.7739  -14.0579   20.5875 C   0  0  0  0  0  0  0  0  0  0  0  0
  -26.1629  -31.3113   25.3227 C   0  0  1  0  0  0  0  0  0  0  0  0
  -24.6458  -30.9600   21.8574 C   0  0  1  0  0  0  0  0  0  0  0  0
  -27.3670  -13.4346   19.2422 C   0  0  2  0  0  0  0  0  0  0  0  0
  -17.7733  -29.9665   18.4246 C   0  0  0  0  0  0  0  0  0  0  0  0
  -21.0685  -29.0820   24.1017 C   0  0  0  0  0  0  0  0  0  0  0  0
  -19.0347  -28.6392   22.7105 C   0  0  0  0  0  0  0  0  0  0  0  0
  -19.6122  -30.9764   23.3636 C   0  0  0  0  0  0  0  0  0  0  0  0
  -21.1115  -30.5557   16.6968 C   0  0  0  0  0  0  0  0  0  0  0  0
  -25.3080  -17.6822   22.2762 C   0  0  0  0  0  0  0  0  0  0  0  0
  -26.0182  -24.4755   19.8113 C   0  0  0  0  0  0  0  0  0  1  0  0
  -21.0116  -29.7948   21.6208 C   0  0  1  0  0  0  0  0  0  0  0  0
  -19.2286  -30.3976   18.3304 C   0  0  2  0  0  0  0  0  0  0  0  0
  -20.2076  -29.6162   22.9396 C   0  0  0  0  0  0  0  0  0  0  0  0
  -25.9516  -11.8714   20.5206 N   0  0  0  0  0  0  0  0  0  0  0  0
  -26.1452  -12.5448   19.3738 N   0  0  0  0  0  0  0  0  0  0  0  0
  -23.4546  -30.1769   21.5227 N   0  0  0  0  0  0  0  0  0  0  0  0
  -28.9540  -14.9176   20.4054 N   0  0  0  0  0  0  0  0  0  0  0  0
  -25.2154  -12.9300   17.2296 N   0  0  0  0  0  0  0  0  0  0  0  0
  -22.2970  -10.0543   19.1294 N   0  0  0  0  0  0  0  0  0  0  0  0
  -26.1489  -22.1712   20.4435 N   0  0  0  0  0  0  0  0  0  0  0  0
  -27.8483  -16.8603   21.1575 N   0  0  0  0  0  0  0  0  0  0  0  0
  -25.6660  -31.5199   23.9796 N   0  0  0  0  0  0  0  0  0  0  0  0
  -20.2279  -30.3250   20.5104 N   0  0  0  0  0  0  0  0  0  0  0  0
  -19.7014  -30.1551   16.9380 N   0  3  0  0  0  0  0  0  0  0  0  0
  -22.7640  -11.2484   17.2282 O   0  0  0  0  0  0  0  0  0  0  0  0
  -24.9273  -29.3513   23.5626 O   0  0  0  0  0  0  0  0  0  0  0  0
  -21.9964  -31.8915   22.1312 O   0  0  0  0  0  0  0  0  0  0  0  0
  -27.9057  -23.1238   19.2053 O   0  0  0  0  0  0  0  0  0  0  0  0
  -20.5984  -28.5486   19.0667 O   0  0  0  0  0  0  0  0  0  0  0  0
  -30.0746  -16.9368   20.5100 O   0  0  0  0  0  0  0  0  0  0  0  0
  -22.6680   -7.8875   24.2482 O   0  0  0  0  0  0  0  0  0  0  0  0
  -26.6939  -25.5162   19.1065 O   0  0  0  0  0  0  0  0  0  1  0  0
  -20.8486   -2.9145   22.7108 F   0  0  0  0  0  0  0  0  0  0  0  0
  -23.7550   -5.5845   25.3241 F   0  0  0  0  0  0  0  0  0  0  0  0
  1  2  1  0  0  0  0
  1  5  2  0  0  0  0
  2  6  2  0  0  0  0
  3 10  2  0  0  0  0
  3 18  1  0  0  0  0
  4 11  1  0  0  0  0
  4 18  2  0  0  0  0
  5 20  1  0  0  0  0
  6 22  1  0  0  0  0
  7 12  2  0  0  0  0
  7 21  1  0  0  0  0
  8  9  2  0  0  0  0
  8 25  1  0  0  0  0
  9 26  1  0  0  0  0
 10 27  1  0  0  0  0
 11 27  2  0  0  0  0
 12 28  1  0  0  0  0
 13 14  2  0  0  0  0
 13 29  1  0  0  0  0
 14 30  1  0  0  0  0
 15 23  1  0  0  0  0
 15 28  2  0  0  0  0
 16 24  1  0  0  0  0
 16 25  2  0  0  0  0
 17 30  2  0  0  0  0
 17 31  1  0  0  0  0
 18 32  1  0  0  0  0
 19 32  1  0  0  0  0
 19 33  2  0  0  0  0
 19 36  1  0  0  0  0
 20 22  2  0  0  0  0
 20 42  1  0  0  0  0
 21 23  2  0  0  0  0
 21 43  1  0  0  0  0
 22 51  1  0  0  0  0
 23 44  1  0  0  0  0
 24 26  2  0  0  0  0
 24 59  1  0  0  0  0
 25 70  1  0  0  0  0
 26 71  1  0  0  0  0
 27 81  1  0  0  0  0
 28 82  1  0  0  0  0
 29 31  2  0  0  0  0
 29 81  1  0  0  0  0
 30 83  1  0  0  0  0
 31 84  1  0  0  0  0
 32 64  2  0  0  0  0
 33 65  1  0  0  0  0
 33 68  1  0  0  0  0
 34 35  2  0  0  0  0
 35 59  1  0  0  0  0
 36 69  1  0  0  0  0
 36 75  2  0  0  0  0
 37 52  1  0  0  0  0
 37 72  1  0  0  0  0
 37 76  2  0  0  0  0
 38 61  1  0  0  0  0
 38 66  1  0  0  0  0
 38 77  2  0  0  0  0
 39 60  1  0  0  0  0
 39 70  1  0  0  0  0
 39 78  2  0  0  0  0
 40 62  1  0  0  0  0
 40 73  1  0  0  0  0
 40 79  2  0  0  0  0
 41 67  1  0  0  0  0
 41 71  1  0  0  0  0
 41 80  2  0  0  0  0
 42 45  1  0  0  0  0
 43 52  1  0  0  0  0
 44 66  1  0  0  0  0
 45 47  1  0  0  0  0
 46 48  1  0  0  0  0
 46 49  1  0  0  0  0
 47 51  1  0  0  0  0
 48 53  1  0  0  0  0
 49 67  1  0  0  0  0
 50 53  1  0  0  0  0
 50 67  1  0  0  0  0
 51 72  1  0  0  0  0
 52 66  1  0  0  0  0
 53 65  1  0  0  0  0
 54 62  1  0  0  0  0
 55 63  1  0  0  0  0
 56 63  1  0  0  0  0
 57 63  1  0  0  0  0
 58 74  1  0  0  0  0
 60 82  1  0  0  0  0
 61 63  1  0  0  0  0
 61 73  1  0  0  0  0
 62 74  1  0  0  0  0
 64 65  1  0  0  0  0
M  CHG  1  74   1
M  ISO  4  41 100  60 101  71 100  82 101
M  END
> <Batch ID>
0118

> <Smiles>
C=CCc1cc(NC(=O)[101CH2:1][101O:1]c2ccc3c(c2)CN(C(=O)C(NC(=O)C(C)NC)C(C)(C)C)C(C(=O)NC2CCCc4ccccc42)C3)ccc1[100NH:0][100C:0](=O)N1CCCC(n2nc(-c3ccc(Oc4ccc(F)cc4F)cc3)c(C(N)=O)c2N)C1

> <Shape>
0.308

> <Color>
0.099

> <Negative vol penalty>
0.000

$$$$

  -OEChem-04052301483D

 84 93  0     1  0  0  0  0  0999 V2000
  -25.2610  -18.6047   26.5511 C   0  0  0  0  0  0  0  0  0  0  0  0
  -26.1157  -19.3756   25.7697 C   0  0  0  0  0  0  0  0  0  0  0  0
  -27.3034  -11.4579   20.6728 C   0  0  0  0  0  0  0  0  0  0  0  0
  -26.6143  -12.8896   18.8527 C   0  0  0  0  0  0  0  0  0  0  0  0
  -23.8825  -18.6788   26.3554 C   0  0  0  0  0  0  0  0  0  0  0  0
  -25.5924  -20.2202   24.7913 C   0  0  0  0  0  0  0  0  0  0  0  0
  -27.7871  -25.6756   23.0800 C   0  0  0  0  0  0  0  0  0  0  0  0
  -29.7613  -23.0986   20.0201 C   0  0  0  0  0  0  0  0  0  0  0  0
  -29.4398  -22.0043   20.8283 C   0  0  0  0  0  0  0  0  0  0  0  0
  -26.2346  -10.6027   20.4048 C   0  0  0  0  0  0  0  0  0  0  0  0
  -25.5456  -12.0343   18.5846 C   0  0  0  0  0  0  0  0  0  0  0  0
  -28.5910  -26.0700   22.0114 C   0  0  0  0  0  0  0  0  0  0  0  0
  -23.4773   -8.2320   20.4270 C   0  0  0  0  0  0  0  0  0  0  0  0
  -22.7263   -7.7714   21.5084 C   0  0  0  0  0  0  0  0  0  0  0  0
  -28.1399  -20.9941   19.0432 C   0  0  0  0  0  0  0  0  0  0  0  0
  -26.6197  -26.6735   20.7590 C   0  0  0  0  0  0  0  0  0  0  0  0
  -22.1556  -10.0479   22.0819 C   0  0  0  0  0  0  0  0  0  0  0  0
  -28.7227  -23.6439   16.5938 C   0  0  0  0  0  0  0  0  0  0  0  0
  -28.4506  -22.0871   18.2099 C   0  0  0  0  0  0  0  0  0  0  0  0
  -27.4932  -12.6014   19.8969 C   0  0  0  0  0  0  0  0  0  0  0  0
  -29.8943  -13.4212   19.6315 C   0  0  0  0  0  0  0  0  0  0  0  0
  -23.3416  -19.5319   25.3807 C   0  0  0  0  0  0  0  0  0  0  0  0
  -26.3906  -25.7672   22.9919 C   0  0  0  0  0  0  0  0  0  0  0  0
  -24.2055  -20.3047   24.5815 C   0  0  0  0  0  0  0  0  0  0  0  0
  -25.8004  -26.2821   21.8288 C   0  0  0  0  0  0  0  0  0  0  0  0
  -28.1241  -22.4362   16.8696 C   0  0  0  0  0  0  0  0  0  0  0  0
  -29.2525  -23.1120   18.7166 C   0  0  0  0  0  0  0  0  0  0  0  0
  -28.6418  -20.9672   20.3494 C   0  0  0  0  0  0  0  0  0  0  0  0
  -25.3557  -10.8908   19.3607 C   0  0  0  0  0  0  0  0  0  0  0  0
  -28.0072  -26.5663   20.8495 C   0  0  0  0  0  0  0  0  0  0  0  0
  -23.5675   -9.6006   20.1731 C   0  0  0  0  0  0  0  0  0  0  0  0
  -22.0654   -8.6793   22.3358 C   0  0  0  0  0  0  0  0  0  0  0  0
  -22.9067  -10.5086   21.0005 C   0  0  0  0  0  0  0  0  0  0  0  0
  -28.5967  -13.4856   20.1736 C   0  0  0  0  0  0  0  0  0  0  0  0
  -30.5599  -14.4755   20.2076 C   0  0  0  0  0  0  0  0  0  0  0  0
  -30.4484  -12.4915   18.6911 C   0  0  0  0  0  0  0  0  0  0  0  0
  -23.9949  -23.6806   23.0941 C   0  0  0  0  0  0  0  0  0  0  0  0
  -22.1715  -26.3627   23.0341 C   0  0  0  0  0  0  0  0  0  0  0  0
  -21.8968  -29.6614   22.2034 C   0  0  0  0  0  0  0  0  0  0  0  0
  -28.7435  -19.6805   22.5128 C   0  0  0  0  0  0  0  0  0  0  0  0
  -21.8477  -19.5427   25.1737 C   0  0  0  0  0  0  0  0  0  0  0  0
  -25.5386  -25.3627   24.1636 C   0  0  0  0  0  0  0  0  0  0  0  0
  -24.3068  -26.4196   21.6916 C   0  0  0  0  0  0  0  0  0  0  0  0
  -21.3527  -20.7425   24.3702 C   0  0  0  0  0  0  0  0  0  0  0  0
  -30.6127  -17.1499   24.1800 C   0  0  0  0  0  0  0  0  0  0  0  0
  -22.2225  -20.9532   23.1348 C   0  0  0  0  0  0  0  0  0  0  0  0
  -30.4309  -15.9187   23.2892 C   0  0  0  0  0  0  0  0  0  0  0  0
  -29.3438  -17.9983   24.2406 C   0  0  0  0  0  0  0  0  0  0  0  0
  -28.6114  -17.1548   22.0448 C   0  0  0  0  0  0  0  0  0  0  0  0
  -23.6746  -21.2514   23.5269 C   0  0  1  0  0  0  0  0  0  0  0  0
  -24.1056  -25.0182   23.7696 C   0  0  1  0  0  0  0  0  0  0  0  0
  -29.8835  -16.3036   21.9007 C   0  0  2  0  0  0  0  0  0  0  0  0
  -27.2933  -21.6516   15.9342 C   0  0  0  0  0  0  0  0  0  0  0  0
  -20.2725  -31.5738   22.2418 C   0  0  0  0  0  0  0  0  0  0  0  0
  -20.7028  -25.1600   20.6453 C   0  0  0  0  0  0  0  0  0  0  0  0
  -19.7868  -27.4370   20.1508 C   0  0  0  0  0  0  0  0  0  0  0  0
  -19.2279  -26.3107   22.3052 C   0  0  0  0  0  0  0  0  0  0  0  0
  -23.6495  -31.2663   23.9673 C   0  0  0  0  0  0  0  0  0  0  0  0
  -29.3707  -26.5790   17.5069 C   0  0  0  0  0  0  0  0  0  0  0  0
  -30.1900  -25.3243   17.8175 C   0  0  0  0  0  0  0  0  0  0  0  0
  -28.2362  -26.8198   18.4960 C   0  0  0  0  0  0  0  0  0  1  0  0
  -21.5613  -27.2166   21.9490 C   0  0  1  0  0  0  0  0  0  0  0  0
  -21.3888  -30.8585   22.9866 C   0  0  2  0  0  0  0  0  0  0  0  0
  -20.3478  -26.5268   21.2641 C   0  0  0  0  0  0  0  0  0  0  0  0
  -28.4449  -14.5004   21.0287 N   0  0  0  0  0  0  0  0  0  0  0  0
  -29.4012  -24.0434   17.7138 N   0  0  0  0  0  0  0  0  0  0  0  0
  -29.6558  -15.0834   21.0282 N   0  0  0  0  0  0  0  0  0  0  0  0
  -23.5161  -26.0048   22.8622 N   0  0  0  0  0  0  0  0  0  0  0  0
  -28.8861  -18.3281   22.8890 N   0  0  0  0  0  0  0  0  0  0  0  0
  -31.8244  -14.9325   20.0874 N   0  0  0  0  0  0  0  0  0  0  0  0
  -29.6261  -11.4688   18.1989 N   0  0  0  0  0  0  0  0  0  0  0  0
  -28.3335  -19.8719   21.1938 N   0  0  0  0  0  0  0  0  0  0  0  0
  -23.8081  -22.6242   23.9651 N   0  0  0  0  0  0  0  0  0  0  0  0
  -21.2482  -28.5003   22.5673 N   0  0  0  0  0  0  0  0  0  0  0  0
  -22.4941  -31.8299   23.2228 N   0  3  0  0  0  0  0  0  0  0  0  0
  -31.6422  -12.5558   18.3113 O   0  0  0  0  0  0  0  0  0  0  0  0
  -24.0718  -23.6122   21.8730 O   0  0  0  0  0  0  0  0  0  0  0  0
  -21.4825  -26.0316   24.0023 O   0  0  0  0  0  0  0  0  0  0  0  0
  -22.7782  -29.7483   21.3512 O   0  0  0  0  0  0  0  0  0  0  0  0
  -28.9948  -20.6014   23.2943 O   0  0  0  0  0  0  0  0  0  0  0  0
  -24.3129  -10.0563   19.0986 O   0  0  0  0  0  0  0  0  0  0  0  0
  -28.7896  -26.9513   19.8047 O   0  0  0  0  0  0  0  0  0  1  0  0
  -21.3430   -8.2367   23.3733 F   0  0  0  0  0  0  0  0  0  0  0  0
  -22.9887  -11.8245   20.7608 F   0  0  0  0  0  0  0  0  0  0  0  0
  1  2  1  0  0  0  0
  1  5  2  0  0  0  0
  2  6  2  0  0  0  0
  3 10  2  0  0  0  0
  3 20  1  0  0  0  0
  4 11  1  0  0  0  0
  4 20  2  0  0  0  0
  5 22  1  0  0  0  0
  6 24  1  0  0  0  0
  7 12  2  0  0  0  0
  7 23  1  0  0  0  0
  8  9  2  0  0  0  0
  8 27  1  0  0  0  0
  9 28  1  0  0  0  0
 10 29  1  0  0  0  0
 11 29  2  0  0  0  0
 12 30  1  0  0  0  0
 13 14  2  0  0  0  0
 13 31  1  0  0  0  0
 14 32  1  0  0  0  0
 15 19  1  0  0  0  0
 15 28  2  0  0  0  0
 16 25  1  0  0  0  0
 16 30  2  0  0  0  0
 17 32  2  0  0  0  0
 17 33  1  0  0  0  0
 18 26  2  0  0  0  0
 18 66  1  0  0  0  0
 19 26  1  0  0  0  0
 19 27  2  0  0  0  0
 20 34  1  0  0  0  0
 21 34  1  0  0  0  0
 21 35  2  0  0  0  0
 21 36  1  0  0  0  0
 22 24  2  0  0  0  0
 22 41  1  0  0  0  0
 23 25  2  0  0  0  0
 23 42  1  0  0  0  0
 24 50  1  0  0  0  0
 25 43  1  0  0  0  0
 26 53  1  0  0  0  0
 27 66  1  0  0  0  0
 28 72  1  0  0  0  0
 29 81  1  0  0  0  0
 30 82  1  0  0  0  0
 31 33  2  0  0  0  0
 31 81  1  0  0  0  0
 32 83  1  0  0  0  0
 33 84  1  0  0  0  0
 34 65  2  0  0  0  0
 35 67  1  0  0  0  0
 35 70  1  0  0  0  0
 36 71  1  0  0  0  0
 36 76  2  0  0  0  0
 37 51  1  0  0  0  0
 37 73  1  0  0  0  0
 37 77  2  0  0  0  0
 38 62  1  0  0  0  0
 38 68  1  0  0  0  0
 38 78  2  0  0  0  0
 39 63  1  0  0  0  0
 39 74  1  0  0  0  0
 39 79  2  0  0  0  0
 40 69  1  0  0  0  0
 40 72  1  0  0  0  0
 40 80  2  0  0  0  0
 41 44  1  0  0  0  0
 42 51  1  0  0  0  0
 43 68  1  0  0  0  0
 44 46  1  0  0  0  0
 45 47  1  0  0  0  0
 45 48  1  0  0  0  0
 46 50  1  0  0  0  0
 47 52  1  0  0  0  0
 48 69  1  0  0  0  0
 49 52  1  0  0  0  0
 49 69  1  0  0  0  0
 50 73  1  0  0  0  0
 51 68  1  0  0  0  0
 52 67  1  0  0  0  0
 54 63  1  0  0  0  0
 55 64  1  0  0  0  0
 56 64  1  0  0  0  0
 57 64  1  0  0  0  0
 58 75  1  0  0  0  0
 59 60  1  0  0  0  0
 59 61  1  0  0  0  0
 60 66  1  0  0  0  0
 61 82  1  0  0  0  0
 62 64  1  0  0  0  0
 62 74  1  0  0  0  0
 63 75  1  0  0  0  0
 65 67  1  0  0  0  0
M  CHG  1  75   1
M  ISO  4  40 100  61 101  72 100  82 101
M  END
> <Batch ID>
0118

> <Smiles>
CNC(C)C(=O)NC(C(=O)N1Cc2cc([101O:1][101CH2:1]CCn3cc(C)c4cc([100NH:0][100C:0](=O)N5CCCC(n6nc(-c7ccc(Oc8ccc(F)cc8F)cc7)c(C(N)=O)c6N)C5)ccc43)ccc2CC1C(=O)NC1CCCc2ccccc21)C(C)(C)C

> <Shape>
0.255

> <Color>
0.061

> <Negative vol penalty>
0.000

$$$$

  -OEChem-04052301483D

 86 94  0     1  0  0  0  0  0999 V2000
  -22.1786  -19.5931   14.4107 C   0  0  0  0  0  0  0  0  0  0  0  0
  -23.4487  -19.0300   14.4828 C   0  0  0  0  0  0  0  0  0  0  0  0
  -25.5341  -30.1040   23.1019 C   0  0  0  0  0  0  0  0  0  0  0  0
  -26.2944  -31.6161   21.3779 C   0  0  0  0  0  0  0  0  0  0  0  0
  -30.0807  -20.9871   21.2988 C   0  0  0  0  0  0  0  0  0  0  0  0
  -21.4340  -19.7819   15.5742 C   0  0  0  0  0  0  0  0  0  0  0  0
  -23.9754  -18.6564   15.7187 C   0  0  0  0  0  0  0  0  0  0  0  0
  -28.2600  -13.7567   18.7106 C   0  0  0  0  0  0  0  0  0  0  0  0
  -30.2711  -19.8335   22.0594 C   0  0  0  0  0  0  0  0  0  0  0  0
  -25.4517  -31.1686   23.9994 C   0  0  0  0  0  0  0  0  0  0  0  0
  -26.2120  -32.6808   22.2753 C   0  0  0  0  0  0  0  0  0  0  0  0
  -29.3799  -13.6653   19.5359 C   0  0  0  0  0  0  0  0  0  0  0  0
  -23.3214  -33.7097   24.6608 C   0  0  0  0  0  0  0  0  0  0  0  0
  -22.1800  -33.7991   25.4575 C   0  0  0  0  0  0  0  0  0  0  0  0
  -27.9709  -13.9659   21.4708 C   0  0  0  0  0  0  0  0  0  0  0  0
  -29.9029  -18.4770   20.0942 C   0  0  0  0  0  0  0  0  0  0  0  0
  -23.5512  -33.6370   27.4402 C   0  0  0  0  0  0  0  0  0  0  0  0
  -25.9555  -30.3278   21.7912 C   0  0  0  0  0  0  0  0  0  0  0  0
  -29.8013  -20.8857   19.9359 C   0  0  0  0  0  0  0  0  0  0  0  0
  -25.0290  -28.7591   20.0055 C   0  0  0  0  0  0  0  0  0  0  0  0
  -21.9479  -19.4016   16.8240 C   0  0  0  0  0  0  0  0  0  0  0  0
  -26.9864  -13.9646   19.2593 C   0  0  0  0  0  0  0  0  0  0  0  0
  -23.2375  -18.8416   16.9002 C   0  0  0  0  0  0  0  0  0  0  0  0
  -26.8361  -14.0570   20.6504 C   0  0  0  0  0  0  0  0  0  0  0  0
  -29.7125  -19.6307   19.3336 C   0  0  0  0  0  0  0  0  0  0  0  0
  -30.1823  -18.5784   21.4571 C   0  0  0  0  0  0  0  0  0  0  0  0
  -25.7906  -32.4570   23.5861 C   0  0  0  0  0  0  0  0  0  0  0  0
  -29.2358  -13.7727   20.9161 C   0  0  0  0  0  0  0  0  0  0  0  0
  -24.5778  -33.5839   25.2538 C   0  0  0  0  0  0  0  0  0  0  0  0
  -22.2949  -33.7628   26.8472 C   0  0  0  0  0  0  0  0  0  0  0  0
  -24.6926  -33.5476   26.6434 C   0  0  0  0  0  0  0  0  0  0  0  0
  -26.0414  -29.2283   20.8638 C   0  0  0  0  0  0  0  0  0  0  0  0
  -25.6061  -27.7075   19.3365 C   0  0  0  0  0  0  0  0  0  0  0  0
  -31.5873  -16.9905   22.2906 C   0  0  0  0  0  0  0  0  0  0  0  0
  -29.6069  -22.1065   19.1655 C   0  0  0  0  0  0  0  0  0  0  0  0
  -23.6869  -29.2317   19.8287 C   0  0  0  0  0  0  0  0  0  0  0  0
  -31.8657  -15.7573   23.0877 C   0  0  0  0  0  0  0  0  0  0  0  0
  -28.5327  -23.0627   19.5012 C   0  0  0  0  0  0  0  0  0  0  0  0
  -24.7907  -16.2515   19.0290 C   0  0  0  0  0  0  0  0  0  0  0  0
  -23.0162  -14.1855   20.7911 C   0  0  0  0  0  0  0  0  0  0  0  0
  -22.9409  -11.5753   22.9883 C   0  0  0  0  0  0  0  0  0  0  0  0
  -21.1249  -19.6689   18.0592 C   0  0  0  0  0  0  0  0  0  0  0  0
  -25.7849  -14.0343   18.3571 C   0  0  0  0  0  0  0  0  0  0  0  0
  -25.4881  -14.2602   21.2906 C   0  0  0  0  0  0  0  0  0  0  0  0
  -21.6043  -18.9012   19.2885 C   0  0  0  0  0  0  0  0  0  0  0  0
  -30.4069  -26.1845   19.0848 C   0  0  0  0  0  0  0  0  0  0  0  0
  -23.1190  -19.0130   19.4305 C   0  0  0  0  0  0  0  0  0  0  0  0
  -29.3558  -27.2144   19.4903 C   0  0  0  0  0  0  0  0  0  0  0  0
  -30.2753  -24.8885   19.8833 C   0  0  0  0  0  0  0  0  0  0  0  0
  -27.8597  -25.3184   20.2303 C   0  0  0  0  0  0  0  0  0  0  0  0
  -23.8333  -18.4007   18.2196 C   0  0  1  0  0  0  0  0  0  0  0  0
  -24.6030  -14.7612   18.9910 C   0  0  1  0  0  0  0  0  0  0  0  0
  -27.9439  -26.6130   19.4066 C   0  0  1  0  0  0  0  0  0  0  0  0
  -30.6603  -19.1627   17.0601 C   0  0  0  0  0  0  0  0  0  0  0  0
  -21.3441  -10.1304   24.2768 C   0  0  0  0  0  0  0  0  0  0  0  0
  -22.5494  -16.4653   22.7646 C   0  0  0  0  0  0  0  0  0  0  0  0
  -21.7918  -14.7666   24.4405 C   0  0  0  0  0  0  0  0  0  0  0  0
  -20.5359  -15.0551   22.3045 C   0  0  0  0  0  0  0  0  0  0  0  0
  -23.8828   -9.1211   21.6287 C   0  0  0  0  0  0  0  0  0  0  0  0
  -29.4146  -19.4937   17.8761 C   0  0  0  0  0  0  0  0  0  0  0  0
  -32.4696  -14.6069   22.3178 C   0  0  0  0  0  0  0  0  0  0  0  0
  -31.5712  -14.1319   21.1863 C   0  0  0  0  0  0  0  0  0  1  0  0
  -22.8071  -13.9451   22.2667 C   0  0  1  0  0  0  0  0  0  0  0  0
  -22.1425  -10.2841   22.9916 C   0  0  2  0  0  0  0  0  0  0  0  0
  -21.9469  -15.0561   22.9322 C   0  0  0  0  0  0  0  0  0  0  0  0
  -27.1756  -28.5318   20.7524 N   0  0  0  0  0  0  0  0  0  0  0  0
  -30.3534  -22.4353   18.1475 N   0  0  0  0  0  0  0  0  0  0  0  0
  -30.3741  -17.4167   22.2235 N   0  0  0  0  0  0  0  0  0  0  0  0
  -26.8794  -27.6142   19.8163 N   0  0  0  0  0  0  0  0  0  0  0  0
  -28.9022  -24.3642   19.8360 N   0  0  0  0  0  0  0  0  0  0  0  0
  -24.3445  -14.3283   20.3658 N   0  0  0  0  0  0  0  0  0  0  0  0
  -25.1435  -26.8628   18.3906 N   0  0  0  0  0  0  0  0  0  0  0  0
  -23.2560  -30.3223   20.5963 N   0  0  0  0  0  0  0  0  0  0  0  0
  -23.8411  -16.9566   18.3145 N   0  0  0  0  0  0  0  0  0  0  0  0
  -22.2467  -12.6034   22.3863 N   0  0  0  0  0  0  0  0  0  0  0  0
  -23.0532   -9.1117   22.8610 N   0  3  0  0  0  0  0  0  0  0  0  0
  -22.8882  -28.6921   19.0260 O   0  0  0  0  0  0  0  0  0  0  0  0
  -31.6084  -15.7776   24.2809 O   0  0  0  0  0  0  0  0  0  0  0  0
  -27.3725  -22.6486   19.4693 O   0  0  0  0  0  0  0  0  0  0  0  0
  -25.7269  -16.7266   19.6610 O   0  0  0  0  0  0  0  0  0  0  0  0
  -22.0373  -14.2374   20.0422 O   0  0  0  0  0  0  0  0  0  0  0  0
  -24.0661  -11.6640   23.4747 O   0  0  0  0  0  0  0  0  0  0  0  0
  -25.7101  -33.4961   24.4615 O   0  0  0  0  0  0  0  0  0  0  0  0
  -30.3273  -13.6845   21.7240 O   0  0  0  0  0  0  0  0  0  1  0  0
  -21.1988  -33.8502   27.6122 F   0  0  0  0  0  0  0  0  0  0  0  0
  -25.8970  -33.4281   27.2188 F   0  0  0  0  0  0  0  0  0  0  0  0
  1  2  1  0  0  0  0
  1  6  2  0  0  0  0
  2  7  2  0  0  0  0
  3 10  2  0  0  0  0
  3 18  1  0  0  0  0
  4 11  1  0  0  0  0
  4 18  2  0  0  0  0
  5  9  2  0  0  0  0
  5 19  1  0  0  0  0
  6 21  1  0  0  0  0
  7 23  1  0  0  0  0
  8 12  2  0  0  0  0
  8 22  1  0  0  0  0
  9 26  1  0  0  0  0
 10 27  1  0  0  0  0
 11 27  2  0  0  0  0
 12 28  1  0  0  0  0
 13 14  2  0  0  0  0
 13 29  1  0  0  0  0
 14 30  1  0  0  0  0
 15 24  1  0  0  0  0
 15 28  2  0  0  0  0
 16 25  1  0  0  0  0
 16 26  2  0  0  0  0
 17 30  2  0  0  0  0
 17 31  1  0  0  0  0
 18 32  1  0  0  0  0
 19 25  2  0  0  0  0
 19 35  1  0  0  0  0
 20 32  1  0  0  0  0
 20 33  2  0  0  0  0
 20 36  1  0  0  0  0
 21 23  2  0  0  0  0
 21 42  1  0  0  0  0
 22 24  2  0  0  0  0
 22 43  1  0  0  0  0
 23 51  1  0  0  0  0
 24 44  1  0  0  0  0
 25 60  1  0  0  0  0
 26 68  1  0  0  0  0
 27 83  1  0  0  0  0
 28 84  1  0  0  0  0
 29 31  2  0  0  0  0
 29 83  1  0  0  0  0
 30 85  1  0  0  0  0
 31 86  1  0  0  0  0
 32 66  2  0  0  0  0
 33 69  1  0  0  0  0
 33 72  1  0  0  0  0
 34 37  1  0  0  0  0
 34 68  2  0  0  0  0
 35 38  1  0  0  0  0
 35 67  2  0  0  0  0
 36 73  1  0  0  0  0
 36 77  2  0  0  0  0
 37 61  1  0  0  0  0
 37 78  2  0  0  0  0
 38 70  1  0  0  0  0
 38 79  2  0  0  0  0
 39 52  1  0  0  0  0
 39 74  1  0  0  0  0
 39 80  2  0  0  0  0
 40 63  1  0  0  0  0
 40 71  1  0  0  0  0
 40 81  2  0  0  0  0
 41 64  1  0  0  0  0
 41 75  1  0  0  0  0
 41 82  2  0  0  0  0
 42 45  1  0  0  0  0
 43 52  1  0  0  0  0
 44 71  1  0  0  0  0
 45 47  1  0  0  0  0
 46 48  1  0  0  0  0
 46 49  1  0  0  0  0
 47 51  1  0  0  0  0
 48 53  1  0  0  0  0
 49 70  1  0  0  0  0
 50 53  1  0  0  0  0
 50 70  1  0  0  0  0
 51 74  1  0  0  0  0
 52 71  1  0  0  0  0
 53 69  1  0  0  0  0
 54 60  1  0  0  0  0
 55 64  1  0  0  0  0
 56 65  1  0  0  0  0
 57 65  1  0  0  0  0
 58 65  1  0  0  0  0
 59 76  1  0  0  0  0
 61 62  1  0  0  0  0
 62 84  1  0  0  0  0
 63 65  1  0  0  0  0
 63 75  1  0  0  0  0
 64 76  1  0  0  0  0
 66 69  1  0  0  0  0
M  CHG  1  76   1
M  ISO  4  35 100  38 100  62 101  84 101
M  END
> <Batch ID>
0118

> <Smiles>
C=Cc1cc(NCC(=O)C[101CH2:1][101O:1]c2ccc3c(c2)CN(C(=O)C(NC(=O)C(C)NC)C(C)(C)C)C(C(=O)NC2CCCc4ccccc42)C3)ccc1[100C:0](=N)[100C:0](=O)N1CCCC(n2nc(-c3ccc(Oc4ccc(F)cc4F)cc3)c(C(N)=O)c2N)C1

> <Shape>
0.286

> <Color>
0.048

> <Negative vol penalty>
0.000

$$$$

  -OEChem-04052301483D

 82 90  0     1  0  0  0  0  0999 V2000
  -28.1769  -36.1167   24.8493 C   0  0  0  0  0  0  0  0  0  0  0  0
  -28.3012  -34.7338   24.7615 C   0  0  0  0  0  0  0  0  0  0  0  0
  -23.5180   -9.7980   21.8581 C   0  0  0  0  0  0  0  0  0  0  0  0
  -24.3149  -11.0492   23.7650 C   0  0  0  0  0  0  0  0  0  0  0  0
  -26.9168  -36.7084   24.7726 C   0  0  0  0  0  0  0  0  0  0  0  0
  -27.1653  -33.9418   24.5979 C   0  0  0  0  0  0  0  0  0  0  0  0
  -27.7918  -30.3484   21.0851 C   0  0  0  0  0  0  0  0  0  0  0  0
  -22.9474   -8.8563   22.7144 C   0  0  0  0  0  0  0  0  0  0  0  0
  -23.7443  -10.1076   24.6213 C   0  0  0  0  0  0  0  0  0  0  0  0
  -28.5185  -29.2172   21.4539 C   0  0  0  0  0  0  0  0  0  0  0  0
  -20.1686   -8.5847   24.6216 C   0  0  0  0  0  0  0  0  0  0  0  0
  -18.8716   -8.1552   24.3409 C   0  0  0  0  0  0  0  0  0  0  0  0
  -26.4573  -28.0100   21.7901 C   0  0  0  0  0  0  0  0  0  0  0  0
  -29.2799  -18.6713   20.2316 C   0  0  0  0  0  0  0  0  0  0  0  0
  -19.6705   -5.8856   24.1219 C   0  0  0  0  0  0  0  0  0  0  0  0
  -31.5129  -17.8986   19.9610 C   0  0  0  0  0  0  0  0  0  0  0  0
  -31.1594  -20.1030   20.5031 C   0  0  0  0  0  0  0  0  0  0  0  0
  -24.2018  -10.8945   22.3834 C   0  0  0  0  0  0  0  0  0  0  0  0
  -24.1855  -13.0309   20.9894 C   0  0  0  0  0  0  0  0  0  0  0  0
  -25.7658  -35.9239   24.5983 C   0  0  0  0  0  0  0  0  0  0  0  0
  -26.3897  -30.3221   21.0765 C   0  0  0  0  0  0  0  0  0  0  0  0
  -25.8885  -34.5235   24.5201 C   0  0  0  0  0  0  0  0  0  0  0  0
  -25.7151  -29.1414   21.4183 C   0  0  0  0  0  0  0  0  0  0  0  0
  -30.1540  -17.6279   19.9481 C   0  0  0  0  0  0  0  0  0  0  0  0
  -23.0606   -9.0111   24.0960 C   0  0  0  0  0  0  0  0  0  0  0  0
  -27.8513  -28.0487   21.8093 C   0  0  0  0  0  0  0  0  0  0  0  0
  -21.2167   -7.6647   24.6524 C   0  0  0  0  0  0  0  0  0  0  0  0
  -29.7840  -19.9357   20.5154 C   0  0  0  0  0  0  0  0  0  0  0  0
  -18.6225   -6.8057   24.0911 C   0  0  0  0  0  0  0  0  0  0  0  0
  -20.9676   -6.3152   24.4026 C   0  0  0  0  0  0  0  0  0  0  0  0
  -24.7919  -11.8672   21.4993 C   0  0  0  0  0  0  0  0  0  0  0  0
  -25.1550  -13.6084   20.2064 C   0  0  0  0  0  0  0  0  0  0  0  0
  -22.8641  -13.5439   21.2045 C   0  0  0  0  0  0  0  0  0  0  0  0
  -24.1072  -31.8908   22.6363 C   0  0  0  0  0  0  0  0  0  0  0  0
  -22.1545  -30.2792   20.6084 C   0  0  0  0  0  0  0  0  0  0  0  0
  -21.6764  -27.5727   18.5853 C   0  0  0  0  0  0  0  0  0  0  0  0
  -30.4242  -15.1943   19.3559 C   0  0  0  0  0  0  0  0  0  0  0  0
  -24.4206  -36.6053   24.5683 C   0  0  0  0  0  0  0  0  0  0  0  0
  -25.6209  -31.5426   20.6504 C   0  0  0  0  0  0  0  0  0  0  0  0
  -24.2115  -29.0551   21.4058 C   0  0  0  0  0  0  0  0  0  0  0  0
  -23.3029  -35.7227   24.0187 C   0  0  0  0  0  0  0  0  0  0  0  0
  -29.6106  -11.8077   18.6169 C   0  0  0  0  0  0  0  0  0  0  0  0
  -23.3599  -34.3348   24.6489 C   0  0  0  0  0  0  0  0  0  0  0  0
  -28.2345  -11.6170   19.2590 C   0  0  0  0  0  0  0  0  0  0  0  0
  -30.5085  -12.7129   19.4584 C   0  0  0  0  0  0  0  0  0  0  0  0
  -28.5470  -13.8215   20.4546 C   0  0  0  0  0  0  0  0  0  0  0  0
  -24.6822  -33.6324   24.3177 C   0  0  1  0  0  0  0  0  0  0  0  0
  -24.1877  -31.5586   21.1731 C   0  0  1  0  0  0  0  0  0  0  0  0
  -27.5846  -12.9695   19.6110 C   0  0  2  0  0  0  0  0  0  0  0  0
  -19.9650  -26.5093   17.0894 C   0  0  0  0  0  0  0  0  0  0  0  0
  -20.6234  -29.3010   23.0596 C   0  0  0  0  0  0  0  0  0  0  0  0
  -19.5729  -27.5454   21.6164 C   0  0  0  0  0  0  0  0  0  0  0  0
  -19.1830  -29.9596   21.1242 C   0  0  0  0  0  0  0  0  0  0  0  0
  -23.4386  -27.7942   16.2179 C   0  0  0  0  0  0  0  0  0  0  0  0
  -29.0564  -24.6351   21.6660 C   0  0  0  0  0  0  0  0  0  0  0  0
  -28.4687  -23.2653   21.3450 C   0  0  0  0  0  0  0  0  0  0  0  0
  -27.9668  -25.6747   21.8925 C   0  0  0  0  0  0  0  0  0  1  0  0
  -29.5570  -22.2356   21.0764 C   0  0  0  0  0  0  0  0  0  0  0  0
  -21.4476  -28.9457   20.6388 C   0  0  1  0  0  0  0  0  0  0  0  0
  -21.1523  -27.4566   17.1653 C   0  0  2  0  0  0  0  0  0  0  0  0
  -20.2350  -28.9398   21.6120 C   0  0  0  0  0  0  0  0  0  0  0  0
  -32.0400  -19.1136   20.2322 N   0  0  0  0  0  0  0  0  0  0  0  0
  -26.0492  -11.7130   21.0757 N   0  0  0  0  0  0  0  0  0  0  0  0
  -26.2407  -12.7873   20.2913 N   0  0  0  0  0  0  0  0  0  0  0  0
  -23.5042  -30.2769   20.9880 N   0  0  0  0  0  0  0  0  0  0  0  0
  -29.8288  -13.9771   19.7491 N   0  0  0  0  0  0  0  0  0  0  0  0
  -25.1760  -14.7333   19.4604 N   0  0  0  0  0  0  0  0  0  0  0  0
  -21.9958  -12.8256   22.0378 N   0  0  0  0  0  0  0  0  0  0  0  0
  -29.6705  -16.3284   19.6564 N   0  0  0  0  0  0  0  0  0  0  0  0
  -24.6553  -33.1157   22.9661 N   0  0  0  0  0  0  0  0  0  0  0  0
  -21.1050  -28.6337   19.2554 N   0  0  0  0  0  0  0  0  0  0  0  0
  -22.2197  -26.9459   16.2593 N   0  3  0  0  0  0  0  0  0  0  0  0
  -22.4596  -14.5993   20.6603 O   0  0  0  0  0  0  0  0  0  0  0  0
  -23.5851  -31.0954   23.4086 O   0  0  0  0  0  0  0  0  0  0  0  0
  -21.5341  -31.2847   20.2538 O   0  0  0  0  0  0  0  0  0  0  0  0
  -22.5067  -26.7974   19.0543 O   0  0  0  0  0  0  0  0  0  0  0  0
  -31.5091  -15.2263   18.7695 O   0  0  0  0  0  0  0  0  0  0  0  0
  -22.5037   -8.0926   24.9319 O   0  0  0  0  0  0  0  0  0  0  0  0
  -28.5582  -26.9433   22.1703 O   0  0  0  0  0  0  0  0  0  1  0  0
  -28.9463  -20.9828   20.7995 O   0  0  0  0  0  0  0  0  0  0  0  0
  -17.3767   -6.3931   23.8231 F   0  0  0  0  0  0  0  0  0  0  0  0
  -21.9702   -5.4265   24.4319 F   0  0  0  0  0  0  0  0  0  0  0  0
  1  2  1  0  0  0  0
  1  5  2  0  0  0  0
  2  6  2  0  0  0  0
  3  8  2  0  0  0  0
  3 18  1  0  0  0  0
  4  9  1  0  0  0  0
  4 18  2  0  0  0  0
  5 20  1  0  0  0  0
  6 22  1  0  0  0  0
  7 10  2  0  0  0  0
  7 21  1  0  0  0  0
  8 25  1  0  0  0  0
  9 25  2  0  0  0  0
 10 26  1  0  0  0  0
 11 12  2  0  0  0  0
 11 27  1  0  0  0  0
 12 29  1  0  0  0  0
 13 23  1  0  0  0  0
 13 26  2  0  0  0  0
 14 24  1  0  0  0  0
 14 28  2  0  0  0  0
 15 29  2  0  0  0  0
 15 30  1  0  0  0  0
 16 24  2  0  0  0  0
 16 62  1  0  0  0  0
 17 28  1  0  0  0  0
 17 62  2  0  0  0  0
 18 31  1  0  0  0  0
 19 31  1  0  0  0  0
 19 32  2  0  0  0  0
 19 33  1  0  0  0  0
 20 22  2  0  0  0  0
 20 38  1  0  0  0  0
 21 23  2  0  0  0  0
 21 39  1  0  0  0  0
 22 47  1  0  0  0  0
 23 40  1  0  0  0  0
 24 69  1  0  0  0  0
 25 78  1  0  0  0  0
 26 79  1  0  0  0  0
 27 30  2  0  0  0  0
 27 78  1  0  0  0  0
 28 80  1  0  0  0  0
 29 81  1  0  0  0  0
 30 82  1  0  0  0  0
 31 63  2  0  0  0  0
 32 64  1  0  0  0  0
 32 67  1  0  0  0  0
 33 68  1  0  0  0  0
 33 73  2  0  0  0  0
 34 48  1  0  0  0  0
 34 70  1  0  0  0  0
 34 74  2  0  0  0  0
 35 59  1  0  0  0  0
 35 65  1  0  0  0  0
 35 75  2  0  0  0  0
 36 60  1  0  0  0  0
 36 71  1  0  0  0  0
 36 76  2  0  0  0  0
 37 66  1  0  0  0  0
 37 69  1  0  0  0  0
 37 77  2  0  0  0  0
 38 41  1  0  0  0  0
 39 48  1  0  0  0  0
 40 65  1  0  0  0  0
 41 43  1  0  0  0  0
 42 44  1  0  0  0  0
 42 45  1  0  0  0  0
 43 47  1  0  0  0  0
 44 49  1  0  0  0  0
 45 66  1  0  0  0  0
 46 49  1  0  0  0  0
 46 66  1  0  0  0  0
 47 70  1  0  0  0  0
 48 65  1  0  0  0  0
 49 64  1  0  0  0  0
 50 60  1  0  0  0  0
 51 61  1  0  0  0  0
 52 61  1  0  0  0  0
 53 61  1  0  0  0  0
 54 72  1  0  0  0  0
 55 56  1  0  0  0  0
 55 57  1  0  0  0  0
 56 58  1  0  0  0  0
 57 79  1  0  0  0  0
 58 80  1  0  0  0  0
 59 61  1  0  0  0  0
 59 71  1  0  0  0  0
 60 72  1  0  0  0  0
 63 64  1  0  0  0  0
M  CHG  1  72   1
M  ISO  4  37 100  57 101  69 100  79 101
M  END
> <Batch ID>
0118

> <Smiles>
CNC(C)C(=O)NC(C(=O)N1Cc2cc([101O:1][101CH2:1]CCCOc3cncc([100NH:0][100C:0](=O)N4CCCC(n5nc(-c6ccc(Oc7ccc(F)cc7F)cc6)c(C(N)=O)c5N)C4)c3)ccc2CC1C(=O)NC1CCCc2ccccc21)C(C)(C)C

> <Shape>
0.323

> <Color>
0.145

> <Negative vol penalty>
0.000

$$$$

  -OEChem-04052301483D

 81 89  0     1  0  0  0  0  0999 V2000
  -24.7212   -8.7832   21.4930 C   0  0  0  0  0  0  0  0  0  0  0  0
  -25.8566   -9.5720   21.3379 C   0  0  0  0  0  0  0  0  0  0  0  0
  -21.0797  -28.1465   22.7787 C   0  0  0  0  0  0  0  0  0  0  0  0
  -20.3762  -26.0287   21.8530 C   0  0  0  0  0  0  0  0  0  0  0  0
  -23.4575   -9.3330   21.2815 C   0  0  0  0  0  0  0  0  0  0  0  0
  -25.7290  -10.9109   20.9701 C   0  0  0  0  0  0  0  0  0  0  0  0
  -28.8437  -17.2884   21.9410 C   0  0  0  0  0  0  0  0  0  0  0  0
  -19.7582  -28.5925   22.7626 C   0  0  0  0  0  0  0  0  0  0  0  0
  -19.0547  -26.4746   21.8370 C   0  0  0  0  0  0  0  0  0  0  0  0
  -29.3475  -18.3635   21.2101 C   0  0  0  0  0  0  0  0  0  0  0  0
  -16.9704  -28.1897   24.6332 C   0  0  0  0  0  0  0  0  0  0  0  0
  -16.4941  -28.8466   25.7678 C   0  0  0  0  0  0  0  0  0  0  0  0
  -27.1100  -19.2262   20.9485 C   0  0  0  0  0  0  0  0  0  0  0  0
  -32.2844  -24.8779   18.0580 C   0  0  0  0  0  0  0  0  0  0  0  0
  -16.0438  -30.8140   24.4398 C   0  0  0  0  0  0  0  0  0  0  0  0
  -21.3887  -26.8646   22.3238 C   0  0  0  0  0  0  0  0  0  0  0  0
  -23.4108  -25.7280   23.3854 C   0  0  0  0  0  0  0  0  0  0  0  0
  -23.3139  -10.6819   20.9203 C   0  0  0  0  0  0  0  0  0  0  0  0
  -27.4659  -17.1682   22.1722 C   0  0  0  0  0  0  0  0  0  0  0  0
  -24.4623  -11.4790   20.7522 C   0  0  0  0  0  0  0  0  0  0  0  0
  -26.5915  -18.1501   21.6848 C   0  0  0  0  0  0  0  0  0  0  0  0
  -32.0212  -26.2667   18.1299 C   0  0  0  0  0  0  0  0  0  0  0  0
  -18.7456  -27.7566   22.2918 C   0  0  0  0  0  0  0  0  0  0  0  0
  -28.4803  -19.3311   20.7112 C   0  0  0  0  0  0  0  0  0  0  0  0
  -16.9835  -28.8451   23.4019 C   0  0  0  0  0  0  0  0  0  0  0  0
  -16.0308  -30.1587   25.6711 C   0  0  0  0  0  0  0  0  0  0  0  0
  -16.5202  -30.1572   23.3052 C   0  0  0  0  0  0  0  0  0  0  0  0
  -22.7538  -26.4036   22.3396 C   0  0  0  0  0  0  0  0  0  0  0  0
  -31.3888  -24.2748   18.9100 C   0  0  0  0  0  0  0  0  0  0  0  0
  -30.9833  -26.4132   19.0206 C   0  0  0  0  0  0  0  0  0  0  0  0
  -24.6814  -25.5127   22.9102 C   0  0  0  0  0  0  0  0  0  0  0  0
  -31.2550  -22.8357   19.1916 C   0  0  0  0  0  0  0  0  0  0  0  0
  -30.3776  -22.2932   20.0503 C   0  0  0  0  0  0  0  0  0  0  0  0
  -22.9168  -25.3305   24.6713 C   0  0  0  0  0  0  0  0  0  0  0  0
  -30.2937  -27.5666   19.4911 C   0  0  0  0  0  0  0  0  0  0  0  0
  -29.1885  -27.4833   20.4670 C   0  0  0  0  0  0  0  0  0  0  0  0
  -25.2408  -15.0314   21.4061 C   0  0  0  0  0  0  0  0  0  0  0  0
  -23.3678  -16.8790   23.3035 C   0  0  0  0  0  0  0  0  0  0  0  0
  -22.7856  -19.9355   24.7056 C   0  0  0  0  0  0  0  0  0  0  0  0
  -21.9297  -11.2194   20.6563 C   0  0  0  0  0  0  0  0  0  0  0  0
  -26.9411  -16.0168   22.9854 C   0  0  0  0  0  0  0  0  0  0  0  0
  -25.1061  -18.0779   21.9228 C   0  0  0  0  0  0  0  0  0  0  0  0
  -21.8623  -12.7442   20.6340 C   0  0  0  0  0  0  0  0  0  0  0  0
  -26.6163  -26.0508   18.2846 C   0  0  0  0  0  0  0  0  0  0  0  0
  -22.9975  -13.3165   19.7910 C   0  0  0  0  0  0  0  0  0  0  0  0
  -25.4194  -26.0069   19.2308 C   0  0  0  0  0  0  0  0  0  0  0  0
  -27.5139  -27.2576   18.5537 C   0  0  0  0  0  0  0  0  0  0  0  0
  -26.7716  -27.3139   20.9172 C   0  0  0  0  0  0  0  0  0  0  0  0
  -24.3637  -12.9421   20.3783 C   0  0  1  0  0  0  0  0  0  0  0  0
  -25.4679  -15.7213   22.7214 C   0  0  1  0  0  0  0  0  0  0  0  0
  -25.8803  -26.0820   20.6951 C   0  0  1  0  0  0  0  0  0  0  0  0
  -32.7232  -27.3346   17.3940 C   0  0  0  0  0  0  0  0  0  0  0  0
  -21.1559  -21.1491   26.1782 C   0  0  0  0  0  0  0  0  0  0  0  0
  -21.4007  -17.0546   20.9776 C   0  0  0  0  0  0  0  0  0  0  0  0
  -20.3143  -18.9915   22.1337 C   0  0  0  0  0  0  0  0  0  0  0  0
  -20.3389  -16.7464   23.2209 C   0  0  0  0  0  0  0  0  0  0  0  0
  -24.8611  -20.4925   26.7406 C   0  0  0  0  0  0  0  0  0  0  0  0
  -30.2882  -20.8241   20.3138 C   0  0  0  0  0  0  0  0  0  1  0  0
  -22.4816  -18.0816   23.0854 C   0  0  1  0  0  0  0  0  0  0  0  0
  -22.4444  -20.3429   26.1276 C   0  0  2  0  0  0  0  0  0  0  0  0
  -21.1616  -17.7191   22.3481 C   0  0  0  0  0  0  0  0  0  0  0  0
  -23.5418  -26.6044   21.2800 N   0  0  0  0  0  0  0  0  0  0  0  0
  -30.5652  -28.8050   19.1142 N   0  0  0  0  0  0  0  0  0  0  0  0
  -24.7072  -26.0517   21.6576 N   0  0  0  0  0  0  0  0  0  0  0  0
  -27.8935  -27.3405   19.9721 N   0  0  0  0  0  0  0  0  0  0  0  0
  -24.6408  -16.9297   22.7181 N   0  0  0  0  0  0  0  0  0  0  0  0
  -25.7679  -24.9169   23.4459 N   0  0  0  0  0  0  0  0  0  0  0  0
  -21.5872  -25.6302   24.9981 N   0  0  0  0  0  0  0  0  0  0  0  0
  -24.6696  -13.7783   21.5192 N   0  0  0  0  0  0  0  0  0  0  0  0
  -22.2859  -18.6878   24.3979 N   0  0  0  0  0  0  0  0  0  0  0  0
  -23.5400  -21.1710   26.7063 N   0  3  0  0  0  0  0  0  0  0  0  0
  -23.6380  -24.7420   25.5122 O   0  0  0  0  0  0  0  0  0  0  0  0
  -29.4795  -27.5503   21.6627 O   0  0  0  0  0  0  0  0  0  0  0  0
  -25.5590  -15.5949   20.3654 O   0  0  0  0  0  0  0  0  0  0  0  0
  -22.9486  -15.9327   23.9747 O   0  0  0  0  0  0  0  0  0  0  0  0
  -23.4279  -20.6539   23.9428 O   0  0  0  0  0  0  0  0  0  0  0  0
  -30.5920  -25.2037   19.5006 O   0  0  0  0  0  0  0  0  0  0  0  0
  -17.4559  -28.1913   22.2763 O   0  0  0  0  0  0  0  0  0  0  0  0
  -28.9693  -20.3811   19.9969 O   0  0  0  0  0  0  0  0  0  1  0  0
  -15.5719  -30.7887   26.7604 F   0  0  0  0  0  0  0  0  0  0  0  0
  -16.5292  -30.7915   22.1248 F   0  0  0  0  0  0  0  0  0  0  0  0
  1  2  1  0  0  0  0
  1  5  2  0  0  0  0
  2  6  2  0  0  0  0
  3  8  2  0  0  0  0
  3 16  1  0  0  0  0
  4  9  1  0  0  0  0
  4 16  2  0  0  0  0
  5 18  1  0  0  0  0
  6 20  1  0  0  0  0
  7 10  2  0  0  0  0
  7 19  1  0  0  0  0
  8 23  1  0  0  0  0
  9 23  2  0  0  0  0
 10 24  1  0  0  0  0
 11 12  2  0  0  0  0
 11 25  1  0  0  0  0
 12 26  1  0  0  0  0
 13 21  1  0  0  0  0
 13 24  2  0  0  0  0
 14 22  1  0  0  0  0
 14 29  2  0  0  0  0
 15 26  2  0  0  0  0
 15 27  1  0  0  0  0
 16 28  1  0  0  0  0
 17 28  1  0  0  0  0
 17 31  2  0  0  0  0
 17 34  1  0  0  0  0
 18 20  2  0  0  0  0
 18 40  1  0  0  0  0
 19 21  2  0  0  0  0
 19 41  1  0  0  0  0
 20 49  1  0  0  0  0
 21 42  1  0  0  0  0
 22 30  2  0  0  0  0
 22 52  1  0  0  0  0
 23 78  1  0  0  0  0
 24 79  1  0  0  0  0
 25 27  2  0  0  0  0
 25 78  1  0  0  0  0
 26 80  1  0  0  0  0
 27 81  1  0  0  0  0
 28 62  2  0  0  0  0
 29 32  1  0  0  0  0
 29 77  1  0  0  0  0
 30 35  1  0  0  0  0
 30 77  1  0  0  0  0
 31 64  1  0  0  0  0
 31 67  1  0  0  0  0
 32 33  2  0  0  0  0
 33 58  1  0  0  0  0
 34 68  1  0  0  0  0
 34 72  2  0  0  0  0
 35 36  1  0  0  0  0
 35 63  2  0  0  0  0
 36 65  1  0  0  0  0
 36 73  2  0  0  0  0
 37 50  1  0  0  0  0
 37 69  1  0  0  0  0
 37 74  2  0  0  0  0
 38 59  1  0  0  0  0
 38 66  1  0  0  0  0
 38 75  2  0  0  0  0
 39 60  1  0  0  0  0
 39 70  1  0  0  0  0
 39 76  2  0  0  0  0
 40 43  1  0  0  0  0
 41 50  1  0  0  0  0
 42 66  1  0  0  0  0
 43 45  1  0  0  0  0
 44 46  1  0  0  0  0
 44 47  1  0  0  0  0
 45 49  1  0  0  0  0
 46 51  1  0  0  0  0
 47 65  1  0  0  0  0
 48 51  1  0  0  0  0
 48 65  1  0  0  0  0
 49 69  1  0  0  0  0
 50 66  1  0  0  0  0
 51 64  1  0  0  0  0
 53 60  1  0  0  0  0
 54 61  1  0  0  0  0
 55 61  1  0  0  0  0
 56 61  1  0  0  0  0
 57 71  1  0  0  0  0
 58 79  1  0  0  0  0
 59 61  1  0  0  0  0
 59 70  1  0  0  0  0
 60 71  1  0  0  0  0
 62 64  1  0  0  0  0
M  CHG  1  71   1
M  ISO  4  35 100  36 100  58 101  79 101
M  END
> <Batch ID>
0118

> <Smiles>
CNC(C)C(=O)NC(C(=O)N1Cc2cc([101O:1][101CH2:1]C=Cc3cc(C)c([100C:0](=N)[100C:0](=O)N4CCCC(n5nc(-c6ccc(Oc7ccc(F)cc7F)cc6)c(C(N)=O)c5N)C4)o3)ccc2CC1C(=O)NC1CCCc2ccccc21)C(C)(C)C

> <Shape>
0.223

> <Color>
0.063

> <Negative vol penalty>
0.000

$$$$

  -OEChem-04052301483D

 83 91  0     1  0  0  0  0  0999 V2000
  -22.8670  -20.2451   25.1053 C   0  0  0  0  0  0  0  0  0  0  0  0
  -23.9673  -20.7342   24.4084 C   0  0  0  0  0  0  0  0  0  0  0  0
  -25.8735  -13.1702   21.6971 C   0  0  0  0  0  0  0  0  0  0  0  0
  -25.3233  -14.0277   19.5064 C   0  0  0  0  0  0  0  0  0  0  0  0
  -21.6364  -20.8928   25.0063 C   0  0  0  0  0  0  0  0  0  0  0  0
  -23.8371  -21.8707   23.6111 C   0  0  0  0  0  0  0  0  0  0  0  0
  -28.0547  -26.2103   22.6702 C   0  0  0  0  0  0  0  0  0  0  0  0
  -24.7874  -12.2976   21.6283 C   0  0  0  0  0  0  0  0  0  0  0  0
  -24.2372  -13.1551   19.4376 C   0  0  0  0  0  0  0  0  0  0  0  0
  -28.9602  -26.4292   21.6328 C   0  0  0  0  0  0  0  0  0  0  0  0
  -22.3732   -9.5912   21.8770 C   0  0  0  0  0  0  0  0  0  0  0  0
  -22.5773   -8.2693   22.2725 C   0  0  0  0  0  0  0  0  0  0  0  0
  -30.8542  -23.0513   18.4438 C   0  0  0  0  0  0  0  0  0  0  0  0
  -27.4099  -27.9704   20.6128 C   0  0  0  0  0  0  0  0  0  0  0  0
  -31.8096  -21.0213   17.5476 C   0  0  0  0  0  0  0  0  0  0  0  0
  -24.2610   -8.0164   20.5584 C   0  0  0  0  0  0  0  0  0  0  0  0
  -26.1414  -14.0353   20.6362 C   0  0  0  0  0  0  0  0  0  0  0  0
  -31.4602  -23.7863   17.4249 C   0  0  0  0  0  0  0  0  0  0  0  0
  -28.5809  -14.6901   20.2788 C   0  0  0  0  0  0  0  0  0  0  0  0
  -21.4934  -22.0435   24.2150 C   0  0  0  0  0  0  0  0  0  0  0  0
  -26.8135  -26.8627   22.6810 C   0  0  0  0  0  0  0  0  0  0  0  0
  -22.6030  -22.5337   23.5003 C   0  0  0  0  0  0  0  0  0  0  0  0
  -26.4915  -27.7601   21.6528 C   0  0  0  0  0  0  0  0  0  0  0  0
  -32.4156  -21.7563   16.5287 C   0  0  0  0  0  0  0  0  0  0  0  0
  -32.2409  -23.1389   16.4674 C   0  0  0  0  0  0  0  0  0  0  0  0
  -31.0289  -21.6688   18.5051 C   0  0  0  0  0  0  0  0  0  0  0  0
  -23.9693  -12.2900   20.4986 C   0  0  0  0  0  0  0  0  0  0  0  0
  -28.6366  -27.3071   20.6024 C   0  0  0  0  0  0  0  0  0  0  0  0
  -23.1129  -10.1257   20.8220 C   0  0  0  0  0  0  0  0  0  0  0  0
  -23.5213   -7.4819   21.6132 C   0  0  0  0  0  0  0  0  0  0  0  0
  -24.0569   -9.3383   20.1628 C   0  0  0  0  0  0  0  0  0  0  0  0
  -27.2627  -14.9373   20.7068 C   0  0  0  0  0  0  0  0  0  0  0  0
  -29.2574  -15.8512   20.5625 C   0  0  0  0  0  0  0  0  0  0  0  0
  -31.2557  -25.2440   17.3903 C   0  0  0  0  0  0  0  0  0  0  0  0
  -30.0681  -25.8550   17.2565 C   0  0  0  0  0  0  0  0  0  0  0  0
  -29.1434  -13.5159   19.6784 C   0  0  0  0  0  0  0  0  0  0  0  0
  -23.7807  -25.9154   22.5892 C   0  0  0  0  0  0  0  0  0  0  0  0
  -23.1882  -29.0683   23.0688 C   0  0  0  0  0  0  0  0  0  0  0  0
  -24.2696  -32.2937   22.7960 C   0  0  0  0  0  0  0  0  0  0  0  0
  -29.6063  -21.4083   20.5678 C   0  0  0  0  0  0  0  0  0  0  0  0
  -20.1317  -22.6819   24.1016 C   0  0  0  0  0  0  0  0  0  0  0  0
  -25.8588  -26.6362   23.8211 C   0  0  0  0  0  0  0  0  0  0  0  0
  -25.1803  -28.5008   21.6284 C   0  0  0  0  0  0  0  0  0  0  0  0
  -20.1683  -24.0977   23.5318 C   0  0  0  0  0  0  0  0  0  0  0  0
  -27.8733  -19.8897   23.2821 C   0  0  0  0  0  0  0  0  0  0  0  0
  -21.0620  -24.1532   22.2969 C   0  0  0  0  0  0  0  0  0  0  0  0
  -27.6684  -18.4455   22.8189 C   0  0  0  0  0  0  0  0  0  0  0  0
  -27.7441  -20.8799   22.1260 C   0  0  0  0  0  0  0  0  0  0  0  0
  -28.3861  -19.1451   20.4989 C   0  0  0  0  0  0  0  0  0  0  0  0
  -22.5077  -23.7783   22.6447 C   0  0  1  0  0  0  0  0  0  0  0  0
  -24.4122  -26.9621   23.4628 C   0  0  1  0  0  0  0  0  0  0  0  0
  -28.5711  -18.1059   21.6167 C   0  0  2  0  0  0  0  0  0  0  0  0
  -33.2463  -21.0377   15.5161 C   0  0  0  0  0  0  0  0  0  0  0  0
  -32.8965  -23.9172   15.3688 C   0  0  0  0  0  0  0  0  0  0  0  0
  -23.5495  -34.6568   23.2373 C   0  0  0  0  0  0  0  0  0  0  0  0
  -21.3846  -28.9753   20.6095 C   0  0  0  0  0  0  0  0  0  0  0  0
  -21.4650  -31.4768   20.5420 C   0  0  0  0  0  0  0  0  0  0  0  0
  -20.4791  -30.3151   22.5172 C   0  0  0  0  0  0  0  0  0  0  0  0
  -26.5011  -32.7434   24.6873 C   0  0  0  0  0  0  0  0  0  0  0  0
  -29.9056  -27.3498   17.2132 C   0  0  0  0  0  0  0  0  0  0  0  0
  -28.9721  -27.8467   18.3107 C   0  0  0  0  0  0  0  0  0  1  0  0
  -22.9833  -30.2660   22.1729 C   0  0  1  0  0  0  0  0  0  0  0  0
  -24.2770  -33.4411   23.7900 C   0  0  2  0  0  0  0  0  0  0  0  0
  -21.6020  -30.2430   21.4596 C   0  0  0  0  0  0  0  0  0  0  0  0
  -27.1090  -16.1594   21.2233 N   0  0  0  0  0  0  0  0  0  0  0  0
  -28.3393  -16.6905   21.1217 N   0  0  0  0  0  0  0  0  0  0  0  0
  -24.2777  -28.2409   22.7621 N   0  0  0  0  0  0  0  0  0  0  0  0
  -28.6312  -20.4970   21.0254 N   0  0  0  0  0  0  0  0  0  0  0  0
  -30.5423  -16.2259   20.3856 N   0  0  0  0  0  0  0  0  0  0  0  0
  -28.3076  -12.4127   19.4573 N   0  0  0  0  0  0  0  0  0  0  0  0
  -30.4128  -20.9217   19.5396 N   0  0  0  0  0  0  0  0  0  0  0  0
  -23.1766  -24.8883   23.2889 N   0  0  0  0  0  0  0  0  0  0  0  0
  -23.2057  -31.4423   23.0068 N   0  0  0  0  0  0  0  0  0  0  0  0
  -25.6768  -33.8377   24.1129 N   0  3  0  0  0  0  0  0  0  0  0  0
  -30.3551  -13.4411   19.3628 O   0  0  0  0  0  0  0  0  0  0  0  0
  -23.8360  -26.0318   21.3705 O   0  0  0  0  0  0  0  0  0  0  0  0
  -22.4145  -28.8781   24.0105 O   0  0  0  0  0  0  0  0  0  0  0  0
  -25.1203  -32.1676   21.9180 O   0  0  0  0  0  0  0  0  0  0  0  0
  -29.7354  -22.5274   21.0707 O   0  0  0  0  0  0  0  0  0  0  0  0
  -22.9096  -11.4385   20.4310 O   0  0  0  0  0  0  0  0  0  0  0  0
  -29.5183  -27.5220   19.5884 O   0  0  0  0  0  0  0  0  0  1  0  0
  -23.7183   -6.2129   21.9942 F   0  0  0  0  0  0  0  0  0  0  0  0
  -24.7714   -9.8466   19.1494 F   0  0  0  0  0  0  0  0  0  0  0  0
  1  2  1  0  0  0  0
  1  5  2  0  0  0  0
  2  6  2  0  0  0  0
  3  8  2  0  0  0  0
  3 17  1  0  0  0  0
  4  9  1  0  0  0  0
  4 17  2  0  0  0  0
  5 20  1  0  0  0  0
  6 22  1  0  0  0  0
  7 10  2  0  0  0  0
  7 21  1  0  0  0  0
  8 27  1  0  0  0  0
  9 27  2  0  0  0  0
 10 28  1  0  0  0  0
 11 12  2  0  0  0  0
 11 29  1  0  0  0  0
 12 30  1  0  0  0  0
 13 18  1  0  0  0  0
 13 26  2  0  0  0  0
 14 23  1  0  0  0  0
 14 28  2  0  0  0  0
 15 24  2  0  0  0  0
 15 26  1  0  0  0  0
 16 30  2  0  0  0  0
 16 31  1  0  0  0  0
 17 32  1  0  0  0  0
 18 25  2  0  0  0  0
 18 34  1  0  0  0  0
 19 32  1  0  0  0  0
 19 33  2  0  0  0  0
 19 36  1  0  0  0  0
 20 22  2  0  0  0  0
 20 41  1  0  0  0  0
 21 23  2  0  0  0  0
 21 42  1  0  0  0  0
 22 50  1  0  0  0  0
 23 43  1  0  0  0  0
 24 25  1  0  0  0  0
 24 53  1  0  0  0  0
 25 54  1  0  0  0  0
 26 71  1  0  0  0  0
 27 80  1  0  0  0  0
 28 81  1  0  0  0  0
 29 31  2  0  0  0  0
 29 80  1  0  0  0  0
 30 82  1  0  0  0  0
 31 83  1  0  0  0  0
 32 65  2  0  0  0  0
 33 66  1  0  0  0  0
 33 69  1  0  0  0  0
 34 35  2  0  0  0  0
 35 60  1  0  0  0  0
 36 70  1  0  0  0  0
 36 75  2  0  0  0  0
 37 51  1  0  0  0  0
 37 72  1  0  0  0  0
 37 76  2  0  0  0  0
 38 62  1  0  0  0  0
 38 67  1  0  0  0  0
 38 77  2  0  0  0  0
 39 63  1  0  0  0  0
 39 73  1  0  0  0  0
 39 78  2  0  0  0  0
 40 68  1  0  0  0  0
 40 71  1  0  0  0  0
 40 79  2  0  0  0  0
 41 44  1  0  0  0  0
 42 51  1  0  0  0  0
 43 67  1  0  0  0  0
 44 46  1  0  0  0  0
 45 47  1  0  0  0  0
 45 48  1  0  0  0  0
 46 50  1  0  0  0  0
 47 52  1  0  0  0  0
 48 68  1  0  0  0  0
 49 52  1  0  0  0  0
 49 68  1  0  0  0  0
 50 72  1  0  0  0  0
 51 67  1  0  0  0  0
 52 66  1  0  0  0  0
 55 63  1  0  0  0  0
 56 64  1  0  0  0  0
 57 64  1  0  0  0  0
 58 64  1  0  0  0  0
 59 74  1  0  0  0  0
 60 61  1  0  0  0  0
 61 81  1  0  0  0  0
 62 64  1  0  0  0  0
 62 73  1  0  0  0  0
 63 74  1  0  0  0  0
 65 66  1  0  0  0  0
M  CHG  1  74   1
M  ISO  4  40 100  61 101  71 100  81 101
M  END
> <Batch ID>
0118

> <Smiles>
CNC(C)C(=O)NC(C(=O)N1Cc2cc([101O:1][101CH2:1]CC=Cc3cc([100NH:0][100C:0](=O)N4CCCC(n5nc(-c6ccc(Oc7ccc(F)cc7F)cc6)c(C(N)=O)c5N)C4)cc(C)c3C)ccc2CC1C(=O)NC1CCCc2ccccc21)C(C)(C)C

> <Shape>
0.253

> <Color>
0.059

> <Negative vol penalty>
0.000

$$$$

  -OEChem-04052301483D

 84 92  0     1  0  0  0  0  0999 V2000
  -28.5107  -19.8493   19.3358 C   0  0  0  0  0  0  0  0  0  0  0  0
  -29.3951  -19.4347   20.3264 C   0  0  0  0  0  0  0  0  0  0  0  0
  -23.2800   -9.8310   19.9472 C   0  0  0  0  0  0  0  0  0  0  0  0
  -23.8801   -9.9506   22.2844 C   0  0  0  0  0  0  0  0  0  0  0  0
  -28.6730  -21.0973   18.7357 C   0  0  0  0  0  0  0  0  0  0  0  0
  -30.4431  -20.2676   20.7168 C   0  0  0  0  0  0  0  0  0  0  0  0
  -30.9710  -20.4977   25.7480 C   0  0  0  0  0  0  0  0  0  0  0  0
  -33.7293  -13.3580   24.7793 C   0  0  0  0  0  0  0  0  0  0  0  0
  -33.0881  -12.7182   23.7186 C   0  0  0  0  0  0  0  0  0  0  0  0
  -22.5846   -8.6457   20.1864 C   0  0  0  0  0  0  0  0  0  0  0  0
  -23.1847   -8.7654   22.5236 C   0  0  0  0  0  0  0  0  0  0  0  0
  -31.6026  -19.4226   26.3718 C   0  0  0  0  0  0  0  0  0  0  0  0
  -19.9711   -7.8049   22.9372 C   0  0  0  0  0  0  0  0  0  0  0  0
  -19.1393   -7.7578   24.0558 C   0  0  0  0  0  0  0  0  0  0  0  0
  -33.6521  -20.6912   26.4696 C   0  0  0  0  0  0  0  0  0  0  0  0
  -31.9068  -14.9370   24.9287 C   0  0  0  0  0  0  0  0  0  0  0  0
  -20.4311   -5.9169   24.9389 C   0  0  0  0  0  0  0  0  0  0  0  0
  -23.9278  -10.4834   20.9962 C   0  0  0  0  0  0  0  0  0  0  0  0
  -24.1391  -13.0191   20.8130 C   0  0  0  0  0  0  0  0  0  0  0  0
  -29.7178  -21.9499   19.1257 C   0  0  0  0  0  0  0  0  0  0  0  0
  -31.6793  -21.6756   25.4700 C   0  0  0  0  0  0  0  0  0  0  0  0
  -30.6204  -21.5276   20.1204 C   0  0  0  0  0  0  0  0  0  0  0  0
  -33.0265  -21.7807   25.8445 C   0  0  0  0  0  0  0  0  0  0  0  0
  -31.2656  -14.2973   23.8679 C   0  0  0  0  0  0  0  0  0  0  0  0
  -33.1386  -14.4673   25.3844 C   0  0  0  0  0  0  0  0  0  0  0  0
  -31.8563  -13.1879   23.2629 C   0  0  0  0  0  0  0  0  0  0  0  0
  -22.5369   -8.1129   21.4746 C   0  0  0  0  0  0  0  0  0  0  0  0
  -32.9441  -19.5182   26.7300 C   0  0  0  0  0  0  0  0  0  0  0  0
  -21.0329   -6.9079   22.8193 C   0  0  0  0  0  0  0  0  0  0  0  0
  -19.3693   -6.8138   25.0567 C   0  0  0  0  0  0  0  0  0  0  0  0
  -21.2629   -5.9640   23.8201 C   0  0  0  0  0  0  0  0  0  0  0  0
  -24.6467  -11.7075   20.7497 C   0  0  0  0  0  0  0  0  0  0  0  0
  -25.2111  -13.8178   20.4978 C   0  0  0  0  0  0  0  0  0  0  0  0
  -30.5135  -10.5693   23.3759 C   0  0  0  0  0  0  0  0  0  0  0  0
  -30.8459  -11.1723   22.2323 C   0  0  0  0  0  0  0  0  0  0  0  0
  -34.5888  -16.0707   26.1270 C   0  0  0  0  0  0  0  0  0  0  0  0
  -22.8168  -13.4747   21.1287 C   0  0  0  0  0  0  0  0  0  0  0  0
  -32.4559  -23.2543   22.8227 C   0  0  0  0  0  0  0  0  0  0  0  0
  -33.5748  -25.4534   24.9285 C   0  0  0  0  0  0  0  0  0  0  0  0
  -34.7496  -26.1303   28.0604 C   0  0  0  0  0  0  0  0  0  0  0  0
  -31.0758  -13.1857   20.9212 C   0  0  0  0  0  0  0  0  0  0  0  0
  -29.8811  -23.2701   18.4150 C   0  0  0  0  0  0  0  0  0  0  0  0
  -30.9764  -22.8361   24.8207 C   0  0  0  0  0  0  0  0  0  0  0  0
  -33.8260  -23.0308   25.5866 C   0  0  0  0  0  0  0  0  0  0  0  0
  -30.7945  -24.2482   19.1494 C   0  0  0  0  0  0  0  0  0  0  0  0
  -29.2794  -13.8259   17.9968 C   0  0  0  0  0  0  0  0  0  0  0  0
  -32.0701  -23.5474   19.6060 C   0  0  0  0  0  0  0  0  0  0  0  0
  -27.8375  -13.4787   18.3660 C   0  0  0  0  0  0  0  0  0  0  0  0
  -30.2559  -12.8266   18.6064 C   0  0  0  0  0  0  0  0  0  0  0  0
  -28.7051  -12.3554   20.4763 C   0  0  0  0  0  0  0  0  0  0  0  0
  -31.7549  -22.4130   20.5885 C   0  0  1  0  0  0  0  0  0  0  0  0
  -31.9320  -23.7982   24.1217 C   0  0  1  0  0  0  0  0  0  0  0  0
  -27.6752  -13.3420   19.8902 C   0  0  2  0  0  0  0  0  0  0  0  0
  -29.9462  -14.8214   23.4011 C   0  0  0  0  0  0  0  0  0  0  0  0
  -35.6192  -28.0126   29.4739 C   0  0  0  0  0  0  0  0  0  0  0  0
  -36.2414  -25.3276   23.4510 C   0  0  0  0  0  0  0  0  0  0  0  0
  -37.3052  -26.4523   25.4187 C   0  0  0  0  0  0  0  0  0  0  0  0
  -35.5282  -27.6288   24.1222 C   0  0  0  0  0  0  0  0  0  0  0  0
  -32.5513  -25.8292   30.0189 C   0  0  0  0  0  0  0  0  0  0  0  0
  -35.3271  -16.8444   27.1863 C   0  0  0  0  0  0  0  0  0  0  0  0
  -34.9624  -18.3170   27.1037 C   0  0  0  0  0  0  0  0  0  1  0  0
  -34.8936  -25.6951   25.6223 C   0  0  1  0  0  0  0  0  0  0  0  0
  -34.3915  -27.2176   29.0573 C   0  0  2  0  0  0  0  0  0  0  0  0
  -35.9778  -26.2516   24.6568 C   0  0  0  0  0  0  0  0  0  0  0  0
  -25.9405  -11.6708   20.4199 N   0  0  0  0  0  0  0  0  0  0  0  0
  -33.7848  -15.1117   26.4526 N   0  0  0  0  0  0  0  0  0  0  0  0
  -26.2549  -12.9691   20.2731 N   0  0  0  0  0  0  0  0  0  0  0  0
  -33.0958  -24.1357   24.9437 N   0  0  0  0  0  0  0  0  0  0  0  0
  -30.0668  -12.7219   20.0537 N   0  0  0  0  0  0  0  0  0  0  0  0
  -25.3532  -15.1562   20.3935 N   0  0  0  0  0  0  0  0  0  0  0  0
  -21.8352  -12.5203   21.4289 N   0  0  0  0  0  0  0  0  0  0  0  0
  -31.4712  -22.9473   21.9032 N   0  0  0  0  0  0  0  0  0  0  0  0
  -34.6039  -26.5623   26.7591 N   0  0  0  0  0  0  0  0  0  0  0  0
  -31.2058  -12.5083   22.1615 N   0  0  0  0  0  0  0  0  0  0  0  0
  -33.7818  -26.6201   30.2788 N   0  3  0  0  0  0  0  0  0  0  0  0
  -22.5106  -14.6911   21.1282 O   0  0  0  0  0  0  0  0  0  0  0  0
  -33.6643  -23.1242   22.6657 O   0  0  0  0  0  0  0  0  0  0  0  0
  -32.9875  -26.4002   24.3990 O   0  0  0  0  0  0  0  0  0  0  0  0
  -35.1248  -25.0108   28.4018 O   0  0  0  0  0  0  0  0  0  0  0  0
  -31.8235  -14.1214   20.6089 O   0  0  0  0  0  0  0  0  0  0  0  0
  -21.8583   -6.9565   21.7084 O   0  0  0  0  0  0  0  0  0  0  0  0
  -33.5631  -18.4701   27.3384 O   0  0  0  0  0  0  0  0  0  1  0  0
  -18.5714   -6.7697   26.1317 F   0  0  0  0  0  0  0  0  0  0  0  0
  -22.2821   -5.1006   23.7130 F   0  0  0  0  0  0  0  0  0  0  0  0
  1  2  1  0  0  0  0
  1  5  2  0  0  0  0
  2  6  2  0  0  0  0
  3 10  2  0  0  0  0
  3 18  1  0  0  0  0
  4 11  1  0  0  0  0
  4 18  2  0  0  0  0
  5 20  1  0  0  0  0
  6 22  1  0  0  0  0
  7 12  2  0  0  0  0
  7 21  1  0  0  0  0
  8  9  2  0  0  0  0
  8 25  1  0  0  0  0
  9 26  1  0  0  0  0
 10 27  1  0  0  0  0
 11 27  2  0  0  0  0
 12 28  1  0  0  0  0
 13 14  2  0  0  0  0
 13 29  1  0  0  0  0
 14 30  1  0  0  0  0
 15 23  1  0  0  0  0
 15 28  2  0  0  0  0
 16 24  1  0  0  0  0
 16 25  2  0  0  0  0
 17 30  2  0  0  0  0
 17 31  1  0  0  0  0
 18 32  1  0  0  0  0
 19 32  1  0  0  0  0
 19 33  2  0  0  0  0
 19 37  1  0  0  0  0
 20 22  2  0  0  0  0
 20 42  1  0  0  0  0
 21 23  2  0  0  0  0
 21 43  1  0  0  0  0
 22 51  1  0  0  0  0
 23 44  1  0  0  0  0
 24 26  2  0  0  0  0
 24 54  1  0  0  0  0
 25 66  1  0  0  0  0
 26 74  1  0  0  0  0
 27 81  1  0  0  0  0
 28 82  1  0  0  0  0
 29 31  2  0  0  0  0
 29 81  1  0  0  0  0
 30 83  1  0  0  0  0
 31 84  1  0  0  0  0
 32 65  2  0  0  0  0
 33 67  1  0  0  0  0
 33 70  1  0  0  0  0
 34 35  2  0  0  0  0
 35 74  1  0  0  0  0
 36 60  1  0  0  0  0
 36 66  2  0  0  0  0
 37 71  1  0  0  0  0
 37 76  2  0  0  0  0
 38 52  1  0  0  0  0
 38 72  1  0  0  0  0
 38 77  2  0  0  0  0
 39 62  1  0  0  0  0
 39 68  1  0  0  0  0
 39 78  2  0  0  0  0
 40 63  1  0  0  0  0
 40 73  1  0  0  0  0
 40 79  2  0  0  0  0
 41 69  1  0  0  0  0
 41 74  1  0  0  0  0
 41 80  2  0  0  0  0
 42 45  1  0  0  0  0
 43 52  1  0  0  0  0
 44 68  1  0  0  0  0
 45 47  1  0  0  0  0
 46 48  1  0  0  0  0
 46 49  1  0  0  0  0
 47 51  1  0  0  0  0
 48 53  1  0  0  0  0
 49 69  1  0  0  0  0
 50 53  1  0  0  0  0
 50 69  1  0  0  0  0
 51 72  1  0  0  0  0
 52 68  1  0  0  0  0
 53 67  1  0  0  0  0
 55 63  1  0  0  0  0
 56 64  1  0  0  0  0
 57 64  1  0  0  0  0
 58 64  1  0  0  0  0
 59 75  1  0  0  0  0
 60 61  1  0  0  0  0
 61 82  1  0  0  0  0
 62 64  1  0  0  0  0
 62 73  1  0  0  0  0
 63 75  1  0  0  0  0
 65 67  1  0  0  0  0
M  CHG  1  75   1
M  ISO  4  41 100  61 101  74 100  82 101
M  END
> <Batch ID>
0118

> <Smiles>
C=C[100N:0](c1ccc(NC=C[101CH2:1][101O:1]c2ccc3c(c2)CN(C(=O)C(NC(=O)C(C)NC)C(C)(C)C)C(C(=O)NC2CCCc4ccccc42)C3)cc1C)[100C:0](=O)N1CCCC(n2nc(-c3ccc(Oc4ccc(F)cc4F)cc3)c(C(N)=O)c2N)C1

> <Shape>
0.188

> <Color>
0.189

> <Negative vol penalty>
0.000

$$$$

  -OEChem-04052301483D

 89 97  0     1  0  0  0  0  0999 V2000
  -16.9359  -29.8908   24.3961 C   0  0  0  0  0  0  0  0  0  0  0  0
  -17.3331  -28.6809   23.8359 C   0  0  0  0  0  0  0  0  0  0  0  0
  -22.8752  -10.1243   20.4840 C   0  0  0  0  0  0  0  0  0  0  0  0
  -24.3849   -9.1519   22.1003 C   0  0  0  0  0  0  0  0  0  0  0  0
  -17.5743  -31.0730   24.0237 C   0  0  0  0  0  0  0  0  0  0  0  0
  -18.3683  -28.6527   22.9021 C   0  0  0  0  0  0  0  0  0  0  0  0
  -22.5427  -24.2326   22.1657 C   0  0  0  0  0  0  0  0  0  0  0  0
  -22.1153   -8.9547   20.4901 C   0  0  0  0  0  0  0  0  0  0  0  0
  -23.6249   -7.9823   22.1064 C   0  0  0  0  0  0  0  0  0  0  0  0
  -22.6325  -23.1667   21.2714 C   0  0  0  0  0  0  0  0  0  0  0  0
  -22.2908   -5.8637   19.1339 C   0  0  0  0  0  0  0  0  0  0  0  0
  -21.8817   -5.3512   17.9029 C   0  0  0  0  0  0  0  0  0  0  0  0
  -23.8770  -13.2675   17.2758 C   0  0  0  0  0  0  0  0  0  0  0  0
  -24.0512  -24.4939   19.8414 C   0  0  0  0  0  0  0  0  0  0  0  0
  -26.0020  -15.0612   17.4984 C   0  0  0  0  0  0  0  0  0  0  0  0
  -19.5725   -5.5771   18.5764 C   0  0  0  0  0  0  0  0  0  0  0  0
  -24.0101  -10.2230   21.2891 C   0  0  0  0  0  0  0  0  0  0  0  0
  -25.0153  -13.1016   16.4869 C   0  0  0  0  0  0  0  0  0  0  0  0
  -23.8012  -14.3304   18.1760 C   0  0  0  0  0  0  0  0  0  0  0  0
  -24.6320  -12.5558   22.1130 C   0  0  0  0  0  0  0  0  0  0  0  0
  -18.6243  -31.0581   23.0921 C   0  0  0  0  0  0  0  0  0  0  0  0
  -23.1988  -25.4428   21.8987 C   0  0  0  0  0  0  0  0  0  0  0  0
  -19.0205  -29.8361   22.5159 C   0  0  0  0  0  0  0  0  0  0  0  0
  -23.9703  -25.5727   20.7351 C   0  0  0  0  0  0  0  0  0  0  0  0
  -26.0778  -13.9984   16.5982 C   0  0  0  0  0  0  0  0  0  0  0  0
  -22.4901   -7.8837   21.3013 C   0  0  0  0  0  0  0  0  0  0  0  0
  -23.3844  -23.2982   20.1077 C   0  0  0  0  0  0  0  0  0  0  0  0
  -21.3408   -6.2329   20.0863 C   0  0  0  0  0  0  0  0  0  0  0  0
  -24.8637  -15.2272   18.2873 C   0  0  0  0  0  0  0  0  0  0  0  0
  -20.5225   -5.2079   17.6241 C   0  0  0  0  0  0  0  0  0  0  0  0
  -19.9817   -6.0896   19.8075 C   0  0  0  0  0  0  0  0  0  0  0  0
  -24.7958  -11.4307   21.2828 C   0  0  0  0  0  0  0  0  0  0  0  0
  -25.6192  -13.4234   21.7142 C   0  0  0  0  0  0  0  0  0  0  0  0
  -24.2067  -11.8255   14.5547 C   0  0  0  0  0  0  0  0  0  0  0  0
  -25.0585  -11.9796   15.5565 C   0  0  0  0  0  0  0  0  0  0  0  0
  -22.6016  -14.4828   18.9885 C   0  0  0  0  0  0  0  0  0  0  0  0
  -23.6732  -12.7951   23.1518 C   0  0  0  0  0  0  0  0  0  0  0  0
  -21.4931  -15.1835   18.6579 C   0  0  0  0  0  0  0  0  0  0  0  0
  -22.2643  -28.4437   21.4242 C   0  0  0  0  0  0  0  0  0  0  0  0
  -25.4551  -29.0275   21.4333 C   0  0  0  0  0  0  0  0  0  0  0  0
  -28.6196  -27.8369   20.9695 C   0  0  0  0  0  0  0  0  0  0  0  0
  -28.5516  -13.6698   16.3462 C   0  0  0  0  0  0  0  0  0  0  0  0
  -19.2525  -32.3675   22.6854 C   0  0  0  0  0  0  0  0  0  0  0  0
  -23.1138  -26.5740   22.8865 C   0  0  0  0  0  0  0  0  0  0  0  0
  -24.7103  -26.8441   20.4120 C   0  0  0  0  0  0  0  0  0  0  0  0
  -20.5909  -32.2046   21.9695 C   0  0  0  0  0  0  0  0  0  0  0  0
  -29.9790  -13.5285   19.7573 C   0  0  0  0  0  0  0  0  0  0  0  0
  -20.4952  -31.1226   20.8986 C   0  0  0  0  0  0  0  0  0  0  0  0
  -28.8172  -12.9885   20.5892 C   0  0  0  0  0  0  0  0  0  0  0  0
  -29.9152  -13.0422   18.3126 C   0  0  0  0  0  0  0  0  0  0  0  0
  -27.4532  -12.8084   18.4705 C   0  0  0  0  0  0  0  0  0  0  0  0
  -20.1559  -29.7615   21.5182 C   0  0  1  0  0  0  0  0  0  0  0  0
  -23.4033  -27.9355   22.2621 C   0  0  1  0  0  0  0  0  0  0  0  0
  -27.4723  -13.3166   19.9199 C   0  0  1  0  0  0  0  0  0  0  0  0
  -20.3295  -15.2697   19.6090 C   0  0  0  0  0  0  0  0  0  0  0  0
  -21.2895  -15.9124   17.3580 C   0  0  0  0  0  0  0  0  0  0  0  0
  -31.0223  -28.5600   21.0115 C   0  0  0  0  0  0  0  0  0  0  0  0
  -25.0826  -30.4131   18.7405 C   0  0  0  0  0  0  0  0  0  0  0  0
  -27.5581  -30.2611   18.3985 C   0  0  0  0  0  0  0  0  0  0  0  0
  -26.6433  -31.5808   20.3075 C   0  0  0  0  0  0  0  0  0  0  0  0
  -27.1770  -14.1658   14.3724 C   0  0  0  0  0  0  0  0  0  0  0  0
  -29.2769  -25.9287   23.1342 C   0  0  0  0  0  0  0  0  0  0  0  0
  -24.2115  -19.9798   18.9364 C   0  0  0  0  0  0  0  0  0  0  0  0
  -24.1279  -18.5540   19.4700 C   0  0  0  0  0  0  0  0  0  0  0  0
  -23.3832  -20.9432   19.7762 C   0  0  0  0  0  0  0  0  0  1  0  0
  -24.9208  -17.5832   18.6064 C   0  0  0  0  0  0  0  0  0  0  0  0
  -26.5398  -29.0558   20.3838 C   0  0  1  0  0  0  0  0  0  0  0  0
  -29.8763  -27.9613   21.8121 C   0  0  2  0  0  0  0  0  0  0  0  0
  -26.4406  -30.3043   19.4624 C   0  0  0  0  0  0  0  0  0  0  0  0
  -25.8073  -11.5683   20.4215 N   0  0  0  0  0  0  0  0  0  0  0  0
  -26.2880  -12.7901   20.7083 N   0  0  0  0  0  0  0  0  0  0  0  0
  -24.5912  -27.9237   21.4059 N   0  0  0  0  0  0  0  0  0  0  0  0
  -28.6090  -13.3075   17.7077 N   0  0  0  0  0  0  0  0  0  0  0  0
  -25.9717  -14.6587   22.1292 N   0  0  0  0  0  0  0  0  0  0  0  0
  -22.7292  -11.7979   23.4325 N   0  0  0  0  0  0  0  0  0  0  0  0
  -21.3304  -29.1779   22.1301 N   0  0  0  0  0  0  0  0  0  0  0  0
  -27.8050  -28.9416   21.1011 N   0  0  0  0  0  0  0  0  0  0  0  0
  -27.2683  -13.8529   15.7968 N   0  0  0  0  0  0  0  0  0  0  0  0
  -30.3003  -26.6224   22.3106 N   0  3  0  0  0  0  0  0  0  0  0  0
  -23.6439  -13.8683   23.8006 O   0  0  0  0  0  0  0  0  0  0  0  0
  -22.2357  -28.1899   20.2257 O   0  0  0  0  0  0  0  0  0  0  0  0
  -25.3817  -29.9474   22.2520 O   0  0  0  0  0  0  0  0  0  0  0  0
  -28.3859  -26.8593   20.2623 O   0  0  0  0  0  0  0  0  0  0  0  0
  -29.5708  -13.7692   15.6520 O   0  0  0  0  0  0  0  0  0  0  0  0
  -21.7486   -6.7423   21.3077 O   0  0  0  0  0  0  0  0  0  0  0  0
  -23.4732  -22.2597   19.2328 O   0  0  0  0  0  0  0  0  0  1  0  0
  -24.8148  -16.2803   19.1634 O   0  0  0  0  0  0  0  0  0  0  0  0
  -20.1297   -4.7172   16.4413 F   0  0  0  0  0  0  0  0  0  0  0  0
  -19.0643   -6.4437   20.7179 F   0  0  0  0  0  0  0  0  0  0  0  0
  1  2  1  0  0  0  0
  1  5  2  0  0  0  0
  2  6  2  0  0  0  0
  3  8  2  0  0  0  0
  3 17  1  0  0  0  0
  4  9  1  0  0  0  0
  4 17  2  0  0  0  0
  5 21  1  0  0  0  0
  6 23  1  0  0  0  0
  7 10  2  0  0  0  0
  7 22  1  0  0  0  0
  8 26  1  0  0  0  0
  9 26  2  0  0  0  0
 10 27  1  0  0  0  0
 11 12  2  0  0  0  0
 11 28  1  0  0  0  0
 12 30  1  0  0  0  0
 13 18  1  0  0  0  0
 13 19  2  0  0  0  0
 14 24  1  0  0  0  0
 14 27  2  0  0  0  0
 15 25  1  0  0  0  0
 15 29  2  0  0  0  0
 16 30  2  0  0  0  0
 16 31  1  0  0  0  0
 17 32  1  0  0  0  0
 18 25  2  0  0  0  0
 18 35  1  0  0  0  0
 19 29  1  0  0  0  0
 19 36  1  0  0  0  0
 20 32  1  0  0  0  0
 20 33  2  0  0  0  0
 20 37  1  0  0  0  0
 21 23  2  0  0  0  0
 21 43  1  0  0  0  0
 22 24  2  0  0  0  0
 22 44  1  0  0  0  0
 23 52  1  0  0  0  0
 24 45  1  0  0  0  0
 25 78  1  0  0  0  0
 26 85  1  0  0  0  0
 27 86  1  0  0  0  0
 28 31  2  0  0  0  0
 28 85  1  0  0  0  0
 29 87  1  0  0  0  0
 30 88  1  0  0  0  0
 31 89  1  0  0  0  0
 32 70  2  0  0  0  0
 33 71  1  0  0  0  0
 33 74  1  0  0  0  0
 34 35  2  0  0  0  0
 36 38  2  0  0  0  0
 37 75  1  0  0  0  0
 37 80  2  0  0  0  0
 38 55  1  0  0  0  0
 38 56  1  0  0  0  0
 39 53  1  0  0  0  0
 39 76  1  0  0  0  0
 39 81  2  0  0  0  0
 40 67  1  0  0  0  0
 40 72  1  0  0  0  0
 40 82  2  0  0  0  0
 41 68  1  0  0  0  0
 41 77  1  0  0  0  0
 41 83  2  0  0  0  0
 42 73  1  0  0  0  0
 42 78  1  0  0  0  0
 42 84  2  0  0  0  0
 43 46  1  0  0  0  0
 44 53  1  0  0  0  0
 45 72  1  0  0  0  0
 46 48  1  0  0  0  0
 47 49  1  0  0  0  0
 47 50  1  0  0  0  0
 48 52  1  0  0  0  0
 49 54  1  0  0  0  0
 50 73  1  0  0  0  0
 51 54  1  0  0  0  0
 51 73  1  0  0  0  0
 52 76  1  0  0  0  0
 53 72  1  0  0  0  0
 54 71  1  0  0  0  0
 57 68  1  0  0  0  0
 58 69  1  0  0  0  0
 59 69  1  0  0  0  0
 60 69  1  0  0  0  0
 61 78  1  0  0  0  0
 62 79  1  0  0  0  0
 63 64  1  0  0  0  0
 63 65  1  0  0  0  0
 64 66  1  0  0  0  0
 65 86  1  0  0  0  0
 66 87  1  0  0  0  0
 67 69  1  0  0  0  0
 67 77  1  0  0  0  0
 68 79  1  0  0  0  0
 70 71  1  0  0  0  0
M  CHG  1  79   1
M  ISO  4  42 100  65 101  78 100  86 101
M  END
> <Batch ID>
0118

> <Smiles>
C=Cc1cc(C=C(C)C)c(OCCC[101CH2:1][101O:1]c2ccc3c(c2)CN(C(=O)C(NC(=O)C(C)NC)C(C)(C)C)C(C(=O)NC2CCCc4ccccc42)C3)cc1[100N:0](C)[100C:0](=O)N1CCCC(n2nc(-c3ccc(Oc4ccc(F)cc4F)cc3)c(C(N)=O)c2N)C1

> <Shape>
0.214

> <Color>
0.140

> <Negative vol penalty>
0.000

$$$$

  -OEChem-04052301483D

 85 93  0     1  0  0  0  0  0999 V2000
  -27.7972  -32.7234   27.5010 C   0  0  0  0  0  0  0  0  0  0  0  0
  -27.9549  -31.6528   26.6268 C   0  0  0  0  0  0  0  0  0  0  0  0
  -24.2960   -8.9744   21.4399 C   0  0  0  0  0  0  0  0  0  0  0  0
  -24.8336  -10.2623   23.4121 C   0  0  0  0  0  0  0  0  0  0  0  0
  -26.5248  -33.2355   27.7518 C   0  0  0  0  0  0  0  0  0  0  0  0
  -26.8401  -31.0929   26.0037 C   0  0  0  0  0  0  0  0  0  0  0  0
  -27.6004  -30.2296   21.0720 C   0  0  0  0  0  0  0  0  0  0  0  0
  -23.9857   -7.8761   22.2418 C   0  0  0  0  0  0  0  0  0  0  0  0
  -24.5232   -9.1640   24.2139 C   0  0  0  0  0  0  0  0  0  0  0  0
  -28.3479  -29.1033   20.7306 C   0  0  0  0  0  0  0  0  0  0  0  0
  -22.7059   -4.8461   23.7900 C   0  0  0  0  0  0  0  0  0  0  0  0
  -21.5393   -4.1393   23.4984 C   0  0  0  0  0  0  0  0  0  0  0  0
  -26.3107  -27.9049   20.2480 C   0  0  0  0  0  0  0  0  0  0  0  0
  -30.1491  -18.7864   19.9412 C   0  0  0  0  0  0  0  0  0  0  0  0
  -27.9663  -20.3654   20.6656 C   0  0  0  0  0  0  0  0  0  0  0  0
  -20.2348   -6.1381   23.8731 C   0  0  0  0  0  0  0  0  0  0  0  0
  -24.7200  -10.1675   22.0251 C   0  0  0  0  0  0  0  0  0  0  0  0
  -24.1658  -12.3193   20.7719 C   0  0  0  0  0  0  0  0  0  0  0  0
  -25.3950  -32.6879   27.1240 C   0  0  0  0  0  0  0  0  0  0  0  0
  -26.1996  -30.1984   21.0143 C   0  0  0  0  0  0  0  0  0  0  0  0
  -25.5514  -31.5973   26.2473 C   0  0  0  0  0  0  0  0  0  0  0  0
  -25.5478  -29.0329   20.5867 C   0  0  0  0  0  0  0  0  0  0  0  0
  -30.3418  -20.1205   20.2996 C   0  0  0  0  0  0  0  0  0  0  0  0
  -27.7736  -19.0312   20.3071 C   0  0  0  0  0  0  0  0  0  0  0  0
  -28.8649  -18.2417   19.9449 C   0  0  0  0  0  0  0  0  0  0  0  0
  -24.0992   -7.9709   23.6288 C   0  0  0  0  0  0  0  0  0  0  0  0
  -27.7030  -27.9398   20.3213 C   0  0  0  0  0  0  0  0  0  0  0  0
  -22.6370   -6.1989   24.1231 C   0  0  0  0  0  0  0  0  0  0  0  0
  -29.2505  -20.9100   20.6618 C   0  0  0  0  0  0  0  0  0  0  0  0
  -20.3038   -4.7853   23.5399 C   0  0  0  0  0  0  0  0  0  0  0  0
  -21.4015   -6.8449   24.1646 C   0  0  0  0  0  0  0  0  0  0  0  0
  -25.0413  -11.3022   21.1973 C   0  0  0  0  0  0  0  0  0  0  0  0
  -24.9509  -13.1535   20.0142 C   0  0  0  0  0  0  0  0  0  0  0  0
  -22.7678  -12.4944   21.0381 C   0  0  0  0  0  0  0  0  0  0  0  0
  -23.8591  -30.5388   23.1379 C   0  0  0  0  0  0  0  0  0  0  0  0
  -28.8754  -24.5159   20.5044 C   0  0  0  0  0  0  0  0  0  0  0  0
  -21.9738  -30.3920   20.5023 C   0  0  0  0  0  0  0  0  0  0  0  0
  -21.5878  -29.3686   17.2696 C   0  0  0  0  0  0  0  0  0  0  0  0
  -29.6781  -15.9788   19.1935 C   0  0  0  0  0  0  0  0  0  0  0  0
  -24.0349  -33.2446   27.4628 C   0  0  0  0  0  0  0  0  0  0  0  0
  -25.4088  -31.4302   21.3603 C   0  0  0  0  0  0  0  0  0  0  0  0
  -24.0470  -28.9543   20.4883 C   0  0  0  0  0  0  0  0  0  0  0  0
  -22.9460  -32.8365   26.4739 C   0  0  0  0  0  0  0  0  0  0  0  0
  -29.6560  -12.5458   18.2496 C   0  0  0  0  0  0  0  0  0  0  0  0
  -23.0263  -31.3422   26.1781 C   0  0  0  0  0  0  0  0  0  0  0  0
  -28.3815  -11.9999   18.8973 C   0  0  0  0  0  0  0  0  0  0  0  0
  -30.3419  -13.5849   19.1348 C   0  0  0  0  0  0  0  0  0  0  0  0
  -28.2053  -14.1413   20.2279 C   0  0  0  0  0  0  0  0  0  0  0  0
  -24.3692  -30.9788   25.5331 C   0  0  1  0  0  0  0  0  0  0  0  0
  -23.9683  -31.1232   21.7579 C   0  0  1  0  0  0  0  0  0  0  0  0
  -27.4444  -13.1389   19.3448 C   0  0  2  0  0  0  0  0  0  0  0  0
  -31.7234  -20.6868   20.2882 C   0  0  0  0  0  0  0  0  0  0  0  0
  -25.8002  -18.3526   18.9172 C   0  0  0  0  0  0  0  0  0  0  0  0
  -19.9233  -29.3593   15.3916 C   0  0  0  0  0  0  0  0  0  0  0  0
  -20.4307  -28.1516   21.8843 C   0  0  0  0  0  0  0  0  0  0  0  0
  -19.4422  -27.5564   19.6624 C   0  0  0  0  0  0  0  0  0  0  0  0
  -19.0033  -29.8003   20.6599 C   0  0  0  0  0  0  0  0  0  0  0  0
  -23.3782  -30.9478   15.5203 C   0  0  0  0  0  0  0  0  0  0  0  0
  -26.3872  -18.4737   20.3199 C   0  0  0  0  0  0  0  0  0  0  0  0
  -27.8238  -25.5671   20.2140 C   0  0  0  0  0  0  0  0  0  1  0  0
  -28.3577  -23.1127   20.7451 C   0  0  0  0  0  0  0  0  0  0  0  0
  -21.2976  -29.2837   19.7319 C   0  0  1  0  0  0  0  0  0  0  0  0
  -21.0870  -30.0969   16.0354 C   0  0  2  0  0  0  0  0  0  0  0  0
  -20.0717  -28.6985   20.4882 C   0  0  0  0  0  0  0  0  0  0  0  0
  -26.2871  -11.4727   20.7469 N   0  0  0  0  0  0  0  0  0  0  0  0
  -26.2001  -12.6065   20.0307 N   0  0  0  0  0  0  0  0  0  0  0  0
  -23.3176  -30.1829   20.8433 N   0  0  0  0  0  0  0  0  0  0  0  0
  -29.3946  -14.6348   19.5159 N   0  0  0  0  0  0  0  0  0  0  0  0
  -24.6875  -14.2942   19.3419 N   0  0  0  0  0  0  0  0  0  0  0  0
  -22.1154  -11.5442   21.8355 N   0  0  0  0  0  0  0  0  0  0  0  0
  -28.6896  -16.8846   19.5770 N   0  0  0  0  0  0  0  0  0  0  0  0
  -24.3737  -31.3471   24.1335 N   0  0  0  0  0  0  0  0  0  0  0  0
  -20.9823  -29.8334   18.4178 N   0  0  0  0  0  0  0  0  0  0  0  0
  -22.1789  -30.2217   15.0288 N   0  3  0  0  0  0  0  0  0  0  0  0
  -22.1129  -13.4558   20.5688 O   0  0  0  0  0  0  0  0  0  0  0  0
  -23.3446  -29.4368   23.2884 O   0  0  0  0  0  0  0  0  0  0  0  0
  -30.0750  -24.7854   20.5430 O   0  0  0  0  0  0  0  0  0  0  0  0
  -21.3352  -31.4089   20.7847 O   0  0  0  0  0  0  0  0  0  0  0  0
  -22.4291  -28.4740   17.2195 O   0  0  0  0  0  0  0  0  0  0  0  0
  -30.7084  -16.2993   18.5953 O   0  0  0  0  0  0  0  0  0  0  0  0
  -23.7962   -6.8994   24.4115 O   0  0  0  0  0  0  0  0  0  0  0  0
  -28.4302  -26.8389   19.9881 O   0  0  0  0  0  0  0  0  0  1  0  0
  -29.4231  -22.2268   21.0172 O   0  0  0  0  0  0  0  0  0  0  0  0
  -19.1837   -4.1068   23.2584 F   0  0  0  0  0  0  0  0  0  0  0  0
  -21.3290   -8.1446   24.4829 F   0  0  0  0  0  0  0  0  0  0  0  0
  1  2  1  0  0  0  0
  1  5  2  0  0  0  0
  2  6  2  0  0  0  0
  3  8  2  0  0  0  0
  3 17  1  0  0  0  0
  4  9  1  0  0  0  0
  4 17  2  0  0  0  0
  5 19  1  0  0  0  0
  6 21  1  0  0  0  0
  7 10  2  0  0  0  0
  7 20  1  0  0  0  0
  8 26  1  0  0  0  0
  9 26  2  0  0  0  0
 10 27  1  0  0  0  0
 11 12  2  0  0  0  0
 11 28  1  0  0  0  0
 12 30  1  0  0  0  0
 13 22  1  0  0  0  0
 13 27  2  0  0  0  0
 14 23  2  0  0  0  0
 14 25  1  0  0  0  0
 15 24  1  0  0  0  0
 15 29  2  0  0  0  0
 16 30  2  0  0  0  0
 16 31  1  0  0  0  0
 17 32  1  0  0  0  0
 18 32  1  0  0  0  0
 18 33  2  0  0  0  0
 18 34  1  0  0  0  0
 19 21  2  0  0  0  0
 19 40  1  0  0  0  0
 20 22  2  0  0  0  0
 20 41  1  0  0  0  0
 21 49  1  0  0  0  0
 22 42  1  0  0  0  0
 23 29  1  0  0  0  0
 23 52  1  0  0  0  0
 24 25  2  0  0  0  0
 24 59  1  0  0  0  0
 25 71  1  0  0  0  0
 26 81  1  0  0  0  0
 27 82  1  0  0  0  0
 28 31  2  0  0  0  0
 28 81  1  0  0  0  0
 29 83  1  0  0  0  0
 30 84  1  0  0  0  0
 31 85  1  0  0  0  0
 32 65  2  0  0  0  0
 33 66  1  0  0  0  0
 33 69  1  0  0  0  0
 34 70  1  0  0  0  0
 34 75  2  0  0  0  0
 35 50  1  0  0  0  0
 35 72  1  0  0  0  0
 35 76  2  0  0  0  0
 36 60  1  0  0  0  0
 36 61  1  0  0  0  0
 36 77  2  0  0  0  0
 37 62  1  0  0  0  0
 37 67  1  0  0  0  0
 37 78  2  0  0  0  0
 38 63  1  0  0  0  0
 38 73  1  0  0  0  0
 38 79  2  0  0  0  0
 39 68  1  0  0  0  0
 39 71  1  0  0  0  0
 39 80  2  0  0  0  0
 40 43  1  0  0  0  0
 41 50  1  0  0  0  0
 42 67  1  0  0  0  0
 43 45  1  0  0  0  0
 44 46  1  0  0  0  0
 44 47  1  0  0  0  0
 45 49  1  0  0  0  0
 46 51  1  0  0  0  0
 47 68  1  0  0  0  0
 48 51  1  0  0  0  0
 48 68  1  0  0  0  0
 49 72  1  0  0  0  0
 50 67  1  0  0  0  0
 51 66  1  0  0  0  0
 53 59  1  0  0  0  0
 54 63  1  0  0  0  0
 55 64  1  0  0  0  0
 56 64  1  0  0  0  0
 57 64  1  0  0  0  0
 58 74  1  0  0  0  0
 60 82  1  0  0  0  0
 61 83  1  0  0  0  0
 62 64  1  0  0  0  0
 62 73  1  0  0  0  0
 63 74  1  0  0  0  0
 65 66  1  0  0  0  0
M  CHG  1  74   1
M  ISO  4  39 100  60 101  71 100  82 101
M  END
> <Batch ID>
0118

> <Smiles>
CCc1cc(OCC(=O)[101CH2:1][101O:1]c2ccc3c(c2)CN(C(=O)C(NC(=O)C(C)NC)C(C)(C)C)C(C(=O)NC2CCCc4ccccc42)C3)c(C)cc1[100NH:0][100C:0](=O)N1CCCC(n2nc(-c3ccc(Oc4ccc(F)cc4F)cc3)c(C(N)=O)c2N)C1

> <Shape>
0.341

> <Color>
0.134

> <Negative vol penalty>
0.000

$$$$

  -OEChem-04052301483D

 86 95  0     1  0  0  0  0  0999 V2000
  -16.4091  -28.9249   23.7089 C   0  0  0  0  0  0  0  0  0  0  0  0
  -16.9042  -28.9556   22.4091 C   0  0  0  0  0  0  0  0  0  0  0  0
  -26.3456  -13.7256   21.2955 C   0  0  0  0  0  0  0  0  0  0  0  0
  -26.1709  -15.5396   19.7094 C   0  0  0  0  0  0  0  0  0  0  0  0
  -32.0165  -23.3185   17.1866 C   0  0  0  0  0  0  0  0  0  0  0  0
  -17.1256  -29.5294   24.7409 C   0  0  0  0  0  0  0  0  0  0  0  0
  -18.1156  -29.5918   22.1405 C   0  0  0  0  0  0  0  0  0  0  0  0
  -23.6165  -25.9983   19.1878 C   0  0  0  0  0  0  0  0  0  0  0  0
  -32.1447  -22.2930   18.1232 C   0  0  0  0  0  0  0  0  0  0  0  0
  -24.9548  -13.6279   21.3371 C   0  0  0  0  0  0  0  0  0  0  0  0
  -24.7800  -15.4419   19.7509 C   0  0  0  0  0  0  0  0  0  0  0  0
  -24.6436  -25.4332   18.4315 C   0  0  0  0  0  0  0  0  0  0  0  0
  -22.4916  -12.3173   19.4271 C   0  0  0  0  0  0  0  0  0  0  0  0
  -21.9290  -11.0427   19.3594 C   0  0  0  0  0  0  0  0  0  0  0  0
  -25.9359  -27.4656   18.6484 C   0  0  0  0  0  0  0  0  0  0  0  0
  -31.2625  -20.7170   16.5185 C   0  0  0  0  0  0  0  0  0  0  0  0
  -20.8953  -11.3845   21.5163 C   0  0  0  0  0  0  0  0  0  0  0  0
  -26.9536  -14.6814   20.4817 C   0  0  0  0  0  0  0  0  0  0  0  0
  -31.5113  -23.0434   15.9158 C   0  0  0  0  0  0  0  0  0  0  0  0
  -29.3020  -13.7837   20.0496 C   0  0  0  0  0  0  0  0  0  0  0  0
  -18.3512  -30.1649   24.4864 C   0  0  0  0  0  0  0  0  0  0  0  0
  -23.7519  -27.2952   19.6909 C   0  0  0  0  0  0  0  0  0  0  0  0
  -18.8485  -30.2065   23.1699 C   0  0  0  0  0  0  0  0  0  0  0  0
  -24.9157  -28.0323   19.4171 C   0  0  0  0  0  0  0  0  0  0  0  0
  -31.1343  -21.7426   15.5818 C   0  0  0  0  0  0  0  0  0  0  0  0
  -31.7677  -20.9922   17.7892 C   0  0  0  0  0  0  0  0  0  0  0  0
  -24.1720  -14.4860   20.5647 C   0  0  0  0  0  0  0  0  0  0  0  0
  -25.8003  -26.1652   18.1623 C   0  0  0  0  0  0  0  0  0  0  0  0
  -22.2562  -13.1254   20.5395 C   0  0  0  0  0  0  0  0  0  0  0  0
  -21.1308  -10.5763   20.4040 C   0  0  0  0  0  0  0  0  0  0  0  0
  -21.4580  -12.6590   21.5840 C   0  0  0  0  0  0  0  0  0  0  0  0
  -28.3903  -14.7832   20.4388 C   0  0  0  0  0  0  0  0  0  0  0  0
  -30.5354  -14.3731   20.1834 C   0  0  0  0  0  0  0  0  0  0  0  0
  -28.1257  -25.7574   15.4578 C   0  0  0  0  0  0  0  0  0  0  0  0
  -27.1587  -26.2173   16.2584 C   0  0  0  0  0  0  0  0  0  1  0  0
  -31.3864  -24.1439   14.9483 C   0  0  0  0  0  0  0  0  0  0  0  0
  -29.0561  -12.4425   19.6066 C   0  0  0  0  0  0  0  0  0  0  0  0
  -22.2357  -30.0780   21.6990 C   0  0  0  0  0  0  0  0  0  0  0  0
  -25.2147  -29.9765   22.4243 C   0  0  0  0  0  0  0  0  0  0  0  0
  -28.2501  -30.1555   23.9706 C   0  0  0  0  0  0  0  0  0  0  0  0
  -32.3812  -20.0546   20.0455 C   0  0  0  0  0  0  0  0  0  0  0  0
  -19.0666  -30.8454   25.6265 C   0  0  0  0  0  0  0  0  0  0  0  0
  -22.6454  -27.9663   20.4583 C   0  0  0  0  0  0  0  0  0  0  0  0
  -25.0031  -29.4365   19.9495 C   0  0  0  0  0  0  0  0  0  0  0  0
  -28.5535  -26.3914   14.1688 C   0  0  0  0  0  0  0  0  0  0  0  0
  -29.0230  -24.6017   15.7747 C   0  0  0  0  0  0  0  0  0  0  0  0
  -20.5257  -31.1736   25.3208 C   0  0  0  0  0  0  0  0  0  0  0  0
  -32.8245  -17.7357   22.7107 C   0  0  0  0  0  0  0  0  0  0  0  0
  -20.6506  -31.8185   23.9441 C   0  0  0  0  0  0  0  0  0  0  0  0
  -31.8250  -16.6215   22.3919 C   0  0  0  0  0  0  0  0  0  0  0  0
  -30.0302  -26.0414   14.1139 C   0  0  0  0  0  0  0  0  0  0  0  0
  -32.2751  -19.1129   22.3427 C   0  0  0  0  0  0  0  0  0  0  0  0
  -30.7897  -18.1247   20.6438 C   0  0  0  0  0  0  0  0  0  0  0  0
  -20.1710  -30.8653   22.8428 C   0  0  1  0  0  0  0  0  0  0  0  0
  -23.1609  -28.9044   21.5643 C   0  0  1  0  0  0  0  0  0  0  0  0
  -31.3239  -16.7132   20.9372 C   0  0  2  0  0  0  0  0  0  0  0  0
  -30.5891  -21.4211   14.2285 C   0  0  0  0  0  0  0  0  0  0  0  0
  -29.7493  -31.7582   25.1877 C   0  0  0  0  0  0  0  0  0  0  0  0
  -25.9660  -31.2820   19.7719 C   0  0  0  0  0  0  0  0  0  0  0  0
  -28.0506  -32.1362   20.8641 C   0  0  0  0  0  0  0  0  0  0  0  0
  -25.8169  -32.8599   21.7064 C   0  0  0  0  0  0  0  0  0  0  0  0
  -28.1950  -28.5170   26.4346 C   0  0  0  0  0  0  0  0  0  0  0  0
  -26.6023  -30.4976   22.1480 C   0  0  1  0  0  0  0  0  0  0  0  0
  -28.6601  -30.7057   25.3247 C   0  0  2  0  0  0  0  0  0  0  0  0
  -26.6032  -31.6661   21.1222 C   0  0  0  0  0  0  0  0  0  0  0  0
  -28.9930  -15.9212   20.7935 N   0  0  0  0  0  0  0  0  0  0  0  0
  -30.2967  -15.6404   20.6277 N   0  0  0  0  0  0  0  0  0  0  0  0
  -30.1904  -24.8486   14.9327 N   0  0  0  0  0  0  0  0  0  0  0  0
  -24.4947  -29.4831   21.3294 N   0  0  0  0  0  0  0  0  0  0  0  0
  -31.8236  -19.1258   20.9495 N   0  0  0  0  0  0  0  0  0  0  0  0
  -31.7900  -13.9259   19.9633 N   0  0  0  0  0  0  0  0  0  0  0  0
  -28.8786  -12.2137   18.2353 N   0  0  0  0  0  0  0  0  0  0  0  0
  -31.8983  -19.9511   18.7414 N   0  0  0  0  0  0  0  0  0  0  0  0
  -21.1800  -29.8656   22.5649 N   0  0  0  0  0  0  0  0  0  0  0  0
  -27.1752  -30.8407   23.4451 N   0  0  0  0  0  0  0  0  0  0  0  0
  -29.1722  -29.6101   26.1956 N   0  3  0  0  0  0  0  0  0  0  0  0
  -32.3549  -24.3735   14.2270 O   0  0  0  0  0  0  0  0  0  0  0  0
  -28.9792  -11.4779   20.4049 O   0  0  0  0  0  0  0  0  0  0  0  0
  -22.4627  -31.1022   21.0656 O   0  0  0  0  0  0  0  0  0  0  0  0
  -24.7763  -30.0099   23.5775 O   0  0  0  0  0  0  0  0  0  0  0  0
  -28.8281  -29.2145   23.4313 O   0  0  0  0  0  0  0  0  0  0  0  0
  -33.2448  -20.8630   20.3958 O   0  0  0  0  0  0  0  0  0  0  0  0
  -22.8148  -14.3908   20.6048 O   0  0  0  0  0  0  0  0  0  0  0  0
  -26.8010  -25.6058   17.4271 O   0  0  0  0  0  0  0  0  0  1  0  0
  -20.5893   -9.3530   20.3381 F   0  0  0  0  0  0  0  0  0  0  0  0
  -21.2273  -13.4312   22.6546 F   0  0  0  0  0  0  0  0  0  0  0  0
  1  2  1  0  0  0  0
  1  6  2  0  0  0  0
  2  7  2  0  0  0  0
  3 10  2  0  0  0  0
  3 18  1  0  0  0  0
  4 11  1  0  0  0  0
  4 18  2  0  0  0  0
  5  9  2  0  0  0  0
  5 19  1  0  0  0  0
  6 21  1  0  0  0  0
  7 23  1  0  0  0  0
  8 12  2  0  0  0  0
  8 22  1  0  0  0  0
  9 26  1  0  0  0  0
 10 27  1  0  0  0  0
 11 27  2  0  0  0  0
 12 28  1  0  0  0  0
 13 14  2  0  0  0  0
 13 29  1  0  0  0  0
 14 30  1  0  0  0  0
 15 24  1  0  0  0  0
 15 28  2  0  0  0  0
 16 25  1  0  0  0  0
 16 26  2  0  0  0  0
 17 30  2  0  0  0  0
 17 31  1  0  0  0  0
 18 32  1  0  0  0  0
 19 25  2  0  0  0  0
 19 36  1  0  0  0  0
 20 32  1  0  0  0  0
 20 33  2  0  0  0  0
 20 37  1  0  0  0  0
 21 23  2  0  0  0  0
 21 42  1  0  0  0  0
 22 24  2  0  0  0  0
 22 43  1  0  0  0  0
 23 54  1  0  0  0  0
 24 44  1  0  0  0  0
 25 57  1  0  0  0  0
 26 73  1  0  0  0  0
 27 83  1  0  0  0  0
 28 84  1  0  0  0  0
 29 31  2  0  0  0  0
 29 83  1  0  0  0  0
 30 85  1  0  0  0  0
 31 86  1  0  0  0  0
 32 66  2  0  0  0  0
 33 67  1  0  0  0  0
 33 71  1  0  0  0  0
 34 35  2  0  0  0  0
 34 45  1  0  0  0  0
 34 46  1  0  0  0  0
 35 84  1  0  0  0  0
 36 68  1  0  0  0  0
 36 77  2  0  0  0  0
 37 72  1  0  0  0  0
 37 78  2  0  0  0  0
 38 55  1  0  0  0  0
 38 74  1  0  0  0  0
 38 79  2  0  0  0  0
 39 63  1  0  0  0  0
 39 69  1  0  0  0  0
 39 80  2  0  0  0  0
 40 64  1  0  0  0  0
 40 75  1  0  0  0  0
 40 81  2  0  0  0  0
 41 70  1  0  0  0  0
 41 73  1  0  0  0  0
 41 82  2  0  0  0  0
 42 47  1  0  0  0  0
 43 55  1  0  0  0  0
 44 69  1  0  0  0  0
 45 51  1  0  0  0  0
 46 68  1  0  0  0  0
 47 49  1  0  0  0  0
 48 50  1  0  0  0  0
 48 52  1  0  0  0  0
 49 54  1  0  0  0  0
 50 56  1  0  0  0  0
 51 68  1  0  0  0  0
 52 70  1  0  0  0  0
 53 56  1  0  0  0  0
 53 70  1  0  0  0  0
 54 74  1  0  0  0  0
 55 69  1  0  0  0  0
 56 67  1  0  0  0  0
 58 64  1  0  0  0  0
 59 65  1  0  0  0  0
 60 65  1  0  0  0  0
 61 65  1  0  0  0  0
 62 76  1  0  0  0  0
 63 65  1  0  0  0  0
 63 75  1  0  0  0  0
 64 76  1  0  0  0  0
 66 67  1  0  0  0  0
M  CHG  1  76   1
M  ISO  4  35 101  41 100  73 100  84 101
M  END
> <Batch ID>
0118

> <Smiles>
CNC(C)C(=O)NC(C(=O)N1Cc2cc([101O:1][101CH:1]=C3CCN(C(=O)c4ccc([100NH:0][100C:0](=O)N5CCCC(n6nc(-c7ccc(Oc8ccc(F)cc8F)cc7)c(C(N)=O)c6N)C5)cc4C)C3)ccc2CC1C(=O)NC1CCCc2ccccc21)C(C)(C)C

> <Shape>
0.257

> <Color>
0.059

> <Negative vol penalty>
0.000

$$$$

  -OEChem-04052301483D

 83 91  0     1  0  0  0  0  0999 V2000
  -26.0319  -37.9835   24.3864 C   0  0  0  0  0  0  0  0  0  0  0  0
  -26.7816  -37.2569   23.4670 C   0  0  0  0  0  0  0  0  0  0  0  0
  -22.5934  -10.3899   20.6074 C   0  0  0  0  0  0  0  0  0  0  0  0
  -24.3327   -9.5090   22.0343 C   0  0  0  0  0  0  0  0  0  0  0  0
  -25.3028  -37.3179   25.3710 C   0  0  0  0  0  0  0  0  0  0  0  0
  -26.8037  -35.8642   23.5325 C   0  0  0  0  0  0  0  0  0  0  0  0
  -27.2699  -30.0843   19.3263 C   0  0  0  0  0  0  0  0  0  0  0  0
  -22.0079   -9.1257   20.5406 C   0  0  0  0  0  0  0  0  0  0  0  0
  -23.7470   -8.2448   21.9676 C   0  0  0  0  0  0  0  0  0  0  0  0
  -28.0071  -28.9090   19.1886 C   0  0  0  0  0  0  0  0  0  0  0  0
  -22.5090   -4.8630   22.4666 C   0  0  0  0  0  0  0  0  0  0  0  0
  -22.3833   -4.1422   23.6541 C   0  0  0  0  0  0  0  0  0  0  0  0
  -26.6457  -27.8635   20.8835 C   0  0  0  0  0  0  0  0  0  0  0  0
  -28.7077  -20.3967   22.5113 C   0  0  0  0  0  0  0  0  0  0  0  0
  -21.0163   -5.9060   24.5802 C   0  0  0  0  0  0  0  0  0  0  0  0
  -23.7559  -10.5816   21.3542 C   0  0  0  0  0  0  0  0  0  0  0  0
  -24.0987  -12.8975   22.3675 C   0  0  0  0  0  0  0  0  0  0  0  0
  -25.3083  -35.9160   25.4426 C   0  0  0  0  0  0  0  0  0  0  0  0
  -26.2202  -30.1616   20.2529 C   0  0  0  0  0  0  0  0  0  0  0  0
  -26.0751  -35.1793   24.5198 C   0  0  0  0  0  0  0  0  0  0  0  0
  -25.8950  -29.0401   21.0292 C   0  0  0  0  0  0  0  0  0  0  0  0
  -28.9746  -19.0536   22.9049 C   0  0  0  0  0  0  0  0  0  0  0  0
  -22.5846   -8.0532   21.2207 C   0  0  0  0  0  0  0  0  0  0  0  0
  -27.6970  -27.7993   19.9693 C   0  0  0  0  0  0  0  0  0  0  0  0
  -21.8883   -6.1054   22.3359 C   0  0  0  0  0  0  0  0  0  0  0  0
  -21.6370   -4.6636   24.7109 C   0  0  0  0  0  0  0  0  0  0  0  0
  -21.1420   -6.6268   23.3926 C   0  0  0  0  0  0  0  0  0  0  0  0
  -24.3616  -11.8871   21.4230 C   0  0  0  0  0  0  0  0  0  0  0  0
  -30.0292  -18.5092   22.2056 C   0  0  0  0  0  0  0  0  0  0  0  0
  -24.9242  -13.9325   22.0018 C   0  0  0  0  0  0  0  0  0  0  0  0
  -29.5689  -20.8279   21.5261 C   0  0  0  0  0  0  0  0  0  0  0  0
  -23.1897  -12.9001   23.4763 C   0  0  0  0  0  0  0  0  0  0  0  0
  -25.6312  -31.9217   22.8334 C   0  0  0  0  0  0  0  0  0  0  0  0
  -28.9469  -24.3604   20.4231 C   0  0  0  0  0  0  0  0  0  0  0  0
  -22.7560  -30.4241   22.7203 C   0  0  0  0  0  0  0  0  0  0  0  0
  -20.9330  -27.7257   21.6994 C   0  0  0  0  0  0  0  0  0  0  0  0
  -29.9004  -15.8343   20.3387 C   0  0  0  0  0  0  0  0  0  0  0  0
  -24.5423  -35.2429   26.5538 C   0  0  0  0  0  0  0  0  0  0  0  0
  -25.4173  -31.4281   20.3703 C   0  0  0  0  0  0  0  0  0  0  0  0
  -24.7644  -29.0651   22.0240 C   0  0  0  0  0  0  0  0  0  0  0  0
  -24.3197  -33.7504   26.3230 C   0  0  0  0  0  0  0  0  0  0  0  0
  -27.6930  -14.6171   17.8242 C   0  0  0  0  0  0  0  0  0  0  0  0
  -25.6143  -33.0810   25.8728 C   0  0  0  0  0  0  0  0  0  0  0  0
  -26.6119  -13.8768   18.6137 C   0  0  0  0  0  0  0  0  0  0  0  0
  -29.0712  -14.4488   18.4601 C   0  0  0  0  0  0  0  0  0  0  0  0
  -28.0623  -14.0727   20.6769 C   0  0  0  0  0  0  0  0  0  0  0  0
  -26.1046  -33.6664   24.5430 C   0  0  1  0  0  0  0  0  0  0  0  0
  -24.7007  -31.5591   21.7107 C   0  0  1  0  0  0  0  0  0  0  0  0
  -26.6462  -14.2592   20.1057 C   0  0  2  0  0  0  0  0  0  0  0  0
  -28.2006  -18.3365   23.9461 C   0  0  0  0  0  0  0  0  0  0  0  0
  -18.6160  -26.7660   21.7882 C   0  0  0  0  0  0  0  0  0  0  0  0
  -23.2094  -29.6044   25.6242 C   0  0  0  0  0  0  0  0  0  0  0  0
  -21.3889  -27.9066   25.3563 C   0  0  0  0  0  0  0  0  0  0  0  0
  -20.8758  -30.3342   25.0984 C   0  0  0  0  0  0  0  0  0  0  0  0
  -20.6744  -27.7751   18.7516 C   0  0  0  0  0  0  0  0  0  0  0  0
  -30.6161  -17.1543   22.3147 C   0  0  0  0  0  0  0  0  0  0  0  0
  -28.6551  -23.1346   21.2624 C   0  0  0  0  0  0  0  0  0  0  0  0
  -28.0432  -25.5529   20.6691 C   0  0  0  0  0  0  0  0  0  1  0  0
  -22.1923  -29.1472   23.2956 C   0  0  1  0  0  0  0  0  0  0  0  0
  -19.5910  -27.6240   20.9971 C   0  0  2  0  0  0  0  0  0  0  0  0
  -21.9392  -29.2479   24.8263 C   0  0  0  0  0  0  0  0  0  0  0  0
  -25.2819  -12.2478   20.5248 N   0  0  0  0  0  0  0  0  0  0  0  0
  -25.6046  -13.4964   20.9031 N   0  0  0  0  0  0  0  0  0  0  0  0
  -24.0130  -30.3285   22.1066 N   0  0  0  0  0  0  0  0  0  0  0  0
  -29.0357  -14.8296   19.8742 N   0  0  0  0  0  0  0  0  0  0  0  0
  -25.1271  -15.1641   22.5160 N   0  0  0  0  0  0  0  0  0  0  0  0
  -22.4170  -11.7543   23.7094 N   0  0  0  0  0  0  0  0  0  0  0  0
  -29.5763  -22.0792   20.9268 N   0  0  0  0  0  0  0  0  0  0  0  0
  -25.3375  -33.1279   23.4402 N   0  0  0  0  0  0  0  0  0  0  0  0
  -21.0012  -28.8374   22.5121 N   0  0  0  0  0  0  0  0  0  0  0  0
  -29.7977  -16.1387   21.6905 N   0  0  0  0  0  0  0  0  0  0  0  0
  -19.7584  -27.0201   19.6450 N   0  3  0  0  0  0  0  0  0  0  0  0
  -23.0544  -13.8952   24.2279 O   0  0  0  0  0  0  0  0  0  0  0  0
  -26.5469  -31.1626   23.1282 O   0  0  0  0  0  0  0  0  0  0  0  0
  -29.8544  -24.3978   19.5931 O   0  0  0  0  0  0  0  0  0  0  0  0
  -22.1018  -31.4664   22.8058 O   0  0  0  0  0  0  0  0  0  0  0  0
  -21.8296  -26.8993   21.5455 O   0  0  0  0  0  0  0  0  0  0  0  0
  -30.7007  -16.4207   19.6020 O   0  0  0  0  0  0  0  0  0  0  0  0
  -22.0133   -6.8195   21.1560 O   0  0  0  0  0  0  0  0  0  0  0  0
  -28.4154  -26.6512   19.8374 O   0  0  0  0  0  0  0  0  0  1  0  0
  -21.5151   -3.9706   25.8506 F   0  0  0  0  0  0  0  0  0  0  0  0
  -20.5424   -7.8193   23.2725 F   0  0  0  0  0  0  0  0  0  0  0  0
  -30.6929  -19.6157   21.0797 S   0  0  0  0  0  0  0  0  0  0  0  0
  1  2  1  0  0  0  0
  1  5  2  0  0  0  0
  2  6  2  0  0  0  0
  3  8  2  0  0  0  0
  3 16  1  0  0  0  0
  4  9  1  0  0  0  0
  4 16  2  0  0  0  0
  5 18  1  0  0  0  0
  6 20  1  0  0  0  0
  7 10  2  0  0  0  0
  7 19  1  0  0  0  0
  8 23  1  0  0  0  0
  9 23  2  0  0  0  0
 10 24  1  0  0  0  0
 11 12  2  0  0  0  0
 11 25  1  0  0  0  0
 12 26  1  0  0  0  0
 13 21  1  0  0  0  0
 13 24  2  0  0  0  0
 14 22  1  0  0  0  0
 14 31  2  0  0  0  0
 15 26  2  0  0  0  0
 15 27  1  0  0  0  0
 16 28  1  0  0  0  0
 17 28  1  0  0  0  0
 17 30  2  0  0  0  0
 17 32  1  0  0  0  0
 18 20  2  0  0  0  0
 18 38  1  0  0  0  0
 19 21  2  0  0  0  0
 19 39  1  0  0  0  0
 20 47  1  0  0  0  0
 21 40  1  0  0  0  0
 22 29  2  0  0  0  0
 22 50  1  0  0  0  0
 23 79  1  0  0  0  0
 24 80  1  0  0  0  0
 25 27  2  0  0  0  0
 25 79  1  0  0  0  0
 26 81  1  0  0  0  0
 27 82  1  0  0  0  0
 28 62  2  0  0  0  0
 29 56  1  0  0  0  0
 29 83  1  0  0  0  0
 30 63  1  0  0  0  0
 30 66  1  0  0  0  0
 31 68  1  0  0  0  0
 31 83  1  0  0  0  0
 32 67  1  0  0  0  0
 32 73  2  0  0  0  0
 33 48  1  0  0  0  0
 33 69  1  0  0  0  0
 33 74  2  0  0  0  0
 34 57  1  0  0  0  0
 34 58  1  0  0  0  0
 34 75  2  0  0  0  0
 35 59  1  0  0  0  0
 35 64  1  0  0  0  0
 35 76  2  0  0  0  0
 36 60  1  0  0  0  0
 36 70  1  0  0  0  0
 36 77  2  0  0  0  0
 37 65  1  0  0  0  0
 37 71  1  0  0  0  0
 37 78  2  0  0  0  0
 38 41  1  0  0  0  0
 39 48  1  0  0  0  0
 40 64  1  0  0  0  0
 41 43  1  0  0  0  0
 42 44  1  0  0  0  0
 42 45  1  0  0  0  0
 43 47  1  0  0  0  0
 44 49  1  0  0  0  0
 45 65  1  0  0  0  0
 46 49  1  0  0  0  0
 46 65  1  0  0  0  0
 47 69  1  0  0  0  0
 48 64  1  0  0  0  0
 49 63  1  0  0  0  0
 51 60  1  0  0  0  0
 52 61  1  0  0  0  0
 53 61  1  0  0  0  0
 54 61  1  0  0  0  0
 55 72  1  0  0  0  0
 56 71  1  0  0  0  0
 57 68  1  0  0  0  0
 58 80  1  0  0  0  0
 59 61  1  0  0  0  0
 59 70  1  0  0  0  0
 60 72  1  0  0  0  0
 62 63  1  0  0  0  0
M  CHG  1  72   1
M  ISO  4  37 100  58 101  71 100  80 101
M  END
> <Batch ID>
0118

> <Smiles>
CNC(C)C(=O)NC(C(=O)N1Cc2cc([101O:1][101CH2:1]C(=O)CNc3cc(C)c(C[100NH:0][100C:0](=O)N4CCCC(n5nc(-c6ccc(Oc7ccc(F)cc7F)cc6)c(C(N)=O)c5N)C4)s3)ccc2CC1C(=O)NC1CCCc2ccccc21)C(C)(C)C

> <Shape>
0.378

> <Color>
0.144

> <Negative vol penalty>
0.000

$$$$

  -OEChem-04052301483D

 83 91  0     1  0  0  0  0  0999 V2000
  -21.1061  -29.5286   25.0146 C   0  0  0  0  0  0  0  0  0  0  0  0
  -21.4847  -28.2780   25.4923 C   0  0  0  0  0  0  0  0  0  0  0  0
  -25.3544  -11.3983   20.2083 C   0  0  0  0  0  0  0  0  0  0  0  0
  -29.5120  -23.5827   20.9203 C   0  0  0  0  0  0  0  0  0  0  0  0
  -27.2473  -23.4304   20.0925 C   0  0  0  0  0  0  0  0  0  0  0  0
  -24.4063  -11.5405   21.2215 C   0  0  0  0  0  0  0  0  0  0  0  0
  -20.3361  -29.6274   23.8565 C   0  0  0  0  0  0  0  0  0  0  0  0
  -21.0925  -27.1254   24.8126 C   0  0  0  0  0  0  0  0  0  0  0  0
  -23.3506  -20.4988   23.2941 C   0  0  0  0  0  0  0  0  0  0  0  0
  -26.0685  -12.5097   19.7604 C   0  0  0  0  0  0  0  0  0  0  0  0
  -29.5362  -24.9411   20.6042 C   0  0  0  0  0  0  0  0  0  0  0  0
  -27.2715  -24.7888   19.7765 C   0  0  0  0  0  0  0  0  0  0  0  0
  -22.9265  -19.1728   23.3688 C   0  0  0  0  0  0  0  0  0  0  0  0
  -26.6098  -28.2960   19.0838 C   0  0  0  0  0  0  0  0  0  0  0  0
  -25.4986  -29.0636   19.4325 C   0  0  0  0  0  0  0  0  0  0  0  0
  -24.8862  -13.9055   21.3386 C   0  0  0  0  0  0  0  0  0  0  0  0
  -21.6640  -19.4684   21.3346 C   0  0  0  0  0  0  0  0  0  0  0  0
  -25.8392  -28.5007   21.7572 C   0  0  0  0  0  0  0  0  0  0  0  0
  -28.3676  -22.8274   20.6644 C   0  0  0  0  0  0  0  0  0  0  0  0
  -24.1721  -12.7941   21.7866 C   0  0  0  0  0  0  0  0  0  0  0  0
  -27.9370  -20.8406   22.2055 C   0  0  0  0  0  0  0  0  0  0  0  0
  -19.9424  -28.4757   23.1569 C   0  0  0  0  0  0  0  0  0  0  0  0
  -22.9252  -21.3241   22.2432 C   0  0  0  0  0  0  0  0  0  0  0  0
  -20.3153  -27.2087   23.6448 C   0  0  0  0  0  0  0  0  0  0  0  0
  -22.0862  -20.8038   21.2475 C   0  0  0  0  0  0  0  0  0  0  0  0
  -25.8343  -13.7633   20.3255 C   0  0  0  0  0  0  0  0  0  0  0  0
  -28.4160  -25.5441   20.0324 C   0  0  0  0  0  0  0  0  0  0  0  0
  -22.0807  -18.6583   22.3905 C   0  0  0  0  0  0  0  0  0  0  0  0
  -27.3357  -27.6307   20.0718 C   0  0  0  0  0  0  0  0  0  0  0  0
  -25.1133  -29.1660   20.7692 C   0  0  0  0  0  0  0  0  0  0  0  0
  -26.9504  -27.7331   21.4085 C   0  0  0  0  0  0  0  0  0  0  0  0
  -28.3422  -21.4240   20.9901 C   0  0  0  0  0  0  0  0  0  0  0  0
  -28.0986  -19.4909   22.0092 C   0  0  0  0  0  0  0  0  0  0  0  0
  -23.3855  -12.2262   23.9772 C   0  0  0  0  0  0  0  0  0  0  0  0
  -21.9960  -13.8066   22.7650 C   0  0  0  0  0  0  0  0  0  0  0  0
  -21.6699  -14.5684   21.7084 C   0  0  0  0  0  0  0  0  0  0  0  0
  -23.1679  -12.9433   22.8598 C   0  0  0  0  0  0  0  0  0  0  0  0
  -27.4573  -21.4631   23.4047 C   0  0  0  0  0  0  0  0  0  0  0  0
  -21.2352  -24.0088   22.0426 C   0  0  0  0  0  0  0  0  0  0  0  0
  -22.0536  -23.8300   18.9088 C   0  0  0  0  0  0  0  0  0  0  0  0
  -23.0174  -21.8892   16.2723 C   0  0  0  0  0  0  0  0  0  0  0  0
  -27.5369  -14.9229   18.8753 C   0  0  0  0  0  0  0  0  0  0  0  0
  -19.0706  -28.6305   21.9360 C   0  0  0  0  0  0  0  0  0  0  0  0
  -23.4132  -22.7446   22.1625 C   0  0  0  0  0  0  0  0  0  0  0  0
  -21.6172  -21.6426   20.0877 C   0  0  0  0  0  0  0  0  0  0  0  0
  -19.0121  -27.3772   21.0664 C   0  0  0  0  0  0  0  0  0  0  0  0
  -30.3978  -16.9568   18.2790 C   0  0  0  0  0  0  0  0  0  0  0  0
  -18.7803  -26.1400   21.9280 C   0  0  0  0  0  0  0  0  0  0  0  0
  -30.0847  -18.2524   19.0311 C   0  0  0  0  0  0  0  0  0  0  0  0
  -29.1473  -16.3560   17.6393 C   0  0  0  0  0  0  0  0  0  0  0  0
  -27.7030  -17.4531   19.3066 C   0  0  0  0  0  0  0  0  0  0  0  0
  -19.9304  -25.9363   22.9217 C   0  0  1  0  0  0  0  0  0  0  0  0
  -22.5048  -23.6419   21.3276 C   0  0  1  0  0  0  0  0  0  0  0  0
  -28.9202  -18.0611   20.0225 C   0  0  2  0  0  0  0  0  0  0  0  0
  -23.5729  -22.0208   13.8286 C   0  0  0  0  0  0  0  0  0  0  0  0
  -19.0840  -24.0657   18.2488 C   0  0  0  0  0  0  0  0  0  0  0  0
  -19.6036  -23.2491   15.9399 C   0  0  0  0  0  0  0  0  0  0  0  0
  -20.5926  -25.3888   16.7562 C   0  0  0  0  0  0  0  0  0  0  0  0
  -25.7745  -20.9145   16.7279 C   0  0  0  0  0  0  0  0  0  0  0  0
  -20.4439  -15.4392   21.6601 C   0  0  0  0  0  0  0  0  0  0  0  0
  -20.7988  -16.9031   21.4252 C   0  0  0  0  0  0  0  0  0  1  0  0
  -21.4475  -23.1962   17.6800 C   0  0  1  0  0  0  0  0  0  0  0  0
  -24.1227  -22.0610   15.2460 C   0  0  2  0  0  0  0  0  0  0  0  0
  -20.1890  -23.9594   17.1790 C   0  0  0  0  0  0  0  0  0  0  0  0
  -28.7321  -20.5190   20.0884 N   0  0  0  0  0  0  0  0  0  0  0  0
  -28.5727  -19.3533   20.7377 N   0  0  0  0  0  0  0  0  0  0  0  0
  -22.1167  -23.0271   20.0565 N   0  0  0  0  0  0  0  0  0  0  0  0
  -28.0883  -16.1999   18.6389 N   0  0  0  0  0  0  0  0  0  0  0  0
  -27.8801  -18.4202   22.8018 N   0  0  0  0  0  0  0  0  0  0  0  0
  -27.3526  -22.8604   23.4363 N   0  0  0  0  0  0  0  0  0  0  0  0
  -26.5608  -14.8916   19.8707 N   0  0  0  0  0  0  0  0  0  0  0  0
  -21.0803  -25.3656   22.2536 N   0  0  0  0  0  0  0  0  0  0  0  0
  -22.5212  -23.1037   16.6966 N   0  0  0  0  0  0  0  0  0  0  0  0
  -25.1349  -20.9766   15.3884 N   0  3  0  0  0  0  0  0  0  0  0  0
  -27.1468  -20.8010   24.4238 O   0  0  0  0  0  0  0  0  0  0  0  0
  -20.4533  -23.1264   22.3767 O   0  0  0  0  0  0  0  0  0  0  0  0
  -22.4628  -24.9923   18.8504 O   0  0  0  0  0  0  0  0  0  0  0  0
  -22.6302  -20.7878   16.6561 O   0  0  0  0  0  0  0  0  0  0  0  0
  -27.9228  -13.9254   18.2605 O   0  0  0  0  0  0  0  0  0  0  0  0
  -28.4391  -26.8697   19.7241 O   0  0  0  0  0  0  0  0  0  0  0  0
  -21.6647  -17.3645   22.4613 O   0  0  0  0  0  0  0  0  0  1  0  0
  -24.0471  -29.9044   21.1041 F   0  0  0  0  0  0  0  0  0  0  0  0
  -27.6446  -27.0972   22.3622 F   0  0  0  0  0  0  0  0  0  0  0  0
  1  2  1  0  0  0  0
  1  7  2  0  0  0  0
  2  8  2  0  0  0  0
  3  6  2  0  0  0  0
  3 10  1  0  0  0  0
  4 11  2  0  0  0  0
  4 19  1  0  0  0  0
  5 12  1  0  0  0  0
  5 19  2  0  0  0  0
  6 20  1  0  0  0  0
  7 22  1  0  0  0  0
  8 24  1  0  0  0  0
  9 13  2  0  0  0  0
  9 23  1  0  0  0  0
 10 26  2  0  0  0  0
 11 27  1  0  0  0  0
 12 27  2  0  0  0  0
 13 28  1  0  0  0  0
 14 15  2  0  0  0  0
 14 29  1  0  0  0  0
 15 30  1  0  0  0  0
 16 20  2  0  0  0  0
 16 26  1  0  0  0  0
 17 25  1  0  0  0  0
 17 28  2  0  0  0  0
 18 30  2  0  0  0  0
 18 31  1  0  0  0  0
 19 32  1  0  0  0  0
 20 37  1  0  0  0  0
 21 32  1  0  0  0  0
 21 33  2  0  0  0  0
 21 38  1  0  0  0  0
 22 24  2  0  0  0  0
 22 43  1  0  0  0  0
 23 25  2  0  0  0  0
 23 44  1  0  0  0  0
 24 52  1  0  0  0  0
 25 45  1  0  0  0  0
 26 71  1  0  0  0  0
 27 80  1  0  0  0  0
 28 81  1  0  0  0  0
 29 31  2  0  0  0  0
 29 80  1  0  0  0  0
 30 82  1  0  0  0  0
 31 83  1  0  0  0  0
 32 65  2  0  0  0  0
 33 66  1  0  0  0  0
 33 69  1  0  0  0  0
 34 37  2  0  0  0  0
 35 36  2  0  0  0  0
 35 37  1  0  0  0  0
 36 60  1  0  0  0  0
 38 70  1  0  0  0  0
 38 75  2  0  0  0  0
 39 53  1  0  0  0  0
 39 72  1  0  0  0  0
 39 76  2  0  0  0  0
 40 62  1  0  0  0  0
 40 67  1  0  0  0  0
 40 77  2  0  0  0  0
 41 63  1  0  0  0  0
 41 73  1  0  0  0  0
 41 78  2  0  0  0  0
 42 68  1  0  0  0  0
 42 71  1  0  0  0  0
 42 79  2  0  0  0  0
 43 46  1  0  0  0  0
 44 53  1  0  0  0  0
 45 67  1  0  0  0  0
 46 48  1  0  0  0  0
 47 49  1  0  0  0  0
 47 50  1  0  0  0  0
 48 52  1  0  0  0  0
 49 54  1  0  0  0  0
 50 68  1  0  0  0  0
 51 54  1  0  0  0  0
 51 68  1  0  0  0  0
 52 72  1  0  0  0  0
 53 67  1  0  0  0  0
 54 66  1  0  0  0  0
 55 63  1  0  0  0  0
 56 64  1  0  0  0  0
 57 64  1  0  0  0  0
 58 64  1  0  0  0  0
 59 74  1  0  0  0  0
 60 61  1  0  0  0  0
 61 81  1  0  0  0  0
 62 64  1  0  0  0  0
 62 73  1  0  0  0  0
 63 74  1  0  0  0  0
 65 66  1  0  0  0  0
M  CHG  1  74   1
M  ISO  4  42 100  61 101  71 100  81 101
M  END
> <Batch ID>
0118

> <Smiles>
C=C(C=CC[101CH2:1][101O:1]c1ccc2c(c1)CN(C(=O)C(NC(=O)C(C)NC)C(C)(C)C)C(C(=O)NC1CCCc3ccccc31)C2)c1cccc([100NH:0][100C:0](=O)N2CCCC(n3nc(-c4ccc(Oc5ccc(F)cc5F)cc4)c(C(N)=O)c3N)C2)c1

> <Shape>
0.197

> <Color>
0.088

> <Negative vol penalty>
0.000

$$$$

  -OEChem-04052301483D

 84 92  0     1  0  0  0  0  0999 V2000
  -20.9369  -19.1156   16.3572 C   0  0  0  0  0  0  0  0  0  0  0  0
  -22.0474  -19.8974   16.6589 C   0  0  0  0  0  0  0  0  0  0  0  0
  -23.1831   -9.5422   20.0527 C   0  0  0  0  0  0  0  0  0  0  0  0
  -23.4098   -9.6660   22.4548 C   0  0  0  0  0  0  0  0  0  0  0  0
  -19.6765  -19.7040   16.2626 C   0  0  0  0  0  0  0  0  0  0  0  0
  -21.8981  -21.2684   16.8652 C   0  0  0  0  0  0  0  0  0  0  0  0
  -24.4627  -22.9149   20.9096 C   0  0  0  0  0  0  0  0  0  0  0  0
  -23.1209   -8.1509   20.1303 C   0  0  0  0  0  0  0  0  0  0  0  0
  -23.3475   -8.2747   22.5324 C   0  0  0  0  0  0  0  0  0  0  0  0
  -25.8375  -23.0940   20.7622 C   0  0  0  0  0  0  0  0  0  0  0  0
  -20.9648   -5.8803   22.4325 C   0  0  0  0  0  0  0  0  0  0  0  0
  -20.1480   -5.3235   23.4165 C   0  0  0  0  0  0  0  0  0  0  0  0
  -28.7938  -20.9550   17.7275 C   0  0  0  0  0  0  0  0  0  0  0  0
  -25.4920  -25.4644   20.4776 C   0  0  0  0  0  0  0  0  0  0  0  0
  -22.0663   -4.2171   24.3827 C   0  0  0  0  0  0  0  0  0  0  0  0
  -30.5085  -21.7472   16.2822 C   0  0  0  0  0  0  0  0  0  0  0  0
  -23.3277  -10.2998   21.2150 C   0  0  0  0  0  0  0  0  0  0  0  0
  -28.5899  -19.8930   16.8536 C   0  0  0  0  0  0  0  0  0  0  0  0
  -22.3149  -12.6410   21.1908 C   0  0  0  0  0  0  0  0  0  0  0  0
  -19.5102  -21.0813   16.4774 C   0  0  0  0  0  0  0  0  0  0  0  0
  -23.5898  -24.0096   20.8311 C   0  0  0  0  0  0  0  0  0  0  0  0
  -20.6345  -21.8760   16.7721 C   0  0  0  0  0  0  0  0  0  0  0  0
  -24.1068  -25.2969   20.6269 C   0  0  0  0  0  0  0  0  0  0  0  0
  -29.7694  -21.9042   17.4436 C   0  0  0  0  0  0  0  0  0  0  0  0
  -23.2030   -7.5171   21.3701 C   0  0  0  0  0  0  0  0  0  0  0  0
  -26.3520  -24.3685   20.5433 C   0  0  0  0  0  0  0  0  0  0  0  0
  -22.3324   -5.6054   22.4234 C   0  0  0  0  0  0  0  0  0  0  0  0
  -20.6987   -4.4920   24.3917 C   0  0  0  0  0  0  0  0  0  0  0  0
  -22.8831   -4.7739   23.3986 C   0  0  0  0  0  0  0  0  0  0  0  0
  -23.3926  -11.7370   21.1355 C   0  0  0  0  0  0  0  0  0  0  0  0
  -29.3816  -19.8262   15.7184 C   0  0  0  0  0  0  0  0  0  0  0  0
  -22.8986  -13.8787   21.0727 C   0  0  0  0  0  0  0  0  0  0  0  0
  -29.9922  -18.6263   13.6683 C   0  0  0  0  0  0  0  0  0  0  0  0
  -27.5645  -18.9071   17.1642 C   0  0  0  0  0  0  0  0  0  0  0  0
  -29.2360  -18.7475   14.7484 C   0  0  0  0  0  0  0  0  0  0  0  0
  -27.5207  -18.1497   18.2799 C   0  0  0  0  0  0  0  0  0  0  0  0
  -29.3055  -24.0538   18.0670 C   0  0  0  0  0  0  0  0  0  0  0  0
  -20.9117  -12.3849   21.3359 C   0  0  0  0  0  0  0  0  0  0  0  0
  -26.4056  -17.1975   18.4552 C   0  0  0  0  0  0  0  0  0  0  0  0
  -21.1969  -24.8372   18.9094 C   0  0  0  0  0  0  0  0  0  0  0  0
  -20.8562  -27.2726   21.0248 C   0  0  0  0  0  0  0  0  0  0  0  0
  -22.2812  -29.2721   23.3951 C   0  0  0  0  0  0  0  0  0  0  0  0
  -18.1353  -21.6801   16.3178 C   0  0  0  0  0  0  0  0  0  0  0  0
  -22.1118  -23.8032   21.0189 C   0  0  0  0  0  0  0  0  0  0  0  0
  -23.2140  -26.5077   20.5548 C   0  0  0  0  0  0  0  0  0  0  0  0
  -18.0057  -23.0770   16.9197 C   0  0  0  0  0  0  0  0  0  0  0  0
  -27.7365  -15.2859   21.2847 C   0  0  0  0  0  0  0  0  0  0  0  0
  -19.1896  -23.9470   16.5094 C   0  0  0  0  0  0  0  0  0  0  0  0
  -26.6465  -14.2330   21.4664 C   0  0  0  0  0  0  0  0  0  0  0  0
  -27.9265  -15.6647   19.8168 C   0  0  0  0  0  0  0  0  0  0  0  0
  -25.5771  -15.0469   19.3277 C   0  0  0  0  0  0  0  0  0  0  0  0
  -20.5093  -23.3624   17.0271 C   0  0  1  0  0  0  0  0  0  0  0  0
  -21.2703  -24.9194   20.4079 C   0  0  1  0  0  0  0  0  0  0  0  0
  -25.3366  -14.6852   20.8017 C   0  0  1  0  0  0  0  0  0  0  0  0
  -21.7627  -31.1971   24.9192 C   0  0  0  0  0  0  0  0  0  0  0  0
  -21.0055  -29.1871   18.6537 C   0  0  0  0  0  0  0  0  0  0  0  0
  -21.4386  -31.0474   20.2723 C   0  0  0  0  0  0  0  0  0  0  0  0
  -19.2890  -29.7856   20.3712 C   0  0  0  0  0  0  0  0  0  0  0  0
  -22.8638  -27.6662   25.8119 C   0  0  0  0  0  0  0  0  0  0  0  0
  -29.4540  -25.2757   18.9336 C   0  0  0  0  0  0  0  0  0  0  0  0
  -28.1198  -25.6270   19.5700 C   0  0  0  0  0  0  0  0  0  1  0  0
  -21.4193  -28.6678   21.1487 C   0  0  1  0  0  0  0  0  0  0  0  0
  -21.8135  -29.6836   24.7795 C   0  0  2  0  0  0  0  0  0  0  0  0
  -20.8050  -29.6491   20.1108 C   0  0  0  0  0  0  0  0  0  0  0  0
  -30.3391  -20.7291   15.4091 N   0  0  0  0  0  0  0  0  0  0  0  0
  -24.5716  -12.3482   20.9932 N   0  0  0  0  0  0  0  0  0  0  0  0
  -29.9983  -22.9888   18.3069 N   0  0  0  0  0  0  0  0  0  0  0  0
  -24.2382  -13.6497   20.9580 N   0  0  0  0  0  0  0  0  0  0  0  0
  -26.6505  -16.0373   19.1875 N   0  0  0  0  0  0  0  0  0  0  0  0
  -21.7755  -26.2536   20.7381 N   0  0  0  0  0  0  0  0  0  0  0  0
  -22.3915  -15.1297   21.0568 N   0  0  0  0  0  0  0  0  0  0  0  0
  -20.4830  -11.0549   21.4442 N   0  0  0  0  0  0  0  0  0  0  0  0
  -20.6713  -23.6501   18.4362 N   0  0  0  0  0  0  0  0  0  0  0  0
  -21.2209  -29.0662   22.5380 N   0  0  0  0  0  0  0  0  0  0  0  0
  -22.7364  -29.1463   25.8189 N   0  3  0  0  0  0  0  0  0  0  0  0
  -20.0616  -13.3072   21.3522 O   0  0  0  0  0  0  0  0  0  0  0  0
  -25.3251  -17.4858   17.9376 O   0  0  0  0  0  0  0  0  0  0  0  0
  -21.5870  -25.7814   18.2327 O   0  0  0  0  0  0  0  0  0  0  0  0
  -19.6462  -27.0925   21.1839 O   0  0  0  0  0  0  0  0  0  0  0  0
  -23.4685  -29.1494   23.1022 O   0  0  0  0  0  0  0  0  0  0  0  0
  -23.1421   -6.1595   21.4462 O   0  0  0  0  0  0  0  0  0  0  0  0
  -27.6934  -24.5461   20.3984 O   0  0  0  0  0  0  0  0  0  1  0  0
  -19.9145   -3.9586   25.3376 F   0  0  0  0  0  0  0  0  0  0  0  0
  -24.1963   -4.5071   23.3958 F   0  0  0  0  0  0  0  0  0  0  0  0
  1  2  1  0  0  0  0
  1  5  2  0  0  0  0
  2  6  2  0  0  0  0
  3  8  2  0  0  0  0
  3 17  1  0  0  0  0
  4  9  1  0  0  0  0
  4 17  2  0  0  0  0
  5 20  1  0  0  0  0
  6 22  1  0  0  0  0
  7 10  2  0  0  0  0
  7 21  1  0  0  0  0
  8 25  1  0  0  0  0
  9 25  2  0  0  0  0
 10 26  1  0  0  0  0
 11 12  2  0  0  0  0
 11 27  1  0  0  0  0
 12 28  1  0  0  0  0
 13 18  1  0  0  0  0
 13 24  2  0  0  0  0
 14 23  1  0  0  0  0
 14 26  2  0  0  0  0
 15 28  2  0  0  0  0
 15 29  1  0  0  0  0
 16 24  1  0  0  0  0
 16 65  2  0  0  0  0
 17 30  1  0  0  0  0
 18 31  2  0  0  0  0
 18 34  1  0  0  0  0
 19 30  1  0  0  0  0
 19 32  2  0  0  0  0
 19 38  1  0  0  0  0
 20 22  2  0  0  0  0
 20 43  1  0  0  0  0
 21 23  2  0  0  0  0
 21 44  1  0  0  0  0
 22 52  1  0  0  0  0
 23 45  1  0  0  0  0
 24 67  1  0  0  0  0
 25 81  1  0  0  0  0
 26 82  1  0  0  0  0
 27 29  2  0  0  0  0
 27 81  1  0  0  0  0
 28 83  1  0  0  0  0
 29 84  1  0  0  0  0
 30 66  2  0  0  0  0
 31 35  1  0  0  0  0
 31 65  1  0  0  0  0
 32 68  1  0  0  0  0
 32 71  1  0  0  0  0
 33 35  2  0  0  0  0
 34 36  2  0  0  0  0
 36 39  1  0  0  0  0
 37 60  1  0  0  0  0
 37 67  2  0  0  0  0
 38 72  1  0  0  0  0
 38 76  2  0  0  0  0
 39 69  1  0  0  0  0
 39 77  2  0  0  0  0
 40 53  1  0  0  0  0
 40 73  1  0  0  0  0
 40 78  2  0  0  0  0
 41 62  1  0  0  0  0
 41 70  1  0  0  0  0
 41 79  2  0  0  0  0
 42 63  1  0  0  0  0
 42 74  1  0  0  0  0
 42 80  2  0  0  0  0
 43 46  1  0  0  0  0
 44 53  1  0  0  0  0
 45 70  1  0  0  0  0
 46 48  1  0  0  0  0
 47 49  1  0  0  0  0
 47 50  1  0  0  0  0
 48 52  1  0  0  0  0
 49 54  1  0  0  0  0
 50 69  1  0  0  0  0
 51 54  1  0  0  0  0
 51 69  1  0  0  0  0
 52 73  1  0  0  0  0
 53 70  1  0  0  0  0
 54 68  1  0  0  0  0
 55 63  1  0  0  0  0
 56 64  1  0  0  0  0
 57 64  1  0  0  0  0
 58 64  1  0  0  0  0
 59 75  1  0  0  0  0
 60 61  1  0  0  0  0
 61 82  1  0  0  0  0
 62 64  1  0  0  0  0
 62 74  1  0  0  0  0
 63 75  1  0  0  0  0
 66 68  1  0  0  0  0
M  CHG  1  75   1
M  ISO  4  36 100  39 100  61 101  82 101
M  END
> <Batch ID>
0118

> <Smiles>
C=Cc1ncc(NC=C[101CH2:1][101O:1]c2ccc3c(c2)CN(C(=O)C(NC(=O)C(C)NC)C(C)(C)C)C(C(=O)NC2CCCc4ccccc42)C3)cc1C=[100CH:0][100C:0](=O)N1CCCC(n2nc(-c3ccc(Oc4ccc(F)cc4F)cc3)c(C(N)=O)c2N)C1

> <Shape>
0.181

> <Color>
0.090

> <Negative vol penalty>
0.000

$$$$

  -OEChem-04052301483D

 85 93  0     1  0  0  0  0  0999 V2000
  -30.2490  -35.0028   26.0399 C   0  0  0  0  0  0  0  0  0  0  0  0
  -30.4130  -34.4255   24.7848 C   0  0  0  0  0  0  0  0  0  0  0  0
  -24.3611   -8.3816   20.4746 C   0  0  0  0  0  0  0  0  0  0  0  0
  -22.8785  -10.2341   20.9296 C   0  0  0  0  0  0  0  0  0  0  0  0
  -29.3574  -34.4415   26.9530 C   0  0  0  0  0  0  0  0  0  0  0  0
  -29.6862  -33.2858   24.4425 C   0  0  0  0  0  0  0  0  0  0  0  0
  -26.6276  -30.1000   18.8023 C   0  0  0  0  0  0  0  0  0  0  0  0
  -23.3782   -7.4896   20.9032 C   0  0  0  0  0  0  0  0  0  0  0  0
  -21.8955   -9.3421   21.3582 C   0  0  0  0  0  0  0  0  0  0  0  0
  -26.6015  -28.8725   18.1418 C   0  0  0  0  0  0  0  0  0  0  0  0
  -22.1471   -6.3647   23.8431 C   0  0  0  0  0  0  0  0  0  0  0  0
  -22.5379   -5.3302   24.6933 C   0  0  0  0  0  0  0  0  0  0  0  0
  -25.0313  -28.0361   19.7709 C   0  0  0  0  0  0  0  0  0  0  0  0
  -28.3225  -19.7327   18.3550 C   0  0  0  0  0  0  0  0  0  0  0  0
  -28.2751  -20.2657   20.7110 C   0  0  0  0  0  0  0  0  0  0  0  0
  -21.7800   -3.7096   23.0696 C   0  0  0  0  0  0  0  0  0  0  0  0
  -24.1113   -9.7539   20.4878 C   0  0  0  0  0  0  0  0  0  0  0  0
  -25.3264  -11.1572   18.7380 C   0  0  0  0  0  0  0  0  0  0  0  0
  -28.6121  -33.2999   26.6181 C   0  0  0  0  0  0  0  0  0  0  0  0
  -25.8627  -30.3016   19.9602 C   0  0  0  0  0  0  0  0  0  0  0  0
  -28.7847  -32.7079   25.3524 C   0  0  0  0  0  0  0  0  0  0  0  0
  -25.0474  -29.2679   20.4427 C   0  0  0  0  0  0  0  0  0  0  0  0
  -28.4380  -18.3774   18.6640 C   0  0  0  0  0  0  0  0  0  0  0  0
  -28.2411  -20.6769   19.3785 C   0  0  0  0  0  0  0  0  0  0  0  0
  -28.4719  -17.9663   19.9964 C   0  0  0  0  0  0  0  0  0  0  0  0
  -22.1453   -7.9698   21.3450 C   0  0  0  0  0  0  0  0  0  0  0  0
  -25.8056  -27.8393   18.6277 C   0  0  0  0  0  0  0  0  0  0  0  0
  -21.5726   -6.0716   22.6063 C   0  0  0  0  0  0  0  0  0  0  0  0
  -22.3544   -4.0027   24.3065 C   0  0  0  0  0  0  0  0  0  0  0  0
  -28.3905  -18.9104   21.0200 C   0  0  0  0  0  0  0  0  0  0  0  0
  -21.3891   -4.7440   22.2195 C   0  0  0  0  0  0  0  0  0  0  0  0
  -25.1265  -10.6758   20.0457 C   0  0  0  0  0  0  0  0  0  0  0  0
  -26.4075  -11.9978   18.8430 C   0  0  0  0  0  0  0  0  0  0  0  0
  -28.0187  -24.0323   17.7813 C   0  0  0  0  0  0  0  0  0  0  0  0
  -27.0214  -24.7551   17.2500 C   0  0  0  0  0  0  0  0  0  0  0  0
  -24.5997  -10.8703   17.5358 C   0  0  0  0  0  0  0  0  0  0  0  0
  -26.5227  -30.9836   22.9938 C   0  0  0  0  0  0  0  0  0  0  0  0
  -23.2955  -31.1996   23.2405 C   0  0  0  0  0  0  0  0  0  0  0  0
  -20.2313  -30.3151   22.0259 C   0  0  0  0  0  0  0  0  0  0  0  0
  -29.1931  -16.0469   21.4600 C   0  0  0  0  0  0  0  0  0  0  0  0
  -27.6954  -32.7014   27.6555 C   0  0  0  0  0  0  0  0  0  0  0  0
  -25.8813  -31.6403   20.6458 C   0  0  0  0  0  0  0  0  0  0  0  0
  -24.1920  -29.4400   21.6704 C   0  0  0  0  0  0  0  0  0  0  0  0
  -26.6861  -31.7122   27.0785 C   0  0  0  0  0  0  0  0  0  0  0  0
  -29.6560  -12.7254   22.6562 C   0  0  0  0  0  0  0  0  0  0  0  0
  -27.3751  -30.7422   26.1239 C   0  0  0  0  0  0  0  0  0  0  0  0
  -28.5353  -11.9357   21.9761 C   0  0  0  0  0  0  0  0  0  0  0  0
  -29.2038  -14.1322   23.0439 C   0  0  0  0  0  0  0  0  0  0  0  0
  -27.4915  -14.1272   21.2727 C   0  0  0  0  0  0  0  0  0  0  0  0
  -27.9960  -31.4857   24.9350 C   0  0  1  0  0  0  0  0  0  0  0  0
  -25.4576  -31.5678   22.1095 C   0  0  1  0  0  0  0  0  0  0  0  0
  -27.9190  -12.7264   20.8054 C   0  0  2  0  0  0  0  0  0  0  0  0
  -29.9496  -16.8869   17.3299 C   0  0  0  0  0  0  0  0  0  0  0  0
  -17.7782  -30.6160   22.4605 C   0  0  0  0  0  0  0  0  0  0  0  0
  -23.4651  -29.2191   25.5554 C   0  0  0  0  0  0  0  0  0  0  0  0
  -21.0022  -28.8371   25.3176 C   0  0  0  0  0  0  0  0  0  0  0  0
  -21.8596  -31.1035   25.9102 C   0  0  0  0  0  0  0  0  0  0  0  0
  -19.8064  -31.6097   19.3987 C   0  0  0  0  0  0  0  0  0  0  0  0
  -28.5256  -17.3885   17.5471 C   0  0  0  0  0  0  0  0  0  0  0  0
  -28.0836  -22.5388   17.7250 C   0  0  0  0  0  0  0  0  0  0  0  0
  -26.9635  -26.2470   17.2937 C   0  0  0  0  0  0  0  0  0  1  0  0
  -22.1805  -30.2328   23.5584 C   0  0  1  0  0  0  0  0  0  0  0  0
  -18.9953  -31.1392   21.7137 C   0  0  2  0  0  0  0  0  0  0  0  0
  -22.1443  -29.8439   25.0633 C   0  0  0  0  0  0  0  0  0  0  0  0
  -26.0099  -11.1694   20.9175 N   0  0  0  0  0  0  0  0  0  0  0  0
  -26.7754  -11.9696   20.1561 N   0  0  0  0  0  0  0  0  0  0  0  0
  -24.2492  -30.7652   22.3091 N   0  0  0  0  0  0  0  0  0  0  0  0
  -28.6350  -14.8225   21.8843 N   0  0  0  0  0  0  0  0  0  0  0  0
  -27.0700  -12.7508   17.9394 N   0  0  0  0  0  0  0  0  0  0  0  0
  -23.5157   -9.9846   17.6056 N   0  0  0  0  0  0  0  0  0  0  0  0
  -28.5904  -16.5937   20.3276 N   0  0  0  0  0  0  0  0  0  0  0  0
  -28.1264  -22.0244   19.0711 N   0  0  0  0  0  0  0  0  0  0  0  0
  -26.9747  -31.8455   23.9748 N   0  0  0  0  0  0  0  0  0  0  0  0
  -20.9523  -30.8518   23.0715 N   0  0  0  0  0  0  0  0  0  0  0  0
  -18.7026  -31.1010   20.2530 N   0  3  0  0  0  0  0  0  0  0  0  0
  -24.9128  -11.3714   16.4293 O   0  0  0  0  0  0  0  0  0  0  0  0
  -26.9050  -29.8353   22.8014 O   0  0  0  0  0  0  0  0  0  0  0  0
  -23.3154  -32.3025   23.7927 O   0  0  0  0  0  0  0  0  0  0  0  0
  -20.5256  -29.2950   21.4068 O   0  0  0  0  0  0  0  0  0  0  0  0
  -30.1540  -16.5580   22.0410 O   0  0  0  0  0  0  0  0  0  0  0  0
  -21.1858   -7.0997   21.7630 O   0  0  0  0  0  0  0  0  0  0  0  0
  -25.7788  -26.6399   17.9853 O   0  0  0  0  0  0  0  0  0  1  0  0
  -22.7312   -3.0094   25.1224 F   0  0  0  0  0  0  0  0  0  0  0  0
  -28.4232  -18.5278   22.3046 F   0  0  0  0  0  0  0  0  0  0  0  0
  -20.8389   -4.4563   21.0320 F   0  0  0  0  0  0  0  0  0  0  0  0
  1  2  1  0  0  0  0
  1  5  2  0  0  0  0
  2  6  2  0  0  0  0
  3  8  2  0  0  0  0
  3 17  1  0  0  0  0
  4  9  1  0  0  0  0
  4 17  2  0  0  0  0
  5 19  1  0  0  0  0
  6 21  1  0  0  0  0
  7 10  2  0  0  0  0
  7 20  1  0  0  0  0
  8 26  1  0  0  0  0
  9 26  2  0  0  0  0
 10 27  1  0  0  0  0
 11 12  2  0  0  0  0
 11 28  1  0  0  0  0
 12 29  1  0  0  0  0
 13 22  1  0  0  0  0
 13 27  2  0  0  0  0
 14 23  1  0  0  0  0
 14 24  2  0  0  0  0
 15 24  1  0  0  0  0
 15 30  2  0  0  0  0
 16 29  2  0  0  0  0
 16 31  1  0  0  0  0
 17 32  1  0  0  0  0
 18 32  1  0  0  0  0
 18 33  2  0  0  0  0
 18 36  1  0  0  0  0
 19 21  2  0  0  0  0
 19 41  1  0  0  0  0
 20 22  2  0  0  0  0
 20 42  1  0  0  0  0
 21 50  1  0  0  0  0
 22 43  1  0  0  0  0
 23 25  2  0  0  0  0
 23 59  1  0  0  0  0
 24 72  1  0  0  0  0
 25 30  1  0  0  0  0
 25 71  1  0  0  0  0
 26 81  1  0  0  0  0
 27 82  1  0  0  0  0
 28 31  2  0  0  0  0
 28 81  1  0  0  0  0
 29 83  1  0  0  0  0
 30 84  1  0  0  0  0
 31 85  1  0  0  0  0
 32 65  2  0  0  0  0
 33 66  1  0  0  0  0
 33 69  1  0  0  0  0
 34 35  2  0  0  0  0
 34 60  1  0  0  0  0
 35 61  1  0  0  0  0
 36 70  1  0  0  0  0
 36 76  2  0  0  0  0
 37 51  1  0  0  0  0
 37 73  1  0  0  0  0
 37 77  2  0  0  0  0
 38 62  1  0  0  0  0
 38 67  1  0  0  0  0
 38 78  2  0  0  0  0
 39 63  1  0  0  0  0
 39 74  1  0  0  0  0
 39 79  2  0  0  0  0
 40 68  1  0  0  0  0
 40 71  1  0  0  0  0
 40 80  2  0  0  0  0
 41 44  1  0  0  0  0
 42 51  1  0  0  0  0
 43 67  1  0  0  0  0
 44 46  1  0  0  0  0
 45 47  1  0  0  0  0
 45 48  1  0  0  0  0
 46 50  1  0  0  0  0
 47 52  1  0  0  0  0
 48 68  1  0  0  0  0
 49 52  1  0  0  0  0
 49 68  1  0  0  0  0
 50 73  1  0  0  0  0
 51 67  1  0  0  0  0
 52 66  1  0  0  0  0
 53 59  1  0  0  0  0
 54 63  1  0  0  0  0
 55 64  1  0  0  0  0
 56 64  1  0  0  0  0
 57 64  1  0  0  0  0
 58 75  1  0  0  0  0
 60 72  1  0  0  0  0
 61 82  1  0  0  0  0
 62 64  1  0  0  0  0
 62 74  1  0  0  0  0
 63 75  1  0  0  0  0
 65 66  1  0  0  0  0
M  CHG  1  75   1
M  ISO  4  40 100  61 101  71 100  82 101
M  END
> <Batch ID>
0118

> <Smiles>
CCc1cc(NCC=C[101CH2:1][101O:1]c2ccc3c(c2)CN(C(=O)C(NC(=O)C(C)NC)C(C)(C)C)C(C(=O)NC2CCCc4ccccc42)C3)cc(F)c1[100NH:0][100C:0](=O)N1CCCC(n2nc(-c3ccc(Oc4ccc(F)cc4F)cc3)c(C(N)=O)c2N)C1

> <Shape>
0.296

> <Color>
0.099

> <Negative vol penalty>
0.000

$$$$

  -OEChem-04052301483D

 85 93  0     1  0  0  0  0  0999 V2000
  -21.6582  -32.3895   13.4054 C   0  0  0  0  0  0  0  0  0  0  0  0
  -22.3718  -31.3506   13.9944 C   0  0  0  0  0  0  0  0  0  0  0  0
  -24.3252   -8.8354   21.3870 C   0  0  0  0  0  0  0  0  0  0  0  0
  -24.7726  -10.0887   23.4034 C   0  0  0  0  0  0  0  0  0  0  0  0
  -21.9376  -33.7105   13.7530 C   0  0  0  0  0  0  0  0  0  0  0  0
  -23.3661  -31.6322   14.9305 C   0  0  0  0  0  0  0  0  0  0  0  0
  -24.8444  -28.2946   19.8479 C   0  0  0  0  0  0  0  0  0  0  0  0
  -24.0473   -7.7030   22.1525 C   0  0  0  0  0  0  0  0  0  0  0  0
  -24.4946   -8.9563   24.1689 C   0  0  0  0  0  0  0  0  0  0  0  0
  -25.8543  -27.3616   20.0793 C   0  0  0  0  0  0  0  0  0  0  0  0
  -22.8692   -4.5800   23.5927 C   0  0  0  0  0  0  0  0  0  0  0  0
  -21.7389   -3.8336   23.2598 C   0  0  0  0  0  0  0  0  0  0  0  0
  -27.2159  -29.0898   21.0685 C   0  0  0  0  0  0  0  0  0  0  0  0
  -27.5248  -20.3871   20.9939 C   0  0  0  0  0  0  0  0  0  0  0  0
  -29.7846  -18.9209   20.2682 C   0  0  0  0  0  0  0  0  0  0  0  0
  -20.3446   -5.7649   23.6641 C   0  0  0  0  0  0  0  0  0  0  0  0
  -24.6879  -10.0283   22.0124 C   0  0  0  0  0  0  0  0  0  0  0  0
  -24.0657  -12.1894   20.8082 C   0  0  0  0  0  0  0  0  0  0  0  0
  -22.9292  -34.0079   14.7010 C   0  0  0  0  0  0  0  0  0  0  0  0
  -25.0174  -29.6367   20.2159 C   0  0  0  0  0  0  0  0  0  0  0  0
  -23.6600  -32.9585   15.2902 C   0  0  0  0  0  0  0  0  0  0  0  0
  -26.2057  -30.0373   20.8430 C   0  0  0  0  0  0  0  0  0  0  0  0
  -27.3947  -19.0567   20.5956 C   0  0  0  0  0  0  0  0  0  0  0  0
  -28.7848  -20.9845   21.0293 C   0  0  0  0  0  0  0  0  0  0  0  0
  -28.5245  -18.3236   20.2328 C   0  0  0  0  0  0  0  0  0  0  0  0
  -24.1319   -7.7634   23.5434 C   0  0  0  0  0  0  0  0  0  0  0  0
  -27.0414  -27.7597   20.6870 C   0  0  0  0  0  0  0  0  0  0  0  0
  -22.7373   -5.9188   23.9613 C   0  0  0  0  0  0  0  0  0  0  0  0
  -20.4766   -4.4260   23.2955 C   0  0  0  0  0  0  0  0  0  0  0  0
  -29.9147  -20.2514   20.6665 C   0  0  0  0  0  0  0  0  0  0  0  0
  -21.4750   -6.5112   23.9970 C   0  0  0  0  0  0  0  0  0  0  0  0
  -24.9757  -11.1982   21.2222 C   0  0  0  0  0  0  0  0  0  0  0  0
  -24.8283  -13.0766   20.0886 C   0  0  0  0  0  0  0  0  0  0  0  0
  -28.8337  -23.1969   20.4862 C   0  0  0  0  0  0  0  0  0  0  0  0
  -22.6571  -12.2984   21.0524 C   0  0  0  0  0  0  0  0  0  0  0  0
  -28.9655  -24.6427   20.8395 C   0  0  0  0  0  0  0  0  0  0  0  0
  -25.0995  -32.4000   18.6471 C   0  0  0  0  0  0  0  0  0  0  0  0
  -25.2264  -33.6479   21.6385 C   0  0  0  0  0  0  0  0  0  0  0  0
  -26.0159  -33.2094   24.9296 C   0  0  0  0  0  0  0  0  0  0  0  0
  -29.4459  -16.1187   19.4354 C   0  0  0  0  0  0  0  0  0  0  0  0
  -23.2281  -35.4536   15.0097 C   0  0  0  0  0  0  0  0  0  0  0  0
  -23.9078  -30.6253   19.9837 C   0  0  0  0  0  0  0  0  0  0  0  0
  -26.4329  -31.4620   21.2755 C   0  0  0  0  0  0  0  0  0  0  0  0
  -24.0401  -35.6484   16.2876 C   0  0  0  0  0  0  0  0  0  0  0  0
  -29.5857  -12.7156   18.3978 C   0  0  0  0  0  0  0  0  0  0  0  0
  -25.2154  -34.6768   16.3265 C   0  0  0  0  0  0  0  0  0  0  0  0
  -28.3239  -12.0990   19.0061 C   0  0  0  0  0  0  0  0  0  0  0  0
  -30.2111  -13.7571   19.3240 C   0  0  0  0  0  0  0  0  0  0  0  0
  -28.0338  -14.1929   20.3910 C   0  0  0  0  0  0  0  0  0  0  0  0
  -24.7291  -33.2225   16.3282 C   0  0  1  0  0  0  0  0  0  0  0  0
  -24.3957  -32.0699   19.9329 C   0  0  1  0  0  0  0  0  0  0  0  0
  -27.3318  -13.1848   19.4666 C   0  0  2  0  0  0  0  0  0  0  0  0
  -25.4769  -18.3361   19.1501 C   0  0  0  0  0  0  0  0  0  0  0  0
  -26.0455  -34.4214   27.1267 C   0  0  0  0  0  0  0  0  0  0  0  0
  -27.7219  -35.1696   20.7627 C   0  0  0  0  0  0  0  0  0  0  0  0
  -28.2332  -35.5824   23.1786 C   0  0  0  0  0  0  0  0  0  0  0  0
  -26.1371  -36.4904   22.1763 C   0  0  0  0  0  0  0  0  0  0  0  0
  -24.1196  -31.2901   26.1459 C   0  0  0  0  0  0  0  0  0  0  0  0
  -26.0328  -18.4420   20.5666 C   0  0  0  0  0  0  0  0  0  0  0  0
  -27.7816  -25.5072   20.5028 C   0  0  0  0  0  0  0  0  0  1  0  0
  -26.3325  -34.0059   22.6015 C   0  0  1  0  0  0  0  0  0  0  0  0
  -25.2453  -33.5192   26.2003 C   0  0  2  0  0  0  0  0  0  0  0  0
  -27.1030  -35.2855   22.1700 C   0  0  0  0  0  0  0  0  0  0  0  0
  -26.2211  -11.4331   20.8004 N   0  0  0  0  0  0  0  0  0  0  0  0
  -28.9141  -22.3249   21.4302 N   0  0  0  0  0  0  0  0  0  0  0  0
  -26.0991  -12.5820   20.1139 N   0  0  0  0  0  0  0  0  0  0  0  0
  -25.3208  -32.3927   21.0211 N   0  0  0  0  0  0  0  0  0  0  0  0
  -29.2137  -14.7554   19.7156 N   0  0  0  0  0  0  0  0  0  0  0  0
  -24.5290  -14.2237   19.4428 N   0  0  0  0  0  0  0  0  0  0  0  0
  -22.0313  -11.2999   21.8111 N   0  0  0  0  0  0  0  0  0  0  0  0
  -28.4133  -16.9713   19.8246 N   0  0  0  0  0  0  0  0  0  0  0  0
  -24.2600  -32.8479   17.6451 N   0  0  0  0  0  0  0  0  0  0  0  0
  -25.7129  -34.0973   23.9191 N   0  0  0  0  0  0  0  0  0  0  0  0
  -24.9246  -32.2608   26.9314 N   0  3  0  0  0  0  0  0  0  0  0  0
  -21.9706  -13.2445   20.5972 O   0  0  0  0  0  0  0  0  0  0  0  0
  -29.9962  -25.0142   21.3781 O   0  0  0  0  0  0  0  0  0  0  0  0
  -26.3145  -32.2600   18.5702 O   0  0  0  0  0  0  0  0  0  0  0  0
  -24.3086  -34.4495   21.4467 O   0  0  0  0  0  0  0  0  0  0  0  0
  -26.8103  -32.2755   24.8432 O   0  0  0  0  0  0  0  0  0  0  0  0
  -30.4722  -16.4985   18.8659 O   0  0  0  0  0  0  0  0  0  0  0  0
  -23.8606   -6.6587   24.2907 O   0  0  0  0  0  0  0  0  0  0  0  0
  -28.0290  -26.8513   20.9134 O   0  0  0  0  0  0  0  0  0  1  0  0
  -19.3914   -3.7096   22.9743 F   0  0  0  0  0  0  0  0  0  0  0  0
  -31.1294  -20.8173   20.6985 F   0  0  0  0  0  0  0  0  0  0  0  0
  -21.3421   -7.7974   24.3491 F   0  0  0  0  0  0  0  0  0  0  0  0
  1  2  1  0  0  0  0
  1  5  2  0  0  0  0
  2  6  2  0  0  0  0
  3  8  2  0  0  0  0
  3 17  1  0  0  0  0
  4  9  1  0  0  0  0
  4 17  2  0  0  0  0
  5 19  1  0  0  0  0
  6 21  1  0  0  0  0
  7 10  2  0  0  0  0
  7 20  1  0  0  0  0
  8 26  1  0  0  0  0
  9 26  2  0  0  0  0
 10 27  1  0  0  0  0
 11 12  2  0  0  0  0
 11 28  1  0  0  0  0
 12 29  1  0  0  0  0
 13 22  1  0  0  0  0
 13 27  2  0  0  0  0
 14 23  1  0  0  0  0
 14 24  2  0  0  0  0
 15 25  1  0  0  0  0
 15 30  2  0  0  0  0
 16 29  2  0  0  0  0
 16 31  1  0  0  0  0
 17 32  1  0  0  0  0
 18 32  1  0  0  0  0
 18 33  2  0  0  0  0
 18 35  1  0  0  0  0
 19 21  2  0  0  0  0
 19 41  1  0  0  0  0
 20 22  2  0  0  0  0
 20 42  1  0  0  0  0
 21 50  1  0  0  0  0
 22 43  1  0  0  0  0
 23 25  2  0  0  0  0
 23 59  1  0  0  0  0
 24 30  1  0  0  0  0
 24 65  1  0  0  0  0
 25 71  1  0  0  0  0
 26 81  1  0  0  0  0
 27 82  1  0  0  0  0
 28 31  2  0  0  0  0
 28 81  1  0  0  0  0
 29 83  1  0  0  0  0
 30 84  1  0  0  0  0
 31 85  1  0  0  0  0
 32 64  2  0  0  0  0
 33 66  1  0  0  0  0
 33 69  1  0  0  0  0
 34 36  1  0  0  0  0
 34 65  2  0  0  0  0
 35 70  1  0  0  0  0
 35 75  2  0  0  0  0
 36 60  1  0  0  0  0
 36 76  2  0  0  0  0
 37 51  1  0  0  0  0
 37 72  1  0  0  0  0
 37 77  2  0  0  0  0
 38 61  1  0  0  0  0
 38 67  1  0  0  0  0
 38 78  2  0  0  0  0
 39 62  1  0  0  0  0
 39 73  1  0  0  0  0
 39 79  2  0  0  0  0
 40 68  1  0  0  0  0
 40 71  1  0  0  0  0
 40 80  2  0  0  0  0
 41 44  1  0  0  0  0
 42 51  1  0  0  0  0
 43 67  1  0  0  0  0
 44 46  1  0  0  0  0
 45 47  1  0  0  0  0
 45 48  1  0  0  0  0
 46 50  1  0  0  0  0
 47 52  1  0  0  0  0
 48 68  1  0  0  0  0
 49 52  1  0  0  0  0
 49 68  1  0  0  0  0
 50 72  1  0  0  0  0
 51 67  1  0  0  0  0
 52 66  1  0  0  0  0
 53 59  1  0  0  0  0
 54 62  1  0  0  0  0
 55 63  1  0  0  0  0
 56 63  1  0  0  0  0
 57 63  1  0  0  0  0
 58 74  1  0  0  0  0
 60 82  1  0  0  0  0
 61 63  1  0  0  0  0
 61 73  1  0  0  0  0
 62 74  1  0  0  0  0
 64 66  1  0  0  0  0
M  CHG  1  74   1
M  ISO  4  40 100  60 101  71 100  82 101
M  END
> <Batch ID>
0118

> <Smiles>
C=Cc1cc(NCC(=O)[101CH2:1][101O:1]c2ccc3c(c2)CN(C(=O)C(NC(=O)C(C)NC)C(C)(C)C)C(C(=O)NC2CCCc4ccccc42)C3)c(F)cc1[100NH:0][100C:0](=O)N1CCCC(n2nc(-c3ccc(Oc4ccc(F)cc4F)cc3)c(C(N)=O)c2N)C1

> <Shape>
0.303

> <Color>
0.115

> <Negative vol penalty>
0.000

$$$$

  -OEChem-04052301483D

 81 89  0     1  0  0  0  0  0999 V2000
  -29.8757  -35.6768   19.0554 C   0  0  0  0  0  0  0  0  0  0  0  0
  -29.7425  -34.3269   18.7468 C   0  0  0  0  0  0  0  0  0  0  0  0
  -24.2237   -9.6016   22.1848 C   0  0  0  0  0  0  0  0  0  0  0  0
  -24.3635   -8.9008   19.8769 C   0  0  0  0  0  0  0  0  0  0  0  0
  -29.5494  -36.1345   20.3313 C   0  0  0  0  0  0  0  0  0  0  0  0
  -29.2839  -33.4336   19.7143 C   0  0  0  0  0  0  0  0  0  0  0  0
  -25.7827  -28.4930   18.7989 C   0  0  0  0  0  0  0  0  0  0  0  0
  -23.1112   -8.7801   22.3669 C   0  0  0  0  0  0  0  0  0  0  0  0
  -23.2510   -8.0792   20.0590 C   0  0  0  0  0  0  0  0  0  0  0  0
  -26.0859  -27.1372   18.6810 C   0  0  0  0  0  0  0  0  0  0  0  0
  -20.4536   -6.5926   23.5361 C   0  0  0  0  0  0  0  0  0  0  0  0
  -20.4095   -5.8064   24.6874 C   0  0  0  0  0  0  0  0  0  0  0  0
  -25.5916  -26.8293   21.0220 C   0  0  0  0  0  0  0  0  0  0  0  0
  -31.3853  -21.9974   19.9828 C   0  0  0  0  0  0  0  0  0  0  0  0
  -22.4518   -4.7053   24.0138 C   0  0  0  0  0  0  0  0  0  0  0  0
  -24.8498   -9.6620   20.9398 C   0  0  0  0  0  0  0  0  0  0  0  0
  -27.3506  -10.1656   20.9374 C   0  0  0  0  0  0  0  0  0  0  0  0
  -29.0774  -35.2479   21.3121 C   0  0  0  0  0  0  0  0  0  0  0  0
  -25.3915  -29.0301   20.0338 C   0  0  0  0  0  0  0  0  0  0  0  0
  -28.9522  -33.8796   21.0049 C   0  0  0  0  0  0  0  0  0  0  0  0
  -25.2815  -28.1916   21.1523 C   0  0  0  0  0  0  0  0  0  0  0  0
  -31.6068  -20.6651   20.4059 C   0  0  0  0  0  0  0  0  0  0  0  0
  -22.6249   -8.0189   21.3040 C   0  0  0  0  0  0  0  0  0  0  0  0
  -25.9932  -26.3058   19.7933 C   0  0  0  0  0  0  0  0  0  0  0  0
  -21.4968   -6.4351   22.6236 C   0  0  0  0  0  0  0  0  0  0  0  0
  -21.4086   -4.8628   24.9263 C   0  0  0  0  0  0  0  0  0  0  0  0
  -22.4959   -5.4915   22.8624 C   0  0  0  0  0  0  0  0  0  0  0  0
  -25.9986  -10.5109   20.7509 C   0  0  0  0  0  0  0  0  0  0  0  0
  -30.0281  -22.1180   19.7951 C   0  0  0  0  0  0  0  0  0  0  0  0
  -30.3690  -20.0666   20.4468 C   0  0  0  0  0  0  0  0  0  0  0  0
  -28.0430  -11.3114   20.6306 C   0  0  0  0  0  0  0  0  0  0  0  0
  -29.2906  -23.3141   19.3549 C   0  0  0  0  0  0  0  0  0  0  0  0
  -30.0626  -18.7339   20.8112 C   0  0  0  0  0  0  0  0  0  0  0  0
  -28.8198  -18.1498   20.8248 C   0  0  0  0  0  0  0  0  0  0  0  0
  -27.9637  -23.3788   19.1641 C   0  0  0  0  0  0  0  0  0  0  0  0
  -27.9288   -8.9205   21.3510 C   0  0  0  0  0  0  0  0  0  0  0  0
  -28.6633  -16.7363   21.2227 C   0  0  0  0  0  0  0  0  0  0  0  0
  -26.5739  -31.2318   21.9979 C   0  0  0  0  0  0  0  0  0  0  0  0
  -23.8021  -30.7260   23.6052 C   0  0  0  0  0  0  0  0  0  0  0  0
  -21.2004  -28.6316   24.3065 C   0  0  0  0  0  0  0  0  0  0  0  0
  -28.7822  -35.7816   22.6915 C   0  0  0  0  0  0  0  0  0  0  0  0
  -25.0421  -30.4893   20.1383 C   0  0  0  0  0  0  0  0  0  0  0  0
  -24.8465  -28.7150   22.4959 C   0  0  0  0  0  0  0  0  0  0  0  0
  -27.9472  -34.8316   23.5463 C   0  0  0  0  0  0  0  0  0  0  0  0
  -26.5321  -15.6068   18.4633 C   0  0  0  0  0  0  0  0  0  0  0  0
  -28.4970  -33.4114   23.4584 C   0  0  0  0  0  0  0  0  0  0  0  0
  -26.2787  -14.1557   18.8631 C   0  0  0  0  0  0  0  0  0  0  0  0
  -26.6405  -16.5245   19.6802 C   0  0  0  0  0  0  0  0  0  0  0  0
  -27.4022  -14.6243   21.0763 C   0  0  0  0  0  0  0  0  0  0  0  0
  -28.4345  -32.8837   22.0200 C   0  0  1  0  0  0  0  0  0  0  0  0
  -25.1506  -31.0293   21.5610 C   0  0  1  0  0  0  0  0  0  0  0  0
  -27.3366  -13.6756   19.8692 C   0  0  1  0  0  0  0  0  0  0  0  0
  -32.9126  -20.0595   20.7330 C   0  0  0  0  0  0  0  0  0  0  0  0
  -19.1093  -28.4812   25.6856 C   0  0  0  0  0  0  0  0  0  0  0  0
  -25.4861  -30.2234   26.0995 C   0  0  0  0  0  0  0  0  0  0  0  0
  -23.4762  -29.1727   27.1599 C   0  0  0  0  0  0  0  0  0  0  0  0
  -23.4189  -31.5753   26.4914 C   0  0  0  0  0  0  0  0  0  0  0  0
  -19.4974  -28.3440   21.9032 C   0  0  0  0  0  0  0  0  0  0  0  0
  -27.2601  -24.6145   18.7022 C   0  0  0  0  0  0  0  0  0  1  0  0
  -23.3584  -29.7894   24.7029 C   0  0  1  0  0  0  0  0  0  0  0  0
  -19.7006  -28.8639   24.3377 C   0  0  2  0  0  0  0  0  0  0  0  0
  -23.9450  -30.1804   26.0887 C   0  0  0  0  0  0  0  0  0  0  0  0
  -25.8395  -11.7770   20.3563 N   0  0  0  0  0  0  0  0  0  0  0  0
  -27.1005  -12.2373   20.2924 N   0  0  0  0  0  0  0  0  0  0  0  0
  -27.6159  -16.0132   20.6548 N   0  0  0  0  0  0  0  0  0  0  0  0
  -24.5218  -30.1500   22.5487 N   0  0  0  0  0  0  0  0  0  0  0  0
  -29.3602  -11.6071   20.6198 N   0  0  0  0  0  0  0  0  0  0  0  0
  -27.0730   -7.8452   21.6264 N   0  0  0  0  0  0  0  0  0  0  0  0
  -27.0854  -32.4777   21.6888 N   0  0  0  0  0  0  0  0  0  0  0  0
  -21.9004  -29.7670   24.6559 N   0  0  0  0  0  0  0  0  0  0  0  0
  -19.0288  -28.0536   23.2827 N   0  3  0  0  0  0  0  0  0  0  0  0
  -29.1666   -8.7708   21.4885 O   0  0  0  0  0  0  0  0  0  0  0  0
  -29.4679  -16.2829   22.0386 O   0  0  0  0  0  0  0  0  0  0  0  0
  -27.1638  -30.3255   22.5742 O   0  0  0  0  0  0  0  0  0  0  0  0
  -23.5143  -31.9232   23.6788 O   0  0  0  0  0  0  0  0  0  0  0  0
  -21.7009  -27.5501   24.0061 O   0  0  0  0  0  0  0  0  0  0  0  0
  -29.4013  -20.9455   20.0760 O   0  0  0  0  0  0  0  0  0  0  0  0
  -21.5396   -7.2169   21.4814 O   0  0  0  0  0  0  0  0  0  0  0  0
  -26.2891  -24.9822   19.6811 O   0  0  0  0  0  0  0  0  0  1  0  0
  -21.3669   -4.1090   26.0328 F   0  0  0  0  0  0  0  0  0  0  0  0
  -23.5012   -5.3365   21.9900 F   0  0  0  0  0  0  0  0  0  0  0  0
  1  2  1  0  0  0  0
  1  5  2  0  0  0  0
  2  6  2  0  0  0  0
  3  8  2  0  0  0  0
  3 16  1  0  0  0  0
  4  9  1  0  0  0  0
  4 16  2  0  0  0  0
  5 18  1  0  0  0  0
  6 20  1  0  0  0  0
  7 10  2  0  0  0  0
  7 19  1  0  0  0  0
  8 23  1  0  0  0  0
  9 23  2  0  0  0  0
 10 24  1  0  0  0  0
 11 12  2  0  0  0  0
 11 25  1  0  0  0  0
 12 26  1  0  0  0  0
 13 21  1  0  0  0  0
 13 24  2  0  0  0  0
 14 22  1  0  0  0  0
 14 29  2  0  0  0  0
 15 26  2  0  0  0  0
 15 27  1  0  0  0  0
 16 28  1  0  0  0  0
 17 28  1  0  0  0  0
 17 31  2  0  0  0  0
 17 36  1  0  0  0  0
 18 20  2  0  0  0  0
 18 41  1  0  0  0  0
 19 21  2  0  0  0  0
 19 42  1  0  0  0  0
 20 50  1  0  0  0  0
 21 43  1  0  0  0  0
 22 30  2  0  0  0  0
 22 53  1  0  0  0  0
 23 78  1  0  0  0  0
 24 79  1  0  0  0  0
 25 27  2  0  0  0  0
 25 78  1  0  0  0  0
 26 80  1  0  0  0  0
 27 81  1  0  0  0  0
 28 63  2  0  0  0  0
 29 32  1  0  0  0  0
 29 77  1  0  0  0  0
 30 33  1  0  0  0  0
 30 77  1  0  0  0  0
 31 64  1  0  0  0  0
 31 67  1  0  0  0  0
 32 35  2  0  0  0  0
 33 34  2  0  0  0  0
 34 37  1  0  0  0  0
 35 59  1  0  0  0  0
 36 68  1  0  0  0  0
 36 72  2  0  0  0  0
 37 65  1  0  0  0  0
 37 73  2  0  0  0  0
 38 51  1  0  0  0  0
 38 69  1  0  0  0  0
 38 74  2  0  0  0  0
 39 60  1  0  0  0  0
 39 66  1  0  0  0  0
 39 75  2  0  0  0  0
 40 61  1  0  0  0  0
 40 70  1  0  0  0  0
 40 76  2  0  0  0  0
 41 44  1  0  0  0  0
 42 51  1  0  0  0  0
 43 66  1  0  0  0  0
 44 46  1  0  0  0  0
 45 47  1  0  0  0  0
 45 48  1  0  0  0  0
 46 50  1  0  0  0  0
 47 52  1  0  0  0  0
 48 65  1  0  0  0  0
 49 52  1  0  0  0  0
 49 65  1  0  0  0  0
 50 69  1  0  0  0  0
 51 66  1  0  0  0  0
 52 64  1  0  0  0  0
 54 61  1  0  0  0  0
 55 62  1  0  0  0  0
 56 62  1  0  0  0  0
 57 62  1  0  0  0  0
 58 71  1  0  0  0  0
 59 79  1  0  0  0  0
 60 62  1  0  0  0  0
 60 70  1  0  0  0  0
 61 71  1  0  0  0  0
 63 64  1  0  0  0  0
M  CHG  1  71   1
M  ISO  4  34 100  37 100  59 101  79 101
M  END
> <Batch ID>
0118

> <Smiles>
CNC(C)C(=O)NC(C(=O)N1Cc2cc([101O:1][101CH2:1]C=Cc3cc(C)c(C=[100CH:0][100C:0](=O)N4CCCC(n5nc(-c6ccc(Oc7ccc(F)cc7F)cc6)c(C(N)=O)c5N)C4)o3)ccc2CC1C(=O)NC1CCCc2ccccc21)C(C)(C)C

> <Shape>
0.268

> <Color>
0.129

> <Negative vol penalty>
0.000

$$$$

  -OEChem-04052301483D

 81 89  0     1  0  0  0  0  0999 V2000
  -19.5864  -18.7631   20.4047 C   0  0  0  0  0  0  0  0  0  0  0  0
  -20.9106  -19.1321   20.6183 C   0  0  0  0  0  0  0  0  0  0  0  0
  -25.8710  -27.0886   20.8942 C   0  0  0  0  0  0  0  0  0  0  0  0
  -26.4147  -28.5812   19.0739 C   0  0  0  0  0  0  0  0  0  0  0  0
  -19.1607  -17.4767   20.7330 C   0  0  0  0  0  0  0  0  0  0  0  0
  -21.8098  -18.2150   21.1613 C   0  0  0  0  0  0  0  0  0  0  0  0
  -26.2545  -18.1821   18.7347 C   0  0  0  0  0  0  0  0  0  0  0  0
  -24.8283  -27.9331   21.2753 C   0  0  0  0  0  0  0  0  0  0  0  0
  -25.3720  -29.4257   19.4549 C   0  0  0  0  0  0  0  0  0  0  0  0
  -27.1451  -19.2152   19.0232 C   0  0  0  0  0  0  0  0  0  0  0  0
  -24.4678  -30.8413   22.9595 C   0  0  0  0  0  0  0  0  0  0  0  0
  -24.3339  -31.1327   24.3170 C   0  0  0  0  0  0  0  0  0  0  0  0
  -32.3004  -24.4139   24.6350 C   0  0  0  0  0  0  0  0  0  0  0  0
  -28.3608  -17.7464   20.5009 C   0  0  0  0  0  0  0  0  0  0  0  0
  -22.1174  -30.1715   24.3046 C   0  0  0  0  0  0  0  0  0  0  0  0
  -26.6642  -27.4126   19.7936 C   0  0  0  0  0  0  0  0  0  0  0  0
  -31.3143  -23.4338   24.8997 C   0  0  0  0  0  0  0  0  0  0  0  0
  -27.6766  -25.4632   18.4964 C   0  0  0  0  0  0  0  0  0  0  0  0
  -20.0574  -16.5403   21.2713 C   0  0  0  0  0  0  0  0  0  0  0  0
  -26.4042  -16.9244   19.3365 C   0  0  0  0  0  0  0  0  0  0  0  0
  -21.3954  -16.9152   21.4983 C   0  0  0  0  0  0  0  0  0  0  0  0
  -27.4723  -16.6982   20.2164 C   0  0  0  0  0  0  0  0  0  0  0  0
  -24.5788  -29.1016   20.5556 C   0  0  0  0  0  0  0  0  0  0  0  0
  -28.1968  -18.9983   19.9086 C   0  0  0  0  0  0  0  0  0  0  0  0
  -23.4265  -30.2151   22.2745 C   0  0  0  0  0  0  0  0  0  0  0  0
  -23.1587  -30.7978   24.9895 C   0  0  0  0  0  0  0  0  0  0  0  0
  -22.2513  -29.8802   22.9471 C   0  0  0  0  0  0  0  0  0  0  0  0
  -27.7418  -26.5409   19.3998 C   0  0  0  0  0  0  0  0  0  0  0  0
  -32.5333  -24.3652   23.2802 C   0  0  0  0  0  0  0  0  0  0  0  0
  -31.0147  -22.8561   23.6879 C   0  0  0  0  0  0  0  0  0  0  0  0
  -28.9552  -24.9624   18.4665 C   0  0  0  0  0  0  0  0  0  0  0  0
  -31.0267  -23.7014   27.3206 C   0  0  0  0  0  0  0  0  0  0  0  0
  -30.7420  -23.1001   26.1449 C   0  0  0  0  0  0  0  0  0  0  0  0
  -29.9992  -21.3943   21.8724 C   0  0  0  0  0  0  0  0  0  0  0  0
  -29.1748  -20.4154   21.4917 C   0  0  0  0  0  0  0  0  0  1  0  0
  -26.5601  -24.9600   17.7508 C   0  0  0  0  0  0  0  0  0  0  0  0
  -30.0695  -21.7789   23.3068 C   0  0  0  0  0  0  0  0  0  0  0  0
  -33.4423  -25.1346   22.4209 C   0  0  0  0  0  0  0  0  0  0  0  0
  -24.6307  -15.1434   21.2824 C   0  0  0  0  0  0  0  0  0  0  0  0
  -26.9606  -12.9473   20.7617 C   0  0  0  0  0  0  0  0  0  0  0  0
  -30.1958  -12.3085   19.8830 C   0  0  0  0  0  0  0  0  0  0  0  0
  -19.5397  -15.1765   21.6545 C   0  0  0  0  0  0  0  0  0  0  0  0
  -25.4507  -15.8126   18.9943 C   0  0  0  0  0  0  0  0  0  0  0  0
  -27.6888  -15.3603   20.8734 C   0  0  0  0  0  0  0  0  0  0  0  0
  -20.6440  -14.1463   21.8770 C   0  0  0  0  0  0  0  0  0  0  0  0
  -33.5191  -26.2839   19.0423 C   0  0  0  0  0  0  0  0  0  0  0  0
  -21.7538  -14.7322   22.7441 C   0  0  0  0  0  0  0  0  0  0  0  0
  -32.0397  -26.3985   18.6702 C   0  0  0  0  0  0  0  0  0  0  0  0
  -33.7639  -26.6589   20.5017 C   0  0  0  0  0  0  0  0  0  0  0  0
  -31.4519  -26.0279   21.1028 C   0  0  0  0  0  0  0  0  0  0  0  0
  -22.4066  -15.9408   22.0624 C   0  0  1  0  0  0  0  0  0  0  0  0
  -25.3966  -14.7225   20.0602 C   0  0  1  0  0  0  0  0  0  0  0  0
  -31.1546  -25.6097   19.6534 C   0  0  1  0  0  0  0  0  0  0  0  0
  -31.8195  -10.4186   19.5842 C   0  0  0  0  0  0  0  0  0  0  0  0
  -27.2504  -12.7207   23.7907 C   0  0  0  0  0  0  0  0  0  0  0  0
  -29.4544  -11.5906   23.4254 C   0  0  0  0  0  0  0  0  0  0  0  0
  -27.3599  -10.5427   22.5664 C   0  0  0  0  0  0  0  0  0  0  0  0
  -30.5751  -12.9343   17.0153 C   0  0  0  0  0  0  0  0  0  0  0  0
  -28.2736  -12.6043   21.4231 C   0  0  1  0  0  0  0  0  0  0  0  0
  -30.7965  -11.3154   18.9045 C   0  0  2  0  0  0  0  0  0  0  0  0
  -28.0796  -11.8905   22.7907 C   0  0  0  0  0  0  0  0  0  0  0  0
  -28.9650  -26.7151   19.9073 N   0  0  0  0  0  0  0  0  0  0  0  0
  -29.6802  -25.7400   19.3209 N   0  0  0  0  0  0  0  0  0  0  0  0
  -32.8875  -25.8925   21.3868 N   0  0  0  0  0  0  0  0  0  0  0  0
  -26.7261  -14.3068   20.5116 N   0  0  0  0  0  0  0  0  0  0  0  0
  -29.5187  -23.9370   17.7932 N   0  0  0  0  0  0  0  0  0  0  0  0
  -25.3181  -25.5921   17.8992 N   0  0  0  0  0  0  0  0  0  0  0  0
  -23.3214  -15.5051   21.0290 N   0  0  0  0  0  0  0  0  0  0  0  0
  -29.0322  -11.8297   20.4470 N   0  0  0  0  0  0  0  0  0  0  0  0
  -31.4704  -12.0334   17.7859 N   0  3  0  0  0  0  0  0  0  0  0  0
  -26.6572  -23.9685   16.9885 O   0  0  0  0  0  0  0  0  0  0  0  0
  -29.3990  -21.2234   24.1702 O   0  0  0  0  0  0  0  0  0  0  0  0
  -34.6419  -25.0400   22.6763 O   0  0  0  0  0  0  0  0  0  0  0  0
  -25.1861  -15.1389   22.3748 O   0  0  0  0  0  0  0  0  0  0  0  0
  -26.1751  -12.0417   20.4711 O   0  0  0  0  0  0  0  0  0  0  0  0
  -30.7095  -13.3984   20.1256 O   0  0  0  0  0  0  0  0  0  0  0  0
  -31.7536  -23.4182   22.6955 O   0  0  0  0  0  0  0  0  0  0  0  0
  -23.5613  -29.9258   20.9270 O   0  0  0  0  0  0  0  0  0  0  0  0
  -29.0671  -20.0051   20.1925 O   0  0  0  0  0  0  0  0  0  1  0  0
  -23.0309  -31.0762   26.2935 F   0  0  0  0  0  0  0  0  0  0  0  0
  -21.2479  -29.2774   22.2946 F   0  0  0  0  0  0  0  0  0  0  0  0
  1  2  1  0  0  0  0
  1  5  2  0  0  0  0
  2  6  2  0  0  0  0
  3  8  2  0  0  0  0
  3 16  1  0  0  0  0
  4  9  1  0  0  0  0
  4 16  2  0  0  0  0
  5 19  1  0  0  0  0
  6 21  1  0  0  0  0
  7 10  2  0  0  0  0
  7 20  1  0  0  0  0
  8 23  1  0  0  0  0
  9 23  2  0  0  0  0
 10 24  1  0  0  0  0
 11 12  2  0  0  0  0
 11 25  1  0  0  0  0
 12 26  1  0  0  0  0
 13 17  1  0  0  0  0
 13 29  2  0  0  0  0
 14 22  1  0  0  0  0
 14 24  2  0  0  0  0
 15 26  2  0  0  0  0
 15 27  1  0  0  0  0
 16 28  1  0  0  0  0
 17 30  2  0  0  0  0
 17 33  1  0  0  0  0
 18 28  1  0  0  0  0
 18 31  2  0  0  0  0
 18 36  1  0  0  0  0
 19 21  2  0  0  0  0
 19 42  1  0  0  0  0
 20 22  2  0  0  0  0
 20 43  1  0  0  0  0
 21 51  1  0  0  0  0
 22 44  1  0  0  0  0
 23 78  1  0  0  0  0
 24 79  1  0  0  0  0
 25 27  2  0  0  0  0
 25 78  1  0  0  0  0
 26 80  1  0  0  0  0
 27 81  1  0  0  0  0
 28 62  2  0  0  0  0
 29 38  1  0  0  0  0
 29 77  1  0  0  0  0
 30 37  1  0  0  0  0
 30 77  1  0  0  0  0
 31 63  1  0  0  0  0
 31 66  1  0  0  0  0
 32 33  2  0  0  0  0
 34 35  2  0  0  0  0
 34 37  1  0  0  0  0
 35 79  1  0  0  0  0
 36 67  1  0  0  0  0
 36 71  2  0  0  0  0
 37 72  2  0  0  0  0
 38 64  1  0  0  0  0
 38 73  2  0  0  0  0
 39 52  1  0  0  0  0
 39 68  1  0  0  0  0
 39 74  2  0  0  0  0
 40 59  1  0  0  0  0
 40 65  1  0  0  0  0
 40 75  2  0  0  0  0
 41 60  1  0  0  0  0
 41 69  1  0  0  0  0
 41 76  2  0  0  0  0
 42 45  1  0  0  0  0
 43 52  1  0  0  0  0
 44 65  1  0  0  0  0
 45 47  1  0  0  0  0
 46 48  1  0  0  0  0
 46 49  1  0  0  0  0
 47 51  1  0  0  0  0
 48 53  1  0  0  0  0
 49 64  1  0  0  0  0
 50 53  1  0  0  0  0
 50 64  1  0  0  0  0
 51 68  1  0  0  0  0
 52 65  1  0  0  0  0
 53 63  1  0  0  0  0
 54 60  1  0  0  0  0
 55 61  1  0  0  0  0
 56 61  1  0  0  0  0
 57 61  1  0  0  0  0
 58 70  1  0  0  0  0
 59 61  1  0  0  0  0
 59 69  1  0  0  0  0
 60 70  1  0  0  0  0
 62 63  1  0  0  0  0
M  CHG  1  70   1
M  ISO  4  29 100  35 101  38 100  79 101
M  END
> <Batch ID>
0118

> <Smiles>
C=Cc1c[100c:0]([100C:0](=O)N2CCCC(n3nc(-c4ccc(Oc5ccc(F)cc5F)cc4)c(C(N)=O)c3N)C2)oc1C(=O)C=[101CH:1][101O:1]c1ccc2c(c1)CN(C(=O)C(NC(=O)C(C)NC)C(C)(C)C)C(C(=O)NC1CCCc3ccccc31)C2

> <Shape>
0.216

> <Color>
0.062

> <Negative vol penalty>
0.000

$$$$

  -OEChem-04052301483D

 84 92  0     1  0  0  0  0  0999 V2000
  -29.1378  -29.6033   27.1397 C   0  0  0  0  0  0  0  0  0  0  0  0
  -28.8774  -28.8575   25.9946 C   0  0  0  0  0  0  0  0  0  0  0  0
  -24.0852   -9.6001   22.3661 C   0  0  0  0  0  0  0  0  0  0  0  0
  -22.8279  -10.1902   20.3893 C   0  0  0  0  0  0  0  0  0  0  0  0
  -28.0940  -30.2461   27.8040 C   0  0  0  0  0  0  0  0  0  0  0  0
  -27.5727  -28.7531   25.5137 C   0  0  0  0  0  0  0  0  0  0  0  0
  -27.2966  -29.3739   20.4954 C   0  0  0  0  0  0  0  0  0  0  0  0
  -23.0996   -8.6779   22.7178 C   0  0  0  0  0  0  0  0  0  0  0  0
  -21.8423   -9.2680   20.7409 C   0  0  0  0  0  0  0  0  0  0  0  0
  -27.6692  -28.2923   19.6985 C   0  0  0  0  0  0  0  0  0  0  0  0
  -22.1810   -5.5499   21.8207 C   0  0  0  0  0  0  0  0  0  0  0  0
  -22.5960   -4.2878   22.2454 C   0  0  0  0  0  0  0  0  0  0  0  0
  -29.3707  -19.1956   15.2135 C   0  0  0  0  0  0  0  0  0  0  0  0
  -28.2211  -19.2661   17.3373 C   0  0  0  0  0  0  0  0  0  0  0  0
  -25.3444  -27.7301   19.3851 C   0  0  0  0  0  0  0  0  0  0  0  0
  -28.3086  -17.2056   16.0789 C   0  0  0  0  0  0  0  0  0  0  0  0
  -21.5051   -4.6446   24.3714 C   0  0  0  0  0  0  0  0  0  0  0  0
  -23.9494  -10.3563   21.2019 C   0  0  0  0  0  0  0  0  0  0  0  0
  -28.9583  -19.9059   16.3409 C   0  0  0  0  0  0  0  0  0  0  0  0
  -26.1057  -11.0760   20.0443 C   0  0  0  0  0  0  0  0  0  0  0  0
  -26.7773  -30.1574   27.3255 C   0  0  0  0  0  0  0  0  0  0  0  0
  -25.9432  -29.6358   20.7524 C   0  0  0  0  0  0  0  0  0  0  0  0
  -26.5101  -29.3942   26.1729 C   0  0  0  0  0  0  0  0  0  0  0  0
  -24.9571  -28.8172   20.1834 C   0  0  0  0  0  0  0  0  0  0  0  0
  -29.0458  -17.8454   15.0825 C   0  0  0  0  0  0  0  0  0  0  0  0
  -27.8962  -17.9159   17.2063 C   0  0  0  0  0  0  0  0  0  0  0  0
  -21.9781   -8.5118   21.9051 C   0  0  0  0  0  0  0  0  0  0  0  0
  -26.6932  -27.4684   19.1456 C   0  0  0  0  0  0  0  0  0  0  0  0
  -21.4281   -6.3594   22.6713 C   0  0  0  0  0  0  0  0  0  0  0  0
  -22.2581   -3.8351   23.5207 C   0  0  0  0  0  0  0  0  0  0  0  0
  -21.0902   -5.9067   23.9466 C   0  0  0  0  0  0  0  0  0  0  0  0
  -24.9670  -11.3094   20.8384 C   0  0  0  0  0  0  0  0  0  0  0  0
  -26.7467  -12.2899   19.9979 C   0  0  0  0  0  0  0  0  0  0  0  0
  -29.3009  -21.3327   16.4796 C   0  0  0  0  0  0  0  0  0  0  0  0
  -28.6607  -22.1936   17.2895 C   0  0  0  0  0  0  0  0  0  0  0  0
  -28.2077  -24.3388   18.3163 C   0  0  0  0  0  0  0  0  0  0  0  0
  -26.5447   -9.8698   19.4055 C   0  0  0  0  0  0  0  0  0  0  0  0
  -28.9572  -23.6206   17.4536 C   0  0  0  0  0  0  0  0  0  0  0  0
  -24.1334  -29.7309   23.3638 C   0  0  0  0  0  0  0  0  0  0  0  0
  -21.8796  -30.8001   21.2904 C   0  0  0  0  0  0  0  0  0  0  0  0
  -20.7386  -30.9545   18.0777 C   0  0  0  0  0  0  0  0  0  0  0  0
  -26.6587  -17.8249   19.3987 C   0  0  0  0  0  0  0  0  0  0  0  0
  -25.6750  -30.8307   28.1042 C   0  0  0  0  0  0  0  0  0  0  0  0
  -25.5568  -30.8223   21.5921 C   0  0  0  0  0  0  0  0  0  0  0  0
  -23.4896  -29.0674   20.4122 C   0  0  0  0  0  0  0  0  0  0  0  0
  -24.3756  -30.9785   27.3168 C   0  0  0  0  0  0  0  0  0  0  0  0
  -25.9595  -16.5336   22.6423 C   0  0  0  0  0  0  0  0  0  0  0  0
  -24.0253  -29.6706   26.6145 C   0  0  0  0  0  0  0  0  0  0  0  0
  -25.7326  -15.0402   22.3968 C   0  0  0  0  0  0  0  0  0  0  0  0
  -25.4082  -17.3862   21.5008 C   0  0  0  0  0  0  0  0  0  0  0  0
  -25.6510  -15.5157   19.9160 C   0  0  0  0  0  0  0  0  0  0  0  0
  -25.1118  -29.2776   25.6062 C   0  0  1  0  0  0  0  0  0  0  0  0
  -24.1675  -30.6911   22.2086 C   0  0  1  0  0  0  0  0  0  0  0  0
  -26.2472  -14.6128   21.0082 C   0  0  2  0  0  0  0  0  0  0  0  0
  -29.4859  -17.0855   13.8770 C   0  0  0  0  0  0  0  0  0  0  0  0
  -30.0911  -24.1940   16.6443 C   0  0  0  0  0  0  0  0  0  0  0  0
  -18.8505  -31.8672   16.6995 C   0  0  0  0  0  0  0  0  0  0  0  0
  -20.0568  -28.5816   22.3227 C   0  0  0  0  0  0  0  0  0  0  0  0
  -18.6101  -28.9287   20.3091 C   0  0  0  0  0  0  0  0  0  0  0  0
  -18.9202  -30.7785   21.9537 C   0  0  0  0  0  0  0  0  0  0  0  0
  -22.5710  -32.6283   16.4654 C   0  0  0  0  0  0  0  0  0  0  0  0
  -28.3085  -25.7939   18.6531 C   0  0  0  0  0  0  0  0  0  1  0  0
  -20.8305  -30.1484   20.4221 C   0  0  1  0  0  0  0  0  0  0  0  0
  -20.2504  -32.1204   17.2371 C   0  0  2  0  0  0  0  0  0  0  0  0
  -19.6320  -29.6031   21.2490 C   0  0  0  0  0  0  0  0  0  0  0  0
  -24.8866  -12.5723   21.2659 N   0  0  0  0  0  0  0  0  0  0  0  0
  -25.9829  -13.1432   20.7386 N   0  0  0  0  0  0  0  0  0  0  0  0
  -23.1625  -30.2362   21.2456 N   0  0  0  0  0  0  0  0  0  0  0  0
  -25.9424  -16.9261   20.2171 N   0  0  0  0  0  0  0  0  0  0  0  0
  -27.8835  -12.6998   19.3964 N   0  0  0  0  0  0  0  0  0  0  0  0
  -25.7674   -8.7133   19.5555 N   0  0  0  0  0  0  0  0  0  0  0  0
  -27.1464  -17.2660   18.2178 N   0  0  0  0  0  0  0  0  0  0  0  0
  -24.9878  -30.0639   24.3975 N   0  0  0  0  0  0  0  0  0  0  0  0
  -20.4612  -31.1381   19.4158 N   0  0  0  0  0  0  0  0  0  0  0  0
  -21.1642  -32.3443   16.0814 N   0  3  0  0  0  0  0  0  0  0  0  0
  -27.6038   -9.8151   18.7355 O   0  0  0  0  0  0  0  0  0  0  0  0
  -23.3862  -28.7606   23.3212 O   0  0  0  0  0  0  0  0  0  0  0  0
  -21.5738  -31.7779   21.9774 O   0  0  0  0  0  0  0  0  0  0  0  0
  -21.3058  -29.9767   17.5950 O   0  0  0  0  0  0  0  0  0  0  0  0
  -26.8505  -18.9964   19.7343 O   0  0  0  0  0  0  0  0  0  0  0  0
  -21.0162   -7.6119   22.2478 O   0  0  0  0  0  0  0  0  0  0  0  0
  -27.0541  -26.4116   18.3680 O   0  0  0  0  0  0  0  0  0  1  0  0
  -22.6553   -2.6224   23.9279 F   0  0  0  0  0  0  0  0  0  0  0  0
  -20.3661   -6.6795   24.7679 F   0  0  0  0  0  0  0  0  0  0  0  0
  1  2  1  0  0  0  0
  1  5  2  0  0  0  0
  2  6  2  0  0  0  0
  3  8  2  0  0  0  0
  3 18  1  0  0  0  0
  4  9  1  0  0  0  0
  4 18  2  0  0  0  0
  5 21  1  0  0  0  0
  6 23  1  0  0  0  0
  7 10  2  0  0  0  0
  7 22  1  0  0  0  0
  8 27  1  0  0  0  0
  9 27  2  0  0  0  0
 10 28  1  0  0  0  0
 11 12  2  0  0  0  0
 11 29  1  0  0  0  0
 12 30  1  0  0  0  0
 13 19  1  0  0  0  0
 13 25  2  0  0  0  0
 14 19  2  0  0  0  0
 14 26  1  0  0  0  0
 15 24  1  0  0  0  0
 15 28  2  0  0  0  0
 16 25  1  0  0  0  0
 16 26  2  0  0  0  0
 17 30  2  0  0  0  0
 17 31  1  0  0  0  0
 18 32  1  0  0  0  0
 19 34  1  0  0  0  0
 20 32  1  0  0  0  0
 20 33  2  0  0  0  0
 20 37  1  0  0  0  0
 21 23  2  0  0  0  0
 21 43  1  0  0  0  0
 22 24  2  0  0  0  0
 22 44  1  0  0  0  0
 23 52  1  0  0  0  0
 24 45  1  0  0  0  0
 25 55  1  0  0  0  0
 26 72  1  0  0  0  0
 27 81  1  0  0  0  0
 28 82  1  0  0  0  0
 29 31  2  0  0  0  0
 29 81  1  0  0  0  0
 30 83  1  0  0  0  0
 31 84  1  0  0  0  0
 32 66  2  0  0  0  0
 33 67  1  0  0  0  0
 33 70  1  0  0  0  0
 34 35  2  0  0  0  0
 35 38  1  0  0  0  0
 36 38  2  0  0  0  0
 36 62  1  0  0  0  0
 37 71  1  0  0  0  0
 37 76  2  0  0  0  0
 38 56  1  0  0  0  0
 39 53  1  0  0  0  0
 39 73  1  0  0  0  0
 39 77  2  0  0  0  0
 40 63  1  0  0  0  0
 40 68  1  0  0  0  0
 40 78  2  0  0  0  0
 41 64  1  0  0  0  0
 41 74  1  0  0  0  0
 41 79  2  0  0  0  0
 42 69  1  0  0  0  0
 42 72  1  0  0  0  0
 42 80  2  0  0  0  0
 43 46  1  0  0  0  0
 44 53  1  0  0  0  0
 45 68  1  0  0  0  0
 46 48  1  0  0  0  0
 47 49  1  0  0  0  0
 47 50  1  0  0  0  0
 48 52  1  0  0  0  0
 49 54  1  0  0  0  0
 50 69  1  0  0  0  0
 51 54  1  0  0  0  0
 51 69  1  0  0  0  0
 52 73  1  0  0  0  0
 53 68  1  0  0  0  0
 54 67  1  0  0  0  0
 57 64  1  0  0  0  0
 58 65  1  0  0  0  0
 59 65  1  0  0  0  0
 60 65  1  0  0  0  0
 61 75  1  0  0  0  0
 62 82  1  0  0  0  0
 63 65  1  0  0  0  0
 63 74  1  0  0  0  0
 64 75  1  0  0  0  0
 66 67  1  0  0  0  0
M  CHG  1  75   1
M  ISO  4  42 100  62 101  72 100  82 101
M  END
> <Batch ID>
0118

> <Smiles>
CNC(C)C(=O)NC(C(=O)N1Cc2cc([101O:1][101CH2:1]C=C(C)C=Cc3cc(C)cc([100NH:0][100C:0](=O)N4CCCC(n5nc(-c6ccc(Oc7ccc(F)cc7F)cc6)c(C(N)=O)c5N)C4)c3)ccc2CC1C(=O)NC1CCCc2ccccc21)C(C)(C)C

> <Shape>
0.259

> <Color>
0.103

> <Negative vol penalty>
0.000

$$$$

  -OEChem-04052301483D

 89 98  0     1  0  0  0  0  0999 V2000
  -22.9715  -29.8776   21.4561 C   0  0  0  0  0  0  0  0  0  0  0  0
  -23.4025  -28.5558   21.4078 C   0  0  0  0  0  0  0  0  0  0  0  0
  -23.1484   -9.9283   19.8695 C   0  0  0  0  0  0  0  0  0  0  0  0
  -23.8119   -9.8178   22.1899 C   0  0  0  0  0  0  0  0  0  0  0  0
  -23.7733  -30.8906   20.9319 C   0  0  0  0  0  0  0  0  0  0  0  0
  -24.6352  -28.2460   20.8343 C   0  0  0  0  0  0  0  0  0  0  0  0
  -28.5033  -23.8313   22.5818 C   0  0  0  0  0  0  0  0  0  0  0  0
  -22.4111   -8.7544   20.0243 C   0  0  0  0  0  0  0  0  0  0  0  0
  -23.0745   -8.6439   22.3448 C   0  0  0  0  0  0  0  0  0  0  0  0
  -28.7338  -22.5424   22.1028 C   0  0  0  0  0  0  0  0  0  0  0  0
  -19.8356   -7.7761   22.7656 C   0  0  0  0  0  0  0  0  0  0  0  0
  -19.0312   -7.6627   23.8994 C   0  0  0  0  0  0  0  0  0  0  0  0
  -31.0631  -14.6709   22.9667 C   0  0  0  0  0  0  0  0  0  0  0  0
  -30.5675  -23.3712   20.7724 C   0  0  0  0  0  0  0  0  0  0  0  0
  -29.9513  -15.5321   24.9312 C   0  0  0  0  0  0  0  0  0  0  0  0
  -20.2680   -5.7024   24.5809 C   0  0  0  0  0  0  0  0  0  0  0  0
  -23.8488  -10.4600   20.9523 C   0  0  0  0  0  0  0  0  0  0  0  0
  -29.7293  -13.1995   24.3425 C   0  0  0  0  0  0  0  0  0  0  0  0
  -30.5445  -13.4029   23.2291 C   0  0  0  0  0  0  0  0  0  0  0  0
  -24.1597  -12.9917   20.9849 C   0  0  0  0  0  0  0  0  0  0  0  0
  -25.0208  -30.5943   20.3604 C   0  0  0  0  0  0  0  0  0  0  0  0
  -29.2977  -24.9035   22.1506 C   0  0  0  0  0  0  0  0  0  0  0  0
  -25.4539  -29.2559   20.3009 C   0  0  0  0  0  0  0  0  0  0  0  0
  -30.3467  -24.6723   21.2494 C   0  0  0  0  0  0  0  0  0  0  0  0
  -29.4327  -14.2641   25.1936 C   0  0  0  0  0  0  0  0  0  0  0  0
  -22.3741   -8.1122   21.2620 C   0  0  0  0  0  0  0  0  0  0  0  0
  -29.7641  -22.3127   21.1958 C   0  0  0  0  0  0  0  0  0  0  0  0
  -20.8563   -6.8525   22.5393 C   0  0  0  0  0  0  0  0  0  0  0  0
  -30.7665  -15.7355   23.8178 C   0  0  0  0  0  0  0  0  0  0  0  0
  -19.2474   -6.6259   24.8071 C   0  0  0  0  0  0  0  0  0  0  0  0
  -21.0725   -5.8157   23.4470 C   0  0  0  0  0  0  0  0  0  0  0  0
  -24.6111  -11.6722   20.7928 C   0  0  0  0  0  0  0  0  0  0  0  0
  -25.2554  -13.7729   20.7097 C   0  0  0  0  0  0  0  0  0  0  0  0
  -28.0158  -11.3578   24.1869 C   0  0  0  0  0  0  0  0  0  0  0  0
  -29.1808  -11.8609   24.6239 C   0  0  0  0  0  0  0  0  0  0  0  0
  -30.8812  -12.3200   22.3118 C   0  0  0  0  0  0  0  0  0  0  0  0
  -22.8658  -13.4687   21.3771 C   0  0  0  0  0  0  0  0  0  0  0  0
  -31.1452  -12.5819   20.8783 C   0  0  0  0  0  0  0  0  0  0  0  0
  -28.7502  -27.6089   20.5743 C   0  0  0  0  0  0  0  0  0  0  0  0
  -31.8698  -28.1807   21.2551 C   0  0  0  0  0  0  0  0  0  0  0  0
  -34.9461  -26.9184   22.0233 C   0  0  0  0  0  0  0  0  0  0  0  0
  -25.8314  -31.7177   19.7642 C   0  0  0  0  0  0  0  0  0  0  0  0
  -29.0532  -26.2833   22.6973 C   0  0  0  0  0  0  0  0  0  0  0  0
  -31.2410  -25.7858   20.7709 C   0  0  0  0  0  0  0  0  0  0  0  0
  -27.7651   -9.9781   24.6987 C   0  0  0  0  0  0  0  0  0  0  0  0
  -29.8776  -10.8721   25.5151 C   0  0  0  0  0  0  0  0  0  0  0  0
  -27.2907  -31.3481   19.5111 C   0  0  0  0  0  0  0  0  0  0  0  0
  -29.1300   -9.5685   25.2390 C   0  0  0  0  0  0  0  0  0  0  0  0
  -29.2572  -13.8453   18.1041 C   0  0  0  0  0  0  0  0  0  0  0  0
  -27.3859  -29.9887   18.8257 C   0  0  0  0  0  0  0  0  0  0  0  0
  -27.8131  -13.5157   18.4805 C   0  0  0  0  0  0  0  0  0  0  0  0
  -30.2223  -12.7744   18.6024 C   0  0  0  0  0  0  0  0  0  0  0  0
  -28.6827  -12.1843   20.4545 C   0  0  0  0  0  0  0  0  0  0  0  0
  -26.7959  -28.8829   19.7092 C   0  0  1  0  0  0  0  0  0  0  0  0
  -29.5964  -27.3879   21.7961 C   0  0  1  0  0  0  0  0  0  0  0  0
  -27.6816  -13.2574   19.9921 C   0  0  2  0  0  0  0  0  0  0  0  0
  -28.5630  -14.0873   26.3971 C   0  0  0  0  0  0  0  0  0  0  0  0
  -37.3082  -27.6295   22.4837 C   0  0  0  0  0  0  0  0  0  0  0  0
  -32.3012  -28.6691   18.2743 C   0  0  0  0  0  0  0  0  0  0  0  0
  -34.7629  -28.4296   18.6623 C   0  0  0  0  0  0  0  0  0  0  0  0
  -33.4994  -30.2687   19.7776 C   0  0  0  0  0  0  0  0  0  0  0  0
  -34.8825  -25.7715   24.7509 C   0  0  0  0  0  0  0  0  0  0  0  0
  -31.5675  -19.2337   20.5689 C   0  0  0  0  0  0  0  0  0  0  0  0
  -31.3172  -18.8082   22.0114 C   0  0  0  0  0  0  0  0  0  0  0  0
  -31.3341  -20.7261   20.3749 C   0  0  0  0  0  0  0  0  0  1  0  0
  -31.5085  -17.3096   22.1968 C   0  0  0  0  0  0  0  0  0  0  0  0
  -33.1840  -27.8892   20.5718 C   0  0  1  0  0  0  0  0  0  0  0  0
  -35.9537  -27.3013   23.0922 C   0  0  2  0  0  0  0  0  0  0  0  0
  -33.4190  -28.7933   19.3288 C   0  0  0  0  0  0  0  0  0  0  0  0
  -25.8935  -11.6145   20.4238 N   0  0  0  0  0  0  0  0  0  0  0  0
  -30.9729  -11.0741   22.6835 N   0  0  0  0  0  0  0  0  0  0  0  0
  -26.2573  -12.9076   20.3819 N   0  0  0  0  0  0  0  0  0  0  0  0
  -30.0463  -12.5283   20.0323 N   0  0  0  0  0  0  0  0  0  0  0  0
  -30.9579  -27.1182   21.3294 N   0  0  0  0  0  0  0  0  0  0  0  0
  -25.4499  -15.1088   20.7185 N   0  0  0  0  0  0  0  0  0  0  0  0
  -21.8536  -12.5304   21.6211 N   0  0  0  0  0  0  0  0  0  0  0  0
  -27.7278  -28.5207   20.7555 N   0  0  0  0  0  0  0  0  0  0  0  0
  -34.2131  -28.0066   21.5991 N   0  0  0  0  0  0  0  0  0  0  0  0
  -36.1321  -26.1825   24.0605 N   0  3  0  0  0  0  0  0  0  0  0  0
  -22.6100  -14.6914   21.4915 O   0  0  0  0  0  0  0  0  0  0  0  0
  -32.3114  -12.8186   20.5915 O   0  0  0  0  0  0  0  0  0  0  0  0
  -29.0068  -26.9986   19.5432 O   0  0  0  0  0  0  0  0  0  0  0  0
  -31.6629  -29.3074   21.7126 O   0  0  0  0  0  0  0  0  0  0  0  0
  -34.8241  -25.7697   21.6038 O   0  0  0  0  0  0  0  0  0  0  0  0
  -21.6545   -6.9669   21.4136 O   0  0  0  0  0  0  0  0  0  0  0  0
  -29.9908  -21.0558   20.7261 O   0  0  0  0  0  0  0  0  0  1  0  0
  -31.2761  -16.9816   23.5597 O   0  0  0  0  0  0  0  0  0  0  0  0
  -18.4758   -6.5180   25.8967 F   0  0  0  0  0  0  0  0  0  0  0  0
  -22.0522   -4.9262   23.2357 F   0  0  0  0  0  0  0  0  0  0  0  0
  1  2  1  0  0  0  0
  1  5  2  0  0  0  0
  2  6  2  0  0  0  0
  3  8  2  0  0  0  0
  3 17  1  0  0  0  0
  4  9  1  0  0  0  0
  4 17  2  0  0  0  0
  5 21  1  0  0  0  0
  6 23  1  0  0  0  0
  7 10  2  0  0  0  0
  7 22  1  0  0  0  0
  8 26  1  0  0  0  0
  9 26  2  0  0  0  0
 10 27  1  0  0  0  0
 11 12  2  0  0  0  0
 11 28  1  0  0  0  0
 12 30  1  0  0  0  0
 13 19  1  0  0  0  0
 13 29  2  0  0  0  0
 14 24  1  0  0  0  0
 14 27  2  0  0  0  0
 15 25  2  0  0  0  0
 15 29  1  0  0  0  0
 16 30  2  0  0  0  0
 16 31  1  0  0  0  0
 17 32  1  0  0  0  0
 18 19  2  0  0  0  0
 18 25  1  0  0  0  0
 18 35  1  0  0  0  0
 19 36  1  0  0  0  0
 20 32  1  0  0  0  0
 20 33  2  0  0  0  0
 20 37  1  0  0  0  0
 21 23  2  0  0  0  0
 21 42  1  0  0  0  0
 22 24  2  0  0  0  0
 22 43  1  0  0  0  0
 23 54  1  0  0  0  0
 24 44  1  0  0  0  0
 25 57  1  0  0  0  0
 26 85  1  0  0  0  0
 27 86  1  0  0  0  0
 28 31  2  0  0  0  0
 28 85  1  0  0  0  0
 29 87  1  0  0  0  0
 30 88  1  0  0  0  0
 31 89  1  0  0  0  0
 32 70  2  0  0  0  0
 33 72  1  0  0  0  0
 33 75  1  0  0  0  0
 34 35  2  0  0  0  0
 34 45  1  0  0  0  0
 35 46  1  0  0  0  0
 36 38  1  0  0  0  0
 36 71  2  0  0  0  0
 37 76  1  0  0  0  0
 37 80  2  0  0  0  0
 38 73  1  0  0  0  0
 38 81  2  0  0  0  0
 39 55  1  0  0  0  0
 39 77  1  0  0  0  0
 39 82  2  0  0  0  0
 40 67  1  0  0  0  0
 40 74  1  0  0  0  0
 40 83  2  0  0  0  0
 41 68  1  0  0  0  0
 41 78  1  0  0  0  0
 41 84  2  0  0  0  0
 42 47  1  0  0  0  0
 43 55  1  0  0  0  0
 44 74  1  0  0  0  0
 45 48  1  0  0  0  0
 46 48  1  0  0  0  0
 47 50  1  0  0  0  0
 49 51  1  0  0  0  0
 49 52  1  0  0  0  0
 50 54  1  0  0  0  0
 51 56  1  0  0  0  0
 52 73  1  0  0  0  0
 53 56  1  0  0  0  0
 53 73  1  0  0  0  0
 54 77  1  0  0  0  0
 55 74  1  0  0  0  0
 56 72  1  0  0  0  0
 58 68  1  0  0  0  0
 59 69  1  0  0  0  0
 60 69  1  0  0  0  0
 61 69  1  0  0  0  0
 62 79  1  0  0  0  0
 63 64  1  0  0  0  0
 63 65  1  0  0  0  0
 64 66  1  0  0  0  0
 65 86  1  0  0  0  0
 66 87  1  0  0  0  0
 67 69  1  0  0  0  0
 67 78  1  0  0  0  0
 68 79  1  0  0  0  0
 70 72  1  0  0  0  0
M  CHG  1  79   1
M  ISO  4  36 100  38 100  65 101  86 101
M  END
> <Batch ID>
0118

> <Smiles>
CNC(C)C(=O)NC(C(=O)N1Cc2cc([101O:1][101CH2:1]CCCOc3cc(C)c(C4=CCCC4)c([100C:0](=N)[100C:0](=O)N4CCCC(n5nc(-c6ccc(Oc7ccc(F)cc7F)cc6)c(C(N)=O)c5N)C4)c3)ccc2CC1C(=O)NC1CCCc2ccccc21)C(C)(C)C

> <Shape>
0.260

> <Color>
0.193

> <Negative vol penalty>
0.000

$$$$

  -OEChem-04052301483D

 86 94  0     1  0  0  0  0  0999 V2000
  -27.9850  -34.2543   23.8456 C   0  0  0  0  0  0  0  0  0  0  0  0
  -28.6035  -33.1710   23.2297 C   0  0  0  0  0  0  0  0  0  0  0  0
  -23.6168   -9.9119   21.8588 C   0  0  0  0  0  0  0  0  0  0  0  0
  -24.2617  -11.1406   23.8365 C   0  0  0  0  0  0  0  0  0  0  0  0
  -26.7992  -34.0679   24.5548 C   0  0  0  0  0  0  0  0  0  0  0  0
  -28.0371  -31.9003   23.3237 C   0  0  0  0  0  0  0  0  0  0  0  0
  -28.0963  -27.5179   19.0462 C   0  0  0  0  0  0  0  0  0  0  0  0
  -23.0345   -8.9292   22.6592 C   0  0  0  0  0  0  0  0  0  0  0  0
  -23.6793  -10.1578   24.6370 C   0  0  0  0  0  0  0  0  0  0  0  0
  -28.8997  -26.3926   18.8672 C   0  0  0  0  0  0  0  0  0  0  0  0
  -20.1665   -8.5118   24.4009 C   0  0  0  0  0  0  0  0  0  0  0  0
  -18.9033   -8.0448   24.0380 C   0  0  0  0  0  0  0  0  0  0  0  0
  -30.8249  -18.6768   22.5083 C   0  0  0  0  0  0  0  0  0  0  0  0
  -27.2380  -25.0378   19.9729 C   0  0  0  0  0  0  0  0  0  0  0  0
  -32.8386  -17.0222   21.5133 C   0  0  0  0  0  0  0  0  0  0  0  0
  -19.7948   -5.8108   23.8100 C   0  0  0  0  0  0  0  0  0  0  0  0
  -24.2305  -11.0176   22.4475 C   0  0  0  0  0  0  0  0  0  0  0  0
  -30.8572  -17.3278   22.8615 C   0  0  0  0  0  0  0  0  0  0  0  0
  -24.2137  -13.1874   21.1061 C   0  0  0  0  0  0  0  0  0  0  0  0
  -26.2128  -32.7959   24.6493 C   0  0  0  0  0  0  0  0  0  0  0  0
  -26.8605  -27.4134   19.7006 C   0  0  0  0  0  0  0  0  0  0  0  0
  -26.8430  -31.6964   24.0359 C   0  0  0  0  0  0  0  0  0  0  0  0
  -26.4196  -26.1628   20.1566 C   0  0  0  0  0  0  0  0  0  0  0  0
  -31.8641  -16.5005   22.3640 C   0  0  0  0  0  0  0  0  0  0  0  0
  -32.8063  -18.3713   21.1600 C   0  0  0  0  0  0  0  0  0  0  0  0
  -23.0657   -9.0521   24.0482 C   0  0  0  0  0  0  0  0  0  0  0  0
  -28.4719  -25.1529   19.3332 C   0  0  0  0  0  0  0  0  0  0  0  0
  -21.2439   -7.6284   24.4683 C   0  0  0  0  0  0  0  0  0  0  0  0
  -31.7994  -19.1985   21.6575 C   0  0  0  0  0  0  0  0  0  0  0  0
  -18.7174   -6.6943   23.7426 C   0  0  0  0  0  0  0  0  0  0  0  0
  -21.0580   -6.2779   24.1729 C   0  0  0  0  0  0  0  0  0  0  0  0
  -24.8328  -12.0328   21.6212 C   0  0  0  0  0  0  0  0  0  0  0  0
  -25.2032  -13.8184   20.3925 C   0  0  0  0  0  0  0  0  0  0  0  0
  -28.5336  -16.8130   23.4541 C   0  0  0  0  0  0  0  0  0  0  0  0
  -29.8245  -16.8122   23.7507 C   0  0  0  0  0  0  0  0  0  0  0  0
  -22.8647  -13.6484   21.2590 C   0  0  0  0  0  0  0  0  0  0  0  0
  -25.6167  -28.6431   22.3548 C   0  0  0  0  0  0  0  0  0  0  0  0
  -30.4644  -22.2759   20.2734 C   0  0  0  0  0  0  0  0  0  0  0  0
  -22.9164  -27.1889   21.2981 C   0  0  0  0  0  0  0  0  0  0  0  0
  -21.5028  -24.7333   19.3959 C   0  0  0  0  0  0  0  0  0  0  0  0
  -31.1791  -13.7338   20.7565 C   0  0  0  0  0  0  0  0  0  0  0  0
  -24.9554  -32.6352   25.4666 C   0  0  0  0  0  0  0  0  0  0  0  0
  -25.9936  -28.6319   19.8620 C   0  0  0  0  0  0  0  0  0  0  0  0
  -25.0921  -25.9936   20.8476 C   0  0  0  0  0  0  0  0  0  0  0  0
  -24.2213  -31.3230   25.2031 C   0  0  0  0  0  0  0  0  0  0  0  0
  -29.1954  -12.9090   17.9173 C   0  0  0  0  0  0  0  0  0  0  0  0
  -25.2007  -30.1535   25.2057 C   0  0  0  0  0  0  0  0  0  0  0  0
  -27.7965  -12.6951   18.4981 C   0  0  0  0  0  0  0  0  0  0  0  0
  -30.2827  -12.4083   18.8655 C   0  0  0  0  0  0  0  0  0  0  0  0
  -28.8116  -12.7399   20.8147 C   0  0  0  0  0  0  0  0  0  0  0  0
  -26.2461  -30.3070   24.0943 C   0  0  1  0  0  0  0  0  0  0  0  0
  -24.9848  -28.5012   20.9989 C   0  0  1  0  0  0  0  0  0  0  0  0
  -27.6838  -13.2801   19.9188 C   0  0  2  0  0  0  0  0  0  0  0  0
  -33.8566  -18.9125   20.2472 C   0  0  0  0  0  0  0  0  0  0  0  0
  -19.2741  -23.7695   18.7622 C   0  0  0  0  0  0  0  0  0  0  0  0
  -22.7334  -25.8272   24.0225 C   0  0  0  0  0  0  0  0  0  0  0  0
  -21.1036  -24.2087   23.0262 C   0  0  0  0  0  0  0  0  0  0  0  0
  -20.5498  -26.6394   23.1134 C   0  0  0  0  0  0  0  0  0  0  0  0
  -21.9212  -25.3481   16.5313 C   0  0  0  0  0  0  0  0  0  0  0  0
  -31.9301  -15.0504   22.7216 C   0  0  0  0  0  0  0  0  0  0  0  0
  -29.1529  -23.0228   20.1426 C   0  0  0  0  0  0  0  0  0  1  0  0
  -30.4806  -21.1405   21.2762 C   0  0  0  0  0  0  0  0  0  0  0  0
  -22.2968  -25.8241   21.4778 C   0  0  1  0  0  0  0  0  0  0  0  0
  -20.3626  -24.7657   18.3942 C   0  0  2  0  0  0  0  0  0  0  0  0
  -21.6969  -25.6280   22.8987 C   0  0  0  0  0  0  0  0  0  0  0  0
  -26.1163  -11.9335   21.2650 N   0  0  0  0  0  0  0  0  0  0  0  0
  -26.3116  -13.0337   20.5184 N   0  0  0  0  0  0  0  0  0  0  0  0
  -24.2833  -27.2158   20.9872 N   0  0  0  0  0  0  0  0  0  0  0  0
  -30.1199  -13.0019   20.1948 N   0  0  0  0  0  0  0  0  0  0  0  0
  -25.2246  -14.9622   19.6758 N   0  0  0  0  0  0  0  0  0  0  0  0
  -21.9784  -12.8790   22.0251 N   0  0  0  0  0  0  0  0  0  0  0  0
  -25.6786  -29.9452   22.8131 N   0  0  0  0  0  0  0  0  0  0  0  0
  -21.3317  -25.6682   20.3949 N   0  0  0  0  0  0  0  0  0  0  0  0
  -30.9394  -14.2679   22.0167 N   0  0  0  0  0  0  0  0  0  0  0  0
  -20.8621  -24.4335   17.0300 N   0  3  0  0  0  0  0  0  0  0  0  0
  -22.4528  -14.7028   20.7184 O   0  0  0  0  0  0  0  0  0  0  0  0
  -26.0170  -27.6449   22.9422 O   0  0  0  0  0  0  0  0  0  0  0  0
  -31.4547  -22.5735   19.6072 O   0  0  0  0  0  0  0  0  0  0  0  0
  -22.2119  -28.1939   21.4218 O   0  0  0  0  0  0  0  0  0  0  0  0
  -22.4485  -23.9539   19.3036 O   0  0  0  0  0  0  0  0  0  0  0  0
  -32.2565  -13.9034   20.1757 O   0  0  0  0  0  0  0  0  0  0  0  0
  -22.4972   -8.0935   24.8296 O   0  0  0  0  0  0  0  0  0  0  0  0
  -29.2545  -24.0531   19.1604 O   0  0  0  0  0  0  0  0  0  1  0  0
  -31.7533  -20.5304   21.3198 O   0  0  0  0  0  0  0  0  0  0  0  0
  -17.5039   -6.2456   23.3955 F   0  0  0  0  0  0  0  0  0  0  0  0
  -22.0890   -5.4242   24.2371 F   0  0  0  0  0  0  0  0  0  0  0  0
  1  2  1  0  0  0  0
  1  5  2  0  0  0  0
  2  6  2  0  0  0  0
  3  8  2  0  0  0  0
  3 17  1  0  0  0  0
  4  9  1  0  0  0  0
  4 17  2  0  0  0  0
  5 20  1  0  0  0  0
  6 22  1  0  0  0  0
  7 10  2  0  0  0  0
  7 21  1  0  0  0  0
  8 26  1  0  0  0  0
  9 26  2  0  0  0  0
 10 27  1  0  0  0  0
 11 12  2  0  0  0  0
 11 28  1  0  0  0  0
 12 30  1  0  0  0  0
 13 18  1  0  0  0  0
 13 29  2  0  0  0  0
 14 23  1  0  0  0  0
 14 27  2  0  0  0  0
 15 24  1  0  0  0  0
 15 25  2  0  0  0  0
 16 30  2  0  0  0  0
 16 31  1  0  0  0  0
 17 32  1  0  0  0  0
 18 24  2  0  0  0  0
 18 35  1  0  0  0  0
 19 32  1  0  0  0  0
 19 33  2  0  0  0  0
 19 36  1  0  0  0  0
 20 22  2  0  0  0  0
 20 42  1  0  0  0  0
 21 23  2  0  0  0  0
 21 43  1  0  0  0  0
 22 51  1  0  0  0  0
 23 44  1  0  0  0  0
 24 60  1  0  0  0  0
 25 29  1  0  0  0  0
 25 54  1  0  0  0  0
 26 82  1  0  0  0  0
 27 83  1  0  0  0  0
 28 31  2  0  0  0  0
 28 82  1  0  0  0  0
 29 84  1  0  0  0  0
 30 85  1  0  0  0  0
 31 86  1  0  0  0  0
 32 66  2  0  0  0  0
 33 67  1  0  0  0  0
 33 70  1  0  0  0  0
 34 35  2  0  0  0  0
 36 71  1  0  0  0  0
 36 76  2  0  0  0  0
 37 52  1  0  0  0  0
 37 72  1  0  0  0  0
 37 77  2  0  0  0  0
 38 61  1  0  0  0  0
 38 62  1  0  0  0  0
 38 78  2  0  0  0  0
 39 63  1  0  0  0  0
 39 68  1  0  0  0  0
 39 79  2  0  0  0  0
 40 64  1  0  0  0  0
 40 73  1  0  0  0  0
 40 80  2  0  0  0  0
 41 69  1  0  0  0  0
 41 74  1  0  0  0  0
 41 81  2  0  0  0  0
 42 45  1  0  0  0  0
 43 52  1  0  0  0  0
 44 68  1  0  0  0  0
 45 47  1  0  0  0  0
 46 48  1  0  0  0  0
 46 49  1  0  0  0  0
 47 51  1  0  0  0  0
 48 53  1  0  0  0  0
 49 69  1  0  0  0  0
 50 53  1  0  0  0  0
 50 69  1  0  0  0  0
 51 72  1  0  0  0  0
 52 68  1  0  0  0  0
 53 67  1  0  0  0  0
 55 64  1  0  0  0  0
 56 65  1  0  0  0  0
 57 65  1  0  0  0  0
 58 65  1  0  0  0  0
 59 75  1  0  0  0  0
 60 74  1  0  0  0  0
 61 83  1  0  0  0  0
 62 84  1  0  0  0  0
 63 65  1  0  0  0  0
 63 73  1  0  0  0  0
 64 75  1  0  0  0  0
 66 67  1  0  0  0  0
M  CHG  1  75   1
M  ISO  4  41 100  61 101  74 100  83 101
M  END
> <Batch ID>
0118

> <Smiles>
C=Cc1cc(OCC(=O)[101CH2:1][101O:1]c2ccc3c(c2)CN(C(=O)C(NC(=O)C(C)NC)C(C)(C)C)C(C(=O)NC2CCCc4ccccc42)C3)c(C)cc1C[100NH:0][100C:0](=O)N1CCCC(n2nc(-c3ccc(Oc4ccc(F)cc4F)cc3)c(C(N)=O)c2N)C1

> <Shape>
0.287

> <Color>
0.128

> <Negative vol penalty>
0.000

$$$$

  -OEChem-04052301483D

 82 90  0     1  0  0  0  0  0999 V2000
  -16.5684  -30.1359   23.3986 C   0  0  0  0  0  0  0  0  0  0  0  0
  -17.6517  -30.9016   23.8175 C   0  0  0  0  0  0  0  0  0  0  0  0
  -33.3523  -27.1375   18.6545 C   0  0  0  0  0  0  0  0  0  0  0  0
  -26.8844  -16.1676   18.6715 C   0  0  0  0  0  0  0  0  0  0  0  0
  -28.9698  -16.3423   19.8787 C   0  0  0  0  0  0  0  0  0  0  0  0
  -33.0869  -27.4415   19.9897 C   0  0  0  0  0  0  0  0  0  0  0  0
  -16.7716  -28.8354   22.9389 C   0  0  0  0  0  0  0  0  0  0  0  0
  -18.9389  -30.3668   23.7779 C   0  0  0  0  0  0  0  0  0  0  0  0
  -25.7555  -32.2955   22.7150 C   0  0  0  0  0  0  0  0  0  0  0  0
  -32.6022  -26.1611   17.9991 C   0  0  0  0  0  0  0  0  0  0  0  0
  -26.9102  -14.7817   18.8274 C   0  0  0  0  0  0  0  0  0  0  0  0
  -28.9956  -14.9564   20.0347 C   0  0  0  0  0  0  0  0  0  0  0  0
  -27.0095  -32.1951   23.3159 C   0  0  0  0  0  0  0  0  0  0  0  0
  -26.2116  -12.5348   21.2556 C   0  0  0  0  0  0  0  0  0  0  0  0
  -25.0297  -11.9041   21.6439 C   0  0  0  0  0  0  0  0  0  0  0  0
  -31.3212  -25.7926   20.0141 C   0  0  0  0  0  0  0  0  0  0  0  0
  -27.2496  -29.9649   22.4283 C   0  0  0  0  0  0  0  0  0  0  0  0
  -25.0590  -10.5981   19.6115 C   0  0  0  0  0  0  0  0  0  0  0  0
  -27.9142  -16.9479   19.1971 C   0  0  0  0  0  0  0  0  0  0  0  0
  -32.0713  -26.7691   20.6695 C   0  0  0  0  0  0  0  0  0  0  0  0
  -27.3068  -19.3224   19.9044 C   0  0  0  0  0  0  0  0  0  0  0  0
  -18.0630  -28.2877   22.8847 C   0  0  0  0  0  0  0  0  0  0  0  0
  -25.2336  -31.2255   21.9740 C   0  0  0  0  0  0  0  0  0  0  0  0
  -19.1594  -29.0572   23.3184 C   0  0  0  0  0  0  0  0  0  0  0  0
  -25.9899  -30.0552   21.8168 C   0  0  0  0  0  0  0  0  0  0  0  0
  -31.5867  -25.4886   18.6789 C   0  0  0  0  0  0  0  0  0  0  0  0
  -27.9657  -14.1761   19.5090 C   0  0  0  0  0  0  0  0  0  0  0  0
  -27.7556  -31.0286   23.1751 C   0  0  0  0  0  0  0  0  0  0  0  0
  -26.8173  -12.1973   20.0452 C   0  0  0  0  0  0  0  0  0  0  0  0
  -24.4534  -10.9357   20.8218 C   0  0  0  0  0  0  0  0  0  0  0  0
  -26.2410  -11.2289   19.2232 C   0  0  0  0  0  0  0  0  0  0  0  0
  -27.8884  -18.3795   19.0359 C   0  0  0  0  0  0  0  0  0  0  0  0
  -27.5515  -20.5352   19.3080 C   0  0  0  0  0  0  0  0  0  0  0  0
  -31.7918  -27.0913   22.0788 C   0  0  0  0  0  0  0  0  0  0  0  0
  -32.1518  -28.2253   22.7002 C   0  0  0  0  0  0  0  0  0  0  0  0
  -26.6080  -19.1201   21.1399 C   0  0  0  0  0  0  0  0  0  0  0  0
  -22.6796  -29.3512   22.2344 C   0  0  0  0  0  0  0  0  0  0  0  0
  -23.6916  -28.2317   19.3630 C   0  0  0  0  0  0  0  0  0  0  0  0
  -26.2723  -27.7778   17.1766 C   0  0  0  0  0  0  0  0  0  0  0  0
  -30.9582  -24.0766   16.6895 C   0  0  0  0  0  0  0  0  0  0  0  0
  -18.2277  -26.8608   22.4247 C   0  0  0  0  0  0  0  0  0  0  0  0
  -23.8908  -31.3596   21.3097 C   0  0  0  0  0  0  0  0  0  0  0  0
  -25.4834  -28.8855   21.0145 C   0  0  0  0  0  0  0  0  0  0  0  0
  -19.6659  -26.5000   22.0619 C   0  0  0  0  0  0  0  0  0  0  0  0
  -29.3017  -21.6412   14.6890 C   0  0  0  0  0  0  0  0  0  0  0  0
  -20.6278  -26.9940   23.1377 C   0  0  0  0  0  0  0  0  0  0  0  0
  -28.7385  -20.6531   15.7130 C   0  0  0  0  0  0  0  0  0  0  0  0
  -30.6677  -22.1790   15.1116 C   0  0  0  0  0  0  0  0  0  0  0  0
  -30.1545  -21.7666   17.4856 C   0  0  0  0  0  0  0  0  0  0  0  0
  -20.5736  -28.5210   23.2672 C   0  0  1  0  0  0  0  0  0  0  0  0
  -23.2369  -30.0150   21.0070 C   0  0  1  0  0  0  0  0  0  0  0  0
  -28.7505  -21.2472   17.1351 C   0  0  2  0  0  0  0  0  0  0  0  0
  -26.7993  -26.7980   14.9272 C   0  0  0  0  0  0  0  0  0  0  0  0
  -23.6063  -25.4291   20.5665 C   0  0  0  0  0  0  0  0  0  0  0  0
  -25.0115  -24.6393   18.6508 C   0  0  0  0  0  0  0  0  0  0  0  0
  -22.7430  -25.5855   18.2246 C   0  0  0  0  0  0  0  0  0  0  0  0
  -27.1219  -30.4019   16.1036 C   0  0  0  0  0  0  0  0  0  0  0  0
  -31.8401  -28.5127   24.1416 C   0  0  0  0  0  0  0  0  0  0  0  0
  -31.0320  -29.8008   24.2873 C   0  0  0  0  0  0  0  0  0  0  0  0
  -29.6895  -29.7038   23.5758 C   0  0  0  0  0  0  0  0  0  1  0  0
  -24.6217  -27.1314   18.9121 C   0  0  1  0  0  0  0  0  0  0  0  0
  -26.3909  -28.0500   15.6878 C   0  0  2  0  0  0  0  0  0  0  0  0
  -24.0046  -25.7175   19.1053 C   0  0  0  0  0  0  0  0  0  0  0  0
  -28.4594  -18.9447   17.9688 N   0  0  0  0  0  0  0  0  0  0  0  0
  -28.2377  -20.2559   18.1629 N   0  0  0  0  0  0  0  0  0  0  0  0
  -24.1622  -29.0627   20.3895 N   0  0  0  0  0  0  0  0  0  0  0  0
  -30.6015  -22.7297   16.4671 N   0  0  0  0  0  0  0  0  0  0  0  0
  -27.2443  -21.8028   19.6566 N   0  0  0  0  0  0  0  0  0  0  0  0
  -26.4455  -17.8093   21.6087 N   0  0  0  0  0  0  0  0  0  0  0  0
  -30.8244  -24.4975   18.0122 N   0  0  0  0  0  0  0  0  0  0  0  0
  -21.3137  -29.1460   22.1919 N   0  0  0  0  0  0  0  0  0  0  0  0
  -24.9834  -27.4422   17.5333 N   0  0  0  0  0  0  0  0  0  0  0  0
  -27.4100  -29.1074   15.4341 N   0  3  0  0  0  0  0  0  0  0  0  0
  -26.1272  -20.0723   21.8000 O   0  0  0  0  0  0  0  0  0  0  0  0
  -23.4332  -29.0465   23.1514 O   0  0  0  0  0  0  0  0  0  0  0  0
  -22.5910  -28.3538   18.8195 O   0  0  0  0  0  0  0  0  0  0  0  0
  -27.2283  -27.8517   17.9454 O   0  0  0  0  0  0  0  0  0  0  0  0
  -31.3272  -24.8107   15.7693 O   0  0  0  0  0  0  0  0  0  0  0  0
  -27.9911  -12.8239   19.6616 O   0  0  0  0  0  0  0  0  0  0  0  0
  -28.9796  -30.9277   23.7612 O   0  0  0  0  0  0  0  0  0  1  0  0
  -23.3192  -10.3290   21.1955 F   0  0  0  0  0  0  0  0  0  0  0  0
  -26.8188  -10.8996   18.0598 F   0  0  0  0  0  0  0  0  0  0  0  0
  1  2  1  0  0  0  0
  1  7  2  0  0  0  0
  2  8  2  0  0  0  0
  3  6  2  0  0  0  0
  3 10  1  0  0  0  0
  4 11  2  0  0  0  0
  4 19  1  0  0  0  0
  5 12  1  0  0  0  0
  5 19  2  0  0  0  0
  6 20  1  0  0  0  0
  7 22  1  0  0  0  0
  8 24  1  0  0  0  0
  9 13  2  0  0  0  0
  9 23  1  0  0  0  0
 10 26  2  0  0  0  0
 11 27  1  0  0  0  0
 12 27  2  0  0  0  0
 13 28  1  0  0  0  0
 14 15  2  0  0  0  0
 14 29  1  0  0  0  0
 15 30  1  0  0  0  0
 16 20  2  0  0  0  0
 16 26  1  0  0  0  0
 17 25  1  0  0  0  0
 17 28  2  0  0  0  0
 18 30  2  0  0  0  0
 18 31  1  0  0  0  0
 19 32  1  0  0  0  0
 20 34  1  0  0  0  0
 21 32  1  0  0  0  0
 21 33  2  0  0  0  0
 21 36  1  0  0  0  0
 22 24  2  0  0  0  0
 22 41  1  0  0  0  0
 23 25  2  0  0  0  0
 23 42  1  0  0  0  0
 24 50  1  0  0  0  0
 25 43  1  0  0  0  0
 26 70  1  0  0  0  0
 27 79  1  0  0  0  0
 28 80  1  0  0  0  0
 29 31  2  0  0  0  0
 29 79  1  0  0  0  0
 30 81  1  0  0  0  0
 31 82  1  0  0  0  0
 32 64  2  0  0  0  0
 33 65  1  0  0  0  0
 33 68  1  0  0  0  0
 34 35  2  0  0  0  0
 35 58  1  0  0  0  0
 36 69  1  0  0  0  0
 36 74  2  0  0  0  0
 37 51  1  0  0  0  0
 37 71  1  0  0  0  0
 37 75  2  0  0  0  0
 38 61  1  0  0  0  0
 38 66  1  0  0  0  0
 38 76  2  0  0  0  0
 39 62  1  0  0  0  0
 39 72  1  0  0  0  0
 39 77  2  0  0  0  0
 40 67  1  0  0  0  0
 40 70  1  0  0  0  0
 40 78  2  0  0  0  0
 41 44  1  0  0  0  0
 42 51  1  0  0  0  0
 43 66  1  0  0  0  0
 44 46  1  0  0  0  0
 45 47  1  0  0  0  0
 45 48  1  0  0  0  0
 46 50  1  0  0  0  0
 47 52  1  0  0  0  0
 48 67  1  0  0  0  0
 49 52  1  0  0  0  0
 49 67  1  0  0  0  0
 50 71  1  0  0  0  0
 51 66  1  0  0  0  0
 52 65  1  0  0  0  0
 53 62  1  0  0  0  0
 54 63  1  0  0  0  0
 55 63  1  0  0  0  0
 56 63  1  0  0  0  0
 57 73  1  0  0  0  0
 58 59  1  0  0  0  0
 59 60  1  0  0  0  0
 60 80  1  0  0  0  0
 61 63  1  0  0  0  0
 61 72  1  0  0  0  0
 62 73  1  0  0  0  0
 64 65  1  0  0  0  0
M  CHG  1  73   1
M  ISO  4  40 100  60 101  70 100  80 101
M  END
> <Batch ID>
0118

> <Smiles>
CNC(C)C(=O)NC(C(=O)N1Cc2cc([101O:1][101CH2:1]CCC=Cc3cccc([100NH:0][100C:0](=O)N4CCCC(n5nc(-c6ccc(Oc7ccc(F)cc7F)cc6)c(C(N)=O)c5N)C4)c3)ccc2CC1C(=O)NC1CCCc2ccccc21)C(C)(C)C

> <Shape>
0.279

> <Color>
0.101

> <Negative vol penalty>
0.000

$$$$

  -OEChem-04052301483D

 80 88  0     1  0  0  0  0  0999 V2000
  -26.9677  -38.7095   24.9571 C   0  0  0  0  0  0  0  0  0  0  0  0
  -27.6996  -37.8054   24.1941 C   0  0  0  0  0  0  0  0  0  0  0  0
  -24.8132   -8.8570   18.9954 C   0  0  0  0  0  0  0  0  0  0  0  0
  -24.7799   -8.5457   21.3911 C   0  0  0  0  0  0  0  0  0  0  0  0
  -25.9873  -38.2468   25.8338 C   0  0  0  0  0  0  0  0  0  0  0  0
  -27.4523  -36.4378   24.3082 C   0  0  0  0  0  0  0  0  0  0  0  0
  -27.4669  -30.4186   20.4242 C   0  0  0  0  0  0  0  0  0  0  0  0
  -24.9352   -7.4789   18.8180 C   0  0  0  0  0  0  0  0  0  0  0  0
  -24.9018   -7.1675   21.2136 C   0  0  0  0  0  0  0  0  0  0  0  0
  -27.9851  -29.1245   20.4452 C   0  0  0  0  0  0  0  0  0  0  0  0
  -24.8415   -3.5363   21.3829 C   0  0  0  0  0  0  0  0  0  0  0  0
  -24.0175   -2.7082   22.1450 C   0  0  0  0  0  0  0  0  0  0  0  0
  -28.0807  -21.8513   19.6376 C   0  0  0  0  0  0  0  0  0  0  0  0
  -26.2126  -28.4454   21.9340 C   0  0  0  0  0  0  0  0  0  0  0  0
  -22.0682   -3.7440   21.1630 C   0  0  0  0  0  0  0  0  0  0  0  0
  -30.3061  -21.7254   19.7270 C   0  0  0  0  0  0  0  0  0  0  0  0
  -24.7357   -9.3905   20.2820 C   0  0  0  0  0  0  0  0  0  0  0  0
  -29.2623  -22.6205   19.7612 C   0  0  0  0  0  0  0  0  0  0  0  0
  -23.4185  -11.5591   20.5464 C   0  0  0  0  0  0  0  0  0  0  0  0
  -25.7212  -36.8735   25.9516 C   0  0  0  0  0  0  0  0  0  0  0  0
  -26.3220  -30.7390   21.1678 C   0  0  0  0  0  0  0  0  0  0  0  0
  -26.4683  -35.9562   25.1883 C   0  0  0  0  0  0  0  0  0  0  0  0
  -25.6804  -29.7437   21.9187 C   0  0  0  0  0  0  0  0  0  0  0  0
  -24.9795   -6.6342   19.9271 C   0  0  0  0  0  0  0  0  0  0  0  0
  -27.3596  -28.1383   21.2025 C   0  0  0  0  0  0  0  0  0  0  0  0
  -24.2788   -4.4684   20.5109 C   0  0  0  0  0  0  0  0  0  0  0  0
  -22.6309   -2.8120   22.0351 C   0  0  0  0  0  0  0  0  0  0  0  0
  -22.8922   -4.5722   20.4009 C   0  0  0  0  0  0  0  0  0  0  0  0
  -24.6103  -10.8140   20.4659 C   0  0  0  0  0  0  0  0  0  0  0  0
  -28.4867  -20.5409   19.5365 C   0  0  0  0  0  0  0  0  0  0  0  0
  -23.8356  -12.8559   20.7215 C   0  0  0  0  0  0  0  0  0  0  0  0
  -29.3911  -24.0809   19.8983 C   0  0  0  0  0  0  0  0  0  0  0  0
  -27.6668  -19.3973   19.3974 C   0  0  0  0  0  0  0  0  0  0  0  0
  -28.0829  -18.0902   19.3186 C   0  0  0  0  0  0  0  0  0  0  0  0
  -28.3678  -24.9488   19.9292 C   0  0  0  0  0  0  0  0  0  0  0  0
  -22.0564  -11.1183   20.4697 C   0  0  0  0  0  0  0  0  0  0  0  0
  -27.0972  -16.9988   19.1841 C   0  0  0  0  0  0  0  0  0  0  0  0
  -25.6870  -32.7321   23.5612 C   0  0  0  0  0  0  0  0  0  0  0  0
  -22.6343  -31.7672   23.0391 C   0  0  0  0  0  0  0  0  0  0  0  0
  -20.5174  -29.3793   21.8295 C   0  0  0  0  0  0  0  0  0  0  0  0
  -24.6843  -36.4178   26.9476 C   0  0  0  0  0  0  0  0  0  0  0  0
  -25.7601  -32.1332   21.1133 C   0  0  0  0  0  0  0  0  0  0  0  0
  -24.4370  -30.0314   22.7185 C   0  0  0  0  0  0  0  0  0  0  0  0
  -24.2258  -34.9776   26.7336 C   0  0  0  0  0  0  0  0  0  0  0  0
  -28.3889  -14.7506   21.7742 C   0  0  0  0  0  0  0  0  0  0  0  0
  -25.4263  -34.0615   26.5187 C   0  0  0  0  0  0  0  0  0  0  0  0
  -27.4411  -13.5627   21.6313 C   0  0  0  0  0  0  0  0  0  0  0  0
  -28.6706  -15.4222   20.4310 C   0  0  0  0  0  0  0  0  0  0  0  0
  -26.4890  -14.6396   19.5543 C   0  0  0  0  0  0  0  0  0  0  0  0
  -26.2122  -34.4667   25.2659 C   0  0  1  0  0  0  0  0  0  0  0  0
  -24.8860  -32.4726   22.3167 C   0  0  1  0  0  0  0  0  0  0  0  0
  -26.1545  -13.9778   20.9002 C   0  0  1  0  0  0  0  0  0  0  0  0
  -18.0761  -28.8556   21.5780 C   0  0  0  0  0  0  0  0  0  0  0  0
  -22.4830  -31.0610   26.0036 C   0  0  0  0  0  0  0  0  0  0  0  0
  -20.4406  -29.7018   25.5042 C   0  0  0  0  0  0  0  0  0  0  0  0
  -20.4326  -32.1613   25.0874 C   0  0  0  0  0  0  0  0  0  0  0  0
  -20.7212  -29.2916   18.8782 C   0  0  0  0  0  0  0  0  0  0  0  0
  -28.5492  -26.4275   20.0563 C   0  0  0  0  0  0  0  0  0  1  0  0
  -21.7627  -30.6494   23.5587 C   0  0  1  0  0  0  0  0  0  0  0  0
  -19.3018  -29.4754   20.9252 C   0  0  2  0  0  0  0  0  0  0  0  0
  -21.3042  -30.8881   25.0250 C   0  0  0  0  0  0  0  0  0  0  0  0
  -25.7024  -11.5743   20.5804 N   0  0  0  0  0  0  0  0  0  0  0  0
  -25.1986  -12.8107   20.7345 N   0  0  0  0  0  0  0  0  0  0  0  0
  -27.4248  -15.7567   19.7247 N   0  0  0  0  0  0  0  0  0  0  0  0
  -23.9297  -31.4112   22.6380 N   0  0  0  0  0  0  0  0  0  0  0  0
  -23.1656  -14.0192   20.8641 N   0  0  0  0  0  0  0  0  0  0  0  0
  -21.8057   -9.7514   20.2878 N   0  0  0  0  0  0  0  0  0  0  0  0
  -25.5342  -34.0065   24.0730 N   0  0  0  0  0  0  0  0  0  0  0  0
  -20.6673  -30.5092   22.6054 N   0  0  0  0  0  0  0  0  0  0  0  0
  -19.5566  -28.7689   19.6380 N   0  3  0  0  0  0  0  0  0  0  0  0
  -21.0904  -11.9151   20.5433 O   0  0  0  0  0  0  0  0  0  0  0  0
  -26.0444  -17.2527   18.5961 O   0  0  0  0  0  0  0  0  0  0  0  0
  -26.3903  -31.8416   24.0237 O   0  0  0  0  0  0  0  0  0  0  0  0
  -22.1800  -32.9127   22.9843 O   0  0  0  0  0  0  0  0  0  0  0  0
  -21.2576  -28.3983   21.8484 O   0  0  0  0  0  0  0  0  0  0  0  0
  -29.8419  -20.4557   19.5901 O   0  0  0  0  0  0  0  0  0  0  0  0
  -25.0982   -5.2893   19.7543 O   0  0  0  0  0  0  0  0  0  0  0  0
  -27.8637  -26.8745   21.2253 O   0  0  0  0  0  0  0  0  0  1  0  0
  -21.8397   -2.0156   22.7659 F   0  0  0  0  0  0  0  0  0  0  0  0
  -22.3458   -5.4649   19.5640 F   0  0  0  0  0  0  0  0  0  0  0  0
  1  2  1  0  0  0  0
  1  5  2  0  0  0  0
  2  6  2  0  0  0  0
  3  8  2  0  0  0  0
  3 17  1  0  0  0  0
  4  9  1  0  0  0  0
  4 17  2  0  0  0  0
  5 20  1  0  0  0  0
  6 22  1  0  0  0  0
  7 10  2  0  0  0  0
  7 21  1  0  0  0  0
  8 24  1  0  0  0  0
  9 24  2  0  0  0  0
 10 25  1  0  0  0  0
 11 12  2  0  0  0  0
 11 26  1  0  0  0  0
 12 27  1  0  0  0  0
 13 18  1  0  0  0  0
 13 30  2  0  0  0  0
 14 23  1  0  0  0  0
 14 25  2  0  0  0  0
 15 27  2  0  0  0  0
 15 28  1  0  0  0  0
 16 18  2  0  0  0  0
 16 76  1  0  0  0  0
 17 29  1  0  0  0  0
 18 32  1  0  0  0  0
 19 29  1  0  0  0  0
 19 31  2  0  0  0  0
 19 36  1  0  0  0  0
 20 22  2  0  0  0  0
 20 41  1  0  0  0  0
 21 23  2  0  0  0  0
 21 42  1  0  0  0  0
 22 50  1  0  0  0  0
 23 43  1  0  0  0  0
 24 77  1  0  0  0  0
 25 78  1  0  0  0  0
 26 28  2  0  0  0  0
 26 77  1  0  0  0  0
 27 79  1  0  0  0  0
 28 80  1  0  0  0  0
 29 62  2  0  0  0  0
 30 33  1  0  0  0  0
 30 76  1  0  0  0  0
 31 63  1  0  0  0  0
 31 66  1  0  0  0  0
 32 35  2  0  0  0  0
 33 34  2  0  0  0  0
 34 37  1  0  0  0  0
 35 58  1  0  0  0  0
 36 67  1  0  0  0  0
 36 71  2  0  0  0  0
 37 64  1  0  0  0  0
 37 72  2  0  0  0  0
 38 51  1  0  0  0  0
 38 68  1  0  0  0  0
 38 73  2  0  0  0  0
 39 59  1  0  0  0  0
 39 65  1  0  0  0  0
 39 74  2  0  0  0  0
 40 60  1  0  0  0  0
 40 69  1  0  0  0  0
 40 75  2  0  0  0  0
 41 44  1  0  0  0  0
 42 51  1  0  0  0  0
 43 65  1  0  0  0  0
 44 46  1  0  0  0  0
 45 47  1  0  0  0  0
 45 48  1  0  0  0  0
 46 50  1  0  0  0  0
 47 52  1  0  0  0  0
 48 64  1  0  0  0  0
 49 52  1  0  0  0  0
 49 64  1  0  0  0  0
 50 68  1  0  0  0  0
 51 65  1  0  0  0  0
 52 63  1  0  0  0  0
 53 60  1  0  0  0  0
 54 61  1  0  0  0  0
 55 61  1  0  0  0  0
 56 61  1  0  0  0  0
 57 70  1  0  0  0  0
 58 78  1  0  0  0  0
 59 61  1  0  0  0  0
 59 69  1  0  0  0  0
 60 70  1  0  0  0  0
 62 63  1  0  0  0  0
M  CHG  1  70   1
M  ISO  4  34 100  37 100  58 101  78 101
M  END
> <Batch ID>
0118

> <Smiles>
CNC(C)C(=O)NC(C(=O)N1Cc2cc([101O:1][101CH2:1]C=Cc3coc(C=[100CH:0][100C:0](=O)N4CCCC(n5nc(-c6ccc(Oc7ccc(F)cc7F)cc6)c(C(N)=O)c5N)C4)c3)ccc2CC1C(=O)NC1CCCc2ccccc21)C(C)(C)C

> <Shape>
0.277

> <Color>
0.078

> <Negative vol penalty>
0.000

$$$$

  -OEChem-04052301483D

 80 88  0     1  0  0  0  0  0999 V2000
  -18.5963  -23.4568   15.4540 C   0  0  0  0  0  0  0  0  0  0  0  0
  -19.3631  -22.5989   16.2358 C   0  0  0  0  0  0  0  0  0  0  0  0
  -23.0578   -9.8725   19.9595 C   0  0  0  0  0  0  0  0  0  0  0  0
  -23.8595   -9.8810   22.2386 C   0  0  0  0  0  0  0  0  0  0  0  0
  -18.6227  -24.8296   15.6962 C   0  0  0  0  0  0  0  0  0  0  0  0
  -20.1578  -23.1134   17.2597 C   0  0  0  0  0  0  0  0  0  0  0  0
  -21.3853  -20.4736   22.6477 C   0  0  0  0  0  0  0  0  0  0  0  0
  -22.3195   -8.7189   20.2235 C   0  0  0  0  0  0  0  0  0  0  0  0
  -23.1212   -8.7274   22.5026 C   0  0  0  0  0  0  0  0  0  0  0  0
  -22.4781  -19.7383   23.1046 C   0  0  0  0  0  0  0  0  0  0  0  0
  -21.1630   -5.9894   23.8764 C   0  0  0  0  0  0  0  0  0  0  0  0
  -20.4283   -5.9458   25.0613 C   0  0  0  0  0  0  0  0  0  0  0  0
  -30.8451  -16.9593   25.0784 C   0  0  0  0  0  0  0  0  0  0  0  0
  -30.0214  -17.9158   25.7185 C   0  0  0  0  0  0  0  0  0  0  0  0
  -23.4093  -21.7391   24.0786 C   0  0  0  0  0  0  0  0  0  0  0  0
  -19.1692   -7.8819   24.3518 C   0  0  0  0  0  0  0  0  0  0  0  0
  -23.8279  -10.4535   20.9670 C   0  0  0  0  0  0  0  0  0  0  0  0
  -24.1656  -12.9789   20.8397 C   0  0  0  0  0  0  0  0  0  0  0  0
  -19.4106  -25.3603   16.7298 C   0  0  0  0  0  0  0  0  0  0  0  0
  -21.3014  -21.8515   22.8938 C   0  0  0  0  0  0  0  0  0  0  0  0
  -20.1958  -24.4947   17.5150 C   0  0  0  0  0  0  0  0  0  0  0  0
  -22.3131  -22.4891   23.6260 C   0  0  0  0  0  0  0  0  0  0  0  0
  -22.3511   -8.1464   21.4950 C   0  0  0  0  0  0  0  0  0  0  0  0
  -23.4918  -20.3716   23.8177 C   0  0  0  0  0  0  0  0  0  0  0  0
  -20.9008   -6.9793   22.9293 C   0  0  0  0  0  0  0  0  0  0  0  0
  -19.4314   -6.8920   25.2990 C   0  0  0  0  0  0  0  0  0  0  0  0
  -19.9039   -7.9255   23.1670 C   0  0  0  0  0  0  0  0  0  0  0  0
  -24.5913  -11.6448   20.6948 C   0  0  0  0  0  0  0  0  0  0  0  0
  -30.2686  -16.7174   23.8532 C   0  0  0  0  0  0  0  0  0  0  0  0
  -29.0004  -18.1905   24.8386 C   0  0  0  0  0  0  0  0  0  0  0  0
  -25.2504  -13.7290   20.4562 C   0  0  0  0  0  0  0  0  0  0  0  0
  -30.7265  -15.8322   22.8501 C   0  0  0  0  0  0  0  0  0  0  0  0
  -27.8798  -19.1252   25.0353 C   0  0  0  0  0  0  0  0  0  0  0  0
  -30.1541  -15.6140   21.6203 C   0  0  0  0  0  0  0  0  0  0  0  0
  -26.9155  -19.3778   24.1366 C   0  0  0  0  0  0  0  0  0  0  0  0
  -22.9026  -13.4939   21.2816 C   0  0  0  0  0  0  0  0  0  0  0  0
  -30.7628  -14.6555   20.6695 C   0  0  0  0  0  0  0  0  0  0  0  0
  -21.1990  -24.4536   21.0710 C   0  0  0  0  0  0  0  0  0  0  0  0
  -20.7028  -25.9468   23.9076 C   0  0  0  0  0  0  0  0  0  0  0  0
  -21.0620  -25.9133   27.3012 C   0  0  0  0  0  0  0  0  0  0  0  0
  -19.4432  -26.8557   16.9231 C   0  0  0  0  0  0  0  0  0  0  0  0
  -20.1029  -22.6254   22.4172 C   0  0  0  0  0  0  0  0  0  0  0  0
  -22.2606  -23.9624   23.9342 C   0  0  0  0  0  0  0  0  0  0  0  0
  -20.0228  -27.2833   18.2690 C   0  0  0  0  0  0  0  0  0  0  0  0
  -29.5488  -12.3921   18.1675 C   0  0  0  0  0  0  0  0  0  0  0  0
  -21.3112  -26.5210   18.5619 C   0  0  0  0  0  0  0  0  0  0  0  0
  -28.1290  -12.0758   18.6366 C   0  0  0  0  0  0  0  0  0  0  0  0
  -30.4944  -12.5945   19.3471 C   0  0  0  0  0  0  0  0  0  0  0  0
  -28.6134  -13.3259   20.7878 C   0  0  0  0  0  0  0  0  0  0  0  0
  -21.0514  -25.0123   18.6509 C   0  0  1  0  0  0  0  0  0  0  0  0
  -20.3727  -24.1207   22.2810 C   0  0  1  0  0  0  0  0  0  0  0  0
  -27.6234  -13.1422   19.6244 C   0  0  2  0  0  0  0  0  0  0  0  0
  -20.5914  -27.2903   29.3456 C   0  0  0  0  0  0  0  0  0  0  0  0
  -23.0449  -27.7748   23.2124 C   0  0  0  0  0  0  0  0  0  0  0  0
  -23.1325  -28.4617   25.6184 C   0  0  0  0  0  0  0  0  0  0  0  0
  -21.0929  -28.9336   24.2619 C   0  0  0  0  0  0  0  0  0  0  0  0
  -19.3156  -23.8191   28.4518 C   0  0  0  0  0  0  0  0  0  0  0  0
  -25.8032  -20.3477   24.3768 C   0  0  0  0  0  0  0  0  0  1  0  0
  -21.5916  -26.5567   24.9646 C   0  0  1  0  0  0  0  0  0  0  0  0
  -20.0774  -26.1976   28.4212 C   0  0  2  0  0  0  0  0  0  0  0  0
  -22.2177  -27.9043   24.5070 C   0  0  0  0  0  0  0  0  0  0  0  0
  -25.8483  -11.5497   20.2535 N   0  0  0  0  0  0  0  0  0  0  0  0
  -26.2219  -12.8335   20.1177 N   0  0  0  0  0  0  0  0  0  0  0  0
  -29.9675  -13.5859   20.2828 N   0  0  0  0  0  0  0  0  0  0  0  0
  -21.0715  -24.6770   23.4414 N   0  0  0  0  0  0  0  0  0  0  0  0
  -25.4585  -15.0606   20.3788 N   0  0  0  0  0  0  0  0  0  0  0  0
  -21.8977  -12.5842   21.6377 N   0  0  0  0  0  0  0  0  0  0  0  0
  -20.4569  -24.6762   19.9268 N   0  0  0  0  0  0  0  0  0  0  0  0
  -20.7804  -26.6546   26.1732 N   0  0  0  0  0  0  0  0  0  0  0  0
  -19.8445  -24.9682   29.2307 N   0  3  0  0  0  0  0  0  0  0  0  0
  -22.6666  -14.7244   21.3428 O   0  0  0  0  0  0  0  0  0  0  0  0
  -31.9092  -14.9107   20.3248 O   0  0  0  0  0  0  0  0  0  0  0  0
  -22.4194  -24.5061   21.1686 O   0  0  0  0  0  0  0  0  0  0  0  0
  -19.7138  -26.5710   23.5154 O   0  0  0  0  0  0  0  0  0  0  0  0
  -21.9903  -25.1162   27.4168 O   0  0  0  0  0  0  0  0  0  0  0  0
  -29.1438  -17.4640   23.6992 O   0  0  0  0  0  0  0  0  0  0  0  0
  -21.6306   -7.0208   21.7531 O   0  0  0  0  0  0  0  0  0  0  0  0
  -24.5599  -19.6564   24.2643 O   0  0  0  0  0  0  0  0  0  1  0  0
  -18.7249   -6.8490   26.4362 F   0  0  0  0  0  0  0  0  0  0  0  0
  -19.6467   -8.8781   22.2602 F   0  0  0  0  0  0  0  0  0  0  0  0
  1  2  1  0  0  0  0
  1  5  2  0  0  0  0
  2  6  2  0  0  0  0
  3  8  2  0  0  0  0
  3 17  1  0  0  0  0
  4  9  1  0  0  0  0
  4 17  2  0  0  0  0
  5 19  1  0  0  0  0
  6 21  1  0  0  0  0
  7 10  2  0  0  0  0
  7 20  1  0  0  0  0
  8 23  1  0  0  0  0
  9 23  2  0  0  0  0
 10 24  1  0  0  0  0
 11 12  2  0  0  0  0
 11 25  1  0  0  0  0
 12 26  1  0  0  0  0
 13 14  1  0  0  0  0
 13 29  2  0  0  0  0
 14 30  2  0  0  0  0
 15 22  1  0  0  0  0
 15 24  2  0  0  0  0
 16 26  2  0  0  0  0
 16 27  1  0  0  0  0
 17 28  1  0  0  0  0
 18 28  1  0  0  0  0
 18 31  2  0  0  0  0
 18 36  1  0  0  0  0
 19 21  2  0  0  0  0
 19 41  1  0  0  0  0
 20 22  2  0  0  0  0
 20 42  1  0  0  0  0
 21 50  1  0  0  0  0
 22 43  1  0  0  0  0
 23 77  1  0  0  0  0
 24 78  1  0  0  0  0
 25 27  2  0  0  0  0
 25 77  1  0  0  0  0
 26 79  1  0  0  0  0
 27 80  1  0  0  0  0
 28 62  2  0  0  0  0
 29 32  1  0  0  0  0
 29 76  1  0  0  0  0
 30 33  1  0  0  0  0
 30 76  1  0  0  0  0
 31 63  1  0  0  0  0
 31 66  1  0  0  0  0
 32 34  2  0  0  0  0
 33 35  2  0  0  0  0
 34 37  1  0  0  0  0
 35 58  1  0  0  0  0
 36 67  1  0  0  0  0
 36 71  2  0  0  0  0
 37 64  1  0  0  0  0
 37 72  2  0  0  0  0
 38 51  1  0  0  0  0
 38 68  1  0  0  0  0
 38 73  2  0  0  0  0
 39 59  1  0  0  0  0
 39 65  1  0  0  0  0
 39 74  2  0  0  0  0
 40 60  1  0  0  0  0
 40 69  1  0  0  0  0
 40 75  2  0  0  0  0
 41 44  1  0  0  0  0
 42 51  1  0  0  0  0
 43 65  1  0  0  0  0
 44 46  1  0  0  0  0
 45 47  1  0  0  0  0
 45 48  1  0  0  0  0
 46 50  1  0  0  0  0
 47 52  1  0  0  0  0
 48 64  1  0  0  0  0
 49 52  1  0  0  0  0
 49 64  1  0  0  0  0
 50 68  1  0  0  0  0
 51 65  1  0  0  0  0
 52 63  1  0  0  0  0
 53 60  1  0  0  0  0
 54 61  1  0  0  0  0
 55 61  1  0  0  0  0
 56 61  1  0  0  0  0
 57 70  1  0  0  0  0
 58 78  1  0  0  0  0
 59 61  1  0  0  0  0
 59 69  1  0  0  0  0
 60 70  1  0  0  0  0
 62 63  1  0  0  0  0
M  CHG  1  70   1
M  ISO  4  34 100  37 100  58 101  78 101
M  END
> <Batch ID>
0118

> <Smiles>
CNC(C)C(=O)NC(C(=O)N1Cc2cc([101O:1][101CH2:1]C=Cc3ccc(C=[100CH:0][100C:0](=O)N4CCCC(n5nc(-c6ccc(Oc7ccc(F)cc7F)cc6)c(C(N)=O)c5N)C4)o3)ccc2CC1C(=O)NC1CCCc2ccccc21)C(C)(C)C

> <Shape>
0.182

> <Color>
0.197

> <Negative vol penalty>
0.000

$$$$

  -OEChem-04052301483D

 84 92  0     1  0  0  0  0  0999 V2000
  -24.3299  -21.2387   18.4991 C   0  0  0  0  0  0  0  0  0  0  0  0
  -25.4693  -21.3196   19.2931 C   0  0  0  0  0  0  0  0  0  0  0  0
  -23.1405   -9.7733   20.1135 C   0  0  0  0  0  0  0  0  0  0  0  0
  -23.8189  -10.0297   22.4181 C   0  0  0  0  0  0  0  0  0  0  0  0
  -23.9060  -22.3520   17.7746 C   0  0  0  0  0  0  0  0  0  0  0  0
  -26.1862  -22.5136   19.3624 C   0  0  0  0  0  0  0  0  0  0  0  0
  -27.4972  -23.7203   24.1026 C   0  0  0  0  0  0  0  0  0  0  0  0
  -22.4097   -8.6355   20.4553 C   0  0  0  0  0  0  0  0  0  0  0  0
  -23.0881   -8.8919   22.7598 C   0  0  0  0  0  0  0  0  0  0  0  0
  -28.5844  -23.0440   24.6543 C   0  0  0  0  0  0  0  0  0  0  0  0
  -19.8560   -8.0887   23.3335 C   0  0  0  0  0  0  0  0  0  0  0  0
  -19.0592   -8.1513   24.4766 C   0  0  0  0  0  0  0  0  0  0  0  0
  -29.9986  -24.9385   24.1745 C   0  0  0  0  0  0  0  0  0  0  0  0
  -30.2592  -18.7817   23.5756 C   0  0  0  0  0  0  0  0  0  0  0  0
  -31.9068  -16.9243   22.3035 C   0  0  0  0  0  0  0  0  0  0  0  0
  -20.3094   -6.3263   25.4479 C   0  0  0  0  0  0  0  0  0  0  0  0
  -23.8452  -10.4704   21.0949 C   0  0  0  0  0  0  0  0  0  0  0  0
  -24.1444  -12.9772   20.7288 C   0  0  0  0  0  0  0  0  0  0  0  0
  -24.6125  -23.5631   17.8426 C   0  0  0  0  0  0  0  0  0  0  0  0
  -27.6552  -25.0087   23.5720 C   0  0  0  0  0  0  0  0  0  0  0  0
  -25.7721  -23.6438   18.6371 C   0  0  0  0  0  0  0  0  0  0  0  0
  -28.9113  -25.6300   23.6190 C   0  0  0  0  0  0  0  0  0  0  0  0
  -29.7018  -17.8048   22.7507 C   0  0  0  0  0  0  0  0  0  0  0  0
  -32.4642  -17.9013   23.1284 C   0  0  0  0  0  0  0  0  0  0  0  0
  -31.6404  -18.8300   23.7644 C   0  0  0  0  0  0  0  0  0  0  0  0
  -30.5255  -16.8761   22.1146 C   0  0  0  0  0  0  0  0  0  0  0  0
  -22.3834   -8.1947   21.7784 C   0  0  0  0  0  0  0  0  0  0  0  0
  -29.8360  -23.6519   24.6877 C   0  0  0  0  0  0  0  0  0  0  0  0
  -20.8795   -7.1449   23.2475 C   0  0  0  0  0  0  0  0  0  0  0  0
  -19.2859   -7.2701   25.5339 C   0  0  0  0  0  0  0  0  0  0  0  0
  -21.1062   -6.2637   24.3048 C   0  0  0  0  0  0  0  0  0  0  0  0
  -24.6007  -11.6456   20.7425 C   0  0  0  0  0  0  0  0  0  0  0  0
  -25.2346  -13.7098   20.3273 C   0  0  0  0  0  0  0  0  0  0  0  0
  -32.5020  -20.9319   24.0185 C   0  0  0  0  0  0  0  0  0  0  0  0
  -22.8506  -13.5049   21.0505 C   0  0  0  0  0  0  0  0  0  0  0  0
  -27.2956  -26.3088   20.6937 C   0  0  0  0  0  0  0  0  0  0  0  0
  -27.8827  -29.0678   22.2954 C   0  0  0  0  0  0  0  0  0  0  0  0
  -29.2717  -30.6038   25.0080 C   0  0  0  0  0  0  0  0  0  0  0  0
  -30.6710  -14.8873   20.5751 C   0  0  0  0  0  0  0  0  0  0  0  0
  -24.1426  -24.7256   17.0046 C   0  0  0  0  0  0  0  0  0  0  0  0
  -26.4667  -25.7353   23.0046 C   0  0  0  0  0  0  0  0  0  0  0  0
  -29.1293  -27.0198   23.0809 C   0  0  0  0  0  0  0  0  0  0  0  0
  -24.7456  -26.0633   17.4259 C   0  0  0  0  0  0  0  0  0  0  0  0
  -29.6854  -12.2217   18.4304 C   0  0  0  0  0  0  0  0  0  0  0  0
  -26.2502  -25.9278   17.6369 C   0  0  0  0  0  0  0  0  0  0  0  0
  -28.2371  -11.9437   18.8396 C   0  0  0  0  0  0  0  0  0  0  0  0
  -30.5533  -12.5913   19.6320 C   0  0  0  0  0  0  0  0  0  0  0  0
  -28.5858  -13.4103   20.8680 C   0  0  0  0  0  0  0  0  0  0  0  0
  -26.5624  -24.9287   18.7576 C   0  0  1  0  0  0  0  0  0  0  0  0
  -26.8532  -26.8412   22.0273 C   0  0  1  0  0  0  0  0  0  0  0  0
  -27.6584  -13.0970   19.6825 C   0  0  2  0  0  0  0  0  0  0  0  0
  -33.9459  -17.9331   23.3153 C   0  0  0  0  0  0  0  0  0  0  0  0
  -27.7927  -18.3590   21.2227 C   0  0  0  0  0  0  0  0  0  0  0  0
  -29.6233  -32.8723   26.0218 C   0  0  0  0  0  0  0  0  0  0  0  0
  -30.0892  -29.6307   20.2645 C   0  0  0  0  0  0  0  0  0  0  0  0
  -30.9992  -31.3548   21.8354 C   0  0  0  0  0  0  0  0  0  0  0  0
  -28.7088  -31.6220   20.8840 C   0  0  0  0  0  0  0  0  0  0  0  0
  -27.7376  -29.8850   27.4347 C   0  0  0  0  0  0  0  0  0  0  0  0
  -28.2192  -17.7766   22.5665 C   0  0  0  0  0  0  0  0  0  0  0  0
  -33.0804  -22.0726   24.8123 C   0  0  0  0  0  0  0  0  0  0  0  0
  -32.1874  -23.2959   24.6911 C   0  0  0  0  0  0  0  0  0  1  0  0
  -29.1205  -29.8572   22.6470 C   0  0  1  0  0  0  0  0  0  0  0  0
  -28.7240  -31.6472   25.9649 C   0  0  2  0  0  0  0  0  0  0  0  0
  -29.7261  -30.5892   21.4162 C   0  0  0  0  0  0  0  0  0  0  0  0
  -25.8811  -11.5355   20.3783 N   0  0  0  0  0  0  0  0  0  0  0  0
  -32.1845  -19.8209   24.5988 N   0  0  0  0  0  0  0  0  0  0  0  0
  -26.2385  -12.8074   20.1320 N   0  0  0  0  0  0  0  0  0  0  0  0
  -27.9377  -27.6867   22.5306 N   0  0  0  0  0  0  0  0  0  0  0  0
  -29.9448  -13.6934   20.3804 N   0  0  0  0  0  0  0  0  0  0  0  0
  -25.4228  -15.0312   20.1255 N   0  0  0  0  0  0  0  0  0  0  0  0
  -21.8444  -12.6127   21.4453 N   0  0  0  0  0  0  0  0  0  0  0  0
  -29.9783  -15.8763   21.2728 N   0  0  0  0  0  0  0  0  0  0  0  0
  -26.3451  -25.5375   20.0524 N   0  0  0  0  0  0  0  0  0  0  0  0
  -28.7421  -30.7432   23.7426 N   0  0  0  0  0  0  0  0  0  0  0  0
  -28.6124  -31.0819   27.3393 N   0  3  0  0  0  0  0  0  0  0  0  0
  -22.5898  -14.7295   20.9739 O   0  0  0  0  0  0  0  0  0  0  0  0
  -28.4158  -26.5789   20.2767 O   0  0  0  0  0  0  0  0  0  0  0  0
  -26.9006  -29.6560   21.8359 O   0  0  0  0  0  0  0  0  0  0  0  0
  -30.0905  -29.7527   25.3481 O   0  0  0  0  0  0  0  0  0  0  0  0
  -31.8126  -15.0324   20.1304 O   0  0  0  0  0  0  0  0  0  0  0  0
  -21.6702   -7.0846   22.1123 O   0  0  0  0  0  0  0  0  0  0  0  0
  -30.8990  -22.9938   25.2250 O   0  0  0  0  0  0  0  0  0  1  0  0
  -18.5216   -7.3313   26.6322 F   0  0  0  0  0  0  0  0  0  0  0  0
  -22.0888   -5.3556   24.2285 F   0  0  0  0  0  0  0  0  0  0  0  0
  1  2  1  0  0  0  0
  1  5  2  0  0  0  0
  2  6  2  0  0  0  0
  3  8  2  0  0  0  0
  3 17  1  0  0  0  0
  4  9  1  0  0  0  0
  4 17  2  0  0  0  0
  5 19  1  0  0  0  0
  6 21  1  0  0  0  0
  7 10  2  0  0  0  0
  7 20  1  0  0  0  0
  8 27  1  0  0  0  0
  9 27  2  0  0  0  0
 10 28  1  0  0  0  0
 11 12  2  0  0  0  0
 11 29  1  0  0  0  0
 12 30  1  0  0  0  0
 13 22  1  0  0  0  0
 13 28  2  0  0  0  0
 14 23  1  0  0  0  0
 14 25  2  0  0  0  0
 15 24  2  0  0  0  0
 15 26  1  0  0  0  0
 16 30  2  0  0  0  0
 16 31  1  0  0  0  0
 17 32  1  0  0  0  0
 18 32  1  0  0  0  0
 18 33  2  0  0  0  0
 18 35  1  0  0  0  0
 19 21  2  0  0  0  0
 19 40  1  0  0  0  0
 20 22  2  0  0  0  0
 20 41  1  0  0  0  0
 21 49  1  0  0  0  0
 22 42  1  0  0  0  0
 23 26  2  0  0  0  0
 23 59  1  0  0  0  0
 24 25  1  0  0  0  0
 24 52  1  0  0  0  0
 25 66  1  0  0  0  0
 26 72  1  0  0  0  0
 27 81  1  0  0  0  0
 28 82  1  0  0  0  0
 29 31  2  0  0  0  0
 29 81  1  0  0  0  0
 30 83  1  0  0  0  0
 31 84  1  0  0  0  0
 32 65  2  0  0  0  0
 33 67  1  0  0  0  0
 33 70  1  0  0  0  0
 34 60  1  0  0  0  0
 34 66  2  0  0  0  0
 35 71  1  0  0  0  0
 35 76  2  0  0  0  0
 36 50  1  0  0  0  0
 36 73  1  0  0  0  0
 36 77  2  0  0  0  0
 37 62  1  0  0  0  0
 37 68  1  0  0  0  0
 37 78  2  0  0  0  0
 38 63  1  0  0  0  0
 38 74  1  0  0  0  0
 38 79  2  0  0  0  0
 39 69  1  0  0  0  0
 39 72  1  0  0  0  0
 39 80  2  0  0  0  0
 40 43  1  0  0  0  0
 41 50  1  0  0  0  0
 42 68  1  0  0  0  0
 43 45  1  0  0  0  0
 44 46  1  0  0  0  0
 44 47  1  0  0  0  0
 45 49  1  0  0  0  0
 46 51  1  0  0  0  0
 47 69  1  0  0  0  0
 48 51  1  0  0  0  0
 48 69  1  0  0  0  0
 49 73  1  0  0  0  0
 50 68  1  0  0  0  0
 51 67  1  0  0  0  0
 53 59  1  0  0  0  0
 54 63  1  0  0  0  0
 55 64  1  0  0  0  0
 56 64  1  0  0  0  0
 57 64  1  0  0  0  0
 58 75  1  0  0  0  0
 60 61  1  0  0  0  0
 61 82  1  0  0  0  0
 62 64  1  0  0  0  0
 62 74  1  0  0  0  0
 63 75  1  0  0  0  0
 65 67  1  0  0  0  0
M  CHG  1  75   1
M  ISO  4  39 100  61 101  72 100  82 101
M  END
> <Batch ID>
0118

> <Smiles>
CCc1cc(NC=C[101CH2:1][101O:1]c2ccc3c(c2)CN(C(=O)C(NC(=O)C(C)NC)C(C)(C)C)C(C(=O)NC2CCCc4ccccc42)C3)c(C)cc1[100NH:0][100C:0](=O)N1CCCC(n2nc(-c3ccc(Oc4ccc(F)cc4F)cc3)c(C(N)=O)c2N)C1

> <Shape>
0.221

> <Color>
0.205

> <Negative vol penalty>
0.000

$$$$

  -OEChem-04052301483D

 86 95  0     1  0  0  0  0  0999 V2000
  -22.7686   -8.4827   21.2725 C   0  0  0  0  0  0  0  0  0  0  0  0
  -23.9549   -9.0799   21.6866 C   0  0  0  0  0  0  0  0  0  0  0  0
  -27.1420  -29.4243   20.3976 C   0  0  0  0  0  0  0  0  0  0  0  0
  -27.0609  -28.1790   22.4663 C   0  0  0  0  0  0  0  0  0  0  0  0
  -21.8573   -9.2050   20.5033 C   0  0  0  0  0  0  0  0  0  0  0  0
  -24.2311  -10.3996   21.3308 C   0  0  0  0  0  0  0  0  0  0  0  0
  -27.2173  -14.5677   24.6797 C   0  0  0  0  0  0  0  0  0  0  0  0
  -26.4417  -30.4698   20.9994 C   0  0  0  0  0  0  0  0  0  0  0  0
  -26.3607  -29.2245   23.0682 C   0  0  0  0  0  0  0  0  0  0  0  0
  -28.5385  -15.0126   24.6631 C   0  0  0  0  0  0  0  0  0  0  0  0
  -27.0634  -32.2511   24.3971 C   0  0  0  0  0  0  0  0  0  0  0  0
  -27.4653  -32.6489   25.6722 C   0  0  0  0  0  0  0  0  0  0  0  0
  -27.8899  -16.8676   23.2640 C   0  0  0  0  0  0  0  0  0  0  0  0
  -31.4393  -19.6511   20.7521 C   0  0  0  0  0  0  0  0  0  0  0  0
  -29.6943  -18.1858   19.9489 C   0  0  0  0  0  0  0  0  0  0  0  0
  -25.2709  -32.1148   26.5305 C   0  0  0  0  0  0  0  0  0  0  0  0
  -27.4516  -28.2789   21.1310 C   0  0  0  0  0  0  0  0  0  0  0  0
  -29.5709  -27.0268   20.4614 C   0  0  0  0  0  0  0  0  0  0  0  0
  -22.1181  -10.5373   20.1460 C   0  0  0  0  0  0  0  0  0  0  0  0
  -26.2228  -15.2644   23.9784 C   0  0  0  0  0  0  0  0  0  0  0  0
  -23.3230  -11.1400   20.5549 C   0  0  0  0  0  0  0  0  0  0  0  0
  -26.5564  -16.4309   23.2753 C   0  0  0  0  0  0  0  0  0  0  0  0
  -32.0802  -18.5632   21.3447 C   0  0  0  0  0  0  0  0  0  0  0  0
  -30.3352  -17.0978   20.5415 C   0  0  0  0  0  0  0  0  0  0  0  0
  -31.5282  -17.2865   21.2394 C   0  0  0  0  0  0  0  0  0  0  0  0
  -30.2464  -19.4625   20.0542 C   0  0  0  0  0  0  0  0  0  0  0  0
  -26.0511  -30.3699   22.3347 C   0  0  0  0  0  0  0  0  0  0  0  0
  -28.8755  -16.1611   23.9528 C   0  0  0  0  0  0  0  0  0  0  0  0
  -25.7652  -31.7852   24.1887 C   0  0  0  0  0  0  0  0  0  0  0  0
  -26.5691  -32.5807   26.7389 C   0  0  0  0  0  0  0  0  0  0  0  0
  -24.8690  -31.7170   25.2554 C   0  0  0  0  0  0  0  0  0  0  0  0
  -28.1745  -27.1984   20.5097 C   0  0  0  0  0  0  0  0  0  0  0  0
  -29.7491  -25.8565   19.7649 C   0  0  0  0  0  0  0  0  0  0  0  0
  -32.6667  -15.0217   21.1825 C   0  0  0  0  0  0  0  0  0  0  0  0
  -30.6137  -27.8515   20.9981 C   0  0  0  0  0  0  0  0  0  0  0  0
  -24.2651  -14.5645   21.5740 C   0  0  0  0  0  0  0  0  0  0  0  0
  -23.0286  -17.4878   22.2430 C   0  0  0  0  0  0  0  0  0  0  0  0
  -24.0833  -20.7253   22.0133 C   0  0  0  0  0  0  0  0  0  0  0  0
  -28.4054  -20.5540   18.7253 C   0  0  0  0  0  0  0  0  0  0  0  0
  -21.1245  -11.2627   19.2735 C   0  0  0  0  0  0  0  0  0  0  0  0
  -24.7975  -14.7864   24.0282 C   0  0  0  0  0  0  0  0  0  0  0  0
  -25.5223  -17.2263   22.5228 C   0  0  0  0  0  0  0  0  0  0  0  0
  -33.2994  -14.1250   22.2202 C   0  0  0  0  0  0  0  0  0  0  0  0
  -21.3214  -12.7763   19.2547 C   0  0  0  0  0  0  0  0  0  0  0  0
  -33.5537  -15.0602   23.3872 C   0  0  0  0  0  0  0  0  0  0  0  0
  -26.4594  -23.0651   17.1177 C   0  0  0  0  0  0  0  0  0  0  0  0
  -22.7942  -13.1206   19.0572 C   0  0  0  0  0  0  0  0  0  0  0  0
  -26.8470  -24.3502   17.8529 C   0  0  0  0  0  0  0  0  0  0  0  0
  -26.4019  -21.8663   18.0629 C   0  0  0  0  0  0  0  0  0  0  0  0
  -27.9987  -22.9371   19.6033 C   0  0  0  0  0  0  0  0  0  0  0  0
  -23.6472  -12.5774   20.2100 C   0  0  1  0  0  0  0  0  0  0  0  0
  -23.9585  -15.2857   22.8559 C   0  0  1  0  0  0  0  0  0  0  0  0
  -28.1330  -24.1597   18.6809 C   0  0  2  0  0  0  0  0  0  0  0  0
  -32.4257  -16.0807   23.2857 C   0  0  2  0  0  0  0  0  0  0  0  0
  -33.3563  -18.7970   22.0867 C   0  0  0  0  0  0  0  0  0  0  0  0
  -29.7199  -15.7419   20.4114 C   0  0  0  0  0  0  0  0  0  0  0  0
  -23.2189  -23.0623   21.7157 C   0  0  0  0  0  0  0  0  0  0  0  0
  -22.5716  -16.9384   19.2766 C   0  0  0  0  0  0  0  0  0  0  0  0
  -22.6510  -19.4088   18.8782 C   0  0  0  0  0  0  0  0  0  0  0  0
  -20.8725  -18.4385   20.3335 C   0  0  0  0  0  0  0  0  0  0  0  0
  -25.1795  -21.5873   24.6238 C   0  0  0  0  0  0  0  0  0  0  0  0
  -31.1865  -15.6080   24.0492 C   0  0  0  0  0  0  0  0  0  1  0  0
  -23.2513  -18.5403   21.1839 C   0  0  1  0  0  0  0  0  0  0  0  0
  -23.6185  -21.9883   22.7156 C   0  0  2  0  0  0  0  0  0  0  0  0
  -22.3584  -18.3182   19.9306 C   0  0  0  0  0  0  0  0  0  0  0  0
  -27.5126  -26.2158   19.8929 N   0  0  0  0  0  0  0  0  0  0  0  0
  -28.4974  -25.4156   19.4503 N   0  0  0  0  0  0  0  0  0  0  0  0
  -32.1854  -16.1692   21.8480 N   0  0  0  0  0  0  0  0  0  0  0  0
  -24.1437  -16.7149   22.5966 N   0  0  0  0  0  0  0  0  0  0  0  0
  -27.6555  -21.7461   18.8105 N   0  0  0  0  0  0  0  0  0  0  0  0
  -30.8529  -25.1719   19.3969 N   0  0  0  0  0  0  0  0  0  0  0  0
  -30.2551  -29.0188   21.6859 N   0  0  0  0  0  0  0  0  0  0  0  0
  -29.5950  -20.5679   19.4529 N   0  0  0  0  0  0  0  0  0  0  0  0
  -23.5142  -13.4211   21.3783 N   0  0  0  0  0  0  0  0  0  0  0  0
  -23.0509  -19.8280   21.8397 N   0  0  0  0  0  0  0  0  0  0  0  0
  -24.7054  -22.5309   23.5789 N   0  3  0  0  0  0  0  0  0  0  0  0
  -32.6035  -14.7074   20.0027 O   0  0  0  0  0  0  0  0  0  0  0  0
  -31.8280  -27.5704   20.8574 O   0  0  0  0  0  0  0  0  0  0  0  0
  -25.1186  -15.0129   20.8176 O   0  0  0  0  0  0  0  0  0  0  0  0
  -21.9082  -17.3609   22.7433 O   0  0  0  0  0  0  0  0  0  0  0  0
  -25.2453  -20.5535   21.6515 O   0  0  0  0  0  0  0  0  0  0  0  0
  -28.0342  -19.6017   18.0344 O   0  0  0  0  0  0  0  0  0  0  0  0
  -25.3679  -31.3900   22.9224 O   0  0  0  0  0  0  0  0  0  0  0  0
  -30.1644  -16.5972   23.9345 O   0  0  0  0  0  0  0  0  0  1  0  0
  -26.9557  -32.9613   27.9636 F   0  0  0  0  0  0  0  0  0  0  0  0
  -23.6210  -31.2692   25.0616 F   0  0  0  0  0  0  0  0  0  0  0  0
  1  2  1  0  0  0  0
  1  5  2  0  0  0  0
  2  6  2  0  0  0  0
  3  8  2  0  0  0  0
  3 17  1  0  0  0  0
  4  9  1  0  0  0  0
  4 17  2  0  0  0  0
  5 19  1  0  0  0  0
  6 21  1  0  0  0  0
  7 10  2  0  0  0  0
  7 20  1  0  0  0  0
  8 27  1  0  0  0  0
  9 27  2  0  0  0  0
 10 28  1  0  0  0  0
 11 12  2  0  0  0  0
 11 29  1  0  0  0  0
 12 30  1  0  0  0  0
 13 22  1  0  0  0  0
 13 28  2  0  0  0  0
 14 23  2  0  0  0  0
 14 26  1  0  0  0  0
 15 24  1  0  0  0  0
 15 26  2  0  0  0  0
 16 30  2  0  0  0  0
 16 31  1  0  0  0  0
 17 32  1  0  0  0  0
 18 32  1  0  0  0  0
 18 33  2  0  0  0  0
 18 35  1  0  0  0  0
 19 21  2  0  0  0  0
 19 40  1  0  0  0  0
 20 22  2  0  0  0  0
 20 41  1  0  0  0  0
 21 51  1  0  0  0  0
 22 42  1  0  0  0  0
 23 25  1  0  0  0  0
 23 55  1  0  0  0  0
 24 25  2  0  0  0  0
 24 56  1  0  0  0  0
 25 68  1  0  0  0  0
 26 73  1  0  0  0  0
 27 83  1  0  0  0  0
 28 84  1  0  0  0  0
 29 31  2  0  0  0  0
 29 83  1  0  0  0  0
 30 85  1  0  0  0  0
 31 86  1  0  0  0  0
 32 66  2  0  0  0  0
 33 67  1  0  0  0  0
 33 71  1  0  0  0  0
 34 43  1  0  0  0  0
 34 68  1  0  0  0  0
 34 77  2  0  0  0  0
 35 72  1  0  0  0  0
 35 78  2  0  0  0  0
 36 52  1  0  0  0  0
 36 74  1  0  0  0  0
 36 79  2  0  0  0  0
 37 63  1  0  0  0  0
 37 69  1  0  0  0  0
 37 80  2  0  0  0  0
 38 64  1  0  0  0  0
 38 75  1  0  0  0  0
 38 81  2  0  0  0  0
 39 70  1  0  0  0  0
 39 73  1  0  0  0  0
 39 82  2  0  0  0  0
 40 44  1  0  0  0  0
 41 52  1  0  0  0  0
 42 69  1  0  0  0  0
 43 45  1  0  0  0  0
 44 47  1  0  0  0  0
 45 54  1  0  0  0  0
 46 48  1  0  0  0  0
 46 49  1  0  0  0  0
 47 51  1  0  0  0  0
 48 53  1  0  0  0  0
 49 70  1  0  0  0  0
 50 53  1  0  0  0  0
 50 70  1  0  0  0  0
 51 74  1  0  0  0  0
 52 69  1  0  0  0  0
 53 67  1  0  0  0  0
 54 62  1  0  0  0  0
 54 68  1  0  0  0  0
 57 64  1  0  0  0  0
 58 65  1  0  0  0  0
 59 65  1  0  0  0  0
 60 65  1  0  0  0  0
 61 76  1  0  0  0  0
 62 84  1  0  0  0  0
 63 65  1  0  0  0  0
 63 75  1  0  0  0  0
 64 76  1  0  0  0  0
 66 67  1  0  0  0  0
M  CHG  1  76   1
M  ISO  4  39 100  62 101  73 100  84 101
M  END
> <Batch ID>
0118

> <Smiles>
CNC(C)C(=O)NC(C(=O)N1Cc2cc([101O:1][101CH2:1]C3CCC(=O)N3c3c(C)cc([100NH:0][100C:0](=O)N4CCCC(n5nc(-c6ccc(Oc7ccc(F)cc7F)cc6)c(C(N)=O)c5N)C4)cc3C)ccc2CC1C(=O)NC1CCCc2ccccc21)C(C)(C)C

> <Shape>
0.230

> <Color>
0.063

> <Negative vol penalty>
0.000

$$$$

  -OEChem-04052301483D

 81 89  0     1  0  0  0  0  0999 V2000
  -23.2657  -30.5644   24.3613 C   0  0  0  0  0  0  0  0  0  0  0  0
  -24.3078  -29.7306   23.9686 C   0  0  0  0  0  0  0  0  0  0  0  0
  -23.0501   -9.8659   19.9223 C   0  0  0  0  0  0  0  0  0  0  0  0
  -23.8377   -9.8233   22.2060 C   0  0  0  0  0  0  0  0  0  0  0  0
  -22.0577  -30.5435   23.6653 C   0  0  0  0  0  0  0  0  0  0  0  0
  -24.1421  -28.8745   22.8804 C   0  0  0  0  0  0  0  0  0  0  0  0
  -28.4096  -27.2287   18.8079 C   0  0  0  0  0  0  0  0  0  0  0  0
  -22.3115   -8.7059   20.1554 C   0  0  0  0  0  0  0  0  0  0  0  0
  -23.0990   -8.6632   22.4390 C   0  0  0  0  0  0  0  0  0  0  0  0
  -29.2129  -26.0945   18.6975 C   0  0  0  0  0  0  0  0  0  0  0  0
  -19.8798   -7.8452   23.0624 C   0  0  0  0  0  0  0  0  0  0  0  0
  -19.1372   -7.7775   24.2411 C   0  0  0  0  0  0  0  0  0  0  0  0
  -27.6288  -25.1301   17.1549 C   0  0  0  0  0  0  0  0  0  0  0  0
  -20.3910   -5.8268   24.9191 C   0  0  0  0  0  0  0  0  0  0  0  0
  -31.2677  -19.3252   19.4366 C   0  0  0  0  0  0  0  0  0  0  0  0
  -23.8133  -10.4246   20.9476 C   0  0  0  0  0  0  0  0  0  0  0  0
  -29.9744  -19.6915   19.7285 C   0  0  0  0  0  0  0  0  0  0  0  0
  -24.1489  -12.9525   20.8800 C   0  0  0  0  0  0  0  0  0  0  0  0
  -21.8805  -29.6938   22.5621 C   0  0  0  0  0  0  0  0  0  0  0  0
  -27.2025  -27.3176   18.0999 C   0  0  0  0  0  0  0  0  0  0  0  0
  -22.9302  -28.8413   22.1699 C   0  0  0  0  0  0  0  0  0  0  0  0
  -26.8133  -26.2676   17.2561 C   0  0  0  0  0  0  0  0  0  0  0  0
  -29.5395  -18.8159   20.7520 C   0  0  0  0  0  0  0  0  0  0  0  0
  -22.3359   -8.1045   21.4137 C   0  0  0  0  0  0  0  0  0  0  0  0
  -28.8212  -25.0438   17.8732 C   0  0  0  0  0  0  0  0  0  0  0  0
  -20.8781   -6.9037   22.8119 C   0  0  0  0  0  0  0  0  0  0  0  0
  -19.3928   -6.7683   25.1695 C   0  0  0  0  0  0  0  0  0  0  0  0
  -21.1337   -5.8945   23.7403 C   0  0  0  0  0  0  0  0  0  0  0  0
  -24.5769  -11.6226   20.7073 C   0  0  0  0  0  0  0  0  0  0  0  0
  -30.5979  -17.9769   21.0123 C   0  0  0  0  0  0  0  0  0  0  0  0
  -25.2351  -13.7123   20.5204 C   0  0  0  0  0  0  0  0  0  0  0  0
  -29.2358  -20.7853   19.0756 C   0  0  0  0  0  0  0  0  0  0  0  0
  -29.7284  -21.5904   18.1214 C   0  0  0  0  0  0  0  0  0  0  0  0
  -22.8826  -13.4561   21.3256 C   0  0  0  0  0  0  0  0  0  0  0  0
  -24.1412  -27.5904   18.9109 C   0  0  0  0  0  0  0  0  0  0  0  0
  -23.7249  -27.9106   15.7098 C   0  0  0  0  0  0  0  0  0  0  0  0
  -24.8989  -27.3136   12.5615 C   0  0  0  0  0  0  0  0  0  0  0  0
  -30.7188  -14.7386   20.6655 C   0  0  0  0  0  0  0  0  0  0  0  0
  -20.5404  -29.6722   21.8703 C   0  0  0  0  0  0  0  0  0  0  0  0
  -26.3604  -28.5591   18.2092 C   0  0  0  0  0  0  0  0  0  0  0  0
  -25.5365  -26.3224   16.4590 C   0  0  0  0  0  0  0  0  0  0  0  0
  -20.5746  -29.0066   20.4970 C   0  0  0  0  0  0  0  0  0  0  0  0
  -29.5570  -12.4056   18.2399 C   0  0  0  0  0  0  0  0  0  0  0  0
  -21.3397  -27.6886   20.5614 C   0  0  0  0  0  0  0  0  0  0  0  0
  -28.1254  -12.0992   18.6834 C   0  0  0  0  0  0  0  0  0  0  0  0
  -30.4881  -12.6015   19.4343 C   0  0  0  0  0  0  0  0  0  0  0  0
  -28.6019  -13.2973   20.8597 C   0  0  0  0  0  0  0  0  0  0  0  0
  -22.7974  -27.9167   20.9793 C   0  0  1  0  0  0  0  0  0  0  0  0
  -24.8988  -28.3241   17.8407 C   0  0  1  0  0  0  0  0  0  0  0  0
  -27.6139  -13.1470   19.6902 C   0  0  2  0  0  0  0  0  0  0  0  0
  -28.2202  -18.7971   21.4138 C   0  0  0  0  0  0  0  0  0  0  0  0
  -24.3208  -27.6619   10.1445 C   0  0  0  0  0  0  0  0  0  0  0  0
  -21.6786  -25.6534   15.8765 C   0  0  0  0  0  0  0  0  0  0  0  0
  -21.8500  -25.4083   13.3908 C   0  0  0  0  0  0  0  0  0  0  0  0
  -21.0248  -27.5456   14.3776 C   0  0  0  0  0  0  0  0  0  0  0  0
  -27.3269  -28.9403   12.0951 C   0  0  0  0  0  0  0  0  0  0  0  0
  -30.7956  -16.8612   21.9493 C   0  0  0  0  0  0  0  0  0  0  0  0
  -28.9430  -22.6987   17.4967 C   0  0  0  0  0  0  0  0  0  1  0  0
  -23.4773  -26.9599   14.5636 C   0  0  1  0  0  0  0  0  0  0  0  0
  -25.0523  -28.2216   11.3547 C   0  0  2  0  0  0  0  0  0  0  0  0
  -22.0308  -26.3897   14.5685 C   0  0  0  0  0  0  0  0  0  0  0  0
  -25.8368  -11.5388   20.2718 N   0  0  0  0  0  0  0  0  0  0  0  0
  -26.2097  -12.8258   20.1677 N   0  0  0  0  0  0  0  0  0  0  0  0
  -24.7443  -27.5548   16.6043 N   0  0  0  0  0  0  0  0  0  0  0  0
  -29.9464  -13.6088   20.3496 N   0  0  0  0  0  0  0  0  0  0  0  0
  -25.4422  -15.0455   20.4747 N   0  0  0  0  0  0  0  0  0  0  0  0
  -21.8765  -12.5375   21.6546 N   0  0  0  0  0  0  0  0  0  0  0  0
  -23.5714  -28.4146   19.8624 N   0  0  0  0  0  0  0  0  0  0  0  0
  -23.8292  -27.6858   13.3480 N   0  0  0  0  0  0  0  0  0  0  0  0
  -30.1282  -15.6471   21.5353 N   0  0  0  0  0  0  0  0  0  0  0  0
  -26.4922  -28.3769   11.0030 N   0  3  0  0  0  0  0  0  0  0  0  0
  -22.6447  -14.6846   21.4133 O   0  0  0  0  0  0  0  0  0  0  0  0
  -24.0770  -26.3672   18.8751 O   0  0  0  0  0  0  0  0  0  0  0  0
  -23.0439  -28.9348   15.8040 O   0  0  0  0  0  0  0  0  0  0  0  0
  -25.6504  -26.3664   12.7823 O   0  0  0  0  0  0  0  0  0  0  0  0
  -31.8489  -14.9266   20.2023 O   0  0  0  0  0  0  0  0  0  0  0  0
  -31.6553  -18.2808   20.2146 O   0  0  0  0  0  0  0  0  0  0  0  0
  -21.6151   -6.9727   21.6415 O   0  0  0  0  0  0  0  0  0  0  0  0
  -29.6030  -23.9354   17.7641 O   0  0  0  0  0  0  0  0  0  1  0  0
  -18.6805   -6.7044   26.3021 F   0  0  0  0  0  0  0  0  0  0  0  0
  -22.0922   -4.9878   23.5057 F   0  0  0  0  0  0  0  0  0  0  0  0
  1  2  1  0  0  0  0
  1  5  2  0  0  0  0
  2  6  2  0  0  0  0
  3  8  2  0  0  0  0
  3 16  1  0  0  0  0
  4  9  1  0  0  0  0
  4 16  2  0  0  0  0
  5 19  1  0  0  0  0
  6 21  1  0  0  0  0
  7 10  2  0  0  0  0
  7 20  1  0  0  0  0
  8 24  1  0  0  0  0
  9 24  2  0  0  0  0
 10 25  1  0  0  0  0
 11 12  2  0  0  0  0
 11 26  1  0  0  0  0
 12 27  1  0  0  0  0
 13 22  1  0  0  0  0
 13 25  2  0  0  0  0
 14 27  2  0  0  0  0
 14 28  1  0  0  0  0
 15 17  2  0  0  0  0
 15 77  1  0  0  0  0
 16 29  1  0  0  0  0
 17 23  1  0  0  0  0
 17 32  1  0  0  0  0
 18 29  1  0  0  0  0
 18 31  2  0  0  0  0
 18 34  1  0  0  0  0
 19 21  2  0  0  0  0
 19 39  1  0  0  0  0
 20 22  2  0  0  0  0
 20 40  1  0  0  0  0
 21 48  1  0  0  0  0
 22 41  1  0  0  0  0
 23 30  2  0  0  0  0
 23 51  1  0  0  0  0
 24 78  1  0  0  0  0
 25 79  1  0  0  0  0
 26 28  2  0  0  0  0
 26 78  1  0  0  0  0
 27 80  1  0  0  0  0
 28 81  1  0  0  0  0
 29 62  2  0  0  0  0
 30 57  1  0  0  0  0
 30 77  1  0  0  0  0
 31 63  1  0  0  0  0
 31 66  1  0  0  0  0
 32 33  2  0  0  0  0
 33 58  1  0  0  0  0
 34 67  1  0  0  0  0
 34 72  2  0  0  0  0
 35 49  1  0  0  0  0
 35 68  1  0  0  0  0
 35 73  2  0  0  0  0
 36 59  1  0  0  0  0
 36 64  1  0  0  0  0
 36 74  2  0  0  0  0
 37 60  1  0  0  0  0
 37 69  1  0  0  0  0
 37 75  2  0  0  0  0
 38 65  1  0  0  0  0
 38 70  1  0  0  0  0
 38 76  2  0  0  0  0
 39 42  1  0  0  0  0
 40 49  1  0  0  0  0
 41 64  1  0  0  0  0
 42 44  1  0  0  0  0
 43 45  1  0  0  0  0
 43 46  1  0  0  0  0
 44 48  1  0  0  0  0
 45 50  1  0  0  0  0
 46 65  1  0  0  0  0
 47 50  1  0  0  0  0
 47 65  1  0  0  0  0
 48 68  1  0  0  0  0
 49 64  1  0  0  0  0
 50 63  1  0  0  0  0
 52 60  1  0  0  0  0
 53 61  1  0  0  0  0
 54 61  1  0  0  0  0
 55 61  1  0  0  0  0
 56 71  1  0  0  0  0
 57 70  1  0  0  0  0
 58 79  1  0  0  0  0
 59 61  1  0  0  0  0
 59 69  1  0  0  0  0
 60 71  1  0  0  0  0
 62 63  1  0  0  0  0
M  CHG  1  71   1
M  ISO  4  38 100  58 101  70 100  79 101
M  END
> <Batch ID>
0118

> <Smiles>
CNC(C)C(=O)NC(C(=O)N1Cc2cc([101O:1][101CH2:1]C=Cc3coc(C[100NH:0][100C:0](=O)N4CCCC(n5nc(-c6ccc(Oc7ccc(F)cc7F)cc6)c(C(N)=O)c5N)C4)c3C)ccc2CC1C(=O)NC1CCCc2ccccc21)C(C)(C)C

> <Shape>
0.286

> <Color>
0.200

> <Negative vol penalty>
0.000

$$$$

  -OEChem-04052301483D

 82 90  0     1  0  0  0  0  0999 V2000
  -29.8292  -35.6799   19.0331 C   0  0  0  0  0  0  0  0  0  0  0  0
  -29.7026  -34.3288   18.7262 C   0  0  0  0  0  0  0  0  0  0  0  0
  -24.2203   -9.6149   22.1859 C   0  0  0  0  0  0  0  0  0  0  0  0
  -24.3564   -8.9129   19.8781 C   0  0  0  0  0  0  0  0  0  0  0  0
  -29.5045  -36.1370   20.3096 C   0  0  0  0  0  0  0  0  0  0  0  0
  -29.2523  -33.4340   19.6962 C   0  0  0  0  0  0  0  0  0  0  0  0
  -25.7760  -28.4727   18.7974 C   0  0  0  0  0  0  0  0  0  0  0  0
  -23.1066   -8.7954   22.3695 C   0  0  0  0  0  0  0  0  0  0  0  0
  -23.2427   -8.0934   20.0617 C   0  0  0  0  0  0  0  0  0  0  0  0
  -26.0865  -27.1186   18.6799 C   0  0  0  0  0  0  0  0  0  0  0  0
  -20.4463   -6.6132   23.5424 C   0  0  0  0  0  0  0  0  0  0  0  0
  -20.4020   -5.8276   24.6941 C   0  0  0  0  0  0  0  0  0  0  0  0
  -31.6256  -20.6556   20.3979 C   0  0  0  0  0  0  0  0  0  0  0  0
  -25.6016  -26.8104   21.0228 C   0  0  0  0  0  0  0  0  0  0  0  0
  -22.4416   -4.7225   24.0187 C   0  0  0  0  0  0  0  0  0  0  0  0
  -24.8452   -9.6737   20.9402 C   0  0  0  0  0  0  0  0  0  0  0  0
  -31.4165  -21.9900   19.9752 C   0  0  0  0  0  0  0  0  0  0  0  0
  -27.3469  -10.1728   20.9350 C   0  0  0  0  0  0  0  0  0  0  0  0
  -29.0408  -35.2488   21.2928 C   0  0  0  0  0  0  0  0  0  0  0  0
  -25.3859  -29.0089   20.0331 C   0  0  0  0  0  0  0  0  0  0  0  0
  -28.9223  -33.8795   20.9875 C   0  0  0  0  0  0  0  0  0  0  0  0
  -25.2843  -28.1711   21.1528 C   0  0  0  0  0  0  0  0  0  0  0  0
  -22.6178   -8.0347   21.3074 C   0  0  0  0  0  0  0  0  0  0  0  0
  -26.0021  -26.2878   19.7934 C   0  0  0  0  0  0  0  0  0  0  0  0
  -21.4882   -6.4535   22.6288 C   0  0  0  0  0  0  0  0  0  0  0  0
  -21.3996   -4.8823   24.9323 C   0  0  0  0  0  0  0  0  0  0  0  0
  -22.4858   -5.5082   22.8670 C   0  0  0  0  0  0  0  0  0  0  0  0
  -25.9953  -10.5204   20.7497 C   0  0  0  0  0  0  0  0  0  0  0  0
  -30.3824  -20.0682   20.4373 C   0  0  0  0  0  0  0  0  0  0  0  0
  -30.0606  -22.1229   19.7862 C   0  0  0  0  0  0  0  0  0  0  0  0
  -28.0411  -11.3172   20.6269 C   0  0  0  0  0  0  0  0  0  0  0  0
  -33.7264  -22.8140   19.9476 C   0  0  0  0  0  0  0  0  0  0  0  0
  -32.3975  -22.9874   19.7844 C   0  0  0  0  0  0  0  0  0  0  0  0
  -30.0743  -18.7373   20.8022 C   0  0  0  0  0  0  0  0  0  0  0  0
  -29.3149  -23.3143   19.3472 C   0  0  0  0  0  0  0  0  0  0  0  0
  -28.8302  -18.1544   20.8176 C   0  0  0  0  0  0  0  0  0  0  0  0
  -27.9870  -23.3714   19.1607 C   0  0  0  0  0  0  0  0  0  0  0  0
  -27.9233   -8.9268   21.3484 C   0  0  0  0  0  0  0  0  0  0  0  0
  -28.6717  -16.7413   21.2163 C   0  0  0  0  0  0  0  0  0  0  0  0
  -26.5623  -31.2194   21.9910 C   0  0  0  0  0  0  0  0  0  0  0  0
  -23.7987  -30.6996   23.6080 C   0  0  0  0  0  0  0  0  0  0  0  0
  -21.2112  -28.5913   24.3200 C   0  0  0  0  0  0  0  0  0  0  0  0
  -28.7471  -35.7822   22.6726 C   0  0  0  0  0  0  0  0  0  0  0  0
  -25.0286  -30.4663   20.1372 C   0  0  0  0  0  0  0  0  0  0  0  0
  -24.8508  -28.6934   22.4973 C   0  0  0  0  0  0  0  0  0  0  0  0
  -27.9204  -34.8284   23.5312 C   0  0  0  0  0  0  0  0  0  0  0  0
  -26.5355  -15.6145   18.4596 C   0  0  0  0  0  0  0  0  0  0  0  0
  -28.4779  -33.4113   23.4429 C   0  0  0  0  0  0  0  0  0  0  0  0
  -26.2799  -14.1640   18.8602 C   0  0  0  0  0  0  0  0  0  0  0  0
  -26.6468  -16.5325   19.6760 C   0  0  0  0  0  0  0  0  0  0  0  0
  -27.4066  -14.6314   21.0720 C   0  0  0  0  0  0  0  0  0  0  0  0
  -28.4136  -32.8817   22.0052 C   0  0  1  0  0  0  0  0  0  0  0  0
  -25.1387  -31.0083   21.5590 C   0  0  1  0  0  0  0  0  0  0  0  0
  -27.3380  -13.6824   19.8654 C   0  0  1  0  0  0  0  0  0  0  0  0
  -19.1255  -28.4305   25.7062 C   0  0  0  0  0  0  0  0  0  0  0  0
  -25.4937  -30.2091   26.0972 C   0  0  0  0  0  0  0  0  0  0  0  0
  -23.4933  -29.1482   27.1653 C   0  0  0  0  0  0  0  0  0  0  0  0
  -23.4202  -31.5497   26.4946 C   0  0  0  0  0  0  0  0  0  0  0  0
  -19.5020  -28.2915   21.9226 C   0  0  0  0  0  0  0  0  0  0  0  0
  -27.2750  -24.6026   18.6998 C   0  0  0  0  0  0  0  0  0  1  0  0
  -23.3639  -29.7616   24.7081 C   0  0  1  0  0  0  0  0  0  0  0  0
  -19.7102  -28.8151   24.3560 C   0  0  2  0  0  0  0  0  0  0  0  0
  -23.9529  -30.1574   26.0916 C   0  0  0  0  0  0  0  0  0  0  0  0
  -25.8380  -11.7866   20.3548 N   0  0  0  0  0  0  0  0  0  0  0  0
  -27.0998  -12.2447   20.2894 N   0  0  0  0  0  0  0  0  0  0  0  0
  -27.6223  -16.0199   20.6497 N   0  0  0  0  0  0  0  0  0  0  0  0
  -24.5181  -30.1266   22.5497 N   0  0  0  0  0  0  0  0  0  0  0  0
  -29.3587  -11.6106   20.6147 N   0  0  0  0  0  0  0  0  0  0  0  0
  -27.0659   -7.8532   21.6252 N   0  0  0  0  0  0  0  0  0  0  0  0
  -27.0657  -32.4678   21.6789 N   0  0  0  0  0  0  0  0  0  0  0  0
  -21.9060  -29.7310   24.6660 N   0  0  0  0  0  0  0  0  0  0  0  0
  -19.0396  -27.9999   23.3040 N   0  3  0  0  0  0  0  0  0  0  0  0
  -29.1610   -8.7750   21.4847 O   0  0  0  0  0  0  0  0  0  0  0  0
  -29.4763  -16.2867   22.0315 O   0  0  0  0  0  0  0  0  0  0  0  0
  -27.1592  -30.3169   22.5663 O   0  0  0  0  0  0  0  0  0  0  0  0
  -23.5044  -31.8953   23.6813 O   0  0  0  0  0  0  0  0  0  0  0  0
  -21.7168  -27.5122   24.0191 O   0  0  0  0  0  0  0  0  0  0  0  0
  -29.4230  -20.9559   20.0657 O   0  0  0  0  0  0  0  0  0  0  0  0
  -21.5312   -7.2348   21.4863 O   0  0  0  0  0  0  0  0  0  0  0  0
  -26.3052  -24.9659   19.6816 O   0  0  0  0  0  0  0  0  0  1  0  0
  -21.3578   -4.1290   26.0390 F   0  0  0  0  0  0  0  0  0  0  0  0
  -23.4899   -5.3510   21.9935 F   0  0  0  0  0  0  0  0  0  0  0  0
  1  2  1  0  0  0  0
  1  5  2  0  0  0  0
  2  6  2  0  0  0  0
  3  8  2  0  0  0  0
  3 16  1  0  0  0  0
  4  9  1  0  0  0  0
  4 16  2  0  0  0  0
  5 19  1  0  0  0  0
  6 21  1  0  0  0  0
  7 10  2  0  0  0  0
  7 20  1  0  0  0  0
  8 23  1  0  0  0  0
  9 23  2  0  0  0  0
 10 24  1  0  0  0  0
 11 12  2  0  0  0  0
 11 25  1  0  0  0  0
 12 26  1  0  0  0  0
 13 17  1  0  0  0  0
 13 29  2  0  0  0  0
 14 22  1  0  0  0  0
 14 24  2  0  0  0  0
 15 26  2  0  0  0  0
 15 27  1  0  0  0  0
 16 28  1  0  0  0  0
 17 30  2  0  0  0  0
 17 33  1  0  0  0  0
 18 28  1  0  0  0  0
 18 31  2  0  0  0  0
 18 38  1  0  0  0  0
 19 21  2  0  0  0  0
 19 43  1  0  0  0  0
 20 22  2  0  0  0  0
 20 44  1  0  0  0  0
 21 52  1  0  0  0  0
 22 45  1  0  0  0  0
 23 79  1  0  0  0  0
 24 80  1  0  0  0  0
 25 27  2  0  0  0  0
 25 79  1  0  0  0  0
 26 81  1  0  0  0  0
 27 82  1  0  0  0  0
 28 64  2  0  0  0  0
 29 34  1  0  0  0  0
 29 78  1  0  0  0  0
 30 35  1  0  0  0  0
 30 78  1  0  0  0  0
 31 65  1  0  0  0  0
 31 68  1  0  0  0  0
 32 33  2  0  0  0  0
 34 36  2  0  0  0  0
 35 37  2  0  0  0  0
 36 39  1  0  0  0  0
 37 60  1  0  0  0  0
 38 69  1  0  0  0  0
 38 73  2  0  0  0  0
 39 66  1  0  0  0  0
 39 74  2  0  0  0  0
 40 53  1  0  0  0  0
 40 70  1  0  0  0  0
 40 75  2  0  0  0  0
 41 61  1  0  0  0  0
 41 67  1  0  0  0  0
 41 76  2  0  0  0  0
 42 62  1  0  0  0  0
 42 71  1  0  0  0  0
 42 77  2  0  0  0  0
 43 46  1  0  0  0  0
 44 53  1  0  0  0  0
 45 67  1  0  0  0  0
 46 48  1  0  0  0  0
 47 49  1  0  0  0  0
 47 50  1  0  0  0  0
 48 52  1  0  0  0  0
 49 54  1  0  0  0  0
 50 66  1  0  0  0  0
 51 54  1  0  0  0  0
 51 66  1  0  0  0  0
 52 70  1  0  0  0  0
 53 67  1  0  0  0  0
 54 65  1  0  0  0  0
 55 62  1  0  0  0  0
 56 63  1  0  0  0  0
 57 63  1  0  0  0  0
 58 63  1  0  0  0  0
 59 72  1  0  0  0  0
 60 80  1  0  0  0  0
 61 63  1  0  0  0  0
 61 71  1  0  0  0  0
 62 72  1  0  0  0  0
 64 65  1  0  0  0  0
M  CHG  1  72   1
M  ISO  4  36 100  39 100  60 101  80 101
M  END
> <Batch ID>
0118

> <Smiles>
C=Cc1cc(C=[100CH:0][100C:0](=O)N2CCCC(n3nc(-c4ccc(Oc5ccc(F)cc5F)cc4)c(C(N)=O)c3N)C2)oc1C=C[101CH2:1][101O:1]c1ccc2c(c1)CN(C(=O)C(NC(=O)C(C)NC)C(C)(C)C)C(C(=O)NC1CCCc3ccccc31)C2

> <Shape>
0.268

> <Color>
0.125

> <Negative vol penalty>
0.000

$$$$

  -OEChem-04052301483D

 85 94  0     1  0  0  0  0  0999 V2000
  -28.8976  -33.2728   24.9733 C   0  0  0  0  0  0  0  0  0  0  0  0
  -28.8257  -32.0079   24.3986 C   0  0  0  0  0  0  0  0  0  0  0  0
  -24.7292   -8.5237   20.6695 C   0  0  0  0  0  0  0  0  0  0  0  0
  -23.1215  -10.2875   20.2936 C   0  0  0  0  0  0  0  0  0  0  0  0
  -27.7544  -33.8552   25.5191 C   0  0  0  0  0  0  0  0  0  0  0  0
  -27.6107  -31.3241   24.3706 C   0  0  0  0  0  0  0  0  0  0  0  0
  -26.6887  -29.1853   19.8739 C   0  0  0  0  0  0  0  0  0  0  0  0
  -23.6985   -7.6665   21.0550 C   0  0  0  0  0  0  0  0  0  0  0  0
  -22.0909   -9.4303   20.6791 C   0  0  0  0  0  0  0  0  0  0  0  0
  -27.3565  -27.9959   19.5856 C   0  0  0  0  0  0  0  0  0  0  0  0
  -21.7992   -7.1318   23.7993 C   0  0  0  0  0  0  0  0  0  0  0  0
  -21.9945   -6.3580   24.9432 C   0  0  0  0  0  0  0  0  0  0  0  0
  -25.3757  -26.7492   20.1698 C   0  0  0  0  0  0  0  0  0  0  0  0
  -28.3728  -20.5331   17.5441 C   0  0  0  0  0  0  0  0  0  0  0  0
  -28.1906  -18.1242   17.5156 C   0  0  0  0  0  0  0  0  0  0  0  0
  -28.7760  -19.2672   19.5620 C   0  0  0  0  0  0  0  0  0  0  0  0
  -21.7247   -4.3482   23.6298 C   0  0  0  0  0  0  0  0  0  0  0  0
  -24.4407   -9.8342   20.2889 C   0  0  0  0  0  0  0  0  0  0  0  0
  -26.0142  -10.9080   18.5922 C   0  0  0  0  0  0  0  0  0  0  0  0
  -26.5228  -33.1823   25.4891 C   0  0  0  0  0  0  0  0  0  0  0  0
  -25.3606  -29.1649   20.3234 C   0  0  0  0  0  0  0  0  0  0  0  0
  -26.4503  -31.8975   24.9177 C   0  0  0  0  0  0  0  0  0  0  0  0
  -24.6925  -27.9398   20.4606 C   0  0  0  0  0  0  0  0  0  0  0  0
  -28.1170  -19.3491   16.8525 C   0  0  0  0  0  0  0  0  0  0  0  0
  -28.7024  -20.4921   18.8989 C   0  0  0  0  0  0  0  0  0  0  0  0
  -28.5202  -18.0832   18.8704 C   0  0  0  0  0  0  0  0  0  0  0  0
  -22.3794   -8.1197   21.0598 C   0  0  0  0  0  0  0  0  0  0  0  0
  -26.7010  -26.7774   19.7363 C   0  0  0  0  0  0  0  0  0  0  0  0
  -21.5665   -6.5139   22.5706 C   0  0  0  0  0  0  0  0  0  0  0  0
  -21.9573   -4.9662   24.8585 C   0  0  0  0  0  0  0  0  0  0  0  0
  -21.5292   -5.1221   22.4858 C   0  0  0  0  0  0  0  0  0  0  0  0
  -25.5049  -10.7204   19.8911 C   0  0  0  0  0  0  0  0  0  0  0  0
  -27.0061  -11.8457   18.7444 C   0  0  0  0  0  0  0  0  0  0  0  0
  -28.7114  -23.8579   20.3052 C   0  0  0  0  0  0  0  0  0  0  0  0
  -28.0377  -25.0024   20.4665 C   0  0  0  0  0  0  0  0  0  1  0  0
  -25.6252  -10.2900   17.3583 C   0  0  0  0  0  0  0  0  0  0  0  0
  -23.8764  -30.0914   22.9772 C   0  0  0  0  0  0  0  0  0  0  0  0
  -21.2155  -29.2924   21.3028 C   0  0  0  0  0  0  0  0  0  0  0  0
  -19.8187  -27.4647   18.7819 C   0  0  0  0  0  0  0  0  0  0  0  0
  -28.9077  -16.6212   20.8850 C   0  0  0  0  0  0  0  0  0  0  0  0
  -25.3244  -33.8324   26.1340 C   0  0  0  0  0  0  0  0  0  0  0  0
  -24.6457  -30.4581   20.6046 C   0  0  0  0  0  0  0  0  0  0  0  0
  -23.2603  -27.8648   20.9207 C   0  0  0  0  0  0  0  0  0  0  0  0
  -29.4756  -23.1536   21.3806 C   0  0  0  0  0  0  0  0  0  0  0  0
  -23.9961  -33.1987   25.7289 C   0  0  0  0  0  0  0  0  0  0  0  0
  -29.1577  -13.7154   22.9273 C   0  0  0  0  0  0  0  0  0  0  0  0
  -24.0834  -31.6780   25.8095 C   0  0  0  0  0  0  0  0  0  0  0  0
  -28.2715  -12.6926   22.2127 C   0  0  0  0  0  0  0  0  0  0  0  0
  -29.3068  -21.6840   21.0082 C   0  0  0  0  0  0  0  0  0  0  0  0
  -28.5776  -15.1261   22.8422 C   0  0  0  0  0  0  0  0  0  0  0  0
  -27.3709  -14.5619   20.7698 C   0  0  0  0  0  0  0  0  0  0  0  0
  -25.1454  -31.1345   24.8460 C   0  0  1  0  0  0  0  0  0  0  0  0
  -28.7121  -23.0153   19.0554 C   0  0  1  0  0  0  0  0  0  0  0  0
  -23.4584  -30.2917   21.5479 C   0  0  1  0  0  0  0  0  0  0  0  0
  -27.9472  -13.1365   20.7728 C   0  0  2  0  0  0  0  0  0  0  0  0
  -27.7647  -19.3931   15.4040 C   0  0  0  0  0  0  0  0  0  0  0  0
  -29.8409  -23.4465   18.1205 C   0  0  0  0  0  0  0  0  0  0  0  0
  -17.6149  -26.9931   17.6781 C   0  0  0  0  0  0  0  0  0  0  0  0
  -20.4191  -27.5202   23.6555 C   0  0  0  0  0  0  0  0  0  0  0  0
  -18.7741  -26.3811   22.1507 C   0  0  0  0  0  0  0  0  0  0  0  0
  -18.5357  -28.8154   22.6407 C   0  0  0  0  0  0  0  0  0  0  0  0
  -20.7704  -28.4983   16.1772 C   0  0  0  0  0  0  0  0  0  0  0  0
  -20.4021  -28.0331   21.1252 C   0  0  1  0  0  0  0  0  0  0  0  0
  -18.8692  -27.8529   17.6629 C   0  0  2  0  0  0  0  0  0  0  0  0
  -19.5603  -27.6885   22.3862 C   0  0  0  0  0  0  0  0  0  0  0  0
  -26.1225  -11.4779   20.8015 N   0  0  0  0  0  0  0  0  0  0  0  0
  -27.0301  -12.1506   20.0736 N   0  0  0  0  0  0  0  0  0  0  0  0
  -28.9564  -21.6676   19.5851 N   0  0  3  0  0  0  0  0  0  0  0  0
  -22.6063  -29.1562   21.1891 N   0  0  0  0  0  0  0  0  0  0  0  0
  -28.2994  -15.4795   21.4485 N   0  0  0  0  0  0  0  0  0  0  0  0
  -27.8516  -12.4308   17.8697 N   0  0  0  0  0  0  0  0  0  0  0  0
  -24.5877   -9.3480   17.3808 N   0  0  0  0  0  0  0  0  0  0  0  0
  -28.5944  -16.8386   19.5437 N   0  0  0  0  0  0  0  0  0  0  0  0
  -24.6392  -31.1231   23.4902 N   0  0  0  0  0  0  0  0  0  0  0  0
  -19.6123  -28.2248   19.9136 N   0  0  0  0  0  0  0  0  0  0  0  0
  -19.5344  -27.6902   16.3393 N   0  3  0  0  0  0  0  0  0  0  0  0
  -26.1924  -10.5527   16.2707 O   0  0  0  0  0  0  0  0  0  0  0  0
  -23.5310  -29.0766   23.5711 O   0  0  0  0  0  0  0  0  0  0  0  0
  -20.6376  -30.3590   21.5270 O   0  0  0  0  0  0  0  0  0  0  0  0
  -20.6569  -26.5735   18.6651 O   0  0  0  0  0  0  0  0  0  0  0  0
  -29.6732  -17.3367   21.5361 O   0  0  0  0  0  0  0  0  0  0  0  0
  -21.3734   -7.2835   21.4356 O   0  0  0  0  0  0  0  0  0  0  0  0
  -27.3507  -25.6150   19.4563 O   0  0  0  0  0  0  0  0  0  1  0  0
  -22.1465   -4.2232   25.9568 F   0  0  0  0  0  0  0  0  0  0  0  0
  -21.3073   -4.5227   21.3080 F   0  0  0  0  0  0  0  0  0  0  0  0
  1  2  1  0  0  0  0
  1  5  2  0  0  0  0
  2  6  2  0  0  0  0
  3  8  2  0  0  0  0
  3 18  1  0  0  0  0
  4  9  1  0  0  0  0
  4 18  2  0  0  0  0
  5 20  1  0  0  0  0
  6 22  1  0  0  0  0
  7 10  2  0  0  0  0
  7 21  1  0  0  0  0
  8 27  1  0  0  0  0
  9 27  2  0  0  0  0
 10 28  1  0  0  0  0
 11 12  2  0  0  0  0
 11 29  1  0  0  0  0
 12 30  1  0  0  0  0
 13 23  1  0  0  0  0
 13 28  2  0  0  0  0
 14 24  2  0  0  0  0
 14 25  1  0  0  0  0
 15 24  1  0  0  0  0
 15 26  2  0  0  0  0
 16 25  2  0  0  0  0
 16 26  1  0  0  0  0
 17 30  2  0  0  0  0
 17 31  1  0  0  0  0
 18 32  1  0  0  0  0
 19 32  1  0  0  0  0
 19 33  2  0  0  0  0
 19 36  1  0  0  0  0
 20 22  2  0  0  0  0
 20 41  1  0  0  0  0
 21 23  2  0  0  0  0
 21 42  1  0  0  0  0
 22 52  1  0  0  0  0
 23 43  1  0  0  0  0
 24 56  1  0  0  0  0
 25 68  1  0  0  0  0
 26 73  1  0  0  0  0
 27 82  1  0  0  0  0
 28 83  1  0  0  0  0
 29 31  2  0  0  0  0
 29 82  1  0  0  0  0
 30 84  1  0  0  0  0
 31 85  1  0  0  0  0
 32 66  2  0  0  0  0
 33 67  1  0  0  0  0
 33 71  1  0  0  0  0
 34 35  2  0  0  0  0
 34 44  1  0  0  0  0
 34 53  1  0  0  0  0
 35 83  1  0  0  0  0
 36 72  1  0  0  0  0
 36 77  2  0  0  0  0
 37 54  1  0  0  0  0
 37 74  1  0  0  0  0
 37 78  2  0  0  0  0
 38 63  1  0  0  0  0
 38 69  1  0  0  0  0
 38 79  2  0  0  0  0
 39 64  1  0  0  0  0
 39 75  1  0  0  0  0
 39 80  2  0  0  0  0
 40 70  1  0  0  0  0
 40 73  1  0  0  0  0
 40 81  2  0  0  0  0
 41 45  1  0  0  0  0
 42 54  1  0  0  0  0
 43 69  1  0  0  0  0
 44 49  1  0  0  0  0
 45 47  1  0  0  0  0
 46 48  1  0  0  0  0
 46 50  1  0  0  0  0
 47 52  1  0  0  0  0
 48 55  1  0  0  0  0
 49 68  1  0  0  0  0
 50 70  1  0  0  0  0
 51 55  1  0  0  0  0
 51 70  1  0  0  0  0
 52 74  1  0  0  0  0
 53 57  1  0  0  0  0
 53 68  1  0  0  0  0
 54 69  1  0  0  0  0
 55 67  1  0  0  0  0
 58 64  1  0  0  0  0
 59 65  1  0  0  0  0
 60 65  1  0  0  0  0
 61 65  1  0  0  0  0
 62 76  1  0  0  0  0
 63 65  1  0  0  0  0
 63 75  1  0  0  0  0
 64 76  1  0  0  0  0
 66 67  1  0  0  0  0
M  CHG  1  76   1
M  ISO  4  35 101  40 100  73 100  83 101
M  END
> <Batch ID>
0118

> <Smiles>
CNC(C)C(=O)NC(C(=O)N1Cc2cc([101O:1][101CH:1]=C3CCN(c4cc(C)cc([100NH:0][100C:0](=O)N5CCCC(n6nc(-c7ccc(Oc8ccc(F)cc8F)cc7)c(C(N)=O)c6N)C5)c4)C3C)ccc2CC1C(=O)NC1CCCc2ccccc21)C(C)(C)C

> <Shape>
0.369

> <Color>
0.105

> <Negative vol penalty>
0.000

$$$$

  -OEChem-04052301483D

 86 94  0     1  0  0  0  0  0999 V2000
  -30.6527  -24.5748   17.1786 C   0  0  0  0  0  0  0  0  0  0  0  0
  -29.5949  -24.4579   18.0745 C   0  0  0  0  0  0  0  0  0  0  0  0
  -24.9837   -9.3193   20.2014 C   0  0  0  0  0  0  0  0  0  0  0  0
  -24.5051   -9.7859   22.5231 C   0  0  0  0  0  0  0  0  0  0  0  0
  -31.5892  -25.5955   17.3368 C   0  0  0  0  0  0  0  0  0  0  0  0
  -29.4736  -25.3610   19.1300 C   0  0  0  0  0  0  0  0  0  0  0  0
  -24.7293  -27.0295   19.7237 C   0  0  0  0  0  0  0  0  0  0  0  0
  -27.9175  -21.2402   21.7732 C   0  0  0  0  0  0  0  0  0  0  0  0
  -28.2742  -19.9220   22.0572 C   0  0  0  0  0  0  0  0  0  0  0  0
  -24.6941   -7.9713   20.4126 C   0  0  0  0  0  0  0  0  0  0  0  0
  -24.2155   -8.4379   22.7343 C   0  0  0  0  0  0  0  0  0  0  0  0
  -23.8291  -26.1760   20.3601 C   0  0  0  0  0  0  0  0  0  0  0  0
  -21.6394   -6.3263   22.1638 C   0  0  0  0  0  0  0  0  0  0  0  0
  -20.4943   -6.0184   22.8984 C   0  0  0  0  0  0  0  0  0  0  0  0
  -24.1253  -27.4053   22.4145 C   0  0  0  0  0  0  0  0  0  0  0  0
  -21.8527   -4.8743   24.5363 C   0  0  0  0  0  0  0  0  0  0  0  0
  -24.8892  -10.2267   21.2567 C   0  0  0  0  0  0  0  0  0  0  0  0
  -24.2908  -12.6314   20.6510 C   0  0  0  0  0  0  0  0  0  0  0  0
  -31.4739  -26.5174   18.3891 C   0  0  0  0  0  0  0  0  0  0  0  0
  -25.3435  -28.0724   20.4319 C   0  0  0  0  0  0  0  0  0  0  0  0
  -30.4102  -26.3942   19.3033 C   0  0  0  0  0  0  0  0  0  0  0  0
  -25.0309  -28.2722   21.7841 C   0  0  0  0  0  0  0  0  0  0  0  0
  -26.6270  -21.6894   22.0538 C   0  0  0  0  0  0  0  0  0  0  0  0
  -26.0501  -19.5021   22.9022 C   0  0  0  0  0  0  0  0  0  0  0  0
  -27.3405  -19.0529   22.6216 C   0  0  0  0  0  0  0  0  0  0  0  0
  -25.6933  -20.8204   22.6182 C   0  0  0  0  0  0  0  0  0  0  0  0
  -24.3100   -7.5306   21.6790 C   0  0  0  0  0  0  0  0  0  0  0  0
  -23.5292  -26.3620   21.7064 C   0  0  0  0  0  0  0  0  0  0  0  0
  -22.8911   -5.9082   22.6154 C   0  0  0  0  0  0  0  0  0  0  0  0
  -20.6010   -5.2924   24.0847 C   0  0  0  0  0  0  0  0  0  0  0  0
  -22.9978   -5.1822   23.8017 C   0  0  0  0  0  0  0  0  0  0  0  0
  -25.1888  -11.6192   21.0393 C   0  0  0  0  0  0  0  0  0  0  0  0
  -25.0613  -13.7663   20.5826 C   0  0  0  0  0  0  0  0  0  0  0  0
  -22.8857  -12.5527   20.3766 C   0  0  0  0  0  0  0  0  0  0  0  0
  -28.3426  -28.8149   21.1789 C   0  0  0  0  0  0  0  0  0  0  0  0
  -22.1748  -23.2401   22.9634 C   0  0  0  0  0  0  0  0  0  0  0  0
  -26.9741  -31.5207   22.3314 C   0  0  0  0  0  0  0  0  0  0  0  0
  -24.1846  -33.0647   23.5487 C   0  0  0  0  0  0  0  0  0  0  0  0
  -28.9706  -17.1330   22.6767 C   0  0  0  0  0  0  0  0  0  0  0  0
  -32.5372  -27.5753   18.5472 C   0  0  0  0  0  0  0  0  0  0  0  0
  -26.2919  -29.0008   19.7241 C   0  0  0  0  0  0  0  0  0  0  0  0
  -25.6478  -29.3894   22.5840 C   0  0  0  0  0  0  0  0  0  0  0  0
  -32.1270  -28.7177   19.4729 C   0  0  0  0  0  0  0  0  0  0  0  0
  -30.0862  -14.3515   20.7543 C   0  0  0  0  0  0  0  0  0  0  0  0
  -31.5024  -28.1700   20.7522 C   0  0  0  0  0  0  0  0  0  0  0  0
  -28.8377  -13.4759   20.6251 C   0  0  0  0  0  0  0  0  0  0  0  0
  -30.1665  -15.0265   22.1224 C   0  0  0  0  0  0  0  0  0  0  0  0
  -27.7200  -14.9045   22.3850 C   0  0  0  0  0  0  0  0  0  0  0  0
  -30.2307  -27.3695   20.4464 C   0  0  1  0  0  0  0  0  0  0  0  0
  -27.2499  -29.7139   20.6734 C   0  0  1  0  0  0  0  0  0  0  0  0
  -27.5618  -14.2549   21.0005 C   0  0  2  0  0  0  0  0  0  0  0  0
  -26.2746  -23.1070   21.7384 C   0  0  0  0  0  0  0  0  0  0  0  0
  -24.4756  -17.5963   22.4832 C   0  0  0  0  0  0  0  0  0  0  0  0
  -23.3846  -35.2690   24.4423 C   0  0  0  0  0  0  0  0  0  0  0  0
  -28.3831  -30.9564   24.9784 C   0  0  0  0  0  0  0  0  0  0  0  0
  -26.8362  -32.5940   26.0709 C   0  0  0  0  0  0  0  0  0  0  0  0
  -28.3964  -33.3580   24.2807 C   0  0  0  0  0  0  0  0  0  0  0  0
  -22.1973  -33.3560   21.3752 C   0  0  0  0  0  0  0  0  0  0  0  0
  -25.0487  -18.5679   23.5083 C   0  0  0  0  0  0  0  0  0  0  0  0
  -22.0467  -21.7762   22.5665 C   0  0  0  0  0  0  0  0  0  0  0  0
  -22.5749  -24.1884   21.8500 C   0  0  0  0  0  0  0  0  0  1  0  0
  -23.3167  -21.1952   21.9573 C   0  0  0  0  0  0  0  0  0  0  0  0
  -26.3949  -31.9436   23.6598 C   0  0  1  0  0  0  0  0  0  0  0  0
  -23.5398  -34.3958   23.2069 C   0  0  2  0  0  0  0  0  0  0  0  0
  -27.4923  -32.1906   24.7332 C   0  0  0  0  0  0  0  0  0  0  0  0
  -26.4346  -12.0712   21.2058 N   0  0  0  0  0  0  0  0  0  0  0  0
  -26.3249  -13.3799   20.9206 N   0  0  0  0  0  0  0  0  0  0  0  0
  -26.5738  -30.2667   21.8488 N   0  0  0  0  0  0  0  0  0  0  0  0
  -28.9249  -15.7486   22.4081 N   0  0  0  0  0  0  0  0  0  0  0  0
  -24.7745  -15.0471   20.2668 N   0  0  0  0  0  0  0  0  0  0  0  0
  -22.2505  -11.3090   20.4949 N   0  0  0  0  0  0  0  0  0  0  0  0
  -27.7250  -17.7182   22.9016 N   0  0  0  0  0  0  0  0  0  0  0  0
  -24.4124  -21.2687   22.8960 N   0  0  0  0  0  0  0  0  0  0  0  0
  -29.1230  -28.2623   20.1813 N   0  0  0  0  0  0  0  0  0  0  0  0
  -25.5535  -33.1039   23.3875 N   0  0  0  0  0  0  0  0  0  0  0  0
  -22.1909  -34.1801   22.6112 N   0  3  0  0  0  0  0  0  0  0  0  0
  -22.2167  -13.5524   20.0208 O   0  0  0  0  0  0  0  0  0  0  0  0
  -28.4693  -28.6371   22.3847 O   0  0  0  0  0  0  0  0  0  0  0  0
  -21.9813  -23.6358   24.1118 O   0  0  0  0  0  0  0  0  0  0  0  0
  -27.7475  -32.2783   21.7402 O   0  0  0  0  0  0  0  0  0  0  0  0
  -23.5390  -32.0889   23.9250 O   0  0  0  0  0  0  0  0  0  0  0  0
  -30.0337  -17.7590   22.6782 O   0  0  0  0  0  0  0  0  0  0  0  0
  -24.0271   -6.2154   21.8854 O   0  0  0  0  0  0  0  0  0  0  0  0
  -22.6514  -25.5300   22.3302 O   0  0  0  0  0  0  0  0  0  1  0  0
  -19.5014   -4.9982   24.7908 F   0  0  0  0  0  0  0  0  0  0  0  0
  -24.1978   -4.7788   24.2412 F   0  0  0  0  0  0  0  0  0  0  0  0
  1  2  1  0  0  0  0
  1  5  2  0  0  0  0
  2  6  2  0  0  0  0
  3 10  2  0  0  0  0
  3 17  1  0  0  0  0
  4 11  1  0  0  0  0
  4 17  2  0  0  0  0
  5 19  1  0  0  0  0
  6 21  1  0  0  0  0
  7 12  2  0  0  0  0
  7 20  1  0  0  0  0
  8  9  1  0  0  0  0
  8 23  2  0  0  0  0
  9 25  2  0  0  0  0
 10 27  1  0  0  0  0
 11 27  2  0  0  0  0
 12 28  1  0  0  0  0
 13 14  2  0  0  0  0
 13 29  1  0  0  0  0
 14 30  1  0  0  0  0
 15 22  1  0  0  0  0
 15 28  2  0  0  0  0
 16 30  2  0  0  0  0
 16 31  1  0  0  0  0
 17 32  1  0  0  0  0
 18 32  1  0  0  0  0
 18 33  2  0  0  0  0
 18 34  1  0  0  0  0
 19 21  2  0  0  0  0
 19 40  1  0  0  0  0
 20 22  2  0  0  0  0
 20 41  1  0  0  0  0
 21 49  1  0  0  0  0
 22 42  1  0  0  0  0
 23 26  1  0  0  0  0
 23 52  1  0  0  0  0
 24 25  1  0  0  0  0
 24 26  2  0  0  0  0
 24 59  1  0  0  0  0
 25 72  1  0  0  0  0
 26 73  1  0  0  0  0
 27 83  1  0  0  0  0
 28 84  1  0  0  0  0
 29 31  2  0  0  0  0
 29 83  1  0  0  0  0
 30 85  1  0  0  0  0
 31 86  1  0  0  0  0
 32 66  2  0  0  0  0
 33 67  1  0  0  0  0
 33 70  1  0  0  0  0
 34 71  1  0  0  0  0
 34 77  2  0  0  0  0
 35 50  1  0  0  0  0
 35 74  1  0  0  0  0
 35 78  2  0  0  0  0
 36 60  1  0  0  0  0
 36 61  1  0  0  0  0
 36 79  2  0  0  0  0
 37 63  1  0  0  0  0
 37 68  1  0  0  0  0
 37 80  2  0  0  0  0
 38 64  1  0  0  0  0
 38 75  1  0  0  0  0
 38 81  2  0  0  0  0
 39 69  1  0  0  0  0
 39 72  1  0  0  0  0
 39 82  2  0  0  0  0
 40 43  1  0  0  0  0
 41 50  1  0  0  0  0
 42 68  1  0  0  0  0
 43 45  1  0  0  0  0
 44 46  1  0  0  0  0
 44 47  1  0  0  0  0
 45 49  1  0  0  0  0
 46 51  1  0  0  0  0
 47 69  1  0  0  0  0
 48 51  1  0  0  0  0
 48 69  1  0  0  0  0
 49 74  1  0  0  0  0
 50 68  1  0  0  0  0
 51 67  1  0  0  0  0
 53 59  1  0  0  0  0
 54 64  1  0  0  0  0
 55 65  1  0  0  0  0
 56 65  1  0  0  0  0
 57 65  1  0  0  0  0
 58 76  1  0  0  0  0
 60 62  1  0  0  0  0
 61 84  1  0  0  0  0
 62 73  1  0  0  0  0
 63 65  1  0  0  0  0
 63 75  1  0  0  0  0
 64 76  1  0  0  0  0
 66 67  1  0  0  0  0
M  CHG  1  76   1
M  ISO  4  39 100  61 101  72 100  84 101
M  END
> <Batch ID>
0118

> <Smiles>
CCc1c([100NH:0][100C:0](=O)N2CCCC(n3nc(-c4ccc(Oc5ccc(F)cc5F)cc4)c(C(N)=O)c3N)C2)ccc(C)c1NCCC(=O)[101CH2:1][101O:1]c1ccc2c(c1)CN(C(=O)C(NC(=O)C(C)NC)C(C)(C)C)C(C(=O)NC1CCCc3ccccc31)C2

> <Shape>
0.285

> <Color>
0.104

> <Negative vol penalty>
0.000

$$$$
