
  -OEChem-04052301513D

 82 90  0     1  0  0  0  0  0999 V2000
  -27.2644  -36.7564   23.6957 C   0  0  0  0  0  0  0  0  0  0  0  0
  -27.8178  -35.6237   23.1075 C   0  0  0  0  0  0  0  0  0  0  0  0
  -23.4802   -9.8967   19.9963 C   0  0  0  0  0  0  0  0  0  0  0  0
  -23.9015   -9.9644   22.3743 C   0  0  0  0  0  0  0  0  0  0  0  0
  -26.1700  -36.6325   24.5506 C   0  0  0  0  0  0  0  0  0  0  0  0
  -27.2778  -34.3661   23.3748 C   0  0  0  0  0  0  0  0  0  0  0  0
  -26.8844  -29.6316   19.5102 C   0  0  0  0  0  0  0  0  0  0  0  0
  -23.2824   -8.5179   20.0706 C   0  0  0  0  0  0  0  0  0  0  0  0
  -23.7037   -8.5856   22.4486 C   0  0  0  0  0  0  0  0  0  0  0  0
  -27.6722  -28.4945   19.3366 C   0  0  0  0  0  0  0  0  0  0  0  0
  -21.0885   -6.4464   22.5201 C   0  0  0  0  0  0  0  0  0  0  0  0
  -20.2970   -5.9619   23.5614 C   0  0  0  0  0  0  0  0  0  0  0  0
  -29.2724  -21.6799   17.9316 C   0  0  0  0  0  0  0  0  0  0  0  0
  -30.6541  -19.9040   17.0518 C   0  0  0  0  0  0  0  0  0  0  0  0
  -31.5066  -22.1626   17.1489 C   0  0  0  0  0  0  0  0  0  0  0  0
  -26.1617  -27.2411   20.7390 C   0  0  0  0  0  0  0  0  0  0  0  0
  -22.1606   -4.6540   24.3696 C   0  0  0  0  0  0  0  0  0  0  0  0
  -23.7898  -10.6199   21.1482 C   0  0  0  0  0  0  0  0  0  0  0  0
  -29.4488  -20.3351   17.6059 C   0  0  0  0  0  0  0  0  0  0  0  0
  -30.3013  -22.5937   17.7030 C   0  0  0  0  0  0  0  0  0  0  0  0
  -23.0223  -13.0518   21.2159 C   0  0  0  0  0  0  0  0  0  0  0  0
  -25.6102  -35.3739   24.8209 C   0  0  0  0  0  0  0  0  0  0  0  0
  -25.7332  -29.5846   20.3097 C   0  0  0  0  0  0  0  0  0  0  0  0
  -26.1757  -34.2252   24.2351 C   0  0  0  0  0  0  0  0  0  0  0  0
  -25.3596  -28.3783   20.9190 C   0  0  0  0  0  0  0  0  0  0  0  0
  -31.6830  -20.8178   16.8233 C   0  0  0  0  0  0  0  0  0  0  0  0
  -23.3941   -7.8624   21.2967 C   0  0  0  0  0  0  0  0  0  0  0  0
  -27.3126  -27.2998   19.9534 C   0  0  0  0  0  0  0  0  0  0  0  0
  -22.4162   -6.0346   22.4035 C   0  0  0  0  0  0  0  0  0  0  0  0
  -20.8330   -5.0658   24.4862 C   0  0  0  0  0  0  0  0  0  0  0  0
  -22.9522   -5.1384   23.3283 C   0  0  0  0  0  0  0  0  0  0  0  0
  -23.9948  -12.0441   21.0720 C   0  0  0  0  0  0  0  0  0  0  0  0
  -23.7184  -14.2255   21.0600 C   0  0  0  0  0  0  0  0  0  0  0  0
  -28.3762  -19.3821   17.8447 C   0  0  0  0  0  0  0  0  0  0  0  0
  -30.1153  -24.0132   18.0472 C   0  0  0  0  0  0  0  0  0  0  0  0
  -28.5248  -18.0438   17.9415 C   0  0  0  0  0  0  0  0  0  0  0  0
  -28.9302  -24.6195   18.2184 C   0  0  0  0  0  0  0  0  0  0  0  0
  -21.6155  -12.9371   21.4679 C   0  0  0  0  0  0  0  0  0  0  0  0
  -27.3351  -17.2072   18.1973 C   0  0  0  0  0  0  0  0  0  0  0  0
  -24.7922  -31.0392   22.9747 C   0  0  0  0  0  0  0  0  0  0  0  0
  -22.0019  -29.5012   22.3658 C   0  0  0  0  0  0  0  0  0  0  0  0
  -20.4013  -26.8918   20.8572 C   0  0  0  0  0  0  0  0  0  0  0  0
  -24.4570  -35.2849   25.7888 C   0  0  0  0  0  0  0  0  0  0  0  0
  -24.8794  -30.8131   20.4653 C   0  0  0  0  0  0  0  0  0  0  0  0
  -24.1222  -28.2701   21.7708 C   0  0  0  0  0  0  0  0  0  0  0  0
  -23.7096  -33.9554   25.7253 C   0  0  0  0  0  0  0  0  0  0  0  0
  -28.6766  -15.1325   20.9043 C   0  0  0  0  0  0  0  0  0  0  0  0
  -24.6936  -32.7899   25.7147 C   0  0  0  0  0  0  0  0  0  0  0  0
  -27.5020  -14.1930   21.1639 C   0  0  0  0  0  0  0  0  0  0  0  0
  -28.7914  -15.5100   19.4282 C   0  0  0  0  0  0  0  0  0  0  0  0
  -26.3607  -15.1399   19.1192 C   0  0  0  0  0  0  0  0  0  0  0  0
  -25.6025  -32.8463   24.4809 C   0  0  1  0  0  0  0  0  0  0  0  0
  -24.0096  -30.7815   21.7182 C   0  0  1  0  0  0  0  0  0  0  0  0
  -26.1981  -14.7845   20.6053 C   0  0  1  0  0  0  0  0  0  0  0  0
  -32.9721  -20.3569   16.2316 C   0  0  0  0  0  0  0  0  0  0  0  0
  -18.1235  -25.8785   20.5703 C   0  0  0  0  0  0  0  0  0  0  0  0
  -22.1467  -28.3793   25.1996 C   0  0  0  0  0  0  0  0  0  0  0  0
  -20.4281  -26.6821   24.5408 C   0  0  0  0  0  0  0  0  0  0  0  0
  -19.8654  -29.1117   24.4829 C   0  0  0  0  0  0  0  0  0  0  0  0
  -20.4811  -27.2573   17.9214 C   0  0  0  0  0  0  0  0  0  0  0  0
  -28.7911  -26.0697   18.5545 C   0  0  0  0  0  0  0  0  0  1  0  0
  -21.4198  -28.1574   22.7321 C   0  0  1  0  0  0  0  0  0  0  0  0
  -19.1530  -26.8386   19.9949 C   0  0  2  0  0  0  0  0  0  0  0  0
  -20.9894  -28.0848   24.2244 C   0  0  0  0  0  0  0  0  0  0  0  0
  -25.2156  -12.5347   20.8423 N   0  0  0  0  0  0  0  0  0  0  0  0
  -25.0150  -13.8635   20.8404 N   0  0  0  0  0  0  0  0  0  0  0  0
  -27.5157  -16.0183   18.9019 N   0  0  0  0  0  0  0  0  0  0  0  0
  -23.3235  -29.5004   21.8978 N   0  0  0  0  0  0  0  0  0  0  0  0
  -23.3419  -15.5215   21.0905 N   0  0  0  0  0  0  0  0  0  0  0  0
  -21.0629  -11.6561   21.6016 N   0  0  0  0  0  0  0  0  0  0  0  0
  -24.8944  -32.3759   23.3097 N   0  0  0  0  0  0  0  0  0  0  0  0
  -20.3378  -27.9094   21.7855 N   0  0  0  0  0  0  0  0  0  0  0  0
  -19.4950  -26.3898   18.6156 N   0  3  0  0  0  0  0  0  0  0  0  0
  -20.8678  -13.9405   21.5553 O   0  0  0  0  0  0  0  0  0  0  0  0
  -26.2531  -17.6104   17.7667 O   0  0  0  0  0  0  0  0  0  0  0  0
  -25.2669  -30.0951   23.5953 O   0  0  0  0  0  0  0  0  0  0  0  0
  -21.3070  -30.5136   22.4836 O   0  0  0  0  0  0  0  0  0  0  0  0
  -21.3373  -26.1067   20.7233 O   0  0  0  0  0  0  0  0  0  0  0  0
  -23.2010   -6.5170   21.3696 O   0  0  0  0  0  0  0  0  0  0  0  0
  -28.0802  -26.1886   19.7861 O   0  0  0  0  0  0  0  0  0  1  0  0
  -20.0731   -4.6019   25.4870 F   0  0  0  0  0  0  0  0  0  0  0  0
  -24.2273   -4.7401   23.2221 F   0  0  0  0  0  0  0  0  0  0  0  0
  1  2  1  0  0  0  0
  1  5  2  0  0  0  0
  2  6  2  0  0  0  0
  3  8  2  0  0  0  0
  3 18  1  0  0  0  0
  4  9  1  0  0  0  0
  4 18  2  0  0  0  0
  5 22  1  0  0  0  0
  6 24  1  0  0  0  0
  7 10  2  0  0  0  0
  7 23  1  0  0  0  0
  8 27  1  0  0  0  0
  9 27  2  0  0  0  0
 10 28  1  0  0  0  0
 11 12  2  0  0  0  0
 11 29  1  0  0  0  0
 12 30  1  0  0  0  0
 13 19  1  0  0  0  0
 13 20  2  0  0  0  0
 14 19  2  0  0  0  0
 14 26  1  0  0  0  0
 15 20  1  0  0  0  0
 15 26  2  0  0  0  0
 16 25  1  0  0  0  0
 16 28  2  0  0  0  0
 17 30  2  0  0  0  0
 17 31  1  0  0  0  0
 18 32  1  0  0  0  0
 19 34  1  0  0  0  0
 20 35  1  0  0  0  0
 21 32  1  0  0  0  0
 21 33  2  0  0  0  0
 21 38  1  0  0  0  0
 22 24  2  0  0  0  0
 22 43  1  0  0  0  0
 23 25  2  0  0  0  0
 23 44  1  0  0  0  0
 24 52  1  0  0  0  0
 25 45  1  0  0  0  0
 26 55  1  0  0  0  0
 27 79  1  0  0  0  0
 28 80  1  0  0  0  0
 29 31  2  0  0  0  0
 29 79  1  0  0  0  0
 30 81  1  0  0  0  0
 31 82  1  0  0  0  0
 32 65  2  0  0  0  0
 33 66  1  0  0  0  0
 33 69  1  0  0  0  0
 34 36  2  0  0  0  0
 35 37  2  0  0  0  0
 36 39  1  0  0  0  0
 37 61  1  0  0  0  0
 38 70  1  0  0  0  0
 38 74  2  0  0  0  0
 39 67  1  0  0  0  0
 39 75  2  0  0  0  0
 40 53  1  0  0  0  0
 40 71  1  0  0  0  0
 40 76  2  0  0  0  0
 41 62  1  0  0  0  0
 41 68  1  0  0  0  0
 41 77  2  0  0  0  0
 42 63  1  0  0  0  0
 42 72  1  0  0  0  0
 42 78  2  0  0  0  0
 43 46  1  0  0  0  0
 44 53  1  0  0  0  0
 45 68  1  0  0  0  0
 46 48  1  0  0  0  0
 47 49  1  0  0  0  0
 47 50  1  0  0  0  0
 48 52  1  0  0  0  0
 49 54  1  0  0  0  0
 50 67  1  0  0  0  0
 51 54  1  0  0  0  0
 51 67  1  0  0  0  0
 52 71  1  0  0  0  0
 53 68  1  0  0  0  0
 54 66  1  0  0  0  0
 56 63  1  0  0  0  0
 57 64  1  0  0  0  0
 58 64  1  0  0  0  0
 59 64  1  0  0  0  0
 60 73  1  0  0  0  0
 61 80  1  0  0  0  0
 62 64  1  0  0  0  0
 62 72  1  0  0  0  0
 63 73  1  0  0  0  0
 65 66  1  0  0  0  0
M  CHG  1  73   1
M  ISO  4  36 100  39 100  61 101  80 101
M  END
> <Batch ID>
0119

> <Smiles>
CNC(C)C(=O)NC(C(=O)N1Cc2cc([101O:1][101CH2:1]C=Cc3cc(C)cc(C=[100CH:0][100C:0](=O)N4CCCC(n5nc(-c6ccc(Oc7ccc(F)cc7F)cc6)c(C(N)=O)c5N)C4)c3)ccc2CC1C(=O)NC1CCCc2ccccc21)C(C)(C)C

> <Shape>
0.343

> <Color>
0.097

> <Negative vol penalty>
0.000

$$$$

  -OEChem-04052301513D

 85 93  0     1  0  0  0  0  0999 V2000
  -34.3197  -27.9828   17.7539 C   0  0  0  0  0  0  0  0  0  0  0  0
  -33.0171  -28.0982   18.2287 C   0  0  0  0  0  0  0  0  0  0  0  0
  -23.9385  -14.8425   19.7741 C   0  0  0  0  0  0  0  0  0  0  0  0
  -23.3836  -14.0443   21.9859 C   0  0  0  0  0  0  0  0  0  0  0  0
  -18.3624  -26.5520   22.4021 C   0  0  0  0  0  0  0  0  0  0  0  0
  -34.7506  -26.7834   17.1885 C   0  0  0  0  0  0  0  0  0  0  0  0
  -32.1444  -27.0145   18.1374 C   0  0  0  0  0  0  0  0  0  0  0  0
  -29.5222  -26.2671   22.4048 C   0  0  0  0  0  0  0  0  0  0  0  0
  -18.2614  -27.8481   22.9076 C   0  0  0  0  0  0  0  0  0  0  0  0
  -24.8971  -13.8368   19.6516 C   0  0  0  0  0  0  0  0  0  0  0  0
  -24.3423  -13.0385   21.8634 C   0  0  0  0  0  0  0  0  0  0  0  0
  -28.4381  -27.1110   22.6421 C   0  0  0  0  0  0  0  0  0  0  0  0
  -27.7416  -11.6995   18.9000 C   0  0  0  0  0  0  0  0  0  0  0  0
  -28.9897  -12.0504   18.3856 C   0  0  0  0  0  0  0  0  0  0  0  0
  -20.7537  -26.6055   22.7424 C   0  0  0  0  0  0  0  0  0  0  0  0
  -26.9371  -25.3938   21.8562 C   0  0  0  0  0  0  0  0  0  0  0  0
  -29.3016  -13.6085   20.2056 C   0  0  0  0  0  0  0  0  0  0  0  0
  -23.1817  -14.9463   20.9413 C   0  0  0  0  0  0  0  0  0  0  0  0
  -19.6085  -25.9307   22.3195 C   0  0  0  0  0  0  0  0  0  0  0  0
  -20.6528  -27.9016   23.2478 C   0  0  0  0  0  0  0  0  0  0  0  0
  -20.8340  -15.9153   20.7030 C   0  0  0  0  0  0  0  0  0  0  0  0
  -33.8856  -25.6814   17.0990 C   0  0  0  0  0  0  0  0  0  0  0  0
  -29.3224  -24.9820   21.8804 C   0  0  0  0  0  0  0  0  0  0  0  0
  -32.5637  -25.7997   17.5691 C   0  0  0  0  0  0  0  0  0  0  0  0
  -28.0202  -24.5346   21.6156 C   0  0  0  0  0  0  0  0  0  0  0  0
  -19.4066  -28.5230   23.3304 C   0  0  0  0  0  0  0  0  0  0  0  0
  -25.0991  -12.9348   20.6962 C   0  0  0  0  0  0  0  0  0  0  0  0
  -27.1455  -26.6754   22.3651 C   0  0  0  0  0  0  0  0  0  0  0  0
  -27.2734  -12.3031   20.0671 C   0  0  0  0  0  0  0  0  0  0  0  0
  -29.7698  -13.0048   19.0385 C   0  0  0  0  0  0  0  0  0  0  0  0
  -28.0534  -13.2576   20.7199 C   0  0  0  0  0  0  0  0  0  0  0  0
  -22.1916  -15.9853   21.0687 C   0  0  0  0  0  0  0  0  0  0  0  0
  -20.3280  -17.1515   21.0232 C   0  0  0  0  0  0  0  0  0  0  0  0
  -19.7120  -24.5791   21.7918 C   0  0  0  0  0  0  0  0  0  0  0  0
  -20.8368  -24.0119   21.3065 C   0  0  0  0  0  0  0  0  0  0  0  0
  -23.9471  -29.3713   23.0433 C   0  0  0  0  0  0  0  0  0  0  0  0
  -21.8933  -28.6003   23.6928 C   0  0  0  0  0  0  0  0  0  0  0  0
  -20.0962  -14.8299   20.1257 C   0  0  0  0  0  0  0  0  0  0  0  0
  -20.7830  -22.6209   20.8137 C   0  0  0  0  0  0  0  0  0  0  0  0
  -30.2089  -23.4813   19.2222 C   0  0  0  0  0  0  0  0  0  0  0  0
  -28.8519  -20.9206   20.6796 C   0  0  0  0  0  0  0  0  0  0  0  0
  -26.6202  -19.7400   22.9757 C   0  0  0  0  0  0  0  0  0  0  0  0
  -34.3822  -24.4206   16.4368 C   0  0  0  0  0  0  0  0  0  0  0  0
  -30.5003  -24.0741   21.6552 C   0  0  0  0  0  0  0  0  0  0  0  0
  -27.7505  -23.1566   21.0708 C   0  0  0  0  0  0  0  0  0  0  0  0
  -33.5093  -23.2004   16.7182 C   0  0  0  0  0  0  0  0  0  0  0  0
  -22.3081  -20.9435   23.6934 C   0  0  0  0  0  0  0  0  0  0  0  0
  -32.0349  -23.5440   16.5308 C   0  0  0  0  0  0  0  0  0  0  0  0
  -22.3422  -19.4973   23.2066 C   0  0  0  0  0  0  0  0  0  0  0  0
  -22.5226  -21.9362   22.5518 C   0  0  0  0  0  0  0  0  0  0  0  0
  -21.6109  -20.3026   20.9269 C   0  0  0  0  0  0  0  0  0  0  0  0
  -31.5948  -24.6387   17.5103 C   0  0  1  0  0  0  0  0  0  0  0  0
  -30.2204  -22.9737   20.6363 C   0  0  1  0  0  0  0  0  0  0  0  0
  -21.3502  -19.2882   22.0514 C   0  0  1  0  0  0  0  0  0  0  0  0
  -19.2706  -29.9109   23.8668 C   0  0  0  0  0  0  0  0  0  0  0  0
  -25.7065  -17.5998   23.9150 C   0  0  0  0  0  0  0  0  0  0  0  0
  -27.1726  -20.5352   18.1614 C   0  0  0  0  0  0  0  0  0  0  0  0
  -25.6609  -19.0394   19.4825 C   0  0  0  0  0  0  0  0  0  0  0  0
  -28.0555  -18.4194   19.1604 C   0  0  0  0  0  0  0  0  0  0  0  0
  -27.5780  -20.3908   25.6993 C   0  0  0  0  0  0  0  0  0  0  0  0
  -25.0334  -29.5810   22.0214 C   0  0  0  0  0  0  0  0  0  0  0  0
  -26.3140  -28.9008   22.4749 C   0  0  0  0  0  0  0  0  0  1  0  0
  -27.4665  -20.3221   20.7176 C   0  0  1  0  0  0  0  0  0  0  0  0
  -26.7552  -18.6910   24.0647 C   0  0  2  0  0  0  0  0  0  0  0  0
  -27.0938  -19.6058   19.3889 C   0  0  0  0  0  0  0  0  0  0  0  0
  -22.5270  -17.1721   21.5816 N   0  0  0  0  0  0  0  0  0  0  0  0
  -22.8509  -28.7723   22.7164 N   0  0  0  0  0  0  0  0  0  0  0  0
  -21.3727  -17.8593   21.5406 N   0  0  0  0  0  0  0  0  0  0  0  0
  -21.6015  -21.6791   21.4346 N   0  0  0  0  0  0  0  0  0  0  0  0
  -28.9355  -22.3083   20.8616 N   0  0  0  0  0  0  0  0  0  0  0  0
  -19.0958  -17.6911   20.9096 N   0  0  0  0  0  0  0  0  0  0  0  0
  -20.7702  -13.6300   19.8609 N   0  0  0  0  0  0  0  0  0  0  0  0
  -31.3897  -24.0827   18.8307 N   0  0  0  0  0  0  0  0  0  0  0  0
  -27.4268  -19.4592   21.8932 N   0  0  0  0  0  0  0  0  0  0  0  0
  -26.5952  -19.3155   25.4083 N   0  3  0  0  0  0  0  0  0  0  0  0
  -21.9771  -28.9679   24.8614 O   0  0  0  0  0  0  0  0  0  0  0  0
  -18.8792  -14.9270   19.8376 O   0  0  0  0  0  0  0  0  0  0  0  0
  -20.0189  -22.3784   19.8777 O   0  0  0  0  0  0  0  0  0  0  0  0
  -29.2036  -23.3367   18.5365 O   0  0  0  0  0  0  0  0  0  0  0  0
  -29.8246  -20.1831   20.5022 O   0  0  0  0  0  0  0  0  0  0  0  0
  -25.8711  -20.7094   23.0739 O   0  0  0  0  0  0  0  0  0  0  0  0
  -26.0343  -11.9531   20.5769 O   0  0  0  0  0  0  0  0  0  0  0  0
  -26.0856  -27.4974   22.5951 O   0  0  0  0  0  0  0  0  0  1  0  0
  -30.9690  -13.3406   18.5453 F   0  0  0  0  0  0  0  0  0  0  0  0
  -27.6095  -13.8400   21.8422 F   0  0  0  0  0  0  0  0  0  0  0  0
  1  2  1  0  0  0  0
  1  6  2  0  0  0  0
  2  7  2  0  0  0  0
  3 10  2  0  0  0  0
  3 18  1  0  0  0  0
  4 11  1  0  0  0  0
  4 18  2  0  0  0  0
  5  9  2  0  0  0  0
  5 19  1  0  0  0  0
  6 22  1  0  0  0  0
  7 24  1  0  0  0  0
  8 12  2  0  0  0  0
  8 23  1  0  0  0  0
  9 26  1  0  0  0  0
 10 27  1  0  0  0  0
 11 27  2  0  0  0  0
 12 28  1  0  0  0  0
 13 14  2  0  0  0  0
 13 29  1  0  0  0  0
 14 30  1  0  0  0  0
 15 19  2  0  0  0  0
 15 20  1  0  0  0  0
 16 25  1  0  0  0  0
 16 28  2  0  0  0  0
 17 30  2  0  0  0  0
 17 31  1  0  0  0  0
 18 32  1  0  0  0  0
 19 34  1  0  0  0  0
 20 26  2  0  0  0  0
 20 37  1  0  0  0  0
 21 32  1  0  0  0  0
 21 33  2  0  0  0  0
 21 38  1  0  0  0  0
 22 24  2  0  0  0  0
 22 43  1  0  0  0  0
 23 25  2  0  0  0  0
 23 44  1  0  0  0  0
 24 52  1  0  0  0  0
 25 45  1  0  0  0  0
 26 55  1  0  0  0  0
 27 82  1  0  0  0  0
 28 83  1  0  0  0  0
 29 31  2  0  0  0  0
 29 82  1  0  0  0  0
 30 84  1  0  0  0  0
 31 85  1  0  0  0  0
 32 66  2  0  0  0  0
 33 68  1  0  0  0  0
 33 71  1  0  0  0  0
 34 35  2  0  0  0  0
 35 39  1  0  0  0  0
 36 61  1  0  0  0  0
 36 67  2  0  0  0  0
 37 67  1  0  0  0  0
 37 76  2  0  0  0  0
 38 72  1  0  0  0  0
 38 77  2  0  0  0  0
 39 69  1  0  0  0  0
 39 78  2  0  0  0  0
 40 53  1  0  0  0  0
 40 73  1  0  0  0  0
 40 79  2  0  0  0  0
 41 63  1  0  0  0  0
 41 70  1  0  0  0  0
 41 80  2  0  0  0  0
 42 64  1  0  0  0  0
 42 74  1  0  0  0  0
 42 81  2  0  0  0  0
 43 46  1  0  0  0  0
 44 53  1  0  0  0  0
 45 70  1  0  0  0  0
 46 48  1  0  0  0  0
 47 49  1  0  0  0  0
 47 50  1  0  0  0  0
 48 52  1  0  0  0  0
 49 54  1  0  0  0  0
 50 69  1  0  0  0  0
 51 54  1  0  0  0  0
 51 69  1  0  0  0  0
 52 73  1  0  0  0  0
 53 70  1  0  0  0  0
 54 68  1  0  0  0  0
 56 64  1  0  0  0  0
 57 65  1  0  0  0  0
 58 65  1  0  0  0  0
 59 65  1  0  0  0  0
 60 75  1  0  0  0  0
 61 62  1  0  0  0  0
 62 83  1  0  0  0  0
 63 65  1  0  0  0  0
 63 74  1  0  0  0  0
 64 75  1  0  0  0  0
 66 68  1  0  0  0  0
M  CHG  1  75   1
M  ISO  4  35 100  39 100  62 101  83 101
M  END
> <Batch ID>
0119

> <Smiles>
CNC(C)C(=O)NC(C(=O)N1Cc2cc([101O:1][101CH2:1]CC=NC(=O)c3cc(C=[100CH:0][100C:0](=O)N4CCCC(n5nc(-c6ccc(Oc7ccc(F)cc7F)cc6)c(C(N)=O)c5N)C4)ccc3C)ccc2CC1C(=O)NC1CCCc2ccccc21)C(C)(C)C

> <Shape>
0.220

> <Color>
0.086

> <Negative vol penalty>
0.000

$$$$

  -OEChem-04052301513D

 86 95  0     1  0  0  0  0  0999 V2000
  -19.6617  -34.9564   16.8526 C   0  0  0  0  0  0  0  0  0  0  0  0
  -20.9537  -34.5111   16.5923 C   0  0  0  0  0  0  0  0  0  0  0  0
  -25.5441  -10.0696   22.1628 C   0  0  0  0  0  0  0  0  0  0  0  0
  -26.1773  -11.8067   23.7179 C   0  0  0  0  0  0  0  0  0  0  0  0
  -19.2959  -35.3106   18.1506 C   0  0  0  0  0  0  0  0  0  0  0  0
  -21.8811  -34.4208   17.6297 C   0  0  0  0  0  0  0  0  0  0  0  0
  -25.0384  -28.1509   19.2456 C   0  0  0  0  0  0  0  0  0  0  0  0
  -25.8284   -9.1026   23.1270 C   0  0  0  0  0  0  0  0  0  0  0  0
  -26.4617  -10.8397   24.6822 C   0  0  0  0  0  0  0  0  0  0  0  0
  -25.8416  -27.0344   19.4790 C   0  0  0  0  0  0  0  0  0  0  0  0
  -24.3388   -7.8100   25.8734 C   0  0  0  0  0  0  0  0  0  0  0  0
  -23.4172   -6.7775   26.0475 C   0  0  0  0  0  0  0  0  0  0  0  0
  -28.8198  -21.4072   23.9402 C   0  0  0  0  0  0  0  0  0  0  0  0
  -29.2685  -20.2262   21.8809 C   0  0  0  0  0  0  0  0  0  0  0  0
  -26.9318  -28.1869   21.3041 C   0  0  0  0  0  0  0  0  0  0  0  0
  -27.3449  -19.6351   23.2178 C   0  0  0  0  0  0  0  0  0  0  0  0
  -25.1194   -5.1616   25.4743 C   0  0  0  0  0  0  0  0  0  0  0  0
  -25.7186  -11.4216   22.4582 C   0  0  0  0  0  0  0  0  0  0  0  0
  -29.6106  -21.2105   22.8082 C   0  0  0  0  0  0  0  0  0  0  0  0
  -24.1889  -12.6560   20.8322 C   0  0  0  0  0  0  0  0  0  0  0  0
  -20.2164  -35.2153   19.2061 C   0  0  0  0  0  0  0  0  0  0  0  0
  -25.1684  -29.2854   20.0514 C   0  0  0  0  0  0  0  0  0  0  0  0
  -21.5277  -34.7753   18.9428 C   0  0  0  0  0  0  0  0  0  0  0  0
  -26.1215  -29.3037   21.0830 C   0  0  0  0  0  0  0  0  0  0  0  0
  -27.6869  -20.6194   24.1451 C   0  0  0  0  0  0  0  0  0  0  0  0
  -28.1357  -19.4385   22.0857 C   0  0  0  0  0  0  0  0  0  0  0  0
  -26.2872   -9.4877   24.3867 C   0  0  0  0  0  0  0  0  0  0  0  0
  -26.7861  -27.0525   20.5056 C   0  0  0  0  0  0  0  0  0  0  0  0
  -25.6506   -7.5183   25.4996 C   0  0  0  0  0  0  0  0  0  0  0  0
  -23.8075   -5.4533   25.8480 C   0  0  0  0  0  0  0  0  0  0  0  0
  -26.0409   -6.1941   25.3001 C   0  0  0  0  0  0  0  0  0  0  0  0
  -25.4255  -12.4209   21.4624 C   0  0  0  0  0  0  0  0  0  0  0  0
  -24.4329  -13.7023   19.9765 C   0  0  0  0  0  0  0  0  0  0  0  0
  -29.7778  -25.0941   20.8264 C   0  0  0  0  0  0  0  0  0  0  0  0
  -28.9191  -26.0993   20.6270 C   0  0  0  0  0  0  0  0  0  1  0  0
  -30.8049  -22.0410   22.5924 C   0  0  0  0  0  0  0  0  0  0  0  0
  -22.9319  -11.9883   21.0048 C   0  0  0  0  0  0  0  0  0  0  0  0
  -23.9874  -32.7612   20.8259 C   0  0  0  0  0  0  0  0  0  0  0  0
  -24.4553  -31.3594   23.5141 C   0  0  0  0  0  0  0  0  0  0  0  0
  -24.3618  -30.3168   26.7609 C   0  0  0  0  0  0  0  0  0  0  0  0
  -28.4632  -18.1138   19.9681 C   0  0  0  0  0  0  0  0  0  0  0  0
  -19.7887  -35.6544   20.5842 C   0  0  0  0  0  0  0  0  0  0  0  0
  -24.3672  -30.5332   19.7971 C   0  0  0  0  0  0  0  0  0  0  0  0
  -26.2502  -30.5587   21.9024 C   0  0  0  0  0  0  0  0  0  0  0  0
  -31.2694  -25.1999   20.7243 C   0  0  0  0  0  0  0  0  0  0  0  0
  -29.3997  -23.7260   21.3023 C   0  0  0  0  0  0  0  0  0  0  0  0
  -20.7210  -35.1737   21.6933 C   0  0  0  0  0  0  0  0  0  0  0  0
  -27.9474  -15.6960   17.4059 C   0  0  0  0  0  0  0  0  0  0  0  0
  -22.1770  -35.4200   21.3110 C   0  0  0  0  0  0  0  0  0  0  0  0
  -27.1244  -14.6060   18.0963 C   0  0  0  0  0  0  0  0  0  0  0  0
  -31.7341  -24.1746   21.7436 C   0  0  0  0  0  0  0  0  0  0  0  0
  -28.9856  -16.3045   18.3469 C   0  0  0  0  0  0  0  0  0  0  0  0
  -27.6305  -15.7052   20.3151 C   0  0  0  0  0  0  0  0  0  0  0  0
  -22.5548  -34.6400   20.0459 C   0  0  1  0  0  0  0  0  0  0  0  0
  -23.9931  -31.2838   21.0878 C   0  0  1  0  0  0  0  0  0  0  0  0
  -26.5277  -15.1075   19.4260 C   0  0  2  0  0  0  0  0  0  0  0  0
  -26.8412  -20.8294   25.3557 C   0  0  0  0  0  0  0  0  0  0  0  0
  -24.5210  -31.1793   29.1121 C   0  0  0  0  0  0  0  0  0  0  0  0
  -27.4765  -31.6405   23.2025 C   0  0  0  0  0  0  0  0  0  0  0  0
  -27.6704  -31.5560   25.6972 C   0  0  0  0  0  0  0  0  0  0  0  0
  -26.4034  -33.4086   24.6084 C   0  0  0  0  0  0  0  0  0  0  0  0
  -21.6314  -29.3795   27.4130 C   0  0  0  0  0  0  0  0  0  0  0  0
  -25.4107  -31.0838   24.6476 C   0  0  1  0  0  0  0  0  0  0  0  0
  -23.5889  -30.8305   27.9622 C   0  0  2  0  0  0  0  0  0  0  0  0
  -26.7276  -31.9011   24.5247 C   0  0  0  0  0  0  0  0  0  0  0  0
  -26.3841  -13.2510   21.0428 N   0  0  0  0  0  0  0  0  0  0  0  0
  -25.7498  -14.0178   20.1397 N   0  0  0  0  0  0  0  0  0  0  0  0
  -30.6424  -23.2214   21.8801 N   0  0  0  0  0  0  0  0  0  0  0  0
  -24.9157  -31.0909   22.2194 N   0  0  0  0  0  0  0  0  0  0  0  0
  -28.3472  -16.7614   19.5832 N   0  0  0  0  0  0  0  0  0  0  0  0
  -23.6475  -14.3739   19.1080 N   0  0  0  0  0  0  0  0  0  0  0  0
  -22.0445  -12.4748   21.9745 N   0  0  0  0  0  0  0  0  0  0  0  0
  -27.7876  -18.4387   21.1439 N   0  0  0  0  0  0  0  0  0  0  0  0
  -22.7798  -33.2454   20.3603 N   0  0  0  0  0  0  0  0  0  0  0  0
  -24.6666  -31.3310   25.8779 N   0  0  0  0  0  0  0  0  0  0  0  0
  -22.6231  -29.7993   28.4363 N   0  3  0  0  0  0  0  0  0  0  0  0
  -31.8647  -21.6396   23.0686 O   0  0  0  0  0  0  0  0  0  0  0  0
  -22.6121  -10.9798   20.3308 O   0  0  0  0  0  0  0  0  0  0  0  0
  -25.0029  -33.4153   21.0323 O   0  0  0  0  0  0  0  0  0  0  0  0
  -23.3328  -31.8060   23.7665 O   0  0  0  0  0  0  0  0  0  0  0  0
  -24.6681  -29.1347   26.6217 O   0  0  0  0  0  0  0  0  0  0  0  0
  -29.0913  -18.9302   19.2891 O   0  0  0  0  0  0  0  0  0  0  0  0
  -26.5646   -8.5444   25.3279 O   0  0  0  0  0  0  0  0  0  0  0  0
  -27.5638  -25.9574   20.7309 O   0  0  0  0  0  0  0  0  0  1  0  0
  -22.9229   -4.4618   26.0167 F   0  0  0  0  0  0  0  0  0  0  0  0
  -27.3001   -5.9076   24.9421 F   0  0  0  0  0  0  0  0  0  0  0  0
  1  2  1  0  0  0  0
  1  5  2  0  0  0  0
  2  6  2  0  0  0  0
  3  8  2  0  0  0  0
  3 18  1  0  0  0  0
  4  9  1  0  0  0  0
  4 18  2  0  0  0  0
  5 21  1  0  0  0  0
  6 23  1  0  0  0  0
  7 10  2  0  0  0  0
  7 22  1  0  0  0  0
  8 27  1  0  0  0  0
  9 27  2  0  0  0  0
 10 28  1  0  0  0  0
 11 12  2  0  0  0  0
 11 29  1  0  0  0  0
 12 30  1  0  0  0  0
 13 19  1  0  0  0  0
 13 25  2  0  0  0  0
 14 19  2  0  0  0  0
 14 26  1  0  0  0  0
 15 24  1  0  0  0  0
 15 28  2  0  0  0  0
 16 25  1  0  0  0  0
 16 26  2  0  0  0  0
 17 30  2  0  0  0  0
 17 31  1  0  0  0  0
 18 32  1  0  0  0  0
 19 36  1  0  0  0  0
 20 32  1  0  0  0  0
 20 33  2  0  0  0  0
 20 37  1  0  0  0  0
 21 23  2  0  0  0  0
 21 42  1  0  0  0  0
 22 24  2  0  0  0  0
 22 43  1  0  0  0  0
 23 54  1  0  0  0  0
 24 44  1  0  0  0  0
 25 57  1  0  0  0  0
 26 73  1  0  0  0  0
 27 83  1  0  0  0  0
 28 84  1  0  0  0  0
 29 31  2  0  0  0  0
 29 83  1  0  0  0  0
 30 85  1  0  0  0  0
 31 86  1  0  0  0  0
 32 66  2  0  0  0  0
 33 67  1  0  0  0  0
 33 71  1  0  0  0  0
 34 35  2  0  0  0  0
 34 45  1  0  0  0  0
 34 46  1  0  0  0  0
 35 84  1  0  0  0  0
 36 68  1  0  0  0  0
 36 77  2  0  0  0  0
 37 72  1  0  0  0  0
 37 78  2  0  0  0  0
 38 55  1  0  0  0  0
 38 74  1  0  0  0  0
 38 79  2  0  0  0  0
 39 63  1  0  0  0  0
 39 69  1  0  0  0  0
 39 80  2  0  0  0  0
 40 64  1  0  0  0  0
 40 75  1  0  0  0  0
 40 81  2  0  0  0  0
 41 70  1  0  0  0  0
 41 73  1  0  0  0  0
 41 82  2  0  0  0  0
 42 47  1  0  0  0  0
 43 55  1  0  0  0  0
 44 69  1  0  0  0  0
 45 51  1  0  0  0  0
 46 68  1  0  0  0  0
 47 49  1  0  0  0  0
 48 50  1  0  0  0  0
 48 52  1  0  0  0  0
 49 54  1  0  0  0  0
 50 56  1  0  0  0  0
 51 68  1  0  0  0  0
 52 70  1  0  0  0  0
 53 56  1  0  0  0  0
 53 70  1  0  0  0  0
 54 74  1  0  0  0  0
 55 69  1  0  0  0  0
 56 67  1  0  0  0  0
 58 64  1  0  0  0  0
 59 65  1  0  0  0  0
 60 65  1  0  0  0  0
 61 65  1  0  0  0  0
 62 76  1  0  0  0  0
 63 65  1  0  0  0  0
 63 75  1  0  0  0  0
 64 76  1  0  0  0  0
 66 67  1  0  0  0  0
M  CHG  1  76   1
M  ISO  4  35 101  41 100  73 100  84 101
M  END
> <Batch ID>
0119

> <Smiles>
CNC(C)C(=O)NC(C(=O)N1Cc2cc([101O:1][101CH:1]=C3CCN(C(=O)c4cc(C)cc([100NH:0][100C:0](=O)N5CCCC(n6nc(-c7ccc(Oc8ccc(F)cc8F)cc7)c(C(N)=O)c6N)C5)c4)C3)ccc2CC1C(=O)NC1CCCc2ccccc21)C(C)(C)C

> <Shape>
0.213

> <Color>
0.095

> <Negative vol penalty>
0.000

$$$$

  -OEChem-04052301513D

 85 93  0     1  0  0  0  0  0999 V2000
  -30.3958  -20.7609    3.7226 C   0  0  0  0  0  0  0  0  0  0  0  0
  -30.7151  -20.4792    5.0470 C   0  0  0  0  0  0  0  0  0  0  0  0
  -22.9870   -9.9051   19.9901 C   0  0  0  0  0  0  0  0  0  0  0  0
  -23.7663   -9.9336   22.2768 C   0  0  0  0  0  0  0  0  0  0  0  0
  -27.7192  -18.4076   21.3627 C   0  0  0  0  0  0  0  0  0  0  0  0
  -30.1946  -22.0807    3.3208 C   0  0  0  0  0  0  0  0  0  0  0  0
  -30.8346  -21.5173    5.9703 C   0  0  0  0  0  0  0  0  0  0  0  0
  -28.5171  -20.4939   10.3551 C   0  0  0  0  0  0  0  0  0  0  0  0
  -22.2276   -8.7675   20.2630 C   0  0  0  0  0  0  0  0  0  0  0  0
  -23.0068   -8.7959   22.5498 C   0  0  0  0  0  0  0  0  0  0  0  0
  -28.0987  -18.9500   20.1350 C   0  0  0  0  0  0  0  0  0  0  0  0
  -29.1760  -19.6412   11.2397 C   0  0  0  0  0  0  0  0  0  0  0  0
  -23.2416   -5.4621   22.0388 C   0  0  0  0  0  0  0  0  0  0  0  0
  -23.8472   -4.4378   22.7666 C   0  0  0  0  0  0  0  0  0  0  0  0
  -29.8139  -17.2622   19.9194 C   0  0  0  0  0  0  0  0  0  0  0  0
  -29.9293  -21.5494   12.5087 C   0  0  0  0  0  0  0  0  0  0  0  0
  -22.1631   -4.6627   24.4843 C   0  0  0  0  0  0  0  0  0  0  0  0
  -23.7565  -10.4882   20.9970 C   0  0  0  0  0  0  0  0  0  0  0  0
  -28.3871  -17.2925   21.8689 C   0  0  0  0  0  0  0  0  0  0  0  0
  -29.4345  -16.7198   21.1472 C   0  0  0  0  0  0  0  0  0  0  0  0
  -24.1362  -13.0057   20.8372 C   0  0  0  0  0  0  0  0  0  0  0  0
  -30.3021  -23.1348    4.2417 C   0  0  0  0  0  0  0  0  0  0  0  0
  -28.5685  -21.8837   10.5348 C   0  0  0  0  0  0  0  0  0  0  0  0
  -30.6359  -22.8526    5.5801 C   0  0  0  0  0  0  0  0  0  0  0  0
  -29.2681  -22.4175   11.6265 C   0  0  0  0  0  0  0  0  0  0  0  0
  -22.2374   -8.2129   21.5429 C   0  0  0  0  0  0  0  0  0  0  0  0
  -29.1460  -18.3774   19.4133 C   0  0  0  0  0  0  0  0  0  0  0  0
  -29.8846  -20.1690   12.3150 C   0  0  0  0  0  0  0  0  0  0  0  0
  -22.0968   -6.0867   22.5338 C   0  0  0  0  0  0  0  0  0  0  0  0
  -23.3080   -4.0381   23.9894 C   0  0  0  0  0  0  0  0  0  0  0  0
  -21.5576   -5.6870   23.7565 C   0  0  0  0  0  0  0  0  0  0  0  0
  -24.5416  -11.6631   20.7155 C   0  0  0  0  0  0  0  0  0  0  0  0
  -25.2368  -13.7327   20.4540 C   0  0  0  0  0  0  0  0  0  0  0  0
  -27.9566  -17.4571   24.2778 C   0  0  0  0  0  0  0  0  0  0  0  0
  -27.9655  -16.7535   23.1560 C   0  0  0  0  0  0  0  0  0  0  0  0
  -30.1589  -15.5546   21.6409 C   0  0  0  0  0  0  0  0  0  0  0  0
  -22.8775  -13.5473   21.2589 C   0  0  0  0  0  0  0  0  0  0  0  0
  -30.7612  -14.5731   20.7097 C   0  0  0  0  0  0  0  0  0  0  0  0
  -29.6795  -24.3262    8.8308 C   0  0  0  0  0  0  0  0  0  0  0  0
  -28.2908  -26.0875   11.1742 C   0  0  0  0  0  0  0  0  0  0  0  0
  -27.1749  -26.2585   14.3948 C   0  0  0  0  0  0  0  0  0  0  0  0
  -30.1222  -24.5493    3.7502 C   0  0  0  0  0  0  0  0  0  0  0  0
  -27.8301  -22.7887    9.5870 C   0  0  0  0  0  0  0  0  0  0  0  0
  -29.3371  -23.9014   11.8752 C   0  0  0  0  0  0  0  0  0  0  0  0
  -29.8991  -25.5602    4.8721 C   0  0  0  0  0  0  0  0  0  0  0  0
  -29.5351  -12.2944   18.2276 C   0  0  0  0  0  0  0  0  0  0  0  0
  -30.9080  -25.3425    5.9953 C   0  0  0  0  0  0  0  0  0  0  0  0
  -28.1059  -12.0077   18.6868 C   0  0  0  0  0  0  0  0  0  0  0  0
  -30.4722  -12.4982   19.4136 C   0  0  0  0  0  0  0  0  0  0  0  0
  -28.5895  -13.2802   20.8251 C   0  0  0  0  0  0  0  0  0  0  0  0
  -30.7500  -23.9494    6.6165 C   0  0  1  0  0  0  0  0  0  0  0  0
  -28.3775  -24.2127    9.5720 C   0  0  1  0  0  0  0  0  0  0  0  0
  -27.6080  -13.0961   19.6545 C   0  0  2  0  0  0  0  0  0  0  0  0
  -26.1235  -27.8413   16.0339 C   0  0  0  0  0  0  0  0  0  0  0  0
  -30.9763  -27.4890   11.5398 C   0  0  0  0  0  0  0  0  0  0  0  0
  -30.1549  -28.3358   13.7481 C   0  0  0  0  0  0  0  0  0  0  0  0
  -28.9873  -29.0013   11.6465 C   0  0  0  0  0  0  0  0  0  0  0  0
  -24.7841  -24.5405   14.6971 C   0  0  0  0  0  0  0  0  0  0  0  0
  -29.7593  -18.5112   15.8422 C   0  0  0  0  0  0  0  0  0  0  0  0
  -30.3063  -17.5645   14.7796 C   0  0  0  0  0  0  0  0  0  0  0  0
  -30.0606  -18.0112   17.2488 C   0  0  0  0  0  0  0  0  0  0  0  0
  -29.9684  -18.0413   13.3741 C   0  0  0  0  0  0  0  0  0  1  0  0
  -28.7392  -26.6369   12.5069 C   0  0  1  0  0  0  0  0  0  0  0  0
  -25.8728  -26.7702   14.9839 C   0  0  2  0  0  0  0  0  0  0  0  0
  -29.7149  -27.8378   12.3548 C   0  0  0  0  0  0  0  0  0  0  0  0
  -25.8013  -11.5415   20.2883 N   0  0  0  0  0  0  0  0  0  0  0  0
  -30.3245  -15.3029   22.9092 N   0  0  0  0  0  0  0  0  0  0  0  0
  -26.1969  -12.8170   20.1381 N   0  0  0  0  0  0  0  0  0  0  0  0
  -29.9524  -13.5111   20.3301 N   0  0  0  0  0  0  0  0  0  0  0  0
  -28.6040  -24.7453   10.9171 N   0  0  0  0  0  0  0  0  0  0  0  0
  -25.4671  -15.0595   20.3597 N   0  0  0  0  0  0  0  0  0  0  0  0
  -21.8545  -12.6590   21.6178 N   0  0  0  0  0  0  0  0  0  0  0  0
  -29.6129  -23.9211    7.5113 N   0  0  0  0  0  0  0  0  0  0  0  0
  -27.5230  -26.9457   13.2512 N   0  0  0  0  0  0  0  0  0  0  0  0
  -25.1189  -25.6541   15.6218 N   0  3  0  0  0  0  0  0  0  0  0  0
  -22.6608  -14.7821   21.3001 O   0  0  0  0  0  0  0  0  0  0  0  0
  -31.9150  -14.8049   20.3730 O   0  0  0  0  0  0  0  0  0  0  0  0
  -30.6708  -24.7514    9.4124 O   0  0  0  0  0  0  0  0  0  0  0  0
  -27.6786  -26.8202   10.3931 O   0  0  0  0  0  0  0  0  0  0  0  0
  -27.8208  -25.3434   14.9008 O   0  0  0  0  0  0  0  0  0  0  0  0
  -21.4962   -7.1029   21.8096 O   0  0  0  0  0  0  0  0  0  0  0  0
  -29.5183  -18.9104   18.2068 O   0  0  0  0  0  0  0  0  0  0  0  0
  -30.5292  -19.3390   13.1795 O   0  0  0  0  0  0  0  0  0  1  0  0
  -23.8888   -3.0535   24.6875 F   0  0  0  0  0  0  0  0  0  0  0  0
  -20.4572   -6.2825   24.2366 F   0  0  0  0  0  0  0  0  0  0  0  0
  1  2  1  0  0  0  0
  1  6  2  0  0  0  0
  2  7  2  0  0  0  0
  3  9  2  0  0  0  0
  3 18  1  0  0  0  0
  4 10  1  0  0  0  0
  4 18  2  0  0  0  0
  5 11  2  0  0  0  0
  5 19  1  0  0  0  0
  6 22  1  0  0  0  0
  7 24  1  0  0  0  0
  8 12  2  0  0  0  0
  8 23  1  0  0  0  0
  9 26  1  0  0  0  0
 10 26  2  0  0  0  0
 11 27  1  0  0  0  0
 12 28  1  0  0  0  0
 13 14  2  0  0  0  0
 13 29  1  0  0  0  0
 14 30  1  0  0  0  0
 15 20  1  0  0  0  0
 15 27  2  0  0  0  0
 16 25  1  0  0  0  0
 16 28  2  0  0  0  0
 17 30  2  0  0  0  0
 17 31  1  0  0  0  0
 18 32  1  0  0  0  0
 19 20  2  0  0  0  0
 19 35  1  0  0  0  0
 20 36  1  0  0  0  0
 21 32  1  0  0  0  0
 21 33  2  0  0  0  0
 21 37  1  0  0  0  0
 22 24  2  0  0  0  0
 22 42  1  0  0  0  0
 23 25  2  0  0  0  0
 23 43  1  0  0  0  0
 24 51  1  0  0  0  0
 25 44  1  0  0  0  0
 26 81  1  0  0  0  0
 27 82  1  0  0  0  0
 28 83  1  0  0  0  0
 29 31  2  0  0  0  0
 29 81  1  0  0  0  0
 30 84  1  0  0  0  0
 31 85  1  0  0  0  0
 32 66  2  0  0  0  0
 33 68  1  0  0  0  0
 33 71  1  0  0  0  0
 34 35  2  0  0  0  0
 36 38  1  0  0  0  0
 36 67  2  0  0  0  0
 37 72  1  0  0  0  0
 37 76  2  0  0  0  0
 38 69  1  0  0  0  0
 38 77  2  0  0  0  0
 39 52  1  0  0  0  0
 39 73  1  0  0  0  0
 39 78  2  0  0  0  0
 40 63  1  0  0  0  0
 40 70  1  0  0  0  0
 40 79  2  0  0  0  0
 41 64  1  0  0  0  0
 41 74  1  0  0  0  0
 41 80  2  0  0  0  0
 42 45  1  0  0  0  0
 43 52  1  0  0  0  0
 44 70  1  0  0  0  0
 45 47  1  0  0  0  0
 46 48  1  0  0  0  0
 46 49  1  0  0  0  0
 47 51  1  0  0  0  0
 48 53  1  0  0  0  0
 49 69  1  0  0  0  0
 50 53  1  0  0  0  0
 50 69  1  0  0  0  0
 51 73  1  0  0  0  0
 52 70  1  0  0  0  0
 53 68  1  0  0  0  0
 54 64  1  0  0  0  0
 55 65  1  0  0  0  0
 56 65  1  0  0  0  0
 57 65  1  0  0  0  0
 58 75  1  0  0  0  0
 59 60  1  0  0  0  0
 59 61  1  0  0  0  0
 60 62  1  0  0  0  0
 61 82  1  0  0  0  0
 62 83  1  0  0  0  0
 63 65  1  0  0  0  0
 63 74  1  0  0  0  0
 64 75  1  0  0  0  0
 66 68  1  0  0  0  0
M  CHG  1  75   1
M  ISO  4  36 100  38 100  62 101  83 101
M  END
> <Batch ID>
0119

> <Smiles>
C=Cc1ccc(OCCC[101CH2:1][101O:1]c2ccc3c(c2)CN(C(=O)C(NC(=O)C(C)NC)C(C)(C)C)C(C(=O)NC2CCCc4ccccc42)C3)cc1[100C:0](=N)[100C:0](=O)N1CCCC(n2nc(-c3ccc(Oc4ccc(F)cc4F)cc3)c(C(N)=O)c2N)C1

> <Shape>
0.201

> <Color>
0.190

> <Negative vol penalty>
0.000

$$$$

  -OEChem-04052301513D

 88 97  0     1  0  0  0  0  0999 V2000
  -22.4534  -37.7536   19.4737 C   0  0  0  0  0  0  0  0  0  0  0  0
  -22.6205  -36.6594   18.6310 C   0  0  0  0  0  0  0  0  0  0  0  0
  -24.3455   -8.7724   21.2503 C   0  0  0  0  0  0  0  0  0  0  0  0
  -23.1461  -10.8688   21.1897 C   0  0  0  0  0  0  0  0  0  0  0  0
  -23.1997  -37.8483   20.6476 C   0  0  0  0  0  0  0  0  0  0  0  0
  -23.5349  -35.6597   18.9611 C   0  0  0  0  0  0  0  0  0  0  0  0
  -24.5456  -28.5944   18.3480 C   0  0  0  0  0  0  0  0  0  0  0  0
  -23.1762   -8.0935   20.9076 C   0  0  0  0  0  0  0  0  0  0  0  0
  -21.9768  -10.1899   20.8469 C   0  0  0  0  0  0  0  0  0  0  0  0
  -25.4990  -27.6768   17.9088 C   0  0  0  0  0  0  0  0  0  0  0  0
  -20.3616   -7.0427   22.4562 C   0  0  0  0  0  0  0  0  0  0  0  0
  -20.0552   -5.8819   23.1663 C   0  0  0  0  0  0  0  0  0  0  0  0
  -29.5698  -20.1217   17.6687 C   0  0  0  0  0  0  0  0  0  0  0  0
  -30.8171  -21.9326   19.3856 C   0  0  0  0  0  0  0  0  0  0  0  0
  -26.6758  -27.9071   20.0020 C   0  0  0  0  0  0  0  0  0  0  0  0
  -20.1174   -4.6096   21.1134 C   0  0  0  0  0  0  0  0  0  0  0  0
  -24.3304  -10.1600   21.3914 C   0  0  0  0  0  0  0  0  0  0  0  0
  -29.4383  -19.9773   19.0498 C   0  0  0  0  0  0  0  0  0  0  0  0
  -30.9487  -22.0770   18.0044 C   0  0  0  0  0  0  0  0  0  0  0  0
  -26.3094  -10.6911   22.9111 C   0  0  0  0  0  0  0  0  0  0  0  0
  -24.1167  -36.8445   20.9972 C   0  0  0  0  0  0  0  0  0  0  0  0
  -24.6562  -29.1844   19.6153 C   0  0  0  0  0  0  0  0  0  0  0  0
  -24.2951  -35.7417   20.1401 C   0  0  0  0  0  0  0  0  0  0  0  0
  -25.7211  -28.8299   20.4558 C   0  0  0  0  0  0  0  0  0  0  0  0
  -30.3251  -21.1715   17.1460 C   0  0  0  0  0  0  0  0  0  0  0  0
  -21.9919   -8.8022   20.7058 C   0  0  0  0  0  0  0  0  0  0  0  0
  -26.5659  -27.3353   18.7347 C   0  0  0  0  0  0  0  0  0  0  0  0
  -20.5458   -6.9870   21.0746 C   0  0  0  0  0  0  0  0  0  0  0  0
  -19.9331   -4.6654   22.4950 C   0  0  0  0  0  0  0  0  0  0  0  0
  -30.0619  -20.8827   19.9082 C   0  0  0  0  0  0  0  0  0  0  0  0
  -20.4238   -5.7704   20.4033 C   0  0  0  0  0  0  0  0  0  0  0  0
  -25.5378  -10.8618   21.7460 C   0  0  0  0  0  0  0  0  0  0  0  0
  -27.3436  -11.5842   22.7720 C   0  0  0  0  0  0  0  0  0  0  0  0
  -29.5664  -26.1316   17.1754 C   0  0  0  0  0  0  0  0  0  0  0  0
  -28.6495  -18.8808   19.5898 C   0  0  0  0  0  0  0  0  0  0  0  0
  -28.5898  -26.9182   17.6388 C   0  0  0  0  0  0  0  0  0  1  0  0
  -28.4986  -17.6681   19.0162 C   0  0  0  0  0  0  0  0  0  0  0  0
  -31.7498  -23.1930   17.4797 C   0  0  0  0  0  0  0  0  0  0  0  0
  -26.1093   -9.8043   24.0198 C   0  0  0  0  0  0  0  0  0  0  0  0
  -27.6700  -16.6520   19.6957 C   0  0  0  0  0  0  0  0  0  0  0  0
  -25.0112  -32.1575   20.6821 C   0  0  0  0  0  0  0  0  0  0  0  0
  -24.6286  -30.7486   23.5789 C   0  0  0  0  0  0  0  0  0  0  0  0
  -24.8439  -27.9199   25.4758 C   0  0  0  0  0  0  0  0  0  0  0  0
  -24.9350  -37.0140   22.2526 C   0  0  0  0  0  0  0  0  0  0  0  0
  -23.6049  -30.1522   20.0847 C   0  0  0  0  0  0  0  0  0  0  0  0
  -25.8743  -29.4196   21.8333 C   0  0  0  0  0  0  0  0  0  0  0  0
  -30.7808  -26.6073   16.4367 C   0  0  0  0  0  0  0  0  0  0  0  0
  -29.6697  -24.6585   17.4217 C   0  0  0  0  0  0  0  0  0  0  0  0
  -25.6112  -35.7267   22.7174 C   0  0  0  0  0  0  0  0  0  0  0  0
  -29.9669  -13.8054   19.4645 C   0  0  0  0  0  0  0  0  0  0  0  0
  -26.2855  -35.0240   21.5434 C   0  0  0  0  0  0  0  0  0  0  0  0
  -29.1267  -12.6982   20.0953 C   0  0  0  0  0  0  0  0  0  0  0  0
  -31.8274  -25.5874   16.8499 C   0  0  0  0  0  0  0  0  0  0  0  0
  -29.1087  -14.8010   18.6855 C   0  0  0  0  0  0  0  0  0  0  0  0
  -27.1571  -14.2794   20.1207 C   0  0  0  0  0  0  0  0  0  0  0  0
  -25.2592  -34.6247   20.4762 C   0  0  1  0  0  0  0  0  0  0  0  0
  -24.0975  -31.0790   21.1918 C   0  0  1  0  0  0  0  0  0  0  0  0
  -27.9951  -13.2927   20.9486 C   0  0  1  0  0  0  0  0  0  0  0  0
  -30.4491  -21.3026   15.6627 C   0  0  0  0  0  0  0  0  0  0  0  0
  -24.5010  -27.0882   27.8185 C   0  0  0  0  0  0  0  0  0  0  0  0
  -27.2404  -32.0767   24.4302 C   0  0  0  0  0  0  0  0  0  0  0  0
  -27.3329  -30.4936   26.3675 C   0  0  0  0  0  0  0  0  0  0  0  0
  -25.4406  -32.1065   26.1664 C   0  0  0  0  0  0  0  0  0  0  0  0
  -22.7636  -25.9997   24.6134 C   0  0  0  0  0  0  0  0  0  0  0  0
  -25.5549  -30.1280   24.5965 C   0  0  1  0  0  0  0  0  0  0  0  0
  -23.8685  -27.2832   26.4493 C   0  0  2  0  0  0  0  0  0  0  0  0
  -26.3907  -31.1914   25.3635 C   0  0  0  0  0  0  0  0  0  0  0  0
  -26.0389  -11.7906   20.9273 N   0  0  0  0  0  0  0  0  0  0  0  0
  -27.1364  -12.2114   21.5787 N   0  0  0  0  0  0  0  0  0  0  0  0
  -31.0924  -24.3899   17.2303 N   0  0  0  0  0  0  0  0  0  0  0  0
  -27.9988  -15.3112   19.5045 N   0  0  0  0  0  0  0  0  0  0  0  0
  -24.8241  -30.3659   22.2443 N   0  0  0  0  0  0  0  0  0  0  0  0
  -28.4008  -11.8863   23.5552 N   0  0  0  0  0  0  0  0  0  0  0  0
  -24.9959   -8.9532   24.0021 N   0  0  0  0  0  0  0  0  0  0  0  0
  -24.5377  -33.4394   20.8873 N   0  0  0  0  0  0  0  0  0  0  0  0
  -24.7198  -29.2929   25.4530 N   0  0  0  0  0  0  0  0  0  0  0  0
  -23.4249  -25.9536   25.9429 N   0  3  0  0  0  0  0  0  0  0  0  0
  -32.9509  -22.9941   17.3093 O   0  0  0  0  0  0  0  0  0  0  0  0
  -26.8854   -9.7795   25.0049 O   0  0  0  0  0  0  0  0  0  0  0  0
  -26.7330  -17.0530   20.3884 O   0  0  0  0  0  0  0  0  0  0  0  0
  -26.0682  -31.8495   20.1440 O   0  0  0  0  0  0  0  0  0  0  0  0
  -23.7588  -31.5383   23.9551 O   0  0  0  0  0  0  0  0  0  0  0  0
  -25.6393  -27.2650   24.8057 O   0  0  0  0  0  0  0  0  0  0  0  0
  -20.8508   -8.1401   20.3711 O   0  0  0  0  0  0  0  0  0  0  0  0
  -27.4983  -26.4404   18.3083 O   0  0  0  0  0  0  0  0  0  1  0  0
  -19.6403   -3.5505   23.1772 F   0  0  0  0  0  0  0  0  0  0  0  0
  -29.9443  -20.7571   21.2382 F   0  0  0  0  0  0  0  0  0  0  0  0
  -20.6008   -5.7104   19.0763 F   0  0  0  0  0  0  0  0  0  0  0  0
  1  2  1  0  0  0  0
  1  5  2  0  0  0  0
  2  6  2  0  0  0  0
  3  8  2  0  0  0  0
  3 17  1  0  0  0  0
  4  9  1  0  0  0  0
  4 17  2  0  0  0  0
  5 21  1  0  0  0  0
  6 23  1  0  0  0  0
  7 10  2  0  0  0  0
  7 22  1  0  0  0  0
  8 26  1  0  0  0  0
  9 26  2  0  0  0  0
 10 27  1  0  0  0  0
 11 12  2  0  0  0  0
 11 28  1  0  0  0  0
 12 29  1  0  0  0  0
 13 18  2  0  0  0  0
 13 25  1  0  0  0  0
 14 19  1  0  0  0  0
 14 30  2  0  0  0  0
 15 24  1  0  0  0  0
 15 27  2  0  0  0  0
 16 29  2  0  0  0  0
 16 31  1  0  0  0  0
 17 32  1  0  0  0  0
 18 30  1  0  0  0  0
 18 35  1  0  0  0  0
 19 25  2  0  0  0  0
 19 38  1  0  0  0  0
 20 32  1  0  0  0  0
 20 33  2  0  0  0  0
 20 39  1  0  0  0  0
 21 23  2  0  0  0  0
 21 44  1  0  0  0  0
 22 24  2  0  0  0  0
 22 45  1  0  0  0  0
 23 56  1  0  0  0  0
 24 46  1  0  0  0  0
 25 59  1  0  0  0  0
 26 84  1  0  0  0  0
 27 85  1  0  0  0  0
 28 31  2  0  0  0  0
 28 84  1  0  0  0  0
 29 86  1  0  0  0  0
 30 87  1  0  0  0  0
 31 88  1  0  0  0  0
 32 68  2  0  0  0  0
 33 69  1  0  0  0  0
 33 73  1  0  0  0  0
 34 36  2  0  0  0  0
 34 47  1  0  0  0  0
 34 48  1  0  0  0  0
 35 37  2  0  0  0  0
 36 85  1  0  0  0  0
 37 40  1  0  0  0  0
 38 70  1  0  0  0  0
 38 78  2  0  0  0  0
 39 74  1  0  0  0  0
 39 79  2  0  0  0  0
 40 71  1  0  0  0  0
 40 80  2  0  0  0  0
 41 57  1  0  0  0  0
 41 75  1  0  0  0  0
 41 81  2  0  0  0  0
 42 65  1  0  0  0  0
 42 72  1  0  0  0  0
 42 82  2  0  0  0  0
 43 66  1  0  0  0  0
 43 76  1  0  0  0  0
 43 83  2  0  0  0  0
 44 49  1  0  0  0  0
 45 57  1  0  0  0  0
 46 72  1  0  0  0  0
 47 53  1  0  0  0  0
 48 70  1  0  0  0  0
 49 51  1  0  0  0  0
 50 52  1  0  0  0  0
 50 54  1  0  0  0  0
 51 56  1  0  0  0  0
 52 58  1  0  0  0  0
 53 70  1  0  0  0  0
 54 71  1  0  0  0  0
 55 58  1  0  0  0  0
 55 71  1  0  0  0  0
 56 75  1  0  0  0  0
 57 72  1  0  0  0  0
 58 69  1  0  0  0  0
 60 66  1  0  0  0  0
 61 67  1  0  0  0  0
 62 67  1  0  0  0  0
 63 67  1  0  0  0  0
 64 77  1  0  0  0  0
 65 67  1  0  0  0  0
 65 76  1  0  0  0  0
 66 77  1  0  0  0  0
 68 69  1  0  0  0  0
M  CHG  1  77   1
M  ISO  4  36 101  37 100  40 100  85 101
M  END
> <Batch ID>
0119

> <Smiles>
CNC(C)C(=O)NC(C(=O)N1Cc2cc([101O:1][101CH:1]=C3CCN(C(=O)c4cc(F)c(C=[100CH:0][100C:0](=O)N5CCCC(n6nc(-c7ccc(Oc8ccc(F)cc8F)cc7)c(C(N)=O)c6N)C5)cc4C)C3)ccc2CC1C(=O)NC1CCCc2ccccc21)C(C)(C)C

> <Shape>
0.262

> <Color>
0.097

> <Negative vol penalty>
0.000

$$$$

  -OEChem-04052301513D

 87 95  0     1  0  0  0  0  0999 V2000
  -29.5757  -35.2303   22.6777 C   0  0  0  0  0  0  0  0  0  0  0  0
  -29.2235  -33.9006   22.4693 C   0  0  0  0  0  0  0  0  0  0  0  0
  -24.2099   -9.8345   21.9807 C   0  0  0  0  0  0  0  0  0  0  0  0
  -22.8498  -10.0974   20.0013 C   0  0  0  0  0  0  0  0  0  0  0  0
  -28.8992  -35.9879   23.6328 C   0  0  0  0  0  0  0  0  0  0  0  0
  -28.1953  -33.3275   23.2168 C   0  0  0  0  0  0  0  0  0  0  0  0
  -25.0245  -30.5847   20.3763 C   0  0  0  0  0  0  0  0  0  0  0  0
  -23.2209   -9.0354   22.5542 C   0  0  0  0  0  0  0  0  0  0  0  0
  -21.8607   -9.2983   20.5748 C   0  0  0  0  0  0  0  0  0  0  0  0
  -25.4484  -29.3119   19.9970 C   0  0  0  0  0  0  0  0  0  0  0  0
  -22.1543   -5.8357   22.3152 C   0  0  0  0  0  0  0  0  0  0  0  0
  -22.5569   -4.6588   22.9463 C   0  0  0  0  0  0  0  0  0  0  0  0
  -32.3662  -21.7764   20.4782 C   0  0  0  0  0  0  0  0  0  0  0  0
  -29.9355  -20.8872   19.4371 C   0  0  0  0  0  0  0  0  0  0  0  0
  -24.1137  -28.3484   21.7604 C   0  0  0  0  0  0  0  0  0  0  0  0
  -21.6123   -5.4501   25.0244 C   0  0  0  0  0  0  0  0  0  0  0  0
  -24.0244  -10.3655   20.7043 C   0  0  0  0  0  0  0  0  0  0  0  0
  -32.0253  -20.4262   20.5584 C   0  0  0  0  0  0  0  0  0  0  0  0
  -30.8100  -19.9816   20.0378 C   0  0  0  0  0  0  0  0  0  0  0  0
  -26.1248  -10.7674   19.3134 C   0  0  0  0  0  0  0  0  0  0  0  0
  -27.8558  -35.4266   24.3856 C   0  0  0  0  0  0  0  0  0  0  0  0
  -24.1490  -30.7501   21.4593 C   0  0  0  0  0  0  0  0  0  0  0  0
  -27.5051  -34.0780   24.1838 C   0  0  0  0  0  0  0  0  0  0  0  0
  -23.6782  -29.6242   22.1499 C   0  0  0  0  0  0  0  0  0  0  0  0
  -22.0463   -8.7673   21.8513 C   0  0  0  0  0  0  0  0  0  0  0  0
  -24.9953  -28.1937   20.6909 C   0  0  0  0  0  0  0  0  0  0  0  0
  -21.4808   -6.8199   23.0387 C   0  0  0  0  0  0  0  0  0  0  0  0
  -31.4916  -22.6820   19.8776 C   0  0  0  0  0  0  0  0  0  0  0  0
  -30.2763  -22.2374   19.3570 C   0  0  0  0  0  0  0  0  0  0  0  0
  -22.2858   -4.4659   24.3009 C   0  0  0  0  0  0  0  0  0  0  0  0
  -21.2097   -6.6271   24.3933 C   0  0  0  0  0  0  0  0  0  0  0  0
  -25.0455  -11.1914   20.1116 C   0  0  0  0  0  0  0  0  0  0  0  0
  -26.7978  -11.9238   19.0035 C   0  0  0  0  0  0  0  0  0  0  0  0
  -33.3447  -19.6156   22.4603 C   0  0  0  0  0  0  0  0  0  0  0  0
  -32.9703  -19.5153   21.1946 C   0  0  0  0  0  0  0  0  0  0  0  0
  -30.4127  -18.5795   20.0985 C   0  0  0  0  0  0  0  0  0  0  0  0
  -29.3008  -18.1100   20.6981 C   0  0  0  0  0  0  0  0  0  0  0  0
  -27.2473  -25.4793   20.0193 C   0  0  0  0  0  0  0  0  0  0  0  0
  -27.5863  -24.6018   19.0635 C   0  0  0  0  0  0  0  0  0  0  0  0
  -26.4865   -9.4462   18.8899 C   0  0  0  0  0  0  0  0  0  0  0  0
  -29.0310  -16.6585   20.6652 C   0  0  0  0  0  0  0  0  0  0  0  0
  -24.3174  -32.2118   24.2768 C   0  0  0  0  0  0  0  0  0  0  0  0
  -21.1854  -31.3861   24.4543 C   0  0  0  0  0  0  0  0  0  0  0  0
  -18.6761  -29.3054   23.4442 C   0  0  0  0  0  0  0  0  0  0  0  0
  -27.1853  -36.2714   25.4399 C   0  0  0  0  0  0  0  0  0  0  0  0
  -23.6801  -32.1279   21.8390 C   0  0  0  0  0  0  0  0  0  0  0  0
  -22.7215  -29.7463   23.3068 C   0  0  0  0  0  0  0  0  0  0  0  0
  -25.8575  -35.6970   25.9270 C   0  0  0  0  0  0  0  0  0  0  0  0
  -25.5180  -16.7617   19.6262 C   0  0  0  0  0  0  0  0  0  0  0  0
  -25.9965  -34.2069   26.2217 C   0  0  0  0  0  0  0  0  0  0  0  0
  -25.1630  -15.2773   19.6431 C   0  0  0  0  0  0  0  0  0  0  0  0
  -26.5214  -17.1221   20.7206 C   0  0  0  0  0  0  0  0  0  0  0  0
  -27.4051  -14.8071   20.7071 C   0  0  0  0  0  0  0  0  0  0  0  0
  -26.3787  -33.4278   24.9575 C   0  0  1  0  0  0  0  0  0  0  0  0
  -23.1917  -32.2163   23.2816 C   0  0  1  0  0  0  0  0  0  0  0  0
  -26.4327  -14.4133   19.5843 C   0  0  1  0  0  0  0  0  0  0  0  0
  -16.2321  -28.8537   23.7908 C   0  0  0  0  0  0  0  0  0  0  0  0
  -21.8094  -30.0871   27.1438 C   0  0  0  0  0  0  0  0  0  0  0  0
  -19.6292  -28.8671   26.9816 C   0  0  0  0  0  0  0  0  0  0  0  0
  -19.6577  -31.3598   27.0742 C   0  0  0  0  0  0  0  0  0  0  0  0
  -18.0576  -29.8246   20.5969 C   0  0  0  0  0  0  0  0  0  0  0  0
  -31.4426  -24.8318   20.8934 C   0  0  0  0  0  0  0  0  0  0  0  0
  -26.7056  -26.8429   19.7390 C   0  0  0  0  0  0  0  0  0  1  0  0
  -28.1170  -23.2338   19.3435 C   0  0  0  0  0  0  0  0  0  0  0  0
  -20.4229  -30.1888   24.9681 C   0  0  1  0  0  0  0  0  0  0  0  0
  -17.2675  -29.5896   22.9548 C   0  0  2  0  0  0  0  0  0  0  0  0
  -20.3994  -30.1232   26.5214 C   0  0  0  0  0  0  0  0  0  0  0  0
  -25.0300  -12.5140   20.2973 N   0  0  0  0  0  0  0  0  0  0  0  0
  -26.1079  -12.9310   19.6115 N   0  0  0  0  0  0  0  0  0  0  0  0
  -27.7004  -16.2440   20.6803 N   0  0  0  0  0  0  0  0  0  0  0  0
  -22.2971  -31.1152   23.6439 N   0  0  0  0  0  0  0  0  0  0  0  0
  -27.9067  -12.1672   18.2730 N   0  0  0  0  0  0  0  0  0  0  0  0
  -25.6856   -8.3709   19.2982 N   0  0  0  0  0  0  0  0  0  0  0  0
  -25.2215  -33.2432   24.1083 N   0  0  0  0  0  0  0  0  0  0  0  0
  -19.1017  -30.2514   24.3526 N   0  0  0  0  0  0  0  0  0  0  0  0
  -17.1160  -29.1614   21.5354 N   0  3  0  0  0  0  0  0  0  0  0  0
  -27.4995   -9.2239   18.1842 O   0  0  0  0  0  0  0  0  0  0  0  0
  -30.0020  -15.9003   20.6312 O   0  0  0  0  0  0  0  0  0  0  0  0
  -24.3616  -31.3383   25.1351 O   0  0  0  0  0  0  0  0  0  0  0  0
  -20.8044  -32.5202   24.7549 O   0  0  0  0  0  0  0  0  0  0  0  0
  -19.3317  -28.3386   23.0620 O   0  0  0  0  0  0  0  0  0  0  0  0
  -21.0811   -7.9875   22.4105 O   0  0  0  0  0  0  0  0  0  0  0  0
  -31.8358  -23.9981   19.8050 O   0  0  0  0  0  0  0  0  0  0  0  0
  -25.4080  -26.9502   20.3231 O   0  0  0  0  0  0  0  0  0  1  0  0
  -29.4088  -23.1177   18.7638 O   0  0  0  0  0  0  0  0  0  0  0  0
  -22.6711   -3.3350   24.9065 F   0  0  0  0  0  0  0  0  0  0  0  0
  -20.5620   -7.5685   25.0933 F   0  0  0  0  0  0  0  0  0  0  0  0
  1  2  1  0  0  0  0
  1  5  2  0  0  0  0
  2  6  2  0  0  0  0
  3  8  2  0  0  0  0
  3 17  1  0  0  0  0
  4  9  1  0  0  0  0
  4 17  2  0  0  0  0
  5 21  1  0  0  0  0
  6 23  1  0  0  0  0
  7 10  2  0  0  0  0
  7 22  1  0  0  0  0
  8 25  1  0  0  0  0
  9 25  2  0  0  0  0
 10 26  1  0  0  0  0
 11 12  2  0  0  0  0
 11 27  1  0  0  0  0
 12 30  1  0  0  0  0
 13 18  1  0  0  0  0
 13 28  2  0  0  0  0
 14 19  1  0  0  0  0
 14 29  2  0  0  0  0
 15 24  1  0  0  0  0
 15 26  2  0  0  0  0
 16 30  2  0  0  0  0
 16 31  1  0  0  0  0
 17 32  1  0  0  0  0
 18 19  2  0  0  0  0
 18 35  1  0  0  0  0
 19 36  1  0  0  0  0
 20 32  1  0  0  0  0
 20 33  2  0  0  0  0
 20 40  1  0  0  0  0
 21 23  2  0  0  0  0
 21 45  1  0  0  0  0
 22 24  2  0  0  0  0
 22 46  1  0  0  0  0
 23 54  1  0  0  0  0
 24 47  1  0  0  0  0
 25 82  1  0  0  0  0
 26 84  1  0  0  0  0
 27 31  2  0  0  0  0
 27 82  1  0  0  0  0
 28 29  1  0  0  0  0
 28 83  1  0  0  0  0
 29 85  1  0  0  0  0
 30 86  1  0  0  0  0
 31 87  1  0  0  0  0
 32 68  2  0  0  0  0
 33 69  1  0  0  0  0
 33 72  1  0  0  0  0
 34 35  2  0  0  0  0
 36 37  2  0  0  0  0
 37 41  1  0  0  0  0
 38 39  2  0  0  0  0
 38 63  1  0  0  0  0
 39 64  1  0  0  0  0
 40 73  1  0  0  0  0
 40 77  2  0  0  0  0
 41 70  1  0  0  0  0
 41 78  2  0  0  0  0
 42 55  1  0  0  0  0
 42 74  1  0  0  0  0
 42 79  2  0  0  0  0
 43 65  1  0  0  0  0
 43 71  1  0  0  0  0
 43 80  2  0  0  0  0
 44 66  1  0  0  0  0
 44 75  1  0  0  0  0
 44 81  2  0  0  0  0
 45 48  1  0  0  0  0
 46 55  1  0  0  0  0
 47 71  1  0  0  0  0
 48 50  1  0  0  0  0
 49 51  1  0  0  0  0
 49 52  1  0  0  0  0
 50 54  1  0  0  0  0
 51 56  1  0  0  0  0
 52 70  1  0  0  0  0
 53 56  1  0  0  0  0
 53 70  1  0  0  0  0
 54 74  1  0  0  0  0
 55 71  1  0  0  0  0
 56 69  1  0  0  0  0
 57 66  1  0  0  0  0
 58 67  1  0  0  0  0
 59 67  1  0  0  0  0
 60 67  1  0  0  0  0
 61 76  1  0  0  0  0
 62 83  1  0  0  0  0
 63 84  1  0  0  0  0
 64 85  1  0  0  0  0
 65 67  1  0  0  0  0
 65 75  1  0  0  0  0
 66 76  1  0  0  0  0
 68 69  1  0  0  0  0
M  CHG  1  76   1
M  ISO  4  37 100  41 100  63 101  84 101
M  END
> <Batch ID>
0119

> <Smiles>
C=Cc1cc(OC)c(OCC=C[101CH2:1][101O:1]c2ccc3c(c2)CN(C(=O)C(NC(=O)C(C)NC)C(C)(C)C)C(C(=O)NC2CCCc4ccccc42)C3)cc1C=[100CH:0][100C:0](=O)N1CCCC(n2nc(-c3ccc(Oc4ccc(F)cc4F)cc3)c(C(N)=O)c2N)C1

> <Shape>
0.314

> <Color>
0.082

> <Negative vol penalty>
0.000

$$$$

  -OEChem-04052301513D

 83 91  0     1  0  0  0  0  0999 V2000
  -28.3437  -36.3556   22.8230 C   0  0  0  0  0  0  0  0  0  0  0  0
  -28.6168  -34.9951   22.7228 C   0  0  0  0  0  0  0  0  0  0  0  0
  -24.0475   -9.7937   22.2604 C   0  0  0  0  0  0  0  0  0  0  0  0
  -24.6318  -11.4295   23.9396 C   0  0  0  0  0  0  0  0  0  0  0  0
  -30.7040  -20.1462   19.0050 C   0  0  0  0  0  0  0  0  0  0  0  0
  -27.0901  -36.7836   23.2580 C   0  0  0  0  0  0  0  0  0  0  0  0
  -27.6367  -34.0618   23.0587 C   0  0  0  0  0  0  0  0  0  0  0  0
  -27.2926  -30.3049   19.6805 C   0  0  0  0  0  0  0  0  0  0  0  0
  -30.4427  -18.7786   18.9215 C   0  0  0  0  0  0  0  0  0  0  0  0
  -23.6687   -8.9004   23.2624 C   0  0  0  0  0  0  0  0  0  0  0  0
  -24.2530  -10.5362   24.9416 C   0  0  0  0  0  0  0  0  0  0  0  0
  -28.2589  -29.3019   19.7431 C   0  0  0  0  0  0  0  0  0  0  0  0
  -21.0120   -8.4211   25.2983 C   0  0  0  0  0  0  0  0  0  0  0  0
  -19.8101   -7.7328   25.1327 C   0  0  0  0  0  0  0  0  0  0  0  0
  -28.3415  -20.5820   19.2610 C   0  0  0  0  0  0  0  0  0  0  0  0
  -26.7038  -27.8857   20.9242 C   0  0  0  0  0  0  0  0  0  0  0  0
  -21.0031   -5.6330   25.2024 C   0  0  0  0  0  0  0  0  0  0  0  0
  -24.5291  -11.0583   22.5990 C   0  0  0  0  0  0  0  0  0  0  0  0
  -29.6534  -21.0479   19.1748 C   0  0  0  0  0  0  0  0  0  0  0  0
  -24.1071  -12.9328   20.9210 C   0  0  0  0  0  0  0  0  0  0  0  0
  -26.0909  -35.8551   23.5901 C   0  0  0  0  0  0  0  0  0  0  0  0
  -26.0260  -30.1096   20.2499 C   0  0  0  0  0  0  0  0  0  0  0  0
  -26.3690  -34.4778   23.4998 C   0  0  0  0  0  0  0  0  0  0  0  0
  -25.7223  -28.8868   20.8653 C   0  0  0  0  0  0  0  0  0  0  0  0
  -28.0802  -19.2144   19.1774 C   0  0  0  0  0  0  0  0  0  0  0  0
  -29.1308  -18.3127   19.0076 C   0  0  0  0  0  0  0  0  0  0  0  0
  -23.7714   -9.2716   24.6030 C   0  0  0  0  0  0  0  0  0  0  0  0
  -27.9656  -28.0931   20.3676 C   0  0  0  0  0  0  0  0  0  0  0  0
  -22.2094   -7.7154   25.4159 C   0  0  0  0  0  0  0  0  0  0  0  0
  -19.8057   -6.3388   25.0848 C   0  0  0  0  0  0  0  0  0  0  0  0
  -22.2050   -6.3214   25.3680 C   0  0  0  0  0  0  0  0  0  0  0  0
  -24.9211  -11.9813   21.5644 C   0  0  0  0  0  0  0  0  0  0  0  0
  -24.9451  -13.5529   20.0266 C   0  0  0  0  0  0  0  0  0  0  0  0
  -29.9303  -22.4926   19.2631 C   0  0  0  0  0  0  0  0  0  0  0  0
  -29.0947  -23.3966   19.7931 C   0  0  0  0  0  0  0  0  0  0  0  0
  -22.7179  -13.2297   21.1146 C   0  0  0  0  0  0  0  0  0  0  0  0
  -29.4661  -24.8411   19.8256 C   0  0  0  0  0  0  0  0  0  0  0  0
  -24.3716  -31.5101   22.5747 C   0  0  0  0  0  0  0  0  0  0  0  0
  -22.0162  -29.5209   21.5660 C   0  0  0  0  0  0  0  0  0  0  0  0
  -21.1504  -26.6259   19.9797 C   0  0  0  0  0  0  0  0  0  0  0  0
  -29.8281  -15.9054   18.7523 C   0  0  0  0  0  0  0  0  0  0  0  0
  -24.7667  -36.3653   24.1007 C   0  0  0  0  0  0  0  0  0  0  0  0
  -24.9858  -31.1914   20.1504 C   0  0  0  0  0  0  0  0  0  0  0  0
  -24.3708  -28.6196   21.4741 C   0  0  0  0  0  0  0  0  0  0  0  0
  -23.6598  -35.3142   24.0793 C   0  0  0  0  0  0  0  0  0  0  0  0
  -29.6300  -12.3575   18.5286 C   0  0  0  0  0  0  0  0  0  0  0  0
  -24.1631  -33.9971   24.6612 C   0  0  0  0  0  0  0  0  0  0  0  0
  -28.3203  -12.0216   19.2456 C   0  0  0  0  0  0  0  0  0  0  0  0
  -30.3612  -13.5197   19.1983 C   0  0  0  0  0  0  0  0  0  0  0  0
  -28.2458  -14.3964   20.1068 C   0  0  0  0  0  0  0  0  0  0  0  0
  -25.3237  -33.4350   23.8314 C   0  0  1  0  0  0  0  0  0  0  0  0
  -23.8999  -31.0760   21.2157 C   0  0  1  0  0  0  0  0  0  0  0  0
  -27.4416  -13.2744   19.4301 C   0  0  2  0  0  0  0  0  0  0  0  0
  -26.6653  -18.7431   19.2729 C   0  0  0  0  0  0  0  0  0  0  0  0
  -19.1502  -25.2501   19.3441 C   0  0  0  0  0  0  0  0  0  0  0  0
  -21.7624  -28.5614   24.4512 C   0  0  0  0  0  0  0  0  0  0  0  0
  -20.4790  -26.5843   23.6075 C   0  0  0  0  0  0  0  0  0  0  0  0
  -19.5850  -28.8878   23.2651 C   0  0  0  0  0  0  0  0  0  0  0  0
  -21.7541  -26.8709   17.0927 C   0  0  0  0  0  0  0  0  0  0  0  0
  -28.4405  -25.7642   20.4491 C   0  0  0  0  0  0  0  0  0  1  0  0
  -21.5789  -28.1186   21.9143 C   0  0  1  0  0  0  0  0  0  0  0  0
  -20.1193  -26.3364   18.9038 C   0  0  2  0  0  0  0  0  0  0  0  0
  -20.8776  -28.0435   23.2999 C   0  0  0  0  0  0  0  0  0  0  0  0
  -26.1794  -11.9922   21.1167 N   0  0  0  0  0  0  0  0  0  0  0  0
  -26.1625  -12.9580   20.1823 N   0  0  0  0  0  0  0  0  0  0  0  0
  -23.3895  -29.7108   21.3569 N   0  0  0  0  0  0  0  0  0  0  0  0
  -29.4682  -14.6723   19.3358 N   0  0  0  0  0  0  0  0  0  0  0  0
  -24.7519  -14.5434   19.1300 N   0  0  0  0  0  0  0  0  0  0  0  0
  -22.0056  -12.4977   22.0744 N   0  0  0  0  0  0  0  0  0  0  0  0
  -28.8861  -16.9197   18.9206 N   0  0  0  0  0  0  0  0  0  0  0  0
  -24.8263  -32.8141   22.6224 N   0  0  0  0  0  0  0  0  0  0  0  0
  -20.7544  -27.6599   20.8015 N   0  0  0  0  0  0  0  0  0  0  0  0
  -20.7899  -25.8881   17.6508 N   0  3  0  0  0  0  0  0  0  0  0  0
  -22.1216  -14.1066   20.4444 O   0  0  0  0  0  0  0  0  0  0  0  0
  -30.5331  -25.2506   19.3764 O   0  0  0  0  0  0  0  0  0  0  0  0
  -24.3249  -30.7209   23.5110 O   0  0  0  0  0  0  0  0  0  0  0  0
  -21.1695  -30.4135   21.4755 O   0  0  0  0  0  0  0  0  0  0  0  0
  -22.2003  -25.9954   20.0830 O   0  0  0  0  0  0  0  0  0  0  0  0
  -30.8811  -16.0435   18.1244 O   0  0  0  0  0  0  0  0  0  0  0  0
  -23.4017   -8.4002   25.5810 O   0  0  0  0  0  0  0  0  0  0  0  0
  -28.9072  -27.1127   20.4306 O   0  0  0  0  0  0  0  0  0  1  0  0
  -18.6513   -5.6779   24.9273 F   0  0  0  0  0  0  0  0  0  0  0  0
  -23.3520   -5.6379   25.4816 F   0  0  0  0  0  0  0  0  0  0  0  0
  1  2  1  0  0  0  0
  1  6  2  0  0  0  0
  2  7  2  0  0  0  0
  3 10  2  0  0  0  0
  3 18  1  0  0  0  0
  4 11  1  0  0  0  0
  4 18  2  0  0  0  0
  5  9  2  0  0  0  0
  5 19  1  0  0  0  0
  6 21  1  0  0  0  0
  7 23  1  0  0  0  0
  8 12  2  0  0  0  0
  8 22  1  0  0  0  0
  9 26  1  0  0  0  0
 10 27  1  0  0  0  0
 11 27  2  0  0  0  0
 12 28  1  0  0  0  0
 13 14  2  0  0  0  0
 13 29  1  0  0  0  0
 14 30  1  0  0  0  0
 15 19  2  0  0  0  0
 15 25  1  0  0  0  0
 16 24  1  0  0  0  0
 16 28  2  0  0  0  0
 17 30  2  0  0  0  0
 17 31  1  0  0  0  0
 18 32  1  0  0  0  0
 19 34  1  0  0  0  0
 20 32  1  0  0  0  0
 20 33  2  0  0  0  0
 20 36  1  0  0  0  0
 21 23  2  0  0  0  0
 21 42  1  0  0  0  0
 22 24  2  0  0  0  0
 22 43  1  0  0  0  0
 23 51  1  0  0  0  0
 24 44  1  0  0  0  0
 25 26  2  0  0  0  0
 25 54  1  0  0  0  0
 26 70  1  0  0  0  0
 27 80  1  0  0  0  0
 28 81  1  0  0  0  0
 29 31  2  0  0  0  0
 29 80  1  0  0  0  0
 30 82  1  0  0  0  0
 31 83  1  0  0  0  0
 32 64  2  0  0  0  0
 33 65  1  0  0  0  0
 33 68  1  0  0  0  0
 34 35  2  0  0  0  0
 35 37  1  0  0  0  0
 36 69  1  0  0  0  0
 36 74  2  0  0  0  0
 37 60  1  0  0  0  0
 37 75  2  0  0  0  0
 38 52  1  0  0  0  0
 38 71  1  0  0  0  0
 38 76  2  0  0  0  0
 39 61  1  0  0  0  0
 39 66  1  0  0  0  0
 39 77  2  0  0  0  0
 40 62  1  0  0  0  0
 40 72  1  0  0  0  0
 40 78  2  0  0  0  0
 41 67  1  0  0  0  0
 41 70  1  0  0  0  0
 41 79  2  0  0  0  0
 42 45  1  0  0  0  0
 43 52  1  0  0  0  0
 44 66  1  0  0  0  0
 45 47  1  0  0  0  0
 46 48  1  0  0  0  0
 46 49  1  0  0  0  0
 47 51  1  0  0  0  0
 48 53  1  0  0  0  0
 49 67  1  0  0  0  0
 50 53  1  0  0  0  0
 50 67  1  0  0  0  0
 51 71  1  0  0  0  0
 52 66  1  0  0  0  0
 53 65  1  0  0  0  0
 55 62  1  0  0  0  0
 56 63  1  0  0  0  0
 57 63  1  0  0  0  0
 58 63  1  0  0  0  0
 59 73  1  0  0  0  0
 60 81  1  0  0  0  0
 61 63  1  0  0  0  0
 61 72  1  0  0  0  0
 62 73  1  0  0  0  0
 64 65  1  0  0  0  0
M  CHG  1  73   1
M  ISO  4  41 100  60 101  70 100  81 101
M  END
> <Batch ID>
0119

> <Smiles>
CNC(C)C(=O)NC(C(=O)N1Cc2cc([101O:1][101CH2:1]C(=O)C=Cc3ccc([100NH:0][100C:0](=O)N4CCCC(n5nc(-c6ccc(Oc7ccc(F)cc7F)cc6)c(C(N)=O)c5N)C4)c(C)c3)ccc2CC1C(=O)NC1CCCc2ccccc21)C(C)(C)C

> <Shape>
0.349

> <Color>
0.141

> <Negative vol penalty>
0.000

$$$$

  -OEChem-04052301513D

 87 95  0     1  0  0  0  0  0999 V2000
  -36.2477  -12.9195   24.8196 C   0  0  0  0  0  0  0  0  0  0  0  0
  -35.4418  -13.9443   25.3027 C   0  0  0  0  0  0  0  0  0  0  0  0
  -23.0538   -9.8791   19.9571 C   0  0  0  0  0  0  0  0  0  0  0  0
  -23.8636   -9.8754   22.2334 C   0  0  0  0  0  0  0  0  0  0  0  0
  -35.6651  -11.7580   24.3168 C   0  0  0  0  0  0  0  0  0  0  0  0
  -34.0537  -13.8031   25.2942 C   0  0  0  0  0  0  0  0  0  0  0  0
  -31.4359  -17.3199   27.5262 C   0  0  0  0  0  0  0  0  0  0  0  0
  -22.3152   -8.7250   20.2180 C   0  0  0  0  0  0  0  0  0  0  0  0
  -23.1249   -8.7213   22.4943 C   0  0  0  0  0  0  0  0  0  0  0  0
  -31.2884  -18.6009   26.9961 C   0  0  0  0  0  0  0  0  0  0  0  0
  -19.3990   -7.9225   21.7296 C   0  0  0  0  0  0  0  0  0  0  0  0
  -18.0818   -7.8789   21.2728 C   0  0  0  0  0  0  0  0  0  0  0  0
  -29.2126  -17.3513   20.1836 C   0  0  0  0  0  0  0  0  0  0  0  0
  -29.0530  -18.0416   26.2824 C   0  0  0  0  0  0  0  0  0  0  0  0
  -29.6476  -19.6920   20.5945 C   0  0  0  0  0  0  0  0  0  0  0  0
  -18.6119   -5.9418   19.9298 C   0  0  0  0  0  0  0  0  0  0  0  0
  -23.8281  -10.4543   20.9648 C   0  0  0  0  0  0  0  0  0  0  0  0
  -29.9977  -17.0119   21.2854 C   0  0  0  0  0  0  0  0  0  0  0  0
  -24.1681  -12.9799   20.8489 C   0  0  0  0  0  0  0  0  0  0  0  0
  -34.2687  -11.6085   24.2910 C   0  0  0  0  0  0  0  0  0  0  0  0
  -30.3952  -16.3850   27.4286 C   0  0  0  0  0  0  0  0  0  0  0  0
  -33.4475  -12.6286   24.8129 C   0  0  0  0  0  0  0  0  0  0  0  0
  -29.1888  -16.7503   26.8144 C   0  0  0  0  0  0  0  0  0  0  0  0
  -30.6077  -18.0125   22.0418 C   0  0  0  0  0  0  0  0  0  0  0  0
  -22.3507   -8.1461   21.4865 C   0  0  0  0  0  0  0  0  0  0  0  0
  -30.0979  -18.9610   26.3715 C   0  0  0  0  0  0  0  0  0  0  0  0
  -20.3227   -6.9759   21.2864 C   0  0  0  0  0  0  0  0  0  0  0  0
  -30.4327  -19.3526   21.6964 C   0  0  0  0  0  0  0  0  0  0  0  0
  -17.6882   -6.8885   20.3729 C   0  0  0  0  0  0  0  0  0  0  0  0
  -29.0376  -18.6913   19.8381 C   0  0  0  0  0  0  0  0  0  0  0  0
  -19.9291   -5.9855   20.3866 C   0  0  0  0  0  0  0  0  0  0  0  0
  -24.5918  -11.6461   20.6958 C   0  0  0  0  0  0  0  0  0  0  0  0
  -25.2523  -13.7307   20.4654 C   0  0  0  0  0  0  0  0  0  0  0  0
  -31.0550  -23.1477   24.4229 C   0  0  0  0  0  0  0  0  0  0  0  0
  -30.1625  -15.6039   21.6219 C   0  0  0  0  0  0  0  0  0  0  0  0
  -22.9073  -13.4941   21.2979 C   0  0  0  0  0  0  0  0  0  0  0  0
  -30.7929  -21.8383   24.2847 C   0  0  0  0  0  0  0  0  0  0  0  0
  -30.7666  -14.6497   20.6639 C   0  0  0  0  0  0  0  0  0  0  0  0
  -30.0555  -13.5429   26.0464 C   0  0  0  0  0  0  0  0  0  0  0  0
  -27.1937  -13.5766   27.5733 C   0  0  0  0  0  0  0  0  0  0  0  0
  -24.6857  -15.4090   28.9871 C   0  0  0  0  0  0  0  0  0  0  0  0
  -33.6915  -10.3272   23.7430 C   0  0  0  0  0  0  0  0  0  0  0  0
  -30.5603  -15.0159   28.0292 C   0  0  0  0  0  0  0  0  0  0  0  0
  -28.0339  -15.7901   26.7016 C   0  0  0  0  0  0  0  0  0  0  0  0
  -32.2185  -10.4517   23.3671 C   0  0  0  0  0  0  0  0  0  0  0  0
  -29.5410  -12.4009   18.1545 C   0  0  0  0  0  0  0  0  0  0  0  0
  -31.4414  -11.0833   24.5124 C   0  0  0  0  0  0  0  0  0  0  0  0
  -28.1225  -12.0838   18.6270 C   0  0  0  0  0  0  0  0  0  0  0  0
  -30.4910  -12.5960   19.3317 C   0  0  0  0  0  0  0  0  0  0  0  0
  -28.6162  -13.3220   20.7830 C   0  0  0  0  0  0  0  0  0  0  0  0
  -31.9344  -12.5099   24.7856 C   0  0  1  0  0  0  0  0  0  0  0  0
  -29.6235  -13.9785   27.4180 C   0  0  1  0  0  0  0  0  0  0  0  0
  -27.6218  -13.1456   19.6222 C   0  0  2  0  0  0  0  0  0  0  0  0
  -33.8063  -17.4419   24.1272 C   0  0  0  0  0  0  0  0  0  0  0  0
  -22.4598  -15.1583   30.1185 C   0  0  0  0  0  0  0  0  0  0  0  0
  -25.8883  -13.0102   24.8742 C   0  0  0  0  0  0  0  0  0  0  0  0
  -23.6976  -13.7071   25.8660 C   0  0  0  0  0  0  0  0  0  0  0  0
  -24.9134  -11.7358   26.7925 C   0  0  0  0  0  0  0  0  0  0  0  0
  -25.6762  -16.6742   31.4725 C   0  0  0  0  0  0  0  0  0  0  0  0
  -31.4518  -17.6576   23.2247 C   0  0  0  0  0  0  0  0  0  0  0  0
  -31.1305  -20.8584   25.3769 C   0  0  0  0  0  0  0  0  0  1  0  0
  -30.1580  -21.3017   23.0310 C   0  0  0  0  0  0  0  0  0  0  0  0
  -32.9504  -17.7709   22.9143 C   0  0  0  0  0  0  0  0  0  0  0  0
  -25.8052  -14.0604   27.2314 C   0  0  1  0  0  0  0  0  0  0  0  0
  -23.9635  -15.2719   30.3153 C   0  0  2  0  0  0  0  0  0  0  0  0
  -25.0984  -13.1461   26.1913 C   0  0  0  0  0  0  0  0  0  0  0  0
  -25.8472  -11.5519   20.2496 N   0  0  0  0  0  0  0  0  0  0  0  0
  -29.7990  -15.0962   22.7670 N   0  0  0  0  0  0  0  0  0  0  0  0
  -26.2216  -12.8359   20.1190 N   0  0  0  0  0  0  0  0  0  0  0  0
  -29.9687  -13.5831   20.2745 N   0  0  0  0  0  0  0  0  0  0  0  0
  -28.2463  -14.4613   27.2987 N   0  0  0  0  0  0  0  0  0  0  0  0
  -25.4616  -15.0625   20.3939 N   0  0  0  0  0  0  0  0  0  0  0  0
  -21.9026  -12.5836   21.6530 N   0  0  0  0  0  0  0  0  0  0  0  0
  -31.3235  -12.9954   26.0034 N   0  0  0  0  0  0  0  0  0  0  0  0
  -25.0930  -14.1857   28.4985 N   0  0  0  0  0  0  0  0  0  0  0  0
  -24.2365  -16.4560   31.1780 N   0  3  0  0  0  0  0  0  0  0  0  0
  -22.6728  -14.7245   21.3660 O   0  0  0  0  0  0  0  0  0  0  0  0
  -31.9121  -14.9054   20.3164 O   0  0  0  0  0  0  0  0  0  0  0  0
  -29.2942  -13.6911   25.0977 O   0  0  0  0  0  0  0  0  0  0  0  0
  -27.3385  -12.4579   28.0725 O   0  0  0  0  0  0  0  0  0  0  0  0
  -24.8668  -16.4926   28.4361 O   0  0  0  0  0  0  0  0  0  0  0  0
  -21.6298   -7.0201   21.7415 O   0  0  0  0  0  0  0  0  0  0  0  0
  -29.9515  -20.2105   25.8527 O   0  0  0  0  0  0  0  0  0  1  0  0
  -31.0239  -20.3501   22.4272 O   0  0  0  0  0  0  0  0  0  0  0  0
  -16.4229   -6.8457   19.9355 F   0  0  0  0  0  0  0  0  0  0  0  0
  -28.2834  -19.0173   18.7801 F   0  0  0  0  0  0  0  0  0  0  0  0
  -20.8116   -5.0726   19.9582 F   0  0  0  0  0  0  0  0  0  0  0  0
  1  2  1  0  0  0  0
  1  5  2  0  0  0  0
  2  6  2  0  0  0  0
  3  8  2  0  0  0  0
  3 17  1  0  0  0  0
  4  9  1  0  0  0  0
  4 17  2  0  0  0  0
  5 20  1  0  0  0  0
  6 22  1  0  0  0  0
  7 10  2  0  0  0  0
  7 21  1  0  0  0  0
  8 25  1  0  0  0  0
  9 25  2  0  0  0  0
 10 26  1  0  0  0  0
 11 12  2  0  0  0  0
 11 27  1  0  0  0  0
 12 29  1  0  0  0  0
 13 18  2  0  0  0  0
 13 30  1  0  0  0  0
 14 23  1  0  0  0  0
 14 26  2  0  0  0  0
 15 28  1  0  0  0  0
 15 30  2  0  0  0  0
 16 29  2  0  0  0  0
 16 31  1  0  0  0  0
 17 32  1  0  0  0  0
 18 24  1  0  0  0  0
 18 35  1  0  0  0  0
 19 32  1  0  0  0  0
 19 33  2  0  0  0  0
 19 36  1  0  0  0  0
 20 22  2  0  0  0  0
 20 42  1  0  0  0  0
 21 23  2  0  0  0  0
 21 43  1  0  0  0  0
 22 51  1  0  0  0  0
 23 44  1  0  0  0  0
 24 28  2  0  0  0  0
 24 60  1  0  0  0  0
 25 82  1  0  0  0  0
 26 83  1  0  0  0  0
 27 31  2  0  0  0  0
 27 82  1  0  0  0  0
 28 84  1  0  0  0  0
 29 85  1  0  0  0  0
 30 86  1  0  0  0  0
 31 87  1  0  0  0  0
 32 67  2  0  0  0  0
 33 69  1  0  0  0  0
 33 72  1  0  0  0  0
 34 37  2  0  0  0  0
 35 38  1  0  0  0  0
 35 68  2  0  0  0  0
 36 73  1  0  0  0  0
 36 77  2  0  0  0  0
 37 61  1  0  0  0  0
 37 62  1  0  0  0  0
 38 70  1  0  0  0  0
 38 78  2  0  0  0  0
 39 52  1  0  0  0  0
 39 74  1  0  0  0  0
 39 79  2  0  0  0  0
 40 64  1  0  0  0  0
 40 71  1  0  0  0  0
 40 80  2  0  0  0  0
 41 65  1  0  0  0  0
 41 75  1  0  0  0  0
 41 81  2  0  0  0  0
 42 45  1  0  0  0  0
 43 52  1  0  0  0  0
 44 71  1  0  0  0  0
 45 47  1  0  0  0  0
 46 48  1  0  0  0  0
 46 49  1  0  0  0  0
 47 51  1  0  0  0  0
 48 53  1  0  0  0  0
 49 70  1  0  0  0  0
 50 53  1  0  0  0  0
 50 70  1  0  0  0  0
 51 74  1  0  0  0  0
 52 71  1  0  0  0  0
 53 69  1  0  0  0  0
 54 63  1  0  0  0  0
 55 65  1  0  0  0  0
 56 66  1  0  0  0  0
 57 66  1  0  0  0  0
 58 66  1  0  0  0  0
 59 76  1  0  0  0  0
 60 63  1  0  0  0  0
 61 83  1  0  0  0  0
 62 84  1  0  0  0  0
 64 66  1  0  0  0  0
 64 75  1  0  0  0  0
 65 76  1  0  0  0  0
 67 69  1  0  0  0  0
M  CHG  1  76   1
M  ISO  4  35 100  38 100  61 101  83 101
M  END
> <Batch ID>
0119

> <Smiles>
C=C(COc1cc(F)cc([100C:0](=N)[100C:0](=O)N2CCCC(n3nc(-c4ccc(Oc5ccc(F)cc5F)cc4)c(C(N)=O)c3N)C2)c1CCC)[101CH2:1][101O:1]c1ccc2c(c1)CN(C(=O)C(NC(=O)C(C)NC)C(C)(C)C)C(C(=O)NC1CCCc3ccccc31)C2

> <Shape>
0.178

> <Color>
0.181

> <Negative vol penalty>
0.000

$$$$

  -OEChem-04052301513D

 85 93  0     1  0  0  0  0  0999 V2000
  -30.2256  -24.4477   14.3164 C   0  0  0  0  0  0  0  0  0  0  0  0
  -29.7335  -23.5482   15.2567 C   0  0  0  0  0  0  0  0  0  0  0  0
  -23.8960  -12.2487   19.2837 C   0  0  0  0  0  0  0  0  0  0  0  0
  -25.2932  -11.9174   21.2267 C   0  0  0  0  0  0  0  0  0  0  0  0
  -29.1461  -19.9953   25.5481 C   0  0  0  0  0  0  0  0  0  0  0  0
  -30.5127  -25.7594   14.6918 C   0  0  0  0  0  0  0  0  0  0  0  0
  -29.5294  -23.9597   16.5733 C   0  0  0  0  0  0  0  0  0  0  0  0
  -25.2090  -22.8194   22.1725 C   0  0  0  0  0  0  0  0  0  0  0  0
  -29.5618  -19.1043   24.5588 C   0  0  0  0  0  0  0  0  0  0  0  0
  -23.9478  -10.8814   19.0132 C   0  0  0  0  0  0  0  0  0  0  0  0
  -25.3450  -10.5500   20.9562 C   0  0  0  0  0  0  0  0  0  0  0  0
  -25.2648  -22.5023   23.5290 C   0  0  0  0  0  0  0  0  0  0  0  0
  -25.5486   -6.9201   20.9823 C   0  0  0  0  0  0  0  0  0  0  0  0
  -25.3673   -6.0399   22.0490 C   0  0  0  0  0  0  0  0  0  0  0  0
  -30.5006  -20.9402   23.2998 C   0  0  0  0  0  0  0  0  0  0  0  0
  -25.7212  -24.8142   24.0446 C   0  0  0  0  0  0  0  0  0  0  0  0
  -23.1721   -6.9692   22.4427 C   0  0  0  0  0  0  0  0  0  0  0  0
  -24.5687  -12.7668   20.3904 C   0  0  0  0  0  0  0  0  0  0  0  0
  -29.4075  -21.3588   25.4133 C   0  0  0  0  0  0  0  0  0  0  0  0
  -30.0848  -21.8313   24.2891 C   0  0  0  0  0  0  0  0  0  0  0  0
  -23.5703  -14.8537   21.4654 C   0  0  0  0  0  0  0  0  0  0  0  0
  -30.3029  -26.1898   16.0114 C   0  0  0  0  0  0  0  0  0  0  0  0
  -25.4200  -24.1366   21.7402 C   0  0  0  0  0  0  0  0  0  0  0  0
  -29.8153  -25.2780   16.9670 C   0  0  0  0  0  0  0  0  0  0  0  0
  -25.6650  -25.1459   22.6823 C   0  0  0  0  0  0  0  0  0  0  0  0
  -30.2391  -19.5767   23.4346 C   0  0  0  0  0  0  0  0  0  0  0  0
  -24.6723  -10.0320   19.8494 C   0  0  0  0  0  0  0  0  0  0  0  0
  -25.5238  -23.4992   24.4650 C   0  0  0  0  0  0  0  0  0  0  0  0
  -24.5417   -7.8249   20.6458 C   0  0  0  0  0  0  0  0  0  0  0  0
  -24.1791   -6.0644   22.7792 C   0  0  0  0  0  0  0  0  0  0  0  0
  -23.3535   -7.8495   21.3760 C   0  0  0  0  0  0  0  0  0  0  0  0
  -24.5160  -14.1793   20.6700 C   0  0  0  0  0  0  0  0  0  0  0  0
  -23.9555  -16.1711   21.4141 C   0  0  0  0  0  0  0  0  0  0  0  0
  -31.5963  -23.7355   23.9664 C   0  0  0  0  0  0  0  0  0  0  0  0
  -30.3736  -23.2494   24.1150 C   0  0  0  0  0  0  0  0  0  0  0  0
  -28.9456  -22.2785   26.4945 C   0  0  0  0  0  0  0  0  0  0  0  0
  -22.4443  -14.3357   22.1861 C   0  0  0  0  0  0  0  0  0  0  0  0
  -27.5618  -25.5713   19.8806 C   0  0  0  0  0  0  0  0  0  0  0  0
  -25.6332  -28.1442   20.3079 C   0  0  0  0  0  0  0  0  0  0  0  0
  -23.2927  -29.7242   22.2244 C   0  0  0  0  0  0  0  0  0  0  0  0
  -29.2141  -18.8446   20.3891 C   0  0  0  0  0  0  0  0  0  0  0  0
  -30.6726  -27.6045   16.3811 C   0  0  0  0  0  0  0  0  0  0  0  0
  -25.3299  -24.4672   20.2756 C   0  0  0  0  0  0  0  0  0  0  0  0
  -25.8784  -26.5792   22.2715 C   0  0  0  0  0  0  0  0  0  0  0  0
  -30.0745  -28.0633   17.7085 C   0  0  0  0  0  0  0  0  0  0  0  0
  -26.1854  -19.3125   18.5768 C   0  0  0  0  0  0  0  0  0  0  0  0
  -30.2714  -26.9957   18.7801 C   0  0  0  0  0  0  0  0  0  0  0  0
  -25.3288  -18.1108   18.9795 C   0  0  0  0  0  0  0  0  0  0  0  0
  -27.6618  -18.9397   18.4610 C   0  0  0  0  0  0  0  0  0  0  0  0
  -27.3741  -17.0838   20.0569 C   0  0  0  0  0  0  0  0  0  0  0  0
  -29.5571  -25.6933   18.3992 C   0  0  1  0  0  0  0  0  0  0  0  0
  -26.0700  -25.7490   19.9058 C   0  0  1  0  0  0  0  0  0  0  0  0
  -25.8850  -17.4232   20.2409 C   0  0  2  0  0  0  0  0  0  0  0  0
  -21.9340  -31.8311   22.3360 C   0  0  0  0  0  0  0  0  0  0  0  0
  -28.1012  -29.6842   21.2283 C   0  0  0  0  0  0  0  0  0  0  0  0
  -26.5738  -31.4116   22.2038 C   0  0  0  0  0  0  0  0  0  0  0  0
  -26.5564  -30.9782   19.7472 C   0  0  0  0  0  0  0  0  0  0  0  0
  -20.7441  -28.2252   22.0945 C   0  0  0  0  0  0  0  0  0  0  0  0
  -30.6827  -18.6228   22.3774 C   0  0  0  0  0  0  0  0  0  0  0  0
  -27.6992  -21.9092   27.2846 C   0  0  0  0  0  0  0  0  0  0  0  0
  -26.9357  -23.1404   27.7682 C   0  0  0  0  0  0  0  0  0  0  0  0
  -26.4397  -23.9870   26.6049 C   0  0  0  0  0  0  0  0  0  1  0  0
  -25.5549  -29.2662   21.3150 C   0  0  1  0  0  0  0  0  0  0  0  0
  -21.9752  -30.3862   21.8633 C   0  0  2  0  0  0  0  0  0  0  0  0
  -26.6945  -30.3078   21.1315 C   0  0  0  0  0  0  0  0  0  0  0  0
  -25.4329  -15.0004   20.1514 N   0  0  0  0  0  0  0  0  0  0  0  0
  -25.0651  -16.2044   20.6217 N   0  0  0  0  0  0  0  0  0  0  0  0
  -25.7869  -26.8511   20.8275 N   0  0  0  0  0  0  0  0  0  0  0  0
  -28.1274  -18.2933   19.6904 N   0  0  0  0  0  0  0  0  0  0  0  0
  -23.4499  -17.2926   21.9698 N   0  0  0  0  0  0  0  0  0  0  0  0
  -22.1923  -12.9581   22.1315 N   0  0  0  0  0  0  0  0  0  0  0  0
  -28.1355  -25.8059   18.6455 N   0  0  0  0  0  0  0  0  0  0  0  0
  -24.2116  -29.8239   21.2012 N   0  0  0  0  0  0  0  0  0  0  0  0
  -29.5872  -18.1737   21.5474 N   0  0  0  0  0  0  0  0  0  0  0  0
  -20.8386  -29.6540   22.4903 N   0  3  0  0  0  0  0  0  0  0  0  0
  -29.5804  -23.3065   26.7196 O   0  0  0  0  0  0  0  0  0  0  0  0
  -21.6746  -15.0749   22.8454 O   0  0  0  0  0  0  0  0  0  0  0  0
  -28.1490  -25.2468   20.9060 O   0  0  0  0  0  0  0  0  0  0  0  0
  -25.5534  -28.4049   19.1048 O   0  0  0  0  0  0  0  0  0  0  0  0
  -23.4884  -29.1769   23.3073 O   0  0  0  0  0  0  0  0  0  0  0  0
  -29.8045  -19.8624   20.0118 O   0  0  0  0  0  0  0  0  0  0  0  0
  -24.7229   -8.6976   19.5859 O   0  0  0  0  0  0  0  0  0  0  0  0
  -25.5795  -23.1922   25.7896 O   0  0  0  0  0  0  0  0  0  1  0  0
  -24.0045   -5.2181   23.8027 F   0  0  0  0  0  0  0  0  0  0  0  0
  -22.3821   -8.7157   21.0567 F   0  0  0  0  0  0  0  0  0  0  0  0
  1  2  1  0  0  0  0
  1  6  2  0  0  0  0
  2  7  2  0  0  0  0
  3 10  2  0  0  0  0
  3 18  1  0  0  0  0
  4 11  1  0  0  0  0
  4 18  2  0  0  0  0
  5  9  2  0  0  0  0
  5 19  1  0  0  0  0
  6 22  1  0  0  0  0
  7 24  1  0  0  0  0
  8 12  2  0  0  0  0
  8 23  1  0  0  0  0
  9 26  1  0  0  0  0
 10 27  1  0  0  0  0
 11 27  2  0  0  0  0
 12 28  1  0  0  0  0
 13 14  2  0  0  0  0
 13 29  1  0  0  0  0
 14 30  1  0  0  0  0
 15 20  1  0  0  0  0
 15 26  2  0  0  0  0
 16 25  1  0  0  0  0
 16 28  2  0  0  0  0
 17 30  2  0  0  0  0
 17 31  1  0  0  0  0
 18 32  1  0  0  0  0
 19 20  2  0  0  0  0
 19 36  1  0  0  0  0
 20 35  1  0  0  0  0
 21 32  1  0  0  0  0
 21 33  2  0  0  0  0
 21 37  1  0  0  0  0
 22 24  2  0  0  0  0
 22 42  1  0  0  0  0
 23 25  2  0  0  0  0
 23 43  1  0  0  0  0
 24 51  1  0  0  0  0
 25 44  1  0  0  0  0
 26 59  1  0  0  0  0
 27 82  1  0  0  0  0
 28 83  1  0  0  0  0
 29 31  2  0  0  0  0
 29 82  1  0  0  0  0
 30 84  1  0  0  0  0
 31 85  1  0  0  0  0
 32 66  2  0  0  0  0
 33 67  1  0  0  0  0
 33 70  1  0  0  0  0
 34 35  2  0  0  0  0
 36 60  1  0  0  0  0
 36 76  2  0  0  0  0
 37 71  1  0  0  0  0
 37 77  2  0  0  0  0
 38 52  1  0  0  0  0
 38 72  1  0  0  0  0
 38 78  2  0  0  0  0
 39 63  1  0  0  0  0
 39 68  1  0  0  0  0
 39 79  2  0  0  0  0
 40 64  1  0  0  0  0
 40 73  1  0  0  0  0
 40 80  2  0  0  0  0
 41 69  1  0  0  0  0
 41 74  1  0  0  0  0
 41 81  2  0  0  0  0
 42 45  1  0  0  0  0
 43 52  1  0  0  0  0
 44 68  1  0  0  0  0
 45 47  1  0  0  0  0
 46 48  1  0  0  0  0
 46 49  1  0  0  0  0
 47 51  1  0  0  0  0
 48 53  1  0  0  0  0
 49 69  1  0  0  0  0
 50 53  1  0  0  0  0
 50 69  1  0  0  0  0
 51 72  1  0  0  0  0
 52 68  1  0  0  0  0
 53 67  1  0  0  0  0
 54 64  1  0  0  0  0
 55 65  1  0  0  0  0
 56 65  1  0  0  0  0
 57 65  1  0  0  0  0
 58 75  1  0  0  0  0
 59 74  1  0  0  0  0
 60 61  1  0  0  0  0
 61 62  1  0  0  0  0
 62 83  1  0  0  0  0
 63 65  1  0  0  0  0
 63 73  1  0  0  0  0
 64 75  1  0  0  0  0
 66 67  1  0  0  0  0
M  CHG  1  75   1
M  ISO  4  41 100  62 101  74 100  83 101
M  END
> <Batch ID>
0119

> <Smiles>
C=Cc1cc(C[100NH:0][100C:0](=O)N2CCCC(n3nc(-c4ccc(Oc5ccc(F)cc5F)cc4)c(C(N)=O)c3N)C2)ccc1C(=O)CC[101CH2:1][101O:1]c1ccc2c(c1)CN(C(=O)C(NC(=O)C(C)NC)C(C)(C)C)C(C(=O)NC1CCCc3ccccc31)C2

> <Shape>
0.207

> <Color>
0.080

> <Negative vol penalty>
0.000

$$$$

  -OEChem-04052301513D

 85 93  0     1  0  0  0  0  0999 V2000
  -18.9054  -33.0629   21.1816 C   0  0  0  0  0  0  0  0  0  0  0  0
  -20.1950  -32.7528   20.7618 C   0  0  0  0  0  0  0  0  0  0  0  0
  -24.2030   -9.9113   22.1059 C   0  0  0  0  0  0  0  0  0  0  0  0
  -23.8017   -9.5485   19.7513 C   0  0  0  0  0  0  0  0  0  0  0  0
  -18.3594  -32.4154   22.2890 C   0  0  0  0  0  0  0  0  0  0  0  0
  -20.9398  -31.7956   21.4501 C   0  0  0  0  0  0  0  0  0  0  0  0
  -24.9651  -27.8465   19.0611 C   0  0  0  0  0  0  0  0  0  0  0  0
  -23.1376   -9.0668   22.4177 C   0  0  0  0  0  0  0  0  0  0  0  0
  -22.7363   -8.7039   20.0631 C   0  0  0  0  0  0  0  0  0  0  0  0
  -26.3563  -27.8640   18.9718 C   0  0  0  0  0  0  0  0  0  0  0  0
  -20.7511   -6.7215   23.8387 C   0  0  0  0  0  0  0  0  0  0  0  0
  -20.9449   -5.7786   24.8481 C   0  0  0  0  0  0  0  0  0  0  0  0
  -29.7358  -21.4711   21.4941 C   0  0  0  0  0  0  0  0  0  0  0  0
  -26.4953  -26.5170   20.9682 C   0  0  0  0  0  0  0  0  0  0  0  0
  -30.9146  -22.3427   19.1206 C   0  0  0  0  0  0  0  0  0  0  0  0
  -22.7526   -4.7952   23.5822 C   0  0  0  0  0  0  0  0  0  0  0  0
  -24.5350  -10.1523   20.7727 C   0  0  0  0  0  0  0  0  0  0  0  0
  -30.0875  -20.5474   20.5099 C   0  0  0  0  0  0  0  0  0  0  0  0
  -26.9844  -10.6634   20.2756 C   0  0  0  0  0  0  0  0  0  0  0  0
  -19.0942  -31.4428   22.9853 C   0  0  0  0  0  0  0  0  0  0  0  0
  -24.3277  -27.1722   20.1125 C   0  0  0  0  0  0  0  0  0  0  0  0
  -20.4035  -31.1354   22.5687 C   0  0  0  0  0  0  0  0  0  0  0  0
  -25.0958  -26.4903   21.0671 C   0  0  0  0  0  0  0  0  0  0  0  0
  -29.9735  -22.8306   21.2916 C   0  0  0  0  0  0  0  0  0  0  0  0
  -30.6769  -20.9832   19.3232 C   0  0  0  0  0  0  0  0  0  0  0  0
  -30.5629  -23.2664   20.1048 C   0  0  0  0  0  0  0  0  0  0  0  0
  -22.4043   -8.4630   21.3963 C   0  0  0  0  0  0  0  0  0  0  0  0
  -27.1217  -27.2016   19.9271 C   0  0  0  0  0  0  0  0  0  0  0  0
  -21.5579   -6.7013   22.7010 C   0  0  0  0  0  0  0  0  0  0  0  0
  -21.9457   -4.8154   24.7199 C   0  0  0  0  0  0  0  0  0  0  0  0
  -22.5587   -5.7382   22.5728 C   0  0  0  0  0  0  0  0  0  0  0  0
  -25.6351  -11.0251   20.4500 C   0  0  0  0  0  0  0  0  0  0  0  0
  -27.6216  -11.8446   19.9841 C   0  0  0  0  0  0  0  0  0  0  0  0
  -29.8266  -19.1341   20.7503 C   0  0  0  0  0  0  0  0  0  0  0  0
  -28.6105  -18.5888   20.9558 C   0  0  0  0  0  0  0  0  0  0  0  0
  -30.2194  -25.1497   18.8558 C   0  0  0  0  0  0  0  0  0  0  0  0
  -27.6061   -9.3748   20.3686 C   0  0  0  0  0  0  0  0  0  0  0  0
  -28.5084  -17.1321   21.1763 C   0  0  0  0  0  0  0  0  0  0  0  0
  -22.4157  -28.0371   22.4999 C   0  0  0  0  0  0  0  0  0  0  0  0
  -22.2407  -24.8372   23.0022 C   0  0  0  0  0  0  0  0  0  0  0  0
  -23.6691  -21.7618   22.6173 C   0  0  0  0  0  0  0  0  0  0  0  0
  -18.4793  -30.8037   24.2052 C   0  0  0  0  0  0  0  0  0  0  0  0
  -22.8254  -27.1403   20.1796 C   0  0  0  0  0  0  0  0  0  0  0  0
  -24.4595  -25.7346   22.2040 C   0  0  0  0  0  0  0  0  0  0  0  0
  -19.1953  -29.5321   24.6530 C   0  0  0  0  0  0  0  0  0  0  0  0
  -25.7818  -16.3984   18.8399 C   0  0  0  0  0  0  0  0  0  0  0  0
  -20.7051  -29.7487   24.6739 C   0  0  0  0  0  0  0  0  0  0  0  0
  -25.5846  -14.9038   19.0788 C   0  0  0  0  0  0  0  0  0  0  0  0
  -26.1858  -17.1331   20.1171 C   0  0  0  0  0  0  0  0  0  0  0  0
  -27.1888  -15.0565   21.0238 C   0  0  0  0  0  0  0  0  0  0  0  0
  -21.2336  -30.0850   23.2742 C   0  0  1  0  0  0  0  0  0  0  0  0
  -22.2959  -26.8541   21.5813 C   0  0  1  0  0  0  0  0  0  0  0  0
  -26.8277  -14.2899   19.7419 C   0  0  1  0  0  0  0  0  0  0  0  0
  -31.0661  -20.0217   18.2466 C   0  0  0  0  0  0  0  0  0  0  0  0
  -30.7879  -24.2839   23.1654 C   0  0  0  0  0  0  0  0  0  0  0  0
  -23.3087  -19.3398   23.1663 C   0  0  0  0  0  0  0  0  0  0  0  0
  -23.0647  -25.3720   25.8909 C   0  0  0  0  0  0  0  0  0  0  0  0
  -23.6056  -22.9376   26.1140 C   0  0  0  0  0  0  0  0  0  0  0  0
  -21.2678  -23.6539   25.6196 C   0  0  0  0  0  0  0  0  0  0  0  0
  -23.6080  -21.0028   19.7574 C   0  0  0  0  0  0  0  0  0  0  0  0
  -29.5861  -23.8008   22.3593 C   0  0  0  0  0  0  0  0  0  0  0  0
  -30.3957  -26.6077   18.5256 C   0  0  0  0  0  0  0  0  0  0  0  0
  -29.0484  -27.3099   18.5371 C   0  0  0  0  0  0  0  0  0  1  0  0
  -23.0284  -23.8379   23.8146 C   0  0  1  0  0  0  0  0  0  0  0  0
  -23.0990  -20.4394   22.1369 C   0  0  2  0  0  0  0  0  0  0  0  0
  -22.7539  -23.9661   25.3396 C   0  0  0  0  0  0  0  0  0  0  0  0
  -25.4264  -12.3338   20.2834 N   0  0  0  0  0  0  0  0  0  0  0  0
  -30.8088  -24.6318   19.8836 N   0  0  0  0  0  0  0  0  0  0  0  0
  -26.6531  -12.8048   20.0013 N   0  0  0  0  0  0  0  0  0  0  0  0
  -27.3407  -16.4925   20.7642 N   0  0  0  0  0  0  0  0  0  0  0  0
  -22.9875  -25.7382   22.2299 N   0  0  0  0  0  0  0  0  0  0  0  0
  -28.9103  -12.1454   19.7173 N   0  0  0  0  0  0  0  0  0  0  0  0
  -26.8047   -8.2670   20.6767 N   0  0  0  0  0  0  0  0  0  0  0  0
  -21.3265  -28.8869   22.4677 N   0  0  0  0  0  0  0  0  0  0  0  0
  -22.7173  -22.5250   23.2597 N   0  0  0  0  0  0  0  0  0  0  0  0
  -23.7553  -20.0238   20.8651 N   0  3  0  0  0  0  0  0  0  0  0  0
  -28.8385   -9.2131   20.2002 O   0  0  0  0  0  0  0  0  0  0  0  0
  -29.4629  -16.5706   21.7171 O   0  0  0  0  0  0  0  0  0  0  0  0
  -23.4212  -28.1684   23.1880 O   0  0  0  0  0  0  0  0  0  0  0  0
  -21.0082  -24.8145   23.0455 O   0  0  0  0  0  0  0  0  0  0  0  0
  -24.8424  -22.0837   22.4435 O   0  0  0  0  0  0  0  0  0  0  0  0
  -21.3647   -7.6386   21.7001 O   0  0  0  0  0  0  0  0  0  0  0  0
  -28.4798  -27.2176   19.8427 O   0  0  0  0  0  0  0  0  0  1  0  0
  -22.1327   -3.9109   25.6900 F   0  0  0  0  0  0  0  0  0  0  0  0
  -23.3378   -5.7144   21.4828 F   0  0  0  0  0  0  0  0  0  0  0  0
  1  2  1  0  0  0  0
  1  5  2  0  0  0  0
  2  6  2  0  0  0  0
  3  8  2  0  0  0  0
  3 17  1  0  0  0  0
  4  9  1  0  0  0  0
  4 17  2  0  0  0  0
  5 20  1  0  0  0  0
  6 22  1  0  0  0  0
  7 10  2  0  0  0  0
  7 21  1  0  0  0  0
  8 27  1  0  0  0  0
  9 27  2  0  0  0  0
 10 28  1  0  0  0  0
 11 12  2  0  0  0  0
 11 29  1  0  0  0  0
 12 30  1  0  0  0  0
 13 18  2  0  0  0  0
 13 24  1  0  0  0  0
 14 23  1  0  0  0  0
 14 28  2  0  0  0  0
 15 25  2  0  0  0  0
 15 26  1  0  0  0  0
 16 30  2  0  0  0  0
 16 31  1  0  0  0  0
 17 32  1  0  0  0  0
 18 25  1  0  0  0  0
 18 34  1  0  0  0  0
 19 32  1  0  0  0  0
 19 33  2  0  0  0  0
 19 37  1  0  0  0  0
 20 22  2  0  0  0  0
 20 42  1  0  0  0  0
 21 23  2  0  0  0  0
 21 43  1  0  0  0  0
 22 51  1  0  0  0  0
 23 44  1  0  0  0  0
 24 26  2  0  0  0  0
 24 61  1  0  0  0  0
 25 54  1  0  0  0  0
 26 68  1  0  0  0  0
 27 82  1  0  0  0  0
 28 83  1  0  0  0  0
 29 31  2  0  0  0  0
 29 82  1  0  0  0  0
 30 84  1  0  0  0  0
 31 85  1  0  0  0  0
 32 67  2  0  0  0  0
 33 69  1  0  0  0  0
 33 72  1  0  0  0  0
 34 35  2  0  0  0  0
 35 38  1  0  0  0  0
 36 62  1  0  0  0  0
 36 68  2  0  0  0  0
 37 73  1  0  0  0  0
 37 77  2  0  0  0  0
 38 70  1  0  0  0  0
 38 78  2  0  0  0  0
 39 52  1  0  0  0  0
 39 74  1  0  0  0  0
 39 79  2  0  0  0  0
 40 64  1  0  0  0  0
 40 71  1  0  0  0  0
 40 80  2  0  0  0  0
 41 65  1  0  0  0  0
 41 75  1  0  0  0  0
 41 81  2  0  0  0  0
 42 45  1  0  0  0  0
 43 52  1  0  0  0  0
 44 71  1  0  0  0  0
 45 47  1  0  0  0  0
 46 48  1  0  0  0  0
 46 49  1  0  0  0  0
 47 51  1  0  0  0  0
 48 53  1  0  0  0  0
 49 70  1  0  0  0  0
 50 53  1  0  0  0  0
 50 70  1  0  0  0  0
 51 74  1  0  0  0  0
 52 71  1  0  0  0  0
 53 69  1  0  0  0  0
 55 61  1  0  0  0  0
 56 65  1  0  0  0  0
 57 66  1  0  0  0  0
 58 66  1  0  0  0  0
 59 66  1  0  0  0  0
 60 76  1  0  0  0  0
 62 63  1  0  0  0  0
 63 83  1  0  0  0  0
 64 66  1  0  0  0  0
 64 75  1  0  0  0  0
 65 76  1  0  0  0  0
 67 69  1  0  0  0  0
M  CHG  1  76   1
M  ISO  4  35 100  38 100  63 101  83 101
M  END
> <Batch ID>
0119

> <Smiles>
CCc1cc(C=[100CH:0][100C:0](=O)N2CCCC(n3nc(-c4ccc(Oc5ccc(F)cc5F)cc4)c(C(N)=O)c3N)C2)c(C)cc1NC=C[101CH2:1][101O:1]c1ccc2c(c1)CN(C(=O)C(NC(=O)C(C)NC)C(C)(C)C)C(C(=O)NC1CCCc3ccccc31)C2

> <Shape>
0.250

> <Color>
0.115

> <Negative vol penalty>
0.000

$$$$

  -OEChem-04052301513D

 86 94  0     1  0  0  0  0  0999 V2000
  -18.4261  -26.0775   24.2947 C   0  0  0  0  0  0  0  0  0  0  0  0
  -19.5337  -26.3797   23.5091 C   0  0  0  0  0  0  0  0  0  0  0  0
  -26.2479  -11.9462   21.6096 C   0  0  0  0  0  0  0  0  0  0  0  0
  -25.9048  -12.3755   19.2570 C   0  0  0  0  0  0  0  0  0  0  0  0
  -17.4345  -27.0363   24.4979 C   0  0  0  0  0  0  0  0  0  0  0  0
  -19.6499  -27.6406   22.9253 C   0  0  0  0  0  0  0  0  0  0  0  0
  -24.2998  -29.5863   23.4127 C   0  0  0  0  0  0  0  0  0  0  0  0
  -25.0181  -11.2908   21.6694 C   0  0  0  0  0  0  0  0  0  0  0  0
  -24.6749  -11.7200   19.3167 C   0  0  0  0  0  0  0  0  0  0  0  0
  -25.2849  -29.1048   22.5516 C   0  0  0  0  0  0  0  0  0  0  0  0
  -21.5333  -12.4081   20.3597 C   0  0  0  0  0  0  0  0  0  0  0  0
  -20.4446  -13.0148   19.7336 C   0  0  0  0  0  0  0  0  0  0  0  0
  -27.6008  -21.4864   14.9512 C   0  0  0  0  0  0  0  0  0  0  0  0
  -28.3032  -19.3361   15.7992 C   0  0  0  0  0  0  0  0  0  0  0  0
  -28.4019  -21.2864   17.2217 C   0  0  0  0  0  0  0  0  0  0  0  0
  -25.0150  -31.0573   21.1608 C   0  0  0  0  0  0  0  0  0  0  0  0
  -20.1909  -11.0839   18.3038 C   0  0  0  0  0  0  0  0  0  0  0  0
  -26.6912  -12.4886   20.4034 C   0  0  0  0  0  0  0  0  0  0  0  0
  -27.8021  -20.1195   14.7597 C   0  0  0  0  0  0  0  0  0  0  0  0
  -27.9008  -22.0699   16.1821 C   0  0  0  0  0  0  0  0  0  0  0  0
  -29.2159  -12.5960   20.0538 C   0  0  0  0  0  0  0  0  0  0  0  0
  -17.5433  -28.3129   23.9242 C   0  0  0  0  0  0  0  0  0  0  0  0
  -23.6561  -30.8037   23.1480 C   0  0  0  0  0  0  0  0  0  0  0  0
  -18.6581  -28.6170   23.1199 C   0  0  0  0  0  0  0  0  0  0  0  0
  -24.0239  -31.5532   22.0215 C   0  0  0  0  0  0  0  0  0  0  0  0
  -28.6031  -19.9195   17.0303 C   0  0  0  0  0  0  0  0  0  0  0  0
  -24.2316  -11.1777   20.5230 C   0  0  0  0  0  0  0  0  0  0  0  0
  -25.6407  -29.8389   21.4240 C   0  0  0  0  0  0  0  0  0  0  0  0
  -21.9510  -11.1393   19.9578 C   0  0  0  0  0  0  0  0  0  0  0  0
  -19.7733  -12.3527   18.7056 C   0  0  0  0  0  0  0  0  0  0  0  0
  -21.2797  -10.4772   18.9299 C   0  0  0  0  0  0  0  0  0  0  0  0
  -27.9613  -13.1662   20.3411 C   0  0  0  0  0  0  0  0  0  0  0  0
  -30.0946  -13.6497   20.1171 C   0  0  0  0  0  0  0  0  0  0  0  0
  -27.0648  -18.2627   13.3371 C   0  0  0  0  0  0  0  0  0  0  0  0
  -27.4908  -19.5107   13.4759 C   0  0  0  0  0  0  0  0  0  0  0  0
  -27.6899  -23.5127   16.3841 C   0  0  0  0  0  0  0  0  0  0  0  0
  -28.2708  -24.2517   17.3421 C   0  0  0  0  0  0  0  0  0  0  0  0
  -29.5566  -11.2354   19.7564 C   0  0  0  0  0  0  0  0  0  0  0  0
  -20.6573  -31.6719   22.5507 C   0  0  0  0  0  0  0  0  0  0  0  0
  -27.2465  -27.5632   19.1030 C   0  0  0  0  0  0  0  0  0  0  0  0
  -21.9041  -34.6626   22.7045 C   0  0  0  0  0  0  0  0  0  0  0  0
  -24.6459  -36.6761   22.4302 C   0  0  0  0  0  0  0  0  0  0  0  0
  -29.4607  -19.5441   19.3691 C   0  0  0  0  0  0  0  0  0  0  0  0
  -16.4229  -29.3007   24.1334 C   0  0  0  0  0  0  0  0  0  0  0  0
  -22.6143  -31.3222   24.1010 C   0  0  0  0  0  0  0  0  0  0  0  0
  -23.3774  -32.8758   21.7034 C   0  0  0  0  0  0  0  0  0  0  0  0
  -16.8048  -30.7373   23.7863 C   0  0  0  0  0  0  0  0  0  0  0  0
  -30.7123  -17.8870   22.2613 C   0  0  0  0  0  0  0  0  0  0  0  0
  -17.5284  -30.7880   22.4445 C   0  0  0  0  0  0  0  0  0  0  0  0
  -30.2683  -16.4353   22.0680 C   0  0  0  0  0  0  0  0  0  0  0  0
  -29.6624  -18.8736   21.7534 C   0  0  0  0  0  0  0  0  0  0  0  0
  -28.7758  -17.2004   20.1775 C   0  0  0  0  0  0  0  0  0  0  0  0
  -18.8321  -29.9819   22.4899 C   0  0  1  0  0  0  0  0  0  0  0  0
  -21.6619  -32.3250   23.4573 C   0  0  1  0  0  0  0  0  0  0  0  0
  -29.8288  -16.1691   20.6148 C   0  0  2  0  0  0  0  0  0  0  0  0
  -25.3455  -39.0818   22.5738 C   0  0  0  0  0  0  0  0  0  0  0  0
  -20.6721  -35.1821   19.9618 C   0  0  0  0  0  0  0  0  0  0  0  0
  -22.1631  -37.1819   19.7481 C   0  0  0  0  0  0  0  0  0  0  0  0
  -20.4669  -37.0825   21.5745 C   0  0  0  0  0  0  0  0  0  0  0  0
  -26.4962  -36.1247   24.6732 C   0  0  0  0  0  0  0  0  0  0  0  0
  -28.0348  -25.7283   17.5066 C   0  0  0  0  0  0  0  0  0  0  0  0
  -27.4527  -26.0722   18.8775 C   0  0  0  0  0  0  0  0  0  0  0  0
  -26.7404  -27.9545   20.4775 C   0  0  0  0  0  0  0  0  0  1  0  0
  -22.5218  -35.6158   21.7101 C   0  0  1  0  0  0  0  0  0  0  0  0
  -25.1844  -37.7728   23.3311 C   0  0  2  0  0  0  0  0  0  0  0  0
  -21.4670  -36.2398   20.7533 C   0  0  0  0  0  0  0  0  0  0  0  0
  -28.0324  -14.4802   20.5699 N   0  0  0  0  0  0  0  0  0  0  0  0
  -29.3423  -14.7444   20.4266 N   0  0  0  0  0  0  0  0  0  0  0  0
  -22.3599  -33.3374   22.6622 N   0  0  0  0  0  0  0  0  0  0  0  0
  -29.2979  -18.5625   20.3695 N   0  0  0  0  0  0  0  0  0  0  0  0
  -31.4297  -13.7374   19.9376 N   0  0  0  0  0  0  0  0  0  0  0  0
  -28.5315  -10.2799   19.7323 N   0  0  0  0  0  0  0  0  0  0  0  0
  -29.1119  -19.1232   18.0862 N   0  0  0  0  0  0  0  0  0  0  0  0
  -19.8644  -30.7288   23.1763 N   0  0  0  0  0  0  0  0  0  0  0  0
  -23.2709  -36.5931   22.4925 N   0  0  0  0  0  0  0  0  0  0  0  0
  -26.5122  -37.3834   23.8843 N   0  3  0  0  0  0  0  0  0  0  0  0
  -30.7374  -10.8746   19.5351 O   0  0  0  0  0  0  0  0  0  0  0  0
  -20.6043  -32.0005   21.3713 O   0  0  0  0  0  0  0  0  0  0  0  0
  -27.4943  -28.4053   18.2415 O   0  0  0  0  0  0  0  0  0  0  0  0
  -21.0538  -35.0802   23.4947 O   0  0  0  0  0  0  0  0  0  0  0  0
  -25.3720  -35.9667   21.7374 O   0  0  0  0  0  0  0  0  0  0  0  0
  -29.9046  -20.6659   19.6268 O   0  0  0  0  0  0  0  0  0  0  0  0
  -23.0316  -10.5380   20.5810 O   0  0  0  0  0  0  0  0  0  0  0  0
  -26.6015  -29.3709   20.5815 O   0  0  0  0  0  0  0  0  0  1  0  0
  -18.7268  -12.9348   18.1055 F   0  0  0  0  0  0  0  0  0  0  0  0
  -21.6755   -9.2576   18.5403 F   0  0  0  0  0  0  0  0  0  0  0  0
  1  2  1  0  0  0  0
  1  5  2  0  0  0  0
  2  6  2  0  0  0  0
  3  8  2  0  0  0  0
  3 18  1  0  0  0  0
  4  9  1  0  0  0  0
  4 18  2  0  0  0  0
  5 22  1  0  0  0  0
  6 24  1  0  0  0  0
  7 10  2  0  0  0  0
  7 23  1  0  0  0  0
  8 27  1  0  0  0  0
  9 27  2  0  0  0  0
 10 28  1  0  0  0  0
 11 12  2  0  0  0  0
 11 29  1  0  0  0  0
 12 30  1  0  0  0  0
 13 19  1  0  0  0  0
 13 20  2  0  0  0  0
 14 19  2  0  0  0  0
 14 26  1  0  0  0  0
 15 20  1  0  0  0  0
 15 26  2  0  0  0  0
 16 25  1  0  0  0  0
 16 28  2  0  0  0  0
 17 30  2  0  0  0  0
 17 31  1  0  0  0  0
 18 32  1  0  0  0  0
 19 35  1  0  0  0  0
 20 36  1  0  0  0  0
 21 32  1  0  0  0  0
 21 33  2  0  0  0  0
 21 38  1  0  0  0  0
 22 24  2  0  0  0  0
 22 44  1  0  0  0  0
 23 25  2  0  0  0  0
 23 45  1  0  0  0  0
 24 53  1  0  0  0  0
 25 46  1  0  0  0  0
 26 73  1  0  0  0  0
 27 83  1  0  0  0  0
 28 84  1  0  0  0  0
 29 31  2  0  0  0  0
 29 83  1  0  0  0  0
 30 85  1  0  0  0  0
 31 86  1  0  0  0  0
 32 67  2  0  0  0  0
 33 68  1  0  0  0  0
 33 71  1  0  0  0  0
 34 35  2  0  0  0  0
 36 37  2  0  0  0  0
 37 61  1  0  0  0  0
 38 72  1  0  0  0  0
 38 77  2  0  0  0  0
 39 54  1  0  0  0  0
 39 74  1  0  0  0  0
 39 78  2  0  0  0  0
 40 62  1  0  0  0  0
 40 63  1  0  0  0  0
 40 79  2  0  0  0  0
 41 64  1  0  0  0  0
 41 69  1  0  0  0  0
 41 80  2  0  0  0  0
 42 65  1  0  0  0  0
 42 75  1  0  0  0  0
 42 81  2  0  0  0  0
 43 70  1  0  0  0  0
 43 73  1  0  0  0  0
 43 82  2  0  0  0  0
 44 47  1  0  0  0  0
 45 54  1  0  0  0  0
 46 69  1  0  0  0  0
 47 49  1  0  0  0  0
 48 50  1  0  0  0  0
 48 51  1  0  0  0  0
 49 53  1  0  0  0  0
 50 55  1  0  0  0  0
 51 70  1  0  0  0  0
 52 55  1  0  0  0  0
 52 70  1  0  0  0  0
 53 74  1  0  0  0  0
 54 69  1  0  0  0  0
 55 68  1  0  0  0  0
 56 65  1  0  0  0  0
 57 66  1  0  0  0  0
 58 66  1  0  0  0  0
 59 66  1  0  0  0  0
 60 76  1  0  0  0  0
 61 62  1  0  0  0  0
 63 84  1  0  0  0  0
 64 66  1  0  0  0  0
 64 75  1  0  0  0  0
 65 76  1  0  0  0  0
 67 68  1  0  0  0  0
M  CHG  1  76   1
M  ISO  4  43 100  63 101  73 100  84 101
M  END
> <Batch ID>
0119

> <Smiles>
C=Cc1cc(C=CCCC(=O)[101CH2:1][101O:1]c2ccc3c(c2)CN(C(=O)C(NC(=O)C(C)NC)C(C)(C)C)C(C(=O)NC2CCCc4ccccc42)C3)cc([100NH:0][100C:0](=O)N2CCCC(n3nc(-c4ccc(Oc5ccc(F)cc5F)cc4)c(C(N)=O)c3N)C2)c1

> <Shape>
0.273

> <Color>
0.097

> <Negative vol penalty>
0.000

$$$$

  -OEChem-04052301513D

 85 93  0     1  0  0  0  0  0999 V2000
  -31.0347  -32.8626   26.0406 C   0  0  0  0  0  0  0  0  0  0  0  0
  -31.5529  -31.5807   26.1945 C   0  0  0  0  0  0  0  0  0  0  0  0
  -22.9839   -9.9979   19.9927 C   0  0  0  0  0  0  0  0  0  0  0  0
  -23.7757   -9.9871   22.2753 C   0  0  0  0  0  0  0  0  0  0  0  0
  -29.7611  -33.0383   25.5014 C   0  0  0  0  0  0  0  0  0  0  0  0
  -30.7971  -30.4737   25.8101 C   0  0  0  0  0  0  0  0  0  0  0  0
  -32.8884  -25.2434   23.4066 C   0  0  0  0  0  0  0  0  0  0  0  0
  -22.1774   -8.8934   20.2672 C   0  0  0  0  0  0  0  0  0  0  0  0
  -22.9692   -8.8826   22.5498 C   0  0  0  0  0  0  0  0  0  0  0  0
  -33.1618  -23.9966   23.9676 C   0  0  0  0  0  0  0  0  0  0  0  0
  -19.7089   -8.2828   23.2062 C   0  0  0  0  0  0  0  0  0  0  0  0
  -18.9677   -8.3010   24.3877 C   0  0  0  0  0  0  0  0  0  0  0  0
  -31.3622  -18.7663   20.1344 C   0  0  0  0  0  0  0  0  0  0  0  0
  -30.9791  -23.2215   23.2937 C   0  0  0  0  0  0  0  0  0  0  0  0
  -31.9987  -17.1513   22.3182 C   0  0  0  0  0  0  0  0  0  0  0  0
  -20.1041   -6.3028   25.1313 C   0  0  0  0  0  0  0  0  0  0  0  0
  -23.7830  -10.5447   20.9968 C   0  0  0  0  0  0  0  0  0  0  0  0
  -30.7337  -17.5315   20.2953 C   0  0  0  0  0  0  0  0  0  0  0  0
  -24.2703  -13.0439   20.8405 C   0  0  0  0  0  0  0  0  0  0  0  0
  -28.9932  -31.9334   25.1012 C   0  0  0  0  0  0  0  0  0  0  0  0
  -31.6520  -25.4924   22.7936 C   0  0  0  0  0  0  0  0  0  0  0  0
  -29.5115  -30.6347   25.2662 C   0  0  0  0  0  0  0  0  0  0  0  0
  -30.6935  -24.4714   22.7235 C   0  0  0  0  0  0  0  0  0  0  0  0
  -31.0519  -16.7240   21.3872 C   0  0  0  0  0  0  0  0  0  0  0  0
  -22.1701   -8.3358   21.5457 C   0  0  0  0  0  0  0  0  0  0  0  0
  -32.2060  -22.9864   23.9137 C   0  0  0  0  0  0  0  0  0  0  0  0
  -20.6475   -7.2745   22.9872 C   0  0  0  0  0  0  0  0  0  0  0  0
  -32.3090  -19.1936   21.0654 C   0  0  0  0  0  0  0  0  0  0  0  0
  -32.6272  -18.3861   22.1573 C   0  0  0  0  0  0  0  0  0  0  0  0
  -19.1653   -7.3110   25.3503 C   0  0  0  0  0  0  0  0  0  0  0  0
  -20.8451   -6.2845   23.9498 C   0  0  0  0  0  0  0  0  0  0  0  0
  -24.6167  -11.6853   20.7137 C   0  0  0  0  0  0  0  0  0  0  0  0
  -25.3992  -13.7237   20.4531 C   0  0  0  0  0  0  0  0  0  0  0  0
  -30.0310  -16.9225   18.0258 C   0  0  0  0  0  0  0  0  0  0  0  0
  -29.7493  -17.1131   19.3059 C   0  0  0  0  0  0  0  0  0  0  0  0
  -23.0384  -13.6383   21.2702 C   0  0  0  0  0  0  0  0  0  0  0  0
  -29.2457  -27.4986   23.3305 C   0  0  0  0  0  0  0  0  0  0  0  0
  -30.9536  -14.3548   20.6514 C   0  0  0  0  0  0  0  0  0  0  0  0
  -28.1169  -26.2745   20.5466 C   0  0  0  0  0  0  0  0  0  0  0  0
  -28.0860  -23.6879   18.3206 C   0  0  0  0  0  0  0  0  0  0  0  0
  -27.6028  -32.1707   24.5673 C   0  0  0  0  0  0  0  0  0  0  0  0
  -31.3828  -26.8342   22.1696 C   0  0  0  0  0  0  0  0  0  0  0  0
  -29.3584  -24.6815   22.0587 C   0  0  0  0  0  0  0  0  0  0  0  0
  -27.0164  -30.9648   23.8378 C   0  0  0  0  0  0  0  0  0  0  0  0
  -29.6207  -12.1016   18.2047 C   0  0  0  0  0  0  0  0  0  0  0  0
  -27.2367  -29.6915   24.6485 C   0  0  0  0  0  0  0  0  0  0  0  0
  -28.1810  -11.8805   18.6668 C   0  0  0  0  0  0  0  0  0  0  0  0
  -30.5686  -12.2638   19.3888 C   0  0  0  0  0  0  0  0  0  0  0  0
  -28.7318  -13.1253   20.8050 C   0  0  0  0  0  0  0  0  0  0  0  0
  -28.7321  -29.4102   24.8381 C   0  0  1  0  0  0  0  0  0  0  0  0
  -29.8948  -27.1378   22.0243 C   0  0  1  0  0  0  0  0  0  0  0  0
  -27.7366  -12.9872   19.6394 C   0  0  2  0  0  0  0  0  0  0  0  0
  -27.0374  -22.9610   16.1597 C   0  0  0  0  0  0  0  0  0  0  0  0
  -25.5198  -25.6480   22.0204 C   0  0  0  0  0  0  0  0  0  0  0  0
  -24.9045  -24.1136   20.1402 C   0  0  0  0  0  0  0  0  0  0  0  0
  -25.2154  -26.5506   19.7081 C   0  0  0  0  0  0  0  0  0  0  0  0
  -30.7123  -23.5283   16.9657 C   0  0  0  0  0  0  0  0  0  0  0  0
  -32.5345  -21.1655   19.7553 C   0  0  0  0  0  0  0  0  0  0  0  0
  -30.3984  -15.3950   21.5915 C   0  0  0  0  0  0  0  0  0  0  0  0
  -33.9418  -19.9809   25.1388 C   0  0  0  0  0  0  0  0  0  0  0  0
  -33.8323  -21.3437   24.4730 C   0  0  0  0  0  0  0  0  0  1  0  0
  -33.1102  -18.9290   24.4217 C   0  0  0  0  0  0  0  0  0  0  0  0
  -27.2380  -25.1060   20.1711 C   0  0  1  0  0  0  0  0  0  0  0  0
  -28.2228  -23.6580   16.8091 C   0  0  2  0  0  0  0  0  0  0  0  0
  -25.7437  -25.3509   20.5242 C   0  0  0  0  0  0  0  0  0  0  0  0
  -25.8677  -11.5105   20.2794 N   0  0  0  0  0  0  0  0  0  0  0  0
  -26.3172  -12.7682   20.1299 N   0  0  0  0  0  0  0  0  0  0  0  0
  -29.1400  -26.0126   21.4688 N   0  0  0  0  0  0  0  0  0  0  0  0
  -30.0998  -13.3089   20.3006 N   0  0  0  0  0  0  0  0  0  0  0  0
  -25.6861  -15.0396   20.3605 N   0  0  0  0  0  0  0  0  0  0  0  0
  -21.9799  -12.7941   21.6326 N   0  0  0  0  0  0  0  0  0  0  0  0
  -29.2974  -28.8464   23.6311 N   0  0  0  0  0  0  0  0  0  0  0  0
  -27.4832  -24.8490   18.7561 N   0  0  0  0  0  0  0  0  0  0  0  0
  -29.4658  -22.9361   16.4156 N   0  3  0  0  0  0  0  0  0  0  0  0
  -22.8754  -14.8812   21.3154 O   0  0  0  0  0  0  0  0  0  0  0  0
  -28.7344  -26.6195   24.0142 O   0  0  0  0  0  0  0  0  0  0  0  0
  -32.1108  -14.4716   20.2398 O   0  0  0  0  0  0  0  0  0  0  0  0
  -27.9081  -27.3774   20.0349 O   0  0  0  0  0  0  0  0  0  0  0  0
  -28.4716  -22.7710   19.0426 O   0  0  0  0  0  0  0  0  0  0  0  0
  -21.3831   -7.2582   21.8140 O   0  0  0  0  0  0  0  0  0  0  0  0
  -32.9161  -20.4015   20.8975 O   0  0  0  0  0  0  0  0  0  0  0  0
  -32.4701  -21.7687   24.4610 O   0  0  0  0  0  0  0  0  0  1  0  0
  -33.5557  -18.7949   23.0789 O   0  0  0  0  0  0  0  0  0  0  0  0
  -18.4547   -7.3296   26.4855 F   0  0  0  0  0  0  0  0  0  0  0  0
  -21.7464   -5.3140   23.7455 F   0  0  0  0  0  0  0  0  0  0  0  0
  1  2  1  0  0  0  0
  1  5  2  0  0  0  0
  2  6  2  0  0  0  0
  3  8  2  0  0  0  0
  3 17  1  0  0  0  0
  4  9  1  0  0  0  0
  4 17  2  0  0  0  0
  5 20  1  0  0  0  0
  6 22  1  0  0  0  0
  7 10  2  0  0  0  0
  7 21  1  0  0  0  0
  8 25  1  0  0  0  0
  9 25  2  0  0  0  0
 10 26  1  0  0  0  0
 11 12  2  0  0  0  0
 11 27  1  0  0  0  0
 12 30  1  0  0  0  0
 13 18  1  0  0  0  0
 13 28  2  0  0  0  0
 14 23  1  0  0  0  0
 14 26  2  0  0  0  0
 15 24  1  0  0  0  0
 15 29  2  0  0  0  0
 16 30  2  0  0  0  0
 16 31  1  0  0  0  0
 17 32  1  0  0  0  0
 18 24  2  0  0  0  0
 18 35  1  0  0  0  0
 19 32  1  0  0  0  0
 19 33  2  0  0  0  0
 19 36  1  0  0  0  0
 20 22  2  0  0  0  0
 20 41  1  0  0  0  0
 21 23  2  0  0  0  0
 21 42  1  0  0  0  0
 22 50  1  0  0  0  0
 23 43  1  0  0  0  0
 24 59  1  0  0  0  0
 25 80  1  0  0  0  0
 26 82  1  0  0  0  0
 27 31  2  0  0  0  0
 27 80  1  0  0  0  0
 28 29  1  0  0  0  0
 28 81  1  0  0  0  0
 29 83  1  0  0  0  0
 30 84  1  0  0  0  0
 31 85  1  0  0  0  0
 32 66  2  0  0  0  0
 33 67  1  0  0  0  0
 33 70  1  0  0  0  0
 34 35  2  0  0  0  0
 36 71  1  0  0  0  0
 36 75  2  0  0  0  0
 37 51  1  0  0  0  0
 37 72  1  0  0  0  0
 37 76  2  0  0  0  0
 38 59  1  0  0  0  0
 38 69  1  0  0  0  0
 38 77  2  0  0  0  0
 39 63  1  0  0  0  0
 39 68  1  0  0  0  0
 39 78  2  0  0  0  0
 40 64  1  0  0  0  0
 40 73  1  0  0  0  0
 40 79  2  0  0  0  0
 41 44  1  0  0  0  0
 42 51  1  0  0  0  0
 43 68  1  0  0  0  0
 44 46  1  0  0  0  0
 45 47  1  0  0  0  0
 45 48  1  0  0  0  0
 46 50  1  0  0  0  0
 47 52  1  0  0  0  0
 48 69  1  0  0  0  0
 49 52  1  0  0  0  0
 49 69  1  0  0  0  0
 50 72  1  0  0  0  0
 51 68  1  0  0  0  0
 52 67  1  0  0  0  0
 53 64  1  0  0  0  0
 54 65  1  0  0  0  0
 55 65  1  0  0  0  0
 56 65  1  0  0  0  0
 57 74  1  0  0  0  0
 58 81  1  0  0  0  0
 60 61  1  0  0  0  0
 60 62  1  0  0  0  0
 61 82  1  0  0  0  0
 62 83  1  0  0  0  0
 63 65  1  0  0  0  0
 63 73  1  0  0  0  0
 64 74  1  0  0  0  0
 66 67  1  0  0  0  0
M  CHG  1  74   1
M  ISO  4  38 100  59 100  61 101  82 101
M  END
> <Batch ID>
0119

> <Smiles>
C=Cc1cc(OC)c(OCC[101CH2:1][101O:1]c2ccc3c(c2)CN(C(=O)C(NC(=O)C(C)NC)C(C)(C)C)C(C(=O)NC2CCCc4ccccc42)C3)cc1[100CH2:0][100C:0](=O)N1CCCC(n2nc(-c3ccc(Oc4ccc(F)cc4F)cc3)c(C(N)=O)c2N)C1

> <Shape>
0.259

> <Color>
0.208

> <Negative vol penalty>
0.000

$$$$

  -OEChem-04052301513D

 82 90  0     1  0  0  0  0  0999 V2000
  -25.2800  -36.7810   20.3014 C   0  0  0  0  0  0  0  0  0  0  0  0
  -26.3747  -35.9926   19.9616 C   0  0  0  0  0  0  0  0  0  0  0  0
  -24.5109   -9.2572   21.5571 C   0  0  0  0  0  0  0  0  0  0  0  0
  -24.4944  -10.5835   23.5764 C   0  0  0  0  0  0  0  0  0  0  0  0
  -24.3407  -36.3099   21.2177 C   0  0  0  0  0  0  0  0  0  0  0  0
  -26.5313  -34.7329   20.5389 C   0  0  0  0  0  0  0  0  0  0  0  0
  -29.0509  -28.1909   19.0658 C   0  0  0  0  0  0  0  0  0  0  0  0
  -24.2462   -8.1115   22.3074 C   0  0  0  0  0  0  0  0  0  0  0  0
  -24.2297   -9.4378   24.3268 C   0  0  0  0  0  0  0  0  0  0  0  0
  -29.9196  -27.2300   19.5814 C   0  0  0  0  0  0  0  0  0  0  0  0
  -21.5690   -6.6590   23.7758 C   0  0  0  0  0  0  0  0  0  0  0  0
  -20.5930   -5.7836   23.2998 C   0  0  0  0  0  0  0  0  0  0  0  0
  -28.1917  -26.4874   21.0921 C   0  0  0  0  0  0  0  0  0  0  0  0
  -27.5341  -21.8328   21.4914 C   0  0  0  0  0  0  0  0  0  0  0  0
  -26.4872  -19.7348   20.9089 C   0  0  0  0  0  0  0  0  0  0  0  0
  -28.8963  -19.9083   20.9646 C   0  0  0  0  0  0  0  0  0  0  0  0
  -22.2375   -4.0180   23.1750 C   0  0  0  0  0  0  0  0  0  0  0  0
  -24.6351  -10.4932   22.1916 C   0  0  0  0  0  0  0  0  0  0  0  0
  -23.9691  -12.5495   20.8367 C   0  0  0  0  0  0  0  0  0  0  0  0
  -24.4807  -35.0398   21.7991 C   0  0  0  0  0  0  0  0  0  0  0  0
  -27.7475  -28.3147   19.5679 C   0  0  0  0  0  0  0  0  0  0  0  0
  -25.5937  -34.2449   21.4648 C   0  0  0  0  0  0  0  0  0  0  0  0
  -27.3077  -27.4490   20.5794 C   0  0  0  0  0  0  0  0  0  0  0  0
  -26.3821  -21.0757   21.2786 C   0  0  0  0  0  0  0  0  0  0  0  0
  -28.7912  -21.2491   21.3343 C   0  0  0  0  0  0  0  0  0  0  0  0
  -27.7443  -19.1511   20.7519 C   0  0  0  0  0  0  0  0  0  0  0  0
  -24.1055   -8.2018   23.6923 C   0  0  0  0  0  0  0  0  0  0  0  0
  -29.4910  -26.3800   20.5967 C   0  0  0  0  0  0  0  0  0  0  0  0
  -22.8793   -6.2140   23.9513 C   0  0  0  0  0  0  0  0  0  0  0  0
  -20.9272   -4.4631   22.9994 C   0  0  0  0  0  0  0  0  0  0  0  0
  -23.2135   -4.8935   23.6510 C   0  0  0  0  0  0  0  0  0  0  0  0
  -24.9091  -11.6769   21.4172 C   0  0  0  0  0  0  0  0  0  0  0  0
  -24.7299  -13.5086   20.2139 C   0  0  0  0  0  0  0  0  0  0  0  0
  -30.4194  -22.6270   20.5124 C   0  0  0  0  0  0  0  0  0  0  0  0
  -22.5365  -12.4977   20.8585 C   0  0  0  0  0  0  0  0  0  0  0  0
  -26.1216  -30.6120   21.0453 C   0  0  0  0  0  0  0  0  0  0  0  0
  -23.6454  -28.5455   20.6982 C   0  0  0  0  0  0  0  0  0  0  0  0
  -22.5963  -25.3250   20.2803 C   0  0  0  0  0  0  0  0  0  0  0  0
  -29.0209  -17.0567   20.1773 C   0  0  0  0  0  0  0  0  0  0  0  0
  -23.4647  -34.5930   22.8203 C   0  0  0  0  0  0  0  0  0  0  0  0
  -26.8141  -29.3387   18.9825 C   0  0  0  0  0  0  0  0  0  0  0  0
  -25.9115  -27.5276   21.1389 C   0  0  0  0  0  0  0  0  0  0  0  0
  -23.5048  -33.0935   23.1035 C   0  0  0  0  0  0  0  0  0  0  0  0
  -29.7027  -13.6780   19.2847 C   0  0  0  0  0  0  0  0  0  0  0  0
  -24.9424  -32.6274   23.3102 C   0  0  0  0  0  0  0  0  0  0  0  0
  -28.4391  -12.9280   19.7121 C   0  0  0  0  0  0  0  0  0  0  0  0
  -30.0549  -14.7986   20.2614 C   0  0  0  0  0  0  0  0  0  0  0  0
  -27.7028  -14.9942   20.9674 C   0  0  0  0  0  0  0  0  0  0  0  0
  -25.7851  -32.8629   22.0508 C   0  0  1  0  0  0  0  0  0  0  0  0
  -25.6750  -29.7166   19.9244 C   0  0  1  0  0  0  0  0  0  0  0  0
  -27.2714  -13.8978   19.9796 C   0  0  2  0  0  0  0  0  0  0  0  0
  -25.0380  -21.7001   21.4464 C   0  0  0  0  0  0  0  0  0  0  0  0
  -20.5117  -23.9440   20.0691 C   0  0  0  0  0  0  0  0  0  0  0  0
  -23.1762  -28.7989   23.7025 C   0  0  0  0  0  0  0  0  0  0  0  0
  -21.7601  -26.7375   23.5847 C   0  0  0  0  0  0  0  0  0  0  0  0
  -21.0928  -28.7810   22.3191 C   0  0  0  0  0  0  0  0  0  0  0  0
  -23.3498  -24.3912   17.5749 C   0  0  0  0  0  0  0  0  0  0  0  0
  -31.6503  -23.4864   20.6226 C   0  0  0  0  0  0  0  0  0  0  0  0
  -31.3253  -24.9144   20.2180 C   0  0  0  0  0  0  0  0  0  1  0  0
  -23.0689  -27.4198   21.5225 C   0  0  1  0  0  0  0  0  0  0  0  0
  -21.5932  -24.7088   19.3219 C   0  0  2  0  0  0  0  0  0  0  0  0
  -22.3015  -27.9338   22.7732 C   0  0  0  0  0  0  0  0  0  0  0  0
  -26.1706  -12.0487   21.1838 N   0  0  0  0  0  0  0  0  0  0  0  0
  -29.9515  -22.0118   21.5490 N   0  0  0  0  0  0  0  0  0  0  0  0
  -26.0286  -13.1654   20.4497 N   0  0  0  0  0  0  0  0  0  0  0  0
  -25.0383  -28.5494   20.5381 N   0  0  0  0  0  0  0  0  0  0  0  0
  -28.9027  -15.6800   20.4628 N   0  0  0  0  0  0  0  0  0  0  0  0
  -24.4078  -14.6035   19.4929 N   0  0  0  0  0  0  0  0  0  0  0  0
  -21.9164  -11.4444   21.5444 N   0  0  0  0  0  0  0  0  0  0  0  0
  -27.8509  -17.7892   20.3758 N   0  0  0  0  0  0  0  0  0  0  0  0
  -25.5043  -31.8482   21.0578 N   0  0  0  0  0  0  0  0  0  0  0  0
  -22.2578  -26.6202   20.6107 N   0  0  0  0  0  0  0  0  0  0  0  0
  -22.2771  -23.7669   18.3912 N   0  3  0  0  0  0  0  0  0  0  0  0
  -21.8273  -13.3507   20.2729 O   0  0  0  0  0  0  0  0  0  0  0  0
  -26.9628  -30.2105   21.8409 O   0  0  0  0  0  0  0  0  0  0  0  0
  -22.8872  -29.3862   20.2084 O   0  0  0  0  0  0  0  0  0  0  0  0
  -23.5796  -24.7169   20.6972 O   0  0  0  0  0  0  0  0  0  0  0  0
  -30.0741  -17.5448   19.7597 O   0  0  0  0  0  0  0  0  0  0  0  0
  -23.8470   -7.0842   24.4247 O   0  0  0  0  0  0  0  0  0  0  0  0
  -30.3370  -25.4416   21.1022 O   0  0  0  0  0  0  0  0  0  1  0  0
  -19.9895   -3.6220   22.5438 F   0  0  0  0  0  0  0  0  0  0  0  0
  -24.4704   -4.4599   23.8187 F   0  0  0  0  0  0  0  0  0  0  0  0
  1  2  1  0  0  0  0
  1  5  2  0  0  0  0
  2  6  2  0  0  0  0
  3  8  2  0  0  0  0
  3 18  1  0  0  0  0
  4  9  1  0  0  0  0
  4 18  2  0  0  0  0
  5 20  1  0  0  0  0
  6 22  1  0  0  0  0
  7 10  2  0  0  0  0
  7 21  1  0  0  0  0
  8 27  1  0  0  0  0
  9 27  2  0  0  0  0
 10 28  1  0  0  0  0
 11 12  2  0  0  0  0
 11 29  1  0  0  0  0
 12 30  1  0  0  0  0
 13 23  1  0  0  0  0
 13 28  2  0  0  0  0
 14 24  2  0  0  0  0
 14 25  1  0  0  0  0
 15 24  1  0  0  0  0
 15 26  2  0  0  0  0
 16 25  2  0  0  0  0
 16 26  1  0  0  0  0
 17 30  2  0  0  0  0
 17 31  1  0  0  0  0
 18 32  1  0  0  0  0
 19 32  1  0  0  0  0
 19 33  2  0  0  0  0
 19 35  1  0  0  0  0
 20 22  2  0  0  0  0
 20 40  1  0  0  0  0
 21 23  2  0  0  0  0
 21 41  1  0  0  0  0
 22 49  1  0  0  0  0
 23 42  1  0  0  0  0
 24 52  1  0  0  0  0
 25 64  1  0  0  0  0
 26 70  1  0  0  0  0
 27 79  1  0  0  0  0
 28 80  1  0  0  0  0
 29 31  2  0  0  0  0
 29 79  1  0  0  0  0
 30 81  1  0  0  0  0
 31 82  1  0  0  0  0
 32 63  2  0  0  0  0
 33 65  1  0  0  0  0
 33 68  1  0  0  0  0
 34 58  1  0  0  0  0
 34 64  2  0  0  0  0
 35 69  1  0  0  0  0
 35 74  2  0  0  0  0
 36 50  1  0  0  0  0
 36 71  1  0  0  0  0
 36 75  2  0  0  0  0
 37 60  1  0  0  0  0
 37 66  1  0  0  0  0
 37 76  2  0  0  0  0
 38 61  1  0  0  0  0
 38 72  1  0  0  0  0
 38 77  2  0  0  0  0
 39 67  1  0  0  0  0
 39 70  1  0  0  0  0
 39 78  2  0  0  0  0
 40 43  1  0  0  0  0
 41 50  1  0  0  0  0
 42 66  1  0  0  0  0
 43 45  1  0  0  0  0
 44 46  1  0  0  0  0
 44 47  1  0  0  0  0
 45 49  1  0  0  0  0
 46 51  1  0  0  0  0
 47 67  1  0  0  0  0
 48 51  1  0  0  0  0
 48 67  1  0  0  0  0
 49 71  1  0  0  0  0
 50 66  1  0  0  0  0
 51 65  1  0  0  0  0
 53 61  1  0  0  0  0
 54 62  1  0  0  0  0
 55 62  1  0  0  0  0
 56 62  1  0  0  0  0
 57 73  1  0  0  0  0
 58 59  1  0  0  0  0
 59 80  1  0  0  0  0
 60 62  1  0  0  0  0
 60 72  1  0  0  0  0
 61 73  1  0  0  0  0
 63 65  1  0  0  0  0
M  CHG  1  73   1
M  ISO  4  39 100  59 101  70 100  80 101
M  END
> <Batch ID>
0119

> <Smiles>
CNC(C)C(=O)NC(C(=O)N1Cc2cc([101O:1][101CH2:1]C=CNc3cc(C)cc([100NH:0][100C:0](=O)N4CCCC(n5nc(-c6ccc(Oc7ccc(F)cc7F)cc6)c(C(N)=O)c5N)C4)c3)ccc2CC1C(=O)NC1CCCc2ccccc21)C(C)(C)C

> <Shape>
0.296

> <Color>
0.095

> <Negative vol penalty>
0.000

$$$$

  -OEChem-04052301513D

 91100  0     1  0  0  0  0  0999 V2000
  -30.5913  -33.7021   15.3202 C   0  0  0  0  0  0  0  0  0  0  0  0
  -30.3869  -32.3383   15.5037 C   0  0  0  0  0  0  0  0  0  0  0  0
  -23.8919  -10.8302   23.4221 C   0  0  0  0  0  0  0  0  0  0  0  0
  -24.2894  -13.0034   24.4000 C   0  0  0  0  0  0  0  0  0  0  0  0
  -30.5285  -34.5682   16.4110 C   0  0  0  0  0  0  0  0  0  0  0  0
  -30.1205  -31.8397   16.7784 C   0  0  0  0  0  0  0  0  0  0  0  0
  -26.4608  -27.1403   18.2026 C   0  0  0  0  0  0  0  0  0  0  0  0
  -23.3798  -10.3768   24.6377 C   0  0  0  0  0  0  0  0  0  0  0  0
  -23.7773  -12.5500   25.6157 C   0  0  0  0  0  0  0  0  0  0  0  0
  -26.7218  -25.8001   18.4844 C   0  0  0  0  0  0  0  0  0  0  0  0
  -20.7377  -11.9947   26.9841 C   0  0  0  0  0  0  0  0  0  0  0  0
  -19.8433  -12.8254   27.6590 C   0  0  0  0  0  0  0  0  0  0  0  0
  -29.9097  -19.9297   20.4522 C   0  0  0  0  0  0  0  0  0  0  0  0
  -29.3867  -19.3104   22.7282 C   0  0  0  0  0  0  0  0  0  0  0  0
  -26.6979  -26.2979   20.8446 C   0  0  0  0  0  0  0  0  0  0  0  0
  -21.3443  -12.9047   29.5506 C   0  0  0  0  0  0  0  0  0  0  0  0
  -24.3468  -12.1435   23.3032 C   0  0  0  0  0  0  0  0  0  0  0  0
  -30.6411  -18.7518   20.2997 C   0  0  0  0  0  0  0  0  0  0  0  0
  -29.2825  -20.2090   21.6664 C   0  0  0  0  0  0  0  0  0  0  0  0
  -24.1618  -13.2165   20.9963 C   0  0  0  0  0  0  0  0  0  0  0  0
  -30.2517  -34.0812   17.6982 C   0  0  0  0  0  0  0  0  0  0  0  0
  -26.3270  -28.0730   19.2411 C   0  0  0  0  0  0  0  0  0  0  0  0
  -30.0552  -32.6999   17.8877 C   0  0  0  0  0  0  0  0  0  0  0  0
  -26.4327  -27.6489   20.5735 C   0  0  0  0  0  0  0  0  0  0  0  0
  -30.7453  -17.8532   21.3615 C   0  0  0  0  0  0  0  0  0  0  0  0
  -23.3225  -11.2367   25.7345 C   0  0  0  0  0  0  0  0  0  0  0  0
  -26.8433  -25.3792   19.8055 C   0  0  0  0  0  0  0  0  0  0  0  0
  -21.9353  -11.6188   27.5924 C   0  0  0  0  0  0  0  0  0  0  0  0
  -30.1181  -18.1325   22.5757 C   0  0  0  0  0  0  0  0  0  0  0  0
  -20.1466  -13.2804   28.9422 C   0  0  0  0  0  0  0  0  0  0  0  0
  -22.2386  -12.0739   28.8756 C   0  0  0  0  0  0  0  0  0  0  0  0
  -24.8764  -12.6123   22.0479 C   0  0  0  0  0  0  0  0  0  0  0  0
  -25.1122  -13.4744   20.0389 C   0  0  0  0  0  0  0  0  0  0  0  0
  -32.5532  -18.9036   18.7512 C   0  0  0  0  0  0  0  0  0  0  0  0
  -31.2962  -18.4858   18.9957 C   0  0  0  0  0  0  0  0  0  0  0  0
  -28.5098  -21.4520   21.8279 C   0  0  0  0  0  0  0  0  0  0  0  0
  -28.6348  -22.5464   21.0610 C   0  0  0  0  0  0  0  0  0  0  0  0
  -22.7637  -13.5177   20.8940 C   0  0  0  0  0  0  0  0  0  0  0  0
  -27.8957  -30.6952   20.1171 C   0  0  0  0  0  0  0  0  0  0  0  0
  -25.4924  -30.9391   22.2821 C   0  0  0  0  0  0  0  0  0  0  0  0
  -23.0615  -29.3796   24.1001 C   0  0  0  0  0  0  0  0  0  0  0  0
  -31.0324  -14.3318   20.2978 C   0  0  0  0  0  0  0  0  0  0  0  0
  -30.2406  -35.0499   18.8541 C   0  0  0  0  0  0  0  0  0  0  0  0
  -26.0190  -29.5101   18.9214 C   0  0  0  0  0  0  0  0  0  0  0  0
  -26.2774  -28.6068   21.7253 C   0  0  0  0  0  0  0  0  0  0  0  0
  -33.2709  -18.6804   17.4510 C   0  0  0  0  0  0  0  0  0  0  0  0
  -30.4990  -17.7386   17.9500 C   0  0  0  0  0  0  0  0  0  0  0  0
  -29.5825  -34.4894   20.1123 C   0  0  0  0  0  0  0  0  0  0  0  0
  -32.3607  -18.1967   16.3231 C   0  0  0  0  0  0  0  0  0  0  0  0
  -31.3664  -17.1592   16.8289 C   0  0  0  0  0  0  0  0  0  0  0  0
  -29.3078  -11.8631   18.3983 C   0  0  0  0  0  0  0  0  0  0  0  0
  -30.0905  -33.0797   20.3977 C   0  0  0  0  0  0  0  0  0  0  0  0
  -27.9121  -11.8297   19.0234 C   0  0  0  0  0  0  0  0  0  0  0  0
  -30.3914  -12.0945   19.4492 C   0  0  0  0  0  0  0  0  0  0  0  0
  -28.7899  -13.2482   20.9249 C   0  0  0  0  0  0  0  0  0  0  0  0
  -29.7393  -32.1241   19.2510 C   0  0  1  0  0  0  0  0  0  0  0  0
  -26.4122  -30.4689   20.0410 C   0  0  1  0  0  0  0  0  0  0  0  0
  -27.6590  -13.0731   19.8970 C   0  0  2  0  0  0  0  0  0  0  0  0
  -27.9978  -14.7055   25.2524 C   0  0  0  0  0  0  0  0  0  0  0  0
  -21.2835  -29.8353   25.8114 C   0  0  0  0  0  0  0  0  0  0  0  0
  -27.6322  -31.1412   24.4478 C   0  0  0  0  0  0  0  0  0  0  0  0
  -25.8622  -30.6386   26.1457 C   0  0  0  0  0  0  0  0  0  0  0  0
  -25.6964  -32.6964   24.7455 C   0  0  0  0  0  0  0  0  0  0  0  0
  -20.9136  -28.4620   22.2824 C   0  0  0  0  0  0  0  0  0  0  0  0
  -31.5262  -16.5842   21.2155 C   0  0  0  0  0  0  0  0  0  0  0  0
  -27.8361  -23.7925   21.2726 C   0  0  0  0  0  0  0  0  0  1  0  0
  -29.2609  -15.3506   24.7109 C   0  0  0  0  0  0  0  0  0  0  0  0
  -28.9868  -16.7273   24.1253 C   0  0  0  0  0  0  0  0  0  0  0  0
  -25.2661  -30.4402   23.6888 C   0  0  1  0  0  0  0  0  0  0  0  0
  -21.5998  -29.7199   24.3283 C   0  0  2  0  0  0  0  0  0  0  0  0
  -26.1191  -31.2112   24.7354 C   0  0  0  0  0  0  0  0  0  0  0  0
  -26.1803  -12.4932   21.7837 N   0  0  0  0  0  0  0  0  0  0  0  0
  -26.2924  -13.0261   20.5550 N   0  0  0  0  0  0  0  0  0  0  0  0
  -25.9832  -30.0027   21.3611 N   0  0  0  0  0  0  0  0  0  0  0  0
  -30.0926  -13.2894   20.2422 N   0  0  0  0  0  0  0  0  0  0  0  0
  -25.0452  -14.0385   18.8143 N   0  0  0  0  0  0  0  0  0  0  0  0
  -21.9283  -13.1858   21.9692 N   0  0  0  0  0  0  0  0  0  0  0  0
  -28.3476  -31.7343   19.3262 N   0  0  0  0  0  0  0  0  0  0  0  0
  -23.8275  -30.5120   23.9208 N   0  0  0  0  0  0  0  0  0  0  0  0
  -30.6676  -15.4303   21.0665 N   0  0  0  0  0  0  0  0  0  0  0  0
  -20.7248  -28.6657   23.7418 N   0  3  0  0  0  0  0  0  0  0  0  0
  -22.2673  -14.0501   19.8724 O   0  0  0  0  0  0  0  0  0  0  0  0
  -28.5795  -29.9809   20.8409 O   0  0  0  0  0  0  0  0  0  0  0  0
  -25.2363  -32.1143   22.0086 O   0  0  0  0  0  0  0  0  0  0  0  0
  -23.4822  -28.2249   24.0862 O   0  0  0  0  0  0  0  0  0  0  0  0
  -32.1140  -14.2892   19.7017 O   0  0  0  0  0  0  0  0  0  0  0  0
  -22.8226  -10.7947   26.9208 O   0  0  0  0  0  0  0  0  0  0  0  0
  -27.0987  -24.0717   20.0833 O   0  0  0  0  0  0  0  0  0  1  0  0
  -30.2081  -17.2667   23.6246 O   0  0  0  0  0  0  0  0  0  0  0  0
  -19.2883  -14.0794   29.5896 F   0  0  0  0  0  0  0  0  0  0  0  0
  -23.3882  -11.7172   29.4647 F   0  0  0  0  0  0  0  0  0  0  0  0
  1  2  1  0  0  0  0
  1  5  2  0  0  0  0
  2  6  2  0  0  0  0
  3  8  2  0  0  0  0
  3 17  1  0  0  0  0
  4  9  1  0  0  0  0
  4 17  2  0  0  0  0
  5 21  1  0  0  0  0
  6 23  1  0  0  0  0
  7 10  2  0  0  0  0
  7 22  1  0  0  0  0
  8 26  1  0  0  0  0
  9 26  2  0  0  0  0
 10 27  1  0  0  0  0
 11 12  2  0  0  0  0
 11 28  1  0  0  0  0
 12 30  1  0  0  0  0
 13 18  2  0  0  0  0
 13 19  1  0  0  0  0
 14 19  2  0  0  0  0
 14 29  1  0  0  0  0
 15 24  1  0  0  0  0
 15 27  2  0  0  0  0
 16 30  2  0  0  0  0
 16 31  1  0  0  0  0
 17 32  1  0  0  0  0
 18 25  1  0  0  0  0
 18 35  1  0  0  0  0
 19 36  1  0  0  0  0
 20 32  1  0  0  0  0
 20 33  2  0  0  0  0
 20 38  1  0  0  0  0
 21 23  2  0  0  0  0
 21 43  1  0  0  0  0
 22 24  2  0  0  0  0
 22 44  1  0  0  0  0
 23 56  1  0  0  0  0
 24 45  1  0  0  0  0
 25 29  2  0  0  0  0
 25 65  1  0  0  0  0
 26 87  1  0  0  0  0
 27 88  1  0  0  0  0
 28 31  2  0  0  0  0
 28 87  1  0  0  0  0
 29 89  1  0  0  0  0
 30 90  1  0  0  0  0
 31 91  1  0  0  0  0
 32 72  2  0  0  0  0
 33 73  1  0  0  0  0
 33 76  1  0  0  0  0
 34 35  2  0  0  0  0
 34 46  1  0  0  0  0
 35 47  1  0  0  0  0
 36 37  2  0  0  0  0
 37 66  1  0  0  0  0
 38 77  1  0  0  0  0
 38 82  2  0  0  0  0
 39 57  1  0  0  0  0
 39 78  1  0  0  0  0
 39 83  2  0  0  0  0
 40 69  1  0  0  0  0
 40 74  1  0  0  0  0
 40 84  2  0  0  0  0
 41 70  1  0  0  0  0
 41 79  1  0  0  0  0
 41 85  2  0  0  0  0
 42 75  1  0  0  0  0
 42 80  1  0  0  0  0
 42 86  2  0  0  0  0
 43 48  1  0  0  0  0
 44 57  1  0  0  0  0
 45 74  1  0  0  0  0
 46 49  1  0  0  0  0
 47 50  1  0  0  0  0
 48 52  1  0  0  0  0
 49 50  1  0  0  0  0
 51 53  1  0  0  0  0
 51 54  1  0  0  0  0
 52 56  1  0  0  0  0
 53 58  1  0  0  0  0
 54 75  1  0  0  0  0
 55 58  1  0  0  0  0
 55 75  1  0  0  0  0
 56 78  1  0  0  0  0
 57 74  1  0  0  0  0
 58 73  1  0  0  0  0
 59 67  1  0  0  0  0
 60 70  1  0  0  0  0
 61 71  1  0  0  0  0
 62 71  1  0  0  0  0
 63 71  1  0  0  0  0
 64 81  1  0  0  0  0
 65 80  1  0  0  0  0
 66 88  1  0  0  0  0
 67 68  1  0  0  0  0
 68 89  1  0  0  0  0
 69 71  1  0  0  0  0
 69 79  1  0  0  0  0
 70 81  1  0  0  0  0
 72 73  1  0  0  0  0
M  CHG  1  81   1
M  ISO  4  42 100  66 101  80 100  88 101
M  END
> <Batch ID>
0119

> <Smiles>
CCCOc1cc(C=C[101CH2:1][101O:1]c2ccc3c(c2)CN(C(=O)C(NC(=O)C(C)NC)C(C)(C)C)C(C(=O)NC2CCCc4ccccc42)C3)cc(C2=CCCCC2)c1C[100NH:0][100C:0](=O)N1CCCC(n2nc(-c3ccc(Oc4ccc(F)cc4F)cc3)c(C(N)=O)c2N)C1

> <Shape>
0.248

> <Color>
0.109

> <Negative vol penalty>
0.000

$$$$

  -OEChem-04052301513D

 83 91  0     1  0  0  0  0  0999 V2000
  -30.5324  -33.5782   17.6076 C   0  0  0  0  0  0  0  0  0  0  0  0
  -30.6215  -32.3434   18.2422 C   0  0  0  0  0  0  0  0  0  0  0  0
  -22.9170  -10.1478   19.9038 C   0  0  0  0  0  0  0  0  0  0  0  0
  -23.9468   -9.6449   22.0307 C   0  0  0  0  0  0  0  0  0  0  0  0
  -29.4190  -34.3904   17.8187 C   0  0  0  0  0  0  0  0  0  0  0  0
  -29.5977  -31.9206   19.0893 C   0  0  0  0  0  0  0  0  0  0  0  0
  -28.3009  -27.0881   18.3078 C   0  0  0  0  0  0  0  0  0  0  0  0
  -22.1514   -8.9858   19.9996 C   0  0  0  0  0  0  0  0  0  0  0  0
  -23.1811   -8.4829   22.1266 C   0  0  0  0  0  0  0  0  0  0  0  0
  -29.1378  -26.1098   18.8428 C   0  0  0  0  0  0  0  0  0  0  0  0
  -20.0128   -7.6511   22.9575 C   0  0  0  0  0  0  0  0  0  0  0  0
  -19.4012   -7.3790   24.1812 C   0  0  0  0  0  0  0  0  0  0  0  0
  -27.6183  -25.8318   20.6957 C   0  0  0  0  0  0  0  0  0  0  0  0
  -29.4666  -19.6050   21.1985 C   0  0  0  0  0  0  0  0  0  0  0  0
  -31.5847  -19.4188   20.0513 C   0  0  0  0  0  0  0  0  0  0  0  0
  -20.6229   -5.2998   24.3294 C   0  0  0  0  0  0  0  0  0  0  0  0
  -23.8148  -10.4773   20.9193 C   0  0  0  0  0  0  0  0  0  0  0  0
  -24.2667  -12.9607   21.2887 C   0  0  0  0  0  0  0  0  0  0  0  0
  -28.3765  -33.9732   18.6612 C   0  0  0  0  0  0  0  0  0  0  0  0
  -27.1199  -27.4540   18.9694 C   0  0  0  0  0  0  0  0  0  0  0  0
  -28.4699  -32.7286   19.3129 C   0  0  0  0  0  0  0  0  0  0  0  0
  -26.7668  -26.8133   20.1656 C   0  0  0  0  0  0  0  0  0  0  0  0
  -29.7126  -18.3959   21.8490 C   0  0  0  0  0  0  0  0  0  0  0  0
  -30.8947  -17.6983   21.6008 C   0  0  0  0  0  0  0  0  0  0  0  0
  -30.4026  -20.1164   20.2996 C   0  0  0  0  0  0  0  0  0  0  0  0
  -22.2834   -8.1534   21.1111 C   0  0  0  0  0  0  0  0  0  0  0  0
  -28.7980  -25.4835   20.0384 C   0  0  0  0  0  0  0  0  0  0  0  0
  -20.9294   -6.7476   22.4197 C   0  0  0  0  0  0  0  0  0  0  0  0
  -19.7062   -6.2034   24.8672 C   0  0  0  0  0  0  0  0  0  0  0  0
  -31.8308  -18.2097   20.7019 C   0  0  0  0  0  0  0  0  0  0  0  0
  -21.2344   -5.5720   23.1057 C   0  0  0  0  0  0  0  0  0  0  0  0
  -24.6064  -11.6772   20.8205 C   0  0  0  0  0  0  0  0  0  0  0  0
  -25.3436  -13.7445   20.9536 C   0  0  0  0  0  0  0  0  0  0  0  0
  -30.5778  -22.3951   20.2506 C   0  0  0  0  0  0  0  0  0  0  0  0
  -23.0835  -13.4046   21.9660 C   0  0  0  0  0  0  0  0  0  0  0  0
  -26.0137  -30.1376   20.2650 C   0  0  0  0  0  0  0  0  0  0  0  0
  -23.3114  -28.3828   20.6400 C   0  0  0  0  0  0  0  0  0  0  0  0
  -21.8752  -25.3004   20.9280 C   0  0  0  0  0  0  0  0  0  0  0  0
  -30.8545  -14.5694   20.6463 C   0  0  0  0  0  0  0  0  0  0  0  0
  -27.2150  -34.9062   18.8956 C   0  0  0  0  0  0  0  0  0  0  0  0
  -26.2145  -28.4922   18.3654 C   0  0  0  0  0  0  0  0  0  0  0  0
  -25.4998  -27.1554   20.9045 C   0  0  0  0  0  0  0  0  0  0  0  0
  -25.9990  -34.2215   19.5145 C   0  0  0  0  0  0  0  0  0  0  0  0
  -29.3191  -12.7797   17.9786 C   0  0  0  0  0  0  0  0  0  0  0  0
  -26.4216  -33.3377   20.6837 C   0  0  0  0  0  0  0  0  0  0  0  0
  -27.9312  -12.4341   18.5211 C   0  0  0  0  0  0  0  0  0  0  0  0
  -30.3841  -12.7161   19.0713 C   0  0  0  0  0  0  0  0  0  0  0  0
  -28.7023  -13.1777   20.8127 C   0  0  0  0  0  0  0  0  0  0  0  0
  -27.3683  -32.2242   20.2196 C   0  0  1  0  0  0  0  0  0  0  0  0
  -25.2947  -29.1512   19.3888 C   0  0  1  0  0  0  0  0  0  0  0  0
  -27.5860  -13.2828   19.7596 C   0  0  2  0  0  0  0  0  0  0  0  0
  -28.6956  -17.8683   22.8071 C   0  0  0  0  0  0  0  0  0  0  0  0
  -19.6514  -24.1868   21.2625 C   0  0  0  0  0  0  0  0  0  0  0  0
  -23.3797  -29.1395   23.5951 C   0  0  0  0  0  0  0  0  0  0  0  0
  -21.7555  -27.2858   24.0356 C   0  0  0  0  0  0  0  0  0  0  0  0
  -21.1043  -29.1874   22.5582 C   0  0  0  0  0  0  0  0  0  0  0  0
  -22.0642  -23.8841   18.3362 C   0  0  0  0  0  0  0  0  0  0  0  0
  -31.1772  -16.4025   22.2878 C   0  0  0  0  0  0  0  0  0  0  0  0
  -30.3793  -23.7516   19.6434 C   0  0  0  0  0  0  0  0  0  1  0  0
  -22.7657  -27.4771   21.7174 C   0  0  1  0  0  0  0  0  0  0  0  0
  -20.6671  -24.6843   20.2458 C   0  0  2  0  0  0  0  0  0  0  0  0
  -22.2762  -28.2671   22.9639 C   0  0  0  0  0  0  0  0  0  0  0  0
  -25.8052  -11.6434   20.2327 N   0  0  0  0  0  0  0  0  0  0  0  0
  -30.1555  -21.3344   19.6439 N   0  0  0  0  0  0  0  0  0  0  0  0
  -26.2283  -12.9153   20.3291 N   0  0  0  0  0  0  0  0  0  0  0  0
  -24.6506  -28.1814   20.2769 N   0  0  0  0  0  0  0  0  0  0  0  0
  -29.9967  -13.5435   20.2164 N   0  0  0  0  0  0  0  0  0  0  0  0
  -25.6106  -15.0553   21.1351 N   0  0  0  0  0  0  0  0  0  0  0  0
  -22.0749  -12.4685   22.2320 N   0  0  0  0  0  0  0  0  0  0  0  0
  -26.6241  -31.1654   19.5718 N   0  0  0  0  0  0  0  0  0  0  0  0
  -21.7345  -26.6632   21.0830 N   0  0  0  0  0  0  0  0  0  0  0  0
  -30.4087  -15.3100   21.7341 N   0  0  0  0  0  0  0  0  0  0  0  0
  -21.0833  -23.5334   19.3954 N   0  3  0  0  0  0  0  0  0  0  0  0
  -22.9183  -14.5995   22.3100 O   0  0  0  0  0  0  0  0  0  0  0  0
  -26.0133  -29.9789   21.4801 O   0  0  0  0  0  0  0  0  0  0  0  0
  -22.5745  -29.2327   20.1339 O   0  0  0  0  0  0  0  0  0  0  0  0
  -22.8451  -24.6383   21.2907 O   0  0  0  0  0  0  0  0  0  0  0  0
  -31.9351  -14.8111   20.0976 O   0  0  0  0  0  0  0  0  0  0  0  0
  -21.5363   -7.0196   21.2051 O   0  0  0  0  0  0  0  0  0  0  0  0
  -29.6134  -24.5287   20.5631 O   0  0  0  0  0  0  0  0  0  1  0  0
  -19.1200   -5.9429   26.0431 F   0  0  0  0  0  0  0  0  0  0  0  0
  -32.9700  -17.5472   20.4564 F   0  0  0  0  0  0  0  0  0  0  0  0
  -22.1151   -4.7007   22.5946 F   0  0  0  0  0  0  0  0  0  0  0  0
  1  2  1  0  0  0  0
  1  5  2  0  0  0  0
  2  6  2  0  0  0  0
  3  8  2  0  0  0  0
  3 17  1  0  0  0  0
  4  9  1  0  0  0  0
  4 17  2  0  0  0  0
  5 19  1  0  0  0  0
  6 21  1  0  0  0  0
  7 10  2  0  0  0  0
  7 20  1  0  0  0  0
  8 26  1  0  0  0  0
  9 26  2  0  0  0  0
 10 27  1  0  0  0  0
 11 12  2  0  0  0  0
 11 28  1  0  0  0  0
 12 29  1  0  0  0  0
 13 22  1  0  0  0  0
 13 27  2  0  0  0  0
 14 23  2  0  0  0  0
 14 25  1  0  0  0  0
 15 25  2  0  0  0  0
 15 30  1  0  0  0  0
 16 29  2  0  0  0  0
 16 31  1  0  0  0  0
 17 32  1  0  0  0  0
 18 32  1  0  0  0  0
 18 33  2  0  0  0  0
 18 35  1  0  0  0  0
 19 21  2  0  0  0  0
 19 40  1  0  0  0  0
 20 22  2  0  0  0  0
 20 41  1  0  0  0  0
 21 49  1  0  0  0  0
 22 42  1  0  0  0  0
 23 24  1  0  0  0  0
 23 52  1  0  0  0  0
 24 30  2  0  0  0  0
 24 58  1  0  0  0  0
 25 64  1  0  0  0  0
 26 79  1  0  0  0  0
 27 80  1  0  0  0  0
 28 31  2  0  0  0  0
 28 79  1  0  0  0  0
 29 81  1  0  0  0  0
 30 82  1  0  0  0  0
 31 83  1  0  0  0  0
 32 63  2  0  0  0  0
 33 65  1  0  0  0  0
 33 68  1  0  0  0  0
 34 59  1  0  0  0  0
 34 64  2  0  0  0  0
 35 69  1  0  0  0  0
 35 74  2  0  0  0  0
 36 50  1  0  0  0  0
 36 70  1  0  0  0  0
 36 75  2  0  0  0  0
 37 60  1  0  0  0  0
 37 66  1  0  0  0  0
 37 76  2  0  0  0  0
 38 61  1  0  0  0  0
 38 71  1  0  0  0  0
 38 77  2  0  0  0  0
 39 67  1  0  0  0  0
 39 72  1  0  0  0  0
 39 78  2  0  0  0  0
 40 43  1  0  0  0  0
 41 50  1  0  0  0  0
 42 66  1  0  0  0  0
 43 45  1  0  0  0  0
 44 46  1  0  0  0  0
 44 47  1  0  0  0  0
 45 49  1  0  0  0  0
 46 51  1  0  0  0  0
 47 67  1  0  0  0  0
 48 51  1  0  0  0  0
 48 67  1  0  0  0  0
 49 70  1  0  0  0  0
 50 66  1  0  0  0  0
 51 65  1  0  0  0  0
 53 61  1  0  0  0  0
 54 62  1  0  0  0  0
 55 62  1  0  0  0  0
 56 62  1  0  0  0  0
 57 73  1  0  0  0  0
 58 72  1  0  0  0  0
 59 80  1  0  0  0  0
 60 62  1  0  0  0  0
 60 71  1  0  0  0  0
 61 73  1  0  0  0  0
 63 65  1  0  0  0  0
M  CHG  1  73   1
M  ISO  4  39 100  59 101  72 100  80 101
M  END
> <Batch ID>
0119

> <Smiles>
CNC(C)C(=O)NC(C(=O)N1Cc2cc([101O:1][101CH:1]=CNc3cc(C)c(C[100NH:0][100C:0](=O)N4CCCC(n5nc(-c6ccc(Oc7ccc(F)cc7F)cc6)c(C(N)=O)c5N)C4)c(F)c3)ccc2CC1C(=O)NC1CCCc2ccccc21)C(C)(C)C

> <Shape>
0.316

> <Color>
0.186

> <Negative vol penalty>
0.000

$$$$

  -OEChem-04052301513D

 88 97  0     1  0  0  0  0  0999 V2000
  -16.5595  -29.0360   23.2536 C   0  0  0  0  0  0  0  0  0  0  0  0
  -17.2181  -29.2801   22.0527 C   0  0  0  0  0  0  0  0  0  0  0  0
  -29.5380  -18.2360   19.8744 C   0  0  0  0  0  0  0  0  0  0  0  0
  -27.9737  -18.5168   21.6940 C   0  0  0  0  0  0  0  0  0  0  0  0
  -17.1699  -29.3686   24.4622 C   0  0  0  0  0  0  0  0  0  0  0  0
  -18.4871  -29.8579   22.0597 C   0  0  0  0  0  0  0  0  0  0  0  0
  -25.1722  -27.2837   18.9437 C   0  0  0  0  0  0  0  0  0  0  0  0
  -29.0038  -16.9751   19.6096 C   0  0  0  0  0  0  0  0  0  0  0  0
  -27.4394  -17.2558   21.4292 C   0  0  0  0  0  0  0  0  0  0  0  0
  -26.4476  -26.8572   18.5726 C   0  0  0  0  0  0  0  0  0  0  0  0
  -29.2373  -13.8536   20.8849 C   0  0  0  0  0  0  0  0  0  0  0  0
  -30.1306  -12.8073   20.6553 C   0  0  0  0  0  0  0  0  0  0  0  0
  -34.2509  -25.9319   19.0322 C   0  0  0  0  0  0  0  0  0  0  0  0
  -36.5865  -26.5353   18.8999 C   0  0  0  0  0  0  0  0  0  0  0  0
  -27.4200  -28.1954   20.3366 C   0  0  0  0  0  0  0  0  0  0  0  0
  -35.0669  -27.1953   17.1414 C   0  0  0  0  0  0  0  0  0  0  0  0
  -29.1864  -12.4840   18.4550 C   0  0  0  0  0  0  0  0  0  0  0  0
  -29.0230  -19.0069   20.9167 C   0  0  0  0  0  0  0  0  0  0  0  0
  -35.5359  -25.9131   19.5743 C   0  0  0  0  0  0  0  0  0  0  0  0
  -29.1614  -21.5397   20.6461 C   0  0  0  0  0  0  0  0  0  0  0  0
  -18.4511  -29.9419   24.4844 C   0  0  0  0  0  0  0  0  0  0  0  0
  -25.0145  -28.1566   20.0238 C   0  0  0  0  0  0  0  0  0  0  0  0
  -19.1147  -30.1997   23.2697 C   0  0  0  0  0  0  0  0  0  0  0  0
  -26.1440  -28.6162   20.7208 C   0  0  0  0  0  0  0  0  0  0  0  0
  -34.0163  -26.5730   17.8158 C   0  0  0  0  0  0  0  0  0  0  0  0
  -27.9544  -16.4849   20.3870 C   0  0  0  0  0  0  0  0  0  0  0  0
  -27.5687  -27.3122   19.2672 C   0  0  0  0  0  0  0  0  0  0  0  0
  -28.3184  -14.2151   19.8996 C   0  0  0  0  0  0  0  0  0  0  0  0
  -36.3520  -27.1765   17.6835 C   0  0  0  0  0  0  0  0  0  0  0  0
  -30.1052  -12.1225   19.4404 C   0  0  0  0  0  0  0  0  0  0  0  0
  -28.2931  -13.5303   18.6847 C   0  0  0  0  0  0  0  0  0  0  0  0
  -29.5748  -20.3093   21.1911 C   0  0  0  0  0  0  0  0  0  0  0  0
  -29.9953  -22.4674   21.2210 C   0  0  0  0  0  0  0  0  0  0  0  0
  -30.4336  -26.7922   17.1659 C   0  0  0  0  0  0  0  0  0  0  0  0
  -35.7839  -25.2350   20.8590 C   0  0  0  0  0  0  0  0  0  0  0  0
  -29.2348  -27.1599   17.6321 C   0  0  0  0  0  0  0  0  0  1  0  0
  -28.1170  -21.8192   19.7044 C   0  0  0  0  0  0  0  0  0  0  0  0
  -22.6503  -30.0912   22.2017 C   0  0  0  0  0  0  0  0  0  0  0  0
  -24.8127  -28.9324   24.0434 C   0  0  0  0  0  0  0  0  0  0  0  0
  -27.1369  -27.1312   25.7728 C   0  0  0  0  0  0  0  0  0  0  0  0
  -35.1404  -24.0346   22.7127 C   0  0  0  0  0  0  0  0  0  0  0  0
  -19.0507  -30.3277   25.8134 C   0  0  0  0  0  0  0  0  0  0  0  0
  -23.6647  -28.6903   20.4198 C   0  0  0  0  0  0  0  0  0  0  0  0
  -25.9291  -29.5817   21.8542 C   0  0  0  0  0  0  0  0  0  0  0  0
  -30.9385  -27.0676   15.7854 C   0  0  0  0  0  0  0  0  0  0  0  0
  -20.5528  -30.5921   25.7502 C   0  0  0  0  0  0  0  0  0  0  0  0
  -33.2509  -22.0547   25.0610 C   0  0  0  0  0  0  0  0  0  0  0  0
  -20.8886  -31.4810   24.5570 C   0  0  0  0  0  0  0  0  0  0  0  0
  -32.1117  -21.4975   24.2076 C   0  0  0  0  0  0  0  0  0  0  0  0
  -32.4372  -27.2493   16.0035 C   0  0  0  0  0  0  0  0  0  0  0  0
  -34.5446  -22.1713   24.2609 C   0  0  0  0  0  0  0  0  0  0  0  0
  -33.2680  -22.4178   22.1495 C   0  0  0  0  0  0  0  0  0  0  0  0
  -20.5025  -30.8022   23.2373 C   0  0  1  0  0  0  0  0  0  0  0  0
  -31.5286  -26.1551   17.9826 C   0  0  1  0  0  0  0  0  0  0  0  0
  -23.5191  -28.8966   21.9382 C   0  0  1  0  0  0  0  0  0  0  0  0
  -31.9379  -22.3154   22.9153 C   0  0  1  0  0  0  0  0  0  0  0  0
  -31.3996  -24.6330   17.9551 C   0  0  0  0  0  0  0  0  0  0  0  0
  -38.6954  -27.8384   15.0267 C   0  0  0  0  0  0  0  0  0  0  0  0
  -27.9439  -26.6822   28.1061 C   0  0  0  0  0  0  0  0  0  0  0  0
  -26.2054  -31.6459   24.0800 C   0  0  0  0  0  0  0  0  0  0  0  0
  -27.6979  -30.7760   25.8922 C   0  0  0  0  0  0  0  0  0  0  0  0
  -25.2384  -30.9396   26.2755 C   0  0  0  0  0  0  0  0  0  0  0  0
  -26.5006  -24.2485   25.5625 C   0  0  0  0  0  0  0  0  0  0  0  0
  -37.2948  -27.8326   15.6011 C   0  0  0  0  0  0  0  0  0  0  0  0
  -26.1360  -29.1489   24.7328 C   0  0  1  0  0  0  0  0  0  0  0  0
  -27.0136  -26.2328   26.9902 C   0  0  2  0  0  0  0  0  0  0  0  0
  -26.3177  -30.6142   25.2201 C   0  0  0  0  0  0  0  0  0  0  0  0
  -30.5924  -20.4400   22.0463 N   0  0  0  0  0  0  0  0  0  0  0  0
  -34.8351  -24.6495   21.5135 N   0  0  0  0  0  0  0  0  0  0  0  0
  -30.8254  -21.7636   22.0431 N   0  0  0  0  0  0  0  0  0  0  0  0
  -32.7407  -26.5911   17.2774 N   0  0  3  0  0  0  0  0  0  0  0  0
  -24.7745  -29.1588   22.6622 N   0  0  0  0  0  0  0  0  0  0  0  0
  -34.3325  -22.9258   23.0249 N   0  0  0  0  0  0  0  0  0  0  0  0
  -30.0923  -23.8083   21.0984 N   0  0  0  0  0  0  0  0  0  0  0  0
  -27.3557  -20.7494   19.2140 N   0  0  0  0  0  0  0  0  0  0  0  0
  -21.4821  -29.7988   22.8795 N   0  0  0  0  0  0  0  0  0  0  0  0
  -26.2105  -28.1522   25.7956 N   0  0  0  0  0  0  0  0  0  0  0  0
  -27.3536  -24.8265   26.6327 N   0  3  0  0  0  0  0  0  0  0  0  0
  -27.8769  -22.9810   19.2971 O   0  0  0  0  0  0  0  0  0  0  0  0
  -23.0128  -31.1979   21.8201 O   0  0  0  0  0  0  0  0  0  0  0  0
  -23.8363  -28.5777   24.7099 O   0  0  0  0  0  0  0  0  0  0  0  0
  -27.9740  -26.9479   24.8917 O   0  0  0  0  0  0  0  0  0  0  0  0
  -36.0461  -24.4042   23.4638 O   0  0  0  0  0  0  0  0  0  0  0  0
  -27.4327  -15.2546   20.1287 O   0  0  0  0  0  0  0  0  0  0  0  0
  -28.8105  -26.8884   18.9025 O   0  0  0  0  0  0  0  0  0  1  0  0
  -37.3766  -27.7841   17.0246 O   0  0  0  0  0  0  0  0  0  0  0  0
  -30.9642  -11.1187   19.2194 F   0  0  0  0  0  0  0  0  0  0  0  0
  -27.4134  -13.8738   17.7338 F   0  0  0  0  0  0  0  0  0  0  0  0
  1  2  1  0  0  0  0
  1  5  2  0  0  0  0
  2  6  2  0  0  0  0
  3  8  2  0  0  0  0
  3 18  1  0  0  0  0
  4  9  1  0  0  0  0
  4 18  2  0  0  0  0
  5 21  1  0  0  0  0
  6 23  1  0  0  0  0
  7 10  2  0  0  0  0
  7 22  1  0  0  0  0
  8 26  1  0  0  0  0
  9 26  2  0  0  0  0
 10 27  1  0  0  0  0
 11 12  2  0  0  0  0
 11 28  1  0  0  0  0
 12 30  1  0  0  0  0
 13 19  1  0  0  0  0
 13 25  2  0  0  0  0
 14 19  2  0  0  0  0
 14 29  1  0  0  0  0
 15 24  1  0  0  0  0
 15 27  2  0  0  0  0
 16 25  1  0  0  0  0
 16 29  2  0  0  0  0
 17 30  2  0  0  0  0
 17 31  1  0  0  0  0
 18 32  1  0  0  0  0
 19 35  1  0  0  0  0
 20 32  1  0  0  0  0
 20 33  2  0  0  0  0
 20 37  1  0  0  0  0
 21 23  2  0  0  0  0
 21 42  1  0  0  0  0
 22 24  2  0  0  0  0
 22 43  1  0  0  0  0
 23 53  1  0  0  0  0
 24 44  1  0  0  0  0
 25 71  1  0  0  0  0
 26 84  1  0  0  0  0
 27 85  1  0  0  0  0
 28 31  2  0  0  0  0
 28 84  1  0  0  0  0
 29 86  1  0  0  0  0
 30 87  1  0  0  0  0
 31 88  1  0  0  0  0
 32 68  2  0  0  0  0
 33 70  1  0  0  0  0
 33 74  1  0  0  0  0
 34 36  2  0  0  0  0
 34 45  1  0  0  0  0
 34 54  1  0  0  0  0
 35 69  2  0  0  0  0
 36 85  1  0  0  0  0
 37 75  1  0  0  0  0
 37 79  2  0  0  0  0
 38 55  1  0  0  0  0
 38 76  1  0  0  0  0
 38 80  2  0  0  0  0
 39 65  1  0  0  0  0
 39 72  1  0  0  0  0
 39 81  2  0  0  0  0
 40 66  1  0  0  0  0
 40 77  1  0  0  0  0
 40 82  2  0  0  0  0
 41 69  1  0  0  0  0
 41 73  1  0  0  0  0
 41 83  2  0  0  0  0
 42 46  1  0  0  0  0
 43 55  1  0  0  0  0
 44 72  1  0  0  0  0
 45 50  1  0  0  0  0
 46 48  1  0  0  0  0
 47 49  1  0  0  0  0
 47 51  1  0  0  0  0
 48 53  1  0  0  0  0
 49 56  1  0  0  0  0
 50 71  1  0  0  0  0
 51 73  1  0  0  0  0
 52 56  1  0  0  0  0
 52 73  1  0  0  0  0
 53 76  1  0  0  0  0
 54 57  1  0  0  0  0
 54 71  1  0  0  0  0
 55 72  1  0  0  0  0
 56 70  1  0  0  0  0
 58 64  1  0  0  0  0
 59 66  1  0  0  0  0
 60 67  1  0  0  0  0
 61 67  1  0  0  0  0
 62 67  1  0  0  0  0
 63 78  1  0  0  0  0
 64 86  1  0  0  0  0
 65 67  1  0  0  0  0
 65 77  1  0  0  0  0
 66 78  1  0  0  0  0
 68 70  1  0  0  0  0
M  CHG  1  78   1
M  ISO  4  36 101  41 100  69 100  85 101
M  END
> <Batch ID>
0119

> <Smiles>
CCOc1cc(C=[100N:0][100C:0](=O)N2CCCC(n3nc(-c4ccc(Oc5ccc(F)cc5F)cc4)c(C(N)=O)c3N)C2)cc(N2CCC(=[101CH:1][101O:1]c3ccc4c(c3)CN(C(=O)C(NC(=O)C(C)NC)C(C)(C)C)C(C(=O)NC3CCCc5ccccc53)C4)C2C)c1

> <Shape>
0.249

> <Color>
0.087

> <Negative vol penalty>
0.000

$$$$

  -OEChem-04052301513D

 86 94  0     1  0  0  0  0  0999 V2000
  -19.2568  -29.8762   15.0500 C   0  0  0  0  0  0  0  0  0  0  0  0
  -20.1857  -29.1326   15.7707 C   0  0  0  0  0  0  0  0  0  0  0  0
  -22.9773   -9.9425   19.9933 C   0  0  0  0  0  0  0  0  0  0  0  0
  -23.7172   -9.9743   22.2930 C   0  0  0  0  0  0  0  0  0  0  0  0
  -31.4620  -19.2695   19.1054 C   0  0  0  0  0  0  0  0  0  0  0  0
  -18.2651  -30.5901   15.7215 C   0  0  0  0  0  0  0  0  0  0  0  0
  -20.1242  -29.1032   17.1635 C   0  0  0  0  0  0  0  0  0  0  0  0
  -20.6983  -24.4330   19.0355 C   0  0  0  0  0  0  0  0  0  0  0  0
  -31.6792  -18.2288   20.0083 C   0  0  0  0  0  0  0  0  0  0  0  0
  -22.1953   -8.8189   20.2604 C   0  0  0  0  0  0  0  0  0  0  0  0
  -22.9351   -8.8507   22.5601 C   0  0  0  0  0  0  0  0  0  0  0  0
  -21.9949  -23.9235   19.0893 C   0  0  0  0  0  0  0  0  0  0  0  0
  -23.1257   -5.5101   22.0753 C   0  0  0  0  0  0  0  0  0  0  0  0
  -23.7022   -4.4815   22.8203 C   0  0  0  0  0  0  0  0  0  0  0  0
  -22.1091  -24.4780   21.4342 C   0  0  0  0  0  0  0  0  0  0  0  0
  -29.4667  -18.5587   20.9209 C   0  0  0  0  0  0  0  0  0  0  0  0
  -21.9924   -4.7446   24.5069 C   0  0  0  0  0  0  0  0  0  0  0  0
  -23.7384  -10.5202   21.0096 C   0  0  0  0  0  0  0  0  0  0  0  0
  -30.2471  -19.9550   19.1103 C   0  0  0  0  0  0  0  0  0  0  0  0
  -24.1608  -13.0303   20.8398 C   0  0  0  0  0  0  0  0  0  0  0  0
  -18.1855  -30.5618   17.1227 C   0  0  0  0  0  0  0  0  0  0  0  0
  -20.1003  -24.9797   20.1801 C   0  0  0  0  0  0  0  0  0  0  0  0
  -19.1313  -29.8185   17.8544 C   0  0  0  0  0  0  0  0  0  0  0  0
  -20.8038  -24.9915   21.3929 C   0  0  0  0  0  0  0  0  0  0  0  0
  -30.6816  -17.8733   20.9160 C   0  0  0  0  0  0  0  0  0  0  0  0
  -22.1741   -8.2730   21.5438 C   0  0  0  0  0  0  0  0  0  0  0  0
  -22.7016  -23.9486   20.2880 C   0  0  0  0  0  0  0  0  0  0  0  0
  -21.9825   -6.1561   22.5461 C   0  0  0  0  0  0  0  0  0  0  0  0
  -29.2495  -19.5995   20.0180 C   0  0  0  0  0  0  0  0  0  0  0  0
  -23.1356   -4.0987   24.0360 C   0  0  0  0  0  0  0  0  0  0  0  0
  -21.4159   -5.7734   23.7618 C   0  0  0  0  0  0  0  0  0  0  0  0
  -24.5469  -11.6806   20.7341 C   0  0  0  0  0  0  0  0  0  0  0  0
  -25.2792  -13.7372   20.4711 C   0  0  0  0  0  0  0  0  0  0  0  0
  -30.0640  -20.8737   16.8437 C   0  0  0  0  0  0  0  0  0  0  0  0
  -30.0452  -21.0385   18.1581 C   0  0  0  0  0  0  0  0  0  0  0  0
  -22.9037  -13.5945   21.2360 C   0  0  0  0  0  0  0  0  0  0  0  0
  -18.9907  -27.8495   20.9779 C   0  0  0  0  0  0  0  0  0  0  0  0
  -25.3608  -21.4936   20.0379 C   0  0  0  0  0  0  0  0  0  0  0  0
  -18.0040  -26.2955   23.6488 C   0  0  0  0  0  0  0  0  0  0  0  0
  -18.3966  -23.6568   25.7772 C   0  0  0  0  0  0  0  0  0  0  0  0
  -30.7906  -14.5873   20.6892 C   0  0  0  0  0  0  0  0  0  0  0  0
  -17.1247  -31.3876   17.8064 C   0  0  0  0  0  0  0  0  0  0  0  0
  -18.6910  -25.5009   20.1118 C   0  0  0  0  0  0  0  0  0  0  0  0
  -20.1995  -25.5489   22.6549 C   0  0  0  0  0  0  0  0  0  0  0  0
  -16.9001  -31.0027   19.2665 C   0  0  0  0  0  0  0  0  0  0  0  0
  -29.5989  -12.1895   18.3425 C   0  0  0  0  0  0  0  0  0  0  0  0
  -18.2343  -30.8556   19.9911 C   0  0  0  0  0  0  0  0  0  0  0  0
  -28.1492  -11.9503   18.7680 C   0  0  0  0  0  0  0  0  0  0  0  0
  -30.5122  -12.4069   19.5470 C   0  0  0  0  0  0  0  0  0  0  0  0
  -28.6225  -13.2266   20.9001 C   0  0  0  0  0  0  0  0  0  0  0  0
  -19.0823  -29.7419   19.3649 C   0  0  1  0  0  0  0  0  0  0  0  0
  -18.3701  -26.5022   21.2172 C   0  0  1  0  0  0  0  0  0  0  0  0
  -27.6536  -13.0577   19.7174 C   0  0  2  0  0  0  0  0  0  0  0  0
  -17.4666  -22.6763   27.8917 C   0  0  0  0  0  0  0  0  0  0  0  0
  -19.4651  -28.4236   25.2754 C   0  0  0  0  0  0  0  0  0  0  0  0
  -19.3188  -26.9064   27.2616 C   0  0  0  0  0  0  0  0  0  0  0  0
  -17.2341  -27.7603   26.1904 C   0  0  0  0  0  0  0  0  0  0  0  0
  -17.5939  -21.1610   24.4040 C   0  0  0  0  0  0  0  0  0  0  0  0
  -30.9137  -16.7605   21.8813 C   0  0  0  0  0  0  0  0  0  0  0  0
  -25.7962  -20.3259   19.1650 C   0  0  0  0  0  0  0  0  0  0  0  0
  -24.2875  -22.3879   19.4484 C   0  0  0  0  0  0  0  0  0  1  0  0
  -26.8840  -19.4762   19.8060 C   0  0  0  0  0  0  0  0  0  0  0  0
  -18.6089  -26.0034   25.0007 C   0  0  1  0  0  0  0  0  0  0  0  0
  -17.3937  -22.6851   26.3727 C   0  0  2  0  0  0  0  0  0  0  0  0
  -18.6691  -27.2646   25.9080 C   0  0  0  0  0  0  0  0  0  0  0  0
  -25.8117  -11.5362   20.3297 N   0  0  0  0  0  0  0  0  0  0  0  0
  -26.2300  -12.8043   20.1780 N   0  0  0  0  0  0  0  0  0  0  0  0
  -18.8211  -26.0524   22.5357 N   0  0  0  0  0  0  0  0  0  0  0  0
  -29.9867  -13.4708   20.4060 N   0  0  0  0  0  0  0  0  0  0  0  0
  -25.5322  -15.0596   20.3722 N   0  0  0  0  0  0  0  0  0  0  0  0
  -21.8607  -12.7250   21.5828 N   0  0  0  0  0  0  0  0  0  0  0  0
  -18.6057  -28.4435   19.7911 N   0  0  0  0  0  0  0  0  0  0  0  0
  -17.8385  -24.8993   25.5627 N   0  0  0  0  0  0  0  0  0  0  0  0
  -30.2138  -15.5521   21.5060 N   0  0  0  0  0  0  0  0  0  0  0  0
  -17.6571  -21.3030   25.8814 N   0  3  0  0  0  0  0  0  0  0  0  0
  -22.7060  -14.8329   21.2653 O   0  0  0  0  0  0  0  0  0  0  0  0
  -19.7606  -28.3163   21.8092 O   0  0  0  0  0  0  0  0  0  0  0  0
  -25.8400  -21.7051   21.1508 O   0  0  0  0  0  0  0  0  0  0  0  0
  -16.8465  -26.7168   23.5824 O   0  0  0  0  0  0  0  0  0  0  0  0
  -19.5598  -23.3459   25.5307 O   0  0  0  0  0  0  0  0  0  0  0  0
  -31.9354  -14.7173   20.2426 O   0  0  0  0  0  0  0  0  0  0  0  0
  -21.4109   -7.1767   21.8049 O   0  0  0  0  0  0  0  0  0  0  0  0
  -23.9676  -23.4526   20.3431 O   0  0  0  0  0  0  0  0  0  1  0  0
  -28.0480  -20.2577   20.0449 O   0  0  0  0  0  0  0  0  0  0  0  0
  -23.6885   -3.1098   24.7506 F   0  0  0  0  0  0  0  0  0  0  0  0
  -20.3171   -6.3894   24.2187 F   0  0  0  0  0  0  0  0  0  0  0  0
  1  2  1  0  0  0  0
  1  6  2  0  0  0  0
  2  7  2  0  0  0  0
  3 10  2  0  0  0  0
  3 18  1  0  0  0  0
  4 11  1  0  0  0  0
  4 18  2  0  0  0  0
  5  9  2  0  0  0  0
  5 19  1  0  0  0  0
  6 21  1  0  0  0  0
  7 23  1  0  0  0  0
  8 12  2  0  0  0  0
  8 22  1  0  0  0  0
  9 25  1  0  0  0  0
 10 26  1  0  0  0  0
 11 26  2  0  0  0  0
 12 27  1  0  0  0  0
 13 14  2  0  0  0  0
 13 28  1  0  0  0  0
 14 30  1  0  0  0  0
 15 24  1  0  0  0  0
 15 27  2  0  0  0  0
 16 25  2  0  0  0  0
 16 29  1  0  0  0  0
 17 30  2  0  0  0  0
 17 31  1  0  0  0  0
 18 32  1  0  0  0  0
 19 29  2  0  0  0  0
 19 35  1  0  0  0  0
 20 32  1  0  0  0  0
 20 33  2  0  0  0  0
 20 36  1  0  0  0  0
 21 23  2  0  0  0  0
 21 42  1  0  0  0  0
 22 24  2  0  0  0  0
 22 43  1  0  0  0  0
 23 51  1  0  0  0  0
 24 44  1  0  0  0  0
 25 59  1  0  0  0  0
 26 82  1  0  0  0  0
 27 83  1  0  0  0  0
 28 31  2  0  0  0  0
 28 82  1  0  0  0  0
 29 84  1  0  0  0  0
 30 85  1  0  0  0  0
 31 86  1  0  0  0  0
 32 66  2  0  0  0  0
 33 67  1  0  0  0  0
 33 70  1  0  0  0  0
 34 35  2  0  0  0  0
 36 71  1  0  0  0  0
 36 76  2  0  0  0  0
 37 52  1  0  0  0  0
 37 72  1  0  0  0  0
 37 77  2  0  0  0  0
 38 60  1  0  0  0  0
 38 61  1  0  0  0  0
 38 78  2  0  0  0  0
 39 63  1  0  0  0  0
 39 68  1  0  0  0  0
 39 79  2  0  0  0  0
 40 64  1  0  0  0  0
 40 73  1  0  0  0  0
 40 80  2  0  0  0  0
 41 69  1  0  0  0  0
 41 74  1  0  0  0  0
 41 81  2  0  0  0  0
 42 45  1  0  0  0  0
 43 52  1  0  0  0  0
 44 68  1  0  0  0  0
 45 47  1  0  0  0  0
 46 48  1  0  0  0  0
 46 49  1  0  0  0  0
 47 51  1  0  0  0  0
 48 53  1  0  0  0  0
 49 69  1  0  0  0  0
 50 53  1  0  0  0  0
 50 69  1  0  0  0  0
 51 72  1  0  0  0  0
 52 68  1  0  0  0  0
 53 67  1  0  0  0  0
 54 64  1  0  0  0  0
 55 65  1  0  0  0  0
 56 65  1  0  0  0  0
 57 65  1  0  0  0  0
 58 75  1  0  0  0  0
 59 74  1  0  0  0  0
 60 62  1  0  0  0  0
 61 83  1  0  0  0  0
 62 84  1  0  0  0  0
 63 65  1  0  0  0  0
 63 73  1  0  0  0  0
 64 75  1  0  0  0  0
 66 67  1  0  0  0  0
M  CHG  1  75   1
M  ISO  4  41 100  61 101  74 100  83 101
M  END
> <Batch ID>
0119

> <Smiles>
C=Cc1ccc(C[100NH:0][100C:0](=O)N2CCCC(n3nc(-c4ccc(Oc5ccc(F)cc5F)cc4)c(C(N)=O)c3N)C2)cc1OCCC(=O)[101CH2:1][101O:1]c1ccc2c(c1)CN(C(=O)C(NC(=O)C(C)NC)C(C)(C)C)C(C(=O)NC1CCCc3ccccc31)C2

> <Shape>
0.252

> <Color>
0.197

> <Negative vol penalty>
0.000

$$$$

  -OEChem-04052301513D

 86 94  0     1  0  0  0  0  0999 V2000
  -16.7201  -30.3538   23.7500 C   0  0  0  0  0  0  0  0  0  0  0  0
  -17.8873  -30.9065   24.2672 C   0  0  0  0  0  0  0  0  0  0  0  0
  -28.2827  -14.5688   21.1561 C   0  0  0  0  0  0  0  0  0  0  0  0
  -26.9777  -14.9473   19.1584 C   0  0  0  0  0  0  0  0  0  0  0  0
  -16.7728  -29.1551   23.0400 C   0  0  0  0  0  0  0  0  0  0  0  0
  -19.1079  -30.2601   24.0756 C   0  0  0  0  0  0  0  0  0  0  0  0
  -26.0741  -31.6470   23.1450 C   0  0  0  0  0  0  0  0  0  0  0  0
  -27.6432  -13.3433   21.3417 C   0  0  0  0  0  0  0  0  0  0  0  0
  -26.3381  -13.7217   19.3440 C   0  0  0  0  0  0  0  0  0  0  0  0
  -27.3200  -31.3017   23.6666 C   0  0  0  0  0  0  0  0  0  0  0  0
  -24.1050  -10.8578   19.4891 C   0  0  0  0  0  0  0  0  0  0  0  0
  -22.7200  -10.8184   19.3286 C   0  0  0  0  0  0  0  0  0  0  0  0
  -25.1746  -26.5360   26.2206 C   0  0  0  0  0  0  0  0  0  0  0  0
  -27.8520  -25.8403   25.8598 C   0  0  0  0  0  0  0  0  0  0  0  0
  -27.3010  -29.2767   22.3558 C   0  0  0  0  0  0  0  0  0  0  0  0
  -22.4679  -12.4337   21.1074 C   0  0  0  0  0  0  0  0  0  0  0  0
  -27.9500  -15.3709   20.0644 C   0  0  0  0  0  0  0  0  0  0  0  0
  -26.1814  -27.4438   26.5490 C   0  0  0  0  0  0  0  0  0  0  0  0
  -26.8452  -24.9325   25.5315 C   0  0  0  0  0  0  0  0  0  0  0  0
  -29.7914  -16.8787   19.1461 C   0  0  0  0  0  0  0  0  0  0  0  0
  -17.9960  -28.4986   22.8313 C   0  0  0  0  0  0  0  0  0  0  0  0
  -25.4262  -30.8029   22.2316 C   0  0  0  0  0  0  0  0  0  0  0  0
  -19.1769  -29.0508   23.3633 C   0  0  0  0  0  0  0  0  0  0  0  0
  -26.0480  -29.6148   21.8221 C   0  0  0  0  0  0  0  0  0  0  0  0
  -25.5065  -25.2803   25.7119 C   0  0  0  0  0  0  0  0  0  0  0  0
  -26.6709  -12.9197   20.4357 C   0  0  0  0  0  0  0  0  0  0  0  0
  -27.9324  -30.1151   23.2742 C   0  0  0  0  0  0  0  0  0  0  0  0
  -24.6715  -11.6851   20.4588 C   0  0  0  0  0  0  0  0  0  0  0  0
  -27.5201  -27.0960   26.3686 C   0  0  0  0  0  0  0  0  0  0  0  0
  -21.9014  -11.6063   20.1377 C   0  0  0  0  0  0  0  0  0  0  0  0
  -23.8529  -12.4731   21.2679 C   0  0  0  0  0  0  0  0  0  0  0  0
  -28.6099  -16.6373   19.8724 C   0  0  0  0  0  0  0  0  0  0  0  0
  -29.9981  -18.2312   19.2663 C   0  0  0  0  0  0  0  0  0  0  0  0
  -25.0330  -29.6080   26.4379 C   0  0  0  0  0  0  0  0  0  0  0  0
  -25.8093  -28.7482   27.0804 C   0  0  0  0  0  0  0  0  0  0  0  0
  -27.2238  -23.6289   25.0020 C   0  0  0  0  0  0  0  0  0  0  0  0
  -27.9474  -23.4210   23.8831 C   0  0  0  0  0  0  0  0  0  0  0  0
  -30.6273  -15.9623   18.4269 C   0  0  0  0  0  0  0  0  0  0  0  0
  -28.2592  -22.0347   23.4808 C   0  0  0  0  0  0  0  0  0  0  0  0
  -22.6886  -29.1875   22.2224 C   0  0  0  0  0  0  0  0  0  0  0  0
  -23.5228  -28.5555   19.1520 C   0  0  0  0  0  0  0  0  0  0  0  0
  -26.0003  -28.2765   16.8216 C   0  0  0  0  0  0  0  0  0  0  0  0
  -17.9966  -27.1807   22.0981 C   0  0  0  0  0  0  0  0  0  0  0  0
  -24.0945  -31.2027   21.6578 C   0  0  0  0  0  0  0  0  0  0  0  0
  -25.4035  -28.6840   20.8287 C   0  0  0  0  0  0  0  0  0  0  0  0
  -19.3806  -26.7518   21.6174 C   0  0  0  0  0  0  0  0  0  0  0  0
  -27.6641  -22.3462   19.8779 C   0  0  0  0  0  0  0  0  0  0  0  0
  -20.4092  -26.9231   22.7307 C   0  0  0  0  0  0  0  0  0  0  0  0
  -27.9060  -20.9119   19.4152 C   0  0  0  0  0  0  0  0  0  0  0  0
  -27.0364  -22.3997   21.2699 C   0  0  0  0  0  0  0  0  0  0  0  0
  -28.0487  -20.2104   21.8376 C   0  0  0  0  0  0  0  0  0  0  0  0
  -20.5234  -28.3922   23.1551 C   0  0  1  0  0  0  0  0  0  0  0  0
  -23.2932  -30.0184   21.1261 C   0  0  1  0  0  0  0  0  0  0  0  0
  -28.7231  -20.1339   20.4589 C   0  0  1  0  0  0  0  0  0  0  0  0
  -24.1505  -24.2576   23.8675 C   0  0  0  0  0  0  0  0  0  0  0  0
  -26.3783  -27.7086   14.4067 C   0  0  0  0  0  0  0  0  0  0  0  0
  -23.1547  -25.5952   19.7930 C   0  0  0  0  0  0  0  0  0  0  0  0
  -24.4321  -25.0565   17.7082 C   0  0  0  0  0  0  0  0  0  0  0  0
  -22.2727  -26.2966   17.5604 C   0  0  0  0  0  0  0  0  0  0  0  0
  -27.1109  -30.9584   16.2447 C   0  0  0  0  0  0  0  0  0  0  0  0
  -24.4022  -24.3323   25.3698 C   0  0  0  0  0  0  0  0  0  0  0  0
  -30.3704  -29.2377   25.7921 C   0  0  0  0  0  0  0  0  0  0  0  0
  -29.4526  -30.2328   25.0993 C   0  0  0  0  0  0  0  0  0  1  0  0
  -29.7258  -27.8669   25.9256 C   0  0  0  0  0  0  0  0  0  0  0  0
  -24.3199  -27.4754   18.4614 C   0  0  1  0  0  0  0  0  0  0  0  0
  -26.1217  -28.8220   15.4102 C   0  0  2  0  0  0  0  0  0  0  0  0
  -23.5564  -26.1223   18.4010 C   0  0  0  0  0  0  0  0  0  0  0  0
  -28.1017  -17.7474   20.4141 N   0  0  0  0  0  0  0  0  0  0  0  0
  -28.9681  -18.6994   20.0279 N   0  0  0  0  0  0  0  0  0  0  0  0
  -27.8034  -21.6005   22.2373 N   0  0  0  0  0  0  0  0  0  0  0  0
  -24.0987  -29.1157   20.3010 N   0  0  0  0  0  0  0  0  0  0  0  0
  -30.9586  -19.0538   18.7938 N   0  0  0  0  0  0  0  0  0  0  0  0
  -30.2692  -14.6074   18.4051 N   0  0  0  0  0  0  0  0  0  0  0  0
  -21.3080  -29.1365   22.1935 N   0  0  0  0  0  0  0  0  0  0  0  0
  -24.6890  -28.0120   17.1559 N   0  0  0  0  0  0  0  0  0  0  0  0
  -27.2450  -29.7979   15.3269 N   0  3  0  0  0  0  0  0  0  0  0  0
  -31.6701  -16.3313   17.8353 O   0  0  0  0  0  0  0  0  0  0  0  0
  -28.9010  -21.3433   24.2736 O   0  0  0  0  0  0  0  0  0  0  0  0
  -23.4206  -28.6325   23.0335 O   0  0  0  0  0  0  0  0  0  0  0  0
  -22.4326  -28.8948   18.6850 O   0  0  0  0  0  0  0  0  0  0  0  0
  -26.9720  -28.0989   17.5530 O   0  0  0  0  0  0  0  0  0  0  0  0
  -26.0468  -11.7237   20.6164 O   0  0  0  0  0  0  0  0  0  0  0  0
  -29.1483  -29.7754   23.7823 O   0  0  0  0  0  0  0  0  0  1  0  0
  -28.5287  -27.9686   26.6847 O   0  0  0  0  0  0  0  0  0  0  0  0
  -20.5715  -11.5696   19.9824 F   0  0  0  0  0  0  0  0  0  0  0  0
  -24.3914  -13.2707   22.2005 F   0  0  0  0  0  0  0  0  0  0  0  0
  1  2  1  0  0  0  0
  1  5  2  0  0  0  0
  2  6  2  0  0  0  0
  3  8  2  0  0  0  0
  3 17  1  0  0  0  0
  4  9  1  0  0  0  0
  4 17  2  0  0  0  0
  5 21  1  0  0  0  0
  6 23  1  0  0  0  0
  7 10  2  0  0  0  0
  7 22  1  0  0  0  0
  8 26  1  0  0  0  0
  9 26  2  0  0  0  0
 10 27  1  0  0  0  0
 11 12  2  0  0  0  0
 11 28  1  0  0  0  0
 12 30  1  0  0  0  0
 13 18  1  0  0  0  0
 13 25  2  0  0  0  0
 14 19  2  0  0  0  0
 14 29  1  0  0  0  0
 15 24  1  0  0  0  0
 15 27  2  0  0  0  0
 16 30  2  0  0  0  0
 16 31  1  0  0  0  0
 17 32  1  0  0  0  0
 18 29  2  0  0  0  0
 18 35  1  0  0  0  0
 19 25  1  0  0  0  0
 19 36  1  0  0  0  0
 20 32  1  0  0  0  0
 20 33  2  0  0  0  0
 20 38  1  0  0  0  0
 21 23  2  0  0  0  0
 21 43  1  0  0  0  0
 22 24  2  0  0  0  0
 22 44  1  0  0  0  0
 23 52  1  0  0  0  0
 24 45  1  0  0  0  0
 25 61  1  0  0  0  0
 26 82  1  0  0  0  0
 27 83  1  0  0  0  0
 28 31  2  0  0  0  0
 28 82  1  0  0  0  0
 29 84  1  0  0  0  0
 30 85  1  0  0  0  0
 31 86  1  0  0  0  0
 32 68  2  0  0  0  0
 33 69  1  0  0  0  0
 33 72  1  0  0  0  0
 34 35  2  0  0  0  0
 36 37  2  0  0  0  0
 37 39  1  0  0  0  0
 38 73  1  0  0  0  0
 38 77  2  0  0  0  0
 39 70  1  0  0  0  0
 39 78  2  0  0  0  0
 40 53  1  0  0  0  0
 40 74  1  0  0  0  0
 40 79  2  0  0  0  0
 41 65  1  0  0  0  0
 41 71  1  0  0  0  0
 41 80  2  0  0  0  0
 42 66  1  0  0  0  0
 42 75  1  0  0  0  0
 42 81  2  0  0  0  0
 43 46  1  0  0  0  0
 44 53  1  0  0  0  0
 45 71  1  0  0  0  0
 46 48  1  0  0  0  0
 47 49  1  0  0  0  0
 47 50  1  0  0  0  0
 48 52  1  0  0  0  0
 49 54  1  0  0  0  0
 50 70  1  0  0  0  0
 51 54  1  0  0  0  0
 51 70  1  0  0  0  0
 52 74  1  0  0  0  0
 53 71  1  0  0  0  0
 54 69  1  0  0  0  0
 55 61  1  0  0  0  0
 56 66  1  0  0  0  0
 57 67  1  0  0  0  0
 58 67  1  0  0  0  0
 59 67  1  0  0  0  0
 60 76  1  0  0  0  0
 62 63  1  0  0  0  0
 62 64  1  0  0  0  0
 63 83  1  0  0  0  0
 64 84  1  0  0  0  0
 65 67  1  0  0  0  0
 65 75  1  0  0  0  0
 66 76  1  0  0  0  0
 68 69  1  0  0  0  0
M  CHG  1  76   1
M  ISO  4  37 100  39 100  63 101  83 101
M  END
> <Batch ID>
0119

> <Smiles>
C=Cc1cc(CC)c(C=[100CH:0][100C:0](=O)N2CCCC(n3nc(-c4ccc(Oc5ccc(F)cc5F)cc4)c(C(N)=O)c3N)C2)cc1OCC[101CH2:1][101O:1]c1ccc2c(c1)CN(C(=O)C(NC(=O)C(C)NC)C(C)(C)C)C(C(=O)NC1CCCc3ccccc31)C2

> <Shape>
0.270

> <Color>
0.110

> <Negative vol penalty>
0.000

$$$$

  -OEChem-04052301513D

 84 93  0     1  0  0  0  0  0999 V2000
  -32.5749  -27.8098   30.8776 C   0  0  0  0  0  0  0  0  0  0  0  0
  -31.8596  -27.4964   29.7262 C   0  0  0  0  0  0  0  0  0  0  0  0
  -23.0729   -9.8674   19.9446 C   0  0  0  0  0  0  0  0  0  0  0  0
  -23.8344   -9.8786   22.2375 C   0  0  0  0  0  0  0  0  0  0  0  0
  -33.9316  -27.4992   30.9602 C   0  0  0  0  0  0  0  0  0  0  0  0
  -32.5010  -26.8731   28.6563 C   0  0  0  0  0  0  0  0  0  0  0  0
  -30.1020  -22.7377   24.8290 C   0  0  0  0  0  0  0  0  0  0  0  0
  -22.3298   -8.7143   20.1970 C   0  0  0  0  0  0  0  0  0  0  0  0
  -23.0912   -8.7255   22.4899 C   0  0  0  0  0  0  0  0  0  0  0  0
  -29.5639  -22.8469   23.5474 C   0  0  0  0  0  0  0  0  0  0  0  0
  -19.3829   -7.9186   21.6515 C   0  0  0  0  0  0  0  0  0  0  0  0
  -18.0758   -7.8709   21.1673 C   0  0  0  0  0  0  0  0  0  0  0  0
  -31.6931  -22.2146   22.6062 C   0  0  0  0  0  0  0  0  0  0  0  0
  -31.4977  -18.4956   19.9958 C   0  0  0  0  0  0  0  0  0  0  0  0
  -18.6356   -5.9260   19.8479 C   0  0  0  0  0  0  0  0  0  0  0  0
  -23.8253  -10.4495   20.9648 C   0  0  0  0  0  0  0  0  0  0  0  0
  -24.1657  -12.9746   20.8404 C   0  0  0  0  0  0  0  0  0  0  0  0
  -34.5877  -26.8631   29.8946 C   0  0  0  0  0  0  0  0  0  0  0  0
  -31.4449  -22.3762   25.0087 C   0  0  0  0  0  0  0  0  0  0  0  0
  -33.8680  -26.5549   28.7243 C   0  0  0  0  0  0  0  0  0  0  0  0
  -32.2451  -22.0991   23.8911 C   0  0  0  0  0  0  0  0  0  0  0  0
  -30.9374  -19.5612   19.2338 C   0  0  0  0  0  0  0  0  0  0  0  0
  -22.3389   -8.1433   21.4696 C   0  0  0  0  0  0  0  0  0  0  0  0
  -30.3602  -22.5881   22.4357 C   0  0  0  0  0  0  0  0  0  0  0  0
  -20.3165   -6.9700   21.2339 C   0  0  0  0  0  0  0  0  0  0  0  0
  -17.7020   -6.8746   20.2654 C   0  0  0  0  0  0  0  0  0  0  0  0
  -19.9428   -5.9737   20.3321 C   0  0  0  0  0  0  0  0  0  0  0  0
  -24.5936  -11.6404   20.7046 C   0  0  0  0  0  0  0  0  0  0  0  0
  -30.6070  -17.9965   20.9205 C   0  0  0  0  0  0  0  0  0  0  0  0
  -25.2573  -13.7241   20.4752 C   0  0  0  0  0  0  0  0  0  0  0  0
  -29.6395  -19.8359   19.6050 C   0  0  0  0  0  0  0  0  0  0  0  0
  -27.3530  -22.5312   18.7960 C   0  0  0  0  0  0  0  0  0  0  0  0
  -28.1714  -21.9120   19.6623 C   0  0  0  0  0  0  0  0  0  0  0  0
  -22.8953  -13.4905   21.2593 C   0  0  0  0  0  0  0  0  0  0  0  0
  -33.9938  -23.7796   26.2882 C   0  0  0  0  0  0  0  0  0  0  0  0
  -35.3757  -20.8983   25.7310 C   0  0  0  0  0  0  0  0  0  0  0  0
  -35.3989  -17.9943   23.9384 C   0  0  0  0  0  0  0  0  0  0  0  0
  -30.7406  -14.7462   20.6581 C   0  0  0  0  0  0  0  0  0  0  0  0
  -36.0663  -26.5899   30.0117 C   0  0  0  0  0  0  0  0  0  0  0  0
  -32.0029  -22.2368   26.3985 C   0  0  0  0  0  0  0  0  0  0  0  0
  -33.6872  -21.6877   24.0307 C   0  0  0  0  0  0  0  0  0  0  0  0
  -27.3549  -21.8376   17.4689 C   0  0  0  0  0  0  0  0  0  0  0  0
  -36.5847  -25.5912   28.9802 C   0  0  0  0  0  0  0  0  0  0  0  0
  -29.6026  -12.3572   18.2761 C   0  0  0  0  0  0  0  0  0  0  0  0
  -36.0537  -25.9335   27.5918 C   0  0  0  0  0  0  0  0  0  0  0  0
  -28.1656  -12.0634   18.7105 C   0  0  0  0  0  0  0  0  0  0  0  0
  -28.4398  -20.7573   17.6334 C   0  0  0  0  0  0  0  0  0  0  0  0
  -30.5205  -12.5804   19.4760 C   0  0  0  0  0  0  0  0  0  0  0  0
  -28.6193  -13.3128   20.8626 C   0  0  0  0  0  0  0  0  0  0  0  0
  -34.5227  -25.8564   27.5523 C   0  0  1  0  0  0  0  0  0  0  0  0
  -33.5226  -22.3618   26.4475 C   0  0  1  0  0  0  0  0  0  0  0  0
  -27.6444  -13.1358   19.6860 C   0  0  2  0  0  0  0  0  0  0  0  0
  -31.6817  -20.2783   18.1692 C   0  0  0  0  0  0  0  0  0  0  0  0
  -36.6720  -15.8469   23.6835 C   0  0  0  0  0  0  0  0  0  0  0  0
  -37.5787  -22.3850   24.2321 C   0  0  0  0  0  0  0  0  0  0  0  0
  -38.2667  -20.2015   23.2188 C   0  0  0  0  0  0  0  0  0  0  0  0
  -38.3846  -20.5198   25.6901 C   0  0  0  0  0  0  0  0  0  0  0  0
  -33.0350  -16.3710   24.6702 C   0  0  0  0  0  0  0  0  0  0  0  0
  -30.8062  -16.8988   21.8914 C   0  0  0  0  0  0  0  0  0  0  0  0
  -28.4452  -22.4200   21.0355 C   0  0  0  0  0  0  0  0  0  1  0  0
  -36.1271  -20.2780   24.5779 C   0  0  1  0  0  0  0  0  0  0  0  0
  -35.5089  -16.5437   24.3721 C   0  0  2  0  0  0  0  0  0  0  0  0
  -37.5627  -20.8557   24.4267 C   0  0  0  0  0  0  0  0  0  0  0  0
  -25.8582  -11.5445   20.2856 N   0  0  0  0  0  0  0  0  0  0  0  0
  -26.2344  -12.8280   20.1549 N   0  0  0  0  0  0  0  0  0  0  0  0
  -28.7956  -20.8208   19.0614 N   0  0  0  0  0  0  0  0  0  0  0  0
  -34.1884  -21.5714   25.4101 N   0  0  0  0  0  0  0  0  0  0  0  0
  -29.9700  -13.6101   20.3606 N   0  0  0  0  0  0  0  0  0  0  0  0
  -25.4670  -15.0555   20.3998 N   0  0  0  0  0  0  0  0  0  0  0  0
  -21.8840  -12.5814   21.5988 N   0  0  0  0  0  0  0  0  0  0  0  0
  -34.0878  -24.4782   27.4767 N   0  0  0  0  0  0  0  0  0  0  0  0
  -36.0828  -18.8354   24.7906 N   0  0  0  0  0  0  0  0  0  0  0  0
  -30.1416  -15.6761   21.4990 N   0  0  0  0  0  0  0  0  0  0  0  0
  -34.2565  -15.8074   24.0399 N   0  3  0  0  0  0  0  0  0  0  0  0
  -22.6584  -14.7211   21.3148 O   0  0  0  0  0  0  0  0  0  0  0  0
  -34.2543  -24.2077   25.1699 O   0  0  0  0  0  0  0  0  0  0  0  0
  -35.8220  -20.7834   26.8752 O   0  0  0  0  0  0  0  0  0  0  0  0
  -34.7723  -18.3458   22.9412 O   0  0  0  0  0  0  0  0  0  0  0  0
  -31.8762  -14.9215   20.2035 O   0  0  0  0  0  0  0  0  0  0  0  0
  -21.6137   -7.0183   21.7163 O   0  0  0  0  0  0  0  0  0  0  0  0
  -29.8377  -22.6946   21.1837 O   0  0  0  0  0  0  0  0  0  1  0  0
  -16.4463   -6.8280   19.8016 F   0  0  0  0  0  0  0  0  0  0  0  0
  -20.8349   -5.0589   19.9282 F   0  0  0  0  0  0  0  0  0  0  0  0
  -29.1019  -18.8115   20.8676 S   0  0  0  0  0  0  0  0  0  0  0  0
  1  2  1  0  0  0  0
  1  5  2  0  0  0  0
  2  6  2  0  0  0  0
  3  8  2  0  0  0  0
  3 16  1  0  0  0  0
  4  9  1  0  0  0  0
  4 16  2  0  0  0  0
  5 18  1  0  0  0  0
  6 20  1  0  0  0  0
  7 10  2  0  0  0  0
  7 19  1  0  0  0  0
  8 23  1  0  0  0  0
  9 23  2  0  0  0  0
 10 24  1  0  0  0  0
 11 12  2  0  0  0  0
 11 25  1  0  0  0  0
 12 26  1  0  0  0  0
 13 21  1  0  0  0  0
 13 24  2  0  0  0  0
 14 22  1  0  0  0  0
 14 29  2  0  0  0  0
 15 26  2  0  0  0  0
 15 27  1  0  0  0  0
 16 28  1  0  0  0  0
 17 28  1  0  0  0  0
 17 30  2  0  0  0  0
 17 34  1  0  0  0  0
 18 20  2  0  0  0  0
 18 39  1  0  0  0  0
 19 21  2  0  0  0  0
 19 40  1  0  0  0  0
 20 50  1  0  0  0  0
 21 41  1  0  0  0  0
 22 31  2  0  0  0  0
 22 53  1  0  0  0  0
 23 80  1  0  0  0  0
 24 81  1  0  0  0  0
 25 27  2  0  0  0  0
 25 80  1  0  0  0  0
 26 82  1  0  0  0  0
 27 83  1  0  0  0  0
 28 64  2  0  0  0  0
 29 59  1  0  0  0  0
 29 84  1  0  0  0  0
 30 65  1  0  0  0  0
 30 69  1  0  0  0  0
 31 66  1  0  0  0  0
 31 84  1  0  0  0  0
 32 33  2  0  0  0  0
 32 42  1  0  0  0  0
 33 60  1  0  0  0  0
 33 66  1  0  0  0  0
 34 70  1  0  0  0  0
 34 75  2  0  0  0  0
 35 51  1  0  0  0  0
 35 71  1  0  0  0  0
 35 76  2  0  0  0  0
 36 61  1  0  0  0  0
 36 67  1  0  0  0  0
 36 77  2  0  0  0  0
 37 62  1  0  0  0  0
 37 72  1  0  0  0  0
 37 78  2  0  0  0  0
 38 68  1  0  0  0  0
 38 73  1  0  0  0  0
 38 79  2  0  0  0  0
 39 43  1  0  0  0  0
 40 51  1  0  0  0  0
 41 67  1  0  0  0  0
 42 47  1  0  0  0  0
 43 45  1  0  0  0  0
 44 46  1  0  0  0  0
 44 48  1  0  0  0  0
 45 50  1  0  0  0  0
 46 52  1  0  0  0  0
 47 66  1  0  0  0  0
 48 68  1  0  0  0  0
 49 52  1  0  0  0  0
 49 68  1  0  0  0  0
 50 71  1  0  0  0  0
 51 67  1  0  0  0  0
 52 65  1  0  0  0  0
 54 62  1  0  0  0  0
 55 63  1  0  0  0  0
 56 63  1  0  0  0  0
 57 63  1  0  0  0  0
 58 74  1  0  0  0  0
 59 73  1  0  0  0  0
 60 81  1  0  0  0  0
 61 63  1  0  0  0  0
 61 72  1  0  0  0  0
 62 74  1  0  0  0  0
 64 65  1  0  0  0  0
M  CHG  1  74   1
M  ISO  4  38 100  60 101  73 100  81 101
M  END
> <Batch ID>
0119

> <Smiles>
CNC(C)C(=O)NC(C(=O)N1Cc2cc([101O:1][101CH2:1]C3=CCCN3c3sc(C[100NH:0][100C:0](=O)N4CCCC(n5nc(-c6ccc(Oc7ccc(F)cc7F)cc6)c(C(N)=O)c5N)C4)cc3C)ccc2CC1C(=O)NC1CCCc2ccccc21)C(C)(C)C

> <Shape>
0.188

> <Color>
0.196

> <Negative vol penalty>
0.000

$$$$

  -OEChem-04052301513D

 84 92  0     1  0  0  0  0  0999 V2000
  -23.6110  -23.6643   13.2818 C   0  0  0  0  0  0  0  0  0  0  0  0
  -22.9521  -22.5849   13.8595 C   0  0  0  0  0  0  0  0  0  0  0  0
  -28.8462  -26.2460   19.7596 C   0  0  0  0  0  0  0  0  0  0  0  0
  -28.0608  -26.4569   22.0346 C   0  0  0  0  0  0  0  0  0  0  0  0
  -24.4769  -24.4397   14.0499 C   0  0  0  0  0  0  0  0  0  0  0  0
  -23.1497  -22.2878   15.2084 C   0  0  0  0  0  0  0  0  0  0  0  0
  -21.0602  -17.6741   18.5959 C   0  0  0  0  0  0  0  0  0  0  0  0
  -28.3319  -27.5087   19.4649 C   0  0  0  0  0  0  0  0  0  0  0  0
  -27.5465  -27.7196   21.7400 C   0  0  0  0  0  0  0  0  0  0  0  0
  -21.4792  -16.3969   18.9659 C   0  0  0  0  0  0  0  0  0  0  0  0
  -25.7102  -30.8465   21.4933 C   0  0  0  0  0  0  0  0  0  0  0  0
  -24.4275  -31.1471   21.9515 C   0  0  0  0  0  0  0  0  0  0  0  0
  -27.9263  -13.6616   20.0321 C   0  0  0  0  0  0  0  0  0  0  0  0
  -30.2408  -12.9909   19.8588 C   0  0  0  0  0  0  0  0  0  0  0  0
  -28.4980  -11.3181   19.8964 C   0  0  0  0  0  0  0  0  0  0  0  0
  -22.3443  -17.2864   21.0346 C   0  0  0  0  0  0  0  0  0  0  0  0
  -23.5367  -29.3057   20.6660 C   0  0  0  0  0  0  0  0  0  0  0  0
  -28.7106  -25.7201   21.0444 C   0  0  0  0  0  0  0  0  0  0  0  0
  -29.2787  -13.9956   19.9619 C   0  0  0  0  0  0  0  0  0  0  0  0
  -27.5359  -12.3228   19.9994 C   0  0  0  0  0  0  0  0  0  0  0  0
  -30.5316  -24.1122   21.8230 C   0  0  0  0  0  0  0  0  0  0  0  0
  -24.6942  -24.1438   15.4057 C   0  0  0  0  0  0  0  0  0  0  0  0
  -21.2902  -18.7707   19.4391 C   0  0  0  0  0  0  0  0  0  0  0  0
  -24.0013  -23.0731   16.0064 C   0  0  0  0  0  0  0  0  0  0  0  0
  -21.9249  -18.5761   20.6742 C   0  0  0  0  0  0  0  0  0  0  0  0
  -27.6821  -28.2455   20.4551 C   0  0  0  0  0  0  0  0  0  0  0  0
  -22.1240  -16.2033   20.1840 C   0  0  0  0  0  0  0  0  0  0  0  0
  -25.9061  -29.7754   20.6214 C   0  0  0  0  0  0  0  0  0  0  0  0
  -23.3408  -30.3767   21.5379 C   0  0  0  0  0  0  0  0  0  0  0  0
  -29.8505  -11.6522   19.8261 C   0  0  0  0  0  0  0  0  0  0  0  0
  -24.8194  -29.0050   20.2078 C   0  0  0  0  0  0  0  0  0  0  0  0
  -29.2411  -24.4156   21.3492 C   0  0  0  0  0  0  0  0  0  0  0  0
  -30.5371  -22.7449   21.9526 C   0  0  0  0  0  0  0  0  0  0  0  0
  -29.6854  -15.3918   19.9955 C   0  0  0  0  0  0  0  0  0  0  0  0
  -28.8909  -16.4459   19.7123 C   0  0  0  0  0  0  0  0  0  0  0  0
  -25.1298  -12.9540   19.5099 C   0  0  0  0  0  0  0  0  0  0  0  0
  -23.8984  -13.0853   20.0213 C   0  0  0  0  0  0  0  0  0  0  0  0
  -26.0919  -11.9655   20.0754 C   0  0  0  0  0  0  0  0  0  0  0  0
  -31.6273  -24.9881   22.1197 C   0  0  0  0  0  0  0  0  0  0  0  0
  -29.4506  -17.8096   19.8013 C   0  0  0  0  0  0  0  0  0  0  0  0
  -22.9369  -21.4789   19.1984 C   0  0  0  0  0  0  0  0  0  0  0  0
  -21.5489  -22.1215   22.0590 C   0  0  0  0  0  0  0  0  0  0  0  0
  -20.0951  -20.9286   24.9068 C   0  0  0  0  0  0  0  0  0  0  0  0
  -25.6361  -25.0208   16.1924 C   0  0  0  0  0  0  0  0  0  0  0  0
  -20.8082  -20.1378   19.0375 C   0  0  0  0  0  0  0  0  0  0  0  0
  -22.1776  -19.7170   21.6244 C   0  0  0  0  0  0  0  0  0  0  0  0
  -26.1197  -24.3667   17.4826 C   0  0  0  0  0  0  0  0  0  0  0  0
  -26.7778  -19.3898   21.7483 C   0  0  0  0  0  0  0  0  0  0  0  0
  -24.9350  -23.8139   18.2608 C   0  0  0  0  0  0  0  0  0  0  0  0
  -27.2740  -20.8319   21.8118 C   0  0  0  0  0  0  0  0  0  0  0  0
  -27.1478  -18.7155   20.4281 C   0  0  0  0  0  0  0  0  0  0  0  0
  -29.1013  -20.2196   20.1789 C   0  0  0  0  0  0  0  0  0  0  0  0
  -24.2242  -22.7125   17.4641 C   0  0  1  0  0  0  0  0  0  0  0  0
  -21.5534  -21.2657   19.7444 C   0  0  1  0  0  0  0  0  0  0  0  0
  -28.7808  -20.9025   21.5177 C   0  0  1  0  0  0  0  0  0  0  0  0
  -19.0964  -21.6938   27.0781 C   0  0  0  0  0  0  0  0  0  0  0  0
  -24.3462  -22.6537   23.1553 C   0  0  0  0  0  0  0  0  0  0  0  0
  -23.3995  -22.4721   25.4659 C   0  0  0  0  0  0  0  0  0  0  0  0
  -22.5982  -24.2662   23.9291 C   0  0  0  0  0  0  0  0  0  0  0  0
  -17.4623  -19.7502   24.2447 C   0  0  0  0  0  0  0  0  0  0  0  0
  -22.8944  -14.0607   19.4975 C   0  0  0  0  0  0  0  0  0  1  0  0
  -21.9106  -21.8709   23.5030 C   0  0  1  0  0  0  0  0  0  0  0  0
  -18.8199  -21.3249   25.6289 C   0  0  2  0  0  0  0  0  0  0  0  0
  -23.0607  -22.7943   23.9948 C   0  0  0  0  0  0  0  0  0  0  0  0
  -28.4820  -23.3285   21.1884 N   0  0  0  0  0  0  0  0  0  0  0  0
  -25.7432  -10.8186   20.5657 N   0  0  0  0  0  0  0  0  0  0  0  0
  -29.2980  -22.3286   21.5633 N   0  0  0  0  0  0  0  0  0  0  0  0
  -28.5840  -18.8472   20.1405 N   0  0  0  0  0  0  0  0  0  0  0  0
  -21.6932  -21.0356   21.1838 N   0  0  0  0  0  0  0  0  0  0  0  0
  -31.4809  -21.8700   22.3603 N   0  0  0  0  0  0  0  0  0  0  0  0
  -31.4516  -26.3657   21.9305 N   0  0  0  0  0  0  0  0  0  0  0  0
  -22.9930  -22.3625   18.1375 N   0  0  0  0  0  0  0  0  0  0  0  0
  -20.6722  -22.0027   24.2628 N   0  0  0  0  0  0  0  0  0  0  0  0
  -17.8423  -20.2002   25.6085 N   0  3  0  0  0  0  0  0  0  0  0  0
  -32.7349  -24.5603   22.5243 O   0  0  0  0  0  0  0  0  0  0  0  0
  -30.6521  -17.9476   19.5648 O   0  0  0  0  0  0  0  0  0  0  0  0
  -23.8836  -20.8868   19.7032 O   0  0  0  0  0  0  0  0  0  0  0  0
  -21.1462  -23.2375   21.7213 O   0  0  0  0  0  0  0  0  0  0  0  0
  -20.5372  -19.7819   24.9165 O   0  0  0  0  0  0  0  0  0  0  0  0
  -27.1803  -29.4777   20.1680 O   0  0  0  0  0  0  0  0  0  0  0  0
  -22.5346  -14.9578   20.5473 O   0  0  0  0  0  0  0  0  0  1  0  0
  -22.1093  -30.6646   21.9791 F   0  0  0  0  0  0  0  0  0  0  0  0
  -30.7738  -10.6866   19.7263 F   0  0  0  0  0  0  0  0  0  0  0  0
  -25.0015  -27.9741   19.3712 F   0  0  0  0  0  0  0  0  0  0  0  0
  1  2  1  0  0  0  0
  1  5  2  0  0  0  0
  2  6  2  0  0  0  0
  3  8  2  0  0  0  0
  3 18  1  0  0  0  0
  4  9  1  0  0  0  0
  4 18  2  0  0  0  0
  5 22  1  0  0  0  0
  6 24  1  0  0  0  0
  7 10  2  0  0  0  0
  7 23  1  0  0  0  0
  8 26  1  0  0  0  0
  9 26  2  0  0  0  0
 10 27  1  0  0  0  0
 11 12  2  0  0  0  0
 11 28  1  0  0  0  0
 12 29  1  0  0  0  0
 13 19  1  0  0  0  0
 13 20  2  0  0  0  0
 14 19  2  0  0  0  0
 14 30  1  0  0  0  0
 15 20  1  0  0  0  0
 15 30  2  0  0  0  0
 16 25  1  0  0  0  0
 16 27  2  0  0  0  0
 17 29  2  0  0  0  0
 17 31  1  0  0  0  0
 18 32  1  0  0  0  0
 19 34  1  0  0  0  0
 20 38  1  0  0  0  0
 21 32  1  0  0  0  0
 21 33  2  0  0  0  0
 21 39  1  0  0  0  0
 22 24  2  0  0  0  0
 22 44  1  0  0  0  0
 23 25  2  0  0  0  0
 23 45  1  0  0  0  0
 24 53  1  0  0  0  0
 25 46  1  0  0  0  0
 26 80  1  0  0  0  0
 27 81  1  0  0  0  0
 28 31  2  0  0  0  0
 28 80  1  0  0  0  0
 29 82  1  0  0  0  0
 30 83  1  0  0  0  0
 31 84  1  0  0  0  0
 32 65  2  0  0  0  0
 33 67  1  0  0  0  0
 33 70  1  0  0  0  0
 34 35  2  0  0  0  0
 35 40  1  0  0  0  0
 36 37  2  0  0  0  0
 36 38  1  0  0  0  0
 37 61  1  0  0  0  0
 38 66  2  0  0  0  0
 39 71  1  0  0  0  0
 39 75  2  0  0  0  0
 40 68  1  0  0  0  0
 40 76  2  0  0  0  0
 41 54  1  0  0  0  0
 41 72  1  0  0  0  0
 41 77  2  0  0  0  0
 42 62  1  0  0  0  0
 42 69  1  0  0  0  0
 42 78  2  0  0  0  0
 43 63  1  0  0  0  0
 43 73  1  0  0  0  0
 43 79  2  0  0  0  0
 44 47  1  0  0  0  0
 45 54  1  0  0  0  0
 46 69  1  0  0  0  0
 47 49  1  0  0  0  0
 48 50  1  0  0  0  0
 48 51  1  0  0  0  0
 49 53  1  0  0  0  0
 50 55  1  0  0  0  0
 51 68  1  0  0  0  0
 52 55  1  0  0  0  0
 52 68  1  0  0  0  0
 53 72  1  0  0  0  0
 54 69  1  0  0  0  0
 55 67  1  0  0  0  0
 56 63  1  0  0  0  0
 57 64  1  0  0  0  0
 58 64  1  0  0  0  0
 59 64  1  0  0  0  0
 60 74  1  0  0  0  0
 61 81  1  0  0  0  0
 62 64  1  0  0  0  0
 62 73  1  0  0  0  0
 63 74  1  0  0  0  0
 65 67  1  0  0  0  0
M  CHG  1  74   1
M  ISO  4  35 100  40 100  61 101  81 101
M  END
> <Batch ID>
0119

> <Smiles>
CNC(C)C(=O)NC(C(=O)N1Cc2cc([101O:1][101CH2:1]C=CC(=N)c3cc(F)cc(C=[100CH:0][100C:0](=O)N4CCCC(n5nc(-c6ccc(Oc7ccc(F)cc7F)cc6)c(C(N)=O)c5N)C4)c3)ccc2CC1C(=O)NC1CCCc2ccccc21)C(C)(C)C

> <Shape>
0.188

> <Color>
0.076

> <Negative vol penalty>
0.000

$$$$

  -OEChem-04052301513D

 87 95  0     1  0  0  0  0  0999 V2000
  -25.8146  -29.9019   19.7783 C   0  0  0  0  0  0  0  0  0  0  0  0
  -25.8301  -28.9088   18.8042 C   0  0  0  0  0  0  0  0  0  0  0  0
  -26.4852  -12.9246   18.9720 C   0  0  0  0  0  0  0  0  0  0  0  0
  -26.3024  -12.7963   21.3776 C   0  0  0  0  0  0  0  0  0  0  0  0
  -25.9977  -29.5648   21.1187 C   0  0  0  0  0  0  0  0  0  0  0  0
  -26.0297  -27.5780   19.1699 C   0  0  0  0  0  0  0  0  0  0  0  0
  -23.5390  -22.6293   16.5599 C   0  0  0  0  0  0  0  0  0  0  0  0
  -25.2629  -12.2650   18.8438 C   0  0  0  0  0  0  0  0  0  0  0  0
  -25.0800  -12.1367   21.2495 C   0  0  0  0  0  0  0  0  0  0  0  0
  -24.0218  -21.7228   15.6171 C   0  0  0  0  0  0  0  0  0  0  0  0
  -23.9970   -9.0109   20.5514 C   0  0  0  0  0  0  0  0  0  0  0  0
  -23.7791   -7.8889   21.3508 C   0  0  0  0  0  0  0  0  0  0  0  0
  -28.9076  -21.2136   17.9771 C   0  0  0  0  0  0  0  0  0  0  0  0
  -24.6767  -20.2308   17.3960 C   0  0  0  0  0  0  0  0  0  0  0  0
  -29.7631  -22.6104   19.7531 C   0  0  0  0  0  0  0  0  0  0  0  0
  -21.8677   -8.9744   22.3534 C   0  0  0  0  0  0  0  0  0  0  0  0
  -27.0050  -13.1903   20.2389 C   0  0  0  0  0  0  0  0  0  0  0  0
  -28.9244  -22.3059   17.1099 C   0  0  0  0  0  0  0  0  0  0  0  0
  -29.5177  -13.4477   19.8814 C   0  0  0  0  0  0  0  0  0  0  0  0
  -26.1900  -28.2282   21.5021 C   0  0  0  0  0  0  0  0  0  0  0  0
  -23.6315  -22.3478   17.9305 C   0  0  0  0  0  0  0  0  0  0  0  0
  -26.2169  -27.2230   20.5166 C   0  0  0  0  0  0  0  0  0  0  0  0
  -24.1920  -21.1343   18.3541 C   0  0  0  0  0  0  0  0  0  0  0  0
  -29.7800  -23.7027   18.8858 C   0  0  0  0  0  0  0  0  0  0  0  0
  -29.3607  -23.5505   17.5642 C   0  0  0  0  0  0  0  0  0  0  0  0
  -29.3269  -21.3658   19.2988 C   0  0  0  0  0  0  0  0  0  0  0  0
  -24.5603  -11.8711   19.9826 C   0  0  0  0  0  0  0  0  0  0  0  0
  -24.5934  -20.5246   16.0352 C   0  0  0  0  0  0  0  0  0  0  0  0
  -23.1502  -10.1148   20.6529 C   0  0  0  0  0  0  0  0  0  0  0  0
  -22.7145   -7.8706   22.2518 C   0  0  0  0  0  0  0  0  0  0  0  0
  -22.0856  -10.0965   21.5539 C   0  0  0  0  0  0  0  0  0  0  0  0
  -28.2679  -13.8711   20.3719 C   0  0  0  0  0  0  0  0  0  0  0  0
  -30.3904  -14.4359   20.2667 C   0  0  0  0  0  0  0  0  0  0  0  0
  -28.4745  -22.1104   15.7218 C   0  0  0  0  0  0  0  0  0  0  0  0
  -29.0100  -21.2409   14.8504 C   0  0  0  0  0  0  0  0  0  0  0  0
  -26.6883  -19.3139   13.4169 C   0  0  0  0  0  0  0  0  0  0  0  0
  -29.8592  -12.2668   19.1435 C   0  0  0  0  0  0  0  0  0  0  0  0
  -27.9655  -19.6829   13.1970 C   0  0  0  0  0  0  0  0  0  0  0  0
  -25.0930  -23.7048   20.4056 C   0  0  0  0  0  0  0  0  0  0  0  0
  -23.4691  -21.4621   22.0955 C   0  0  0  0  0  0  0  0  0  0  0  0
  -21.9118  -18.4256   22.1305 C   0  0  0  0  0  0  0  0  0  0  0  0
  -29.6934  -20.2365   21.5206 C   0  0  0  0  0  0  0  0  0  0  0  0
  -26.4307  -27.9181   22.9583 C   0  0  0  0  0  0  0  0  0  0  0  0
  -23.0817  -23.3242   18.9339 C   0  0  0  0  0  0  0  0  0  0  0  0
  -24.2965  -20.7755   19.8131 C   0  0  0  0  0  0  0  0  0  0  0  0
  -26.2623  -26.4404   23.3023 C   0  0  0  0  0  0  0  0  0  0  0  0
  -31.0398  -17.7396   23.6723 C   0  0  0  0  0  0  0  0  0  0  0  0
  -26.9872  -25.5687   22.2818 C   0  0  0  0  0  0  0  0  0  0  0  0
  -30.6006  -16.4256   23.0222 C   0  0  0  0  0  0  0  0  0  0  0  0
  -29.9686  -18.8213   23.5446 C   0  0  0  0  0  0  0  0  0  0  0  0
  -29.0487  -17.7465   21.5277 C   0  0  0  0  0  0  0  0  0  0  0  0
  -26.4059  -25.7653   20.8764 C   0  0  1  0  0  0  0  0  0  0  0  0
  -23.6940  -23.1631   20.3219 C   0  0  1  0  0  0  0  0  0  0  0  0
  -30.1212  -16.6460   21.5740 C   0  0  2  0  0  0  0  0  0  0  0  0
  -29.3834  -24.7305   16.6425 C   0  0  0  0  0  0  0  0  0  0  0  0
  -28.9711  -18.6767   12.6984 C   0  0  0  0  0  0  0  0  0  0  0  0
  -31.6699  -25.3495   18.9387 C   0  0  0  0  0  0  0  0  0  0  0  0
  -20.5623  -16.5111   23.0311 C   0  0  0  0  0  0  0  0  0  0  0  0
  -26.1391  -20.6270   23.3136 C   0  0  0  0  0  0  0  0  0  0  0  0
  -25.0510  -18.5020   24.0677 C   0  0  0  0  0  0  0  0  0  0  0  0
  -24.2312  -20.6948   24.9290 C   0  0  0  0  0  0  0  0  0  0  0  0
  -19.3666  -19.6562   21.2549 C   0  0  0  0  0  0  0  0  0  0  0  0
  -30.2521  -25.0241   19.3983 C   0  0  0  0  0  0  0  0  0  0  0  0
  -28.5128  -21.0710   13.4418 C   0  0  0  0  0  0  0  0  0  0  0  0
  -25.5604  -20.1750   13.8908 C   0  0  0  0  0  0  0  0  0  1  0  0
  -23.7475  -20.0447   22.5341 C   0  0  1  0  0  0  0  0  0  0  0  0
  -20.5649  -17.9906   22.6792 C   0  0  2  0  0  0  0  0  0  0  0  0
  -24.7922  -19.9744   23.6836 C   0  0  0  0  0  0  0  0  0  0  0  0
  -28.3363  -15.0373   21.0195 N   0  0  0  0  0  0  0  0  0  0  0  0
  -29.6395  -15.3551   20.9386 N   0  0  0  0  0  0  0  0  0  0  0  0
  -23.7505  -21.7657   20.7559 N   0  0  0  0  0  0  0  0  0  0  0  0
  -29.5665  -18.9776   22.1450 N   0  0  0  0  0  0  0  0  0  0  0  0
  -31.7191  -14.5994   20.0929 N   0  0  0  0  0  0  0  0  0  0  0  0
  -30.2299  -11.1179   19.8554 N   0  0  0  0  0  0  0  0  0  0  0  0
  -29.3106  -20.2562   20.1798 N   0  0  0  0  0  0  0  0  0  0  0  0
  -25.1587  -25.0440   20.7400 N   0  0  0  0  0  0  0  0  0  0  0  0
  -22.4535  -19.4585   22.8661 N   0  0  0  0  0  0  0  0  0  0  0  0
  -19.4922  -18.2366   21.6743 N   0  3  0  0  0  0  0  0  0  0  0  0
  -29.8522  -12.2364   17.8895 O   0  0  0  0  0  0  0  0  0  0  0  0
  -26.0426  -22.9624   20.1847 O   0  0  0  0  0  0  0  0  0  0  0  0
  -23.0118  -22.2683   22.9095 O   0  0  0  0  0  0  0  0  0  0  0  0
  -22.4330  -17.8991   21.1499 O   0  0  0  0  0  0  0  0  0  0  0  0
  -30.1365  -21.2178   22.1227 O   0  0  0  0  0  0  0  0  0  0  0  0
  -23.3674  -11.2276   19.8579 O   0  0  0  0  0  0  0  0  0  0  0  0
  -25.0660  -19.6382   15.1171 O   0  0  0  0  0  0  0  0  0  1  0  0
  -22.5044   -6.7925   23.0184 F   0  0  0  0  0  0  0  0  0  0  0  0
  -21.2680  -11.1534   21.6551 F   0  0  0  0  0  0  0  0  0  0  0  0
  1  2  1  0  0  0  0
  1  5  2  0  0  0  0
  2  6  2  0  0  0  0
  3  8  2  0  0  0  0
  3 17  1  0  0  0  0
  4  9  1  0  0  0  0
  4 17  2  0  0  0  0
  5 20  1  0  0  0  0
  6 22  1  0  0  0  0
  7 10  2  0  0  0  0
  7 21  1  0  0  0  0
  8 27  1  0  0  0  0
  9 27  2  0  0  0  0
 10 28  1  0  0  0  0
 11 12  2  0  0  0  0
 11 29  1  0  0  0  0
 12 30  1  0  0  0  0
 13 18  2  0  0  0  0
 13 26  1  0  0  0  0
 14 23  1  0  0  0  0
 14 28  2  0  0  0  0
 15 24  1  0  0  0  0
 15 26  2  0  0  0  0
 16 30  2  0  0  0  0
 16 31  1  0  0  0  0
 17 32  1  0  0  0  0
 18 25  1  0  0  0  0
 18 34  1  0  0  0  0
 19 32  1  0  0  0  0
 19 33  2  0  0  0  0
 19 37  1  0  0  0  0
 20 22  2  0  0  0  0
 20 43  1  0  0  0  0
 21 23  2  0  0  0  0
 21 44  1  0  0  0  0
 22 52  1  0  0  0  0
 23 45  1  0  0  0  0
 24 25  2  0  0  0  0
 24 63  1  0  0  0  0
 25 55  1  0  0  0  0
 26 75  1  0  0  0  0
 27 84  1  0  0  0  0
 28 85  1  0  0  0  0
 29 31  2  0  0  0  0
 29 84  1  0  0  0  0
 30 86  1  0  0  0  0
 31 87  1  0  0  0  0
 32 69  2  0  0  0  0
 33 70  1  0  0  0  0
 33 73  1  0  0  0  0
 34 35  2  0  0  0  0
 35 64  1  0  0  0  0
 36 38  2  0  0  0  0
 36 65  1  0  0  0  0
 37 74  1  0  0  0  0
 37 79  2  0  0  0  0
 38 56  1  0  0  0  0
 38 64  1  0  0  0  0
 39 53  1  0  0  0  0
 39 76  1  0  0  0  0
 39 80  2  0  0  0  0
 40 66  1  0  0  0  0
 40 71  1  0  0  0  0
 40 81  2  0  0  0  0
 41 67  1  0  0  0  0
 41 77  1  0  0  0  0
 41 82  2  0  0  0  0
 42 72  1  0  0  0  0
 42 75  1  0  0  0  0
 42 83  2  0  0  0  0
 43 46  1  0  0  0  0
 44 53  1  0  0  0  0
 45 71  1  0  0  0  0
 46 48  1  0  0  0  0
 47 49  1  0  0  0  0
 47 50  1  0  0  0  0
 48 52  1  0  0  0  0
 49 54  1  0  0  0  0
 50 72  1  0  0  0  0
 51 54  1  0  0  0  0
 51 72  1  0  0  0  0
 52 76  1  0  0  0  0
 53 71  1  0  0  0  0
 54 70  1  0  0  0  0
 57 63  1  0  0  0  0
 58 67  1  0  0  0  0
 59 68  1  0  0  0  0
 60 68  1  0  0  0  0
 61 68  1  0  0  0  0
 62 78  1  0  0  0  0
 65 85  1  0  0  0  0
 66 68  1  0  0  0  0
 66 77  1  0  0  0  0
 67 78  1  0  0  0  0
 69 70  1  0  0  0  0
M  CHG  1  78   1
M  ISO  4  42 100  65 101  75 100  85 101
M  END
> <Batch ID>
0119

> <Smiles>
CCc1cc([100NH:0][100C:0](=O)N2CCCC(n3nc(-c4ccc(Oc5ccc(F)cc5F)cc4)c(C(N)=O)c3N)C2)cc(C=CCC(C)=C[101CH2:1][101O:1]c2ccc3c(c2)CN(C(=O)C(NC(=O)C(C)NC)C(C)(C)C)C(C(=O)NC2CCCc4ccccc42)C3)c1C

> <Shape>
0.210

> <Color>
0.063

> <Negative vol penalty>
0.000

$$$$

  -OEChem-04052301513D

 87 96  0     1  0  0  0  0  0999 V2000
  -28.0381  -31.1217   25.2423 C   0  0  0  0  0  0  0  0  0  0  0  0
  -28.2923  -29.8459   24.7490 C   0  0  0  0  0  0  0  0  0  0  0  0
  -23.0810   -9.8615   19.9436 C   0  0  0  0  0  0  0  0  0  0  0  0
  -23.8341   -9.8791   22.2392 C   0  0  0  0  0  0  0  0  0  0  0  0
  -27.3228  -31.2794   26.4286 C   0  0  0  0  0  0  0  0  0  0  0  0
  -27.8321  -28.7271   25.4425 C   0  0  0  0  0  0  0  0  0  0  0  0
  -25.7119  -25.2865   22.3909 C   0  0  0  0  0  0  0  0  0  0  0  0
  -31.3350  -19.0610   20.5595 C   0  0  0  0  0  0  0  0  0  0  0  0
  -31.1486  -17.6788   20.5807 C   0  0  0  0  0  0  0  0  0  0  0  0
  -22.3383   -8.7082   20.1961 C   0  0  0  0  0  0  0  0  0  0  0  0
  -23.0913   -8.7258   22.4917 C   0  0  0  0  0  0  0  0  0  0  0  0
  -26.5716  -24.4697   21.6579 C   0  0  0  0  0  0  0  0  0  0  0  0
  -21.1068   -5.9910   23.8337 C   0  0  0  0  0  0  0  0  0  0  0  0
  -20.3472   -5.9510   25.0028 C   0  0  0  0  0  0  0  0  0  0  0  0
  -29.7048  -19.3080   22.3255 C   0  0  0  0  0  0  0  0  0  0  0  0
  -26.2505  -22.6997   23.2651 C   0  0  0  0  0  0  0  0  0  0  0  0
  -19.1017   -7.8833   24.2597 C   0  0  0  0  0  0  0  0  0  0  0  0
  -23.8290  -10.4469   20.9652 C   0  0  0  0  0  0  0  0  0  0  0  0
  -29.5183  -17.9258   22.3466 C   0  0  0  0  0  0  0  0  0  0  0  0
  -24.1672  -12.9721   20.8358 C   0  0  0  0  0  0  0  0  0  0  0  0
  -26.8453  -30.1623   27.1318 C   0  0  0  0  0  0  0  0  0  0  0  0
  -25.1225  -24.8191   23.5743 C   0  0  0  0  0  0  0  0  0  0  0  0
  -27.1109  -28.8700   26.6400 C   0  0  0  0  0  0  0  0  0  0  0  0
  -25.3816  -23.5117   24.0099 C   0  0  0  0  0  0  0  0  0  0  0  0
  -30.6132  -19.8756   21.4320 C   0  0  0  0  0  0  0  0  0  0  0  0
  -30.2402  -17.1112   21.4742 C   0  0  0  0  0  0  0  0  0  0  0  0
  -22.3434   -8.1403   21.4702 C   0  0  0  0  0  0  0  0  0  0  0  0
  -26.8434  -23.1771   22.0965 C   0  0  0  0  0  0  0  0  0  0  0  0
  -20.8640   -6.9772   22.8775 C   0  0  0  0  0  0  0  0  0  0  0  0
  -19.3446   -6.8971   25.2158 C   0  0  0  0  0  0  0  0  0  0  0  0
  -19.8614   -7.9233   23.0905 C   0  0  0  0  0  0  0  0  0  0  0  0
  -24.5970  -11.6380   20.7048 C   0  0  0  0  0  0  0  0  0  0  0  0
  -25.2592  -13.7219   20.4726 C   0  0  0  0  0  0  0  0  0  0  0  0
  -31.4169  -22.5975   19.2942 C   0  0  0  0  0  0  0  0  0  0  0  0
  -27.2682  -17.6542   23.2839 C   0  0  0  0  0  0  0  0  0  0  0  0
  -28.5609  -17.3685   23.2948 C   0  0  0  0  0  0  0  0  0  0  0  0
  -22.8946  -13.4876   21.2488 C   0  0  0  0  0  0  0  0  0  0  0  0
  -25.2301  -25.6895   26.6296 C   0  0  0  0  0  0  0  0  0  0  0  0
  -22.9434  -23.4119   26.9550 C   0  0  0  0  0  0  0  0  0  0  0  0
  -21.5000  -20.5630   25.7522 C   0  0  0  0  0  0  0  0  0  0  0  0
  -30.7232  -14.7769   20.6592 C   0  0  0  0  0  0  0  0  0  0  0  0
  -26.1176  -30.3812   28.4346 C   0  0  0  0  0  0  0  0  0  0  0  0
  -24.1764  -25.7034   24.3393 C   0  0  0  0  0  0  0  0  0  0  0  0
  -24.7584  -22.9552   25.2630 C   0  0  0  0  0  0  0  0  0  0  0  0
  -30.6658  -23.0462   18.0647 C   0  0  0  0  0  0  0  0  0  0  0  0
  -25.3416  -29.1564   28.9121 C   0  0  0  0  0  0  0  0  0  0  0  0
  -29.4118  -22.1770   18.0768 C   0  0  0  0  0  0  0  0  0  0  0  0
  -29.6196  -12.3517   18.2975 C   0  0  0  0  0  0  0  0  0  0  0  0
  -26.2043  -27.9029   28.8053 C   0  0  0  0  0  0  0  0  0  0  0  0
  -28.1792  -12.0595   18.7241 C   0  0  0  0  0  0  0  0  0  0  0  0
  -30.5308  -12.5869   19.5009 C   0  0  0  0  0  0  0  0  0  0  0  0
  -28.6186  -13.3139   20.8736 C   0  0  0  0  0  0  0  0  0  0  0  0
  -26.6069  -27.6326   27.3506 C   0  0  1  0  0  0  0  0  0  0  0  0
  -24.0358  -25.3020   25.8044 C   0  0  1  0  0  0  0  0  0  0  0  0
  -27.6496  -13.1343   19.6936 C   0  0  2  0  0  0  0  0  0  0  0  0
  -29.1656  -21.8898   19.5547 C   0  0  2  0  0  0  0  0  0  0  0  0
  -19.6743  -18.9162   26.2545 C   0  0  0  0  0  0  0  0  0  0  0  0
  -24.6702  -22.1682   29.1416 C   0  0  0  0  0  0  0  0  0  0  0  0
  -23.3081  -20.0781   28.9317 C   0  0  0  0  0  0  0  0  0  0  0  0
  -22.2204  -22.2074   29.6429 C   0  0  0  0  0  0  0  0  0  0  0  0
  -20.0972  -21.1688   23.2175 C   0  0  0  0  0  0  0  0  0  0  0  0
  -30.8149  -21.3632   21.4078 C   0  0  0  0  0  0  0  0  0  0  0  0
  -28.2500  -22.9281   20.1951 C   0  0  0  0  0  0  0  0  0  1  0  0
  -22.9442  -21.9288   27.2365 C   0  0  1  0  0  0  0  0  0  0  0  0
  -20.0470  -20.1923   25.5159 C   0  0  2  0  0  0  0  0  0  0  0  0
  -23.2992  -21.6064   28.7156 C   0  0  0  0  0  0  0  0  0  0  0  0
  -25.8632  -11.5425   20.2906 N   0  0  0  0  0  0  0  0  0  0  0  0
  -26.2384  -12.8261   20.1582 N   0  0  0  0  0  0  0  0  0  0  0  0
  -30.5060  -21.9311   20.1113 N   0  0  0  0  0  0  0  0  0  0  0  0
  -23.8451  -23.8607   25.9797 N   0  0  0  0  0  0  0  0  0  0  0  0
  -29.9676  -13.6204   20.3724 N   0  0  0  0  0  0  0  0  0  0  0  0
  -25.4677  -15.0533   20.3948 N   0  0  0  0  0  0  0  0  0  0  0  0
  -21.8832  -12.5782   21.5868 N   0  0  0  0  0  0  0  0  0  0  0  0
  -30.0719  -15.7043   21.4719 N   0  0  0  0  0  0  0  0  0  0  0  0
  -25.5037  -27.0440   26.6219 N   0  0  0  0  0  0  0  0  0  0  0  0
  -21.6392  -21.4323   26.8134 N   0  0  0  0  0  0  0  0  0  0  0  0
  -19.7952  -19.9844   24.0619 N   0  3  0  0  0  0  0  0  0  0  0  0
  -32.5972  -22.8294   19.5095 O   0  0  0  0  0  0  0  0  0  0  0  0
  -22.6562  -14.7181   21.3004 O   0  0  0  0  0  0  0  0  0  0  0  0
  -25.8562  -24.8240   27.2301 O   0  0  0  0  0  0  0  0  0  0  0  0
  -22.1663  -24.1442   27.5725 O   0  0  0  0  0  0  0  0  0  0  0  0
  -22.4198  -20.1223   25.0664 O   0  0  0  0  0  0  0  0  0  0  0  0
  -31.8534  -14.9456   20.1942 O   0  0  0  0  0  0  0  0  0  0  0  0
  -21.6185   -7.0151   21.7170 O   0  0  0  0  0  0  0  0  0  0  0  0
  -27.6827  -22.3779   21.3832 O   0  0  0  0  0  0  0  0  0  1  0  0
  -18.6141   -6.8576   26.3379 F   0  0  0  0  0  0  0  0  0  0  0  0
  -19.6227   -8.8723   22.1750 F   0  0  0  0  0  0  0  0  0  0  0  0
  1  2  1  0  0  0  0
  1  5  2  0  0  0  0
  2  6  2  0  0  0  0
  3 10  2  0  0  0  0
  3 18  1  0  0  0  0
  4 11  1  0  0  0  0
  4 18  2  0  0  0  0
  5 21  1  0  0  0  0
  6 23  1  0  0  0  0
  7 12  2  0  0  0  0
  7 22  1  0  0  0  0
  8  9  2  0  0  0  0
  8 25  1  0  0  0  0
  9 26  1  0  0  0  0
 10 27  1  0  0  0  0
 11 27  2  0  0  0  0
 12 28  1  0  0  0  0
 13 14  2  0  0  0  0
 13 29  1  0  0  0  0
 14 30  1  0  0  0  0
 15 19  1  0  0  0  0
 15 25  2  0  0  0  0
 16 24  1  0  0  0  0
 16 28  2  0  0  0  0
 17 30  2  0  0  0  0
 17 31  1  0  0  0  0
 18 32  1  0  0  0  0
 19 26  2  0  0  0  0
 19 36  1  0  0  0  0
 20 32  1  0  0  0  0
 20 33  2  0  0  0  0
 20 37  1  0  0  0  0
 21 23  2  0  0  0  0
 21 42  1  0  0  0  0
 22 24  2  0  0  0  0
 22 43  1  0  0  0  0
 23 53  1  0  0  0  0
 24 44  1  0  0  0  0
 25 62  1  0  0  0  0
 26 74  1  0  0  0  0
 27 84  1  0  0  0  0
 28 85  1  0  0  0  0
 29 31  2  0  0  0  0
 29 84  1  0  0  0  0
 30 86  1  0  0  0  0
 31 87  1  0  0  0  0
 32 67  2  0  0  0  0
 33 68  1  0  0  0  0
 33 72  1  0  0  0  0
 34 45  1  0  0  0  0
 34 69  1  0  0  0  0
 34 78  2  0  0  0  0
 35 36  2  0  0  0  0
 37 73  1  0  0  0  0
 37 79  2  0  0  0  0
 38 54  1  0  0  0  0
 38 75  1  0  0  0  0
 38 80  2  0  0  0  0
 39 64  1  0  0  0  0
 39 70  1  0  0  0  0
 39 81  2  0  0  0  0
 40 65  1  0  0  0  0
 40 76  1  0  0  0  0
 40 82  2  0  0  0  0
 41 71  1  0  0  0  0
 41 74  1  0  0  0  0
 41 83  2  0  0  0  0
 42 46  1  0  0  0  0
 43 54  1  0  0  0  0
 44 70  1  0  0  0  0
 45 47  1  0  0  0  0
 46 49  1  0  0  0  0
 47 56  1  0  0  0  0
 48 50  1  0  0  0  0
 48 51  1  0  0  0  0
 49 53  1  0  0  0  0
 50 55  1  0  0  0  0
 51 71  1  0  0  0  0
 52 55  1  0  0  0  0
 52 71  1  0  0  0  0
 53 75  1  0  0  0  0
 54 70  1  0  0  0  0
 55 68  1  0  0  0  0
 56 63  1  0  0  0  0
 56 69  1  0  0  0  0
 57 65  1  0  0  0  0
 58 66  1  0  0  0  0
 59 66  1  0  0  0  0
 60 66  1  0  0  0  0
 61 77  1  0  0  0  0
 62 69  1  0  0  0  0
 63 85  1  0  0  0  0
 64 66  1  0  0  0  0
 64 76  1  0  0  0  0
 65 77  1  0  0  0  0
 67 68  1  0  0  0  0
M  CHG  1  77   1
M  ISO  4  41 100  63 101  74 100  85 101
M  END
> <Batch ID>
0119

> <Smiles>
C=Cc1cc(CN2C(=O)CCC2[101CH2:1][101O:1]c2ccc3c(c2)CN(C(=O)C(NC(=O)C(C)NC)C(C)(C)C)C(C(=O)NC2CCCc4ccccc42)C3)ccc1[100NH:0][100C:0](=O)N1CCCC(n2nc(-c3ccc(Oc4ccc(F)cc4F)cc3)c(C(N)=O)c2N)C1

> <Shape>
0.231

> <Color>
0.188

> <Negative vol penalty>
0.000

$$$$

  -OEChem-04052301513D

 84 92  0     1  0  0  0  0  0999 V2000
  -25.1171  -17.5646   17.1573 C   0  0  0  0  0  0  0  0  0  0  0  0
  -26.3759  -18.1458   17.0439 C   0  0  0  0  0  0  0  0  0  0  0  0
  -23.2866   -9.7961   19.9056 C   0  0  0  0  0  0  0  0  0  0  0  0
  -23.7169   -9.9335   22.2790 C   0  0  0  0  0  0  0  0  0  0  0  0
  -23.9780  -18.3049   16.8438 C   0  0  0  0  0  0  0  0  0  0  0  0
  -26.4965  -19.4675   16.6159 C   0  0  0  0  0  0  0  0  0  0  0  0
  -29.7761  -22.1242   19.4142 C   0  0  0  0  0  0  0  0  0  0  0  0
  -22.5532   -8.6267   20.1062 C   0  0  0  0  0  0  0  0  0  0  0  0
  -22.9835   -8.7641   22.4797 C   0  0  0  0  0  0  0  0  0  0  0  0
  -31.1333  -21.9268   19.1634 C   0  0  0  0  0  0  0  0  0  0  0  0
  -20.9216   -6.0125   23.6608 C   0  0  0  0  0  0  0  0  0  0  0  0
  -20.0105   -5.9907   24.7168 C   0  0  0  0  0  0  0  0  0  0  0  0
  -33.3027  -18.0044   16.9096 C   0  0  0  0  0  0  0  0  0  0  0  0
  -33.8484  -15.7440   16.2541 C   0  0  0  0  0  0  0  0  0  0  0  0
  -31.1795  -23.9518   17.8533 C   0  0  0  0  0  0  0  0  0  0  0  0
  -18.8179   -7.8436   23.7260 C   0  0  0  0  0  0  0  0  0  0  0  0
  -23.8685  -10.4495   20.9919 C   0  0  0  0  0  0  0  0  0  0  0  0
  -32.9219  -16.6756   16.7224 C   0  0  0  0  0  0  0  0  0  0  0  0
  -34.6099  -18.4015   16.6283 C   0  0  0  0  0  0  0  0  0  0  0  0
  -24.1409  -12.9784   20.7970 C   0  0  0  0  0  0  0  0  0  0  0  0
  -24.0840  -19.6393   16.4210 C   0  0  0  0  0  0  0  0  0  0  0  0
  -29.1068  -23.2330   18.8766 C   0  0  0  0  0  0  0  0  0  0  0  0
  -25.3578  -20.2259   16.2952 C   0  0  0  0  0  0  0  0  0  0  0  0
  -29.8144  -24.1624   18.1010 C   0  0  0  0  0  0  0  0  0  0  0  0
  -35.1557  -16.1411   15.9728 C   0  0  0  0  0  0  0  0  0  0  0  0
  -35.5364  -17.4699   16.1600 C   0  0  0  0  0  0  0  0  0  0  0  0
  -22.4016   -8.1107   21.3933 C   0  0  0  0  0  0  0  0  0  0  0  0
  -31.8345  -22.8391   18.3804 C   0  0  0  0  0  0  0  0  0  0  0  0
  -20.7809   -6.9499   22.6375 C   0  0  0  0  0  0  0  0  0  0  0  0
  -18.9587   -6.9062   24.7494 C   0  0  0  0  0  0  0  0  0  0  0  0
  -19.7291   -7.8655   22.6701 C   0  0  0  0  0  0  0  0  0  0  0  0
  -24.6267  -11.6572   20.7852 C   0  0  0  0  0  0  0  0  0  0  0  0
  -25.2480  -13.7535   20.5522 C   0  0  0  0  0  0  0  0  0  0  0  0
  -31.5590  -16.2605   17.0152 C   0  0  0  0  0  0  0  0  0  0  0  0
  -34.9787  -19.8116   16.8370 C   0  0  0  0  0  0  0  0  0  0  0  0
  -31.1593  -14.9918   17.2464 C   0  0  0  0  0  0  0  0  0  0  0  0
  -34.4227  -20.8576   16.2059 C   0  0  0  0  0  0  0  0  0  0  0  0
  -22.8080  -13.4618   21.0103 C   0  0  0  0  0  0  0  0  0  0  0  0
  -29.7358  -14.7312   17.5408 C   0  0  0  0  0  0  0  0  0  0  0  0
  -26.6849  -23.6284   16.8563 C   0  0  0  0  0  0  0  0  0  0  0  0
  -27.0343  -26.7517   17.6595 C   0  0  0  0  0  0  0  0  0  0  0  0
  -29.0625  -29.2311   18.8366 C   0  0  0  0  0  0  0  0  0  0  0  0
  -22.8271  -20.3847   16.0481 C   0  0  0  0  0  0  0  0  0  0  0  0
  -27.6488  -23.4460   19.1787 C   0  0  0  0  0  0  0  0  0  0  0  0
  -29.1470  -25.3799   17.5173 C   0  0  0  0  0  0  0  0  0  0  0  0
  -23.0187  -21.8967   15.9611 C   0  0  0  0  0  0  0  0  0  0  0  0
  -30.1526  -12.5831   20.4808 C   0  0  0  0  0  0  0  0  0  0  0  0
  -24.2797  -22.2304   15.1703 C   0  0  0  0  0  0  0  0  0  0  0  0
  -28.7018  -12.2232   20.7895 C   0  0  0  0  0  0  0  0  0  0  0  0
  -30.3984  -12.7297   18.9799 C   0  0  0  0  0  0  0  0  0  0  0  0
  -28.0211  -13.3319   18.6244 C   0  0  0  0  0  0  0  0  0  0  0  0
  -25.5280  -21.6647   15.8581 C   0  0  1  0  0  0  0  0  0  0  0  0
  -26.9503  -24.3357   18.1551 C   0  0  1  0  0  0  0  0  0  0  0  0
  -27.7404  -13.2256   20.1315 C   0  0  1  0  0  0  0  0  0  0  0  0
  -36.1274  -15.1229   15.4716 C   0  0  0  0  0  0  0  0  0  0  0  0
  -36.9425  -17.8841   15.8541 C   0  0  0  0  0  0  0  0  0  0  0  0
  -29.0776  -31.6882   19.3465 C   0  0  0  0  0  0  0  0  0  0  0  0
  -27.2341  -27.3668   14.6776 C   0  0  0  0  0  0  0  0  0  0  0  0
  -28.1788  -29.6073   15.2741 C   0  0  0  0  0  0  0  0  0  0  0  0
  -25.8679  -28.9993   15.9903 C   0  0  0  0  0  0  0  0  0  0  0  0
  -29.6378  -28.7515   21.6998 C   0  0  0  0  0  0  0  0  0  0  0  0
  -34.8393  -22.2838   16.4407 C   0  0  0  0  0  0  0  0  0  0  0  0
  -33.6671  -23.1451   16.8959 C   0  0  0  0  0  0  0  0  0  1  0  0
  -27.8452  -27.9083   17.1270 C   0  0  1  0  0  0  0  0  0  0  0  0
  -28.8437  -30.2914   19.9007 C   0  0  2  0  0  0  0  0  0  0  0  0
  -27.2939  -28.4465   15.7765 C   0  0  0  0  0  0  0  0  0  0  0  0
  -25.9401  -11.5928   20.5513 N   0  0  0  0  0  0  0  0  0  0  0  0
  -26.2890  -12.8833   20.4138 N   0  0  0  0  0  0  0  0  0  0  0  0
  -29.4297  -13.6483   18.3631 N   0  0  0  0  0  0  0  0  0  0  0  0
  -27.7186  -25.5407   17.8358 N   0  0  0  0  0  0  0  0  0  0  0  0
  -25.4228  -15.0878   20.4440 N   0  0  0  0  0  0  0  0  0  0  0  0
  -21.7891  -12.5293   21.2482 N   0  0  0  0  0  0  0  0  0  0  0  0
  -25.9055  -22.4943   16.9822 N   0  0  0  0  0  0  0  0  0  0  0  0
  -27.8878  -28.9025   18.1938 N   0  0  0  0  0  0  0  0  0  0  0  0
  -29.7751  -30.0775   21.0443 N   0  3  0  0  0  0  0  0  0  0  0  0
  -22.5258  -14.6836   20.9741 O   0  0  0  0  0  0  0  0  0  0  0  0
  -28.9032  -15.4866   17.0360 O   0  0  0  0  0  0  0  0  0  0  0  0
  -27.1515  -24.0790   15.8166 O   0  0  0  0  0  0  0  0  0  0  0  0
  -25.8394  -26.9185   17.9166 O   0  0  0  0  0  0  0  0  0  0  0  0
  -30.1660  -28.7458   18.5968 O   0  0  0  0  0  0  0  0  0  0  0  0
  -21.6859   -6.9698   21.5895 O   0  0  0  0  0  0  0  0  0  0  0  0
  -33.1591  -22.6484   18.1334 O   0  0  0  0  0  0  0  0  0  1  0  0
  -18.0829   -6.8842   25.7627 F   0  0  0  0  0  0  0  0  0  0  0  0
  -19.5881   -8.7676   21.6893 F   0  0  0  0  0  0  0  0  0  0  0  0
  1  2  1  0  0  0  0
  1  5  2  0  0  0  0
  2  6  2  0  0  0  0
  3  8  2  0  0  0  0
  3 17  1  0  0  0  0
  4  9  1  0  0  0  0
  4 17  2  0  0  0  0
  5 21  1  0  0  0  0
  6 23  1  0  0  0  0
  7 10  2  0  0  0  0
  7 22  1  0  0  0  0
  8 27  1  0  0  0  0
  9 27  2  0  0  0  0
 10 28  1  0  0  0  0
 11 12  2  0  0  0  0
 11 29  1  0  0  0  0
 12 30  1  0  0  0  0
 13 18  2  0  0  0  0
 13 19  1  0  0  0  0
 14 18  1  0  0  0  0
 14 25  2  0  0  0  0
 15 24  1  0  0  0  0
 15 28  2  0  0  0  0
 16 30  2  0  0  0  0
 16 31  1  0  0  0  0
 17 32  1  0  0  0  0
 18 34  1  0  0  0  0
 19 26  2  0  0  0  0
 19 35  1  0  0  0  0
 20 32  1  0  0  0  0
 20 33  2  0  0  0  0
 20 38  1  0  0  0  0
 21 23  2  0  0  0  0
 21 43  1  0  0  0  0
 22 24  2  0  0  0  0
 22 44  1  0  0  0  0
 23 52  1  0  0  0  0
 24 45  1  0  0  0  0
 25 26  1  0  0  0  0
 25 55  1  0  0  0  0
 26 56  1  0  0  0  0
 27 81  1  0  0  0  0
 28 82  1  0  0  0  0
 29 31  2  0  0  0  0
 29 81  1  0  0  0  0
 30 83  1  0  0  0  0
 31 84  1  0  0  0  0
 32 67  2  0  0  0  0
 33 68  1  0  0  0  0
 33 71  1  0  0  0  0
 34 36  2  0  0  0  0
 35 37  2  0  0  0  0
 36 39  1  0  0  0  0
 37 62  1  0  0  0  0
 38 72  1  0  0  0  0
 38 76  2  0  0  0  0
 39 69  1  0  0  0  0
 39 77  2  0  0  0  0
 40 53  1  0  0  0  0
 40 73  1  0  0  0  0
 40 78  2  0  0  0  0
 41 64  1  0  0  0  0
 41 70  1  0  0  0  0
 41 79  2  0  0  0  0
 42 65  1  0  0  0  0
 42 74  1  0  0  0  0
 42 80  2  0  0  0  0
 43 46  1  0  0  0  0
 44 53  1  0  0  0  0
 45 70  1  0  0  0  0
 46 48  1  0  0  0  0
 47 49  1  0  0  0  0
 47 50  1  0  0  0  0
 48 52  1  0  0  0  0
 49 54  1  0  0  0  0
 50 69  1  0  0  0  0
 51 54  1  0  0  0  0
 51 69  1  0  0  0  0
 52 73  1  0  0  0  0
 53 70  1  0  0  0  0
 54 68  1  0  0  0  0
 57 65  1  0  0  0  0
 58 66  1  0  0  0  0
 59 66  1  0  0  0  0
 60 66  1  0  0  0  0
 61 75  1  0  0  0  0
 62 63  1  0  0  0  0
 63 82  1  0  0  0  0
 64 66  1  0  0  0  0
 64 74  1  0  0  0  0
 65 75  1  0  0  0  0
 67 68  1  0  0  0  0
M  CHG  1  75   1
M  ISO  4  36 100  39 100  63 101  82 101
M  END
> <Batch ID>
0119

> <Smiles>
CNC(C)C(=O)NC(C(=O)N1Cc2cc([101O:1][101CH2:1]CC=Cc3cc(C=[100CH:0][100C:0](=O)N4CCCC(n5nc(-c6ccc(Oc7ccc(F)cc7F)cc6)c(C(N)=O)c5N)C4)cc(C)c3C)ccc2CC1C(=O)NC1CCCc2ccccc21)C(C)(C)C

> <Shape>
0.176

> <Color>
0.185

> <Negative vol penalty>
0.000

$$$$

  -OEChem-04052301513D

 86 94  0     1  0  0  0  0  0999 V2000
  -17.0566  -26.8355   20.3132 C   0  0  0  0  0  0  0  0  0  0  0  0
  -18.3236  -26.5528   19.8130 C   0  0  0  0  0  0  0  0  0  0  0  0
  -23.8225   -9.7259   20.1535 C   0  0  0  0  0  0  0  0  0  0  0  0
  -24.5504  -10.0730   22.4309 C   0  0  0  0  0  0  0  0  0  0  0  0
  -16.9202  -27.5985   21.4721 C   0  0  0  0  0  0  0  0  0  0  0  0
  -19.4550  -27.0340   20.4709 C   0  0  0  0  0  0  0  0  0  0  0  0
  -24.8862  -24.2487   20.9709 C   0  0  0  0  0  0  0  0  0  0  0  0
  -23.3881   -8.4433   20.4877 C   0  0  0  0  0  0  0  0  0  0  0  0
  -24.1160   -8.7903   22.7652 C   0  0  0  0  0  0  0  0  0  0  0  0
  -26.0815  -24.3908   20.2675 C   0  0  0  0  0  0  0  0  0  0  0  0
  -21.1860   -7.2575   23.4625 C   0  0  0  0  0  0  0  0  0  0  0  0
  -20.4595   -7.1084   24.6438 C   0  0  0  0  0  0  0  0  0  0  0  0
  -28.9932  -20.3824   23.1180 C   0  0  0  0  0  0  0  0  0  0  0  0
  -26.8984  -25.8912   21.9706 C   0  0  0  0  0  0  0  0  0  0  0  0
  -30.0465  -19.3994   20.7290 C   0  0  0  0  0  0  0  0  0  0  0  0
  -22.1417   -5.5930   25.4870 C   0  0  0  0  0  0  0  0  0  0  0  0
  -24.4037  -10.5408   21.1251 C   0  0  0  0  0  0  0  0  0  0  0  0
  -29.7071  -21.2290   22.2700 C   0  0  0  0  0  0  0  0  0  0  0  0
  -24.1072  -13.0581   20.8372 C   0  0  0  0  0  0  0  0  0  0  0  0
  -18.0508  -28.0812   22.1499 C   0  0  0  0  0  0  0  0  0  0  0  0
  -24.6834  -24.9365   22.1760 C   0  0  0  0  0  0  0  0  0  0  0  0
  -19.3336  -27.8054   21.6392 C   0  0  0  0  0  0  0  0  0  0  0  0
  -25.7006  -25.7541   22.6887 C   0  0  0  0  0  0  0  0  0  0  0  0
  -28.8060  -19.0442   22.7715 C   0  0  0  0  0  0  0  0  0  0  0  0
  -29.3326  -18.5528   21.5770 C   0  0  0  0  0  0  0  0  0  0  0  0
  -23.5348   -7.9755   21.7936 C   0  0  0  0  0  0  0  0  0  0  0  0
  -27.0867  -25.2144   20.7658 C   0  0  0  0  0  0  0  0  0  0  0  0
  -22.3903   -6.5743   23.2933 C   0  0  0  0  0  0  0  0  0  0  0  0
  -30.2337  -20.7376   21.0755 C   0  0  0  0  0  0  0  0  0  0  0  0
  -20.9373   -6.2761   25.6561 C   0  0  0  0  0  0  0  0  0  0  0  0
  -22.8681   -5.7421   24.3056 C   0  0  0  0  0  0  0  0  0  0  0  0
  -24.8532  -11.8656   20.7802 C   0  0  0  0  0  0  0  0  0  0  0  0
  -24.9796  -14.0296   20.4111 C   0  0  0  0  0  0  0  0  0  0  0  0
  -29.0405  -23.2911   23.4184 C   0  0  0  0  0  0  0  0  0  0  0  0
  -29.8911  -22.6219   22.6543 C   0  0  0  0  0  0  0  0  0  0  0  0
  -22.7472  -13.2687   21.2392 C   0  0  0  0  0  0  0  0  0  0  0  0
  -22.6234  -27.1377   23.1832 C   0  0  0  0  0  0  0  0  0  0  0  0
  -30.1973  -24.2152   19.1888 C   0  0  0  0  0  0  0  0  0  0  0  0
  -24.0763  -26.6302   26.0387 C   0  0  0  0  0  0  0  0  0  0  0  0
  -26.8454  -25.5792   27.7342 C   0  0  0  0  0  0  0  0  0  0  0  0
  -30.0135  -16.4090   20.4426 C   0  0  0  0  0  0  0  0  0  0  0  0
  -17.8519  -28.9416   23.3725 C   0  0  0  0  0  0  0  0  0  0  0  0
  -23.3988  -24.7516   22.9363 C   0  0  0  0  0  0  0  0  0  0  0  0
  -25.5405  -26.4983   23.9883 C   0  0  0  0  0  0  0  0  0  0  0  0
  -19.1126  -29.0983   24.2188 C   0  0  0  0  0  0  0  0  0  0  0  0
  -29.5410  -13.6429   18.2511 C   0  0  0  0  0  0  0  0  0  0  0  0
  -20.3125  -29.4222   23.3343 C   0  0  0  0  0  0  0  0  0  0  0  0
  -28.2179  -13.0320   18.7184 C   0  0  0  0  0  0  0  0  0  0  0  0
  -30.3671  -14.1707   19.4227 C   0  0  0  0  0  0  0  0  0  0  0  0
  -28.3361  -14.4886   20.7803 C   0  0  0  0  0  0  0  0  0  0  0  0
  -20.5857  -28.2886   22.3384 C   0  0  1  0  0  0  0  0  0  0  0  0
  -23.0997  -25.9019   23.8927 C   0  0  1  0  0  0  0  0  0  0  0  0
  -27.4402  -14.0018   19.6296 C   0  0  2  0  0  0  0  0  0  0  0  0
  -28.0360  -18.1600   23.6983 C   0  0  0  0  0  0  0  0  0  0  0  0
  -27.7496  -25.3178   30.0604 C   0  0  0  0  0  0  0  0  0  0  0  0
  -24.5572  -29.6396   26.1874 C   0  0  0  0  0  0  0  0  0  0  0  0
  -26.2444  -29.2108   27.9867 C   0  0  0  0  0  0  0  0  0  0  0  0
  -23.8557  -28.5874   28.3450 C   0  0  0  0  0  0  0  0  0  0  0  0
  -27.1377  -22.6513   27.4162 C   0  0  0  0  0  0  0  0  0  0  0  0
  -30.7760  -23.0774   18.3607 C   0  0  0  0  0  0  0  0  0  0  0  0
  -28.6850  -24.2441   19.2962 C   0  0  0  0  0  0  0  0  0  1  0  0
  -30.4250  -21.7024   18.9102 C   0  0  0  0  0  0  0  0  0  0  0  0
  -25.2674  -27.2225   26.7524 C   0  0  1  0  0  0  0  0  0  0  0  0
  -27.0065  -24.6428   28.9181 C   0  0  2  0  0  0  0  0  0  0  0  0
  -24.9837  -28.6527   27.2924 C   0  0  0  0  0  0  0  0  0  0  0  0
  -26.1033  -12.0594   20.3517 N   0  0  0  0  0  0  0  0  0  0  0  0
  -26.1495  -13.3850   20.1354 N   0  0  0  0  0  0  0  0  0  0  0  0
  -24.2640  -26.2900   24.6915 N   0  0  0  0  0  0  0  0  0  0  0  0
  -29.5669  -15.0862   20.2391 N   0  0  0  0  0  0  0  0  0  0  0  0
  -24.8525  -15.3637   20.2492 N   0  0  0  0  0  0  0  0  0  0  0  0
  -21.9922  -12.1611   21.6485 N   0  0  0  0  0  0  0  0  0  0  0  0
  -29.1542  -17.1963   21.2083 N   0  0  0  0  0  0  0  0  0  0  0  0
  -21.2551  -27.1875   22.9971 N   0  0  0  0  0  0  0  0  0  0  0  0
  -25.6472  -26.2600   27.7809 N   0  0  0  0  0  0  0  0  0  0  0  0
  -27.7674  -23.4260   28.5163 N   0  3  0  0  0  0  0  0  0  0  0  0
  -22.2121  -14.4032   21.2201 O   0  0  0  0  0  0  0  0  0  0  0  0
  -23.4370  -27.9842   22.8321 O   0  0  0  0  0  0  0  0  0  0  0  0
  -30.9015  -25.0591   19.7407 O   0  0  0  0  0  0  0  0  0  0  0  0
  -23.0205  -26.4685   26.6558 O   0  0  0  0  0  0  0  0  0  0  0  0
  -27.6988  -25.6978   26.8577 O   0  0  0  0  0  0  0  0  0  0  0  0
  -31.0665  -16.8215   19.9496 O   0  0  0  0  0  0  0  0  0  0  0  0
  -23.1108   -6.7241   22.1202 O   0  0  0  0  0  0  0  0  0  0  0  0
  -28.2541  -25.3554   20.0809 O   0  0  0  0  0  0  0  0  0  1  0  0
  -30.9414  -21.5471   20.2263 O   0  0  0  0  0  0  0  0  0  0  0  0
  -20.2403   -6.1342   26.7911 F   0  0  0  0  0  0  0  0  0  0  0  0
  -24.0251   -5.0841   24.1493 F   0  0  0  0  0  0  0  0  0  0  0  0
  1  2  1  0  0  0  0
  1  5  2  0  0  0  0
  2  6  2  0  0  0  0
  3  8  2  0  0  0  0
  3 17  1  0  0  0  0
  4  9  1  0  0  0  0
  4 17  2  0  0  0  0
  5 20  1  0  0  0  0
  6 22  1  0  0  0  0
  7 10  2  0  0  0  0
  7 21  1  0  0  0  0
  8 26  1  0  0  0  0
  9 26  2  0  0  0  0
 10 27  1  0  0  0  0
 11 12  2  0  0  0  0
 11 28  1  0  0  0  0
 12 30  1  0  0  0  0
 13 18  1  0  0  0  0
 13 24  2  0  0  0  0
 14 23  1  0  0  0  0
 14 27  2  0  0  0  0
 15 25  2  0  0  0  0
 15 29  1  0  0  0  0
 16 30  2  0  0  0  0
 16 31  1  0  0  0  0
 17 32  1  0  0  0  0
 18 29  2  0  0  0  0
 18 35  1  0  0  0  0
 19 32  1  0  0  0  0
 19 33  2  0  0  0  0
 19 36  1  0  0  0  0
 20 22  2  0  0  0  0
 20 42  1  0  0  0  0
 21 23  2  0  0  0  0
 21 43  1  0  0  0  0
 22 51  1  0  0  0  0
 23 44  1  0  0  0  0
 24 25  1  0  0  0  0
 24 54  1  0  0  0  0
 25 72  1  0  0  0  0
 26 82  1  0  0  0  0
 27 83  1  0  0  0  0
 28 31  2  0  0  0  0
 28 82  1  0  0  0  0
 29 84  1  0  0  0  0
 30 85  1  0  0  0  0
 31 86  1  0  0  0  0
 32 66  2  0  0  0  0
 33 67  1  0  0  0  0
 33 70  1  0  0  0  0
 34 35  2  0  0  0  0
 36 71  1  0  0  0  0
 36 76  2  0  0  0  0
 37 52  1  0  0  0  0
 37 73  1  0  0  0  0
 37 77  2  0  0  0  0
 38 60  1  0  0  0  0
 38 61  1  0  0  0  0
 38 78  2  0  0  0  0
 39 63  1  0  0  0  0
 39 68  1  0  0  0  0
 39 79  2  0  0  0  0
 40 64  1  0  0  0  0
 40 74  1  0  0  0  0
 40 80  2  0  0  0  0
 41 69  1  0  0  0  0
 41 72  1  0  0  0  0
 41 81  2  0  0  0  0
 42 45  1  0  0  0  0
 43 52  1  0  0  0  0
 44 68  1  0  0  0  0
 45 47  1  0  0  0  0
 46 48  1  0  0  0  0
 46 49  1  0  0  0  0
 47 51  1  0  0  0  0
 48 53  1  0  0  0  0
 49 69  1  0  0  0  0
 50 53  1  0  0  0  0
 50 69  1  0  0  0  0
 51 73  1  0  0  0  0
 52 68  1  0  0  0  0
 53 67  1  0  0  0  0
 55 64  1  0  0  0  0
 56 65  1  0  0  0  0
 57 65  1  0  0  0  0
 58 65  1  0  0  0  0
 59 75  1  0  0  0  0
 60 62  1  0  0  0  0
 61 83  1  0  0  0  0
 62 84  1  0  0  0  0
 63 65  1  0  0  0  0
 63 74  1  0  0  0  0
 64 75  1  0  0  0  0
 66 67  1  0  0  0  0
M  CHG  1  75   1
M  ISO  4  41 100  61 101  72 100  83 101
M  END
> <Batch ID>
0119

> <Smiles>
C=Cc1cc(C)c([100NH:0][100C:0](=O)N2CCCC(n3nc(-c4ccc(Oc5ccc(F)cc5F)cc4)c(C(N)=O)c3N)C2)cc1OCCC(=O)[101CH2:1][101O:1]c1ccc2c(c1)CN(C(=O)C(NC(=O)C(C)NC)C(C)(C)C)C(C(=O)NC1CCCc3ccccc31)C2

> <Shape>
0.264

> <Color>
0.148

> <Negative vol penalty>
0.000

$$$$

  -OEChem-04052301513D

 85 93  0     1  0  0  0  0  0999 V2000
  -21.6582  -32.3895   13.4054 C   0  0  0  0  0  0  0  0  0  0  0  0
  -22.3718  -31.3506   13.9944 C   0  0  0  0  0  0  0  0  0  0  0  0
  -24.3252   -8.8354   21.3870 C   0  0  0  0  0  0  0  0  0  0  0  0
  -24.7726  -10.0887   23.4034 C   0  0  0  0  0  0  0  0  0  0  0  0
  -21.9376  -33.7105   13.7530 C   0  0  0  0  0  0  0  0  0  0  0  0
  -23.3661  -31.6322   14.9305 C   0  0  0  0  0  0  0  0  0  0  0  0
  -24.8444  -28.2946   19.8479 C   0  0  0  0  0  0  0  0  0  0  0  0
  -24.0473   -7.7030   22.1525 C   0  0  0  0  0  0  0  0  0  0  0  0
  -24.4946   -8.9563   24.1689 C   0  0  0  0  0  0  0  0  0  0  0  0
  -25.8543  -27.3616   20.0793 C   0  0  0  0  0  0  0  0  0  0  0  0
  -22.8692   -4.5800   23.5927 C   0  0  0  0  0  0  0  0  0  0  0  0
  -21.7389   -3.8336   23.2598 C   0  0  0  0  0  0  0  0  0  0  0  0
  -27.2159  -29.0898   21.0685 C   0  0  0  0  0  0  0  0  0  0  0  0
  -27.5248  -20.3871   20.9939 C   0  0  0  0  0  0  0  0  0  0  0  0
  -29.7846  -18.9209   20.2682 C   0  0  0  0  0  0  0  0  0  0  0  0
  -20.3446   -5.7649   23.6641 C   0  0  0  0  0  0  0  0  0  0  0  0
  -24.6879  -10.0283   22.0124 C   0  0  0  0  0  0  0  0  0  0  0  0
  -24.0657  -12.1894   20.8082 C   0  0  0  0  0  0  0  0  0  0  0  0
  -22.9292  -34.0079   14.7010 C   0  0  0  0  0  0  0  0  0  0  0  0
  -25.0174  -29.6367   20.2159 C   0  0  0  0  0  0  0  0  0  0  0  0
  -23.6600  -32.9585   15.2902 C   0  0  0  0  0  0  0  0  0  0  0  0
  -26.2057  -30.0373   20.8430 C   0  0  0  0  0  0  0  0  0  0  0  0
  -27.3947  -19.0567   20.5956 C   0  0  0  0  0  0  0  0  0  0  0  0
  -28.7848  -20.9845   21.0293 C   0  0  0  0  0  0  0  0  0  0  0  0
  -28.5245  -18.3236   20.2328 C   0  0  0  0  0  0  0  0  0  0  0  0
  -24.1319   -7.7634   23.5434 C   0  0  0  0  0  0  0  0  0  0  0  0
  -27.0414  -27.7597   20.6870 C   0  0  0  0  0  0  0  0  0  0  0  0
  -22.7373   -5.9188   23.9613 C   0  0  0  0  0  0  0  0  0  0  0  0
  -20.4766   -4.4260   23.2955 C   0  0  0  0  0  0  0  0  0  0  0  0
  -29.9147  -20.2514   20.6665 C   0  0  0  0  0  0  0  0  0  0  0  0
  -21.4750   -6.5112   23.9970 C   0  0  0  0  0  0  0  0  0  0  0  0
  -24.9757  -11.1982   21.2222 C   0  0  0  0  0  0  0  0  0  0  0  0
  -24.8283  -13.0766   20.0886 C   0  0  0  0  0  0  0  0  0  0  0  0
  -28.8337  -23.1969   20.4862 C   0  0  0  0  0  0  0  0  0  0  0  0
  -22.6571  -12.2984   21.0524 C   0  0  0  0  0  0  0  0  0  0  0  0
  -28.9655  -24.6427   20.8395 C   0  0  0  0  0  0  0  0  0  0  0  0
  -25.0995  -32.4000   18.6471 C   0  0  0  0  0  0  0  0  0  0  0  0
  -25.2264  -33.6479   21.6385 C   0  0  0  0  0  0  0  0  0  0  0  0
  -26.0159  -33.2094   24.9296 C   0  0  0  0  0  0  0  0  0  0  0  0
  -29.4459  -16.1187   19.4354 C   0  0  0  0  0  0  0  0  0  0  0  0
  -23.2281  -35.4536   15.0097 C   0  0  0  0  0  0  0  0  0  0  0  0
  -23.9078  -30.6253   19.9837 C   0  0  0  0  0  0  0  0  0  0  0  0
  -26.4329  -31.4620   21.2755 C   0  0  0  0  0  0  0  0  0  0  0  0
  -24.0401  -35.6484   16.2876 C   0  0  0  0  0  0  0  0  0  0  0  0
  -29.5857  -12.7156   18.3978 C   0  0  0  0  0  0  0  0  0  0  0  0
  -25.2154  -34.6768   16.3265 C   0  0  0  0  0  0  0  0  0  0  0  0
  -28.3239  -12.0990   19.0061 C   0  0  0  0  0  0  0  0  0  0  0  0
  -30.2111  -13.7571   19.3240 C   0  0  0  0  0  0  0  0  0  0  0  0
  -28.0338  -14.1929   20.3910 C   0  0  0  0  0  0  0  0  0  0  0  0
  -24.7291  -33.2225   16.3282 C   0  0  1  0  0  0  0  0  0  0  0  0
  -24.3957  -32.0699   19.9329 C   0  0  1  0  0  0  0  0  0  0  0  0
  -27.3318  -13.1848   19.4666 C   0  0  2  0  0  0  0  0  0  0  0  0
  -25.4769  -18.3361   19.1501 C   0  0  0  0  0  0  0  0  0  0  0  0
  -26.0455  -34.4214   27.1267 C   0  0  0  0  0  0  0  0  0  0  0  0
  -27.7219  -35.1696   20.7627 C   0  0  0  0  0  0  0  0  0  0  0  0
  -28.2332  -35.5824   23.1786 C   0  0  0  0  0  0  0  0  0  0  0  0
  -26.1371  -36.4904   22.1763 C   0  0  0  0  0  0  0  0  0  0  0  0
  -24.1196  -31.2901   26.1459 C   0  0  0  0  0  0  0  0  0  0  0  0
  -26.0328  -18.4420   20.5666 C   0  0  0  0  0  0  0  0  0  0  0  0
  -27.7816  -25.5072   20.5028 C   0  0  0  0  0  0  0  0  0  1  0  0
  -26.3325  -34.0059   22.6015 C   0  0  1  0  0  0  0  0  0  0  0  0
  -25.2453  -33.5192   26.2003 C   0  0  2  0  0  0  0  0  0  0  0  0
  -27.1030  -35.2855   22.1700 C   0  0  0  0  0  0  0  0  0  0  0  0
  -26.2211  -11.4331   20.8004 N   0  0  0  0  0  0  0  0  0  0  0  0
  -28.9141  -22.3249   21.4302 N   0  0  0  0  0  0  0  0  0  0  0  0
  -26.0991  -12.5820   20.1139 N   0  0  0  0  0  0  0  0  0  0  0  0
  -25.3208  -32.3927   21.0211 N   0  0  0  0  0  0  0  0  0  0  0  0
  -29.2137  -14.7554   19.7156 N   0  0  0  0  0  0  0  0  0  0  0  0
  -24.5290  -14.2237   19.4428 N   0  0  0  0  0  0  0  0  0  0  0  0
  -22.0313  -11.2999   21.8111 N   0  0  0  0  0  0  0  0  0  0  0  0
  -28.4133  -16.9713   19.8246 N   0  0  0  0  0  0  0  0  0  0  0  0
  -24.2600  -32.8479   17.6451 N   0  0  0  0  0  0  0  0  0  0  0  0
  -25.7129  -34.0973   23.9191 N   0  0  0  0  0  0  0  0  0  0  0  0
  -24.9246  -32.2608   26.9314 N   0  3  0  0  0  0  0  0  0  0  0  0
  -21.9706  -13.2445   20.5972 O   0  0  0  0  0  0  0  0  0  0  0  0
  -29.9962  -25.0142   21.3781 O   0  0  0  0  0  0  0  0  0  0  0  0
  -26.3145  -32.2600   18.5702 O   0  0  0  0  0  0  0  0  0  0  0  0
  -24.3086  -34.4495   21.4467 O   0  0  0  0  0  0  0  0  0  0  0  0
  -26.8103  -32.2755   24.8432 O   0  0  0  0  0  0  0  0  0  0  0  0
  -30.4722  -16.4985   18.8659 O   0  0  0  0  0  0  0  0  0  0  0  0
  -23.8606   -6.6587   24.2907 O   0  0  0  0  0  0  0  0  0  0  0  0
  -28.0290  -26.8513   20.9134 O   0  0  0  0  0  0  0  0  0  1  0  0
  -19.3914   -3.7096   22.9743 F   0  0  0  0  0  0  0  0  0  0  0  0
  -31.1294  -20.8173   20.6985 F   0  0  0  0  0  0  0  0  0  0  0  0
  -21.3421   -7.7974   24.3491 F   0  0  0  0  0  0  0  0  0  0  0  0
  1  2  1  0  0  0  0
  1  5  2  0  0  0  0
  2  6  2  0  0  0  0
  3  8  2  0  0  0  0
  3 17  1  0  0  0  0
  4  9  1  0  0  0  0
  4 17  2  0  0  0  0
  5 19  1  0  0  0  0
  6 21  1  0  0  0  0
  7 10  2  0  0  0  0
  7 20  1  0  0  0  0
  8 26  1  0  0  0  0
  9 26  2  0  0  0  0
 10 27  1  0  0  0  0
 11 12  2  0  0  0  0
 11 28  1  0  0  0  0
 12 29  1  0  0  0  0
 13 22  1  0  0  0  0
 13 27  2  0  0  0  0
 14 23  1  0  0  0  0
 14 24  2  0  0  0  0
 15 25  1  0  0  0  0
 15 30  2  0  0  0  0
 16 29  2  0  0  0  0
 16 31  1  0  0  0  0
 17 32  1  0  0  0  0
 18 32  1  0  0  0  0
 18 33  2  0  0  0  0
 18 35  1  0  0  0  0
 19 21  2  0  0  0  0
 19 41  1  0  0  0  0
 20 22  2  0  0  0  0
 20 42  1  0  0  0  0
 21 50  1  0  0  0  0
 22 43  1  0  0  0  0
 23 25  2  0  0  0  0
 23 59  1  0  0  0  0
 24 30  1  0  0  0  0
 24 65  1  0  0  0  0
 25 71  1  0  0  0  0
 26 81  1  0  0  0  0
 27 82  1  0  0  0  0
 28 31  2  0  0  0  0
 28 81  1  0  0  0  0
 29 83  1  0  0  0  0
 30 84  1  0  0  0  0
 31 85  1  0  0  0  0
 32 64  2  0  0  0  0
 33 66  1  0  0  0  0
 33 69  1  0  0  0  0
 34 36  1  0  0  0  0
 34 65  2  0  0  0  0
 35 70  1  0  0  0  0
 35 75  2  0  0  0  0
 36 60  1  0  0  0  0
 36 76  2  0  0  0  0
 37 51  1  0  0  0  0
 37 72  1  0  0  0  0
 37 77  2  0  0  0  0
 38 61  1  0  0  0  0
 38 67  1  0  0  0  0
 38 78  2  0  0  0  0
 39 62  1  0  0  0  0
 39 73  1  0  0  0  0
 39 79  2  0  0  0  0
 40 68  1  0  0  0  0
 40 71  1  0  0  0  0
 40 80  2  0  0  0  0
 41 44  1  0  0  0  0
 42 51  1  0  0  0  0
 43 67  1  0  0  0  0
 44 46  1  0  0  0  0
 45 47  1  0  0  0  0
 45 48  1  0  0  0  0
 46 50  1  0  0  0  0
 47 52  1  0  0  0  0
 48 68  1  0  0  0  0
 49 52  1  0  0  0  0
 49 68  1  0  0  0  0
 50 72  1  0  0  0  0
 51 67  1  0  0  0  0
 52 66  1  0  0  0  0
 53 59  1  0  0  0  0
 54 62  1  0  0  0  0
 55 63  1  0  0  0  0
 56 63  1  0  0  0  0
 57 63  1  0  0  0  0
 58 74  1  0  0  0  0
 60 82  1  0  0  0  0
 61 63  1  0  0  0  0
 61 73  1  0  0  0  0
 62 74  1  0  0  0  0
 64 66  1  0  0  0  0
M  CHG  1  74   1
M  ISO  4  40 100  60 101  71 100  82 101
M  END
> <Batch ID>
0119

> <Smiles>
C=Cc1cc(NCC(=O)[101CH2:1][101O:1]c2ccc3c(c2)CN(C(=O)C(NC(=O)C(C)NC)C(C)(C)C)C(C(=O)NC2CCCc4ccccc42)C3)c(F)cc1[100NH:0][100C:0](=O)N1CCCC(n2nc(-c3ccc(Oc4ccc(F)cc4F)cc3)c(C(N)=O)c2N)C1

> <Shape>
0.303

> <Color>
0.115

> <Negative vol penalty>
0.000

$$$$

  -OEChem-04052301513D

 84 92  0     1  0  0  0  0  0999 V2000
  -27.3035  -37.7298   22.7510 C   0  0  0  0  0  0  0  0  0  0  0  0
  -27.8476  -36.7484   21.9288 C   0  0  0  0  0  0  0  0  0  0  0  0
  -25.1837   -7.0924   22.3344 C   0  0  0  0  0  0  0  0  0  0  0  0
  -22.8623   -7.2844   21.6931 C   0  0  0  0  0  0  0  0  0  0  0  0
  -26.5594  -37.3645   23.8721 C   0  0  0  0  0  0  0  0  0  0  0  0
  -27.6489  -35.4009   22.2278 C   0  0  0  0  0  0  0  0  0  0  0  0
  -26.8253  -29.0378   19.0421 C   0  0  0  0  0  0  0  0  0  0  0  0
  -24.8526   -6.0742   23.2283 C   0  0  0  0  0  0  0  0  0  0  0  0
  -22.5311   -6.2660   22.5869 C   0  0  0  0  0  0  0  0  0  0  0  0
  -27.3484  -27.7457   19.0657 C   0  0  0  0  0  0  0  0  0  0  0  0
  -24.1512   -2.7693   23.0906 C   0  0  0  0  0  0  0  0  0  0  0  0
  -24.9599   -1.6330   23.1072 C   0  0  0  0  0  0  0  0  0  0  0  0
  -29.0603  -19.0195   19.6278 C   0  0  0  0  0  0  0  0  0  0  0  0
  -27.6200  -20.5936   17.8305 C   0  0  0  0  0  0  0  0  0  0  0  0
  -25.9791  -27.2329   20.9843 C   0  0  0  0  0  0  0  0  0  0  0  0
  -25.4801   -2.0374   25.4317 C   0  0  0  0  0  0  0  0  0  0  0  0
  -24.1885   -7.6976   21.5668 C   0  0  0  0  0  0  0  0  0  0  0  0
  -29.2235  -20.4048   19.6278 C   0  0  0  0  0  0  0  0  0  0  0  0
  -28.1771  -18.4213   18.7291 C   0  0  0  0  0  0  0  0  0  0  0  0
  -28.5033  -21.1918   18.7292 C   0  0  0  0  0  0  0  0  0  0  0  0
  -24.8918   -8.6095   19.2905 C   0  0  0  0  0  0  0  0  0  0  0  0
  -26.3433  -36.0120   24.1797 C   0  0  0  0  0  0  0  0  0  0  0  0
  -25.8816  -29.4412   19.9976 C   0  0  0  0  0  0  0  0  0  0  0  0
  -26.9023  -35.0172   23.3548 C   0  0  0  0  0  0  0  0  0  0  0  0
  -25.4436  -28.5298   20.9691 C   0  0  0  0  0  0  0  0  0  0  0  0
  -27.4570  -19.2083   17.8304 C   0  0  0  0  0  0  0  0  0  0  0  0
  -23.5263   -5.6609   23.3545 C   0  0  0  0  0  0  0  0  0  0  0  0
  -26.9275  -26.8439   20.0387 C   0  0  0  0  0  0  0  0  0  0  0  0
  -24.0069   -3.5397   24.2444 C   0  0  0  0  0  0  0  0  0  0  0  0
  -25.6244   -1.2670   24.2778 C   0  0  0  0  0  0  0  0  0  0  0  0
  -24.6713   -3.1737   25.4150 C   0  0  0  0  0  0  0  0  0  0  0  0
  -24.5298   -8.7500   20.6437 C   0  0  0  0  0  0  0  0  0  0  0  0
  -25.1161   -9.8943   18.8600 C   0  0  0  0  0  0  0  0  0  0  0  0
  -31.4541  -20.7183   20.5979 C   0  0  0  0  0  0  0  0  0  0  0  0
  -30.1583  -20.9874   20.5844 C   0  0  0  0  0  0  0  0  0  0  0  0
  -28.0285  -16.9717   18.7531 C   0  0  0  0  0  0  0  0  0  0  0  0
  -28.6443  -22.6571   18.6921 C   0  0  0  0  0  0  0  0  0  0  0  0
  -27.5912  -16.2494   19.8045 C   0  0  0  0  0  0  0  0  0  0  0  0
  -27.6468  -23.5357   18.8771 C   0  0  0  0  0  0  0  0  0  0  0  0
  -25.0143   -7.4237   18.4940 C   0  0  0  0  0  0  0  0  0  0  0  0
  -27.4856  -14.7826   19.6693 C   0  0  0  0  0  0  0  0  0  0  0  0
  -25.7993  -31.6614   22.2709 C   0  0  0  0  0  0  0  0  0  0  0  0
  -22.7199  -30.6864   22.5689 C   0  0  0  0  0  0  0  0  0  0  0  0
  -20.4061  -28.2183   22.1199 C   0  0  0  0  0  0  0  0  0  0  0  0
  -25.5721  -35.6657   25.4286 C   0  0  0  0  0  0  0  0  0  0  0  0
  -25.3070  -30.8302   19.9422 C   0  0  0  0  0  0  0  0  0  0  0  0
  -24.4175  -28.9071   22.0051 C   0  0  0  0  0  0  0  0  0  0  0  0
  -25.0923  -34.2171   25.4663 C   0  0  0  0  0  0  0  0  0  0  0  0
  -24.1150  -14.3321   21.0358 C   0  0  0  0  0  0  0  0  0  0  0  0
  -26.2199  -33.2707   25.0665 C   0  0  0  0  0  0  0  0  0  0  0  0
  -23.9781  -12.8128   20.9848 C   0  0  0  0  0  0  0  0  0  0  0  0
  -25.5492  -14.7673   21.3325 C   0  0  0  0  0  0  0  0  0  0  0  0
  -26.4171  -12.6671   20.3443 C   0  0  0  0  0  0  0  0  0  0  0  0
  -26.6879  -33.5451   23.6322 C   0  0  1  0  0  0  0  0  0  0  0  0
  -24.7334  -31.2933   21.2779 C   0  0  1  0  0  0  0  0  0  0  0  0
  -24.9916  -12.2077   20.0005 C   0  0  1  0  0  0  0  0  0  0  0  0
  -26.5032  -18.6007   16.8526 C   0  0  0  0  0  0  0  0  0  0  0  0
  -17.9793  -27.7012   22.4952 C   0  0  0  0  0  0  0  0  0  0  0  0
  -23.2710  -30.2690   25.5408 C   0  0  0  0  0  0  0  0  0  0  0  0
  -21.1836  -28.8920   25.6632 C   0  0  0  0  0  0  0  0  0  0  0  0
  -21.0515  -31.3002   25.0261 C   0  0  0  0  0  0  0  0  0  0  0  0
  -19.9180  -27.8462   19.2246 C   0  0  0  0  0  0  0  0  0  0  0  0
  -27.8363  -25.0175   18.8162 C   0  0  0  0  0  0  0  0  0  1  0  0
  -22.0058  -29.6336   23.3817 C   0  0  1  0  0  0  0  0  0  0  0  0
  -19.0124  -28.2415   21.5186 C   0  0  2  0  0  0  0  0  0  0  0  0
  -21.8987  -30.0169   24.8848 C   0  0  0  0  0  0  0  0  0  0  0  0
  -24.5234  -10.0235   21.0462 N   0  0  0  0  0  0  0  0  0  0  0  0
  -24.8842  -10.6950   19.9394 N   0  0  0  0  0  0  0  0  0  0  0  0
  -26.5058  -14.1299   20.4152 N   0  0  0  0  0  0  0  0  0  0  0  0
  -23.8902  -30.2786   21.9131 N   0  0  0  0  0  0  0  0  0  0  0  0
  -25.4872  -10.4060   17.6671 N   0  0  0  0  0  0  0  0  0  0  0  0
  -24.7470   -6.1854   19.0937 N   0  0  0  0  0  0  0  0  0  0  0  0
  -25.7558  -32.9807   22.6797 N   0  0  0  0  0  0  0  0  0  0  0  0
  -20.7200  -29.4155   22.7277 N   0  0  0  0  0  0  0  0  0  0  0  0
  -18.9682  -27.4121   20.2812 N   0  3  0  0  0  0  0  0  0  0  0  0
  -25.3667   -7.4597   17.2907 O   0  0  0  0  0  0  0  0  0  0  0  0
  -28.2759  -14.2235   18.9067 O   0  0  0  0  0  0  0  0  0  0  0  0
  -26.6009  -30.8112   22.6400 O   0  0  0  0  0  0  0  0  0  0  0  0
  -22.2526  -31.8265   22.5119 O   0  0  0  0  0  0  0  0  0  0  0  0
  -21.1412  -27.2352   22.0598 O   0  0  0  0  0  0  0  0  0  0  0  0
  -23.2029   -4.6671   24.2265 O   0  0  0  0  0  0  0  0  0  0  0  0
  -27.4370  -25.5823   20.0644 O   0  0  0  0  0  0  0  0  0  1  0  0
  -26.3998   -0.1750   24.2940 F   0  0  0  0  0  0  0  0  0  0  0  0
  -24.5357   -3.9092   26.5269 F   0  0  0  0  0  0  0  0  0  0  0  0
  1  2  1  0  0  0  0
  1  5  2  0  0  0  0
  2  6  2  0  0  0  0
  3  8  2  0  0  0  0
  3 17  1  0  0  0  0
  4  9  1  0  0  0  0
  4 17  2  0  0  0  0
  5 22  1  0  0  0  0
  6 24  1  0  0  0  0
  7 10  2  0  0  0  0
  7 23  1  0  0  0  0
  8 27  1  0  0  0  0
  9 27  2  0  0  0  0
 10 28  1  0  0  0  0
 11 12  2  0  0  0  0
 11 29  1  0  0  0  0
 12 30  1  0  0  0  0
 13 18  1  0  0  0  0
 13 19  2  0  0  0  0
 14 20  1  0  0  0  0
 14 26  2  0  0  0  0
 15 25  1  0  0  0  0
 15 28  2  0  0  0  0
 16 30  2  0  0  0  0
 16 31  1  0  0  0  0
 17 32  1  0  0  0  0
 18 20  2  0  0  0  0
 18 35  1  0  0  0  0
 19 26  1  0  0  0  0
 19 36  1  0  0  0  0
 20 37  1  0  0  0  0
 21 32  1  0  0  0  0
 21 33  2  0  0  0  0
 21 40  1  0  0  0  0
 22 24  2  0  0  0  0
 22 45  1  0  0  0  0
 23 25  2  0  0  0  0
 23 46  1  0  0  0  0
 24 54  1  0  0  0  0
 25 47  1  0  0  0  0
 26 57  1  0  0  0  0
 27 81  1  0  0  0  0
 28 82  1  0  0  0  0
 29 31  2  0  0  0  0
 29 81  1  0  0  0  0
 30 83  1  0  0  0  0
 31 84  1  0  0  0  0
 32 67  2  0  0  0  0
 33 68  1  0  0  0  0
 33 71  1  0  0  0  0
 34 35  2  0  0  0  0
 36 38  2  0  0  0  0
 37 39  2  0  0  0  0
 38 41  1  0  0  0  0
 39 63  1  0  0  0  0
 40 72  1  0  0  0  0
 40 76  2  0  0  0  0
 41 69  1  0  0  0  0
 41 77  2  0  0  0  0
 42 55  1  0  0  0  0
 42 73  1  0  0  0  0
 42 78  2  0  0  0  0
 43 64  1  0  0  0  0
 43 70  1  0  0  0  0
 43 79  2  0  0  0  0
 44 65  1  0  0  0  0
 44 74  1  0  0  0  0
 44 80  2  0  0  0  0
 45 48  1  0  0  0  0
 46 55  1  0  0  0  0
 47 70  1  0  0  0  0
 48 50  1  0  0  0  0
 49 51  1  0  0  0  0
 49 52  1  0  0  0  0
 50 54  1  0  0  0  0
 51 56  1  0  0  0  0
 52 69  1  0  0  0  0
 53 56  1  0  0  0  0
 53 69  1  0  0  0  0
 54 73  1  0  0  0  0
 55 70  1  0  0  0  0
 56 68  1  0  0  0  0
 58 65  1  0  0  0  0
 59 66  1  0  0  0  0
 60 66  1  0  0  0  0
 61 66  1  0  0  0  0
 62 75  1  0  0  0  0
 63 82  1  0  0  0  0
 64 66  1  0  0  0  0
 64 74  1  0  0  0  0
 65 75  1  0  0  0  0
 67 68  1  0  0  0  0
M  CHG  1  75   1
M  ISO  4  38 100  41 100  63 101  82 101
M  END
> <Batch ID>
0119

> <Smiles>
C=Cc1cc(C=[100CH:0][100C:0](=O)N2CCCC(n3nc(-c4ccc(Oc5ccc(F)cc5F)cc4)c(C(N)=O)c3N)C2)c(C)cc1C=C[101CH2:1][101O:1]c1ccc2c(c1)CN(C(=O)C(NC(=O)C(C)NC)C(C)(C)C)C(C(=O)NC1CCCc3ccccc31)C2

> <Shape>
0.284

> <Color>
0.059

> <Negative vol penalty>
0.000

$$$$

  -OEChem-04052301513D

 86 94  0     1  0  0  0  0  0999 V2000
  -19.6869  -33.7910   20.3505 C   0  0  0  0  0  0  0  0  0  0  0  0
  -20.8785  -33.1838   19.9675 C   0  0  0  0  0  0  0  0  0  0  0  0
  -24.5810   -9.4172   20.0885 C   0  0  0  0  0  0  0  0  0  0  0  0
  -24.4930   -9.8848   22.4572 C   0  0  0  0  0  0  0  0  0  0  0  0
  -19.1376  -33.5178   21.6025 C   0  0  0  0  0  0  0  0  0  0  0  0
  -21.5221  -32.3037   20.8368 C   0  0  0  0  0  0  0  0  0  0  0  0
  -24.7092  -27.2999   19.3167 C   0  0  0  0  0  0  0  0  0  0  0  0
  -24.1904   -8.1009   20.3338 C   0  0  0  0  0  0  0  0  0  0  0  0
  -24.1023   -8.5684   22.7025 C   0  0  0  0  0  0  0  0  0  0  0  0
  -26.0760  -27.0668   19.1707 C   0  0  0  0  0  0  0  0  0  0  0  0
  -22.7324   -5.4287   23.9206 C   0  0  0  0  0  0  0  0  0  0  0  0
  -21.6821   -5.2190   24.8142 C   0  0  0  0  0  0  0  0  0  0  0  0
  -27.4334  -20.6330   23.9812 C   0  0  0  0  0  0  0  0  0  0  0  0
  -26.1658  -26.2171   21.4266 C   0  0  0  0  0  0  0  0  0  0  0  0
  -29.2961  -19.7285   22.1117 C   0  0  0  0  0  0  0  0  0  0  0  0
  -20.2192   -6.5224   23.4007 C   0  0  0  0  0  0  0  0  0  0  0  0
  -24.7324  -10.3092   21.1502 C   0  0  0  0  0  0  0  0  0  0  0  0
  -28.2966  -21.5375   23.3629 C   0  0  0  0  0  0  0  0  0  0  0  0
  -24.2986  -12.7725   20.6487 C   0  0  0  0  0  0  0  0  0  0  0  0
  -19.7697  -32.6265   22.4838 C   0  0  0  0  0  0  0  0  0  0  0  0
  -24.0615  -27.0030   20.5245 C   0  0  0  0  0  0  0  0  0  0  0  0
  -20.9814  -32.0193   22.1023 C   0  0  0  0  0  0  0  0  0  0  0  0
  -24.7902  -26.4449   21.5845 C   0  0  0  0  0  0  0  0  0  0  0  0
  -27.5016  -19.2762   23.6649 C   0  0  0  0  0  0  0  0  0  0  0  0
  -28.4329  -18.8239   22.7301 C   0  0  0  0  0  0  0  0  0  0  0  0
  -23.9510   -7.6765   21.6408 C   0  0  0  0  0  0  0  0  0  0  0  0
  -26.8051  -26.5280   20.2267 C   0  0  0  0  0  0  0  0  0  0  0  0
  -22.5261   -6.1854   22.7671 C   0  0  0  0  0  0  0  0  0  0  0  0
  -29.2279  -21.0853   22.4281 C   0  0  0  0  0  0  0  0  0  0  0  0
  -20.4255   -5.7658   24.5543 C   0  0  0  0  0  0  0  0  0  0  0  0
  -21.2695   -6.7322   22.5071 C   0  0  0  0  0  0  0  0  0  0  0  0
  -25.1365  -11.6690   20.8975 C   0  0  0  0  0  0  0  0  0  0  0  0
  -25.1617  -13.8264   20.4736 C   0  0  0  0  0  0  0  0  0  0  0  0
  -27.8551  -23.3887   24.9101 C   0  0  0  0  0  0  0  0  0  0  0  0
  -28.2078  -22.9491   23.7111 C   0  0  0  0  0  0  0  0  0  0  0  0
  -22.8679  -12.8390   20.5820 C   0  0  0  0  0  0  0  0  0  0  0  0
  -22.4931  -28.7021   22.7055 C   0  0  0  0  0  0  0  0  0  0  0  0
  -21.8785  -25.7805   23.9738 C   0  0  0  0  0  0  0  0  0  0  0  0
  -22.7937  -22.5078   24.2883 C   0  0  0  0  0  0  0  0  0  0  0  0
  -29.6528  -16.7479   21.9897 C   0  0  0  0  0  0  0  0  0  0  0  0
  -19.1626  -32.3988   23.8455 C   0  0  0  0  0  0  0  0  0  0  0  0
  -22.5813  -27.2355   20.6568 C   0  0  0  0  0  0  0  0  0  0  0  0
  -24.1381  -26.0897   22.8948 C   0  0  0  0  0  0  0  0  0  0  0  0
  -19.7119  -31.1661   24.5589 C   0  0  0  0  0  0  0  0  0  0  0  0
  -30.1918  -13.9064   19.9130 C   0  0  0  0  0  0  0  0  0  0  0  0
  -21.2340  -31.1300   24.4668 C   0  0  0  0  0  0  0  0  0  0  0  0
  -28.8557  -13.1618   19.9635 C   0  0  0  0  0  0  0  0  0  0  0  0
  -30.5369  -14.5439   21.2577 C   0  0  0  0  0  0  0  0  0  0  0  0
  -28.1545  -14.6605   21.8738 C   0  0  0  0  0  0  0  0  0  0  0  0
  -21.6965  -31.0398   23.0075 C   0  0  1  0  0  0  0  0  0  0  0  0
  -22.1255  -27.3743   22.1061 C   0  0  1  0  0  0  0  0  0  0  0  0
  -27.7328  -14.0563   20.5244 C   0  0  2  0  0  0  0  0  0  0  0  0
  -26.5639  -18.3297   24.3418 C   0  0  0  0  0  0  0  0  0  0  0  0
  -22.1170  -20.3732   25.4210 C   0  0  0  0  0  0  0  0  0  0  0  0
  -22.9960  -26.8291   26.6123 C   0  0  0  0  0  0  0  0  0  0  0  0
  -23.1803  -24.4585   27.3962 C   0  0  0  0  0  0  0  0  0  0  0  0
  -20.9455  -25.4151   26.8364 C   0  0  0  0  0  0  0  0  0  0  0  0
  -22.3966  -21.1253   21.7018 C   0  0  0  0  0  0  0  0  0  0  0  0
  -29.5798  -23.7891   19.6373 C   0  0  0  0  0  0  0  0  0  0  0  0
  -29.8415  -25.1013   18.8978 C   0  0  0  0  0  0  0  0  0  0  0  0
  -30.8097  -22.8869   19.7234 C   0  0  0  0  0  0  0  0  0  0  0  0
  -28.6120  -25.9914   18.7765 C   0  0  0  0  0  0  0  0  0  1  0  0
  -30.5118  -21.6087   20.4959 C   0  0  0  0  0  0  0  0  0  0  0  0
  -22.5678  -24.8818   24.9720 C   0  0  1  0  0  0  0  0  0  0  0  0
  -21.9956  -21.2224   24.1653 C   0  0  2  0  0  0  0  0  0  0  0  0
  -22.4354  -25.4045   26.4303 C   0  0  0  0  0  0  0  0  0  0  0  0
  -26.4324  -11.9918   20.8824 N   0  0  0  0  0  0  0  0  0  0  0  0
  -26.4154  -13.3101   20.6220 N   0  0  0  0  0  0  0  0  0  0  0  0
  -22.6899  -26.3415   22.9774 N   0  0  0  0  0  0  0  0  0  0  0  0
  -29.4291  -15.3803   21.7246 N   0  0  0  0  0  0  0  0  0  0  0  0
  -24.9631  -15.1352   20.2086 N   0  0  0  0  0  0  0  0  0  0  0  0
  -22.1341  -11.6625   20.7862 N   0  0  0  0  0  0  0  0  0  0  0  0
  -28.5184  -17.4495   22.3965 N   0  0  0  0  0  0  0  0  0  0  0  0
  -21.5450  -29.6886   22.5119 N   0  0  0  0  0  0  0  0  0  0  0  0
  -22.0205  -23.5455   24.7642 N   0  0  0  0  0  0  0  0  0  0  0  0
  -22.4808  -20.4203   23.0068 N   0  3  0  0  0  0  0  0  0  0  0  0
  -22.2589  -13.9068   20.3319 O   0  0  0  0  0  0  0  0  0  0  0  0
  -23.5574  -28.8224   23.3009 O   0  0  0  0  0  0  0  0  0  0  0  0
  -20.6637  -25.9717   24.0702 O   0  0  0  0  0  0  0  0  0  0  0  0
  -23.9850  -22.5828   23.9953 O   0  0  0  0  0  0  0  0  0  0  0  0
  -30.7627  -17.2651   21.8388 O   0  0  0  0  0  0  0  0  0  0  0  0
  -23.5696   -6.3921   21.8805 O   0  0  0  0  0  0  0  0  0  0  0  0
  -28.1394  -26.3001   20.0872 O   0  0  0  0  0  0  0  0  0  1  0  0
  -30.0897  -21.9526   21.8083 O   0  0  0  0  0  0  0  0  0  0  0  0
  -19.4166   -5.5630   25.4117 F   0  0  0  0  0  0  0  0  0  0  0  0
  -21.0649   -7.4590   21.4000 F   0  0  0  0  0  0  0  0  0  0  0  0
  1  2  1  0  0  0  0
  1  5  2  0  0  0  0
  2  6  2  0  0  0  0
  3  8  2  0  0  0  0
  3 17  1  0  0  0  0
  4  9  1  0  0  0  0
  4 17  2  0  0  0  0
  5 20  1  0  0  0  0
  6 22  1  0  0  0  0
  7 10  2  0  0  0  0
  7 21  1  0  0  0  0
  8 26  1  0  0  0  0
  9 26  2  0  0  0  0
 10 27  1  0  0  0  0
 11 12  2  0  0  0  0
 11 28  1  0  0  0  0
 12 30  1  0  0  0  0
 13 18  1  0  0  0  0
 13 24  2  0  0  0  0
 14 23  1  0  0  0  0
 14 27  2  0  0  0  0
 15 25  2  0  0  0  0
 15 29  1  0  0  0  0
 16 30  2  0  0  0  0
 16 31  1  0  0  0  0
 17 32  1  0  0  0  0
 18 29  2  0  0  0  0
 18 35  1  0  0  0  0
 19 32  1  0  0  0  0
 19 33  2  0  0  0  0
 19 36  1  0  0  0  0
 20 22  2  0  0  0  0
 20 41  1  0  0  0  0
 21 23  2  0  0  0  0
 21 42  1  0  0  0  0
 22 50  1  0  0  0  0
 23 43  1  0  0  0  0
 24 25  1  0  0  0  0
 24 53  1  0  0  0  0
 25 73  1  0  0  0  0
 26 82  1  0  0  0  0
 27 83  1  0  0  0  0
 28 31  2  0  0  0  0
 28 82  1  0  0  0  0
 29 84  1  0  0  0  0
 30 85  1  0  0  0  0
 31 86  1  0  0  0  0
 32 67  2  0  0  0  0
 33 68  1  0  0  0  0
 33 71  1  0  0  0  0
 34 35  2  0  0  0  0
 36 72  1  0  0  0  0
 36 77  2  0  0  0  0
 37 51  1  0  0  0  0
 37 74  1  0  0  0  0
 37 78  2  0  0  0  0
 38 64  1  0  0  0  0
 38 69  1  0  0  0  0
 38 79  2  0  0  0  0
 39 65  1  0  0  0  0
 39 75  1  0  0  0  0
 39 80  2  0  0  0  0
 40 70  1  0  0  0  0
 40 73  1  0  0  0  0
 40 81  2  0  0  0  0
 41 44  1  0  0  0  0
 42 51  1  0  0  0  0
 43 69  1  0  0  0  0
 44 46  1  0  0  0  0
 45 47  1  0  0  0  0
 45 48  1  0  0  0  0
 46 50  1  0  0  0  0
 47 52  1  0  0  0  0
 48 70  1  0  0  0  0
 49 52  1  0  0  0  0
 49 70  1  0  0  0  0
 50 74  1  0  0  0  0
 51 69  1  0  0  0  0
 52 68  1  0  0  0  0
 54 65  1  0  0  0  0
 55 66  1  0  0  0  0
 56 66  1  0  0  0  0
 57 66  1  0  0  0  0
 58 76  1  0  0  0  0
 59 60  1  0  0  0  0
 59 61  1  0  0  0  0
 60 62  1  0  0  0  0
 61 63  1  0  0  0  0
 62 83  1  0  0  0  0
 63 84  1  0  0  0  0
 64 66  1  0  0  0  0
 64 75  1  0  0  0  0
 65 76  1  0  0  0  0
 67 68  1  0  0  0  0
M  CHG  1  76   1
M  ISO  4  40 100  62 101  73 100  83 101
M  END
> <Batch ID>
0119

> <Smiles>
C=Cc1cc(C)c([100NH:0][100C:0](=O)N2CCCC(n3nc(-c4ccc(Oc5ccc(F)cc5F)cc4)c(C(N)=O)c3N)C2)cc1OCCCC[101CH2:1][101O:1]c1ccc2c(c1)CN(C(=O)C(NC(=O)C(C)NC)C(C)(C)C)C(C(=O)NC1CCCc3ccccc31)C2

> <Shape>
0.242

> <Color>
0.149

> <Negative vol penalty>
0.000

$$$$

  -OEChem-04052301513D

 85 93  0     1  0  0  0  0  0999 V2000
  -21.2880  -29.6329   23.2330 C   0  0  0  0  0  0  0  0  0  0  0  0
  -22.0351  -28.6892   23.9306 C   0  0  0  0  0  0  0  0  0  0  0  0
  -22.9488   -9.9160   20.1046 C   0  0  0  0  0  0  0  0  0  0  0  0
  -23.6357  -10.1537   22.4087 C   0  0  0  0  0  0  0  0  0  0  0  0
  -21.8492  -30.2978   22.1436 C   0  0  0  0  0  0  0  0  0  0  0  0
  -23.3436  -28.4091   23.5385 C   0  0  0  0  0  0  0  0  0  0  0  0
  -28.0502  -26.9676   27.1821 C   0  0  0  0  0  0  0  0  0  0  0  0
  -22.1566   -8.8223   20.4536 C   0  0  0  0  0  0  0  0  0  0  0  0
  -22.8434   -9.0600   22.7577 C   0  0  0  0  0  0  0  0  0  0  0  0
  -28.6259  -25.7470   27.5321 C   0  0  0  0  0  0  0  0  0  0  0  0
  -23.0326   -5.6890   22.5802 C   0  0  0  0  0  0  0  0  0  0  0  0
  -23.5880   -4.7307   23.4281 C   0  0  0  0  0  0  0  0  0  0  0  0
  -30.7397  -14.9915   23.8139 C   0  0  0  0  0  0  0  0  0  0  0  0
  -30.2869  -26.0429   25.8080 C   0  0  0  0  0  0  0  0  0  0  0  0
  -31.7038  -16.6124   25.3239 C   0  0  0  0  0  0  0  0  0  0  0  0
  -21.8408   -5.1477   25.0438 C   0  0  0  0  0  0  0  0  0  0  0  0
  -23.6884  -10.5817   21.0822 C   0  0  0  0  0  0  0  0  0  0  0  0
  -30.6923  -15.9566   22.8081 C   0  0  0  0  0  0  0  0  0  0  0  0
  -24.1241  -13.0655   20.6970 C   0  0  0  0  0  0  0  0  0  0  0  0
  -23.1685  -30.0327   21.7438 C   0  0  0  0  0  0  0  0  0  0  0  0
  -28.5829  -27.7311   26.1334 C   0  0  0  0  0  0  0  0  0  0  0  0
  -23.9225  -29.0701   22.4418 C   0  0  0  0  0  0  0  0  0  0  0  0
  -29.7177  -27.2740   25.4483 C   0  0  0  0  0  0  0  0  0  0  0  0
  -31.1507  -17.2497   23.0601 C   0  0  0  0  0  0  0  0  0  0  0  0
  -22.1039   -8.3943   21.7801 C   0  0  0  0  0  0  0  0  0  0  0  0
  -29.7427  -25.2831   26.8432 C   0  0  0  0  0  0  0  0  0  0  0  0
  -21.8813   -6.3767   22.9642 C   0  0  0  0  0  0  0  0  0  0  0  0
  -31.6564  -17.5776   24.3180 C   0  0  0  0  0  0  0  0  0  0  0  0
  -22.9921   -4.4600   24.6598 C   0  0  0  0  0  0  0  0  0  0  0  0
  -31.2454  -15.3194   25.0719 C   0  0  0  0  0  0  0  0  0  0  0  0
  -21.2855   -6.1060   24.1960 C   0  0  0  0  0  0  0  0  0  0  0  0
  -24.5074  -11.7112   20.7222 C   0  0  0  0  0  0  0  0  0  0  0  0
  -25.2533  -13.7345   20.2922 C   0  0  0  0  0  0  0  0  0  0  0  0
  -30.1586  -15.5849   21.5043 C   0  0  0  0  0  0  0  0  0  0  0  0
  -22.8603  -13.6653   21.0114 C   0  0  0  0  0  0  0  0  0  0  0  0
  -30.7785  -14.5084   20.6980 C   0  0  0  0  0  0  0  0  0  0  0  0
  -27.4959  -28.7554   23.3275 C   0  0  0  0  0  0  0  0  0  0  0  0
  -30.3206  -30.3487   23.2548 C   0  0  0  0  0  0  0  0  0  0  0  0
  -33.5511  -30.5693   24.3327 C   0  0  0  0  0  0  0  0  0  0  0  0
  -23.7160  -30.7423   20.5309 C   0  0  0  0  0  0  0  0  0  0  0  0
  -27.9663  -29.0583   25.7857 C   0  0  0  0  0  0  0  0  0  0  0  0
  -30.3401  -28.0655   24.3282 C   0  0  0  0  0  0  0  0  0  0  0  0
  -25.2355  -30.6595   20.4109 C   0  0  0  0  0  0  0  0  0  0  0  0
  -29.6086  -12.0194   18.3973 C   0  0  0  0  0  0  0  0  0  0  0  0
  -25.7126  -29.2303   20.6486 C   0  0  0  0  0  0  0  0  0  0  0  0
  -28.1566  -11.8012   18.8214 C   0  0  0  0  0  0  0  0  0  0  0  0
  -30.5010  -12.3224   19.5966 C   0  0  0  0  0  0  0  0  0  0  0  0
  -28.5787  -13.2672   20.8458 C   0  0  0  0  0  0  0  0  0  0  0  0
  -25.3535  -28.7567   22.0622 C   0  0  1  0  0  0  0  0  0  0  0  0
  -28.2817  -29.5092   24.3629 C   0  0  1  0  0  0  0  0  0  0  0  0
  -27.6418  -12.9859   19.6581 C   0  0  2  0  0  0  0  0  0  0  0  0
  -31.1030  -18.2912   21.9874 C   0  0  0  0  0  0  0  0  0  0  0  0
  -35.6249  -31.9576   24.0701 C   0  0  0  0  0  0  0  0  0  0  0  0
  -30.8279  -29.0712   20.5307 C   0  0  0  0  0  0  0  0  0  0  0  0
  -33.2384  -29.7081   20.7586 C   0  0  0  0  0  0  0  0  0  0  0  0
  -31.4831  -31.4793   20.6918 C   0  0  0  0  0  0  0  0  0  0  0  0
  -33.5802  -31.2783   27.2059 C   0  0  0  0  0  0  0  0  0  0  0  0
  -30.8395  -21.8654   26.4147 C   0  0  0  0  0  0  0  0  0  0  0  0
  -31.5357  -21.0426   25.3362 C   0  0  0  0  0  0  0  0  0  0  0  0
  -30.9526  -23.3594   26.1420 C   0  0  0  0  0  0  0  0  0  1  0  0
  -31.4601  -19.5511   25.6304 C   0  0  0  0  0  0  0  0  0  0  0  0
  -31.7110  -30.0374   22.7561 C   0  0  1  0  0  0  0  0  0  0  0  0
  -34.3541  -31.7374   24.8759 C   0  0  2  0  0  0  0  0  0  0  0  0
  -31.8024  -30.0579   21.2041 C   0  0  0  0  0  0  0  0  0  0  0  0
  -25.7806  -11.5289   20.3620 N   0  0  0  0  0  0  0  0  0  0  0  0
  -29.1184  -16.1607   20.9680 N   0  0  0  0  0  0  0  0  0  0  0  0
  -26.2071  -12.7774   20.1066 N   0  0  0  0  0  0  0  0  0  0  0  0
  -29.9648  -13.4275   20.3886 N   0  0  0  0  0  0  0  0  0  0  0  0
  -29.6971  -29.3539   24.0214 N   0  0  0  0  0  0  0  0  0  0  0  0
  -25.5135  -15.0421   20.0805 N   0  0  0  0  0  0  0  0  0  0  0  0
  -21.8063  -12.8322   21.4107 N   0  0  0  0  0  0  0  0  0  0  0  0
  -26.2695  -29.3189   23.0315 N   0  0  0  0  0  0  0  0  0  0  0  0
  -32.6036  -30.9815   23.4197 N   0  0  0  0  0  0  0  0  0  0  0  0
  -34.7348  -31.4888   26.2952 N   0  3  0  0  0  0  0  0  0  0  0  0
  -22.6666  -14.9016   20.9244 O   0  0  0  0  0  0  0  0  0  0  0  0
  -31.9493  -14.6882   20.3893 O   0  0  0  0  0  0  0  0  0  0  0  0
  -27.9681  -27.7386   22.8327 O   0  0  0  0  0  0  0  0  0  0  0  0
  -29.8093  -31.4372   22.9804 O   0  0  0  0  0  0  0  0  0  0  0  0
  -33.7473  -29.4069   24.6805 O   0  0  0  0  0  0  0  0  0  0  0  0
  -21.3307   -7.3273   22.1211 O   0  0  0  0  0  0  0  0  0  0  0  0
  -30.3062  -24.0918   27.1823 O   0  0  0  0  0  0  0  0  0  1  0  0
  -32.1115  -18.8427   24.5850 O   0  0  0  0  0  0  0  0  0  0  0  0
  -23.5247   -3.5387   25.4732 F   0  0  0  0  0  0  0  0  0  0  0  0
  -31.2911  -14.3924   26.0378 F   0  0  0  0  0  0  0  0  0  0  0  0
  -20.1787   -6.7626   24.5699 F   0  0  0  0  0  0  0  0  0  0  0  0
  1  2  1  0  0  0  0
  1  5  2  0  0  0  0
  2  6  2  0  0  0  0
  3  8  2  0  0  0  0
  3 17  1  0  0  0  0
  4  9  1  0  0  0  0
  4 17  2  0  0  0  0
  5 20  1  0  0  0  0
  6 22  1  0  0  0  0
  7 10  2  0  0  0  0
  7 21  1  0  0  0  0
  8 25  1  0  0  0  0
  9 25  2  0  0  0  0
 10 26  1  0  0  0  0
 11 12  2  0  0  0  0
 11 27  1  0  0  0  0
 12 29  1  0  0  0  0
 13 18  2  0  0  0  0
 13 30  1  0  0  0  0
 14 23  1  0  0  0  0
 14 26  2  0  0  0  0
 15 28  1  0  0  0  0
 15 30  2  0  0  0  0
 16 29  2  0  0  0  0
 16 31  1  0  0  0  0
 17 32  1  0  0  0  0
 18 24  1  0  0  0  0
 18 34  1  0  0  0  0
 19 32  1  0  0  0  0
 19 33  2  0  0  0  0
 19 35  1  0  0  0  0
 20 22  2  0  0  0  0
 20 40  1  0  0  0  0
 21 23  2  0  0  0  0
 21 41  1  0  0  0  0
 22 49  1  0  0  0  0
 23 42  1  0  0  0  0
 24 28  2  0  0  0  0
 24 52  1  0  0  0  0
 25 80  1  0  0  0  0
 26 81  1  0  0  0  0
 27 31  2  0  0  0  0
 27 80  1  0  0  0  0
 28 82  1  0  0  0  0
 29 83  1  0  0  0  0
 30 84  1  0  0  0  0
 31 85  1  0  0  0  0
 32 65  2  0  0  0  0
 33 67  1  0  0  0  0
 33 70  1  0  0  0  0
 34 36  1  0  0  0  0
 34 66  2  0  0  0  0
 35 71  1  0  0  0  0
 35 75  2  0  0  0  0
 36 68  1  0  0  0  0
 36 76  2  0  0  0  0
 37 50  1  0  0  0  0
 37 72  1  0  0  0  0
 37 77  2  0  0  0  0
 38 62  1  0  0  0  0
 38 69  1  0  0  0  0
 38 78  2  0  0  0  0
 39 63  1  0  0  0  0
 39 73  1  0  0  0  0
 39 79  2  0  0  0  0
 40 43  1  0  0  0  0
 41 50  1  0  0  0  0
 42 69  1  0  0  0  0
 43 45  1  0  0  0  0
 44 46  1  0  0  0  0
 44 47  1  0  0  0  0
 45 49  1  0  0  0  0
 46 51  1  0  0  0  0
 47 68  1  0  0  0  0
 48 51  1  0  0  0  0
 48 68  1  0  0  0  0
 49 72  1  0  0  0  0
 50 69  1  0  0  0  0
 51 67  1  0  0  0  0
 53 63  1  0  0  0  0
 54 64  1  0  0  0  0
 55 64  1  0  0  0  0
 56 64  1  0  0  0  0
 57 74  1  0  0  0  0
 58 59  1  0  0  0  0
 58 60  1  0  0  0  0
 59 61  1  0  0  0  0
 60 81  1  0  0  0  0
 61 82  1  0  0  0  0
 62 64  1  0  0  0  0
 62 73  1  0  0  0  0
 63 74  1  0  0  0  0
 65 67  1  0  0  0  0
M  CHG  1  74   1
M  ISO  4  34 100  36 100  60 101  81 101
M  END
> <Batch ID>
0119

> <Smiles>
CNC(C)C(=O)NC(C(=O)N1Cc2cc([101O:1][101CH2:1]CCCOc3cc(F)cc([100C:0](=N)[100C:0](=O)N4CCCC(n5nc(-c6ccc(Oc7ccc(F)cc7F)cc6)c(C(N)=O)c5N)C4)c3C)ccc2CC1C(=O)NC1CCCc2ccccc21)C(C)(C)C

> <Shape>
0.248

> <Color>
0.202

> <Negative vol penalty>
0.000

$$$$

  -OEChem-04052301513D

 84 92  0     1  0  0  0  0  0999 V2000
  -28.4699  -37.0574   22.7397 C   0  0  0  0  0  0  0  0  0  0  0  0
  -28.8512  -35.8087   22.2594 C   0  0  0  0  0  0  0  0  0  0  0  0
  -25.8110   -7.8035   20.4413 C   0  0  0  0  0  0  0  0  0  0  0  0
  -23.4814   -8.1128   19.8808 C   0  0  0  0  0  0  0  0  0  0  0  0
  -28.9983  -20.2499   17.0424 C   0  0  0  0  0  0  0  0  0  0  0  0
  -27.4300  -37.1603   23.6627 C   0  0  0  0  0  0  0  0  0  0  0  0
  -28.1934  -34.6618   22.7028 C   0  0  0  0  0  0  0  0  0  0  0  0
  -27.0069  -29.6092   19.4518 C   0  0  0  0  0  0  0  0  0  0  0  0
  -29.1665  -21.6274   17.1831 C   0  0  0  0  0  0  0  0  0  0  0  0
  -25.4778   -6.6898   21.2120 C   0  0  0  0  0  0  0  0  0  0  0  0
  -23.1481   -6.9990   20.6516 C   0  0  0  0  0  0  0  0  0  0  0  0
  -27.6487  -28.3742   19.3701 C   0  0  0  0  0  0  0  0  0  0  0  0
  -22.7274   -6.2711   23.9263 C   0  0  0  0  0  0  0  0  0  0  0  0
  -21.6314   -6.3797   24.7823 C   0  0  0  0  0  0  0  0  0  0  0  0
  -29.0859  -19.9941   19.4433 C   0  0  0  0  0  0  0  0  0  0  0  0
  -26.1076  -27.4728   20.9923 C   0  0  0  0  0  0  0  0  0  0  0  0
  -20.5440   -4.5616   23.6207 C   0  0  0  0  0  0  0  0  0  0  0  0
  -24.8128   -8.5151   19.7757 C   0  0  0  0  0  0  0  0  0  0  0  0
  -28.9579  -19.4332   18.1725 C   0  0  0  0  0  0  0  0  0  0  0  0
  -29.2541  -21.3716   19.5839 C   0  0  0  0  0  0  0  0  0  0  0  0
  -25.4878   -9.6852   17.6117 C   0  0  0  0  0  0  0  0  0  0  0  0
  -26.7528  -36.0150   24.1103 C   0  0  0  0  0  0  0  0  0  0  0  0
  -25.9156  -29.7886   20.3140 C   0  0  0  0  0  0  0  0  0  0  0  0
  -27.1444  -34.7494   23.6337 C   0  0  0  0  0  0  0  0  0  0  0  0
  -25.4521  -28.7103   21.0812 C   0  0  0  0  0  0  0  0  0  0  0  0
  -29.2945  -22.1883   18.4538 C   0  0  0  0  0  0  0  0  0  0  0  0
  -24.1463   -6.2875   21.3172 C   0  0  0  0  0  0  0  0  0  0  0  0
  -27.2009  -27.3065   20.1425 C   0  0  0  0  0  0  0  0  0  0  0  0
  -22.7316   -5.3077   22.9175 C   0  0  0  0  0  0  0  0  0  0  0  0
  -20.5397   -5.5250   24.6295 C   0  0  0  0  0  0  0  0  0  0  0  0
  -21.6399   -4.4530   22.7647 C   0  0  0  0  0  0  0  0  0  0  0  0
  -25.1564   -9.6660   18.9798 C   0  0  0  0  0  0  0  0  0  0  0  0
  -25.7291  -11.0089   17.3355 C   0  0  0  0  0  0  0  0  0  0  0  0
  -28.7810  -17.9972   18.0239 C   0  0  0  0  0  0  0  0  0  0  0  0
  -28.3505  -17.1570   18.9890 C   0  0  0  0  0  0  0  0  0  0  0  0
  -28.3769  -24.2701   18.6769 C   0  0  0  0  0  0  0  0  0  0  0  0
  -29.3856  -21.9309   20.9229 C   0  0  0  0  0  0  0  0  0  0  0  0
  -25.5702   -8.6034   16.6744 C   0  0  0  0  0  0  0  0  0  0  0  0
  -28.2126  -15.7198   18.6790 C   0  0  0  0  0  0  0  0  0  0  0  0
  -25.3293  -31.6311   22.8369 C   0  0  0  0  0  0  0  0  0  0  0  0
  -22.3490  -30.3787   22.5697 C   0  0  0  0  0  0  0  0  0  0  0  0
  -20.3661  -27.8277   21.4708 C   0  0  0  0  0  0  0  0  0  0  0  0
  -25.6663  -36.1719   25.1445 C   0  0  0  0  0  0  0  0  0  0  0  0
  -25.2175  -31.1197   20.3707 C   0  0  0  0  0  0  0  0  0  0  0  0
  -24.2720  -28.8454   22.0073 C   0  0  0  0  0  0  0  0  0  0  0  0
  -24.7722  -34.9421   25.2800 C   0  0  0  0  0  0  0  0  0  0  0  0
  -24.8621  -15.1651   20.0567 C   0  0  0  0  0  0  0  0  0  0  0  0
  -25.6164  -33.6737   25.3524 C   0  0  0  0  0  0  0  0  0  0  0  0
  -24.6936  -13.6659   19.8245 C   0  0  0  0  0  0  0  0  0  0  0  0
  -26.3106  -15.5357   20.3715 C   0  0  0  0  0  0  0  0  0  0  0  0
  -27.1156  -13.5568   19.1160 C   0  0  0  0  0  0  0  0  0  0  0  0
  -26.4387  -33.4844   24.0719 C   0  0  1  0  0  0  0  0  0  0  0  0
  -24.4381  -31.3309   21.6650 C   0  0  1  0  0  0  0  0  0  0  0  0
  -25.6745  -13.1677   18.7513 C   0  0  1  0  0  0  0  0  0  0  0  0
  -28.6860  -21.2172   22.0413 C   0  0  0  0  0  0  0  0  0  0  0  0
  -17.9749  -27.0675   21.4325 C   0  0  0  0  0  0  0  0  0  0  0  0
  -22.5622  -29.5683   25.5036 C   0  0  0  0  0  0  0  0  0  0  0  0
  -20.6230  -28.0255   25.1462 C   0  0  0  0  0  0  0  0  0  0  0  0
  -20.3333  -30.4834   24.8334 C   0  0  0  0  0  0  0  0  0  0  0  0
  -20.2839  -27.8536   18.5125 C   0  0  0  0  0  0  0  0  0  0  0  0
  -28.4324  -25.7617   18.8186 C   0  0  0  0  0  0  0  0  0  1  0  0
  -21.6467  -29.1626   23.1238 C   0  0  1  0  0  0  0  0  0  0  0  0
  -19.0633  -27.8284   20.6916 C   0  0  2  0  0  0  0  0  0  0  0  0
  -21.3148  -29.3076   24.6359 C   0  0  0  0  0  0  0  0  0  0  0  0
  -25.1838  -10.8809   19.5341 N   0  0  0  0  0  0  0  0  0  0  0  0
  -29.4640  -23.5780   18.5730 N   0  0  0  0  0  0  0  0  0  0  0  0
  -25.5354  -11.6759   18.5093 N   0  0  0  0  0  0  0  0  0  0  0  0
  -27.2352  -14.9982   19.3621 N   0  0  0  0  0  0  0  0  0  0  0  0
  -23.6268  -30.1685   22.0323 N   0  0  0  0  0  0  0  0  0  0  0  0
  -26.0861  -11.6556   16.2056 N   0  0  0  0  0  0  0  0  0  0  0  0
  -25.2903   -7.3062   17.1251 N   0  0  0  0  0  0  0  0  0  0  0  0
  -25.6034  -32.9749   23.0055 N   0  0  0  0  0  0  0  0  0  0  0  0
  -20.4811  -28.9421   22.2746 N   0  0  0  0  0  0  0  0  0  0  0  0
  -19.2570  -27.1920   19.3580 N   0  3  0  0  0  0  0  0  0  0  0  0
  -30.0233  -22.9465   21.2019 O   0  0  0  0  0  0  0  0  0  0  0  0
  -25.8986   -8.7797   15.4767 O   0  0  0  0  0  0  0  0  0  0  0  0
  -28.9757  -15.2441   17.8364 O   0  0  0  0  0  0  0  0  0  0  0  0
  -25.7369  -30.7117   23.5371 O   0  0  0  0  0  0  0  0  0  0  0  0
  -21.7816  -31.4734   22.6057 O   0  0  0  0  0  0  0  0  0  0  0  0
  -21.1969  -26.9267   21.3787 O   0  0  0  0  0  0  0  0  0  0  0  0
  -23.8208   -5.2006   22.0690 O   0  0  0  0  0  0  0  0  0  0  0  0
  -27.8258  -26.1002   20.0651 O   0  0  0  0  0  0  0  0  0  1  0  0
  -19.4880   -5.6285   25.4525 F   0  0  0  0  0  0  0  0  0  0  0  0
  -21.6388   -3.5248   21.7982 F   0  0  0  0  0  0  0  0  0  0  0  0
  1  2  1  0  0  0  0
  1  6  2  0  0  0  0
  2  7  2  0  0  0  0
  3 10  2  0  0  0  0
  3 18  1  0  0  0  0
  4 11  1  0  0  0  0
  4 18  2  0  0  0  0
  5  9  2  0  0  0  0
  5 19  1  0  0  0  0
  6 22  1  0  0  0  0
  7 24  1  0  0  0  0
  8 12  2  0  0  0  0
  8 23  1  0  0  0  0
  9 26  1  0  0  0  0
 10 27  1  0  0  0  0
 11 27  2  0  0  0  0
 12 28  1  0  0  0  0
 13 14  2  0  0  0  0
 13 29  1  0  0  0  0
 14 30  1  0  0  0  0
 15 19  2  0  0  0  0
 15 20  1  0  0  0  0
 16 25  1  0  0  0  0
 16 28  2  0  0  0  0
 17 30  2  0  0  0  0
 17 31  1  0  0  0  0
 18 32  1  0  0  0  0
 19 34  1  0  0  0  0
 20 26  2  0  0  0  0
 20 37  1  0  0  0  0
 21 32  1  0  0  0  0
 21 33  2  0  0  0  0
 21 38  1  0  0  0  0
 22 24  2  0  0  0  0
 22 43  1  0  0  0  0
 23 25  2  0  0  0  0
 23 44  1  0  0  0  0
 24 52  1  0  0  0  0
 25 45  1  0  0  0  0
 26 66  1  0  0  0  0
 27 81  1  0  0  0  0
 28 82  1  0  0  0  0
 29 31  2  0  0  0  0
 29 81  1  0  0  0  0
 30 83  1  0  0  0  0
 31 84  1  0  0  0  0
 32 65  2  0  0  0  0
 33 67  1  0  0  0  0
 33 70  1  0  0  0  0
 34 35  2  0  0  0  0
 35 39  1  0  0  0  0
 36 61  1  0  0  0  0
 36 66  2  0  0  0  0
 37 55  1  0  0  0  0
 37 75  2  0  0  0  0
 38 71  1  0  0  0  0
 38 76  2  0  0  0  0
 39 68  1  0  0  0  0
 39 77  2  0  0  0  0
 40 53  1  0  0  0  0
 40 72  1  0  0  0  0
 40 78  2  0  0  0  0
 41 62  1  0  0  0  0
 41 69  1  0  0  0  0
 41 79  2  0  0  0  0
 42 63  1  0  0  0  0
 42 73  1  0  0  0  0
 42 80  2  0  0  0  0
 43 46  1  0  0  0  0
 44 53  1  0  0  0  0
 45 69  1  0  0  0  0
 46 48  1  0  0  0  0
 47 49  1  0  0  0  0
 47 50  1  0  0  0  0
 48 52  1  0  0  0  0
 49 54  1  0  0  0  0
 50 68  1  0  0  0  0
 51 54  1  0  0  0  0
 51 68  1  0  0  0  0
 52 72  1  0  0  0  0
 53 69  1  0  0  0  0
 54 67  1  0  0  0  0
 56 63  1  0  0  0  0
 57 64  1  0  0  0  0
 58 64  1  0  0  0  0
 59 64  1  0  0  0  0
 60 74  1  0  0  0  0
 61 82  1  0  0  0  0
 62 64  1  0  0  0  0
 62 73  1  0  0  0  0
 63 74  1  0  0  0  0
 65 67  1  0  0  0  0
M  CHG  1  74   1
M  ISO  4  35 100  39 100  61 101  82 101
M  END
> <Batch ID>
0119

> <Smiles>
CNC(C)C(=O)NC(C(=O)N1Cc2cc([101O:1][101CH:1]=CNc3ccc(C=[100CH:0][100C:0](=O)N4CCCC(n5nc(-c6ccc(Oc7ccc(F)cc7F)cc6)c(C(N)=O)c5N)C4)cc3C(C)=O)ccc2CC1C(=O)NC1CCCc2ccccc21)C(C)(C)C

> <Shape>
0.298

> <Color>
0.081

> <Negative vol penalty>
0.000

$$$$

  -OEChem-04052301513D

 85 93  0     1  0  0  0  0  0999 V2000
  -21.1237  -27.8131   26.1465 C   0  0  0  0  0  0  0  0  0  0  0  0
  -22.1846  -27.3987   25.3476 C   0  0  0  0  0  0  0  0  0  0  0  0
  -24.2430   -9.3206   22.0271 C   0  0  0  0  0  0  0  0  0  0  0  0
  -22.9614   -9.7972   20.0353 C   0  0  0  0  0  0  0  0  0  0  0  0
  -19.8773  -28.0626   25.5738 C   0  0  0  0  0  0  0  0  0  0  0  0
  -21.9993  -27.2325   23.9756 C   0  0  0  0  0  0  0  0  0  0  0  0
  -25.7736  -29.2254   21.2500 C   0  0  0  0  0  0  0  0  0  0  0  0
  -23.6320   -8.0702   22.1211 C   0  0  0  0  0  0  0  0  0  0  0  0
  -22.3504   -8.5467   20.1293 C   0  0  0  0  0  0  0  0  0  0  0  0
  -26.9576  -28.4935   21.1715 C   0  0  0  0  0  0  0  0  0  0  0  0
  -20.6777   -6.8152   23.1801 C   0  0  0  0  0  0  0  0  0  0  0  0
  -20.2227   -6.4098   24.4348 C   0  0  0  0  0  0  0  0  0  0  0  0
  -25.4635  -21.3514   25.7787 C   0  0  0  0  0  0  0  0  0  0  0  0
  -27.0450  -22.1412   24.1319 C   0  0  0  0  0  0  0  0  0  0  0  0
  -26.3063  -27.6850   18.9940 C   0  0  0  0  0  0  0  0  0  0  0  0
  -25.9844  -23.7063   25.6361 C   0  0  0  0  0  0  0  0  0  0  0  0
  -21.6887   -4.4914   24.3465 C   0  0  0  0  0  0  0  0  0  0  0  0
  -23.9076  -10.1841   20.9843 C   0  0  0  0  0  0  0  0  0  0  0  0
  -26.3442  -21.0930   24.7284 C   0  0  0  0  0  0  0  0  0  0  0  0
  -25.7246  -11.7934   20.1991 C   0  0  0  0  0  0  0  0  0  0  0  0
  -19.6792  -27.9087   24.1926 C   0  0  0  0  0  0  0  0  0  0  0  0
  -24.8404  -29.1839   20.2041 C   0  0  0  0  0  0  0  0  0  0  0  0
  -20.7487  -27.4789   23.3840 C   0  0  0  0  0  0  0  0  0  0  0  0
  -25.1124  -28.4193   19.0606 C   0  0  0  0  0  0  0  0  0  0  0  0
  -25.2836  -22.6581   26.2325 C   0  0  0  0  0  0  0  0  0  0  0  0
  -22.6858   -7.6833   21.1722 C   0  0  0  0  0  0  0  0  0  0  0  0
  -27.2228  -27.7209   20.0446 C   0  0  0  0  0  0  0  0  0  0  0  0
  -21.6382   -6.0588   22.5086 C   0  0  0  0  0  0  0  0  0  0  0  0
  -26.8651  -23.4478   24.5857 C   0  0  0  0  0  0  0  0  0  0  0  0
  -20.7282   -5.2479   25.0180 C   0  0  0  0  0  0  0  0  0  0  0  0
  -22.1437   -4.8969   23.0918 C   0  0  0  0  0  0  0  0  0  0  0  0
  -24.5380  -11.4761   20.8870 C   0  0  0  0  0  0  0  0  0  0  0  0
  -25.8946  -13.1398   20.4109 C   0  0  0  0  0  0  0  0  0  0  0  0
  -26.5329  -19.7306   24.2552 C   0  0  0  0  0  0  0  0  0  0  0  0
  -25.6782  -18.7055   24.4584 C   0  0  0  0  0  0  0  0  0  0  0  0
  -26.5952  -10.9469   19.4369 C   0  0  0  0  0  0  0  0  0  0  0  0
  -26.0073  -17.3771   23.9035 C   0  0  0  0  0  0  0  0  0  0  0  0
  -21.8201  -28.2322   19.9290 C   0  0  0  0  0  0  0  0  0  0  0  0
  -22.1056  -29.4840   16.9501 C   0  0  0  0  0  0  0  0  0  0  0  0
  -24.1486  -30.3776   14.3665 C   0  0  0  0  0  0  0  0  0  0  0  0
  -18.3014  -28.1446   23.6261 C   0  0  0  0  0  0  0  0  0  0  0  0
  -23.5802  -30.0002   20.2926 C   0  0  0  0  0  0  0  0  0  0  0  0
  -24.1526  -28.3570   17.9016 C   0  0  0  0  0  0  0  0  0  0  0  0
  -18.2864  -28.3059   22.1082 C   0  0  0  0  0  0  0  0  0  0  0  0
  -22.7805  -16.6006   22.3489 C   0  0  0  0  0  0  0  0  0  0  0  0
  -19.1277  -27.2186   21.4474 C   0  0  0  0  0  0  0  0  0  0  0  0
  -23.0427  -15.1952   21.8143 C   0  0  0  0  0  0  0  0  0  0  0  0
  -23.5192  -16.8603   23.6609 C   0  0  0  0  0  0  0  0  0  0  0  0
  -25.2482  -15.1952   23.0456 C   0  0  0  0  0  0  0  0  0  0  0  0
  -20.5936  -27.3111   21.8881 C   0  0  1  0  0  0  0  0  0  0  0  0
  -22.4655  -29.4780   19.3914 C   0  0  1  0  0  0  0  0  0  0  0  0
  -24.5521  -14.9284   21.7019 C   0  0  1  0  0  0  0  0  0  0  0  0
  -24.3425  -22.9344   27.3561 C   0  0  0  0  0  0  0  0  0  0  0  0
  -24.0884  -31.3386   12.0492 C   0  0  0  0  0  0  0  0  0  0  0  0
  -21.1344  -26.8023   15.8659 C   0  0  0  0  0  0  0  0  0  0  0  0
  -21.9884  -27.4829   13.6129 C   0  0  0  0  0  0  0  0  0  0  0  0
  -20.1782  -28.8031   14.7096 C   0  0  0  0  0  0  0  0  0  0  0  0
  -29.7447  -25.0659   20.2801 C   0  0  0  0  0  0  0  0  0  0  0  0
  -27.3303  -24.8879   19.6453 C   0  0  0  0  0  0  0  0  0  0  0  0
  -25.7786  -32.7142   15.1679 C   0  0  0  0  0  0  0  0  0  0  0  0
  -27.9925  -25.7011   21.9698 C   0  0  0  0  0  0  0  0  0  0  0  0
  -27.8877  -24.3259   22.6264 C   0  0  0  0  0  0  0  0  0  0  0  0
  -22.5380  -28.9535   15.6044 C   0  0  1  0  0  0  0  0  0  0  0  0
  -24.2230  -31.6440   13.5328 C   0  0  2  0  0  0  0  0  0  0  0  0
  -21.4772  -28.0099   14.9707 C   0  0  0  0  0  0  0  0  0  0  0  0
  -28.3507  -25.6712   20.4722 C   0  0  0  0  0  0  0  0  0  1  0  0
  -23.9928  -12.5356   21.4906 N   0  0  0  0  0  0  0  0  0  0  0  0
  -24.8408  -13.5318   21.1829 N   0  0  0  0  0  0  0  0  0  0  0  0
  -24.9504  -16.5423   23.5449 N   0  0  0  0  0  0  0  0  0  0  0  0
  -22.9313  -29.1678   18.0382 N   0  0  0  0  0  0  0  0  0  0  0  0
  -26.8413  -14.0148   20.0102 N   0  0  0  0  0  0  0  0  0  0  0  0
  -26.2723   -9.5880   19.3205 N   0  0  0  0  0  0  0  0  0  0  0  0
  -21.2658  -28.3832   21.1857 N   0  0  0  0  0  0  0  0  0  0  0  0
  -22.8621  -30.1202   14.7907 N   0  0  0  0  0  0  0  0  0  0  0  0
  -25.5251  -32.3342   13.7543 N   0  3  0  0  0  0  0  0  0  0  0  0
  -27.6377  -11.3793   18.8894 O   0  0  0  0  0  0  0  0  0  0  0  0
  -27.1998  -17.0854   23.7957 O   0  0  0  0  0  0  0  0  0  0  0  0
  -21.8235  -27.2101   19.2530 O   0  0  0  0  0  0  0  0  0  0  0  0
  -21.0772  -30.1602   17.0315 O   0  0  0  0  0  0  0  0  0  0  0  0
  -25.1326  -29.6839   14.6134 O   0  0  0  0  0  0  0  0  0  0  0  0
  -22.0896   -6.4631   21.2634 O   0  0  0  0  0  0  0  0  0  0  0  0
  -27.5542  -24.4775   24.0015 O   0  0  0  0  0  0  0  0  0  0  0  0
  -28.3775  -27.0050   19.9656 O   0  0  0  0  0  0  0  0  0  1  0  0
  -20.2922   -4.8594   26.2235 F   0  0  0  0  0  0  0  0  0  0  0  0
  -23.0675   -4.1667   22.4521 F   0  0  0  0  0  0  0  0  0  0  0  0
  1  2  1  0  0  0  0
  1  5  2  0  0  0  0
  2  6  2  0  0  0  0
  3  8  2  0  0  0  0
  3 18  1  0  0  0  0
  4  9  1  0  0  0  0
  4 18  2  0  0  0  0
  5 21  1  0  0  0  0
  6 23  1  0  0  0  0
  7 10  2  0  0  0  0
  7 22  1  0  0  0  0
  8 26  1  0  0  0  0
  9 26  2  0  0  0  0
 10 27  1  0  0  0  0
 11 12  2  0  0  0  0
 11 28  1  0  0  0  0
 12 30  1  0  0  0  0
 13 19  2  0  0  0  0
 13 25  1  0  0  0  0
 14 19  1  0  0  0  0
 14 29  2  0  0  0  0
 15 24  1  0  0  0  0
 15 27  2  0  0  0  0
 16 25  2  0  0  0  0
 16 29  1  0  0  0  0
 17 30  2  0  0  0  0
 17 31  1  0  0  0  0
 18 32  1  0  0  0  0
 19 34  1  0  0  0  0
 20 32  1  0  0  0  0
 20 33  2  0  0  0  0
 20 36  1  0  0  0  0
 21 23  2  0  0  0  0
 21 41  1  0  0  0  0
 22 24  2  0  0  0  0
 22 42  1  0  0  0  0
 23 50  1  0  0  0  0
 24 43  1  0  0  0  0
 25 53  1  0  0  0  0
 26 81  1  0  0  0  0
 27 83  1  0  0  0  0
 28 31  2  0  0  0  0
 28 81  1  0  0  0  0
 29 82  1  0  0  0  0
 30 84  1  0  0  0  0
 31 85  1  0  0  0  0
 32 67  2  0  0  0  0
 33 68  1  0  0  0  0
 33 71  1  0  0  0  0
 34 35  2  0  0  0  0
 35 37  1  0  0  0  0
 36 72  1  0  0  0  0
 36 76  2  0  0  0  0
 37 69  1  0  0  0  0
 37 77  2  0  0  0  0
 38 51  1  0  0  0  0
 38 73  1  0  0  0  0
 38 78  2  0  0  0  0
 39 63  1  0  0  0  0
 39 70  1  0  0  0  0
 39 79  2  0  0  0  0
 40 64  1  0  0  0  0
 40 74  1  0  0  0  0
 40 80  2  0  0  0  0
 41 44  1  0  0  0  0
 42 51  1  0  0  0  0
 43 70  1  0  0  0  0
 44 46  1  0  0  0  0
 45 47  1  0  0  0  0
 45 48  1  0  0  0  0
 46 50  1  0  0  0  0
 47 52  1  0  0  0  0
 48 69  1  0  0  0  0
 49 52  1  0  0  0  0
 49 69  1  0  0  0  0
 50 73  1  0  0  0  0
 51 70  1  0  0  0  0
 52 68  1  0  0  0  0
 54 64  1  0  0  0  0
 55 65  1  0  0  0  0
 56 65  1  0  0  0  0
 57 65  1  0  0  0  0
 58 66  1  0  0  0  0
 59 66  1  0  0  0  0
 60 75  1  0  0  0  0
 61 62  1  0  0  0  0
 61 66  1  0  0  0  0
 62 82  1  0  0  0  0
 63 65  1  0  0  0  0
 63 74  1  0  0  0  0
 64 75  1  0  0  0  0
 66 83  1  0  0  0  0
 67 68  1  0  0  0  0
M  CHG  1  75   1
M  ISO  4  35 100  37 100  66 101  83 101
M  END
> <Batch ID>
0119

> <Smiles>
CNC(C)C(=O)NC(C(=O)N1Cc2cc([101O:1][101C:1](C)(C)CCOc3cc(C)cc(C=[100CH:0][100C:0](=O)N4CCCC(n5nc(-c6ccc(Oc7ccc(F)cc7F)cc6)c(C(N)=O)c5N)C4)c3)ccc2CC1C(=O)NC1CCCc2ccccc21)C(C)(C)C

> <Shape>
0.218

> <Color>
0.125

> <Negative vol penalty>
0.000

$$$$

  -OEChem-04052301513D

 84 93  0     1  0  0  0  0  0999 V2000
  -17.7354  -18.0925   29.4234 C   0  0  0  0  0  0  0  0  0  0  0  0
  -19.0449  -18.4183   29.0850 C   0  0  0  0  0  0  0  0  0  0  0  0
  -23.0752   -9.8686   19.9400 C   0  0  0  0  0  0  0  0  0  0  0  0
  -23.8345   -9.8744   22.2336 C   0  0  0  0  0  0  0  0  0  0  0  0
  -17.1465  -18.6605   30.5523 C   0  0  0  0  0  0  0  0  0  0  0  0
  -19.7659  -19.3131   29.8748 C   0  0  0  0  0  0  0  0  0  0  0  0
  -24.4871  -17.7272   30.7916 C   0  0  0  0  0  0  0  0  0  0  0  0
  -22.3308   -8.7156   20.1893 C   0  0  0  0  0  0  0  0  0  0  0  0
  -23.0901   -8.7214   22.4829 C   0  0  0  0  0  0  0  0  0  0  0  0
  -25.4221  -17.8869   29.7698 C   0  0  0  0  0  0  0  0  0  0  0  0
  -19.8615   -7.9246   23.0844 C   0  0  0  0  0  0  0  0  0  0  0  0
  -19.1043   -7.8845   24.2551 C   0  0  0  0  0  0  0  0  0  0  0  0
  -31.8872  -18.8081   22.3744 C   0  0  0  0  0  0  0  0  0  0  0  0
  -31.7985  -17.5497   21.7121 C   0  0  0  0  0  0  0  0  0  0  0  0
  -26.2693  -19.8638   30.8622 C   0  0  0  0  0  0  0  0  0  0  0  0
  -20.3448   -5.9462   24.9910 C   0  0  0  0  0  0  0  0  0  0  0  0
  -23.8271  -10.4480   20.9621 C   0  0  0  0  0  0  0  0  0  0  0  0
  -24.1699  -12.9730   20.8432 C   0  0  0  0  0  0  0  0  0  0  0  0
  -17.8639  -19.5553   31.3618 C   0  0  0  0  0  0  0  0  0  0  0  0
  -24.4289  -18.6423   31.8525 C   0  0  0  0  0  0  0  0  0  0  0  0
  -19.1856  -19.8946   31.0149 C   0  0  0  0  0  0  0  0  0  0  0  0
  -25.3343  -19.7121   31.8975 C   0  0  0  0  0  0  0  0  0  0  0  0
  -22.3383   -8.1420   21.4608 C   0  0  0  0  0  0  0  0  0  0  0  0
  -26.3115  -18.9569   29.8035 C   0  0  0  0  0  0  0  0  0  0  0  0
  -20.8604   -6.9755   22.8669 C   0  0  0  0  0  0  0  0  0  0  0  0
  -19.3459   -6.8953   25.2084 C   0  0  0  0  0  0  0  0  0  0  0  0
  -21.1020   -5.9863   23.8203 C   0  0  0  0  0  0  0  0  0  0  0  0
  -24.5967  -11.6387   20.7051 C   0  0  0  0  0  0  0  0  0  0  0  0
  -30.7399  -19.1053   23.0765 C   0  0  0  0  0  0  0  0  0  0  0  0
  -25.2624  -13.7223   20.4805 C   0  0  0  0  0  0  0  0  0  0  0  0
  -30.5868  -16.9328   21.9335 C   0  0  0  0  0  0  0  0  0  0  0  0
  -29.4155  -18.6047   28.0371 C   0  0  0  0  0  0  0  0  0  0  0  0
  -28.4445  -18.5162   28.9509 C   0  0  0  0  0  0  0  0  0  1  0  0
  -22.8995  -13.4892   21.2620 C   0  0  0  0  0  0  0  0  0  0  0  0
  -22.2346  -20.6595   32.9569 C   0  0  0  0  0  0  0  0  0  0  0  0
  -24.3944  -21.0935   35.3379 C   0  0  0  0  0  0  0  0  0  0  0  0
  -27.6458  -20.9407   36.3635 C   0  0  0  0  0  0  0  0  0  0  0  0
  -30.7290  -14.7656   20.6569 C   0  0  0  0  0  0  0  0  0  0  0  0
  -17.1691  -20.1802   32.5457 C   0  0  0  0  0  0  0  0  0  0  0  0
  -23.4320  -18.4410   32.9607 C   0  0  0  0  0  0  0  0  0  0  0  0
  -25.3264  -20.7108   33.0249 C   0  0  0  0  0  0  0  0  0  0  0  0
  -30.7699  -17.9695   28.1417 C   0  0  0  0  0  0  0  0  0  0  0  0
  -29.3406  -19.4045   26.7755 C   0  0  0  0  0  0  0  0  0  0  0  0
  -18.1270  -20.8311   33.5402 C   0  0  0  0  0  0  0  0  0  0  0  0
  -29.6142  -12.3533   18.2873 C   0  0  0  0  0  0  0  0  0  0  0  0
  -19.1530  -21.6909   32.8088 C   0  0  0  0  0  0  0  0  0  0  0  0
  -28.1743  -12.0621   18.7164 C   0  0  0  0  0  0  0  0  0  0  0  0
  -30.5291  -12.5812   19.4893 C   0  0  0  0  0  0  0  0  0  0  0  0
  -28.6221  -13.3058   20.8704 C   0  0  0  0  0  0  0  0  0  0  0  0
  -31.6260  -18.8033   27.1977 C   0  0  0  0  0  0  0  0  0  0  0  0
  -20.0085  -20.8422   31.8606 C   0  0  1  0  0  0  0  0  0  0  0  0
  -23.1229  -19.7236   33.7267 C   0  0  1  0  0  0  0  0  0  0  0  0
  -27.6495  -13.1335   19.6923 C   0  0  2  0  0  0  0  0  0  0  0  0
  -29.1076  -21.3949   38.3521 C   0  0  0  0  0  0  0  0  0  0  0  0
  -24.2271  -24.0875   34.7741 C   0  0  0  0  0  0  0  0  0  0  0  0
  -26.3427  -24.3810   36.0805 C   0  0  0  0  0  0  0  0  0  0  0  0
  -24.3014  -23.4854   37.2003 C   0  0  0  0  0  0  0  0  0  0  0  0
  -28.4875  -18.1087   36.5374 C   0  0  0  0  0  0  0  0  0  0  0  0
  -30.4364  -20.3246   23.8983 C   0  0  0  0  0  0  0  0  0  0  0  0
  -31.1334  -20.3430   25.2550 C   0  0  0  0  0  0  0  0  0  0  0  0
  -25.5611  -22.0239   35.5665 C   0  0  1  0  0  0  0  0  0  0  0  0
  -28.2821  -20.3546   37.6109 C   0  0  2  0  0  0  0  0  0  0  0  0
  -25.1072  -23.4769   35.8830 C   0  0  0  0  0  0  0  0  0  0  0  0
  -25.8616  -11.5425   20.2870 N   0  0  0  0  0  0  0  0  0  0  0  0
  -26.2390  -12.8260   20.1593 N   0  0  0  0  0  0  0  0  0  0  0  0
  -24.3289  -20.4746   34.0816 N   0  0  0  0  0  0  0  0  0  0  0  0
  -29.9703  -13.6119   20.3670 N   0  0  0  0  0  0  0  0  0  0  0  0
  -25.4733  -15.0537   20.4081 N   0  0  0  0  0  0  0  0  0  0  0  0
  -21.8872  -12.5802   21.5987 N   0  0  0  0  0  0  0  0  0  0  0  0
  -30.0818  -15.6906   21.4756 N   0  0  0  0  0  0  0  0  0  0  0  0
  -21.0152  -20.1143   32.6030 N   0  0  0  0  0  0  0  0  0  0  0  0
  -26.3735  -21.4107   36.6117 N   0  0  0  0  0  0  0  0  0  0  0  0
  -30.6729  -19.1961   26.0916 N   0  3  2  0  0  0  0  0  0  0  0  0
  -29.1738  -19.2160   37.2515 N   0  3  0  0  0  0  0  0  0  0  0  0
  -22.6637  -14.7198   21.3198 O   0  0  0  0  0  0  0  0  0  0  0  0
  -22.6259  -21.7930   32.7042 O   0  0  0  0  0  0  0  0  0  0  0  0
  -23.5754  -20.9168   36.2433 O   0  0  0  0  0  0  0  0  0  0  0  0
  -28.2214  -20.9813   35.2783 O   0  0  0  0  0  0  0  0  0  0  0  0
  -31.8582  -14.9341   20.1896 O   0  0  0  0  0  0  0  0  0  0  0  0
  -21.6118   -7.0171   21.7045 O   0  0  0  0  0  0  0  0  0  0  0  0
  -27.2247  -19.1155   28.8071 O   0  0  0  0  0  0  0  0  0  1  0  0
  -18.6197   -6.8579   26.3333 F   0  0  0  0  0  0  0  0  0  0  0  0
  -22.0611   -5.0726   23.6175 F   0  0  0  0  0  0  0  0  0  0  0  0
  -29.5624  -17.8699   22.9359 S   0  0  0  0  0  0  0  0  0  0  0  0
  1  2  1  0  0  0  0
  1  5  2  0  0  0  0
  2  6  2  0  0  0  0
  3  8  2  0  0  0  0
  3 17  1  0  0  0  0
  4  9  1  0  0  0  0
  4 17  2  0  0  0  0
  5 19  1  0  0  0  0
  6 21  1  0  0  0  0
  7 10  2  0  0  0  0
  7 20  1  0  0  0  0
  8 23  1  0  0  0  0
  9 23  2  0  0  0  0
 10 24  1  0  0  0  0
 11 12  2  0  0  0  0
 11 25  1  0  0  0  0
 12 26  1  0  0  0  0
 13 14  1  0  0  0  0
 13 29  2  0  0  0  0
 14 31  2  0  0  0  0
 15 22  1  0  0  0  0
 15 24  2  0  0  0  0
 16 26  2  0  0  0  0
 16 27  1  0  0  0  0
 17 28  1  0  0  0  0
 18 28  1  0  0  0  0
 18 30  2  0  0  0  0
 18 34  1  0  0  0  0
 19 21  2  0  0  0  0
 19 39  1  0  0  0  0
 20 22  2  0  0  0  0
 20 40  1  0  0  0  0
 21 51  1  0  0  0  0
 22 41  1  0  0  0  0
 23 80  1  0  0  0  0
 24 81  1  0  0  0  0
 25 27  2  0  0  0  0
 25 80  1  0  0  0  0
 26 82  1  0  0  0  0
 27 83  1  0  0  0  0
 28 64  2  0  0  0  0
 29 59  1  0  0  0  0
 29 84  1  0  0  0  0
 30 65  1  0  0  0  0
 30 68  1  0  0  0  0
 31 70  1  0  0  0  0
 31 84  1  0  0  0  0
 32 33  2  0  0  0  0
 32 42  1  0  0  0  0
 32 43  1  0  0  0  0
 33 81  1  0  0  0  0
 34 69  1  0  0  0  0
 34 75  2  0  0  0  0
 35 52  1  0  0  0  0
 35 71  1  0  0  0  0
 35 76  2  0  0  0  0
 36 61  1  0  0  0  0
 36 66  1  0  0  0  0
 36 77  2  0  0  0  0
 37 62  1  0  0  0  0
 37 72  1  0  0  0  0
 37 78  2  0  0  0  0
 38 67  1  0  0  0  0
 38 70  1  0  0  0  0
 38 79  2  0  0  0  0
 39 44  1  0  0  0  0
 40 52  1  0  0  0  0
 41 66  1  0  0  0  0
 42 50  1  0  0  0  0
 43 73  1  0  0  0  0
 44 46  1  0  0  0  0
 45 47  1  0  0  0  0
 45 48  1  0  0  0  0
 46 51  1  0  0  0  0
 47 53  1  0  0  0  0
 48 67  1  0  0  0  0
 49 53  1  0  0  0  0
 49 67  1  0  0  0  0
 50 73  1  0  0  0  0
 51 71  1  0  0  0  0
 52 66  1  0  0  0  0
 53 65  1  0  0  0  0
 54 62  1  0  0  0  0
 55 63  1  0  0  0  0
 56 63  1  0  0  0  0
 57 63  1  0  0  0  0
 58 74  1  0  0  0  0
 59 60  1  0  0  0  0
 60 73  1  0  0  0  0
 61 63  1  0  0  0  0
 61 72  1  0  0  0  0
 62 74  1  0  0  0  0
 64 65  1  0  0  0  0
M  CHG  2  73   1  74   1
M  ISO  4  33 101  38 100  70 100  81 101
M  END
> <Batch ID>
0119

> <Smiles>
CNC(C)C(=O)NC(C(=O)N1Cc2cc([101O:1][101CH:1]=C3CCN(CCc4ccc([100NH:0][100C:0](=O)N5CCCC(n6nc(-c7ccc(Oc8ccc(F)cc8F)cc7)c(C(N)=O)c6N)C5)s4)C3)ccc2CC1C(=O)NC1CCCc2ccccc21)C(C)(C)C

> <Shape>
0.167

> <Color>
0.188

> <Negative vol penalty>
0.000

$$$$

  -OEChem-04052301513D

 84 92  0     1  0  0  0  0  0999 V2000
  -19.8419  -34.6060   21.7901 C   0  0  0  0  0  0  0  0  0  0  0  0
  -21.1244  -34.1736   21.4684 C   0  0  0  0  0  0  0  0  0  0  0  0
  -25.2906  -11.9288   21.0846 C   0  0  0  0  0  0  0  0  0  0  0  0
  -23.3518  -13.1770   21.8057 C   0  0  0  0  0  0  0  0  0  0  0  0
  -34.1622  -23.0588   19.1981 C   0  0  0  0  0  0  0  0  0  0  0  0
  -19.0504  -33.8529   22.6563 C   0  0  0  0  0  0  0  0  0  0  0  0
  -21.6167  -32.9883   22.0136 C   0  0  0  0  0  0  0  0  0  0  0  0
  -25.3696  -28.9730   19.3121 C   0  0  0  0  0  0  0  0  0  0  0  0
  -24.9832  -10.9224   22.0000 C   0  0  0  0  0  0  0  0  0  0  0  0
  -23.0443  -12.1705   22.7212 C   0  0  0  0  0  0  0  0  0  0  0  0
  -34.7150  -21.8118   18.9067 C   0  0  0  0  0  0  0  0  0  0  0  0
  -26.7471  -28.7746   19.3942 C   0  0  0  0  0  0  0  0  0  0  0  0
  -24.5070   -7.8566   23.8945 C   0  0  0  0  0  0  0  0  0  0  0  0
  -24.5821   -6.5350   23.4549 C   0  0  0  0  0  0  0  0  0  0  0  0
  -32.0093  -22.0216   19.5530 C   0  0  0  0  0  0  0  0  0  0  0  0
  -26.3948  -27.0555   21.0494 C   0  0  0  0  0  0  0  0  0  0  0  0
  -22.9087   -6.9986   21.7751 C   0  0  0  0  0  0  0  0  0  0  0  0
  -24.4749  -13.0562   20.9874 C   0  0  0  0  0  0  0  0  0  0  0  0
  -32.8094  -23.1637   19.5213 C   0  0  0  0  0  0  0  0  0  0  0  0
  -32.5620  -20.7745   19.2616 C   0  0  0  0  0  0  0  0  0  0  0  0
  -24.3576  -14.1933   18.7068 C   0  0  0  0  0  0  0  0  0  0  0  0
  -19.5296  -32.6528   23.2048 C   0  0  0  0  0  0  0  0  0  0  0  0
  -24.4934  -28.2203   20.1073 C   0  0  0  0  0  0  0  0  0  0  0  0
  -20.8314  -32.2192   22.8891 C   0  0  0  0  0  0  0  0  0  0  0  0
  -25.0064  -27.2444   20.9736 C   0  0  0  0  0  0  0  0  0  0  0  0
  -23.8601  -11.0432   22.8183 C   0  0  0  0  0  0  0  0  0  0  0  0
  -27.2601  -27.8178   20.2650 C   0  0  0  0  0  0  0  0  0  0  0  0
  -33.9149  -20.6696   18.9384 C   0  0  0  0  0  0  0  0  0  0  0  0
  -23.6326   -8.7492   23.2745 C   0  0  0  0  0  0  0  0  0  0  0  0
  -23.7830   -6.1060   22.3951 C   0  0  0  0  0  0  0  0  0  0  0  0
  -22.8335   -8.3202   22.2148 C   0  0  0  0  0  0  0  0  0  0  0  0
  -24.7923  -14.0965   20.0423 C   0  0  0  0  0  0  0  0  0  0  0  0
  -24.9300  -15.3523   18.2426 C   0  0  0  0  0  0  0  0  0  0  0  0
  -32.2262  -24.4816   19.8273 C   0  0  0  0  0  0  0  0  0  0  0  0
  -31.7058  -19.5965   19.2991 C   0  0  0  0  0  0  0  0  0  0  0  0
  -30.9172  -24.7749   19.7762 C   0  0  0  0  0  0  0  0  0  0  0  0
  -30.6136  -19.4495   20.0767 C   0  0  0  0  0  0  0  0  0  0  0  0
  -30.3962  -26.0855   20.0951 C   0  0  0  0  0  0  0  0  0  0  0  0
  -29.0943  -26.3830   20.0459 C   0  0  0  0  0  0  0  0  0  1  0  0
  -23.5119  -13.3141   17.9534 C   0  0  0  0  0  0  0  0  0  0  0  0
  -29.8403  -18.1941   19.9934 C   0  0  0  0  0  0  0  0  0  0  0  0
  -22.3814  -28.9035   22.3825 C   0  0  0  0  0  0  0  0  0  0  0  0
  -21.6906  -25.7428   22.1479 C   0  0  0  0  0  0  0  0  0  0  0  0
  -22.7202  -22.6095   21.2711 C   0  0  0  0  0  0  0  0  0  0  0  0
  -18.6549  -31.8972   24.1736 C   0  0  0  0  0  0  0  0  0  0  0  0
  -23.0085  -28.4278   19.9874 C   0  0  0  0  0  0  0  0  0  0  0  0
  -24.1072  -26.3961   21.8340 C   0  0  0  0  0  0  0  0  0  0  0  0
  -19.1117  -30.4606   24.4138 C   0  0  0  0  0  0  0  0  0  0  0  0
  -26.4776  -19.6219   19.7020 C   0  0  0  0  0  0  0  0  0  0  0  0
  -20.6163  -30.4129   24.6602 C   0  0  0  0  0  0  0  0  0  0  0  0
  -25.6225  -18.3577   19.6823 C   0  0  0  0  0  0  0  0  0  0  0  0
  -27.7093  -19.4652   20.5925 C   0  0  0  0  0  0  0  0  0  0  0  0
  -27.6900  -17.0140   20.2300 C   0  0  0  0  0  0  0  0  0  0  0  0
  -21.3916  -30.9262   23.4408 C   0  0  1  0  0  0  0  0  0  0  0  0
  -22.2388  -27.9627   21.2197 C   0  0  1  0  0  0  0  0  0  0  0  0
  -26.4701  -17.1331   19.3031 C   0  0  1  0  0  0  0  0  0  0  0  0
  -21.9487  -20.2219   21.2300 C   0  0  0  0  0  0  0  0  0  0  0  0
  -22.1350  -25.5500   25.1604 C   0  0  0  0  0  0  0  0  0  0  0  0
  -22.2931  -23.0642   24.9076 C   0  0  0  0  0  0  0  0  0  0  0  0
  -20.1789  -24.2450   24.3088 C   0  0  0  0  0  0  0  0  0  0  0  0
  -22.9870  -22.4524   18.3278 C   0  0  0  0  0  0  0  0  0  0  0  0
  -35.0294  -18.7279   19.7404 C   0  0  0  0  0  0  0  0  0  0  0  0
  -22.2002  -24.4851   22.8092 C   0  0  1  0  0  0  0  0  0  0  0  0
  -22.0514  -21.5227   20.4489 C   0  0  2  0  0  0  0  0  0  0  0  0
  -21.7191  -24.3532   24.2819 C   0  0  0  0  0  0  0  0  0  0  0  0
  -25.5802  -15.1129   20.4031 N   0  0  0  0  0  0  0  0  0  0  0  0
  -25.6452  -15.8593   19.2874 N   0  0  0  0  0  0  0  0  0  0  0  0
  -28.4716  -18.2555   20.2488 N   0  0  0  0  0  0  0  0  0  0  0  0
  -22.6631  -26.6408   21.6855 N   0  0  0  0  0  0  0  0  0  0  0  0
  -24.8864  -15.9769   17.0466 N   0  0  0  0  0  0  0  0  0  0  0  0
  -23.0093  -12.1677   18.5838 N   0  0  0  0  0  0  0  0  0  0  0  0
  -21.4382  -29.9130   22.4084 N   0  0  0  0  0  0  0  0  0  0  0  0
  -21.7974  -23.3789   21.9477 N   0  0  0  0  0  0  0  0  0  0  0  0
  -22.8281  -21.2631   19.2038 N   0  3  0  0  0  0  0  0  0  0  0  0
  -23.2243  -13.5300   16.7516 O   0  0  0  0  0  0  0  0  0  0  0  0
  -30.4554  -17.1654   19.7070 O   0  0  0  0  0  0  0  0  0  0  0  0
  -23.2799  -28.7259   23.1967 O   0  0  0  0  0  0  0  0  0  0  0  0
  -20.4745  -25.9186   22.0389 O   0  0  0  0  0  0  0  0  0  0  0  0
  -23.9395  -22.7585   21.3122 O   0  0  0  0  0  0  0  0  0  0  0  0
  -23.5597  -10.0612   23.7116 O   0  0  0  0  0  0  0  0  0  0  0  0
  -28.6044  -27.6226   20.3476 O   0  0  0  0  0  0  0  0  0  1  0  0
  -34.4804  -19.4629   18.6493 O   0  0  0  0  0  0  0  0  0  0  0  0
  -23.8564   -4.8372   21.9721 F   0  0  0  0  0  0  0  0  0  0  0  0
  -21.9924   -9.1734   21.6144 F   0  0  0  0  0  0  0  0  0  0  0  0
  1  2  1  0  0  0  0
  1  6  2  0  0  0  0
  2  7  2  0  0  0  0
  3  9  2  0  0  0  0
  3 18  1  0  0  0  0
  4 10  1  0  0  0  0
  4 18  2  0  0  0  0
  5 11  2  0  0  0  0
  5 19  1  0  0  0  0
  6 22  1  0  0  0  0
  7 24  1  0  0  0  0
  8 12  2  0  0  0  0
  8 23  1  0  0  0  0
  9 26  1  0  0  0  0
 10 26  2  0  0  0  0
 11 28  1  0  0  0  0
 12 27  1  0  0  0  0
 13 14  2  0  0  0  0
 13 29  1  0  0  0  0
 14 30  1  0  0  0  0
 15 19  2  0  0  0  0
 15 20  1  0  0  0  0
 16 25  1  0  0  0  0
 16 27  2  0  0  0  0
 17 30  2  0  0  0  0
 17 31  1  0  0  0  0
 18 32  1  0  0  0  0
 19 34  1  0  0  0  0
 20 28  2  0  0  0  0
 20 35  1  0  0  0  0
 21 32  1  0  0  0  0
 21 33  2  0  0  0  0
 21 40  1  0  0  0  0
 22 24  2  0  0  0  0
 22 45  1  0  0  0  0
 23 25  2  0  0  0  0
 23 46  1  0  0  0  0
 24 54  1  0  0  0  0
 25 47  1  0  0  0  0
 26 80  1  0  0  0  0
 27 81  1  0  0  0  0
 28 82  1  0  0  0  0
 29 31  2  0  0  0  0
 29 80  1  0  0  0  0
 30 83  1  0  0  0  0
 31 84  1  0  0  0  0
 32 66  2  0  0  0  0
 33 67  1  0  0  0  0
 33 70  1  0  0  0  0
 34 36  2  0  0  0  0
 35 37  2  0  0  0  0
 36 38  1  0  0  0  0
 37 41  1  0  0  0  0
 38 39  2  0  0  0  0
 39 81  1  0  0  0  0
 40 71  1  0  0  0  0
 40 75  2  0  0  0  0
 41 68  1  0  0  0  0
 41 76  2  0  0  0  0
 42 55  1  0  0  0  0
 42 72  1  0  0  0  0
 42 77  2  0  0  0  0
 43 63  1  0  0  0  0
 43 69  1  0  0  0  0
 43 78  2  0  0  0  0
 44 64  1  0  0  0  0
 44 73  1  0  0  0  0
 44 79  2  0  0  0  0
 45 48  1  0  0  0  0
 46 55  1  0  0  0  0
 47 69  1  0  0  0  0
 48 50  1  0  0  0  0
 49 51  1  0  0  0  0
 49 52  1  0  0  0  0
 50 54  1  0  0  0  0
 51 56  1  0  0  0  0
 52 68  1  0  0  0  0
 53 56  1  0  0  0  0
 53 68  1  0  0  0  0
 54 72  1  0  0  0  0
 55 69  1  0  0  0  0
 56 67  1  0  0  0  0
 57 64  1  0  0  0  0
 58 65  1  0  0  0  0
 59 65  1  0  0  0  0
 60 65  1  0  0  0  0
 61 74  1  0  0  0  0
 62 82  1  0  0  0  0
 63 65  1  0  0  0  0
 63 73  1  0  0  0  0
 64 74  1  0  0  0  0
 66 67  1  0  0  0  0
M  CHG  1  74   1
M  ISO  4  37 100  39 101  41 100  81 101
M  END
> <Batch ID>
0119

> <Smiles>
CNC(C)C(=O)NC(C(=O)N1Cc2cc([101O:1][101CH:1]=CC=Cc3ccc(OC)c(C=[100CH:0][100C:0](=O)N4CCCC(n5nc(-c6ccc(Oc7ccc(F)cc7F)cc6)c(C(N)=O)c5N)C4)c3)ccc2CC1C(=O)NC1CCCc2ccccc21)C(C)(C)C

> <Shape>
0.191

> <Color>
0.096

> <Negative vol penalty>
0.000

$$$$

  -OEChem-04052301513D

 84 93  0     1  0  0  0  0  0999 V2000
  -25.4858   -6.9224   22.5992 C   0  0  0  0  0  0  0  0  0  0  0  0
  -26.3286   -7.5928   21.7185 C   0  0  0  0  0  0  0  0  0  0  0  0
  -23.5404  -30.6390   23.5318 C   0  0  0  0  0  0  0  0  0  0  0  0
  -22.1396  -31.3392   21.6921 C   0  0  0  0  0  0  0  0  0  0  0  0
  -24.1447   -7.2913   22.6959 C   0  0  0  0  0  0  0  0  0  0  0  0
  -25.8305   -8.6319   20.9332 C   0  0  0  0  0  0  0  0  0  0  0  0
  -28.6343  -15.2553   21.3336 C   0  0  0  0  0  0  0  0  0  0  0  0
  -29.5714  -23.8399   19.6832 C   0  0  0  0  0  0  0  0  0  0  0  0
  -29.8264  -23.6743   17.2864 C   0  0  0  0  0  0  0  0  0  0  0  0
  -28.7546  -24.9586   19.5190 C   0  0  0  0  0  0  0  0  0  0  0  0
  -29.0096  -24.7930   17.1222 C   0  0  0  0  0  0  0  0  0  0  0  0
  -22.4107  -30.4945   24.3370 C   0  0  0  0  0  0  0  0  0  0  0  0
  -21.0098  -31.1946   22.4973 C   0  0  0  0  0  0  0  0  0  0  0  0
  -29.2543  -16.4977   21.1989 C   0  0  0  0  0  0  0  0  0  0  0  0
  -19.0540  -28.6744   23.6126 C   0  0  0  0  0  0  0  0  0  0  0  0
  -17.9467  -28.0284   23.0631 C   0  0  0  0  0  0  0  0  0  0  0  0
  -27.5563  -17.1859   19.6205 C   0  0  0  0  0  0  0  0  0  0  0  0
  -16.6159  -30.0149   23.4090 C   0  0  0  0  0  0  0  0  0  0  0  0
  -23.4049  -31.0615   22.2093 C   0  0  0  0  0  0  0  0  0  0  0  0
  -25.6709  -32.0622   21.5999 C   0  0  0  0  0  0  0  0  0  0  0  0
  -23.6322   -8.3418   21.9184 C   0  0  0  0  0  0  0  0  0  0  0  0
  -27.4629  -14.9787   20.6232 C   0  0  0  0  0  0  0  0  0  0  0  0
  -24.4810   -9.0143   21.0186 C   0  0  0  0  0  0  0  0  0  0  0  0
  -26.9239  -15.9477   19.7610 C   0  0  0  0  0  0  0  0  0  0  0  0
  -30.1073  -23.1978   18.5669 C   0  0  0  0  0  0  0  0  0  0  0  0
  -28.4736  -25.4351   18.2385 C   0  0  0  0  0  0  0  0  0  0  0  0
  -21.1454  -30.7722   23.8198 C   0  0  0  0  0  0  0  0  0  0  0  0
  -28.7167  -17.4605   20.3443 C   0  0  0  0  0  0  0  0  0  0  0  0
  -18.9423  -29.9907   24.0605 C   0  0  0  0  0  0  0  0  0  0  0  0
  -16.7277  -28.6986   22.9612 C   0  0  0  0  0  0  0  0  0  0  0  0
  -17.7233  -30.6610   23.9587 C   0  0  0  0  0  0  0  0  0  0  0  0
  -24.5715  -31.2115   21.3772 C   0  0  0  0  0  0  0  0  0  0  0  0
  -26.5032  -31.8346   20.5313 C   0  0  0  0  0  0  0  0  0  0  0  0
  -31.3119  -19.8371   19.6133 C   0  0  0  0  0  0  0  0  0  0  0  0
  -30.6155  -18.7020   19.7731 C   0  0  0  0  0  0  0  0  0  1  0  0
  -25.9176  -32.9764   22.6765 C   0  0  0  0  0  0  0  0  0  0  0  0
  -24.7400  -12.5132   19.8596 C   0  0  0  0  0  0  0  0  0  0  0  0
  -23.4101  -15.2685   20.0836 C   0  0  0  0  0  0  0  0  0  0  0  0
  -22.2805  -18.4004   20.8268 C   0  0  0  0  0  0  0  0  0  0  0  0
  -27.2662  -27.1730   16.8717 C   0  0  0  0  0  0  0  0  0  0  0  0
  -22.1646   -8.6734   22.0231 C   0  0  0  0  0  0  0  0  0  0  0  0
  -26.7954  -13.6320   20.6905 C   0  0  0  0  0  0  0  0  0  0  0  0
  -25.6815  -15.5935   18.9902 C   0  0  0  0  0  0  0  0  0  0  0  0
  -32.7313  -19.8424   19.1190 C   0  0  0  0  0  0  0  0  0  0  0  0
  -30.7188  -21.1957   19.8903 C   0  0  0  0  0  0  0  0  0  0  0  0
  -21.8033  -10.0323   21.4289 C   0  0  0  0  0  0  0  0  0  0  0  0
  -32.8412  -20.7522   17.9005 C   0  0  0  0  0  0  0  0  0  0  0  0
  -26.4141  -30.5001   15.9329 C   0  0  0  0  0  0  0  0  0  0  0  0
  -22.4547  -10.2069   20.0607 C   0  0  0  0  0  0  0  0  0  0  0  0
  -25.9507  -31.1394   17.2439 C   0  0  0  0  0  0  0  0  0  0  0  0
  -32.2945  -22.1518   18.1866 C   0  0  0  0  0  0  0  0  0  0  0  0
  -25.9897  -29.0359   15.8348 C   0  0  0  0  0  0  0  0  0  0  0  0
  -25.9128  -28.8387   18.2892 C   0  0  0  0  0  0  0  0  0  0  0  0
  -23.9838  -10.1629   20.1680 C   0  0  1  0  0  0  0  0  0  0  0  0
  -25.2614  -13.7132   20.5941 C   0  0  1  0  0  0  0  0  0  0  0  0
  -26.3730  -30.2954   18.4625 C   0  0  2  0  0  0  0  0  0  0  0  0
  -20.1711  -19.7531   20.9614 C   0  0  0  0  0  0  0  0  0  0  0  0
  -23.3427  -15.4595   17.0401 C   0  0  0  0  0  0  0  0  0  0  0  0
  -21.9009  -17.4934   17.2705 C   0  0  0  0  0  0  0  0  0  0  0  0
  -21.0957  -15.2925   18.1253 C   0  0  0  0  0  0  0  0  0  0  0  0
  -22.6620  -18.9222   23.7149 C   0  0  0  0  0  0  0  0  0  0  0  0
  -22.9350  -16.5059   19.3649 C   0  0  1  0  0  0  0  0  0  0  0  0
  -21.1535  -18.8783   21.7246 C   0  0  2  0  0  0  0  0  0  0  0  0
  -22.3441  -16.1867   17.9626 C   0  0  0  0  0  0  0  0  0  0  0  0
  -24.6916  -30.4970   20.2551 N   0  0  0  0  0  0  0  0  0  0  0  0
  -25.8761  -30.8981   19.7632 N   0  0  0  0  0  0  0  0  0  0  0  0
  -30.9295  -22.0751   18.7317 N   0  0  2  0  0  0  0  0  0  0  0  0
  -24.7364  -14.8783   19.8619 N   0  0  0  0  0  0  0  0  0  0  0  0
  -26.4275  -28.2977   17.0215 N   0  0  0  0  0  0  0  0  0  0  0  0
  -27.7030  -32.3461   20.1832 N   0  0  0  0  0  0  0  0  0  0  0  0
  -24.9584  -33.0867   23.6924 N   0  0  0  0  0  0  0  0  0  0  0  0
  -27.6438  -26.5715   18.0718 N   0  0  0  0  0  0  0  0  0  0  0  0
  -24.4916  -11.4218   20.6699 N   0  0  0  0  0  0  0  0  0  0  0  0
  -22.0026  -17.1704   20.2691 N   0  0  0  0  0  0  0  0  0  0  0  0
  -21.6989  -19.6682   22.8646 N   0  3  0  0  0  0  0  0  0  0  0  0
  -26.9503  -33.6867   22.7274 O   0  0  0  0  0  0  0  0  0  0  0  0
  -24.5734  -12.5723   18.6470 O   0  0  0  0  0  0  0  0  0  0  0  0
  -22.6270  -14.6593   20.8177 O   0  0  0  0  0  0  0  0  0  0  0  0
  -23.3033  -19.0546   20.6361 O   0  0  0  0  0  0  0  0  0  0  0  0
  -27.6452  -26.7893   15.7622 O   0  0  0  0  0  0  0  0  0  0  0  0
  -20.0428  -30.6310   24.6052 O   0  0  0  0  0  0  0  0  0  0  0  0
  -29.3246  -18.6729   20.2209 O   0  0  0  0  0  0  0  0  0  1  0  0
  -15.6648  -28.0786   22.4320 F   0  0  0  0  0  0  0  0  0  0  0  0
  -17.6101  -31.9260   24.3861 F   0  0  0  0  0  0  0  0  0  0  0  0
  1  2  1  0  0  0  0
  1  5  2  0  0  0  0
  2  6  2  0  0  0  0
  3 12  2  0  0  0  0
  3 19  1  0  0  0  0
  4 13  1  0  0  0  0
  4 19  2  0  0  0  0
  5 21  1  0  0  0  0
  6 23  1  0  0  0  0
  7 14  2  0  0  0  0
  7 22  1  0  0  0  0
  8 10  2  0  0  0  0
  8 25  1  0  0  0  0
  9 11  1  0  0  0  0
  9 25  2  0  0  0  0
 10 26  1  0  0  0  0
 11 26  2  0  0  0  0
 12 27  1  0  0  0  0
 13 27  2  0  0  0  0
 14 28  1  0  0  0  0
 15 16  2  0  0  0  0
 15 29  1  0  0  0  0
 16 30  1  0  0  0  0
 17 24  1  0  0  0  0
 17 28  2  0  0  0  0
 18 30  2  0  0  0  0
 18 31  1  0  0  0  0
 19 32  1  0  0  0  0
 20 32  1  0  0  0  0
 20 33  2  0  0  0  0
 20 36  1  0  0  0  0
 21 23  2  0  0  0  0
 21 41  1  0  0  0  0
 22 24  2  0  0  0  0
 22 42  1  0  0  0  0
 23 54  1  0  0  0  0
 24 43  1  0  0  0  0
 25 67  1  0  0  0  0
 26 72  1  0  0  0  0
 27 81  1  0  0  0  0
 28 82  1  0  0  0  0
 29 31  2  0  0  0  0
 29 81  1  0  0  0  0
 30 83  1  0  0  0  0
 31 84  1  0  0  0  0
 32 65  2  0  0  0  0
 33 66  1  0  0  0  0
 33 70  1  0  0  0  0
 34 35  2  0  0  0  0
 34 44  1  0  0  0  0
 34 45  1  0  0  0  0
 35 82  1  0  0  0  0
 36 71  1  0  0  0  0
 36 76  2  0  0  0  0
 37 55  1  0  0  0  0
 37 73  1  0  0  0  0
 37 77  2  0  0  0  0
 38 62  1  0  0  0  0
 38 68  1  0  0  0  0
 38 78  2  0  0  0  0
 39 63  1  0  0  0  0
 39 74  1  0  0  0  0
 39 79  2  0  0  0  0
 40 69  1  0  0  0  0
 40 72  1  0  0  0  0
 40 80  2  0  0  0  0
 41 46  1  0  0  0  0
 42 55  1  0  0  0  0
 43 68  1  0  0  0  0
 44 47  1  0  0  0  0
 45 67  1  0  0  0  0
 46 49  1  0  0  0  0
 47 51  1  0  0  0  0
 48 50  1  0  0  0  0
 48 52  1  0  0  0  0
 49 54  1  0  0  0  0
 50 56  1  0  0  0  0
 51 67  1  0  0  0  0
 52 69  1  0  0  0  0
 53 56  1  0  0  0  0
 53 69  1  0  0  0  0
 54 73  1  0  0  0  0
 55 68  1  0  0  0  0
 56 66  1  0  0  0  0
 57 63  1  0  0  0  0
 58 64  1  0  0  0  0
 59 64  1  0  0  0  0
 60 64  1  0  0  0  0
 61 75  1  0  0  0  0
 62 64  1  0  0  0  0
 62 74  1  0  0  0  0
 63 75  1  0  0  0  0
 65 66  1  0  0  0  0
M  CHG  1  75   1
M  ISO  4  35 101  40 100  72 100  82 101
M  END
> <Batch ID>
0119

> <Smiles>
CNC(C)C(=O)NC(C(=O)N1Cc2cc([101O:1][101CH:1]=C3CCCN(c4ccc([100NH:0][100C:0](=O)N5CCCC(n6nc(-c7ccc(Oc8ccc(F)cc8F)cc7)c(C(N)=O)c6N)C5)cc4)C3)ccc2CC1C(=O)NC1CCCc2ccccc21)C(C)(C)C

> <Shape>
0.248

> <Color>
0.071

> <Negative vol penalty>
0.000

$$$$

  -OEChem-04052301513D

 85 93  0     1  0  0  0  0  0999 V2000
  -24.3527  -22.3794   16.3480 C   0  0  0  0  0  0  0  0  0  0  0  0
  -24.7424  -21.0796   16.0454 C   0  0  0  0  0  0  0  0  0  0  0  0
  -27.0894  -28.3592   20.7908 C   0  0  0  0  0  0  0  0  0  0  0  0
  -25.3592  -26.9920   19.8039 C   0  0  0  0  0  0  0  0  0  0  0  0
  -24.0849  -22.7330   17.6688 C   0  0  0  0  0  0  0  0  0  0  0  0
  -24.8529  -20.1300   17.0618 C   0  0  0  0  0  0  0  0  0  0  0  0
  -26.7683  -14.3482   16.8896 C   0  0  0  0  0  0  0  0  0  0  0  0
  -31.4701  -15.4602   22.7446 C   0  0  0  0  0  0  0  0  0  0  0  0
  -31.8686  -14.3023   22.0768 C   0  0  0  0  0  0  0  0  0  0  0  0
  -26.3642  -29.5072   20.4719 C   0  0  0  0  0  0  0  0  0  0  0  0
  -24.6339  -28.1400   19.4850 C   0  0  0  0  0  0  0  0  0  0  0  0
  -27.9665  -13.6556   17.0580 C   0  0  0  0  0  0  0  0  0  0  0  0
  -22.1569  -30.6928   18.7327 C   0  0  0  0  0  0  0  0  0  0  0  0
  -20.7875  -30.6902   18.9979 C   0  0  0  0  0  0  0  0  0  0  0  0
  -27.3748  -13.2017   19.3521 C   0  0  0  0  0  0  0  0  0  0  0  0
  -21.2425  -30.3303   21.3433 C   0  0  0  0  0  0  0  0  0  0  0  0
  -26.5869  -27.1016   20.4568 C   0  0  0  0  0  0  0  0  0  0  0  0
  -27.2557  -25.1607   21.9711 C   0  0  0  0  0  0  0  0  0  0  0  0
  -24.2045  -21.7899   18.7028 C   0  0  0  0  0  0  0  0  0  0  0  0
  -25.8678  -14.4823   17.9561 C   0  0  0  0  0  0  0  0  0  0  0  0
  -24.5638  -20.4613   18.3979 C   0  0  0  0  0  0  0  0  0  0  0  0
  -26.1647  -13.8943   19.1940 C   0  0  0  0  0  0  0  0  0  0  0  0
  -31.2064  -16.6251   22.0240 C   0  0  0  0  0  0  0  0  0  0  0  0
  -31.7399  -15.4741   19.9679 C   0  0  0  0  0  0  0  0  0  0  0  0
  -32.0035  -14.3092   20.6885 C   0  0  0  0  0  0  0  0  0  0  0  0
  -25.1364  -29.3976   19.8190 C   0  0  0  0  0  0  0  0  0  0  0  0
  -28.2713  -13.0847   18.2901 C   0  0  0  0  0  0  0  0  0  0  0  0
  -23.0691  -30.5140   19.7727 C   0  0  0  0  0  0  0  0  0  0  0  0
  -31.3413  -16.6321   20.6357 C   0  0  0  0  0  0  0  0  0  0  0  0
  -20.3303  -30.5090   20.3032 C   0  0  0  0  0  0  0  0  0  0  0  0
  -22.6119  -30.3329   21.0780 C   0  0  0  0  0  0  0  0  0  0  0  0
  -27.3359  -25.9154   20.7854 C   0  0  0  0  0  0  0  0  0  0  0  0
  -28.1607  -24.1431   21.7922 C   0  0  0  0  0  0  0  0  0  0  0  0
  -26.4364  -25.3614   23.1304 C   0  0  0  0  0  0  0  0  0  0  0  0
  -24.6708  -16.9344   19.5865 C   0  0  0  0  0  0  0  0  0  0  0  0
  -31.5186  -12.2779   19.6240 C   0  0  0  0  0  0  0  0  0  0  0  0
  -30.3630  -20.1670   18.5318 C   0  0  0  0  0  0  0  0  0  0  0  0
  -22.8561  -14.6273   20.9673 C   0  0  0  0  0  0  0  0  0  0  0  0
  -22.4808  -11.3331   21.7760 C   0  0  0  0  0  0  0  0  0  0  0  0
  -23.8949  -22.2247   20.1136 C   0  0  0  0  0  0  0  0  0  0  0  0
  -24.5673  -15.2096   17.7507 C   0  0  0  0  0  0  0  0  0  0  0  0
  -25.2224  -13.9923   20.3649 C   0  0  0  0  0  0  0  0  0  0  0  0
  -24.4653  -21.2792   21.1658 C   0  0  0  0  0  0  0  0  0  0  0  0
  -31.7215  -23.4727   18.2738 C   0  0  0  0  0  0  0  0  0  0  0  0
  -24.0975  -19.8423   20.8273 C   0  0  0  0  0  0  0  0  0  0  0  0
  -30.6805  -24.3444   18.9749 C   0  0  0  0  0  0  0  0  0  0  0  0
  -31.0681  -22.3137   17.5275 C   0  0  0  0  0  0  0  0  0  0  0  0
  -29.1446  -22.3309   19.0836 C   0  0  0  0  0  0  0  0  0  0  0  0
  -24.7203  -19.4194   19.4908 C   0  0  1  0  0  0  0  0  0  0  0  0
  -23.9586  -15.7244   19.0514 C   0  0  1  0  0  0  0  0  0  0  0  0
  -29.7648  -23.4959   19.8750 C   0  0  2  0  0  0  0  0  0  0  0  0
  -30.7813  -17.8547   22.7566 C   0  0  0  0  0  0  0  0  0  0  0  0
  -31.8838  -15.4858   18.4790 C   0  0  0  0  0  0  0  0  0  0  0  0
  -32.0197  -11.0484   18.9039 C   0  0  0  0  0  0  0  0  0  0  0  0
  -20.9116   -9.7563   22.9373 C   0  0  0  0  0  0  0  0  0  0  0  0
  -23.8227  -15.6604   23.6707 C   0  0  0  0  0  0  0  0  0  0  0  0
  -23.0189  -13.5227   24.6966 C   0  0  0  0  0  0  0  0  0  0  0  0
  -21.3961  -15.0605   23.5901 C   0  0  0  0  0  0  0  0  0  0  0  0
  -22.0494   -9.7598   19.3067 C   0  0  0  0  0  0  0  0  0  0  0  0
  -30.0158  -12.4194   19.7632 C   0  0  0  0  0  0  0  0  0  1  0  0
  -29.4221  -19.4454   19.4635 C   0  0  0  0  0  0  0  0  0  0  0  0
  -29.7433  -17.9614   19.4804 C   0  0  0  0  0  0  0  0  0  0  0  0
  -23.0056  -13.7257   22.1688 C   0  0  1  0  0  0  0  0  0  0  0  0
  -21.3092  -10.3822   21.6096 C   0  0  2  0  0  0  0  0  0  0  0  0
  -22.8297  -14.4920   23.5102 C   0  0  0  0  0  0  0  0  0  0  0  0
  -28.2220  -25.4196   19.9176 N   0  0  0  0  0  0  0  0  0  0  0  0
  -32.4046  -13.1346   20.0353 N   0  0  0  0  0  0  0  0  0  0  0  0
  -28.7069  -24.3426   20.5585 N   0  0  0  0  0  0  0  0  0  0  0  0
  -23.9664  -14.7189   20.1159 N   0  0  0  0  0  0  0  0  0  0  0  0
  -30.1891  -21.5458   18.4113 N   0  0  0  0  0  0  0  0  0  0  0  0
  -28.5346  -23.1061   22.5715 N   0  0  0  0  0  0  0  0  0  0  0  0
  -25.5616  -26.4563   23.1489 N   0  0  0  0  0  0  0  0  0  0  0  0
  -24.1819  -18.1338   19.1048 N   0  0  0  0  0  0  0  0  0  0  0  0
  -22.0606  -12.6308   21.9777 N   0  0  0  0  0  0  0  0  0  0  0  0
  -21.6608   -9.2882   20.6607 N   0  3  0  0  0  0  0  0  0  0  0  0
  -26.4906  -24.6021   24.1274 O   0  0  0  0  0  0  0  0  0  0  0  0
  -25.5945  -16.7907   20.3789 O   0  0  0  0  0  0  0  0  0  0  0  0
  -31.2279  -19.5231   17.9322 O   0  0  0  0  0  0  0  0  0  0  0  0
  -21.7910  -15.2227   20.7867 O   0  0  0  0  0  0  0  0  0  0  0  0
  -23.6515  -10.9612   21.7352 O   0  0  0  0  0  0  0  0  0  0  0  0
  -24.4283  -30.5176   19.5079 O   0  0  0  0  0  0  0  0  0  0  0  0
  -29.4404  -12.4088   18.4574 O   0  0  0  0  0  0  0  0  0  1  0  0
  -31.0816  -17.7720   19.9332 O   0  0  0  0  0  0  0  0  0  0  0  0
  -19.0153  -30.5081   20.5580 F   0  0  0  0  0  0  0  0  0  0  0  0
  -23.4835  -30.1619   22.0815 F   0  0  0  0  0  0  0  0  0  0  0  0
  1  2  1  0  0  0  0
  1  5  2  0  0  0  0
  2  6  2  0  0  0  0
  3 10  2  0  0  0  0
  3 17  1  0  0  0  0
  4 11  1  0  0  0  0
  4 17  2  0  0  0  0
  5 19  1  0  0  0  0
  6 21  1  0  0  0  0
  7 12  2  0  0  0  0
  7 20  1  0  0  0  0
  8  9  2  0  0  0  0
  8 23  1  0  0  0  0
  9 25  1  0  0  0  0
 10 26  1  0  0  0  0
 11 26  2  0  0  0  0
 12 27  1  0  0  0  0
 13 14  2  0  0  0  0
 13 28  1  0  0  0  0
 14 30  1  0  0  0  0
 15 22  1  0  0  0  0
 15 27  2  0  0  0  0
 16 30  2  0  0  0  0
 16 31  1  0  0  0  0
 17 32  1  0  0  0  0
 18 32  1  0  0  0  0
 18 33  2  0  0  0  0
 18 34  1  0  0  0  0
 19 21  2  0  0  0  0
 19 40  1  0  0  0  0
 20 22  2  0  0  0  0
 20 41  1  0  0  0  0
 21 49  1  0  0  0  0
 22 42  1  0  0  0  0
 23 29  2  0  0  0  0
 23 52  1  0  0  0  0
 24 25  2  0  0  0  0
 24 29  1  0  0  0  0
 24 53  1  0  0  0  0
 25 67  1  0  0  0  0
 26 81  1  0  0  0  0
 27 82  1  0  0  0  0
 28 31  2  0  0  0  0
 28 81  1  0  0  0  0
 29 83  1  0  0  0  0
 30 84  1  0  0  0  0
 31 85  1  0  0  0  0
 32 66  2  0  0  0  0
 33 68  1  0  0  0  0
 33 71  1  0  0  0  0
 34 72  1  0  0  0  0
 34 76  2  0  0  0  0
 35 50  1  0  0  0  0
 35 73  1  0  0  0  0
 35 77  2  0  0  0  0
 36 54  1  0  0  0  0
 36 60  1  0  0  0  0
 36 67  2  0  0  0  0
 37 61  1  0  0  0  0
 37 70  1  0  0  0  0
 37 78  2  0  0  0  0
 38 63  1  0  0  0  0
 38 69  1  0  0  0  0
 38 79  2  0  0  0  0
 39 64  1  0  0  0  0
 39 74  1  0  0  0  0
 39 80  2  0  0  0  0
 40 43  1  0  0  0  0
 41 50  1  0  0  0  0
 42 69  1  0  0  0  0
 43 45  1  0  0  0  0
 44 46  1  0  0  0  0
 44 47  1  0  0  0  0
 45 49  1  0  0  0  0
 46 51  1  0  0  0  0
 47 70  1  0  0  0  0
 48 51  1  0  0  0  0
 48 70  1  0  0  0  0
 49 73  1  0  0  0  0
 50 69  1  0  0  0  0
 51 68  1  0  0  0  0
 55 64  1  0  0  0  0
 56 65  1  0  0  0  0
 57 65  1  0  0  0  0
 58 65  1  0  0  0  0
 59 75  1  0  0  0  0
 60 82  1  0  0  0  0
 61 62  1  0  0  0  0
 62 83  1  0  0  0  0
 63 65  1  0  0  0  0
 63 74  1  0  0  0  0
 64 75  1  0  0  0  0
 66 68  1  0  0  0  0
M  CHG  1  75   1
M  ISO  4  37 100  60 101  61 100  82 101
M  END
> <Batch ID>
0119

> <Smiles>
CNC(C)C(=O)NC(C(=O)N1Cc2cc([101O:1][101CH2:1]C(C)=Nc3ccc(C)c(OC[100CH2:0][100C:0](=O)N4CCCC(n5nc(-c6ccc(Oc7ccc(F)cc7F)cc6)c(C(N)=O)c5N)C4)c3C)ccc2CC1C(=O)NC1CCCc2ccccc21)C(C)(C)C

> <Shape>
0.242

> <Color>
0.063

> <Negative vol penalty>
0.000

$$$$

  -OEChem-04052301513D

 83 91  0     1  0  0  0  0  0999 V2000
  -27.4003  -31.9496   23.1988 C   0  0  0  0  0  0  0  0  0  0  0  0
  -27.2882  -30.6963   23.7922 C   0  0  0  0  0  0  0  0  0  0  0  0
  -30.4423  -19.5512   18.4927 C   0  0  0  0  0  0  0  0  0  0  0  0
  -29.3595  -19.7930   20.6390 C   0  0  0  0  0  0  0  0  0  0  0  0
  -26.6024  -32.2745   22.1026 C   0  0  0  0  0  0  0  0  0  0  0  0
  -26.3772  -29.7675   23.2902 C   0  0  0  0  0  0  0  0  0  0  0  0
  -25.5122  -22.7114   22.4072 C   0  0  0  0  0  0  0  0  0  0  0  0
  -30.0988  -20.8643   18.1715 C   0  0  0  0  0  0  0  0  0  0  0  0
  -29.0161  -21.1062   20.3177 C   0  0  0  0  0  0  0  0  0  0  0  0
  -24.5941  -21.6970   22.6751 C   0  0  0  0  0  0  0  0  0  0  0  0
  -31.2116  -23.9761   18.8865 C   0  0  0  0  0  0  0  0  0  0  0  0
  -32.1945  -24.7808   18.3103 C   0  0  0  0  0  0  0  0  0  0  0  0
  -23.7009  -14.0554   22.8470 C   0  0  0  0  0  0  0  0  0  0  0  0
  -21.4134  -13.3525   22.5149 C   0  0  0  0  0  0  0  0  0  0  0  0
  -23.3241  -22.3403   20.7277 C   0  0  0  0  0  0  0  0  0  0  0  0
  -23.1662  -11.7026   22.7221 C   0  0  0  0  0  0  0  0  0  0  0  0
  -30.8060  -25.0769   16.3554 C   0  0  0  0  0  0  0  0  0  0  0  0
  -30.0726  -19.0155   19.7265 C   0  0  0  0  0  0  0  0  0  0  0  0
  -22.3542  -14.3710   22.6672 C   0  0  0  0  0  0  0  0  0  0  0  0
  -31.6000  -17.2193   20.7004 C   0  0  0  0  0  0  0  0  0  0  0  0
  -25.6881  -31.3458   21.5809 C   0  0  0  0  0  0  0  0  0  0  0  0
  -25.3369  -23.5563   21.3018 C   0  0  0  0  0  0  0  0  0  0  0  0
  -25.5654  -30.0808   22.1868 C   0  0  0  0  0  0  0  0  0  0  0  0
  -24.2428  -23.3630   20.4465 C   0  0  0  0  0  0  0  0  0  0  0  0
  -24.1069  -12.7211   22.8744 C   0  0  0  0  0  0  0  0  0  0  0  0
  -29.3858  -21.6419   19.0839 C   0  0  0  0  0  0  0  0  0  0  0  0
  -23.4983  -21.5131   21.8370 C   0  0  0  0  0  0  0  0  0  0  0  0
  -30.0259  -23.7218   18.1971 C   0  0  0  0  0  0  0  0  0  0  0  0
  -31.9917  -25.3312   17.0448 C   0  0  0  0  0  0  0  0  0  0  0  0
  -21.8194  -12.0182   22.5423 C   0  0  0  0  0  0  0  0  0  0  0  0
  -29.8231  -24.2722   16.9316 C   0  0  0  0  0  0  0  0  0  0  0  0
  -30.4266  -17.6588   20.0587 C   0  0  0  0  0  0  0  0  0  0  0  0
  -31.4562  -15.8558   20.7825 C   0  0  0  0  0  0  0  0  0  0  0  0
  -21.9250  -15.7800   22.6372 C   0  0  0  0  0  0  0  0  0  0  0  0
  -22.7305  -16.8252   22.3907 C   0  0  0  0  0  0  0  0  0  0  0  0
  -22.2550  -18.1904   22.3649 C   0  0  0  0  0  0  0  0  0  0  0  0
  -23.0523  -19.2346   22.1201 C   0  0  0  0  0  0  0  0  0  1  0  0
  -32.7197  -17.9758   21.1795 C   0  0  0  0  0  0  0  0  0  0  0  0
  -24.8866  -26.6789   20.9143 C   0  0  0  0  0  0  0  0  0  0  0  0
  -25.1669  -25.9339   17.7697 C   0  0  0  0  0  0  0  0  0  0  0  0
  -24.9169  -23.5728   15.3182 C   0  0  0  0  0  0  0  0  0  0  0  0
  -26.6712  -12.2574   20.8567 C   0  0  0  0  0  0  0  0  0  0  0  0
  -24.8135  -31.7594   20.4240 C   0  0  0  0  0  0  0  0  0  0  0  0
  -26.3507  -24.6288   21.0114 C   0  0  0  0  0  0  0  0  0  0  0  0
  -24.0202  -24.2301   19.2352 C   0  0  0  0  0  0  0  0  0  0  0  0
  -24.1394  -30.5848   19.7196 C   0  0  0  0  0  0  0  0  0  0  0  0
  -29.3813  -12.1682   18.5494 C   0  0  0  0  0  0  0  0  0  0  0  0
  -23.5284  -29.6297   20.7400 C   0  0  0  0  0  0  0  0  0  0  0  0
  -30.0624  -13.5256   18.7324 C   0  0  0  0  0  0  0  0  0  0  0  0
  -27.8641  -12.2751   18.6858 C   0  0  0  0  0  0  0  0  0  0  0  0
  -28.0788  -14.2728   20.1129 C   0  0  0  0  0  0  0  0  0  0  0  0
  -24.6065  -29.0374   21.6558 C   0  0  1  0  0  0  0  0  0  0  0  0
  -25.7952  -25.7585   20.1496 C   0  0  1  0  0  0  0  0  0  0  0  0
  -29.6138  -14.2062   20.0397 C   0  0  2  0  0  0  0  0  0  0  0  0
  -25.1720  -23.2716   12.8400 C   0  0  0  0  0  0  0  0  0  0  0  0
  -22.4989  -27.3462   17.3258 C   0  0  0  0  0  0  0  0  0  0  0  0
  -22.3491  -26.2132   15.0982 C   0  0  0  0  0  0  0  0  0  0  0  0
  -24.2210  -27.7935   15.5684 C   0  0  0  0  0  0  0  0  0  0  0  0
  -27.0645  -21.5664   15.6661 C   0  0  0  0  0  0  0  0  0  0  0  0
  -25.5468  -12.3830   23.0656 C   0  0  0  0  0  0  0  0  0  0  0  0
  -24.2078  -25.5222   16.6789 C   0  0  1  0  0  0  0  0  0  0  0  0
  -25.8598  -23.1848   14.1935 C   0  0  2  0  0  0  0  0  0  0  0  0
  -23.3221  -26.7035   16.1917 C   0  0  0  0  0  0  0  0  0  0  0  0
  -29.5986  -16.6559   19.7546 N   0  0  0  0  0  0  0  0  0  0  0  0
  -30.2525  -15.5726   20.2071 N   0  0  0  0  0  0  0  0  0  0  0  0
  -25.0357  -25.2691   18.9972 N   0  0  0  0  0  0  0  0  0  0  0  0
  -27.5053  -12.9280   19.9471 N   0  0  0  0  0  0  0  0  0  0  0  0
  -32.2433  -14.8835   21.2900 N   0  0  0  0  0  0  0  0  0  0  0  0
  -32.7054  -19.3676   21.0147 N   0  0  0  0  0  0  0  0  0  0  0  0
  -25.3292  -27.9867   20.9717 N   0  0  0  0  0  0  0  0  0  0  0  0
  -25.0190  -24.9118   15.6311 N   0  0  0  0  0  0  0  0  0  0  0  0
  -26.3856  -12.9444   22.0302 N   0  0  0  0  0  0  0  0  0  0  0  0
  -26.3471  -21.7894   14.3844 N   0  3  0  0  0  0  0  0  0  0  0  0
  -33.7111  -17.4321   21.7226 O   0  0  0  0  0  0  0  0  0  0  0  0
  -23.8591  -26.2357   21.4140 O   0  0  0  0  0  0  0  0  0  0  0  0
  -26.0062  -26.8078   17.5388 O   0  0  0  0  0  0  0  0  0  0  0  0
  -24.1624  -22.7694   15.8620 O   0  0  0  0  0  0  0  0  0  0  0  0
  -26.2191  -11.1276   20.6416 O   0  0  0  0  0  0  0  0  0  0  0  0
  -29.0507  -22.9234   18.7709 O   0  0  0  0  0  0  0  0  0  0  0  0
  -22.6003  -20.5241   22.0965 O   0  0  0  0  0  0  0  0  0  1  0  0
  -32.9350  -26.1052   16.4922 F   0  0  0  0  0  0  0  0  0  0  0  0
  -20.9162  -11.0401   22.3943 F   0  0  0  0  0  0  0  0  0  0  0  0
  -28.6856  -24.0324   16.2650 F   0  0  0  0  0  0  0  0  0  0  0  0
  1  2  1  0  0  0  0
  1  5  2  0  0  0  0
  2  6  2  0  0  0  0
  3  8  2  0  0  0  0
  3 18  1  0  0  0  0
  4  9  1  0  0  0  0
  4 18  2  0  0  0  0
  5 21  1  0  0  0  0
  6 23  1  0  0  0  0
  7 10  2  0  0  0  0
  7 22  1  0  0  0  0
  8 26  1  0  0  0  0
  9 26  2  0  0  0  0
 10 27  1  0  0  0  0
 11 12  2  0  0  0  0
 11 28  1  0  0  0  0
 12 29  1  0  0  0  0
 13 19  2  0  0  0  0
 13 25  1  0  0  0  0
 14 19  1  0  0  0  0
 14 30  2  0  0  0  0
 15 24  1  0  0  0  0
 15 27  2  0  0  0  0
 16 25  2  0  0  0  0
 16 30  1  0  0  0  0
 17 29  2  0  0  0  0
 17 31  1  0  0  0  0
 18 32  1  0  0  0  0
 19 34  1  0  0  0  0
 20 32  1  0  0  0  0
 20 33  2  0  0  0  0
 20 38  1  0  0  0  0
 21 23  2  0  0  0  0
 21 43  1  0  0  0  0
 22 24  2  0  0  0  0
 22 44  1  0  0  0  0
 23 52  1  0  0  0  0
 24 45  1  0  0  0  0
 25 60  1  0  0  0  0
 26 79  1  0  0  0  0
 27 80  1  0  0  0  0
 28 31  2  0  0  0  0
 28 79  1  0  0  0  0
 29 81  1  0  0  0  0
 30 82  1  0  0  0  0
 31 83  1  0  0  0  0
 32 64  2  0  0  0  0
 33 65  1  0  0  0  0
 33 68  1  0  0  0  0
 34 35  2  0  0  0  0
 35 36  1  0  0  0  0
 36 37  2  0  0  0  0
 37 80  1  0  0  0  0
 38 69  1  0  0  0  0
 38 74  2  0  0  0  0
 39 53  1  0  0  0  0
 39 70  1  0  0  0  0
 39 75  2  0  0  0  0
 40 61  1  0  0  0  0
 40 66  1  0  0  0  0
 40 76  2  0  0  0  0
 41 62  1  0  0  0  0
 41 71  1  0  0  0  0
 41 77  2  0  0  0  0
 42 67  1  0  0  0  0
 42 72  1  0  0  0  0
 42 78  2  0  0  0  0
 43 46  1  0  0  0  0
 44 53  1  0  0  0  0
 45 66  1  0  0  0  0
 46 48  1  0  0  0  0
 47 49  1  0  0  0  0
 47 50  1  0  0  0  0
 48 52  1  0  0  0  0
 49 54  1  0  0  0  0
 50 67  1  0  0  0  0
 51 54  1  0  0  0  0
 51 67  1  0  0  0  0
 52 70  1  0  0  0  0
 53 66  1  0  0  0  0
 54 65  1  0  0  0  0
 55 62  1  0  0  0  0
 56 63  1  0  0  0  0
 57 63  1  0  0  0  0
 58 63  1  0  0  0  0
 59 73  1  0  0  0  0
 60 72  1  0  0  0  0
 61 63  1  0  0  0  0
 61 71  1  0  0  0  0
 62 73  1  0  0  0  0
 64 65  1  0  0  0  0
M  CHG  1  73   1
M  ISO  4  37 101  42 100  72 100  80 101
M  END
> <Batch ID>
0119

> <Smiles>
CNC(C)C(=O)NC(C(=O)N1Cc2cc([101O:1][101CH:1]=CC=Cc3cc(F)cc(C[100NH:0][100C:0](=O)N4CCCC(n5nc(-c6ccc(Oc7ccc(F)cc7F)cc6)c(C(N)=O)c5N)C4)c3)ccc2CC1C(=O)NC1CCCc2ccccc21)C(C)(C)C

> <Shape>
0.209

> <Color>
0.072

> <Negative vol penalty>
0.000

$$$$

  -OEChem-04052301513D

 83 91  0     1  0  0  0  0  0999 V2000
  -25.1445  -25.7224   31.8356 C   0  0  0  0  0  0  0  0  0  0  0  0
  -25.8766  -24.6071   32.2298 C   0  0  0  0  0  0  0  0  0  0  0  0
  -23.1899   -9.8193   19.9320 C   0  0  0  0  0  0  0  0  0  0  0  0
  -23.5701   -9.9992   22.3111 C   0  0  0  0  0  0  0  0  0  0  0  0
  -24.4764  -25.7194   30.6119 C   0  0  0  0  0  0  0  0  0  0  0  0
  -25.9403  -23.4876   31.4008 C   0  0  0  0  0  0  0  0  0  0  0  0
  -30.7046  -19.7082   30.6776 C   0  0  0  0  0  0  0  0  0  0  0  0
  -22.4240   -8.6724   20.1410 C   0  0  0  0  0  0  0  0  0  0  0  0
  -22.8041   -8.8523   22.5202 C   0  0  0  0  0  0  0  0  0  0  0  0
  -31.0057  -18.4628   31.2271 C   0  0  0  0  0  0  0  0  0  0  0  0
  -23.2057   -5.5058   22.2550 C   0  0  0  0  0  0  0  0  0  0  0  0
  -23.7049   -4.5444   23.1336 C   0  0  0  0  0  0  0  0  0  0  0  0
  -32.7718  -11.8457   26.3584 C   0  0  0  0  0  0  0  0  0  0  0  0
  -30.7001  -12.5149   25.3111 C   0  0  0  0  0  0  0  0  0  0  0  0
  -30.0876  -17.3857   29.2736 C   0  0  0  0  0  0  0  0  0  0  0  0
  -32.6604  -12.1070   23.9592 C   0  0  0  0  0  0  0  0  0  0  0  0
  -21.7494   -4.8037   24.5285 C   0  0  0  0  0  0  0  0  0  0  0  0
  -23.7630  -10.4827   21.0170 C   0  0  0  0  0  0  0  0  0  0  0  0
  -31.4278  -12.2047   26.4599 C   0  0  0  0  0  0  0  0  0  0  0  0
  -24.1010  -12.9994   20.7735 C   0  0  0  0  0  0  0  0  0  0  0  0
  -24.5398  -24.6030   29.7632 C   0  0  0  0  0  0  0  0  0  0  0  0
  -30.0818  -19.8017   29.4247 C   0  0  0  0  0  0  0  0  0  0  0  0
  -25.2713  -23.4692   30.1652 C   0  0  0  0  0  0  0  0  0  0  0  0
  -29.7820  -18.6336   28.7093 C   0  0  0  0  0  0  0  0  0  0  0  0
  -33.3882  -11.7969   25.1080 C   0  0  0  0  0  0  0  0  0  0  0  0
  -31.3164  -12.4660   24.0607 C   0  0  0  0  0  0  0  0  0  0  0  0
  -22.2311   -8.1890   21.4351 C   0  0  0  0  0  0  0  0  0  0  0  0
  -30.6946  -17.3012   30.5263 C   0  0  0  0  0  0  0  0  0  0  0  0
  -21.9783   -6.1163   22.5132 C   0  0  0  0  0  0  0  0  0  0  0  0
  -22.9768   -4.1933   24.2704 C   0  0  0  0  0  0  0  0  0  0  0  0
  -21.2502   -5.7651   23.6499 C   0  0  0  0  0  0  0  0  0  0  0  0
  -24.5547  -11.6671   20.8016 C   0  0  0  0  0  0  0  0  0  0  0  0
  -25.2318  -13.7424   20.5375 C   0  0  0  0  0  0  0  0  0  0  0  0
  -30.7769  -12.2570   27.7797 C   0  0  0  0  0  0  0  0  0  0  0  0
  -31.4165  -12.3593   28.9553 C   0  0  0  0  0  0  0  0  0  0  0  0
  -22.7758  -13.5190   20.9455 C   0  0  0  0  0  0  0  0  0  0  0  0
  -27.3158  -20.9650   28.3759 C   0  0  0  0  0  0  0  0  0  0  0  0
  -28.5688  -20.2612   25.4678 C   0  0  0  0  0  0  0  0  0  0  0  0
  -30.7644  -18.4022   23.6320 C   0  0  0  0  0  0  0  0  0  0  0  0
  -31.0373  -12.7827   21.5771 C   0  0  0  0  0  0  0  0  0  0  0  0
  -23.7622  -24.6283   28.4711 C   0  0  0  0  0  0  0  0  0  0  0  0
  -29.7878  -21.1534   28.8340 C   0  0  0  0  0  0  0  0  0  0  0  0
  -29.1316  -18.6802   27.3516 C   0  0  0  0  0  0  0  0  0  0  0  0
  -24.1875  -23.5453   27.4829 C   0  0  0  0  0  0  0  0  0  0  0  0
  -29.5222  -13.4647   18.4280 C   0  0  0  0  0  0  0  0  0  0  0  0
  -24.3116  -22.1983   28.1879 C   0  0  0  0  0  0  0  0  0  0  0  0
  -28.0344  -13.2083   18.6784 C   0  0  0  0  0  0  0  0  0  0  0  0
  -30.4042  -12.4797   19.1933 C   0  0  0  0  0  0  0  0  0  0  0  0
  -28.6457  -12.1375   20.8845 C   0  0  0  0  0  0  0  0  0  0  0  0
  -25.3845  -22.2452   29.2825 C   0  0  1  0  0  0  0  0  0  0  0  0
  -28.6863  -21.1177   27.7791 C   0  0  1  0  0  0  0  0  0  0  0  0
  -27.7191  -13.1459   20.1858 C   0  0  2  0  0  0  0  0  0  0  0  0
  -34.8254  -11.4136   24.9989 C   0  0  0  0  0  0  0  0  0  0  0  0
  -31.5339  -18.0237   21.2736 C   0  0  0  0  0  0  0  0  0  0  0  0
  -26.0268  -18.6735   24.8958 C   0  0  0  0  0  0  0  0  0  0  0  0
  -27.2265  -17.5709   22.9949 C   0  0  0  0  0  0  0  0  0  0  0  0
  -26.8594  -20.0381   22.9725 C   0  0  0  0  0  0  0  0  0  0  0  0
  -33.5312  -19.2304   24.2787 C   0  0  0  0  0  0  0  0  0  0  0  0
  -30.7085  -12.4138   30.2794 C   0  0  0  0  0  0  0  0  0  0  0  0
  -31.0656  -13.6857   31.0463 C   0  0  0  0  0  0  0  0  0  0  0  0
  -30.6404  -14.9356   30.2881 C   0  0  0  0  0  0  0  0  0  1  0  0
  -28.5590  -19.0524   24.5636 C   0  0  1  0  0  0  0  0  0  0  0  0
  -31.7687  -18.7945   22.5633 C   0  0  2  0  0  0  0  0  0  0  0  0
  -27.1784  -18.8324   23.8831 C   0  0  0  0  0  0  0  0  0  0  0  0
  -25.8711  -11.5663   20.5994 N   0  0  0  0  0  0  0  0  0  0  0  0
  -26.2543  -12.8448   20.4419 N   0  0  0  0  0  0  0  0  0  0  0  0
  -28.8582  -20.0253   26.8192 N   0  0  0  0  0  0  0  0  0  0  0  0
  -30.0515  -12.4778   20.6148 N   0  0  0  0  0  0  0  0  0  0  0  0
  -25.4414  -15.0693   20.4044 N   0  0  0  0  0  0  0  0  0  0  0  0
  -21.7295  -12.6165   21.1802 N   0  0  0  0  0  0  0  0  0  0  0  0
  -30.5776  -12.7821   22.8936 N   0  0  0  0  0  0  0  0  0  0  0  0
  -26.7061  -22.1623   28.6985 N   0  0  0  0  0  0  0  0  0  0  0  0
  -29.6641  -19.2332   23.6284 N   0  0  0  0  0  0  0  0  0  0  0  0
  -33.1566  -18.5176   23.0303 N   0  3  0  0  0  0  0  0  0  0  0  0
  -22.5243  -14.7460   20.8763 O   0  0  0  0  0  0  0  0  0  0  0  0
  -26.8457  -19.8440   28.5307 O   0  0  0  0  0  0  0  0  0  0  0  0
  -28.3356  -21.3748   24.9911 O   0  0  0  0  0  0  0  0  0  0  0  0
  -30.9369  -17.4513   24.3913 O   0  0  0  0  0  0  0  0  0  0  0  0
  -32.1971  -13.0531   21.2549 O   0  0  0  0  0  0  0  0  0  0  0  0
  -21.4836   -7.0700   21.6395 O   0  0  0  0  0  0  0  0  0  0  0  0
  -30.9868  -16.0842   31.0606 O   0  0  0  0  0  0  0  0  0  1  0  0
  -23.4557   -3.2689   25.1132 F   0  0  0  0  0  0  0  0  0  0  0  0
  -20.0699   -6.3473   23.9027 F   0  0  0  0  0  0  0  0  0  0  0  0
  1  2  1  0  0  0  0
  1  5  2  0  0  0  0
  2  6  2  0  0  0  0
  3  8  2  0  0  0  0
  3 18  1  0  0  0  0
  4  9  1  0  0  0  0
  4 18  2  0  0  0  0
  5 21  1  0  0  0  0
  6 23  1  0  0  0  0
  7 10  2  0  0  0  0
  7 22  1  0  0  0  0
  8 27  1  0  0  0  0
  9 27  2  0  0  0  0
 10 28  1  0  0  0  0
 11 12  2  0  0  0  0
 11 29  1  0  0  0  0
 12 30  1  0  0  0  0
 13 19  1  0  0  0  0
 13 25  2  0  0  0  0
 14 19  2  0  0  0  0
 14 26  1  0  0  0  0
 15 24  1  0  0  0  0
 15 28  2  0  0  0  0
 16 25  1  0  0  0  0
 16 26  2  0  0  0  0
 17 30  2  0  0  0  0
 17 31  1  0  0  0  0
 18 32  1  0  0  0  0
 19 34  1  0  0  0  0
 20 32  1  0  0  0  0
 20 33  2  0  0  0  0
 20 36  1  0  0  0  0
 21 23  2  0  0  0  0
 21 41  1  0  0  0  0
 22 24  2  0  0  0  0
 22 42  1  0  0  0  0
 23 50  1  0  0  0  0
 24 43  1  0  0  0  0
 25 53  1  0  0  0  0
 26 71  1  0  0  0  0
 27 80  1  0  0  0  0
 28 81  1  0  0  0  0
 29 31  2  0  0  0  0
 29 80  1  0  0  0  0
 30 82  1  0  0  0  0
 31 83  1  0  0  0  0
 32 65  2  0  0  0  0
 33 66  1  0  0  0  0
 33 69  1  0  0  0  0
 34 35  2  0  0  0  0
 35 59  1  0  0  0  0
 36 70  1  0  0  0  0
 36 75  2  0  0  0  0
 37 51  1  0  0  0  0
 37 72  1  0  0  0  0
 37 76  2  0  0  0  0
 38 62  1  0  0  0  0
 38 67  1  0  0  0  0
 38 77  2  0  0  0  0
 39 63  1  0  0  0  0
 39 73  1  0  0  0  0
 39 78  2  0  0  0  0
 40 68  1  0  0  0  0
 40 71  1  0  0  0  0
 40 79  2  0  0  0  0
 41 44  1  0  0  0  0
 42 51  1  0  0  0  0
 43 67  1  0  0  0  0
 44 46  1  0  0  0  0
 45 47  1  0  0  0  0
 45 48  1  0  0  0  0
 46 50  1  0  0  0  0
 47 52  1  0  0  0  0
 48 68  1  0  0  0  0
 49 52  1  0  0  0  0
 49 68  1  0  0  0  0
 50 72  1  0  0  0  0
 51 67  1  0  0  0  0
 52 66  1  0  0  0  0
 54 63  1  0  0  0  0
 55 64  1  0  0  0  0
 56 64  1  0  0  0  0
 57 64  1  0  0  0  0
 58 74  1  0  0  0  0
 59 60  1  0  0  0  0
 60 61  1  0  0  0  0
 61 81  1  0  0  0  0
 62 64  1  0  0  0  0
 62 73  1  0  0  0  0
 63 74  1  0  0  0  0
 65 66  1  0  0  0  0
M  CHG  1  74   1
M  ISO  4  40 100  61 101  71 100  81 101
M  END
> <Batch ID>
0119

> <Smiles>
CNC(C)C(=O)NC(C(=O)N1Cc2cc([101O:1][101CH2:1]CCC=Cc3cc(C)cc([100NH:0][100C:0](=O)N4CCCC(n5nc(-c6ccc(Oc7ccc(F)cc7F)cc6)c(C(N)=O)c5N)C4)c3)ccc2CC1C(=O)NC1CCCc2ccccc21)C(C)(C)C

> <Shape>
0.149

> <Color>
0.190

> <Negative vol penalty>
0.000

$$$$

  -OEChem-04052301513D

 83 91  0     1  0  0  0  0  0999 V2000
  -28.9093  -25.3764   16.2545 C   0  0  0  0  0  0  0  0  0  0  0  0
  -27.7004  -25.4024   16.9425 C   0  0  0  0  0  0  0  0  0  0  0  0
  -26.0659  -13.0532   17.7367 C   0  0  0  0  0  0  0  0  0  0  0  0
  -27.3969  -12.5332   19.6848 C   0  0  0  0  0  0  0  0  0  0  0  0
  -19.5808  -24.9655   23.9694 C   0  0  0  0  0  0  0  0  0  0  0  0
  -30.0433  -25.9601   16.8176 C   0  0  0  0  0  0  0  0  0  0  0  0
  -27.6252  -26.0112   18.1948 C   0  0  0  0  0  0  0  0  0  0  0  0
  -23.5347  -28.9568   18.6804 C   0  0  0  0  0  0  0  0  0  0  0  0
  -19.7474  -23.9068   24.8620 C   0  0  0  0  0  0  0  0  0  0  0  0
  -27.0089  -12.4236   16.9243 C   0  0  0  0  0  0  0  0  0  0  0  0
  -28.3399  -11.9035   18.8724 C   0  0  0  0  0  0  0  0  0  0  0  0
  -22.3178  -28.3215   18.9242 C   0  0  0  0  0  0  0  0  0  0  0  0
  -30.8747  -12.8162   16.8296 C   0  0  0  0  0  0  0  0  0  0  0  0
  -32.2212  -13.0933   17.0652 C   0  0  0  0  0  0  0  0  0  0  0  0
  -19.9867  -23.4681   22.1174 C   0  0  0  0  0  0  0  0  0  0  0  0
  -22.5195  -28.8483   21.2696 C   0  0  0  0  0  0  0  0  0  0  0  0
  -32.6248  -10.7533   17.5107 C   0  0  0  0  0  0  0  0  0  0  0  0
  -26.2600  -13.1081   19.1170 C   0  0  0  0  0  0  0  0  0  0  0  0
  -19.7003  -24.7462   22.5971 C   0  0  0  0  0  0  0  0  0  0  0  0
  -20.1534  -22.4093   23.0100 C   0  0  0  0  0  0  0  0  0  0  0  0
  -24.1627  -13.1713   20.5679 C   0  0  0  0  0  0  0  0  0  0  0  0
  -29.9797  -26.5848   18.0732 C   0  0  0  0  0  0  0  0  0  0  0  0
  -24.2596  -29.5341   19.7328 C   0  0  0  0  0  0  0  0  0  0  0  0
  -28.7598  -26.6026   18.7759 C   0  0  0  0  0  0  0  0  0  0  0  0
  -23.7441  -29.4926   21.0361 C   0  0  0  0  0  0  0  0  0  0  0  0
  -20.0338  -22.6287   24.3824 C   0  0  0  0  0  0  0  0  0  0  0  0
  -28.1458  -11.8487   17.4922 C   0  0  0  0  0  0  0  0  0  0  0  0
  -21.8115  -28.2646   20.2194 C   0  0  0  0  0  0  0  0  0  0  0  0
  -30.4031  -11.5076   16.9347 C   0  0  0  0  0  0  0  0  0  0  0  0
  -33.0963  -12.0619   17.4057 C   0  0  0  0  0  0  0  0  0  0  0  0
  -31.2782  -10.4762   17.2752 C   0  0  0  0  0  0  0  0  0  0  0  0
  -25.2865  -13.7588   19.9567 C   0  0  0  0  0  0  0  0  0  0  0  0
  -23.5658  -14.2020   21.2519 C   0  0  0  0  0  0  0  0  0  0  0  0
  -17.0665  -25.6273   21.3100 C   0  0  0  0  0  0  0  0  0  0  0  0
  -20.4522  -21.0857   22.4790 C   0  0  0  0  0  0  0  0  0  0  0  0
  -18.2351  -26.2368   21.0736 C   0  0  0  0  0  0  0  0  0  0  0  0
  -21.5417  -20.7638   21.7523 C   0  0  0  0  0  0  0  0  0  0  0  0
  -20.6167  -26.5802   21.3174 C   0  0  0  0  0  0  0  0  0  1  0  0
  -19.5235  -25.8697   21.6518 C   0  0  0  0  0  0  0  0  0  0  0  0
  -23.6998  -11.8151   20.5216 C   0  0  0  0  0  0  0  0  0  0  0  0
  -21.7081  -19.3704   21.2925 C   0  0  0  0  0  0  0  0  0  0  0  0
  -27.1239  -29.0405   21.0195 C   0  0  0  0  0  0  0  0  0  0  0  0
  -26.3731  -31.6823   22.7455 C   0  0  0  0  0  0  0  0  0  0  0  0
  -23.9484  -33.7178   24.0201 C   0  0  0  0  0  0  0  0  0  0  0  0
  -31.2431  -27.1606   18.6623 C   0  0  0  0  0  0  0  0  0  0  0  0
  -25.5576  -30.2392   19.4492 C   0  0  0  0  0  0  0  0  0  0  0  0
  -24.4736  -30.1147   22.1977 C   0  0  0  0  0  0  0  0  0  0  0  0
  -30.9922  -28.1144   19.8274 C   0  0  0  0  0  0  0  0  0  0  0  0
  -25.1958  -18.8587   22.2953 C   0  0  0  0  0  0  0  0  0  0  0  0
  -29.9872  -27.5116   20.8039 C   0  0  0  0  0  0  0  0  0  0  0  0
  -25.4459  -17.4449   21.7773 C   0  0  0  0  0  0  0  0  0  0  0  0
  -24.2447  -19.6396   21.3897 C   0  0  0  0  0  0  0  0  0  0  0  0
  -23.2004  -17.5270   20.6235 C   0  0  0  0  0  0  0  0  0  0  0  0
  -28.6324  -27.2752   20.1255 C   0  0  1  0  0  0  0  0  0  0  0  0
  -26.4608  -30.3438   20.6742 C   0  0  1  0  0  0  0  0  0  0  0  0
  -24.1177  -16.7075   21.5446 C   0  0  1  0  0  0  0  0  0  0  0  0
  -20.2070  -21.5182   25.3682 C   0  0  0  0  0  0  0  0  0  0  0  0
  -23.6409  -35.7771   25.4209 C   0  0  0  0  0  0  0  0  0  0  0  0
  -26.9846  -30.0619   25.2575 C   0  0  0  0  0  0  0  0  0  0  0  0
  -25.7757  -31.8026   26.5904 C   0  0  0  0  0  0  0  0  0  0  0  0
  -27.8236  -32.4174   25.3056 C   0  0  0  0  0  0  0  0  0  0  0  0
  -22.6200  -35.1658   21.8070 C   0  0  0  0  0  0  0  0  0  0  0  0
  -25.6763  -31.9381   24.0600 C   0  0  1  0  0  0  0  0  0  0  0  0
  -23.7936  -35.2279   24.0110 C   0  0  2  0  0  0  0  0  0  0  0  0
  -26.5520  -31.5415   25.2820 C   0  0  0  0  0  0  0  0  0  0  0  0
  -25.3990  -15.0617   20.2283 N   0  0  0  0  0  0  0  0  0  0  0  0
  -24.3381  -15.3014   21.0177 N   0  0  0  0  0  0  0  0  0  0  0  0
  -23.0063  -18.8885   21.1346 N   0  0  0  0  0  0  0  0  0  0  0  0
  -25.7418  -30.7871   21.8704 N   0  0  0  0  0  0  0  0  0  0  0  0
  -22.4609  -14.2660   22.0249 N   0  0  0  0  0  0  0  0  0  0  0  0
  -24.4320  -10.8844   19.7719 N   0  0  0  0  0  0  0  0  0  0  0  0
  -27.9038  -28.5198   20.0045 N   0  0  0  0  0  0  0  0  0  0  0  0
  -25.2745  -33.3405   24.0429 N   0  0  0  0  0  0  0  0  0  0  0  0
  -22.5926  -35.6208   23.2209 N   0  3  0  0  0  0  0  0  0  0  0  0
  -22.6583  -11.4433   21.1137 O   0  0  0  0  0  0  0  0  0  0  0  0
  -20.6858  -18.7187   21.0713 O   0  0  0  0  0  0  0  0  0  0  0  0
  -26.9427  -28.5447   22.1254 O   0  0  0  0  0  0  0  0  0  0  0  0
  -27.4346  -32.2611   22.5011 O   0  0  0  0  0  0  0  0  0  0  0  0
  -22.9889  -32.9498   24.0118 O   0  0  0  0  0  0  0  0  0  0  0  0
  -29.0661  -11.2341   16.6997 O   0  0  0  0  0  0  0  0  0  0  0  0
  -20.6243  -27.6445   20.4602 O   0  0  0  0  0  0  0  0  0  1  0  0
  -34.3898  -12.3279   17.6303 F   0  0  0  0  0  0  0  0  0  0  0  0
  -30.8312   -9.2169   17.3764 F   0  0  0  0  0  0  0  0  0  0  0  0
  1  2  1  0  0  0  0
  1  6  2  0  0  0  0
  2  7  2  0  0  0  0
  3 10  2  0  0  0  0
  3 18  1  0  0  0  0
  4 11  1  0  0  0  0
  4 18  2  0  0  0  0
  5  9  2  0  0  0  0
  5 19  1  0  0  0  0
  6 22  1  0  0  0  0
  7 24  1  0  0  0  0
  8 12  2  0  0  0  0
  8 23  1  0  0  0  0
  9 26  1  0  0  0  0
 10 27  1  0  0  0  0
 11 27  2  0  0  0  0
 12 28  1  0  0  0  0
 13 14  2  0  0  0  0
 13 29  1  0  0  0  0
 14 30  1  0  0  0  0
 15 19  2  0  0  0  0
 15 20  1  0  0  0  0
 16 25  1  0  0  0  0
 16 28  2  0  0  0  0
 17 30  2  0  0  0  0
 17 31  1  0  0  0  0
 18 32  1  0  0  0  0
 19 39  1  0  0  0  0
 20 26  2  0  0  0  0
 20 35  1  0  0  0  0
 21 32  1  0  0  0  0
 21 33  2  0  0  0  0
 21 40  1  0  0  0  0
 22 24  2  0  0  0  0
 22 45  1  0  0  0  0
 23 25  2  0  0  0  0
 23 46  1  0  0  0  0
 24 54  1  0  0  0  0
 25 47  1  0  0  0  0
 26 57  1  0  0  0  0
 27 80  1  0  0  0  0
 28 81  1  0  0  0  0
 29 31  2  0  0  0  0
 29 80  1  0  0  0  0
 30 82  1  0  0  0  0
 31 83  1  0  0  0  0
 32 66  2  0  0  0  0
 33 67  1  0  0  0  0
 33 70  1  0  0  0  0
 34 36  2  0  0  0  0
 35 37  2  0  0  0  0
 36 39  1  0  0  0  0
 37 41  1  0  0  0  0
 38 39  2  0  0  0  0
 38 81  1  0  0  0  0
 40 71  1  0  0  0  0
 40 75  2  0  0  0  0
 41 68  1  0  0  0  0
 41 76  2  0  0  0  0
 42 55  1  0  0  0  0
 42 72  1  0  0  0  0
 42 77  2  0  0  0  0
 43 63  1  0  0  0  0
 43 69  1  0  0  0  0
 43 78  2  0  0  0  0
 44 64  1  0  0  0  0
 44 73  1  0  0  0  0
 44 79  2  0  0  0  0
 45 48  1  0  0  0  0
 46 55  1  0  0  0  0
 47 69  1  0  0  0  0
 48 50  1  0  0  0  0
 49 51  1  0  0  0  0
 49 52  1  0  0  0  0
 50 54  1  0  0  0  0
 51 56  1  0  0  0  0
 52 68  1  0  0  0  0
 53 56  1  0  0  0  0
 53 68  1  0  0  0  0
 54 72  1  0  0  0  0
 55 69  1  0  0  0  0
 56 67  1  0  0  0  0
 58 64  1  0  0  0  0
 59 65  1  0  0  0  0
 60 65  1  0  0  0  0
 61 65  1  0  0  0  0
 62 74  1  0  0  0  0
 63 65  1  0  0  0  0
 63 73  1  0  0  0  0
 64 74  1  0  0  0  0
 66 67  1  0  0  0  0
M  CHG  1  74   1
M  ISO  4  37 100  38 101  41 100  81 101
M  END
> <Batch ID>
0119

> <Smiles>
C=CC(c1ccc(C)c(C=[100CH:0][100C:0](=O)N2CCCC(n3nc(-c4ccc(Oc5ccc(F)cc5F)cc4)c(C(N)=O)c3N)C2)c1)=[101CH:1][101O:1]c1ccc2c(c1)CN(C(=O)C(NC(=O)C(C)NC)C(C)(C)C)C(C(=O)NC1CCCc3ccccc31)C2

> <Shape>
0.267

> <Color>
0.082

> <Negative vol penalty>
0.000

$$$$

  -OEChem-04052301513D

 84 92  0     1  0  0  0  0  0999 V2000
  -24.3299  -21.2387   18.4991 C   0  0  0  0  0  0  0  0  0  0  0  0
  -25.4693  -21.3196   19.2931 C   0  0  0  0  0  0  0  0  0  0  0  0
  -23.1405   -9.7733   20.1135 C   0  0  0  0  0  0  0  0  0  0  0  0
  -23.8189  -10.0297   22.4181 C   0  0  0  0  0  0  0  0  0  0  0  0
  -23.9060  -22.3520   17.7746 C   0  0  0  0  0  0  0  0  0  0  0  0
  -26.1862  -22.5136   19.3624 C   0  0  0  0  0  0  0  0  0  0  0  0
  -27.4972  -23.7203   24.1026 C   0  0  0  0  0  0  0  0  0  0  0  0
  -22.4097   -8.6355   20.4553 C   0  0  0  0  0  0  0  0  0  0  0  0
  -23.0881   -8.8919   22.7598 C   0  0  0  0  0  0  0  0  0  0  0  0
  -28.5844  -23.0440   24.6543 C   0  0  0  0  0  0  0  0  0  0  0  0
  -19.8560   -8.0887   23.3335 C   0  0  0  0  0  0  0  0  0  0  0  0
  -19.0592   -8.1513   24.4766 C   0  0  0  0  0  0  0  0  0  0  0  0
  -29.9986  -24.9385   24.1745 C   0  0  0  0  0  0  0  0  0  0  0  0
  -30.2592  -18.7817   23.5756 C   0  0  0  0  0  0  0  0  0  0  0  0
  -31.9068  -16.9243   22.3035 C   0  0  0  0  0  0  0  0  0  0  0  0
  -20.3094   -6.3263   25.4479 C   0  0  0  0  0  0  0  0  0  0  0  0
  -23.8452  -10.4704   21.0949 C   0  0  0  0  0  0  0  0  0  0  0  0
  -24.1444  -12.9772   20.7288 C   0  0  0  0  0  0  0  0  0  0  0  0
  -24.6125  -23.5631   17.8426 C   0  0  0  0  0  0  0  0  0  0  0  0
  -27.6552  -25.0087   23.5720 C   0  0  0  0  0  0  0  0  0  0  0  0
  -25.7721  -23.6438   18.6371 C   0  0  0  0  0  0  0  0  0  0  0  0
  -28.9113  -25.6300   23.6190 C   0  0  0  0  0  0  0  0  0  0  0  0
  -29.7018  -17.8048   22.7507 C   0  0  0  0  0  0  0  0  0  0  0  0
  -32.4642  -17.9013   23.1284 C   0  0  0  0  0  0  0  0  0  0  0  0
  -31.6404  -18.8300   23.7644 C   0  0  0  0  0  0  0  0  0  0  0  0
  -30.5255  -16.8761   22.1146 C   0  0  0  0  0  0  0  0  0  0  0  0
  -22.3834   -8.1947   21.7784 C   0  0  0  0  0  0  0  0  0  0  0  0
  -29.8360  -23.6519   24.6877 C   0  0  0  0  0  0  0  0  0  0  0  0
  -20.8795   -7.1449   23.2475 C   0  0  0  0  0  0  0  0  0  0  0  0
  -19.2859   -7.2701   25.5339 C   0  0  0  0  0  0  0  0  0  0  0  0
  -21.1062   -6.2637   24.3048 C   0  0  0  0  0  0  0  0  0  0  0  0
  -24.6007  -11.6456   20.7425 C   0  0  0  0  0  0  0  0  0  0  0  0
  -25.2346  -13.7098   20.3273 C   0  0  0  0  0  0  0  0  0  0  0  0
  -32.5020  -20.9319   24.0185 C   0  0  0  0  0  0  0  0  0  0  0  0
  -22.8506  -13.5049   21.0505 C   0  0  0  0  0  0  0  0  0  0  0  0
  -27.2956  -26.3088   20.6937 C   0  0  0  0  0  0  0  0  0  0  0  0
  -27.8827  -29.0678   22.2954 C   0  0  0  0  0  0  0  0  0  0  0  0
  -29.2717  -30.6038   25.0080 C   0  0  0  0  0  0  0  0  0  0  0  0
  -30.6710  -14.8873   20.5751 C   0  0  0  0  0  0  0  0  0  0  0  0
  -24.1426  -24.7256   17.0046 C   0  0  0  0  0  0  0  0  0  0  0  0
  -26.4667  -25.7353   23.0046 C   0  0  0  0  0  0  0  0  0  0  0  0
  -29.1293  -27.0198   23.0809 C   0  0  0  0  0  0  0  0  0  0  0  0
  -24.7456  -26.0633   17.4259 C   0  0  0  0  0  0  0  0  0  0  0  0
  -29.6854  -12.2217   18.4304 C   0  0  0  0  0  0  0  0  0  0  0  0
  -26.2502  -25.9278   17.6369 C   0  0  0  0  0  0  0  0  0  0  0  0
  -28.2371  -11.9437   18.8396 C   0  0  0  0  0  0  0  0  0  0  0  0
  -30.5533  -12.5913   19.6320 C   0  0  0  0  0  0  0  0  0  0  0  0
  -28.5858  -13.4103   20.8680 C   0  0  0  0  0  0  0  0  0  0  0  0
  -26.5624  -24.9287   18.7576 C   0  0  1  0  0  0  0  0  0  0  0  0
  -26.8532  -26.8412   22.0273 C   0  0  1  0  0  0  0  0  0  0  0  0
  -27.6584  -13.0970   19.6825 C   0  0  2  0  0  0  0  0  0  0  0  0
  -33.9459  -17.9331   23.3153 C   0  0  0  0  0  0  0  0  0  0  0  0
  -27.7927  -18.3590   21.2227 C   0  0  0  0  0  0  0  0  0  0  0  0
  -29.6233  -32.8723   26.0218 C   0  0  0  0  0  0  0  0  0  0  0  0
  -30.0892  -29.6307   20.2645 C   0  0  0  0  0  0  0  0  0  0  0  0
  -30.9992  -31.3548   21.8354 C   0  0  0  0  0  0  0  0  0  0  0  0
  -28.7088  -31.6220   20.8840 C   0  0  0  0  0  0  0  0  0  0  0  0
  -27.7376  -29.8850   27.4347 C   0  0  0  0  0  0  0  0  0  0  0  0
  -28.2192  -17.7766   22.5665 C   0  0  0  0  0  0  0  0  0  0  0  0
  -33.0804  -22.0726   24.8123 C   0  0  0  0  0  0  0  0  0  0  0  0
  -32.1874  -23.2959   24.6911 C   0  0  0  0  0  0  0  0  0  1  0  0
  -29.1205  -29.8572   22.6470 C   0  0  1  0  0  0  0  0  0  0  0  0
  -28.7240  -31.6472   25.9649 C   0  0  2  0  0  0  0  0  0  0  0  0
  -29.7261  -30.5892   21.4162 C   0  0  0  0  0  0  0  0  0  0  0  0
  -25.8811  -11.5355   20.3783 N   0  0  0  0  0  0  0  0  0  0  0  0
  -32.1845  -19.8209   24.5988 N   0  0  0  0  0  0  0  0  0  0  0  0
  -26.2385  -12.8074   20.1320 N   0  0  0  0  0  0  0  0  0  0  0  0
  -27.9377  -27.6867   22.5306 N   0  0  0  0  0  0  0  0  0  0  0  0
  -29.9448  -13.6934   20.3804 N   0  0  0  0  0  0  0  0  0  0  0  0
  -25.4228  -15.0312   20.1255 N   0  0  0  0  0  0  0  0  0  0  0  0
  -21.8444  -12.6127   21.4453 N   0  0  0  0  0  0  0  0  0  0  0  0
  -29.9783  -15.8763   21.2728 N   0  0  0  0  0  0  0  0  0  0  0  0
  -26.3451  -25.5375   20.0524 N   0  0  0  0  0  0  0  0  0  0  0  0
  -28.7421  -30.7432   23.7426 N   0  0  0  0  0  0  0  0  0  0  0  0
  -28.6124  -31.0819   27.3393 N   0  3  0  0  0  0  0  0  0  0  0  0
  -22.5898  -14.7295   20.9739 O   0  0  0  0  0  0  0  0  0  0  0  0
  -28.4158  -26.5789   20.2767 O   0  0  0  0  0  0  0  0  0  0  0  0
  -26.9006  -29.6560   21.8359 O   0  0  0  0  0  0  0  0  0  0  0  0
  -30.0905  -29.7527   25.3481 O   0  0  0  0  0  0  0  0  0  0  0  0
  -31.8126  -15.0324   20.1304 O   0  0  0  0  0  0  0  0  0  0  0  0
  -21.6702   -7.0846   22.1123 O   0  0  0  0  0  0  0  0  0  0  0  0
  -30.8990  -22.9938   25.2250 O   0  0  0  0  0  0  0  0  0  1  0  0
  -18.5216   -7.3313   26.6322 F   0  0  0  0  0  0  0  0  0  0  0  0
  -22.0888   -5.3556   24.2285 F   0  0  0  0  0  0  0  0  0  0  0  0
  1  2  1  0  0  0  0
  1  5  2  0  0  0  0
  2  6  2  0  0  0  0
  3  8  2  0  0  0  0
  3 17  1  0  0  0  0
  4  9  1  0  0  0  0
  4 17  2  0  0  0  0
  5 19  1  0  0  0  0
  6 21  1  0  0  0  0
  7 10  2  0  0  0  0
  7 20  1  0  0  0  0
  8 27  1  0  0  0  0
  9 27  2  0  0  0  0
 10 28  1  0  0  0  0
 11 12  2  0  0  0  0
 11 29  1  0  0  0  0
 12 30  1  0  0  0  0
 13 22  1  0  0  0  0
 13 28  2  0  0  0  0
 14 23  1  0  0  0  0
 14 25  2  0  0  0  0
 15 24  2  0  0  0  0
 15 26  1  0  0  0  0
 16 30  2  0  0  0  0
 16 31  1  0  0  0  0
 17 32  1  0  0  0  0
 18 32  1  0  0  0  0
 18 33  2  0  0  0  0
 18 35  1  0  0  0  0
 19 21  2  0  0  0  0
 19 40  1  0  0  0  0
 20 22  2  0  0  0  0
 20 41  1  0  0  0  0
 21 49  1  0  0  0  0
 22 42  1  0  0  0  0
 23 26  2  0  0  0  0
 23 59  1  0  0  0  0
 24 25  1  0  0  0  0
 24 52  1  0  0  0  0
 25 66  1  0  0  0  0
 26 72  1  0  0  0  0
 27 81  1  0  0  0  0
 28 82  1  0  0  0  0
 29 31  2  0  0  0  0
 29 81  1  0  0  0  0
 30 83  1  0  0  0  0
 31 84  1  0  0  0  0
 32 65  2  0  0  0  0
 33 67  1  0  0  0  0
 33 70  1  0  0  0  0
 34 60  1  0  0  0  0
 34 66  2  0  0  0  0
 35 71  1  0  0  0  0
 35 76  2  0  0  0  0
 36 50  1  0  0  0  0
 36 73  1  0  0  0  0
 36 77  2  0  0  0  0
 37 62  1  0  0  0  0
 37 68  1  0  0  0  0
 37 78  2  0  0  0  0
 38 63  1  0  0  0  0
 38 74  1  0  0  0  0
 38 79  2  0  0  0  0
 39 69  1  0  0  0  0
 39 72  1  0  0  0  0
 39 80  2  0  0  0  0
 40 43  1  0  0  0  0
 41 50  1  0  0  0  0
 42 68  1  0  0  0  0
 43 45  1  0  0  0  0
 44 46  1  0  0  0  0
 44 47  1  0  0  0  0
 45 49  1  0  0  0  0
 46 51  1  0  0  0  0
 47 69  1  0  0  0  0
 48 51  1  0  0  0  0
 48 69  1  0  0  0  0
 49 73  1  0  0  0  0
 50 68  1  0  0  0  0
 51 67  1  0  0  0  0
 53 59  1  0  0  0  0
 54 63  1  0  0  0  0
 55 64  1  0  0  0  0
 56 64  1  0  0  0  0
 57 64  1  0  0  0  0
 58 75  1  0  0  0  0
 60 61  1  0  0  0  0
 61 82  1  0  0  0  0
 62 64  1  0  0  0  0
 62 74  1  0  0  0  0
 63 75  1  0  0  0  0
 65 67  1  0  0  0  0
M  CHG  1  75   1
M  ISO  4  39 100  61 101  72 100  82 101
M  END
> <Batch ID>
0119

> <Smiles>
CCc1cc(NC=C[101CH2:1][101O:1]c2ccc3c(c2)CN(C(=O)C(NC(=O)C(C)NC)C(C)(C)C)C(C(=O)NC2CCCc4ccccc42)C3)c(C)cc1[100NH:0][100C:0](=O)N1CCCC(n2nc(-c3ccc(Oc4ccc(F)cc4F)cc3)c(C(N)=O)c2N)C1

> <Shape>
0.221

> <Color>
0.205

> <Negative vol penalty>
0.000

$$$$

  -OEChem-04052301513D

 86 94  0     1  0  0  0  0  0999 V2000
  -25.7301  -38.1328   27.3208 C   0  0  0  0  0  0  0  0  0  0  0  0
  -24.9162  -37.0421   27.6096 C   0  0  0  0  0  0  0  0  0  0  0  0
  -24.4372  -10.1973   22.8606 C   0  0  0  0  0  0  0  0  0  0  0  0
  -24.4955  -11.9294   24.5440 C   0  0  0  0  0  0  0  0  0  0  0  0
  -28.9867  -19.1048   22.5072 C   0  0  0  0  0  0  0  0  0  0  0  0
  -26.2146  -38.3162   26.0264 C   0  0  0  0  0  0  0  0  0  0  0  0
  -24.5854  -36.1347   26.6038 C   0  0  0  0  0  0  0  0  0  0  0  0
  -26.2380  -29.1504   27.2200 C   0  0  0  0  0  0  0  0  0  0  0  0
  -24.0242   -9.2760   23.8230 C   0  0  0  0  0  0  0  0  0  0  0  0
  -24.0825  -11.0081   25.5063 C   0  0  0  0  0  0  0  0  0  0  0  0
  -29.0697  -20.2456   23.3054 C   0  0  0  0  0  0  0  0  0  0  0  0
  -26.3316  -27.7653   27.3571 C   0  0  0  0  0  0  0  0  0  0  0  0
  -21.1565   -8.4517   25.4135 C   0  0  0  0  0  0  0  0  0  0  0  0
  -20.1082   -7.5936   25.0816 C   0  0  0  0  0  0  0  0  0  0  0  0
  -25.4191  -27.4730   25.1368 C   0  0  0  0  0  0  0  0  0  0  0  0
  -21.5547   -5.6906   25.4327 C   0  0  0  0  0  0  0  0  0  0  0  0
  -24.6729  -11.5241   23.2211 C   0  0  0  0  0  0  0  0  0  0  0  0
  -28.8169  -19.2293   21.1283 C   0  0  0  0  0  0  0  0  0  0  0  0
  -28.8127  -21.6355   21.3460 C   0  0  0  0  0  0  0  0  0  0  0  0
  -24.2809  -13.2883   21.4207 C   0  0  0  0  0  0  0  0  0  0  0  0
  -25.8975  -37.4053   25.0064 C   0  0  0  0  0  0  0  0  0  0  0  0
  -25.7483  -29.7031   26.0333 C   0  0  0  0  0  0  0  0  0  0  0  0
  -25.0651  -36.3069   25.2942 C   0  0  0  0  0  0  0  0  0  0  0  0
  -25.3347  -28.8600   24.9889 C   0  0  0  0  0  0  0  0  0  0  0  0
  -28.7298  -20.4946   20.5477 C   0  0  0  0  0  0  0  0  0  0  0  0
  -23.8468   -9.6813   25.1458 C   0  0  0  0  0  0  0  0  0  0  0  0
  -25.9230  -26.9287   26.3182 C   0  0  0  0  0  0  0  0  0  0  0  0
  -28.9827  -21.5110   22.7249 C   0  0  0  0  0  0  0  0  0  0  0  0
  -22.4040   -7.9293   25.7550 C   0  0  0  0  0  0  0  0  0  0  0  0
  -20.3072   -6.2131   25.0912 C   0  0  0  0  0  0  0  0  0  0  0  0
  -22.6031   -6.5488   25.7646 C   0  0  0  0  0  0  0  0  0  0  0  0
  -25.1001  -12.4762   22.2276 C   0  0  0  0  0  0  0  0  0  0  0  0
  -25.1621  -14.0077   20.6511 C   0  0  0  0  0  0  0  0  0  0  0  0
  -29.6933  -23.8588   20.8013 C   0  0  0  0  0  0  0  0  0  0  0  0
  -28.7204  -22.9639   20.7477 C   0  0  0  0  0  0  0  0  0  0  0  0
  -28.7346  -18.0182   20.3223 C   0  0  0  0  0  0  0  0  0  0  0  0
  -22.8511  -13.3838   21.3713 C   0  0  0  0  0  0  0  0  0  0  0  0
  -29.8474  -17.0417   20.2858 C   0  0  0  0  0  0  0  0  0  0  0  0
  -24.9214  -32.8121   24.1030 C   0  0  0  0  0  0  0  0  0  0  0  0
  -26.2008  -30.8484   22.1238 C   0  0  0  0  0  0  0  0  0  0  0  0
  -28.0292  -28.5667   20.3665 C   0  0  0  0  0  0  0  0  0  0  0  0
  -26.4062  -37.6713   23.6117 C   0  0  0  0  0  0  0  0  0  0  0  0
  -25.5723  -31.1879   25.8650 C   0  0  0  0  0  0  0  0  0  0  0  0
  -24.7819  -29.4982   23.7438 C   0  0  0  0  0  0  0  0  0  0  0  0
  -26.3154  -36.4588   22.6887 C   0  0  0  0  0  0  0  0  0  0  0  0
  -30.1368  -13.4826   19.9601 C   0  0  0  0  0  0  0  0  0  0  0  0
  -24.9464  -35.7970   22.8099 C   0  0  0  0  0  0  0  0  0  0  0  0
  -28.7989  -12.9695   20.4917 C   0  0  0  0  0  0  0  0  0  0  0  0
  -30.5925  -14.7317   20.7074 C   0  0  0  0  0  0  0  0  0  0  0  0
  -28.2440  -15.3291   21.2332 C   0  0  0  0  0  0  0  0  0  0  0  0
  -24.7043  -35.2872   24.2357 C   0  0  1  0  0  0  0  0  0  0  0  0
  -25.8362  -31.6677   24.4265 C   0  0  1  0  0  0  0  0  0  0  0  0
  -27.7377  -14.0841   20.4841 C   0  0  2  0  0  0  0  0  0  0  0  0
  -28.5456  -20.6155   19.0657 C   0  0  0  0  0  0  0  0  0  0  0  0
  -28.9946  -28.1503   18.0879 C   0  0  0  0  0  0  0  0  0  0  0  0
  -23.4266  -30.1207   21.0855 C   0  0  0  0  0  0  0  0  0  0  0  0
  -24.5311  -28.8551   19.2290 C   0  0  0  0  0  0  0  0  0  0  0  0
  -24.8775  -31.3168   19.4366 C   0  0  0  0  0  0  0  0  0  0  0  0
  -30.7932  -28.5002   21.4224 C   0  0  0  0  0  0  0  0  0  0  0  0
  -27.5395  -23.7280   26.7808 C   0  0  0  0  0  0  0  0  0  0  0  0
  -28.0821  -23.8154   25.3586 C   0  0  0  0  0  0  0  0  0  0  0  0
  -27.0719  -25.0857   27.2880 C   0  0  0  0  0  0  0  0  0  1  0  0
  -28.5892  -22.4672   24.8665 C   0  0  0  0  0  0  0  0  0  0  0  0
  -25.9838  -29.7650   21.0979 C   0  0  1  0  0  0  0  0  0  0  0  0
  -29.2469  -28.7237   19.4737 C   0  0  2  0  0  0  0  0  0  0  0  0
  -24.7106  -30.0082   20.2394 C   0  0  0  0  0  0  0  0  0  0  0  0
  -26.4018  -12.6617   21.9923 N   0  0  0  0  0  0  0  0  0  0  0  0
  -27.6964  -17.7147   19.5936 N   0  0  0  0  0  0  0  0  0  0  0  0
  -26.4071  -13.5985   21.0288 N   0  0  0  0  0  0  0  0  0  0  0  0
  -29.5490  -15.7551   20.7120 N   0  0  0  0  0  0  0  0  0  0  0  0
  -25.5967  -30.6660   23.3737 N   0  0  0  0  0  0  0  0  0  0  0  0
  -24.9856  -14.9441   19.6947 N   0  0  0  0  0  0  0  0  0  0  0  0
  -22.0973  -12.5729   22.2307 N   0  0  0  0  0  0  0  0  0  0  0  0
  -25.4215  -34.0502   24.4588 N   0  0  0  0  0  0  0  0  0  0  0  0
  -27.2185  -29.6813   20.3252 N   0  0  0  0  0  0  0  0  0  0  0  0
  -30.4187  -28.0200   20.0673 N   0  3  0  0  0  0  0  0  0  0  0  0
  -22.2592  -14.1531   20.5768 O   0  0  0  0  0  0  0  0  0  0  0  0
  -30.9178  -17.4768   19.8817 O   0  0  0  0  0  0  0  0  0  0  0  0
  -23.8414  -32.5898   23.5683 O   0  0  0  0  0  0  0  0  0  0  0  0
  -26.8823  -31.8333   21.8260 O   0  0  0  0  0  0  0  0  0  0  0  0
  -27.8165  -27.5549   21.0310 O   0  0  0  0  0  0  0  0  0  0  0  0
  -23.4435   -8.7826   26.0851 O   0  0  0  0  0  0  0  0  0  0  0  0
  -26.0213  -25.5775   26.4570 O   0  0  0  0  0  0  0  0  0  1  0  0
  -29.0655  -22.6130   23.5358 O   0  0  0  0  0  0  0  0  0  0  0  0
  -19.3000   -5.3891   24.7739 F   0  0  0  0  0  0  0  0  0  0  0  0
  -23.7990   -6.0410   26.0930 F   0  0  0  0  0  0  0  0  0  0  0  0
  1  2  1  0  0  0  0
  1  6  2  0  0  0  0
  2  7  2  0  0  0  0
  3  9  2  0  0  0  0
  3 17  1  0  0  0  0
  4 10  1  0  0  0  0
  4 17  2  0  0  0  0
  5 11  1  0  0  0  0
  5 18  2  0  0  0  0
  6 21  1  0  0  0  0
  7 23  1  0  0  0  0
  8 12  2  0  0  0  0
  8 22  1  0  0  0  0
  9 26  1  0  0  0  0
 10 26  2  0  0  0  0
 11 28  2  0  0  0  0
 12 27  1  0  0  0  0
 13 14  2  0  0  0  0
 13 29  1  0  0  0  0
 14 30  1  0  0  0  0
 15 24  1  0  0  0  0
 15 27  2  0  0  0  0
 16 30  2  0  0  0  0
 16 31  1  0  0  0  0
 17 32  1  0  0  0  0
 18 25  1  0  0  0  0
 18 36  1  0  0  0  0
 19 25  2  0  0  0  0
 19 28  1  0  0  0  0
 19 35  1  0  0  0  0
 20 32  1  0  0  0  0
 20 33  2  0  0  0  0
 20 37  1  0  0  0  0
 21 23  2  0  0  0  0
 21 42  1  0  0  0  0
 22 24  2  0  0  0  0
 22 43  1  0  0  0  0
 23 51  1  0  0  0  0
 24 44  1  0  0  0  0
 25 54  1  0  0  0  0
 26 82  1  0  0  0  0
 27 83  1  0  0  0  0
 28 84  1  0  0  0  0
 29 31  2  0  0  0  0
 29 82  1  0  0  0  0
 30 85  1  0  0  0  0
 31 86  1  0  0  0  0
 32 67  2  0  0  0  0
 33 69  1  0  0  0  0
 33 72  1  0  0  0  0
 34 35  2  0  0  0  0
 36 38  1  0  0  0  0
 36 68  2  0  0  0  0
 37 73  1  0  0  0  0
 37 77  2  0  0  0  0
 38 70  1  0  0  0  0
 38 78  2  0  0  0  0
 39 52  1  0  0  0  0
 39 74  1  0  0  0  0
 39 79  2  0  0  0  0
 40 64  1  0  0  0  0
 40 71  1  0  0  0  0
 40 80  2  0  0  0  0
 41 65  1  0  0  0  0
 41 75  1  0  0  0  0
 41 81  2  0  0  0  0
 42 45  1  0  0  0  0
 43 52  1  0  0  0  0
 44 71  1  0  0  0  0
 45 47  1  0  0  0  0
 46 48  1  0  0  0  0
 46 49  1  0  0  0  0
 47 51  1  0  0  0  0
 48 53  1  0  0  0  0
 49 70  1  0  0  0  0
 50 53  1  0  0  0  0
 50 70  1  0  0  0  0
 51 74  1  0  0  0  0
 52 71  1  0  0  0  0
 53 69  1  0  0  0  0
 55 65  1  0  0  0  0
 56 66  1  0  0  0  0
 57 66  1  0  0  0  0
 58 66  1  0  0  0  0
 59 76  1  0  0  0  0
 60 61  1  0  0  0  0
 60 62  1  0  0  0  0
 61 63  1  0  0  0  0
 62 83  1  0  0  0  0
 63 84  1  0  0  0  0
 64 66  1  0  0  0  0
 64 75  1  0  0  0  0
 65 76  1  0  0  0  0
 67 69  1  0  0  0  0
M  CHG  1  76   1
M  ISO  4  36 100  38 100  62 101  83 101
M  END
> <Batch ID>
0119

> <Smiles>
C=Cc1c(OCCC[101CH2:1][101O:1]c2ccc3c(c2)CN(C(=O)C(NC(=O)C(C)NC)C(C)(C)C)C(C(=O)NC2CCCc4ccccc42)C3)ccc([100C:0](=N)[100C:0](=O)N2CCCC(n3nc(-c4ccc(Oc5ccc(F)cc5F)cc4)c(C(N)=O)c3N)C2)c1C

> <Shape>
0.304

> <Color>
0.107

> <Negative vol penalty>
0.000

$$$$

  -OEChem-04052301513D

 84 92  0     1  0  0  0  0  0999 V2000
  -32.0832  -32.8177   23.0679 C   0  0  0  0  0  0  0  0  0  0  0  0
  -31.5298  -31.6149   22.6408 C   0  0  0  0  0  0  0  0  0  0  0  0
  -25.2923   -7.7391   21.5155 C   0  0  0  0  0  0  0  0  0  0  0  0
  -24.0978   -9.8223   21.2501 C   0  0  0  0  0  0  0  0  0  0  0  0
  -27.7568  -18.1472   20.1838 C   0  0  0  0  0  0  0  0  0  0  0  0
  -31.4042  -33.6051   23.9968 C   0  0  0  0  0  0  0  0  0  0  0  0
  -30.2975  -31.1983   23.1432 C   0  0  0  0  0  0  0  0  0  0  0  0
  -27.2159  -29.4481   19.5258 C   0  0  0  0  0  0  0  0  0  0  0  0
  -27.9940  -16.8194   19.8285 C   0  0  0  0  0  0  0  0  0  0  0  0
  -24.3820   -7.3419   22.4948 C   0  0  0  0  0  0  0  0  0  0  0  0
  -23.1874   -9.4251   22.2295 C   0  0  0  0  0  0  0  0  0  0  0  0
  -27.4533  -28.1567   19.0571 C   0  0  0  0  0  0  0  0  0  0  0  0
  -22.1635   -5.6266   24.8082 C   0  0  0  0  0  0  0  0  0  0  0  0
  -21.6719   -4.3228   24.7460 C   0  0  0  0  0  0  0  0  0  0  0  0
  -25.6736  -27.3274   20.4586 C   0  0  0  0  0  0  0  0  0  0  0  0
  -30.2558  -17.0015   20.6583 C   0  0  0  0  0  0  0  0  0  0  0  0
  -20.7562   -4.7726   22.5559 C   0  0  0  0  0  0  0  0  0  0  0  0
  -25.1502   -8.9794   20.8932 C   0  0  0  0  0  0  0  0  0  0  0  0
  -28.7690  -18.9022   20.7763 C   0  0  0  0  0  0  0  0  0  0  0  0
  -26.0015   -9.1631   18.4954 C   0  0  0  0  0  0  0  0  0  0  0  0
  -30.1585  -33.2027   24.5036 C   0  0  0  0  0  0  0  0  0  0  0  0
  -26.2111  -29.6876   20.4742 C   0  0  0  0  0  0  0  0  0  0  0  0
  -29.6019  -31.9805   24.0807 C   0  0  0  0  0  0  0  0  0  0  0  0
  -25.4238  -28.6232   20.9358 C   0  0  0  0  0  0  0  0  0  0  0  0
  -30.0185  -18.3294   21.0135 C   0  0  0  0  0  0  0  0  0  0  0  0
  -29.2435  -16.2465   20.0658 C   0  0  0  0  0  0  0  0  0  0  0  0
  -23.3295   -8.1848   22.8518 C   0  0  0  0  0  0  0  0  0  0  0  0
  -26.6840  -27.0957   19.5256 C   0  0  0  0  0  0  0  0  0  0  0  0
  -21.9515   -6.5035   23.7443 C   0  0  0  0  0  0  0  0  0  0  0  0
  -20.9682   -3.8958   23.6198 C   0  0  0  0  0  0  0  0  0  0  0  0
  -21.2479   -6.0765   22.6182 C   0  0  0  0  0  0  0  0  0  0  0  0
  -26.0906   -9.3905   19.8818 C   0  0  0  0  0  0  0  0  0  0  0  0
  -27.1323   -9.7466   17.9784 C   0  0  0  0  0  0  0  0  0  0  0  0
  -28.4870  -20.3019   21.1405 C   0  0  0  0  0  0  0  0  0  0  0  0
  -28.1430  -21.2601   20.2677 C   0  0  0  0  0  0  0  0  0  0  0  0
  -27.5172  -23.5992   19.6745 C   0  0  0  0  0  0  0  0  0  0  0  0
  -27.2630  -24.8755   19.9797 C   0  0  0  0  0  0  0  0  0  1  0  0
  -24.9873   -8.4851   17.7422 C   0  0  0  0  0  0  0  0  0  0  0  0
  -27.8888  -22.6448   20.7515 C   0  0  0  0  0  0  0  0  0  0  0  0
  -26.1545  -30.8114   23.4470 C   0  0  0  0  0  0  0  0  0  0  0  0
  -22.9415  -30.6362   23.0368 C   0  0  0  0  0  0  0  0  0  0  0  0
  -20.3027  -29.2221   21.3985 C   0  0  0  0  0  0  0  0  0  0  0  0
  -30.6677  -14.1780   19.8677 C   0  0  0  0  0  0  0  0  0  0  0  0
  -29.4843  -34.0645   25.5416 C   0  0  0  0  0  0  0  0  0  0  0  0
  -25.9500  -31.0905   20.9497 C   0  0  0  0  0  0  0  0  0  0  0  0
  -24.3194  -28.8304   21.9388 C   0  0  0  0  0  0  0  0  0  0  0  0
  -28.0079  -33.7330   25.7428 C   0  0  0  0  0  0  0  0  0  0  0  0
  -31.6497  -10.8343   19.1381 C   0  0  0  0  0  0  0  0  0  0  0  0
  -27.8109  -32.2252   25.8635 C   0  0  0  0  0  0  0  0  0  0  0  0
  -30.3269  -10.0650   19.1138 C   0  0  0  0  0  0  0  0  0  0  0  0
  -31.6532  -11.9227   20.2100 C   0  0  0  0  0  0  0  0  0  0  0  0
  -29.1963  -12.0846   20.1289 C   0  0  0  0  0  0  0  0  0  0  0  0
  -28.2556  -31.5066   24.5839 C   0  0  1  0  0  0  0  0  0  0  0  0
  -25.2417  -31.1415   22.3000 C   0  0  1  0  0  0  0  0  0  0  0  0
  -29.1210  -11.0205   19.0218 C   0  0  2  0  0  0  0  0  0  0  0  0
  -31.1263  -19.1081   21.6469 C   0  0  0  0  0  0  0  0  0  0  0  0
  -17.7951  -29.2534   21.3069 C   0  0  0  0  0  0  0  0  0  0  0  0
  -22.8296  -28.9891   25.6029 C   0  0  0  0  0  0  0  0  0  0  0  0
  -20.5218  -28.2657   24.9553 C   0  0  0  0  0  0  0  0  0  0  0  0
  -21.0010  -30.6789   25.3673 C   0  0  0  0  0  0  0  0  0  0  0  0
  -20.3013  -30.1234   18.5795 C   0  0  0  0  0  0  0  0  0  0  0  0
  -21.8898  -29.5789   23.2715 C   0  0  1  0  0  0  0  0  0  0  0  0
  -19.0805  -29.8354   20.7395 C   0  0  2  0  0  0  0  0  0  0  0  0
  -21.5826  -29.3736   24.7818 C   0  0  0  0  0  0  0  0  0  0  0  0
  -27.1911  -10.0657   20.2240 N   0  0  0  0  0  0  0  0  0  0  0  0
  -27.8040  -10.2675   19.0451 N   0  0  0  0  0  0  0  0  0  0  0  0
  -24.1070  -30.2194   22.3783 N   0  0  0  0  0  0  0  0  0  0  0  0
  -30.4845  -12.7920   20.0577 N   0  0  0  0  0  0  0  0  0  0  0  0
  -27.6078   -9.8598   16.7200 N   0  0  0  0  0  0  0  0  0  0  0  0
  -23.8928   -7.9444   18.4309 N   0  0  0  0  0  0  0  0  0  0  0  0
  -29.4853  -14.8985   19.7022 N   0  0  0  0  0  0  0  0  0  0  0  0
  -27.2513  -31.6454   23.5512 N   0  0  0  0  0  0  0  0  0  0  0  0
  -20.7325  -29.9702   22.4741 N   0  0  0  0  0  0  0  0  0  0  0  0
  -19.1024  -29.5832   19.2709 N   0  3  0  0  0  0  0  0  0  0  0  0
  -25.0578   -8.3481   16.4973 O   0  0  0  0  0  0  0  0  0  0  0  0
  -27.9763  -22.9697   21.9292 O   0  0  0  0  0  0  0  0  0  0  0  0
  -25.8829  -29.8706   24.1838 O   0  0  0  0  0  0  0  0  0  0  0  0
  -22.7334  -31.7910   23.4172 O   0  0  0  0  0  0  0  0  0  0  0  0
  -20.8219  -28.1813   21.0013 O   0  0  0  0  0  0  0  0  0  0  0  0
  -31.7919  -14.6843   19.8256 O   0  0  0  0  0  0  0  0  0  0  0  0
  -22.4409   -7.7974   23.8073 O   0  0  0  0  0  0  0  0  0  0  0  0
  -26.9139  -25.8341   19.0703 O   0  0  0  0  0  0  0  0  0  1  0  0
  -20.4975   -2.6432   23.5596 F   0  0  0  0  0  0  0  0  0  0  0  0
  -21.0421   -6.9140   21.5924 F   0  0  0  0  0  0  0  0  0  0  0  0
  1  2  1  0  0  0  0
  1  6  2  0  0  0  0
  2  7  2  0  0  0  0
  3 10  2  0  0  0  0
  3 18  1  0  0  0  0
  4 11  1  0  0  0  0
  4 18  2  0  0  0  0
  5  9  2  0  0  0  0
  5 19  1  0  0  0  0
  6 21  1  0  0  0  0
  7 23  1  0  0  0  0
  8 12  2  0  0  0  0
  8 22  1  0  0  0  0
  9 26  1  0  0  0  0
 10 27  1  0  0  0  0
 11 27  2  0  0  0  0
 12 28  1  0  0  0  0
 13 14  2  0  0  0  0
 13 29  1  0  0  0  0
 14 30  1  0  0  0  0
 15 24  1  0  0  0  0
 15 28  2  0  0  0  0
 16 25  1  0  0  0  0
 16 26  2  0  0  0  0
 17 30  2  0  0  0  0
 17 31  1  0  0  0  0
 18 32  1  0  0  0  0
 19 25  2  0  0  0  0
 19 34  1  0  0  0  0
 20 32  1  0  0  0  0
 20 33  2  0  0  0  0
 20 38  1  0  0  0  0
 21 23  2  0  0  0  0
 21 44  1  0  0  0  0
 22 24  2  0  0  0  0
 22 45  1  0  0  0  0
 23 53  1  0  0  0  0
 24 46  1  0  0  0  0
 25 56  1  0  0  0  0
 26 71  1  0  0  0  0
 27 81  1  0  0  0  0
 28 82  1  0  0  0  0
 29 31  2  0  0  0  0
 29 81  1  0  0  0  0
 30 83  1  0  0  0  0
 31 84  1  0  0  0  0
 32 65  2  0  0  0  0
 33 66  1  0  0  0  0
 33 69  1  0  0  0  0
 34 35  2  0  0  0  0
 35 39  1  0  0  0  0
 36 37  2  0  0  0  0
 36 39  1  0  0  0  0
 37 82  1  0  0  0  0
 38 70  1  0  0  0  0
 38 75  2  0  0  0  0
 39 76  2  0  0  0  0
 40 54  1  0  0  0  0
 40 72  1  0  0  0  0
 40 77  2  0  0  0  0
 41 62  1  0  0  0  0
 41 67  1  0  0  0  0
 41 78  2  0  0  0  0
 42 63  1  0  0  0  0
 42 73  1  0  0  0  0
 42 79  2  0  0  0  0
 43 68  1  0  0  0  0
 43 71  1  0  0  0  0
 43 80  2  0  0  0  0
 44 47  1  0  0  0  0
 45 54  1  0  0  0  0
 46 67  1  0  0  0  0
 47 49  1  0  0  0  0
 48 50  1  0  0  0  0
 48 51  1  0  0  0  0
 49 53  1  0  0  0  0
 50 55  1  0  0  0  0
 51 68  1  0  0  0  0
 52 55  1  0  0  0  0
 52 68  1  0  0  0  0
 53 72  1  0  0  0  0
 54 67  1  0  0  0  0
 55 66  1  0  0  0  0
 57 63  1  0  0  0  0
 58 64  1  0  0  0  0
 59 64  1  0  0  0  0
 60 64  1  0  0  0  0
 61 74  1  0  0  0  0
 62 64  1  0  0  0  0
 62 73  1  0  0  0  0
 63 74  1  0  0  0  0
 65 66  1  0  0  0  0
M  CHG  1  74   1
M  ISO  4  37 101  43 100  71 100  82 101
M  END
> <Batch ID>
0119

> <Smiles>
CNC(C)C(=O)NC(C(=O)N1Cc2cc([101O:1][101CH:1]=CC(=O)C=Cc3ccc([100NH:0][100C:0](=O)N4CCCC(n5nc(-c6ccc(Oc7ccc(F)cc7F)cc6)c(C(N)=O)c5N)C4)cc3C)ccc2CC1C(=O)NC1CCCc2ccccc21)C(C)(C)C

> <Shape>
0.279

> <Color>
0.086

> <Negative vol penalty>
0.000

$$$$

  -OEChem-04052301513D

 84 92  0     1  0  0  0  0  0999 V2000
  -24.3735  -10.5308   21.5787 C   0  0  0  0  0  0  0  0  0  0  0  0
  -23.6514  -11.6452   21.9938 C   0  0  0  0  0  0  0  0  0  0  0  0
  -17.8670  -28.9383   23.1880 C   0  0  0  0  0  0  0  0  0  0  0  0
  -29.9934  -28.2282   18.8806 C   0  0  0  0  0  0  0  0  0  0  0  0
  -29.6274  -26.8350   20.8202 C   0  0  0  0  0  0  0  0  0  0  0  0
  -25.6581  -10.6876   21.0600 C   0  0  0  0  0  0  0  0  0  0  0  0
  -24.2140  -12.9169   21.8914 C   0  0  0  0  0  0  0  0  0  0  0  0
  -21.2871  -18.1469   20.6316 C   0  0  0  0  0  0  0  0  0  0  0  0
  -19.1826  -29.3734   23.0289 C   0  0  0  0  0  0  0  0  0  0  0  0
  -17.5205  -27.6287   22.8555 C   0  0  0  0  0  0  0  0  0  0  0  0
  -31.3651  -27.9917   18.9695 C   0  0  0  0  0  0  0  0  0  0  0  0
  -30.9992  -26.5985   20.9091 C   0  0  0  0  0  0  0  0  0  0  0  0
  -20.8126  -19.1755   21.4444 C   0  0  0  0  0  0  0  0  0  0  0  0
  -33.5243  -25.5191   18.1589 C   0  0  0  0  0  0  0  0  0  0  0  0
  -34.2069  -25.2128   16.9817 C   0  0  0  0  0  0  0  0  0  0  0  0
  -22.8371  -20.4226   21.0376 C   0  0  0  0  0  0  0  0  0  0  0  0
  -35.6106  -27.1548   17.2903 C   0  0  0  0  0  0  0  0  0  0  0  0
  -29.1245  -27.6499   19.8060 C   0  0  0  0  0  0  0  0  0  0  0  0
  -19.8053  -27.1894   22.2046 C   0  0  0  0  0  0  0  0  0  0  0  0
  -26.7595  -27.1418   18.9959 C   0  0  0  0  0  0  0  0  0  0  0  0
  -26.2330  -11.9629   20.9422 C   0  0  0  0  0  0  0  0  0  0  0  0
  -22.5469  -18.2438   20.0235 C   0  0  0  0  0  0  0  0  0  0  0  0
  -25.5081  -13.0908   21.3718 C   0  0  0  0  0  0  0  0  0  0  0  0
  -23.3241  -19.3949   20.2155 C   0  0  0  0  0  0  0  0  0  0  0  0
  -20.1518  -28.4990   22.5372 C   0  0  0  0  0  0  0  0  0  0  0  0
  -31.8681  -27.1769   19.9837 C   0  0  0  0  0  0  0  0  0  0  0  0
  -21.5889  -20.3123   21.6498 C   0  0  0  0  0  0  0  0  0  0  0  0
  -18.4897  -26.7542   22.3638 C   0  0  0  0  0  0  0  0  0  0  0  0
  -33.8848  -26.6434   18.9018 C   0  0  0  0  0  0  0  0  0  0  0  0
  -35.2501  -26.0306   16.5474 C   0  0  0  0  0  0  0  0  0  0  0  0
  -34.9280  -27.4612   18.4675 C   0  0  0  0  0  0  0  0  0  0  0  0
  -27.7074  -27.8942   19.7150 C   0  0  0  0  0  0  0  0  0  0  0  0
  -25.5658  -27.7796   19.2299 C   0  0  0  0  0  0  0  0  0  0  0  0
  -21.1025  -26.1491   20.4018 C   0  0  0  0  0  0  0  0  0  0  0  0
  -20.8104  -26.2647   21.6864 C   0  0  0  0  0  0  0  0  0  0  0  0
  -26.9417  -25.9709   18.1887 C   0  0  0  0  0  0  0  0  0  0  0  0
  -25.2515  -16.5819   20.1890 C   0  0  0  0  0  0  0  0  0  0  0  0
  -26.1602  -18.5642   17.7875 C   0  0  0  0  0  0  0  0  0  0  0  0
  -25.7622  -21.5546   16.1919 C   0  0  0  0  0  0  0  0  0  0  0  0
  -21.9571  -30.2506   22.6759 C   0  0  0  0  0  0  0  0  0  0  0  0
  -27.6430  -12.0780   20.4193 C   0  0  0  0  0  0  0  0  0  0  0  0
  -23.0329  -17.1372   19.1281 C   0  0  0  0  0  0  0  0  0  0  0  0
  -24.6749  -19.5568   19.5691 C   0  0  0  0  0  0  0  0  0  0  0  0
  -28.0219  -13.4950   19.9964 C   0  0  0  0  0  0  0  0  0  0  0  0
  -24.5901  -32.2612   21.3713 C   0  0  0  0  0  0  0  0  0  0  0  0
  -27.5957  -14.5016   21.0602 C   0  0  0  0  0  0  0  0  0  0  0  0
  -25.5579  -31.2424   20.7650 C   0  0  0  0  0  0  0  0  0  0  0  0
  -23.9472  -31.7385   22.6548 C   0  0  0  0  0  0  0  0  0  0  0  0
  -24.2690  -29.4064   21.9290 C   0  0  0  0  0  0  0  0  0  0  0  0
  -26.0745  -14.4891   21.2537 C   0  0  1  0  0  0  0  0  0  0  0  0
  -24.5504  -17.1173   18.9726 C   0  0  1  0  0  0  0  0  0  0  0  0
  -24.8923  -29.8621   20.5995 C   0  0  2  0  0  0  0  0  0  0  0  0
  -26.6744  -22.9063   14.2845 C   0  0  0  0  0  0  0  0  0  0  0  0
  -28.6202  -19.2536   19.4558 C   0  0  0  0  0  0  0  0  0  0  0  0
  -28.9723  -21.2489   17.9851 C   0  0  0  0  0  0  0  0  0  0  0  0
  -29.0667  -18.9534   17.0134 C   0  0  0  0  0  0  0  0  0  0  0  0
  -23.1440  -21.5895   14.8124 C   0  0  0  0  0  0  0  0  0  0  0  0
  -19.3970  -22.9757   22.7312 C   0  0  0  0  0  0  0  0  0  0  0  0
  -17.8944  -23.2193   22.8193 C   0  0  0  0  0  0  0  0  0  0  0  0
  -19.7148  -21.5043   22.5001 C   0  0  0  0  0  0  0  0  0  1  0  0
  -17.5773  -24.6826   23.0930 C   0  0  0  0  0  0  0  0  0  0  0  0
  -26.8342  -19.9129   17.7117 C   0  0  1  0  0  0  0  0  0  0  0  0
  -25.6207  -21.9002   14.7205 C   0  0  2  0  0  0  0  0  0  0  0  0
  -28.3488  -19.8386   18.0554 C   0  0  0  0  0  0  0  0  0  0  0  0
  -27.1629  -28.9309   20.3575 N   0  0  0  0  0  0  0  0  0  0  0  0
  -25.8599  -28.8344   20.0430 N   0  0  0  0  0  0  0  0  0  0  0  0
  -25.1089  -18.4447   18.7075 N   0  0  0  0  0  0  0  0  0  0  0  0
  -23.3332  -30.4297   22.4209 N   0  0  0  0  0  0  0  0  0  0  0  0
  -24.3038  -27.5355   18.8174 N   0  0  0  0  0  0  0  0  0  0  0  0
  -28.2344  -25.4462   18.0548 N   0  0  0  0  0  0  0  0  0  0  0  0
  -21.4783  -28.9735   22.3855 N   0  0  0  0  0  0  0  0  0  0  0  0
  -25.4228  -15.2108   20.1818 N   0  0  0  0  0  0  0  0  0  0  0  0
  -26.5485  -20.4378   16.3809 N   0  0  0  0  0  0  0  0  0  0  0  0
  -24.2753  -22.4825   14.4522 N   0  3  0  0  0  0  0  0  0  0  0  0
  -25.9889  -25.4163   17.5902 O   0  0  0  0  0  0  0  0  0  0  0  0
  -25.6117  -17.3558   21.0683 O   0  0  0  0  0  0  0  0  0  0  0  0
  -26.5473  -17.6525   17.0523 O   0  0  0  0  0  0  0  0  0  0  0  0
  -25.2315  -22.2119   17.0845 O   0  0  0  0  0  0  0  0  0  0  0  0
  -21.2493  -31.1708   23.0934 O   0  0  0  0  0  0  0  0  0  0  0  0
  -33.2066  -26.9457   20.0707 O   0  0  0  0  0  0  0  0  0  0  0  0
  -21.1284  -21.3175   22.4432 O   0  0  0  0  0  0  0  0  0  1  0  0
  -18.1179  -25.4742   22.0441 O   0  0  0  0  0  0  0  0  0  0  0  0
  -35.9066  -25.7355   15.4178 F   0  0  0  0  0  0  0  0  0  0  0  0
  -35.2796  -28.5419   19.1776 F   0  0  0  0  0  0  0  0  0  0  0  0
  1  2  1  0  0  0  0
  1  6  2  0  0  0  0
  2  7  2  0  0  0  0
  3  9  1  0  0  0  0
  3 10  2  0  0  0  0
  4 11  2  0  0  0  0
  4 18  1  0  0  0  0
  5 12  1  0  0  0  0
  5 18  2  0  0  0  0
  6 21  1  0  0  0  0
  7 23  1  0  0  0  0
  8 13  2  0  0  0  0
  8 22  1  0  0  0  0
  9 25  2  0  0  0  0
 10 28  1  0  0  0  0
 11 26  1  0  0  0  0
 12 26  2  0  0  0  0
 13 27  1  0  0  0  0
 14 15  2  0  0  0  0
 14 29  1  0  0  0  0
 15 30  1  0  0  0  0
 16 24  1  0  0  0  0
 16 27  2  0  0  0  0
 17 30  2  0  0  0  0
 17 31  1  0  0  0  0
 18 32  1  0  0  0  0
 19 25  1  0  0  0  0
 19 28  2  0  0  0  0
 19 35  1  0  0  0  0
 20 32  1  0  0  0  0
 20 33  2  0  0  0  0
 20 36  1  0  0  0  0
 21 23  2  0  0  0  0
 21 41  1  0  0  0  0
 22 24  2  0  0  0  0
 22 42  1  0  0  0  0
 23 50  1  0  0  0  0
 24 43  1  0  0  0  0
 25 71  1  0  0  0  0
 26 80  1  0  0  0  0
 27 81  1  0  0  0  0
 28 82  1  0  0  0  0
 29 31  2  0  0  0  0
 29 80  1  0  0  0  0
 30 83  1  0  0  0  0
 31 84  1  0  0  0  0
 32 65  2  0  0  0  0
 33 66  1  0  0  0  0
 33 69  1  0  0  0  0
 34 35  2  0  0  0  0
 36 70  1  0  0  0  0
 36 75  2  0  0  0  0
 37 51  1  0  0  0  0
 37 72  1  0  0  0  0
 37 76  2  0  0  0  0
 38 62  1  0  0  0  0
 38 67  1  0  0  0  0
 38 77  2  0  0  0  0
 39 63  1  0  0  0  0
 39 73  1  0  0  0  0
 39 78  2  0  0  0  0
 40 68  1  0  0  0  0
 40 71  1  0  0  0  0
 40 79  2  0  0  0  0
 41 44  1  0  0  0  0
 42 51  1  0  0  0  0
 43 67  1  0  0  0  0
 44 46  1  0  0  0  0
 45 47  1  0  0  0  0
 45 48  1  0  0  0  0
 46 50  1  0  0  0  0
 47 52  1  0  0  0  0
 48 68  1  0  0  0  0
 49 52  1  0  0  0  0
 49 68  1  0  0  0  0
 50 72  1  0  0  0  0
 51 67  1  0  0  0  0
 52 66  1  0  0  0  0
 53 63  1  0  0  0  0
 54 64  1  0  0  0  0
 55 64  1  0  0  0  0
 56 64  1  0  0  0  0
 57 74  1  0  0  0  0
 58 59  1  0  0  0  0
 58 60  1  0  0  0  0
 59 61  1  0  0  0  0
 60 81  1  0  0  0  0
 61 82  1  0  0  0  0
 62 64  1  0  0  0  0
 62 73  1  0  0  0  0
 63 74  1  0  0  0  0
 65 66  1  0  0  0  0
M  CHG  1  74   1
M  ISO  4  40 100  60 101  71 100  81 101
M  END
> <Batch ID>
0119

> <Smiles>
C=Cc1c([100NH:0][100C:0](=O)N2CCCC(n3nc(-c4ccc(Oc5ccc(F)cc5F)cc4)c(C(N)=O)c3N)C2)cccc1OCCC[101CH2:1][101O:1]c1ccc2c(c1)CN(C(=O)C(NC(=O)C(C)NC)C(C)(C)C)C(C(=O)NC1CCCc3ccccc31)C2

> <Shape>
0.233

> <Color>
0.071

> <Negative vol penalty>
0.000

$$$$

  -OEChem-04052301513D

 85 93  0     1  0  0  0  0  0999 V2000
  -27.6757  -18.6629   18.0861 C   0  0  0  0  0  0  0  0  0  0  0  0
  -26.7389  -19.6697   17.8761 C   0  0  0  0  0  0  0  0  0  0  0  0
  -24.7750  -16.4629   19.2855 C   0  0  0  0  0  0  0  0  0  0  0  0
  -25.8013  -15.9048   21.4003 C   0  0  0  0  0  0  0  0  0  0  0  0
  -17.9831  -27.8578   23.3090 C   0  0  0  0  0  0  0  0  0  0  0  0
  -28.6026  -18.7796   19.1210 C   0  0  0  0  0  0  0  0  0  0  0  0
  -26.7278  -20.7935   18.7017 C   0  0  0  0  0  0  0  0  0  0  0  0
  -25.3255  -27.8168   18.5525 C   0  0  0  0  0  0  0  0  0  0  0  0
  -18.8550  -28.9400   23.1900 C   0  0  0  0  0  0  0  0  0  0  0  0
  -25.8854  -15.9535   18.6123 C   0  0  0  0  0  0  0  0  0  0  0  0
  -26.9116  -15.3953   20.7271 C   0  0  0  0  0  0  0  0  0  0  0  0
  -24.5726  -28.7793   19.2238 C   0  0  0  0  0  0  0  0  0  0  0  0
  -29.8595  -13.6192   19.5551 C   0  0  0  0  0  0  0  0  0  0  0  0
  -30.3714  -12.3938   19.9815 C   0  0  0  0  0  0  0  0  0  0  0  0
  -20.5212  -27.4900   22.2111 C   0  0  0  0  0  0  0  0  0  0  0  0
  -26.2725  -28.9099   20.9305 C   0  0  0  0  0  0  0  0  0  0  0  0
  -28.2518  -11.3400   19.4978 C   0  0  0  0  0  0  0  0  0  0  0  0
  -24.7330  -16.4386   20.6796 C   0  0  0  0  0  0  0  0  0  0  0  0
  -18.3803  -26.5916   22.8792 C   0  0  0  0  0  0  0  0  0  0  0  0
  -19.6493  -26.4077   22.3302 C   0  0  0  0  0  0  0  0  0  0  0  0
  -22.4259  -16.2642   21.7541 C   0  0  0  0  0  0  0  0  0  0  0  0
  -28.6091  -19.9098   19.9536 C   0  0  0  0  0  0  0  0  0  0  0  0
  -26.5544  -27.3850   19.0718 C   0  0  0  0  0  0  0  0  0  0  0  0
  -27.6549  -20.9248   19.7495 C   0  0  0  0  0  0  0  0  0  0  0  0
  -27.0402  -27.9437   20.2625 C   0  0  0  0  0  0  0  0  0  0  0  0
  -20.1240  -28.7562   22.6410 C   0  0  0  0  0  0  0  0  0  0  0  0
  -26.9536  -15.4197   19.3330 C   0  0  0  0  0  0  0  0  0  0  0  0
  -25.0447  -29.3239   20.4145 C   0  0  0  0  0  0  0  0  0  0  0  0
  -28.5437  -13.7051   19.1001 C   0  0  0  0  0  0  0  0  0  0  0  0
  -29.5676  -11.2542   19.9528 C   0  0  0  0  0  0  0  0  0  0  0  0
  -27.7398  -12.5655   19.0715 C   0  0  0  0  0  0  0  0  0  0  0  0
  -23.5866  -16.9652   21.3756 C   0  0  0  0  0  0  0  0  0  0  0  0
  -21.6461  -17.2046   22.3816 C   0  0  0  0  0  0  0  0  0  0  0  0
  -16.2573  -25.4521   22.4215 C   0  0  0  0  0  0  0  0  0  0  0  0
  -17.4356  -25.4895   23.0233 C   0  0  0  0  0  0  0  0  0  0  0  0
  -20.1069  -25.1026   21.8664 C   0  0  0  0  0  0  0  0  0  0  0  0
  -21.1692  -24.4314   22.3532 C   0  0  0  0  0  0  0  0  0  0  0  0
  -22.1226  -29.7389   23.1553 C   0  0  0  0  0  0  0  0  0  0  0  0
  -22.0834  -14.8861   21.5561 C   0  0  0  0  0  0  0  0  0  0  0  0
  -21.5007  -23.1100   21.7832 C   0  0  0  0  0  0  0  0  0  0  0  0
  -27.7051  -24.6034   20.0929 C   0  0  0  0  0  0  0  0  0  0  0  0
  -30.4796  -26.2712   20.3007 C   0  0  0  0  0  0  0  0  0  0  0  0
  -32.0236  -29.2974   20.6247 C   0  0  0  0  0  0  0  0  0  0  0  0
  -29.6002  -19.9694   21.0890 C   0  0  0  0  0  0  0  0  0  0  0  0
  -27.3670  -26.3654   18.3217 C   0  0  0  0  0  0  0  0  0  0  0  0
  -28.3629  -27.5289   20.8514 C   0  0  0  0  0  0  0  0  0  0  0  0
  -29.7618  -21.3660   21.6837 C   0  0  0  0  0  0  0  0  0  0  0  0
  -21.9337  -21.2417   24.9063 C   0  0  0  0  0  0  0  0  0  0  0  0
  -28.3977  -22.0052   21.9236 C   0  0  0  0  0  0  0  0  0  0  0  0
  -22.3495  -19.8728   24.3744 C   0  0  0  0  0  0  0  0  0  0  0  0
  -22.4609  -22.3789   24.0326 C   0  0  0  0  0  0  0  0  0  0  0  0
  -22.5055  -20.8772   22.0620 C   0  0  0  0  0  0  0  0  0  0  0  0
  -27.6270  -22.1705   20.6083 C   0  0  1  0  0  0  0  0  0  0  0  0
  -28.3630  -25.6250   19.2089 C   0  0  1  0  0  0  0  0  0  0  0  0
  -21.9463  -19.7165   22.8996 C   0  0  1  0  0  0  0  0  0  0  0  0
  -23.3751  -31.3700   24.5111 C   0  0  0  0  0  0  0  0  0  0  0  0
  -34.3000  -30.3385   20.8022 C   0  0  0  0  0  0  0  0  0  0  0  0
  -30.6779  -25.3378   23.1988 C   0  0  0  0  0  0  0  0  0  0  0  0
  -32.3889  -27.1244   23.5841 C   0  0  0  0  0  0  0  0  0  0  0  0
  -32.8392  -25.3022   21.9412 C   0  0  0  0  0  0  0  0  0  0  0  0
  -31.6234  -30.8726   18.1513 C   0  0  0  0  0  0  0  0  0  0  0  0
  -24.4412  -30.3109   22.4923 C   0  0  0  0  0  0  0  0  0  1  0  0
  -23.1474  -30.8496   23.0973 C   0  0  1  0  0  0  0  0  0  0  0  0
  -31.1530  -27.0972   21.3699 C   0  0  1  0  0  0  0  0  0  0  0  0
  -33.1765  -29.9266   19.8636 C   0  0  2  0  0  0  0  0  0  0  0  0
  -31.7389  -26.2220   22.5137 C   0  0  0  0  0  0  0  0  0  0  0  0
  -23.5514  -18.2518   21.7328 N   0  0  0  0  0  0  0  0  0  0  0  0
  -21.0008  -29.8471   22.5208 N   0  0  0  0  0  0  0  0  0  0  0  0
  -22.3591  -18.3666   22.3422 N   0  0  0  0  0  0  0  0  0  0  0  0
  -22.1127  -22.1768   22.6182 N   0  0  0  0  0  0  0  0  0  0  0  0
  -29.1177  -26.5243   20.0841 N   0  0  0  0  0  0  0  0  0  0  0  0
  -20.4268  -17.1427   22.9578 N   0  0  0  0  0  0  0  0  0  0  0  0
  -22.9994  -14.0586   20.8924 N   0  0  0  0  0  0  0  0  0  0  0  0
  -28.1294  -23.3078   19.8676 N   0  0  0  0  0  0  0  0  0  0  0  0
  -32.1402  -27.9248   20.6852 N   0  0  0  0  0  0  0  0  0  0  0  0
  -32.7122  -31.1362   19.1271 N   0  3  0  0  0  0  0  0  0  0  0  0
  -20.9901  -14.4066   21.9414 O   0  0  0  0  0  0  0  0  0  0  0  0
  -21.2193  -22.9146   20.5995 O   0  0  0  0  0  0  0  0  0  0  0  0
  -26.8752  -24.9642   20.9192 O   0  0  0  0  0  0  0  0  0  0  0  0
  -31.1395  -25.4373   19.6755 O   0  0  0  0  0  0  0  0  0  0  0  0
  -31.1127  -29.9578   21.1194 O   0  0  0  0  0  0  0  0  0  0  0  0
  -28.0371  -14.9223   18.6764 O   0  0  0  0  0  0  0  0  0  0  0  0
  -24.3116  -30.2630   21.0720 O   0  0  0  0  0  0  0  0  0  1  0  0
  -30.0598  -10.0772   20.3609 F   0  0  0  0  0  0  0  0  0  0  0  0
  -26.4754  -12.6416   18.6343 F   0  0  0  0  0  0  0  0  0  0  0  0
  1  2  1  0  0  0  0
  1  6  2  0  0  0  0
  2  7  2  0  0  0  0
  3 10  2  0  0  0  0
  3 18  1  0  0  0  0
  4 11  1  0  0  0  0
  4 18  2  0  0  0  0
  5  9  2  0  0  0  0
  5 19  1  0  0  0  0
  6 22  1  0  0  0  0
  7 24  1  0  0  0  0
  8 12  2  0  0  0  0
  8 23  1  0  0  0  0
  9 26  1  0  0  0  0
 10 27  1  0  0  0  0
 11 27  2  0  0  0  0
 12 28  1  0  0  0  0
 13 14  2  0  0  0  0
 13 29  1  0  0  0  0
 14 30  1  0  0  0  0
 15 20  1  0  0  0  0
 15 26  2  0  0  0  0
 16 25  1  0  0  0  0
 16 28  2  0  0  0  0
 17 30  2  0  0  0  0
 17 31  1  0  0  0  0
 18 32  1  0  0  0  0
 19 20  2  0  0  0  0
 19 35  1  0  0  0  0
 20 36  1  0  0  0  0
 21 32  1  0  0  0  0
 21 33  2  0  0  0  0
 21 39  1  0  0  0  0
 22 24  2  0  0  0  0
 22 44  1  0  0  0  0
 23 25  2  0  0  0  0
 23 45  1  0  0  0  0
 24 53  1  0  0  0  0
 25 46  1  0  0  0  0
 26 68  1  0  0  0  0
 27 82  1  0  0  0  0
 28 83  1  0  0  0  0
 29 31  2  0  0  0  0
 29 82  1  0  0  0  0
 30 84  1  0  0  0  0
 31 85  1  0  0  0  0
 32 67  2  0  0  0  0
 33 69  1  0  0  0  0
 33 72  1  0  0  0  0
 34 35  2  0  0  0  0
 36 37  2  0  0  0  0
 37 40  1  0  0  0  0
 38 63  1  0  0  0  0
 38 68  2  0  0  0  0
 39 73  1  0  0  0  0
 39 77  2  0  0  0  0
 40 70  1  0  0  0  0
 40 78  2  0  0  0  0
 41 54  1  0  0  0  0
 41 74  1  0  0  0  0
 41 79  2  0  0  0  0
 42 64  1  0  0  0  0
 42 71  1  0  0  0  0
 42 80  2  0  0  0  0
 43 65  1  0  0  0  0
 43 75  1  0  0  0  0
 43 81  2  0  0  0  0
 44 47  1  0  0  0  0
 45 54  1  0  0  0  0
 46 71  1  0  0  0  0
 47 49  1  0  0  0  0
 48 50  1  0  0  0  0
 48 51  1  0  0  0  0
 49 53  1  0  0  0  0
 50 55  1  0  0  0  0
 51 70  1  0  0  0  0
 52 55  1  0  0  0  0
 52 70  1  0  0  0  0
 53 74  1  0  0  0  0
 54 71  1  0  0  0  0
 55 69  1  0  0  0  0
 56 63  1  0  0  0  0
 57 65  1  0  0  0  0
 58 66  1  0  0  0  0
 59 66  1  0  0  0  0
 60 66  1  0  0  0  0
 61 76  1  0  0  0  0
 62 63  1  0  0  0  0
 62 83  1  0  0  0  0
 64 66  1  0  0  0  0
 64 75  1  0  0  0  0
 65 76  1  0  0  0  0
 67 69  1  0  0  0  0
M  CHG  1  76   1
M  ISO  4  37 100  40 100  62 101  83 101
M  END
> <Batch ID>
0119

> <Smiles>
C=Cc1ccc(NC=C(C)[101CH2:1][101O:1]c2ccc3c(c2)CN(C(=O)C(NC(=O)C(C)NC)C(C)(C)C)C(C(=O)NC2CCCc4ccccc42)C3)cc1C=[100CH:0][100C:0](=O)N1CCCC(n2nc(-c3ccc(Oc4ccc(F)cc4F)cc3)c(C(N)=O)c2N)C1

> <Shape>
0.260

> <Color>
0.068

> <Negative vol penalty>
0.000

$$$$

  -OEChem-04052301513D

 86 94  0     1  0  0  0  0  0999 V2000
  -33.0231  -17.6056   19.7039 C   0  0  0  0  0  0  0  0  0  0  0  0
  -31.7277  -18.0127   19.4011 C   0  0  0  0  0  0  0  0  0  0  0  0
  -29.6756  -27.9310   22.2120 C   0  0  0  0  0  0  0  0  0  0  0  0
  -27.7605  -27.6655   20.7632 C   0  0  0  0  0  0  0  0  0  0  0  0
  -33.3718  -16.2596   19.6000 C   0  0  0  0  0  0  0  0  0  0  0  0
  -30.7806  -17.0741   18.9930 C   0  0  0  0  0  0  0  0  0  0  0  0
  -26.3086  -17.7046   21.2842 C   0  0  0  0  0  0  0  0  0  0  0  0
  -30.3977  -27.0370   21.4214 C   0  0  0  0  0  0  0  0  0  0  0  0
  -28.4826  -26.7715   19.9726 C   0  0  0  0  0  0  0  0  0  0  0  0
  -25.4888  -18.7276   20.8097 C   0  0  0  0  0  0  0  0  0  0  0  0
  -29.4047  -23.5210   20.0949 C   0  0  0  0  0  0  0  0  0  0  0  0
  -28.7672  -22.3454   19.6987 C   0  0  0  0  0  0  0  0  0  0  0  0
  -19.1618  -27.7776   21.1779 C   0  0  0  0  0  0  0  0  0  0  0  0
  -19.3383  -29.0124   23.2470 C   0  0  0  0  0  0  0  0  0  0  0  0
  -20.1534  -26.7415   23.1222 C   0  0  0  0  0  0  0  0  0  0  0  0
  -24.2044  -17.1113   19.5619 C   0  0  0  0  0  0  0  0  0  0  0  0
  -29.0645  -22.9649   17.3824 C   0  0  0  0  0  0  0  0  0  0  0  0
  -28.3570  -28.2452   21.8829 C   0  0  0  0  0  0  0  0  0  0  0  0
  -18.9489  -28.9461   21.9092 C   0  0  0  0  0  0  0  0  0  0  0  0
  -19.7640  -26.6753   21.7844 C   0  0  0  0  0  0  0  0  0  0  0  0
  -27.5313  -30.5655   22.5478 C   0  0  0  0  0  0  0  0  0  0  0  0
  -32.4259  -15.3028   19.1998 C   0  0  0  0  0  0  0  0  0  0  0  0
  -26.0888  -16.3764   20.8917 C   0  0  0  0  0  0  0  0  0  0  0  0
  -31.1173  -15.7143   18.8824 C   0  0  0  0  0  0  0  0  0  0  0  0
  -25.0213  -16.0730   20.0348 C   0  0  0  0  0  0  0  0  0  0  0  0
  -19.9406  -27.9100   23.8535 C   0  0  0  0  0  0  0  0  0  0  0  0
  -29.8012  -26.4573   20.3017 C   0  0  0  0  0  0  0  0  0  0  0  0
  -24.4382  -18.4314   19.9462 C   0  0  0  0  0  0  0  0  0  0  0  0
  -29.8721  -24.4187   19.1349 C   0  0  0  0  0  0  0  0  0  0  0  0
  -28.5971  -22.0673   18.3424 C   0  0  0  0  0  0  0  0  0  0  0  0
  -29.7020  -24.1406   17.7787 C   0  0  0  0  0  0  0  0  0  0  0  0
  -27.6105  -29.1682   22.6995 C   0  0  0  0  0  0  0  0  0  0  0  0
  -26.7041  -30.9750   23.5648 C   0  0  0  0  0  0  0  0  0  0  0  0
  -18.5936  -31.3530   21.5989 C   0  0  0  0  0  0  0  0  0  0  0  0
  -18.3213  -30.0959   21.2767 C   0  0  0  0  0  0  0  0  0  0  0  0
  -19.9892  -25.4421   21.0125 C   0  0  0  0  0  0  0  0  0  0  0  0
  -20.1929  -24.2260   21.5426 C   0  0  0  0  0  0  0  0  0  0  0  0
  -28.1502  -31.4172   21.5744 C   0  0  0  0  0  0  0  0  0  0  0  0
  -27.7745  -14.1979   19.3055 C   0  0  0  0  0  0  0  0  0  0  0  0
  -25.3044  -12.2597   20.1203 C   0  0  0  0  0  0  0  0  0  0  0  0
  -22.0233  -11.9676   21.0127 C   0  0  0  0  0  0  0  0  0  0  0  0
  -22.3969  -28.2172   26.6783 C   0  0  0  0  0  0  0  0  0  0  0  0
  -32.8623  -13.8662   19.0566 C   0  0  0  0  0  0  0  0  0  0  0  0
  -26.9658  -15.2810   21.4336 C   0  0  0  0  0  0  0  0  0  0  0  0
  -24.7306  -14.6607   19.5995 C   0  0  0  0  0  0  0  0  0  0  0  0
  -31.6989  -12.8811   18.9781 C   0  0  0  0  0  0  0  0  0  0  0  0
  -25.3233  -29.7689   27.9841 C   0  0  0  0  0  0  0  0  0  0  0  0
  -30.6404  -13.3818   18.0005 C   0  0  0  0  0  0  0  0  0  0  0  0
  -26.2342  -29.9170   26.7641 C   0  0  0  0  0  0  0  0  0  0  0  0
  -24.5176  -28.4726   27.9328 C   0  0  0  0  0  0  0  0  0  0  0  0
  -24.6556  -28.4206   25.4727 C   0  0  0  0  0  0  0  0  0  0  0  0
  -30.0551  -14.7226   18.4602 C   0  0  1  0  0  0  0  0  0  0  0  0
  -26.9665  -14.0296   20.5611 C   0  0  1  0  0  0  0  0  0  0  0  0
  -25.4470  -29.7395   25.4518 C   0  0  2  0  0  0  0  0  0  0  0  0
  -20.2802  -10.2525   21.5759 C   0  0  0  0  0  0  0  0  0  0  0  0
  -25.0439  -11.5569   17.1626 C   0  0  0  0  0  0  0  0  0  0  0  0
  -22.7683  -10.6354   17.6536 C   0  0  0  0  0  0  0  0  0  0  0  0
  -24.7805   -9.6197   18.7223 C   0  0  0  0  0  0  0  0  0  0  0  0
  -21.6434  -13.0769   23.7301 C   0  0  0  0  0  0  0  0  0  0  0  0
  -20.3578  -27.9809   25.2836 C   0  0  0  0  0  0  0  0  0  0  0  0
  -20.4272  -22.9928   20.7162 C   0  0  0  0  0  0  0  0  0  0  0  0
  -21.8135  -22.3804   20.9399 C   0  0  0  0  0  0  0  0  0  0  0  0
  -22.0824  -21.1658   20.0503 C   0  0  0  0  0  0  0  0  0  0  0  0
  -23.4522  -20.5616   20.3281 C   0  0  0  0  0  0  0  0  0  1  0  0
  -23.9819  -11.8917   19.4920 C   0  0  1  0  0  0  0  0  0  0  0  0
  -21.3477  -11.1861   22.1250 C   0  0  2  0  0  0  0  0  0  0  0  0
  -24.1501  -10.9529   18.2641 C   0  0  0  0  0  0  0  0  0  0  0  0
  -26.8910  -28.7201   23.7318 N   0  0  0  0  0  0  0  0  0  0  0  0
  -26.3520  -29.8423   24.2379 N   0  0  0  0  0  0  0  0  0  0  0  0
  -25.6200  -13.6254   20.1513 N   0  0  0  0  0  0  0  0  0  0  0  0
  -23.7935  -28.3664   26.6638 N   0  0  0  0  0  0  0  0  0  0  0  0
  -26.2508  -32.1900   23.9402 N   0  0  0  0  0  0  0  0  0  0  0  0
  -28.9697  -30.8322   20.5995 N   0  0  0  0  0  0  0  0  0  0  0  0
  -29.1003  -14.5176   19.5283 N   0  0  0  0  0  0  0  0  0  0  0  0
  -23.1624  -11.3343   20.5626 N   0  0  0  0  0  0  0  0  0  0  0  0
  -21.7883  -28.1303   25.4322 N   0  0  0  0  0  0  0  0  0  0  0  0
  -20.7043  -12.1167   23.0951 N   0  3  0  0  0  0  0  0  0  0  0  0
  -27.9945  -32.6619   21.5793 O   0  0  0  0  0  0  0  0  0  0  0  0
  -27.2355  -14.0473   18.2153 O   0  0  0  0  0  0  0  0  0  0  0  0
  -26.0273  -11.3689   20.5735 O   0  0  0  0  0  0  0  0  0  0  0  0
  -21.5825  -13.0315   20.5834 O   0  0  0  0  0  0  0  0  0  0  0  0
  -21.7404  -28.1705   27.7241 O   0  0  0  0  0  0  0  0  0  0  0  0
  -30.5055  -25.5850   19.5299 O   0  0  0  0  0  0  0  0  0  0  0  0
  -23.6368  -19.4281   19.4811 O   0  0  0  0  0  0  0  0  0  1  0  0
  -27.9862  -20.9376   17.9620 F   0  0  0  0  0  0  0  0  0  0  0  0
  -30.1499  -24.9985   16.8518 F   0  0  0  0  0  0  0  0  0  0  0  0
  1  2  1  0  0  0  0
  1  5  2  0  0  0  0
  2  6  2  0  0  0  0
  3  8  2  0  0  0  0
  3 18  1  0  0  0  0
  4  9  1  0  0  0  0
  4 18  2  0  0  0  0
  5 22  1  0  0  0  0
  6 24  1  0  0  0  0
  7 10  2  0  0  0  0
  7 23  1  0  0  0  0
  8 27  1  0  0  0  0
  9 27  2  0  0  0  0
 10 28  1  0  0  0  0
 11 12  2  0  0  0  0
 11 29  1  0  0  0  0
 12 30  1  0  0  0  0
 13 19  1  0  0  0  0
 13 20  2  0  0  0  0
 14 19  2  0  0  0  0
 14 26  1  0  0  0  0
 15 20  1  0  0  0  0
 15 26  2  0  0  0  0
 16 25  1  0  0  0  0
 16 28  2  0  0  0  0
 17 30  2  0  0  0  0
 17 31  1  0  0  0  0
 18 32  1  0  0  0  0
 19 35  1  0  0  0  0
 20 36  1  0  0  0  0
 21 32  1  0  0  0  0
 21 33  2  0  0  0  0
 21 38  1  0  0  0  0
 22 24  2  0  0  0  0
 22 43  1  0  0  0  0
 23 25  2  0  0  0  0
 23 44  1  0  0  0  0
 24 52  1  0  0  0  0
 25 45  1  0  0  0  0
 26 60  1  0  0  0  0
 27 83  1  0  0  0  0
 28 84  1  0  0  0  0
 29 31  2  0  0  0  0
 29 83  1  0  0  0  0
 30 85  1  0  0  0  0
 31 86  1  0  0  0  0
 32 68  2  0  0  0  0
 33 69  1  0  0  0  0
 33 72  1  0  0  0  0
 34 35  2  0  0  0  0
 36 37  2  0  0  0  0
 37 61  1  0  0  0  0
 38 73  1  0  0  0  0
 38 78  2  0  0  0  0
 39 53  1  0  0  0  0
 39 74  1  0  0  0  0
 39 79  2  0  0  0  0
 40 65  1  0  0  0  0
 40 70  1  0  0  0  0
 40 80  2  0  0  0  0
 41 66  1  0  0  0  0
 41 75  1  0  0  0  0
 41 81  2  0  0  0  0
 42 71  1  0  0  0  0
 42 76  1  0  0  0  0
 42 82  2  0  0  0  0
 43 46  1  0  0  0  0
 44 53  1  0  0  0  0
 45 70  1  0  0  0  0
 46 48  1  0  0  0  0
 47 49  1  0  0  0  0
 47 50  1  0  0  0  0
 48 52  1  0  0  0  0
 49 54  1  0  0  0  0
 50 71  1  0  0  0  0
 51 54  1  0  0  0  0
 51 71  1  0  0  0  0
 52 74  1  0  0  0  0
 53 70  1  0  0  0  0
 54 69  1  0  0  0  0
 55 66  1  0  0  0  0
 56 67  1  0  0  0  0
 57 67  1  0  0  0  0
 58 67  1  0  0  0  0
 59 77  1  0  0  0  0
 60 76  1  0  0  0  0
 61 62  1  0  0  0  0
 62 63  1  0  0  0  0
 63 64  1  0  0  0  0
 64 84  1  0  0  0  0
 65 67  1  0  0  0  0
 65 75  1  0  0  0  0
 66 77  1  0  0  0  0
 68 69  1  0  0  0  0
M  CHG  1  77   1
M  ISO  4  42 100  64 101  76 100  84 101
M  END
> <Batch ID>
0119

> <Smiles>
C=Cc1cc(C=CCCC[101CH2:1][101O:1]c2ccc3c(c2)CN(C(=O)C(NC(=O)C(C)NC)C(C)(C)C)C(C(=O)NC2CCCc4ccccc42)C3)cc(C[100NH:0][100C:0](=O)N2CCCC(n3nc(-c4ccc(Oc5ccc(F)cc5F)cc4)c(C(N)=O)c3N)C2)c1

> <Shape>
0.248

> <Color>
0.053

> <Negative vol penalty>
0.000

$$$$

  -OEChem-04052301513D

 82 90  0     1  0  0  0  0  0999 V2000
  -24.5108  -17.9651   21.6187 C   0  0  0  0  0  0  0  0  0  0  0  0
  -25.1276  -19.0774   21.0550 C   0  0  0  0  0  0  0  0  0  0  0  0
  -26.3500  -12.9752   21.4231 C   0  0  0  0  0  0  0  0  0  0  0  0
  -26.2285  -13.4972   19.0673 C   0  0  0  0  0  0  0  0  0  0  0  0
  -23.1435  -17.9905   21.8903 C   0  0  0  0  0  0  0  0  0  0  0  0
  -24.3771  -20.2155   20.7617 C   0  0  0  0  0  0  0  0  0  0  0  0
  -26.6794  -24.4873   22.2095 C   0  0  0  0  0  0  0  0  0  0  0  0
  -28.6523  -21.3627   15.0591 C   0  0  0  0  0  0  0  0  0  0  0  0
  -29.0433  -20.5317   16.1089 C   0  0  0  0  0  0  0  0  0  0  0  0
  -25.1094  -12.3423   21.3469 C   0  0  0  0  0  0  0  0  0  0  0  0
  -24.9878  -12.8643   18.9911 C   0  0  0  0  0  0  0  0  0  0  0  0
  -27.7067  -24.9640   21.3965 C   0  0  0  0  0  0  0  0  0  0  0  0
  -23.8896   -9.3705   20.2918 C   0  0  0  0  0  0  0  0  0  0  0  0
  -23.7542   -8.1317   20.9183 C   0  0  0  0  0  0  0  0  0  0  0  0
  -26.1827  -26.5551   20.4140 C   0  0  0  0  0  0  0  0  0  0  0  0
  -29.0455  -22.4263   17.6080 C   0  0  0  0  0  0  0  0  0  0  0  0
  -22.0049   -9.0320   22.3206 C   0  0  0  0  0  0  0  0  0  0  0  0
  -26.9096  -13.5527   20.2833 C   0  0  0  0  0  0  0  0  0  0  0  0
  -29.4570  -13.6231   20.1666 C   0  0  0  0  0  0  0  0  0  0  0  0
  -22.3778  -19.1329   21.6091 C   0  0  0  0  0  0  0  0  0  0  0  0
  -25.3911  -25.0345   22.1231 C   0  0  0  0  0  0  0  0  0  0  0  0
  -22.9980  -20.2557   21.0286 C   0  0  0  0  0  0  0  0  0  0  0  0
  -25.1414  -26.0853   21.2289 C   0  0  0  0  0  0  0  0  0  0  0  0
  -28.4580  -22.7257   15.2838 C   0  0  0  0  0  0  0  0  0  0  0  0
  -29.2399  -21.0634   17.3833 C   0  0  0  0  0  0  0  0  0  0  0  0
  -24.4283  -12.2869   20.1309 C   0  0  0  0  0  0  0  0  0  0  0  0
  -27.4578  -25.9961   20.4965 C   0  0  0  0  0  0  0  0  0  0  0  0
  -23.0826  -10.4401   20.6797 C   0  0  0  0  0  0  0  0  0  0  0  0
  -28.6545  -23.2574   16.5582 C   0  0  0  0  0  0  0  0  0  0  0  0
  -22.8119   -7.9624   21.9327 C   0  0  0  0  0  0  0  0  0  0  0  0
  -22.1403  -10.2709   21.6940 C   0  0  0  0  0  0  0  0  0  0  0  0
  -28.1909  -14.2070   20.3615 C   0  0  0  0  0  0  0  0  0  0  0  0
  -30.3434  -14.6564   20.3490 C   0  0  0  0  0  0  0  0  0  0  0  0
  -29.8010  -12.2680   19.8490 C   0  0  0  0  0  0  0  0  0  0  0  0
  -22.5218  -23.9056   21.3509 C   0  0  0  0  0  0  0  0  0  0  0  0
  -21.5430  -26.8589   22.2688 C   0  0  0  0  0  0  0  0  0  0  0  0
  -22.3178  -30.1467   22.7552 C   0  0  0  0  0  0  0  0  0  0  0  0
  -29.8758  -20.5856   19.7736 C   0  0  0  0  0  0  0  0  0  0  0  0
  -20.8939  -19.0961   21.8766 C   0  0  0  0  0  0  0  0  0  0  0  0
  -24.3004  -24.5272   23.0261 C   0  0  0  0  0  0  0  0  0  0  0  0
  -23.7808  -26.7206   21.1120 C   0  0  0  0  0  0  0  0  0  0  0  0
  -20.2417  -20.4763   21.8821 C   0  0  0  0  0  0  0  0  0  0  0  0
  -30.8331  -18.7991   22.7010 C   0  0  0  0  0  0  0  0  0  0  0  0
  -20.7064  -21.2912   20.6793 C   0  0  0  0  0  0  0  0  0  0  0  0
  -30.3849  -17.3644   22.4130 C   0  0  0  0  0  0  0  0  0  0  0  0
  -29.8497  -19.8242   22.1389 C   0  0  0  0  0  0  0  0  0  0  0  0
  -29.0824  -18.2277   20.4267 C   0  0  0  0  0  0  0  0  0  0  0  0
  -22.2225  -21.5178   20.7190 C   0  0  1  0  0  0  0  0  0  0  0  0
  -22.9006  -24.8100   22.4894 C   0  0  1  0  0  0  0  0  0  0  0  0
  -30.0745  -17.1605   20.9171 C   0  0  2  0  0  0  0  0  0  0  0  0
  -28.0397  -23.6001   14.1483 C   0  0  0  0  0  0  0  0  0  0  0  0
  -21.3003  -32.3247   23.4754 C   0  0  0  0  0  0  0  0  0  0  0  0
  -20.1593  -27.1052   19.5606 C   0  0  0  0  0  0  0  0  0  0  0  0
  -19.9927  -29.5730   19.9483 C   0  0  0  0  0  0  0  0  0  0  0  0
  -18.8381  -27.9891   21.4913 C   0  0  0  0  0  0  0  0  0  0  0  0
  -24.1732  -30.3885   25.0482 C   0  0  0  0  0  0  0  0  0  0  0  0
  -29.2231  -26.7896   17.4362 C   0  0  0  0  0  0  0  0  0  0  0  0
  -28.0856  -26.9842   18.4264 C   0  0  0  0  0  0  0  0  0  1  0  0
  -29.5910  -25.3232   17.2734 C   0  0  0  0  0  0  0  0  0  0  0  0
  -21.3572  -28.1870   21.5757 C   0  0  1  0  0  0  0  0  0  0  0  0
  -22.0544  -31.0818   23.9217 C   0  0  2  0  0  0  0  0  0  0  0  0
  -20.1121  -28.2005   20.6446 C   0  0  0  0  0  0  0  0  0  0  0  0
  -28.2624  -15.5101   20.6461 N   0  0  0  0  0  0  0  0  0  0  0  0
  -29.5840  -15.7535   20.6314 N   0  0  0  0  0  0  0  0  0  0  0  0
  -22.7457  -26.1856   22.0118 N   0  0  0  0  0  0  0  0  0  0  0  0
  -29.6071  -19.5713   20.7169 N   0  0  0  0  0  0  0  0  0  0  0  0
  -31.6905  -14.7243   20.2938 N   0  0  0  0  0  0  0  0  0  0  0  0
  -28.7669  -11.3344   19.6962 N   0  0  0  0  0  0  0  0  0  0  0  0
  -29.6379  -20.2191   18.4494 N   0  0  0  0  0  0  0  0  0  0  0  0
  -22.5530  -22.5607   21.6664 N   0  0  0  0  0  0  0  0  0  0  0  0
  -21.3268  -29.1963   22.6287 N   0  0  0  0  0  0  0  0  0  0  0  0
  -23.3397  -31.5097   24.5430 N   0  3  0  0  0  0  0  0  0  0  0  0
  -30.9910  -11.8924   19.7211 O   0  0  0  0  0  0  0  0  0  0  0  0
  -22.2218  -24.3921   20.2669 O   0  0  0  0  0  0  0  0  0  0  0  0
  -20.6569  -26.4378   23.0166 O   0  0  0  0  0  0  0  0  0  0  0  0
  -23.3020  -30.2515   22.0266 O   0  0  0  0  0  0  0  0  0  0  0  0
  -30.3127  -21.6882   20.1131 O   0  0  0  0  0  0  0  0  0  0  0  0
  -23.2177  -11.6692   20.0561 O   0  0  0  0  0  0  0  0  0  0  0  0
  -28.4586  -26.4628   19.7013 O   0  0  0  0  0  0  0  0  0  1  0  0
  -28.4682  -24.5944   16.7958 O   0  0  0  0  0  0  0  0  0  0  0  0
  -22.6809   -6.7723   22.5332 F   0  0  0  0  0  0  0  0  0  0  0  0
  -21.3614  -11.2944   22.0701 F   0  0  0  0  0  0  0  0  0  0  0  0
  1  2  1  0  0  0  0
  1  5  2  0  0  0  0
  2  6  2  0  0  0  0
  3 10  2  0  0  0  0
  3 18  1  0  0  0  0
  4 11  1  0  0  0  0
  4 18  2  0  0  0  0
  5 20  1  0  0  0  0
  6 22  1  0  0  0  0
  7 12  2  0  0  0  0
  7 21  1  0  0  0  0
  8  9  2  0  0  0  0
  8 24  1  0  0  0  0
  9 25  1  0  0  0  0
 10 26  1  0  0  0  0
 11 26  2  0  0  0  0
 12 27  1  0  0  0  0
 13 14  2  0  0  0  0
 13 28  1  0  0  0  0
 14 30  1  0  0  0  0
 15 23  1  0  0  0  0
 15 27  2  0  0  0  0
 16 25  2  0  0  0  0
 16 29  1  0  0  0  0
 17 30  2  0  0  0  0
 17 31  1  0  0  0  0
 18 32  1  0  0  0  0
 19 32  1  0  0  0  0
 19 33  2  0  0  0  0
 19 34  1  0  0  0  0
 20 22  2  0  0  0  0
 20 39  1  0  0  0  0
 21 23  2  0  0  0  0
 21 40  1  0  0  0  0
 22 48  1  0  0  0  0
 23 41  1  0  0  0  0
 24 29  2  0  0  0  0
 24 51  1  0  0  0  0
 25 69  1  0  0  0  0
 26 78  1  0  0  0  0
 27 79  1  0  0  0  0
 28 31  2  0  0  0  0
 28 78  1  0  0  0  0
 29 80  1  0  0  0  0
 30 81  1  0  0  0  0
 31 82  1  0  0  0  0
 32 63  2  0  0  0  0
 33 64  1  0  0  0  0
 33 67  1  0  0  0  0
 34 68  1  0  0  0  0
 34 73  2  0  0  0  0
 35 49  1  0  0  0  0
 35 70  1  0  0  0  0
 35 74  2  0  0  0  0
 36 60  1  0  0  0  0
 36 65  1  0  0  0  0
 36 75  2  0  0  0  0
 37 61  1  0  0  0  0
 37 71  1  0  0  0  0
 37 76  2  0  0  0  0
 38 66  1  0  0  0  0
 38 69  1  0  0  0  0
 38 77  2  0  0  0  0
 39 42  1  0  0  0  0
 40 49  1  0  0  0  0
 41 65  1  0  0  0  0
 42 44  1  0  0  0  0
 43 45  1  0  0  0  0
 43 46  1  0  0  0  0
 44 48  1  0  0  0  0
 45 50  1  0  0  0  0
 46 66  1  0  0  0  0
 47 50  1  0  0  0  0
 47 66  1  0  0  0  0
 48 70  1  0  0  0  0
 49 65  1  0  0  0  0
 50 64  1  0  0  0  0
 52 61  1  0  0  0  0
 53 62  1  0  0  0  0
 54 62  1  0  0  0  0
 55 62  1  0  0  0  0
 56 72  1  0  0  0  0
 57 58  1  0  0  0  0
 57 59  1  0  0  0  0
 58 79  1  0  0  0  0
 59 80  1  0  0  0  0
 60 62  1  0  0  0  0
 60 71  1  0  0  0  0
 61 72  1  0  0  0  0
 63 64  1  0  0  0  0
M  CHG  1  72   1
M  ISO  4  38 100  58 101  69 100  79 101
M  END
> <Batch ID>
0119

> <Smiles>
CNC(C)C(=O)NC(C(=O)N1Cc2cc([101O:1][101CH2:1]CCOc3cc([100NH:0][100C:0](=O)N4CCCC(n5nc(-c6ccc(Oc7ccc(F)cc7F)cc6)c(C(N)=O)c5N)C4)ccc3C)ccc2CC1C(=O)NC1CCCc2ccccc21)C(C)(C)C

> <Shape>
0.236

> <Color>
0.086

> <Negative vol penalty>
0.000

$$$$

  -OEChem-04052301513D

 86 95  0     1  0  0  0  0  0999 V2000
  -31.1491  -22.1617   16.8684 C   0  0  0  0  0  0  0  0  0  0  0  0
  -30.4546  -23.2657   16.3870 C   0  0  0  0  0  0  0  0  0  0  0  0
  -24.3074  -15.3507   20.1305 C   0  0  0  0  0  0  0  0  0  0  0  0
  -24.6975  -14.4324   22.3309 C   0  0  0  0  0  0  0  0  0  0  0  0
  -30.8498  -21.6505   18.1295 C   0  0  0  0  0  0  0  0  0  0  0  0
  -29.4690  -23.8661   17.1712 C   0  0  0  0  0  0  0  0  0  0  0  0
  -23.7324  -29.0226   19.1011 C   0  0  0  0  0  0  0  0  0  0  0  0
  -21.8801  -25.0445   24.3428 C   0  0  0  0  0  0  0  0  0  0  0  0
  -22.9100  -24.1277   24.5533 C   0  0  0  0  0  0  0  0  0  0  0  0
  -23.4139  -14.3152   19.8568 C   0  0  0  0  0  0  0  0  0  0  0  0
  -23.8040  -13.3969   22.0572 C   0  0  0  0  0  0  0  0  0  0  0  0
  -22.6548  -29.2163   19.9642 C   0  0  0  0  0  0  0  0  0  0  0  0
  -23.8185  -10.4806   20.3466 C   0  0  0  0  0  0  0  0  0  0  0  0
  -24.2007   -9.1855   20.6959 C   0  0  0  0  0  0  0  0  0  0  0  0
  -24.1103  -28.8533   21.8533 C   0  0  0  0  0  0  0  0  0  0  0  0
  -21.8208  -24.4411   22.0041 C   0  0  0  0  0  0  0  0  0  0  0  0
  -22.2833   -9.0133   22.1557 C   0  0  0  0  0  0  0  0  0  0  0  0
  -24.9493  -15.4093   21.3675 C   0  0  0  0  0  0  0  0  0  0  0  0
  -27.0567  -16.7860   20.9537 C   0  0  0  0  0  0  0  0  0  0  0  0
  -29.8513  -22.2379   18.9238 C   0  0  0  0  0  0  0  0  0  0  0  0
  -25.0070  -28.7315   19.6081 C   0  0  0  0  0  0  0  0  0  0  0  0
  -29.1690  -23.3796   18.4564 C   0  0  0  0  0  0  0  0  0  0  0  0
  -25.2030  -28.6589   20.9946 C   0  0  0  0  0  0  0  0  0  0  0  0
  -22.8508  -23.5243   22.2146 C   0  0  0  0  0  0  0  0  0  0  0  0
  -21.3354  -25.2012   23.0682 C   0  0  0  0  0  0  0  0  0  0  0  0
  -23.3954  -23.3676   23.4892 C   0  0  0  0  0  0  0  0  0  0  0  0
  -23.1621  -13.3383   20.8201 C   0  0  0  0  0  0  0  0  0  0  0  0
  -22.8430  -29.1288   21.3404 C   0  0  0  0  0  0  0  0  0  0  0  0
  -22.6687  -11.0422   20.9019 C   0  0  0  0  0  0  0  0  0  0  0  0
  -23.4331   -8.4518   21.6005 C   0  0  0  0  0  0  0  0  0  0  0  0
  -21.9011  -10.3086   21.8064 C   0  0  0  0  0  0  0  0  0  0  0  0
  -25.8728  -16.4784   21.6507 C   0  0  0  0  0  0  0  0  0  0  0  0
  -27.5675  -17.8789   21.6103 C   0  0  0  0  0  0  0  0  0  0  0  0
  -18.2532  -26.7834   21.7104 C   0  0  0  0  0  0  0  0  0  0  0  0
  -27.6422  -16.1415   19.8146 C   0  0  0  0  0  0  0  0  0  0  0  0
  -27.0159  -26.2813   19.3549 C   0  0  0  0  0  0  0  0  0  0  0  0
  -29.0054  -28.2462   20.9991 C   0  0  0  0  0  0  0  0  0  0  0  0
  -28.7441  -30.5331   23.7775 C   0  0  0  0  0  0  0  0  0  0  0  0
  -25.0787  -22.1751   24.9350 C   0  0  0  0  0  0  0  0  0  0  0  0
  -29.5735  -21.6486   20.2842 C   0  0  0  0  0  0  0  0  0  0  0  0
  -26.1646  -28.5517   18.6647 C   0  0  0  0  0  0  0  0  0  0  0  0
  -26.5557  -28.3689   21.5901 C   0  0  0  0  0  0  0  0  0  0  0  0
  -18.2308  -28.1048   22.4407 C   0  0  0  0  0  0  0  0  0  0  0  0
  -19.0132  -25.6456   22.3535 C   0  0  0  0  0  0  0  0  0  0  0  0
  -28.2220  -22.0716   20.8507 C   0  0  0  0  0  0  0  0  0  0  0  0
  -27.6678  -19.9428   25.9305 C   0  0  0  0  0  0  0  0  0  0  0  0
  -28.0640  -23.5811   20.7458 C   0  0  0  0  0  0  0  0  0  0  0  0
  -27.6130  -18.8322   24.8791 C   0  0  0  0  0  0  0  0  0  0  0  0
  -26.2742  -20.4617   26.2805 C   0  0  0  0  0  0  0  0  0  0  0  0
  -20.2975  -27.3509   23.6594 C   0  0  0  0  0  0  0  0  0  0  0  0
  -25.4070  -19.7715   24.0803 C   0  0  0  0  0  0  0  0  0  0  0  0
  -28.0717  -24.0304   19.2791 C   0  0  1  0  0  0  0  0  0  0  0  0
  -27.3125  -27.7520   19.2730 C   0  0  1  0  0  0  0  0  0  0  0  0
  -19.6370  -28.4997   22.8868 C   0  0  1  0  0  0  0  0  0  0  0  0
  -26.7915  -19.2618   23.6478 C   0  0  2  0  0  0  0  0  0  0  0  0
  -23.3502  -22.7224   21.0567 C   0  0  0  0  0  0  0  0  0  0  0  0
  -30.1031  -32.5625   24.3535 C   0  0  0  0  0  0  0  0  0  0  0  0
  -30.6337  -26.3135   22.7089 C   0  0  0  0  0  0  0  0  0  0  0  0
  -30.8298  -28.1158   24.4356 C   0  0  0  0  0  0  0  0  0  0  0  0
  -31.7983  -28.4581   22.1624 C   0  0  0  0  0  0  0  0  0  0  0  0
  -26.3383  -32.2523   23.9002 C   0  0  0  0  0  0  0  0  0  0  0  0
  -20.4994  -28.9527   21.7044 C   0  0  0  0  0  0  0  0  0  1  0  0
  -29.2880  -28.5028   22.4597 C   0  0  1  0  0  0  0  0  0  0  0  0
  -28.8210  -32.0480   23.7179 C   0  0  2  0  0  0  0  0  0  0  0  0
  -30.6119  -27.8388   22.9328 C   0  0  0  0  0  0  0  0  0  0  0  0
  -25.6451  -17.3087   22.6718 N   0  0  0  0  0  0  0  0  0  0  0  0
  -26.6929  -18.1487   22.6214 N   0  0  0  0  0  0  0  0  0  0  0  0
  -20.3016  -26.1207   22.8574 N   0  0  1  0  0  0  0  0  0  0  0  0
  -27.6548  -28.1945   20.6263 N   0  0  0  0  0  0  0  0  0  0  0  0
  -25.5564  -20.8539   25.0656 N   0  0  0  0  0  0  0  0  0  0  0  0
  -28.6751  -18.6257   21.4156 N   0  0  0  0  0  0  0  0  0  0  0  0
  -26.9862  -15.0319   19.2643 N   0  0  0  0  0  0  0  0  0  0  0  0
  -24.4409  -22.4405   23.7237 N   0  0  0  0  0  0  0  0  0  0  0  0
  -28.1307  -25.4746   19.2281 N   0  0  0  0  0  0  0  0  0  0  0  0
  -29.2499  -29.9507   22.6346 N   0  0  0  0  0  0  0  0  0  0  0  0
  -27.6643  -32.6540   24.4362 N   0  3  0  0  0  0  0  0  0  0  0  0
  -17.5855  -26.6088   20.6907 O   0  0  0  0  0  0  0  0  0  0  0  0
  -28.7237  -16.5278   19.3102 O   0  0  0  0  0  0  0  0  0  0  0  0
  -25.8614  -25.9062   19.5223 O   0  0  0  0  0  0  0  0  0  0  0  0
  -29.9483  -28.1042   20.2166 O   0  0  0  0  0  0  0  0  0  0  0  0
  -28.2849  -29.9269   24.7430 O   0  0  0  0  0  0  0  0  0  0  0  0
  -25.2487  -23.0171   25.8205 O   0  0  0  0  0  0  0  0  0  0  0  0
  -22.2901  -12.3279   20.5534 O   0  0  0  0  0  0  0  0  0  0  0  0
  -21.7928  -29.3168   22.1851 O   0  0  0  0  0  0  0  0  0  1  0  0
  -23.7995   -7.2075   21.9347 F   0  0  0  0  0  0  0  0  0  0  0  0
  -20.7948  -10.8423   22.3422 F   0  0  0  0  0  0  0  0  0  0  0  0
  1  2  1  0  0  0  0
  1  5  2  0  0  0  0
  2  6  2  0  0  0  0
  3 10  2  0  0  0  0
  3 18  1  0  0  0  0
  4 11  1  0  0  0  0
  4 18  2  0  0  0  0
  5 20  1  0  0  0  0
  6 22  1  0  0  0  0
  7 12  2  0  0  0  0
  7 21  1  0  0  0  0
  8  9  2  0  0  0  0
  8 25  1  0  0  0  0
  9 26  1  0  0  0  0
 10 27  1  0  0  0  0
 11 27  2  0  0  0  0
 12 28  1  0  0  0  0
 13 14  2  0  0  0  0
 13 29  1  0  0  0  0
 14 30  1  0  0  0  0
 15 23  1  0  0  0  0
 15 28  2  0  0  0  0
 16 24  1  0  0  0  0
 16 25  2  0  0  0  0
 17 30  2  0  0  0  0
 17 31  1  0  0  0  0
 18 32  1  0  0  0  0
 19 32  1  0  0  0  0
 19 33  2  0  0  0  0
 19 35  1  0  0  0  0
 20 22  2  0  0  0  0
 20 40  1  0  0  0  0
 21 23  2  0  0  0  0
 21 41  1  0  0  0  0
 22 52  1  0  0  0  0
 23 42  1  0  0  0  0
 24 26  2  0  0  0  0
 24 56  1  0  0  0  0
 25 68  1  0  0  0  0
 26 73  1  0  0  0  0
 27 83  1  0  0  0  0
 28 84  1  0  0  0  0
 29 31  2  0  0  0  0
 29 83  1  0  0  0  0
 30 85  1  0  0  0  0
 31 86  1  0  0  0  0
 32 66  2  0  0  0  0
 33 67  1  0  0  0  0
 33 71  1  0  0  0  0
 34 43  1  0  0  0  0
 34 44  1  0  0  0  0
 34 77  2  0  0  0  0
 35 72  1  0  0  0  0
 35 78  2  0  0  0  0
 36 53  1  0  0  0  0
 36 74  1  0  0  0  0
 36 79  2  0  0  0  0
 37 63  1  0  0  0  0
 37 69  1  0  0  0  0
 37 80  2  0  0  0  0
 38 64  1  0  0  0  0
 38 75  1  0  0  0  0
 38 81  2  0  0  0  0
 39 70  1  0  0  0  0
 39 73  1  0  0  0  0
 39 82  2  0  0  0  0
 40 45  1  0  0  0  0
 41 53  1  0  0  0  0
 42 69  1  0  0  0  0
 43 54  1  0  0  0  0
 44 68  1  0  0  0  0
 45 47  1  0  0  0  0
 46 48  1  0  0  0  0
 46 49  1  0  0  0  0
 47 52  1  0  0  0  0
 48 55  1  0  0  0  0
 49 70  1  0  0  0  0
 50 54  1  0  0  0  0
 50 68  1  0  0  0  0
 51 55  1  0  0  0  0
 51 70  1  0  0  0  0
 52 74  1  0  0  0  0
 53 69  1  0  0  0  0
 54 62  1  0  0  0  0
 55 67  1  0  0  0  0
 57 64  1  0  0  0  0
 58 65  1  0  0  0  0
 59 65  1  0  0  0  0
 60 65  1  0  0  0  0
 61 76  1  0  0  0  0
 62 84  1  0  0  0  0
 63 65  1  0  0  0  0
 63 75  1  0  0  0  0
 64 76  1  0  0  0  0
 66 67  1  0  0  0  0
M  CHG  1  76   1
M  ISO  4  39 100  62 101  73 100  84 101
M  END
> <Batch ID>
0119

> <Smiles>
CNC(C)C(=O)NC(C(=O)N1Cc2cc([101O:1][101CH2:1]C3CC(=O)CN(c4ccc([100NH:0][100C:0](=O)N5CCCC(n6nc(-c7ccc(Oc8ccc(F)cc8F)cc7)c(C(N)=O)c6N)C5)c(C)c4)C3)ccc2CC1C(=O)NC1CCCc2ccccc21)C(C)(C)C

> <Shape>
0.266

> <Color>
0.048

> <Negative vol penalty>
0.000

$$$$

  -OEChem-04052301513D

 87 95  0     1  0  0  0  0  0999 V2000
  -27.0916  -34.8266   25.3063 C   0  0  0  0  0  0  0  0  0  0  0  0
  -27.4419  -33.5549   24.8643 C   0  0  0  0  0  0  0  0  0  0  0  0
  -24.5830   -9.9992   23.3610 C   0  0  0  0  0  0  0  0  0  0  0  0
  -24.8699   -8.3229   21.6450 C   0  0  0  0  0  0  0  0  0  0  0  0
  -29.5902  -18.8023   16.5185 C   0  0  0  0  0  0  0  0  0  0  0  0
  -25.7513  -35.1432   25.5236 C   0  0  0  0  0  0  0  0  0  0  0  0
  -26.4522  -32.5985   24.6406 C   0  0  0  0  0  0  0  0  0  0  0  0
  -27.1280  -30.0825   20.2980 C   0  0  0  0  0  0  0  0  0  0  0  0
  -30.0419  -19.8384   15.7012 C   0  0  0  0  0  0  0  0  0  0  0  0
  -23.3542   -9.4362   23.7056 C   0  0  0  0  0  0  0  0  0  0  0  0
  -23.6411   -7.7599   21.9896 C   0  0  0  0  0  0  0  0  0  0  0  0
  -28.0926  -29.0759   20.2888 C   0  0  0  0  0  0  0  0  0  0  0  0
  -22.4224   -5.7274   24.3988 C   0  0  0  0  0  0  0  0  0  0  0  0
  -22.3572   -4.3389   24.5147 C   0  0  0  0  0  0  0  0  0  0  0  0
  -29.5029  -20.3209   18.3956 C   0  0  0  0  0  0  0  0  0  0  0  0
  -26.3581  -27.4197   20.5487 C   0  0  0  0  0  0  0  0  0  0  0  0
  -20.6831   -4.2722   22.7740 C   0  0  0  0  0  0  0  0  0  0  0  0
  -25.3408   -9.4426   22.3307 C   0  0  0  0  0  0  0  0  0  0  0  0
  -29.3206  -19.0435   17.8657 C   0  0  0  0  0  0  0  0  0  0  0  0
  -29.9547  -21.3570   17.5783 C   0  0  0  0  0  0  0  0  0  0  0  0
  -27.8731   -9.6983   22.5030 C   0  0  0  0  0  0  0  0  0  0  0  0
  -24.7438  -34.1932   25.2932 C   0  0  0  0  0  0  0  0  0  0  0  0
  -25.7699  -29.7655   20.4438 C   0  0  0  0  0  0  0  0  0  0  0  0
  -25.0972  -32.9022   24.8563 C   0  0  0  0  0  0  0  0  0  0  0  0
  -25.3780  -28.4240   20.5569 C   0  0  0  0  0  0  0  0  0  0  0  0
  -30.2242  -21.1158   16.2311 C   0  0  0  0  0  0  0  0  0  0  0  0
  -22.8833   -8.3166   23.0199 C   0  0  0  0  0  0  0  0  0  0  0  0
  -27.7080  -27.7445   20.4171 C   0  0  0  0  0  0  0  0  0  0  0  0
  -21.6179   -6.3883   23.4705 C   0  0  0  0  0  0  0  0  0  0  0  0
  -21.4876   -3.6113   23.7023 C   0  0  0  0  0  0  0  0  0  0  0  0
  -20.7483   -5.6607   22.6581 C   0  0  0  0  0  0  0  0  0  0  0  0
  -26.6099  -10.0241   21.9739 C   0  0  0  0  0  0  0  0  0  0  0  0
  -28.7467  -10.5252   21.8401 C   0  0  0  0  0  0  0  0  0  0  0  0
  -30.8346  -23.8399   12.3793 C   0  0  0  0  0  0  0  0  0  0  0  0
  -28.8496  -17.9623   18.7170 C   0  0  0  0  0  0  0  0  0  0  0  0
  -30.1355  -22.6932   18.1727 C   0  0  0  0  0  0  0  0  0  0  0  0
  -28.2780  -16.8179   18.2853 C   0  0  0  0  0  0  0  0  0  0  0  0
  -29.1546  -23.4182   18.7282 C   0  0  0  0  0  0  0  0  0  0  0  0
  -31.4384  -23.2261   13.4032 C   0  0  0  0  0  0  0  0  0  0  0  0
  -28.2253   -8.7343   23.5042 C   0  0  0  0  0  0  0  0  0  0  0  0
  -29.4409  -24.7681   19.2952 C   0  0  0  0  0  0  0  0  0  0  0  0
  -27.8597  -15.8070   19.2773 C   0  0  0  0  0  0  0  0  0  0  0  0
  -23.5281  -30.4371   22.5949 C   0  0  0  0  0  0  0  0  0  0  0  0
  -21.5894  -28.9405   20.4680 C   0  0  0  0  0  0  0  0  0  0  0  0
  -21.2763  -26.7089   17.9050 C   0  0  0  0  0  0  0  0  0  0  0  0
  -23.3125  -34.5670   25.5875 C   0  0  0  0  0  0  0  0  0  0  0  0
  -24.7394  -30.8611   20.4249 C   0  0  0  0  0  0  0  0  0  0  0  0
  -23.9311  -28.0295   20.6956 C   0  0  0  0  0  0  0  0  0  0  0  0
  -22.2942  -33.6134   24.9678 C   0  0  0  0  0  0  0  0  0  0  0  0
  -29.3257  -12.8372   17.7080 C   0  0  0  0  0  0  0  0  0  0  0  0
  -22.6958  -32.1641   25.2230 C   0  0  0  0  0  0  0  0  0  0  0  0
  -28.8611  -11.7409   18.6630 C   0  0  0  0  0  0  0  0  0  0  0  0
  -28.2925  -13.9550   17.5748 C   0  0  0  0  0  0  0  0  0  0  0  0
  -27.4164  -13.4484   19.8367 C   0  0  0  0  0  0  0  0  0  0  0  0
  -24.0503  -31.8453   24.5786 C   0  0  1  0  0  0  0  0  0  0  0  0
  -23.4291  -30.4606   21.0958 C   0  0  1  0  0  0  0  0  0  0  0  0
  -28.4608  -12.3365   20.0220 C   0  0  1  0  0  0  0  0  0  0  0  0
  -19.5609  -25.6676   16.3982 C   0  0  0  0  0  0  0  0  0  0  0  0
  -20.6699  -27.1466   22.7585 C   0  0  0  0  0  0  0  0  0  0  0  0
  -19.7268  -25.5729   21.0549 C   0  0  0  0  0  0  0  0  0  0  0  0
  -18.8432  -27.8995   21.2252 C   0  0  0  0  0  0  0  0  0  0  0  0
  -22.5670  -27.8119   15.4809 C   0  0  0  0  0  0  0  0  0  0  0  0
  -30.9690  -21.9382   13.9963 C   0  0  0  0  0  0  0  0  0  0  0  0
  -28.2521  -25.4891   19.8948 C   0  0  0  0  0  0  0  0  0  1  0  0
  -21.1428  -27.5154   20.2473 C   0  0  1  0  0  0  0  0  0  0  0  0
  -20.5591  -26.8020   16.5703 C   0  0  2  0  0  0  0  0  0  0  0  0
  -20.1232  -27.0408   21.3208 C   0  0  0  0  0  0  0  0  0  0  0  0
  -26.6712  -10.9833   21.0464 N   0  0  0  0  0  0  0  0  0  0  0  0
  -27.9834  -11.2674   20.9877 N   0  0  0  0  0  0  0  0  0  0  0  0
  -27.8822  -14.4683   18.8904 N   0  0  0  0  0  0  0  0  0  0  0  0
  -22.9616  -29.1373   20.6780 N   0  0  0  0  0  0  0  0  0  0  0  0
  -30.0857  -10.6826   21.9091 N   0  0  0  0  0  0  0  0  0  0  0  0
  -27.2041   -7.9683   24.0827 N   0  0  0  0  0  0  0  0  0  0  0  0
  -30.6828  -22.1471   15.3801 N   0  0  0  0  0  0  0  0  0  0  0  0
  -23.8975  -31.6459   23.1534 N   0  0  0  0  0  0  0  0  0  0  0  0
  -20.6423  -27.4518   18.8784 N   0  0  0  0  0  0  0  0  0  0  0  0
  -21.5396  -26.7393   15.4498 N   0  3  0  0  0  0  0  0  0  0  0  0
  -29.4085   -8.5689   23.8865 O   0  0  0  0  0  0  0  0  0  0  0  0
  -30.5666  -25.2586   19.2755 O   0  0  0  0  0  0  0  0  0  0  0  0
  -27.5108  -16.2108   20.3881 O   0  0  0  0  0  0  0  0  0  0  0  0
  -23.2858  -29.3995   23.2002 O   0  0  0  0  0  0  0  0  0  0  0  0
  -20.7525  -29.8465   20.4475 O   0  0  0  0  0  0  0  0  0  0  0  0
  -22.2948  -26.0408   18.0687 O   0  0  0  0  0  0  0  0  0  0  0  0
  -21.6844   -7.7668   23.3561 O   0  0  0  0  0  0  0  0  0  0  0  0
  -28.6475  -26.7601   20.4091 O   0  0  0  0  0  0  0  0  0  1  0  0
  -21.4262   -2.2778   23.8127 F   0  0  0  0  0  0  0  0  0  0  0  0
  -19.9739   -6.2900   21.7636 F   0  0  0  0  0  0  0  0  0  0  0  0
  1  2  1  0  0  0  0
  1  6  2  0  0  0  0
  2  7  2  0  0  0  0
  3 10  2  0  0  0  0
  3 18  1  0  0  0  0
  4 11  1  0  0  0  0
  4 18  2  0  0  0  0
  5  9  2  0  0  0  0
  5 19  1  0  0  0  0
  6 22  1  0  0  0  0
  7 24  1  0  0  0  0
  8 12  2  0  0  0  0
  8 23  1  0  0  0  0
  9 26  1  0  0  0  0
 10 27  1  0  0  0  0
 11 27  2  0  0  0  0
 12 28  1  0  0  0  0
 13 14  2  0  0  0  0
 13 29  1  0  0  0  0
 14 30  1  0  0  0  0
 15 19  2  0  0  0  0
 15 20  1  0  0  0  0
 16 25  1  0  0  0  0
 16 28  2  0  0  0  0
 17 30  2  0  0  0  0
 17 31  1  0  0  0  0
 18 32  1  0  0  0  0
 19 35  1  0  0  0  0
 20 26  2  0  0  0  0
 20 36  1  0  0  0  0
 21 32  1  0  0  0  0
 21 33  2  0  0  0  0
 21 40  1  0  0  0  0
 22 24  2  0  0  0  0
 22 46  1  0  0  0  0
 23 25  2  0  0  0  0
 23 47  1  0  0  0  0
 24 55  1  0  0  0  0
 25 48  1  0  0  0  0
 26 74  1  0  0  0  0
 27 84  1  0  0  0  0
 28 85  1  0  0  0  0
 29 31  2  0  0  0  0
 29 84  1  0  0  0  0
 30 86  1  0  0  0  0
 31 87  1  0  0  0  0
 32 68  2  0  0  0  0
 33 69  1  0  0  0  0
 33 72  1  0  0  0  0
 34 39  2  0  0  0  0
 35 37  2  0  0  0  0
 36 38  2  0  0  0  0
 37 42  1  0  0  0  0
 38 41  1  0  0  0  0
 39 63  1  0  0  0  0
 40 73  1  0  0  0  0
 40 78  2  0  0  0  0
 41 64  1  0  0  0  0
 41 79  2  0  0  0  0
 42 70  1  0  0  0  0
 42 80  2  0  0  0  0
 43 56  1  0  0  0  0
 43 75  1  0  0  0  0
 43 81  2  0  0  0  0
 44 65  1  0  0  0  0
 44 71  1  0  0  0  0
 44 82  2  0  0  0  0
 45 66  1  0  0  0  0
 45 76  1  0  0  0  0
 45 83  2  0  0  0  0
 46 49  1  0  0  0  0
 47 56  1  0  0  0  0
 48 71  1  0  0  0  0
 49 51  1  0  0  0  0
 50 52  1  0  0  0  0
 50 53  1  0  0  0  0
 51 55  1  0  0  0  0
 52 57  1  0  0  0  0
 53 70  1  0  0  0  0
 54 57  1  0  0  0  0
 54 70  1  0  0  0  0
 55 75  1  0  0  0  0
 56 71  1  0  0  0  0
 57 69  1  0  0  0  0
 58 66  1  0  0  0  0
 59 67  1  0  0  0  0
 60 67  1  0  0  0  0
 61 67  1  0  0  0  0
 62 77  1  0  0  0  0
 63 74  1  0  0  0  0
 64 85  1  0  0  0  0
 65 67  1  0  0  0  0
 65 76  1  0  0  0  0
 66 77  1  0  0  0  0
 68 69  1  0  0  0  0
M  CHG  1  77   1
M  ISO  4  37 100  42 100  64 101  85 101
M  END
> <Batch ID>
0119

> <Smiles>
C=CCNc1ccc(C=[100CH:0][100C:0](=O)N2CCCC(n3nc(-c4ccc(Oc5ccc(F)cc5F)cc4)c(C(N)=O)c3N)C2)cc1C=CC(=O)[101CH2:1][101O:1]c1ccc2c(c1)CN(C(=O)C(NC(=O)C(C)NC)C(C)(C)C)C(C(=O)NC1CCCc3ccccc31)C2

> <Shape>
0.292

> <Color>
0.097

> <Negative vol penalty>
0.000

$$$$

  -OEChem-04052301513D

 80 88  0     1  0  0  0  0  0999 V2000
  -29.2700  -37.2642   21.7497 C   0  0  0  0  0  0  0  0  0  0  0  0
  -29.2897  -36.2149   20.8365 C   0  0  0  0  0  0  0  0  0  0  0  0
  -24.2001   -9.4425   22.2450 C   0  0  0  0  0  0  0  0  0  0  0  0
  -24.4914   -8.7493   19.9490 C   0  0  0  0  0  0  0  0  0  0  0  0
  -28.9323  -37.0223   23.0806 C   0  0  0  0  0  0  0  0  0  0  0  0
  -28.9728  -34.9227   21.2540 C   0  0  0  0  0  0  0  0  0  0  0  0
  -25.9069  -28.8904   18.9030 C   0  0  0  0  0  0  0  0  0  0  0  0
  -23.1113   -8.5793   22.3675 C   0  0  0  0  0  0  0  0  0  0  0  0
  -23.4027   -7.8860   20.0715 C   0  0  0  0  0  0  0  0  0  0  0  0
  -26.1592  -27.5230   18.8006 C   0  0  0  0  0  0  0  0  0  0  0  0
  -22.5964   -5.2696   22.8299 C   0  0  0  0  0  0  0  0  0  0  0  0
  -22.5219   -4.4789   23.9766 C   0  0  0  0  0  0  0  0  0  0  0  0
  -29.1558  -21.1035   20.3867 C   0  0  0  0  0  0  0  0  0  0  0  0
  -25.5139  -27.2373   21.1074 C   0  0  0  0  0  0  0  0  0  0  0  0
  -20.4054   -5.4979   24.5417 C   0  0  0  0  0  0  0  0  0  0  0  0
  -31.1639  -22.2737   20.3981 C   0  0  0  0  0  0  0  0  0  0  0  0
  -24.8901   -9.5276   21.0357 C   0  0  0  0  0  0  0  0  0  0  0  0
  -29.8132  -22.3426   20.1367 C   0  0  0  0  0  0  0  0  0  0  0  0
  -27.3664  -10.1258   21.1684 C   0  0  0  0  0  0  0  0  0  0  0  0
  -28.6017  -35.7282   23.5126 C   0  0  0  0  0  0  0  0  0  0  0  0
  -25.4659  -29.4440   20.1136 C   0  0  0  0  0  0  0  0  0  0  0  0
  -28.6317  -34.6631   22.5923 C   0  0  0  0  0  0  0  0  0  0  0  0
  -25.2543  -28.6115   21.2218 C   0  0  0  0  0  0  0  0  0  0  0  0
  -22.7127   -7.8010   21.2808 C   0  0  0  0  0  0  0  0  0  0  0  0
  -25.9655  -26.6967   19.9036 C   0  0  0  0  0  0  0  0  0  0  0  0
  -21.5754   -6.1746   22.5392 C   0  0  0  0  0  0  0  0  0  0  0  0
  -21.4264   -4.5930   24.8325 C   0  0  0  0  0  0  0  0  0  0  0  0
  -20.4800   -6.2887   23.3951 C   0  0  0  0  0  0  0  0  0  0  0  0
  -26.0145  -10.4196   20.9083 C   0  0  0  0  0  0  0  0  0  0  0  0
  -30.0293  -20.1345   20.8295 C   0  0  0  0  0  0  0  0  0  0  0  0
  -28.0306  -11.2972   20.8981 C   0  0  0  0  0  0  0  0  0  0  0  0
  -29.1543  -23.5685   19.6559 C   0  0  0  0  0  0  0  0  0  0  0  0
  -29.7551  -18.7946   21.1775 C   0  0  0  0  0  0  0  0  0  0  0  0
  -28.5357  -18.1601   21.1253 C   0  0  0  0  0  0  0  0  0  0  0  0
  -27.8450  -23.6890   19.3867 C   0  0  0  0  0  0  0  0  0  0  0  0
  -27.9681   -8.9032   21.6144 C   0  0  0  0  0  0  0  0  0  0  0  0
  -28.4116  -16.7414   21.5160 C   0  0  0  0  0  0  0  0  0  0  0  0
  -26.6210  -31.5949   22.1491 C   0  0  0  0  0  0  0  0  0  0  0  0
  -23.7396  -31.2071   23.5877 C   0  0  0  0  0  0  0  0  0  0  0  0
  -21.0150  -29.2246   24.1288 C   0  0  0  0  0  0  0  0  0  0  0  0
  -28.2892  -35.5076   24.9715 C   0  0  0  0  0  0  0  0  0  0  0  0
  -25.1726  -30.9168   20.2002 C   0  0  0  0  0  0  0  0  0  0  0  0
  -24.7626  -29.1534   22.5383 C   0  0  0  0  0  0  0  0  0  0  0  0
  -27.6020  -34.1737   25.2522 C   0  0  0  0  0  0  0  0  0  0  0  0
  -26.4777  -15.5339   18.6465 C   0  0  0  0  0  0  0  0  0  0  0  0
  -28.3149  -33.0413   24.5198 C   0  0  0  0  0  0  0  0  0  0  0  0
  -26.2581  -14.0739   19.0338 C   0  0  0  0  0  0  0  0  0  0  0  0
  -26.4849  -16.4541   19.8662 C   0  0  0  0  0  0  0  0  0  0  0  0
  -27.2413  -14.5830   21.3041 C   0  0  0  0  0  0  0  0  0  0  0  0
  -28.2699  -33.2518   23.0016 C   0  0  1  0  0  0  0  0  0  0  0  0
  -25.2189  -31.4523   21.6279 C   0  0  1  0  0  0  0  0  0  0  0  0
  -27.2773  -13.6335   20.0965 C   0  0  1  0  0  0  0  0  0  0  0  0
  -18.8410  -29.1630   25.3808 C   0  0  0  0  0  0  0  0  0  0  0  0
  -25.2496  -30.6351   26.1767 C   0  0  0  0  0  0  0  0  0  0  0  0
  -23.1377  -29.6705   27.1135 C   0  0  0  0  0  0  0  0  0  0  0  0
  -23.2215  -32.0731   26.4478 C   0  0  0  0  0  0  0  0  0  0  0  0
  -19.4474  -29.0079   21.6278 C   0  0  0  0  0  0  0  0  0  0  0  0
  -27.2228  -24.9531   18.8863 C   0  0  0  0  0  0  0  0  0  1  0  0
  -23.1924  -30.2905   24.6551 C   0  0  1  0  0  0  0  0  0  0  0  0
  -19.5270  -29.5199   24.0713 C   0  0  2  0  0  0  0  0  0  0  0  0
  -23.7114  -30.6571   26.0742 C   0  0  0  0  0  0  0  0  0  0  0  0
  -25.8291  -11.6791   20.5040 N   0  0  0  0  0  0  0  0  0  0  0  0
  -27.0733  -12.1870   20.5081 N   0  0  0  0  0  0  0  0  0  0  0  0
  -27.4247  -15.9795   20.8930 N   0  0  0  0  0  0  0  0  0  0  0  0
  -24.4960  -30.6008   22.5747 N   0  0  0  0  0  0  0  0  0  0  0  0
  -29.3342  -11.6427   20.9585 N   0  0  0  0  0  0  0  0  0  0  0  0
  -27.1401   -7.7960   21.8444 N   0  0  0  0  0  0  0  0  0  0  0  0
  -26.9693  -32.8906   22.4796 N   0  0  0  0  0  0  0  0  0  0  0  0
  -21.7401  -30.3296   24.5215 N   0  0  0  0  0  0  0  0  0  0  0  0
  -18.8857  -28.7381   22.9765 N   0  3  0  0  0  0  0  0  0  0  0  0
  -29.2015   -8.8005   21.8191 O   0  0  0  0  0  0  0  0  0  0  0  0
  -29.1873  -16.3181   22.3749 O   0  0  0  0  0  0  0  0  0  0  0  0
  -27.3335  -30.6026   22.2457 O   0  0  0  0  0  0  0  0  0  0  0  0
  -23.4987  -32.4154   23.6465 O   0  0  0  0  0  0  0  0  0  0  0  0
  -21.4864  -28.1227   23.8564 O   0  0  0  0  0  0  0  0  0  0  0  0
  -21.6505   -6.9583   21.4000 O   0  0  0  0  0  0  0  0  0  0  0  0
  -26.2116  -25.3618   19.8066 O   0  0  0  0  0  0  0  0  0  1  0  0
  -21.3542   -3.8325   25.9328 F   0  0  0  0  0  0  0  0  0  0  0  0
  -19.4955   -7.1554   23.1204 F   0  0  0  0  0  0  0  0  0  0  0  0
  -31.6345  -20.7198   20.9425 S   0  0  0  0  0  0  0  0  0  0  0  0
  1  2  1  0  0  0  0
  1  5  2  0  0  0  0
  2  6  2  0  0  0  0
  3  8  2  0  0  0  0
  3 17  1  0  0  0  0
  4  9  1  0  0  0  0
  4 17  2  0  0  0  0
  5 20  1  0  0  0  0
  6 22  1  0  0  0  0
  7 10  2  0  0  0  0
  7 21  1  0  0  0  0
  8 24  1  0  0  0  0
  9 24  2  0  0  0  0
 10 25  1  0  0  0  0
 11 12  2  0  0  0  0
 11 26  1  0  0  0  0
 12 27  1  0  0  0  0
 13 18  1  0  0  0  0
 13 30  2  0  0  0  0
 14 23  1  0  0  0  0
 14 25  2  0  0  0  0
 15 27  2  0  0  0  0
 15 28  1  0  0  0  0
 16 18  2  0  0  0  0
 16 80  1  0  0  0  0
 17 29  1  0  0  0  0
 18 32  1  0  0  0  0
 19 29  1  0  0  0  0
 19 31  2  0  0  0  0
 19 36  1  0  0  0  0
 20 22  2  0  0  0  0
 20 41  1  0  0  0  0
 21 23  2  0  0  0  0
 21 42  1  0  0  0  0
 22 50  1  0  0  0  0
 23 43  1  0  0  0  0
 24 76  1  0  0  0  0
 25 77  1  0  0  0  0
 26 28  2  0  0  0  0
 26 76  1  0  0  0  0
 27 78  1  0  0  0  0
 28 79  1  0  0  0  0
 29 62  2  0  0  0  0
 30 33  1  0  0  0  0
 30 80  1  0  0  0  0
 31 63  1  0  0  0  0
 31 66  1  0  0  0  0
 32 35  2  0  0  0  0
 33 34  2  0  0  0  0
 34 37  1  0  0  0  0
 35 58  1  0  0  0  0
 36 67  1  0  0  0  0
 36 71  2  0  0  0  0
 37 64  1  0  0  0  0
 37 72  2  0  0  0  0
 38 51  1  0  0  0  0
 38 68  1  0  0  0  0
 38 73  2  0  0  0  0
 39 59  1  0  0  0  0
 39 65  1  0  0  0  0
 39 74  2  0  0  0  0
 40 60  1  0  0  0  0
 40 69  1  0  0  0  0
 40 75  2  0  0  0  0
 41 44  1  0  0  0  0
 42 51  1  0  0  0  0
 43 65  1  0  0  0  0
 44 46  1  0  0  0  0
 45 47  1  0  0  0  0
 45 48  1  0  0  0  0
 46 50  1  0  0  0  0
 47 52  1  0  0  0  0
 48 64  1  0  0  0  0
 49 52  1  0  0  0  0
 49 64  1  0  0  0  0
 50 68  1  0  0  0  0
 51 65  1  0  0  0  0
 52 63  1  0  0  0  0
 53 60  1  0  0  0  0
 54 61  1  0  0  0  0
 55 61  1  0  0  0  0
 56 61  1  0  0  0  0
 57 70  1  0  0  0  0
 58 77  1  0  0  0  0
 59 61  1  0  0  0  0
 59 69  1  0  0  0  0
 60 70  1  0  0  0  0
 62 63  1  0  0  0  0
M  CHG  1  70   1
M  ISO  4  34 100  37 100  58 101  77 101
M  END
> <Batch ID>
0119

> <Smiles>
CNC(C)C(=O)NC(C(=O)N1Cc2cc([101O:1][101CH2:1]C=Cc3csc(C=[100CH:0][100C:0](=O)N4CCCC(n5nc(-c6ccc(Oc7ccc(F)cc7F)cc6)c(C(N)=O)c5N)C4)c3)ccc2CC1C(=O)NC1CCCc2ccccc21)C(C)(C)C

> <Shape>
0.285

> <Color>
0.127

> <Negative vol penalty>
0.000

$$$$

  -OEChem-04052301513D

 85 93  0     1  0  0  0  0  0999 V2000
  -28.0319  -30.2648   27.9779 C   0  0  0  0  0  0  0  0  0  0  0  0
  -27.9744  -29.3860   26.9010 C   0  0  0  0  0  0  0  0  0  0  0  0
  -24.7238   -8.7410   21.5733 C   0  0  0  0  0  0  0  0  0  0  0  0
  -22.9763  -10.2209   20.8031 C   0  0  0  0  0  0  0  0  0  0  0  0
  -26.9103  -31.0182   28.3221 C   0  0  0  0  0  0  0  0  0  0  0  0
  -26.7948  -29.2593   26.1681 C   0  0  0  0  0  0  0  0  0  0  0  0
  -27.6061  -29.2379   21.1695 C   0  0  0  0  0  0  0  0  0  0  0  0
  -23.8253   -8.1381   22.4535 C   0  0  0  0  0  0  0  0  0  0  0  0
  -22.0778   -9.6179   21.6833 C   0  0  0  0  0  0  0  0  0  0  0  0
  -28.0752  -28.0522   20.6057 C   0  0  0  0  0  0  0  0  0  0  0  0
  -21.3389   -5.8520   22.2969 C   0  0  0  0  0  0  0  0  0  0  0  0
  -21.3343   -4.4588   22.3652 C   0  0  0  0  0  0  0  0  0  0  0  0
  -25.8390  -27.5235   19.8717 C   0  0  0  0  0  0  0  0  0  0  0  0
  -24.4939  -17.9815   18.8990 C   0  0  0  0  0  0  0  0  0  0  0  0
  -26.3494  -19.0409   20.0268 C   0  0  0  0  0  0  0  0  0  0  0  0
  -21.8954   -4.5721   24.7125 C   0  0  0  0  0  0  0  0  0  0  0  0
  -24.2993   -9.7824   20.7481 C   0  0  0  0  0  0  0  0  0  0  0  0
  -24.3165  -20.2809   19.6187 C   0  0  0  0  0  0  0  0  0  0  0  0
  -25.4958  -10.0313   18.5089 C   0  0  0  0  0  0  0  0  0  0  0  0
  -25.7194  -30.9078   27.5871 C   0  0  0  0  0  0  0  0  0  0  0  0
  -26.2457  -29.5705   21.0980 C   0  0  0  0  0  0  0  0  0  0  0  0
  -25.6559  -30.0110   26.5036 C   0  0  0  0  0  0  0  0  0  0  0  0
  -25.3555  -28.7152   20.4332 C   0  0  0  0  0  0  0  0  0  0  0  0
  -23.7571  -19.1613   19.0029 C   0  0  0  0  0  0  0  0  0  0  0  0
  -25.7901  -17.9213   19.4109 C   0  0  0  0  0  0  0  0  0  0  0  0
  -22.5023   -8.5765   22.5085 C   0  0  0  0  0  0  0  0  0  0  0  0
  -27.1912  -27.1934   19.9592 C   0  0  0  0  0  0  0  0  0  0  0  0
  -21.6218   -6.6052   23.4364 C   0  0  0  0  0  0  0  0  0  0  0  0
  -25.6127  -20.2207   20.1307 C   0  0  0  0  0  0  0  0  0  0  0  0
  -21.6125   -3.8189   23.5730 C   0  0  0  0  0  0  0  0  0  0  0  0
  -21.9000   -5.9653   24.6442 C   0  0  0  0  0  0  0  0  0  0  0  0
  -25.2271  -10.4060   19.8390 C   0  0  0  0  0  0  0  0  0  0  0  0
  -26.4433  -10.9302   18.0837 C   0  0  0  0  0  0  0  0  0  0  0  0
  -23.9202  -22.6601   19.1740 C   0  0  0  0  0  0  0  0  0  0  0  0
  -23.5501  -21.5180   19.7304 C   0  0  0  0  0  0  0  0  0  0  0  0
  -24.9387   -8.9661   17.7275 C   0  0  0  0  0  0  0  0  0  0  0  0
  -23.9397  -30.0540   23.2316 C   0  0  0  0  0  0  0  0  0  0  0  0
  -22.2312  -30.9141   20.6117 C   0  0  0  0  0  0  0  0  0  0  0  0
  -21.7955  -30.6880   17.2345 C   0  0  0  0  0  0  0  0  0  0  0  0
  -27.8358  -16.4936   19.7615 C   0  0  0  0  0  0  0  0  0  0  0  0
  -24.5186  -31.7079   28.0261 C   0  0  0  0  0  0  0  0  0  0  0  0
  -25.7600  -30.8661   21.6880 C   0  0  0  0  0  0  0  0  0  0  0  0
  -23.8890  -29.0361   20.3114 C   0  0  0  0  0  0  0  0  0  0  0  0
  -23.4223  -31.7917   26.9672 C   0  0  0  0  0  0  0  0  0  0  0  0
  -30.0081  -13.6727   19.7285 C   0  0  0  0  0  0  0  0  0  0  0  0
  -23.1531  -30.4153   26.3674 C   0  0  0  0  0  0  0  0  0  0  0  0
  -29.0533  -12.4811   19.6259 C   0  0  0  0  0  0  0  0  0  0  0  0
  -29.4335  -14.7862   20.6024 C   0  0  0  0  0  0  0  0  0  0  0  0
  -27.1328  -14.0462   20.1247 C   0  0  0  0  0  0  0  0  0  0  0  0
  -24.4021  -29.8640   25.6690 C   0  0  1  0  0  0  0  0  0  0  0  0
  -24.2676  -30.8563   22.0043 C   0  0  1  0  0  0  0  0  0  0  0  0
  -27.6400  -12.9262   19.2017 C   0  0  2  0  0  0  0  0  0  0  0  0
  -22.3713  -19.1867   18.4417 C   0  0  0  0  0  0  0  0  0  0  0  0
  -20.2904  -31.4715   15.3856 C   0  0  0  0  0  0  0  0  0  0  0  0
  -20.1116  -28.9016   21.4876 C   0  0  0  0  0  0  0  0  0  0  0  0
  -19.1382  -29.0297   19.1845 C   0  0  0  0  0  0  0  0  0  0  0  0
  -19.2021  -31.0655   20.6246 C   0  0  0  0  0  0  0  0  0  0  0  0
  -24.0147  -32.0857   15.8633 C   0  0  0  0  0  0  0  0  0  0  0  0
  -28.7259  -23.9146   19.8189 C   0  0  0  0  0  0  0  0  0  0  0  0
  -27.4554  -23.3088   20.4052 C   0  0  0  0  0  0  0  0  0  0  0  0
  -28.7770  -25.4224   20.0270 C   0  0  0  0  0  0  0  0  0  1  0  0
  -27.3831  -21.8083   20.1600 C   0  0  0  0  0  0  0  0  0  0  0  0
  -21.3513  -30.1876   19.6233 C   0  0  1  0  0  0  0  0  0  0  0  0
  -21.5594  -31.7502   16.1759 C   0  0  2  0  0  0  0  0  0  0  0  0
  -19.9780  -29.7888   20.2338 C   0  0  0  0  0  0  0  0  0  0  0  0
  -25.9460  -11.4606   20.2329 N   0  0  0  0  0  0  0  0  0  0  0  0
  -26.6757  -11.7562   19.1438 N   0  0  0  0  0  0  0  0  0  0  0  0
  -23.4615  -30.3114   20.9099 N   0  0  0  0  0  0  0  0  0  0  0  0
  -28.0953  -15.1589   20.1387 N   0  0  0  0  0  0  0  0  0  0  0  0
  -27.0920  -11.0867   16.9102 N   0  0  0  0  0  0  0  0  0  0  0  0
  -23.9764   -8.1363   18.3188 N   0  0  0  0  0  0  0  0  0  0  0  0
  -26.5376  -16.7221   19.3065 N   0  0  0  0  0  0  0  0  0  0  0  0
  -24.5772  -30.4917   24.3768 N   0  0  0  0  0  0  0  0  0  0  0  0
  -21.2560  -31.0502   18.4506 N   0  0  0  0  0  0  0  0  0  0  0  0
  -22.7052  -31.7965   15.2241 N   0  3  0  0  0  0  0  0  0  0  0  0
  -25.2961   -8.7461   16.5453 O   0  0  0  0  0  0  0  0  0  0  0  0
  -23.1644  -29.1088   23.1462 O   0  0  0  0  0  0  0  0  0  0  0  0
  -21.8444  -31.9807   21.0957 O   0  0  0  0  0  0  0  0  0  0  0  0
  -22.3949  -29.6400   17.0045 O   0  0  0  0  0  0  0  0  0  0  0  0
  -28.7093  -17.3634   19.8110 O   0  0  0  0  0  0  0  0  0  0  0  0
  -21.6252   -7.9883   23.3671 O   0  0  0  0  0  0  0  0  0  0  0  0
  -27.6463  -26.0352   19.4086 O   0  0  0  0  0  0  0  0  0  1  0  0
  -26.1884  -21.3046   20.7412 O   0  0  0  0  0  0  0  0  0  0  0  0
  -21.6065   -2.4810   23.6388 F   0  0  0  0  0  0  0  0  0  0  0  0
  -22.1713   -6.6835   25.7425 F   0  0  0  0  0  0  0  0  0  0  0  0
  1  2  1  0  0  0  0
  1  5  2  0  0  0  0
  2  6  2  0  0  0  0
  3  8  2  0  0  0  0
  3 17  1  0  0  0  0
  4  9  1  0  0  0  0
  4 17  2  0  0  0  0
  5 20  1  0  0  0  0
  6 22  1  0  0  0  0
  7 10  2  0  0  0  0
  7 21  1  0  0  0  0
  8 26  1  0  0  0  0
  9 26  2  0  0  0  0
 10 27  1  0  0  0  0
 11 12  2  0  0  0  0
 11 28  1  0  0  0  0
 12 30  1  0  0  0  0
 13 23  1  0  0  0  0
 13 27  2  0  0  0  0
 14 24  2  0  0  0  0
 14 25  1  0  0  0  0
 15 25  2  0  0  0  0
 15 29  1  0  0  0  0
 16 30  2  0  0  0  0
 16 31  1  0  0  0  0
 17 32  1  0  0  0  0
 18 24  1  0  0  0  0
 18 29  2  0  0  0  0
 18 35  1  0  0  0  0
 19 32  1  0  0  0  0
 19 33  2  0  0  0  0
 19 36  1  0  0  0  0
 20 22  2  0  0  0  0
 20 41  1  0  0  0  0
 21 23  2  0  0  0  0
 21 42  1  0  0  0  0
 22 50  1  0  0  0  0
 23 43  1  0  0  0  0
 24 53  1  0  0  0  0
 25 72  1  0  0  0  0
 26 81  1  0  0  0  0
 27 82  1  0  0  0  0
 28 31  2  0  0  0  0
 28 81  1  0  0  0  0
 29 83  1  0  0  0  0
 30 84  1  0  0  0  0
 31 85  1  0  0  0  0
 32 66  2  0  0  0  0
 33 67  1  0  0  0  0
 33 70  1  0  0  0  0
 34 35  2  0  0  0  0
 36 71  1  0  0  0  0
 36 76  2  0  0  0  0
 37 51  1  0  0  0  0
 37 73  1  0  0  0  0
 37 77  2  0  0  0  0
 38 63  1  0  0  0  0
 38 68  1  0  0  0  0
 38 78  2  0  0  0  0
 39 64  1  0  0  0  0
 39 74  1  0  0  0  0
 39 79  2  0  0  0  0
 40 69  1  0  0  0  0
 40 72  1  0  0  0  0
 40 80  2  0  0  0  0
 41 44  1  0  0  0  0
 42 51  1  0  0  0  0
 43 68  1  0  0  0  0
 44 46  1  0  0  0  0
 45 47  1  0  0  0  0
 45 48  1  0  0  0  0
 46 50  1  0  0  0  0
 47 52  1  0  0  0  0
 48 69  1  0  0  0  0
 49 52  1  0  0  0  0
 49 69  1  0  0  0  0
 50 73  1  0  0  0  0
 51 68  1  0  0  0  0
 52 67  1  0  0  0  0
 54 64  1  0  0  0  0
 55 65  1  0  0  0  0
 56 65  1  0  0  0  0
 57 65  1  0  0  0  0
 58 75  1  0  0  0  0
 59 60  1  0  0  0  0
 59 61  1  0  0  0  0
 60 62  1  0  0  0  0
 61 82  1  0  0  0  0
 62 83  1  0  0  0  0
 63 65  1  0  0  0  0
 63 74  1  0  0  0  0
 64 75  1  0  0  0  0
 66 67  1  0  0  0  0
M  CHG  1  75   1
M  ISO  4  40 100  61 101  72 100  82 101
M  END
> <Batch ID>
0119

> <Smiles>
C=Cc1c(C)cc([100NH:0][100C:0](=O)N2CCCC(n3nc(-c4ccc(Oc5ccc(F)cc5F)cc4)c(C(N)=O)c3N)C2)cc1OCCC[101CH2:1][101O:1]c1ccc2c(c1)CN(C(=O)C(NC(=O)C(C)NC)C(C)(C)C)C(C(=O)NC1CCCc3ccccc31)C2

> <Shape>
0.255

> <Color>
0.108

> <Negative vol penalty>
0.000

$$$$

  -OEChem-04052301513D

 84 92  0     1  0  0  0  0  0999 V2000
  -27.5026  -32.6927   21.0863 C   0  0  0  0  0  0  0  0  0  0  0  0
  -28.0630  -31.5311   21.6077 C   0  0  0  0  0  0  0  0  0  0  0  0
  -23.0486   -9.8596   19.9938 C   0  0  0  0  0  0  0  0  0  0  0  0
  -23.7805   -9.9337   22.2951 C   0  0  0  0  0  0  0  0  0  0  0  0
  -26.1503  -32.7220   20.7483 C   0  0  0  0  0  0  0  0  0  0  0  0
  -27.2712  -30.3983   21.7924 C   0  0  0  0  0  0  0  0  0  0  0  0
  -29.5368  -26.1620   20.1904 C   0  0  0  0  0  0  0  0  0  0  0  0
  -22.2785   -8.7311   20.2751 C   0  0  0  0  0  0  0  0  0  0  0  0
  -23.0105   -8.8052   22.5764 C   0  0  0  0  0  0  0  0  0  0  0  0
  -30.5104  -25.6078   21.0202 C   0  0  0  0  0  0  0  0  0  0  0  0
  -19.2974   -8.0455   21.7158 C   0  0  0  0  0  0  0  0  0  0  0  0
  -17.9958   -8.0078   21.2157 C   0  0  0  0  0  0  0  0  0  0  0  0
  -30.4469  -18.9374   23.0111 C   0  0  0  0  0  0  0  0  0  0  0  0
  -28.9009  -24.0018   21.8260 C   0  0  0  0  0  0  0  0  0  0  0  0
  -31.9699  -17.1989   21.4488 C   0  0  0  0  0  0  0  0  0  0  0  0
  -18.5321   -6.0079   19.9708 C   0  0  0  0  0  0  0  0  0  0  0  0
  -23.7996  -10.4609   21.0038 C   0  0  0  0  0  0  0  0  0  0  0  0
  -31.7421  -19.2919   22.6339 C   0  0  0  0  0  0  0  0  0  0  0  0
  -24.1939  -12.9729   20.7984 C   0  0  0  0  0  0  0  0  0  0  0  0
  -25.3436  -31.5860   20.9198 C   0  0  0  0  0  0  0  0  0  0  0  0
  -28.2327  -25.6464   20.1802 C   0  0  0  0  0  0  0  0  0  0  0  0
  -25.9065  -30.4128   21.4575 C   0  0  0  0  0  0  0  0  0  0  0  0
  -27.9132  -24.5497   20.9933 C   0  0  0  0  0  0  0  0  0  0  0  0
  -29.9132  -17.7136   22.6072 C   0  0  0  0  0  0  0  0  0  0  0  0
  -30.6746  -16.8443   21.8260 C   0  0  0  0  0  0  0  0  0  0  0  0
  -22.2595   -8.2039   21.5664 C   0  0  0  0  0  0  0  0  0  0  0  0
  -30.1918  -24.5294   21.8403 C   0  0  0  0  0  0  0  0  0  0  0  0
  -20.2164   -7.0645   21.3433 C   0  0  0  0  0  0  0  0  0  0  0  0
  -32.5036  -18.4227   21.8527 C   0  0  0  0  0  0  0  0  0  0  0  0
  -17.6131   -6.9890   20.3433 C   0  0  0  0  0  0  0  0  0  0  0  0
  -19.8337   -6.0456   20.4708 C   0  0  0  0  0  0  0  0  0  0  0  0
  -24.5957  -11.6263   20.7138 C   0  0  0  0  0  0  0  0  0  0  0  0
  -25.3053  -13.6871   20.4228 C   0  0  0  0  0  0  0  0  0  0  0  0
  -32.2841  -20.5881   23.0742 C   0  0  0  0  0  0  0  0  0  0  0  0
  -32.7167  -21.5624   22.2585 C   0  0  0  0  0  0  0  0  0  0  0  0
  -22.9291  -13.5284   21.1823 C   0  0  0  0  0  0  0  0  0  0  0  0
  -25.3572  -26.8043   20.8833 C   0  0  0  0  0  0  0  0  0  0  0  0
  -24.3529  -23.9415   19.7351 C   0  0  0  0  0  0  0  0  0  0  0  0
  -25.0698  -20.6698   19.0802 C   0  0  0  0  0  0  0  0  0  0  0  0
  -30.7890  -14.6299   20.6304 C   0  0  0  0  0  0  0  0  0  0  0  0
  -23.8763  -31.6802   20.5842 C   0  0  0  0  0  0  0  0  0  0  0  0
  -27.2010  -26.2384   19.2597 C   0  0  0  0  0  0  0  0  0  0  0  0
  -26.5333  -23.9462   21.0045 C   0  0  0  0  0  0  0  0  0  0  0  0
  -23.1913  -30.3216   20.4604 C   0  0  0  0  0  0  0  0  0  0  0  0
  -29.6548  -12.1553   18.3354 C   0  0  0  0  0  0  0  0  0  0  0  0
  -23.5756  -29.4215   21.6304 C   0  0  0  0  0  0  0  0  0  0  0  0
  -28.2045  -11.9078   18.7565 C   0  0  0  0  0  0  0  0  0  0  0  0
  -30.5597  -12.4089   19.5398 C   0  0  0  0  0  0  0  0  0  0  0  0
  -28.6512  -13.2200   20.8698 C   0  0  0  0  0  0  0  0  0  0  0  0
  -25.0857  -29.1559   21.6494 C   0  0  1  0  0  0  0  0  0  0  0  0
  -25.7698  -25.9618   19.7096 C   0  0  1  0  0  0  0  0  0  0  0  0
  -27.6894  -13.0239   19.6865 C   0  0  2  0  0  0  0  0  0  0  0  0
  -28.5225  -17.3600   23.0249 C   0  0  0  0  0  0  0  0  0  0  0  0
  -24.0361  -18.5695   18.1762 C   0  0  0  0  0  0  0  0  0  0  0  0
  -22.8307  -23.5668   22.3528 C   0  0  0  0  0  0  0  0  0  0  0  0
  -22.6230  -21.1332   21.8028 C   0  0  0  0  0  0  0  0  0  0  0  0
  -21.5858  -22.8407   20.3090 C   0  0  0  0  0  0  0  0  0  0  0  0
  -27.0303  -20.5189   16.8683 C   0  0  0  0  0  0  0  0  0  0  0  0
  -34.8291  -18.3475   22.3451 C   0  0  0  0  0  0  0  0  0  0  0  0
  -33.2757  -22.8688   22.7520 C   0  0  0  0  0  0  0  0  0  0  0  0
  -32.4939  -24.0578   22.2061 C   0  0  0  0  0  0  0  0  0  1  0  0
  -24.1003  -22.5787   20.3334 C   0  0  1  0  0  0  0  0  0  0  0  0
  -24.8418  -19.8162   17.8458 C   0  0  2  0  0  0  0  0  0  0  0  0
  -22.8106  -22.5422   21.2010 C   0  0  0  0  0  0  0  0  0  0  0  0
  -25.8634  -11.4905   20.3155 N   0  0  0  0  0  0  0  0  0  0  0  0
  -26.2677  -12.7610   20.1464 N   0  0  0  0  0  0  0  0  0  0  0  0
  -25.5575  -24.5642   20.0915 N   0  0  0  0  0  0  0  0  0  0  0  0
  -30.0111  -13.4813   20.3727 N   0  0  0  0  0  0  0  0  0  0  0  0
  -25.5435  -15.0107   20.3051 N   0  0  0  0  0  0  0  0  0  0  0  0
  -21.8950  -12.6521   21.5387 N   0  0  0  0  0  0  0  0  0  0  0  0
  -30.1506  -15.5963   21.4070 N   0  0  0  0  0  0  0  0  0  0  0  0
  -25.4372  -28.1648   20.6551 N   0  0  0  0  0  0  0  0  0  0  0  0
  -24.0975  -21.6376   19.2187 N   0  0  0  0  0  0  0  0  0  0  0  0
  -26.1454  -19.3922   17.2612 N   0  3  0  0  0  0  0  0  0  0  0  0
  -22.7171  -14.7647   21.1928 O   0  0  0  0  0  0  0  0  0  0  0  0
  -24.9919  -26.2603   21.9189 O   0  0  0  0  0  0  0  0  0  0  0  0
  -23.5157  -24.4323   18.9737 O   0  0  0  0  0  0  0  0  0  0  0  0
  -26.0138  -20.4932   19.8472 O   0  0  0  0  0  0  0  0  0  0  0  0
  -31.9269  -14.7594   20.1716 O   0  0  0  0  0  0  0  0  0  0  0  0
  -21.5080   -7.1029   21.8412 O   0  0  0  0  0  0  0  0  0  0  0  0
  -33.7733  -18.7437   21.4729 O   0  0  0  0  0  0  0  0  0  0  0  0
  -31.1401  -23.9870   22.6517 O   0  0  0  0  0  0  0  0  0  1  0  0
  -16.3628   -6.9520   19.8644 F   0  0  0  0  0  0  0  0  0  0  0  0
  -20.7118   -5.0997   20.1103 F   0  0  0  0  0  0  0  0  0  0  0  0
  1  2  1  0  0  0  0
  1  5  2  0  0  0  0
  2  6  2  0  0  0  0
  3  8  2  0  0  0  0
  3 17  1  0  0  0  0
  4  9  1  0  0  0  0
  4 17  2  0  0  0  0
  5 20  1  0  0  0  0
  6 22  1  0  0  0  0
  7 10  2  0  0  0  0
  7 21  1  0  0  0  0
  8 26  1  0  0  0  0
  9 26  2  0  0  0  0
 10 27  1  0  0  0  0
 11 12  2  0  0  0  0
 11 28  1  0  0  0  0
 12 30  1  0  0  0  0
 13 18  1  0  0  0  0
 13 24  2  0  0  0  0
 14 23  1  0  0  0  0
 14 27  2  0  0  0  0
 15 25  2  0  0  0  0
 15 29  1  0  0  0  0
 16 30  2  0  0  0  0
 16 31  1  0  0  0  0
 17 32  1  0  0  0  0
 18 29  2  0  0  0  0
 18 34  1  0  0  0  0
 19 32  1  0  0  0  0
 19 33  2  0  0  0  0
 19 36  1  0  0  0  0
 20 22  2  0  0  0  0
 20 41  1  0  0  0  0
 21 23  2  0  0  0  0
 21 42  1  0  0  0  0
 22 50  1  0  0  0  0
 23 43  1  0  0  0  0
 24 25  1  0  0  0  0
 24 53  1  0  0  0  0
 25 71  1  0  0  0  0
 26 80  1  0  0  0  0
 27 82  1  0  0  0  0
 28 31  2  0  0  0  0
 28 80  1  0  0  0  0
 29 81  1  0  0  0  0
 30 83  1  0  0  0  0
 31 84  1  0  0  0  0
 32 65  2  0  0  0  0
 33 66  1  0  0  0  0
 33 69  1  0  0  0  0
 34 35  2  0  0  0  0
 35 60  1  0  0  0  0
 36 70  1  0  0  0  0
 36 75  2  0  0  0  0
 37 51  1  0  0  0  0
 37 72  1  0  0  0  0
 37 76  2  0  0  0  0
 38 62  1  0  0  0  0
 38 67  1  0  0  0  0
 38 77  2  0  0  0  0
 39 63  1  0  0  0  0
 39 73  1  0  0  0  0
 39 78  2  0  0  0  0
 40 68  1  0  0  0  0
 40 71  1  0  0  0  0
 40 79  2  0  0  0  0
 41 44  1  0  0  0  0
 42 51  1  0  0  0  0
 43 67  1  0  0  0  0
 44 46  1  0  0  0  0
 45 47  1  0  0  0  0
 45 48  1  0  0  0  0
 46 50  1  0  0  0  0
 47 52  1  0  0  0  0
 48 68  1  0  0  0  0
 49 52  1  0  0  0  0
 49 68  1  0  0  0  0
 50 72  1  0  0  0  0
 51 67  1  0  0  0  0
 52 66  1  0  0  0  0
 54 63  1  0  0  0  0
 55 64  1  0  0  0  0
 56 64  1  0  0  0  0
 57 64  1  0  0  0  0
 58 74  1  0  0  0  0
 59 81  1  0  0  0  0
 60 61  1  0  0  0  0
 61 82  1  0  0  0  0
 62 64  1  0  0  0  0
 62 73  1  0  0  0  0
 63 74  1  0  0  0  0
 65 66  1  0  0  0  0
M  CHG  1  74   1
M  ISO  4  40 100  61 101  71 100  82 101
M  END
> <Batch ID>
0119

> <Smiles>
CNC(C)C(=O)NC(C(=O)N1Cc2cc([101O:1][101CH2:1]CC=Cc3cc(C)c([100NH:0][100C:0](=O)N4CCCC(n5nc(-c6ccc(Oc7ccc(F)cc7F)cc6)c(C(N)=O)c5N)C4)cc3OC)ccc2CC1C(=O)NC1CCCc2ccccc21)C(C)(C)C

> <Shape>
0.242

> <Color>
0.214

> <Negative vol penalty>
0.000

$$$$

  -OEChem-04052301513D

 82 90  0     1  0  0  0  0  0999 V2000
  -27.4162  -37.7854   20.6710 C   0  0  0  0  0  0  0  0  0  0  0  0
  -27.9429  -36.5362   20.3590 C   0  0  0  0  0  0  0  0  0  0  0  0
  -25.4866   -6.1245   21.7720 C   0  0  0  0  0  0  0  0  0  0  0  0
  -23.6713   -6.0943   20.1780 C   0  0  0  0  0  0  0  0  0  0  0  0
  -26.4849  -37.9106   21.7010 C   0  0  0  0  0  0  0  0  0  0  0  0
  -27.5394  -35.4114   21.0777 C   0  0  0  0  0  0  0  0  0  0  0  0
  -26.8491  -29.7196   18.9252 C   0  0  0  0  0  0  0  0  0  0  0  0
  -24.9864   -4.9647   22.3637 C   0  0  0  0  0  0  0  0  0  0  0  0
  -23.1711   -4.9344   20.7697 C   0  0  0  0  0  0  0  0  0  0  0  0
  -27.6738  -28.5961   18.9629 C   0  0  0  0  0  0  0  0  0  0  0  0
  -23.8550   -1.6252   20.7291 C   0  0  0  0  0  0  0  0  0  0  0  0
  -23.4514   -0.5909   19.8848 C   0  0  0  0  0  0  0  0  0  0  0  0
  -28.4324  -19.1181   19.8468 C   0  0  0  0  0  0  0  0  0  0  0  0
  -26.4976  -27.8056   20.9150 C   0  0  0  0  0  0  0  0  0  0  0  0
  -21.2143   -0.7273   20.7870 C   0  0  0  0  0  0  0  0  0  0  0  0
  -26.8711  -18.7810   21.4040 C   0  0  0  0  0  0  0  0  0  0  0  0
  -24.8291   -6.6894   20.6791 C   0  0  0  0  0  0  0  0  0  0  0  0
  -27.7187  -18.1171   20.5480 C   0  0  0  0  0  0  0  0  0  0  0  0
  -26.2713   -7.9720   19.0110 C   0  0  0  0  0  0  0  0  0  0  0  0
  -26.0625  -36.7853   22.4263 C   0  0  0  0  0  0  0  0  0  0  0  0
  -25.8479  -29.9003   19.8902 C   0  0  0  0  0  0  0  0  0  0  0  0
  -26.6025  -35.5218   22.1193 C   0  0  0  0  0  0  0  0  0  0  0  0
  -25.6598  -28.9310   20.8858 C   0  0  0  0  0  0  0  0  0  0  0  0
  -23.8286   -4.3697   21.8626 C   0  0  0  0  0  0  0  0  0  0  0  0
  -27.5000  -27.6404   19.9595 C   0  0  0  0  0  0  0  0  0  0  0  0
  -22.9383   -2.2105   21.6025 C   0  0  0  0  0  0  0  0  0  0  0  0
  -22.1311   -0.1420   19.9137 C   0  0  0  0  0  0  0  0  0  0  0  0
  -21.6180   -1.7616   21.6314 C   0  0  0  0  0  0  0  0  0  0  0  0
  -25.3450   -7.8878   20.0678 C   0  0  0  0  0  0  0  0  0  0  0  0
  -27.9698  -20.3224   20.3240 C   0  0  0  0  0  0  0  0  0  0  0  0
  -26.4316   -9.3199   18.8016 C   0  0  0  0  0  0  0  0  0  0  0  0
  -27.8250  -16.7178   20.4223 C   0  0  0  0  0  0  0  0  0  0  0  0
  -28.3996  -21.6709   19.9139 C   0  0  0  0  0  0  0  0  0  0  0  0
  -27.1150  -15.7666   21.1206 C   0  0  0  0  0  0  0  0  0  0  0  0
  -27.8937  -22.8122   20.4017 C   0  0  0  0  0  0  0  0  0  0  0  0
  -26.9279   -6.9254   18.2837 C   0  0  0  0  0  0  0  0  0  0  0  0
  -28.3924  -24.1301   19.9117 C   0  0  0  0  0  0  0  0  0  0  0  0
  -27.3344  -14.3286   20.8664 C   0  0  0  0  0  0  0  0  0  0  0  0
  -25.2527  -32.0822   22.1238 C   0  0  0  0  0  0  0  0  0  0  0  0
  -22.5112  -30.3885   22.4952 C   0  0  0  0  0  0  0  0  0  0  0  0
  -20.8686  -27.4191   22.1332 C   0  0  0  0  0  0  0  0  0  0  0  0
  -25.0891  -36.9773   23.5623 C   0  0  0  0  0  0  0  0  0  0  0  0
  -24.9492  -31.1044   19.8199 C   0  0  0  0  0  0  0  0  0  0  0  0
  -24.5862  -29.0679   21.9332 C   0  0  0  0  0  0  0  0  0  0  0  0
  -24.4330  -35.6800   24.0280 C   0  0  0  0  0  0  0  0  0  0  0  0
  -23.8387  -13.2704   20.5626 C   0  0  0  0  0  0  0  0  0  0  0  0
  -25.4790  -34.5820   24.1930 C   0  0  0  0  0  0  0  0  0  0  0  0
  -24.0034  -11.7656   20.3667 C   0  0  0  0  0  0  0  0  0  0  0  0
  -24.9068  -13.8463   21.4911 C   0  0  0  0  0  0  0  0  0  0  0  0
  -26.4653  -12.0226   20.8700 C   0  0  0  0  0  0  0  0  0  0  0  0
  -26.1711  -34.2744   22.8596 C   0  0  1  0  0  0  0  0  0  0  0  0
  -24.2970  -31.4421   21.1571 C   0  0  1  0  0  0  0  0  0  0  0  0
  -25.4294  -11.4301   19.9019 C   0  0  1  0  0  0  0  0  0  0  0  0
  -18.6482  -26.3312   22.5617 C   0  0  0  0  0  0  0  0  0  0  0  0
  -23.1868  -30.1848   25.4637 C   0  0  0  0  0  0  0  0  0  0  0  0
  -21.5032  -28.3410   25.6490 C   0  0  0  0  0  0  0  0  0  0  0  0
  -20.7755  -30.6286   24.9707 C   0  0  0  0  0  0  0  0  0  0  0  0
  -20.4489  -26.8749   19.2545 C   0  0  0  0  0  0  0  0  0  0  0  0
  -27.7438  -25.3465   20.5380 C   0  0  0  0  0  0  0  0  0  1  0  0
  -22.0881  -29.2110   23.3399 C   0  0  1  0  0  0  0  0  0  0  0  0
  -19.5041  -27.0865   21.5569 C   0  0  2  0  0  0  0  0  0  0  0  0
  -21.9100  -29.5894   24.8374 C   0  0  0  0  0  0  0  0  0  0  0  0
  -24.9451   -9.0867   20.4997 N   0  0  0  0  0  0  0  0  0  0  0  0
  -25.6234   -9.9371   19.7104 N   0  0  0  0  0  0  0  0  0  0  0  0
  -26.2592  -13.4629   21.0590 N   0  0  0  0  0  0  0  0  0  0  0  0
  -23.7371  -30.2659   21.8259 N   0  0  0  0  0  0  0  0  0  0  0  0
  -27.1837  -10.0256   17.9305 N   0  0  0  0  0  0  0  0  0  0  0  0
  -26.6488   -5.5957   18.6279 N   0  0  0  0  0  0  0  0  0  0  0  0
  -25.3169  -33.4589   22.0232 N   0  0  0  0  0  0  0  0  0  0  0  0
  -20.8869  -28.6699   22.7133 N   0  0  0  0  0  0  0  0  0  0  0  0
  -19.6487  -26.2445   20.3358 N   0  3  0  0  0  0  0  0  0  0  0  0
  -27.7507   -7.1624   17.3669 O   0  0  0  0  0  0  0  0  0  0  0  0
  -29.2704  -24.2188   19.0577 O   0  0  0  0  0  0  0  0  0  0  0  0
  -28.4594  -13.9805   20.5031 O   0  0  0  0  0  0  0  0  0  0  0  0
  -25.8840  -31.3793   22.9042 O   0  0  0  0  0  0  0  0  0  0  0  0
  -21.7776  -31.3778   22.4260 O   0  0  0  0  0  0  0  0  0  0  0  0
  -21.8217  -26.6452   22.0777 O   0  0  0  0  0  0  0  0  0  0  0  0
  -27.0178  -20.1256   21.2735 O   0  0  0  0  0  0  0  0  0  0  0  0
  -23.3403   -3.2378   22.4396 O   0  0  0  0  0  0  0  0  0  0  0  0
  -28.3040  -26.5431   19.9990 O   0  0  0  0  0  0  0  0  0  1  0  0
  -21.7432    0.8502   19.1017 F   0  0  0  0  0  0  0  0  0  0  0  0
  -20.7325   -2.3208   22.4675 F   0  0  0  0  0  0  0  0  0  0  0  0
  1  2  1  0  0  0  0
  1  5  2  0  0  0  0
  2  6  2  0  0  0  0
  3  8  2  0  0  0  0
  3 17  1  0  0  0  0
  4  9  1  0  0  0  0
  4 17  2  0  0  0  0
  5 20  1  0  0  0  0
  6 22  1  0  0  0  0
  7 10  2  0  0  0  0
  7 21  1  0  0  0  0
  8 24  1  0  0  0  0
  9 24  2  0  0  0  0
 10 25  1  0  0  0  0
 11 12  2  0  0  0  0
 11 26  1  0  0  0  0
 12 27  1  0  0  0  0
 13 18  1  0  0  0  0
 13 30  2  0  0  0  0
 14 23  1  0  0  0  0
 14 25  2  0  0  0  0
 15 27  2  0  0  0  0
 15 28  1  0  0  0  0
 16 18  2  0  0  0  0
 16 78  1  0  0  0  0
 17 29  1  0  0  0  0
 18 32  1  0  0  0  0
 19 29  1  0  0  0  0
 19 31  2  0  0  0  0
 19 36  1  0  0  0  0
 20 22  2  0  0  0  0
 20 42  1  0  0  0  0
 21 23  2  0  0  0  0
 21 43  1  0  0  0  0
 22 51  1  0  0  0  0
 23 44  1  0  0  0  0
 24 79  1  0  0  0  0
 25 80  1  0  0  0  0
 26 28  2  0  0  0  0
 26 79  1  0  0  0  0
 27 81  1  0  0  0  0
 28 82  1  0  0  0  0
 29 63  2  0  0  0  0
 30 33  1  0  0  0  0
 30 78  1  0  0  0  0
 31 64  1  0  0  0  0
 31 67  1  0  0  0  0
 32 34  2  0  0  0  0
 33 35  2  0  0  0  0
 34 38  1  0  0  0  0
 35 37  1  0  0  0  0
 36 68  1  0  0  0  0
 36 72  2  0  0  0  0
 37 59  1  0  0  0  0
 37 73  2  0  0  0  0
 38 65  1  0  0  0  0
 38 74  2  0  0  0  0
 39 52  1  0  0  0  0
 39 69  1  0  0  0  0
 39 75  2  0  0  0  0
 40 60  1  0  0  0  0
 40 66  1  0  0  0  0
 40 76  2  0  0  0  0
 41 61  1  0  0  0  0
 41 70  1  0  0  0  0
 41 77  2  0  0  0  0
 42 45  1  0  0  0  0
 43 52  1  0  0  0  0
 44 66  1  0  0  0  0
 45 47  1  0  0  0  0
 46 48  1  0  0  0  0
 46 49  1  0  0  0  0
 47 51  1  0  0  0  0
 48 53  1  0  0  0  0
 49 65  1  0  0  0  0
 50 53  1  0  0  0  0
 50 65  1  0  0  0  0
 51 69  1  0  0  0  0
 52 66  1  0  0  0  0
 53 64  1  0  0  0  0
 54 61  1  0  0  0  0
 55 62  1  0  0  0  0
 56 62  1  0  0  0  0
 57 62  1  0  0  0  0
 58 71  1  0  0  0  0
 59 80  1  0  0  0  0
 60 62  1  0  0  0  0
 60 70  1  0  0  0  0
 61 71  1  0  0  0  0
 63 64  1  0  0  0  0
M  CHG  1  71   1
M  ISO  4  34 100  38 100  59 101  80 101
M  END
> <Batch ID>
0119

> <Smiles>
CNC(C)C(=O)NC(C(=O)N1Cc2cc([101O:1][101CH2:1]C(=O)C=Cc3cc(C=[100CH:0][100C:0](=O)N4CCCC(n5nc(-c6ccc(Oc7ccc(F)cc7F)cc6)c(C(N)=O)c5N)C4)co3)ccc2CC1C(=O)NC1CCCc2ccccc21)C(C)(C)C

> <Shape>
0.254

> <Color>
0.080

> <Negative vol penalty>
0.000

$$$$

  -OEChem-04052301513D

 85 93  0     1  0  0  0  0  0999 V2000
  -15.7888  -26.5290   23.5074 C   0  0  0  0  0  0  0  0  0  0  0  0
  -17.0133  -25.9197   23.2530 C   0  0  0  0  0  0  0  0  0  0  0  0
  -22.9862   -9.9376   20.2218 C   0  0  0  0  0  0  0  0  0  0  0  0
  -23.6560  -10.2267   22.5250 C   0  0  0  0  0  0  0  0  0  0  0  0
  -15.7349  -27.8948   23.7826 C   0  0  0  0  0  0  0  0  0  0  0  0
  -18.1846  -26.6761   23.2726 C   0  0  0  0  0  0  0  0  0  0  0  0
  -21.9376  -24.3812   25.7813 C   0  0  0  0  0  0  0  0  0  0  0  0
  -22.1741   -8.8658   20.5925 C   0  0  0  0  0  0  0  0  0  0  0  0
  -22.8439   -9.1549   22.8958 C   0  0  0  0  0  0  0  0  0  0  0  0
  -22.6164  -23.3604   25.1173 C   0  0  0  0  0  0  0  0  0  0  0  0
  -19.1343   -8.4152   22.0032 C   0  0  0  0  0  0  0  0  0  0  0  0
  -17.8466   -8.3628   21.4698 C   0  0  0  0  0  0  0  0  0  0  0  0
  -32.0223  -18.5220   23.6791 C   0  0  0  0  0  0  0  0  0  0  0  0
  -32.2049  -16.5515   22.2933 C   0  0  0  0  0  0  0  0  0  0  0  0
  -30.0470  -17.5739   22.6610 C   0  0  0  0  0  0  0  0  0  0  0  0
  -24.4019  -24.8960   24.5947 C   0  0  0  0  0  0  0  0  0  0  0  0
  -18.3550   -6.2316   20.4516 C   0  0  0  0  0  0  0  0  0  0  0  0
  -23.7272  -10.6180   21.1881 C   0  0  0  0  0  0  0  0  0  0  0  0
  -32.8024  -17.5244   23.0946 C   0  0  0  0  0  0  0  0  0  0  0  0
  -30.6445  -18.5468   23.4623 C   0  0  0  0  0  0  0  0  0  0  0  0
  -24.2046  -13.0837   20.7406 C   0  0  0  0  0  0  0  0  0  0  0  0
  -16.9072  -28.6664   23.8150 C   0  0  0  0  0  0  0  0  0  0  0  0
  -22.4816  -25.6720   25.8477 C   0  0  0  0  0  0  0  0  0  0  0  0
  -18.1462  -28.0537   23.5471 C   0  0  0  0  0  0  0  0  0  0  0  0
  -23.7292  -25.9308   25.2624 C   0  0  0  0  0  0  0  0  0  0  0  0
  -30.8272  -16.5762   22.0765 C   0  0  0  0  0  0  0  0  0  0  0  0
  -22.1029   -8.4745   21.9295 C   0  0  0  0  0  0  0  0  0  0  0  0
  -23.8474  -23.6185   24.5214 C   0  0  0  0  0  0  0  0  0  0  0  0
  -20.0325   -7.3758   21.7607 C   0  0  0  0  0  0  0  0  0  0  0  0
  -17.4569   -7.2711   20.6940 C   0  0  0  0  0  0  0  0  0  0  0  0
  -19.6428   -6.2840   20.9850 C   0  0  0  0  0  0  0  0  0  0  0  0
  -24.5667  -11.7248   20.8057 C   0  0  0  0  0  0  0  0  0  0  0  0
  -25.3476  -13.7242   20.3287 C   0  0  0  0  0  0  0  0  0  0  0  0
  -35.1163  -17.0542   22.4313 C   0  0  0  0  0  0  0  0  0  0  0  0
  -34.2390  -17.4972   23.3213 C   0  0  0  0  0  0  0  0  0  0  0  0
  -29.8198  -19.5997   24.0808 C   0  0  0  0  0  0  0  0  0  0  0  0
  -28.5976  -19.9545   23.6583 C   0  0  0  0  0  0  0  0  0  0  0  0
  -26.5195  -21.3260   23.7820 C   0  0  0  0  0  0  0  0  0  0  0  0
  -25.7558  -22.2809   24.3220 C   0  0  0  0  0  0  0  0  0  1  0  0
  -22.9475  -13.7108   21.0271 C   0  0  0  0  0  0  0  0  0  0  0  0
  -27.8592  -21.0409   24.3588 C   0  0  0  0  0  0  0  0  0  0  0  0
  -21.5807  -28.5416   24.8195 C   0  0  0  0  0  0  0  0  0  0  0  0
  -24.1839  -29.5259   26.4859 C   0  0  0  0  0  0  0  0  0  0  0  0
  -27.2324  -28.7605   27.8155 C   0  0  0  0  0  0  0  0  0  0  0  0
  -30.8500  -14.5296   20.6078 C   0  0  0  0  0  0  0  0  0  0  0  0
  -16.7938  -30.1485   24.0705 C   0  0  0  0  0  0  0  0  0  0  0  0
  -21.7493  -26.7555   26.5908 C   0  0  0  0  0  0  0  0  0  0  0  0
  -24.3660  -27.2944   25.3228 C   0  0  0  0  0  0  0  0  0  0  0  0
  -18.1207  -30.8059   24.4415 C   0  0  0  0  0  0  0  0  0  0  0  0
  -29.7038  -11.8655   18.5424 C   0  0  0  0  0  0  0  0  0  0  0  0
  -19.2253  -30.3512   23.4930 C   0  0  0  0  0  0  0  0  0  0  0  0
  -28.2353  -11.7032   18.9418 C   0  0  0  0  0  0  0  0  0  0  0  0
  -30.5824  -12.2158   19.7421 C   0  0  0  0  0  0  0  0  0  0  0  0
  -28.6638  -13.2120   20.9234 C   0  0  0  0  0  0  0  0  0  0  0  0
  -19.4413  -28.8357   23.5837 C   0  0  1  0  0  0  0  0  0  0  0  0
  -22.1561  -28.1595   26.1539 C   0  0  1  0  0  0  0  0  0  0  0  0
  -27.7295  -12.9226   19.7372 C   0  0  2  0  0  0  0  0  0  0  0  0
  -29.1393  -29.7818   29.0875 C   0  0  0  0  0  0  0  0  0  0  0  0
  -25.1261  -30.9264   23.9441 C   0  0  0  0  0  0  0  0  0  0  0  0
  -27.4045  -31.0998   24.9675 C   0  0  0  0  0  0  0  0  0  0  0  0
  -25.4649  -32.2394   26.0454 C   0  0  0  0  0  0  0  0  0  0  0  0
  -26.8726  -26.8925   30.0828 C   0  0  0  0  0  0  0  0  0  0  0  0
  -25.6466  -29.7207   26.1670 C   0  0  1  0  0  0  0  0  0  0  0  0
  -27.8267  -29.0204   29.1880 C   0  0  2  0  0  0  0  0  0  0  0  0
  -25.8979  -30.9713   25.2780 C   0  0  0  0  0  0  0  0  0  0  0  0
  -25.8401  -11.5135   20.4624 N   0  0  0  0  0  0  0  0  0  0  0  0
  -26.2881  -12.7481   20.1775 N   0  0  0  0  0  0  0  0  0  0  0  0
  -23.6080  -28.3223   26.0553 N   0  0  0  0  0  0  0  0  0  0  0  0
  -30.0444  -13.3829   20.4444 N   0  0  0  0  0  0  0  0  0  0  0  0
  -25.6298  -15.0216   20.0845 N   0  0  0  0  0  0  0  0  0  0  0  0
  -21.8773  -12.9049   21.4387 N   0  0  0  0  0  0  0  0  0  0  0  0
  -30.2206  -15.5880   21.2621 N   0  0  0  0  0  0  0  0  0  0  0  0
  -20.2003  -28.5035   24.7703 N   0  0  0  0  0  0  0  0  0  0  0  0
  -26.3435  -29.7486   27.4483 N   0  0  0  0  0  0  0  0  0  0  0  0
  -28.0828  -27.7331   29.8938 N   0  3  0  0  0  0  0  0  0  0  0  0
  -22.7737  -14.9471   20.9053 O   0  0  0  0  0  0  0  0  0  0  0  0
  -28.3121  -21.6451   25.3231 O   0  0  0  0  0  0  0  0  0  0  0  0
  -22.3334  -28.8497   23.9028 O   0  0  0  0  0  0  0  0  0  0  0  0
  -23.5766  -30.4060   27.1008 O   0  0  0  0  0  0  0  0  0  0  0  0
  -27.5299  -27.7809   27.1355 O   0  0  0  0  0  0  0  0  0  0  0  0
  -32.0036  -14.5795   20.1734 O   0  0  0  0  0  0  0  0  0  0  0  0
  -21.3104   -7.4289   22.2916 O   0  0  0  0  0  0  0  0  0  0  0  0
  -24.5118  -22.6241   23.8720 O   0  0  0  0  0  0  0  0  0  1  0  0
  -16.2197   -7.2202   20.1832 F   0  0  0  0  0  0  0  0  0  0  0  0
  -20.5008   -5.2819   20.7496 F   0  0  0  0  0  0  0  0  0  0  0  0
  1  2  1  0  0  0  0
  1  5  2  0  0  0  0
  2  6  2  0  0  0  0
  3  8  2  0  0  0  0
  3 18  1  0  0  0  0
  4  9  1  0  0  0  0
  4 18  2  0  0  0  0
  5 22  1  0  0  0  0
  6 24  1  0  0  0  0
  7 10  2  0  0  0  0
  7 23  1  0  0  0  0
  8 27  1  0  0  0  0
  9 27  2  0  0  0  0
 10 28  1  0  0  0  0
 11 12  2  0  0  0  0
 11 29  1  0  0  0  0
 12 30  1  0  0  0  0
 13 19  1  0  0  0  0
 13 20  2  0  0  0  0
 14 19  2  0  0  0  0
 14 26  1  0  0  0  0
 15 20  1  0  0  0  0
 15 26  2  0  0  0  0
 16 25  1  0  0  0  0
 16 28  2  0  0  0  0
 17 30  2  0  0  0  0
 17 31  1  0  0  0  0
 18 32  1  0  0  0  0
 19 35  1  0  0  0  0
 20 36  1  0  0  0  0
 21 32  1  0  0  0  0
 21 33  2  0  0  0  0
 21 40  1  0  0  0  0
 22 24  2  0  0  0  0
 22 46  1  0  0  0  0
 23 25  2  0  0  0  0
 23 47  1  0  0  0  0
 24 55  1  0  0  0  0
 25 48  1  0  0  0  0
 26 72  1  0  0  0  0
 27 82  1  0  0  0  0
 28 83  1  0  0  0  0
 29 31  2  0  0  0  0
 29 82  1  0  0  0  0
 30 84  1  0  0  0  0
 31 85  1  0  0  0  0
 32 66  2  0  0  0  0
 33 67  1  0  0  0  0
 33 70  1  0  0  0  0
 34 35  2  0  0  0  0
 36 37  2  0  0  0  0
 37 41  1  0  0  0  0
 38 39  2  0  0  0  0
 38 41  1  0  0  0  0
 39 83  1  0  0  0  0
 40 71  1  0  0  0  0
 40 76  2  0  0  0  0
 41 77  2  0  0  0  0
 42 56  1  0  0  0  0
 42 73  1  0  0  0  0
 42 78  2  0  0  0  0
 43 63  1  0  0  0  0
 43 68  1  0  0  0  0
 43 79  2  0  0  0  0
 44 64  1  0  0  0  0
 44 74  1  0  0  0  0
 44 80  2  0  0  0  0
 45 69  1  0  0  0  0
 45 72  1  0  0  0  0
 45 81  2  0  0  0  0
 46 49  1  0  0  0  0
 47 56  1  0  0  0  0
 48 68  1  0  0  0  0
 49 51  1  0  0  0  0
 50 52  1  0  0  0  0
 50 53  1  0  0  0  0
 51 55  1  0  0  0  0
 52 57  1  0  0  0  0
 53 69  1  0  0  0  0
 54 57  1  0  0  0  0
 54 69  1  0  0  0  0
 55 73  1  0  0  0  0
 56 68  1  0  0  0  0
 57 67  1  0  0  0  0
 58 64  1  0  0  0  0
 59 65  1  0  0  0  0
 60 65  1  0  0  0  0
 61 65  1  0  0  0  0
 62 75  1  0  0  0  0
 63 65  1  0  0  0  0
 63 74  1  0  0  0  0
 64 75  1  0  0  0  0
 66 67  1  0  0  0  0
M  CHG  1  75   1
M  ISO  4  39 101  45 100  72 100  83 101
M  END
> <Batch ID>
0119

> <Smiles>
C=Cc1cc(C=CC(=O)C=[101CH:1][101O:1]c2ccc3c(c2)CN(C(=O)C(NC(=O)C(C)NC)C(C)(C)C)C(C(=O)NC2CCCc4ccccc42)C3)cc([100NH:0][100C:0](=O)N2CCCC(n3nc(-c4ccc(Oc5ccc(F)cc5F)cc4)c(C(N)=O)c3N)C2)c1

> <Shape>
0.242

> <Color>
0.205

> <Negative vol penalty>
0.000

$$$$

  -OEChem-04052301513D

 85 93  0     1  0  0  0  0  0999 V2000
  -24.8815  -22.1416   16.3547 C   0  0  0  0  0  0  0  0  0  0  0  0
  -25.3003  -20.8396   16.1049 C   0  0  0  0  0  0  0  0  0  0  0  0
  -25.7958  -28.4270   20.6591 C   0  0  0  0  0  0  0  0  0  0  0  0
  -27.7598  -29.6153   19.9057 C   0  0  0  0  0  0  0  0  0  0  0  0
  -24.5117  -22.5152   17.6450 C   0  0  0  0  0  0  0  0  0  0  0  0
  -25.3380  -19.9077   17.1428 C   0  0  0  0  0  0  0  0  0  0  0  0
  -27.2923  -14.1369   17.2158 C   0  0  0  0  0  0  0  0  0  0  0  0
  -25.3337  -29.5861   21.2826 C   0  0  0  0  0  0  0  0  0  0  0  0
  -27.2977  -30.7744   20.5291 C   0  0  0  0  0  0  0  0  0  0  0  0
  -28.4779  -13.4552   17.4869 C   0  0  0  0  0  0  0  0  0  0  0  0
  -23.8113  -32.1392   23.3773 C   0  0  0  0  0  0  0  0  0  0  0  0
  -23.3035  -32.0230   24.6712 C   0  0  0  0  0  0  0  0  0  0  0  0
  -30.7373  -16.5382   20.6029 C   0  0  0  0  0  0  0  0  0  0  0  0
  -27.7151  -13.0355   19.7366 C   0  0  0  0  0  0  0  0  0  0  0  0
  -31.3560  -15.0464   22.3998 C   0  0  0  0  0  0  0  0  0  0  0  0
  -25.4351  -31.1774   25.4318 C   0  0  0  0  0  0  0  0  0  0  0  0
  -27.0089  -28.4416   19.9707 C   0  0  0  0  0  0  0  0  0  0  0  0
  -30.0240  -17.3282   21.5044 C   0  0  0  0  0  0  0  0  0  0  0  0
  -27.2317  -26.8295   18.0063 C   0  0  0  0  0  0  0  0  0  0  0  0
  -24.5571  -21.5902   18.7010 C   0  0  0  0  0  0  0  0  0  0  0  0
  -26.3122  -14.2826   18.2081 C   0  0  0  0  0  0  0  0  0  0  0  0
  -24.9458  -20.2592   18.4471 C   0  0  0  0  0  0  0  0  0  0  0  0
  -26.5169  -13.7172   19.4748 C   0  0  0  0  0  0  0  0  0  0  0  0
  -30.6427  -15.8365   23.3013 C   0  0  0  0  0  0  0  0  0  0  0  0
  -29.9767  -16.9774   22.8536 C   0  0  0  0  0  0  0  0  0  0  0  0
  -26.0846  -30.7597   21.2176 C   0  0  0  0  0  0  0  0  0  0  0  0
  -28.6907  -12.9069   18.7483 C   0  0  0  0  0  0  0  0  0  0  0  0
  -25.1310  -31.7744   23.1105 C   0  0  0  0  0  0  0  0  0  0  0  0
  -31.4032  -15.3972   21.0506 C   0  0  0  0  0  0  0  0  0  0  0  0
  -24.1154  -31.5422   25.6984 C   0  0  0  0  0  0  0  0  0  0  0  0
  -25.9429  -31.2935   24.1378 C   0  0  0  0  0  0  0  0  0  0  0  0
  -27.4870  -27.2445   19.3270 C   0  0  0  0  0  0  0  0  0  0  0  0
  -27.9059  -25.6392   17.8839 C   0  0  0  0  0  0  0  0  0  0  0  0
  -29.3405  -18.5138   21.0031 C   0  0  0  0  0  0  0  0  0  0  0  0
  -29.9327  -19.5473   20.3712 C   0  0  0  0  0  0  0  0  0  0  0  0
  -26.4545  -27.4634   16.9816 C   0  0  0  0  0  0  0  0  0  0  0  0
  -29.0991  -20.6765   19.9121 C   0  0  0  0  0  0  0  0  0  0  0  0
  -24.9809  -16.7533   19.7003 C   0  0  0  0  0  0  0  0  0  0  0  0
  -23.0786  -14.4573   20.9778 C   0  0  0  0  0  0  0  0  0  0  0  0
  -22.6604  -11.1745   21.8115 C   0  0  0  0  0  0  0  0  0  0  0  0
  -24.1383  -22.0462   20.0765 C   0  0  0  0  0  0  0  0  0  0  0  0
  -25.0273  -14.9976   17.8917 C   0  0  0  0  0  0  0  0  0  0  0  0
  -25.4874  -13.8282   20.5686 C   0  0  0  0  0  0  0  0  0  0  0  0
  -24.6317  -21.1222   21.1851 C   0  0  0  0  0  0  0  0  0  0  0  0
  -31.2995  -23.4376   20.8951 C   0  0  0  0  0  0  0  0  0  0  0  0
  -24.2987  -19.6774   20.8441 C   0  0  0  0  0  0  0  0  0  0  0  0
  -30.4498  -24.6437   20.5041 C   0  0  0  0  0  0  0  0  0  0  0  0
  -30.4440  -22.2700   21.3845 C   0  0  0  0  0  0  0  0  0  0  0  0
  -28.5308  -23.0715   20.0289 C   0  0  0  0  0  0  0  0  0  0  0  0
  -25.0241  -19.2367   19.5664 C   0  0  1  0  0  0  0  0  0  0  0  0
  -24.3182  -15.5298   19.1332 C   0  0  1  0  0  0  0  0  0  0  0  0
  -29.3681  -24.2415   19.4891 C   0  0  1  0  0  0  0  0  0  0  0  0
  -30.6100  -15.4385   24.7409 C   0  0  0  0  0  0  0  0  0  0  0  0
  -27.8768  -17.1936   24.2063 C   0  0  0  0  0  0  0  0  0  0  0  0
  -21.0157   -9.6066   22.8764 C   0  0  0  0  0  0  0  0  0  0  0  0
  -23.8301  -15.5415   23.7291 C   0  0  0  0  0  0  0  0  0  0  0  0
  -22.9619  -13.4157   24.7269 C   0  0  0  0  0  0  0  0  0  0  0  0
  -21.4201  -14.9241   23.4738 C   0  0  0  0  0  0  0  0  0  0  0  0
  -22.4275   -9.5576   19.3436 C   0  0  0  0  0  0  0  0  0  0  0  0
  -29.2155  -17.8184   23.8310 C   0  0  0  0  0  0  0  0  0  0  0  0
  -32.2477  -12.4332   19.1679 C   0  0  0  0  0  0  0  0  0  0  0  0
  -31.0143  -12.6572   18.3072 C   0  0  0  0  0  0  0  0  0  1  0  0
  -32.1927  -13.2330   20.4600 C   0  0  0  0  0  0  0  0  0  0  0  0
  -23.1407  -13.5767   22.2024 C   0  0  1  0  0  0  0  0  0  0  0  0
  -21.5101  -10.2131   21.5724 C   0  0  2  0  0  0  0  0  0  0  0  0
  -22.8586  -14.3639   23.5132 C   0  0  0  0  0  0  0  0  0  0  0  0
  -28.2628  -26.3873   19.9959 N   0  0  0  0  0  0  0  0  0  0  0  0
  -28.5007  -25.4218   19.0919 N   0  0  0  0  0  0  0  0  0  0  0  0
  -29.3803  -21.9422   20.4234 N   0  0  0  0  0  0  0  0  0  0  0  0
  -24.2501  -14.5422   20.2122 N   0  0  0  0  0  0  0  0  0  0  0  0
  -28.0421  -24.7676   16.8620 N   0  0  0  0  0  0  0  0  0  0  0  0
  -25.8288  -28.6826   17.2755 N   0  0  0  0  0  0  0  0  0  0  0  0
  -24.5237  -17.9412   19.1624 N   0  0  0  0  0  0  0  0  0  0  0  0
  -22.2190  -12.4725   21.9584 N   0  0  0  0  0  0  0  0  0  0  0  0
  -21.9391   -9.1058   20.6720 N   0  3  0  0  0  0  0  0  0  0  0  0
  -26.3056  -26.9553   15.8444 O   0  0  0  0  0  0  0  0  0  0  0  0
  -28.2001  -20.4288   19.1063 O   0  0  0  0  0  0  0  0  0  0  0  0
  -25.8421  -16.6289   20.5632 O   0  0  0  0  0  0  0  0  0  0  0  0
  -22.0271  -15.0424   20.7064 O   0  0  0  0  0  0  0  0  0  0  0  0
  -23.8328  -10.8099   21.8665 O   0  0  0  0  0  0  0  0  0  0  0  0
  -25.6339  -31.8910   21.8256 O   0  0  0  0  0  0  0  0  0  0  0  0
  -29.8474  -12.2417   19.0157 O   0  0  0  0  0  0  0  0  0  1  0  0
  -32.1041  -14.6204   20.1651 O   0  0  0  0  0  0  0  0  0  0  0  0
  -23.6281  -31.4322   26.9413 F   0  0  0  0  0  0  0  0  0  0  0  0
  -27.2118  -30.9426   23.8879 F   0  0  0  0  0  0  0  0  0  0  0  0
  1  2  1  0  0  0  0
  1  5  2  0  0  0  0
  2  6  2  0  0  0  0
  3  8  2  0  0  0  0
  3 17  1  0  0  0  0
  4  9  1  0  0  0  0
  4 17  2  0  0  0  0
  5 20  1  0  0  0  0
  6 22  1  0  0  0  0
  7 10  2  0  0  0  0
  7 21  1  0  0  0  0
  8 26  1  0  0  0  0
  9 26  2  0  0  0  0
 10 27  1  0  0  0  0
 11 12  2  0  0  0  0
 11 28  1  0  0  0  0
 12 30  1  0  0  0  0
 13 18  1  0  0  0  0
 13 29  2  0  0  0  0
 14 23  1  0  0  0  0
 14 27  2  0  0  0  0
 15 24  2  0  0  0  0
 15 29  1  0  0  0  0
 16 30  2  0  0  0  0
 16 31  1  0  0  0  0
 17 32  1  0  0  0  0
 18 25  2  0  0  0  0
 18 34  1  0  0  0  0
 19 32  1  0  0  0  0
 19 33  2  0  0  0  0
 19 36  1  0  0  0  0
 20 22  2  0  0  0  0
 20 41  1  0  0  0  0
 21 23  2  0  0  0  0
 21 42  1  0  0  0  0
 22 50  1  0  0  0  0
 23 43  1  0  0  0  0
 24 25  1  0  0  0  0
 24 53  1  0  0  0  0
 25 60  1  0  0  0  0
 26 81  1  0  0  0  0
 27 82  1  0  0  0  0
 28 31  2  0  0  0  0
 28 81  1  0  0  0  0
 29 83  1  0  0  0  0
 30 84  1  0  0  0  0
 31 85  1  0  0  0  0
 32 67  2  0  0  0  0
 33 68  1  0  0  0  0
 33 71  1  0  0  0  0
 34 35  2  0  0  0  0
 35 37  1  0  0  0  0
 36 72  1  0  0  0  0
 36 76  2  0  0  0  0
 37 69  1  0  0  0  0
 37 77  2  0  0  0  0
 38 51  1  0  0  0  0
 38 73  1  0  0  0  0
 38 78  2  0  0  0  0
 39 64  1  0  0  0  0
 39 70  1  0  0  0  0
 39 79  2  0  0  0  0
 40 65  1  0  0  0  0
 40 74  1  0  0  0  0
 40 80  2  0  0  0  0
 41 44  1  0  0  0  0
 42 51  1  0  0  0  0
 43 70  1  0  0  0  0
 44 46  1  0  0  0  0
 45 47  1  0  0  0  0
 45 48  1  0  0  0  0
 46 50  1  0  0  0  0
 47 52  1  0  0  0  0
 48 69  1  0  0  0  0
 49 52  1  0  0  0  0
 49 69  1  0  0  0  0
 50 73  1  0  0  0  0
 51 70  1  0  0  0  0
 52 68  1  0  0  0  0
 54 60  1  0  0  0  0
 55 65  1  0  0  0  0
 56 66  1  0  0  0  0
 57 66  1  0  0  0  0
 58 66  1  0  0  0  0
 59 75  1  0  0  0  0
 61 62  1  0  0  0  0
 61 63  1  0  0  0  0
 62 82  1  0  0  0  0
 63 83  1  0  0  0  0
 64 66  1  0  0  0  0
 64 74  1  0  0  0  0
 65 75  1  0  0  0  0
 67 68  1  0  0  0  0
M  CHG  1  75   1
M  ISO  4  35 100  37 100  62 101  82 101
M  END
> <Batch ID>
0119

> <Smiles>
CCc1c(C)cc(OCC[101CH2:1][101O:1]c2ccc3c(c2)CN(C(=O)C(NC(=O)C(C)NC)C(C)(C)C)C(C(=O)NC2CCCc4ccccc42)C3)cc1C=[100CH:0][100C:0](=O)N1CCCC(n2nc(-c3ccc(Oc4ccc(F)cc4F)cc3)c(C(N)=O)c2N)C1

> <Shape>
0.285

> <Color>
0.072

> <Negative vol penalty>
0.000

$$$$

  -OEChem-04052301513D

 85 93  0     1  0  0  0  0  0999 V2000
  -18.2024  -30.6594   14.6901 C   0  0  0  0  0  0  0  0  0  0  0  0
  -18.8712  -29.4669   14.9473 C   0  0  0  0  0  0  0  0  0  0  0  0
  -22.9837   -9.9238   19.9822 C   0  0  0  0  0  0  0  0  0  0  0  0
  -23.7596   -9.9350   22.2702 C   0  0  0  0  0  0  0  0  0  0  0  0
  -18.8676  -31.8759   14.8363 C   0  0  0  0  0  0  0  0  0  0  0  0
  -20.2061  -29.4904   15.3498 C   0  0  0  0  0  0  0  0  0  0  0  0
  -22.9422  -25.6457   19.2534 C   0  0  0  0  0  0  0  0  0  0  0  0
  -22.2198   -8.7871   20.2468 C   0  0  0  0  0  0  0  0  0  0  0  0
  -22.9956   -8.7983   22.5348 C   0  0  0  0  0  0  0  0  0  0  0  0
  -23.7391  -24.5187   19.0565 C   0  0  0  0  0  0  0  0  0  0  0  0
  -23.2194   -5.4669   22.0031 C   0  0  0  0  0  0  0  0  0  0  0  0
  -23.8203   -4.4360   22.7253 C   0  0  0  0  0  0  0  0  0  0  0  0
  -31.6162  -21.5183   21.8588 C   0  0  0  0  0  0  0  0  0  0  0  0
  -25.7151  -25.8812   19.2975 C   0  0  0  0  0  0  0  0  0  0  0  0
  -22.1345   -4.6559   24.4419 C   0  0  0  0  0  0  0  0  0  0  0  0
  -23.7536  -10.4977   20.9939 C   0  0  0  0  0  0  0  0  0  0  0  0
  -30.6920  -20.5000   21.4858 C   0  0  0  0  0  0  0  0  0  0  0  0
  -24.1426  -13.0148   20.8506 C   0  0  0  0  0  0  0  0  0  0  0  0
  -20.2084  -31.9147   15.2501 C   0  0  0  0  0  0  0  0  0  0  0  0
  -23.5269  -26.9029   19.4633 C   0  0  0  0  0  0  0  0  0  0  0  0
  -20.8902  -30.7085   15.5004 C   0  0  0  0  0  0  0  0  0  0  0  0
  -24.9235  -27.0221   19.4993 C   0  0  0  0  0  0  0  0  0  0  0  0
  -22.2257   -8.2244   21.5231 C   0  0  0  0  0  0  0  0  0  0  0  0
  -25.1257  -24.6369   19.0756 C   0  0  0  0  0  0  0  0  0  0  0  0
  -22.0761   -6.0925   22.5003 C   0  0  0  0  0  0  0  0  0  0  0  0
  -23.2779   -4.0304   23.9446 C   0  0  0  0  0  0  0  0  0  0  0  0
  -21.5336   -5.6869   23.7197 C   0  0  0  0  0  0  0  0  0  0  0  0
  -24.5434  -11.6715   20.7210 C   0  0  0  0  0  0  0  0  0  0  0  0
  -32.7389  -21.0008   22.4665 C   0  0  0  0  0  0  0  0  0  0  0  0
  -25.2462  -13.7403   20.4737 C   0  0  0  0  0  0  0  0  0  0  0  0
  -31.1438  -19.2428   21.8224 C   0  0  0  0  0  0  0  0  0  0  0  0
  -29.4019  -20.7480   20.8182 C   0  0  0  0  0  0  0  0  0  0  0  0
  -28.9303  -21.9618   20.5005 C   0  0  0  0  0  0  0  0  0  0  0  0
  -22.8851  -13.5582   21.2739 C   0  0  0  0  0  0  0  0  0  0  0  0
  -27.6041  -22.1061   19.8327 C   0  0  0  0  0  0  0  0  0  0  0  0
  -23.4876  -29.6810   17.9191 C   0  0  0  0  0  0  0  0  0  0  0  0
  -30.7698  -14.5900   20.7134 C   0  0  0  0  0  0  0  0  0  0  0  0
  -25.1428  -30.7030   20.5150 C   0  0  0  0  0  0  0  0  0  0  0  0
  -31.1059  -16.7338   22.0240 C   0  0  0  0  0  0  0  0  0  0  0  0
  -27.1650  -29.9259   23.1520 C   0  0  0  0  0  0  0  0  0  0  0  0
  -20.8994  -33.2517   15.3485 C   0  0  0  0  0  0  0  0  0  0  0  0
  -22.6535  -28.1042   19.7007 C   0  0  0  0  0  0  0  0  0  0  0  0
  -25.6005  -28.3457   19.7410 C   0  0  0  0  0  0  0  0  0  0  0  0
  -22.2034  -33.2066   16.1407 C   0  0  0  0  0  0  0  0  0  0  0  0
  -29.5441  -12.2958   18.2488 C   0  0  0  0  0  0  0  0  0  0  0  0
  -23.0549  -32.0201   15.7002 C   0  0  0  0  0  0  0  0  0  0  0  0
  -28.1112  -12.0160   18.7000 C   0  0  0  0  0  0  0  0  0  0  0  0
  -30.4767  -12.4907   19.4402 C   0  0  0  0  0  0  0  0  0  0  0  0
  -28.5975  -13.2730   20.8468 C   0  0  0  0  0  0  0  0  0  0  0  0
  -22.3311  -30.6939   15.9628 C   0  0  1  0  0  0  0  0  0  0  0  0
  -23.3554  -29.4234   19.3935 C   0  0  1  0  0  0  0  0  0  0  0  0
  -27.6165  -13.1003   19.6737 C   0  0  2  0  0  0  0  0  0  0  0  0
  -33.9170  -21.7238   22.9926 C   0  0  0  0  0  0  0  0  0  0  0  0
  -28.3851  -30.9783   25.0758 C   0  0  0  0  0  0  0  0  0  0  0  0
  -27.2699  -31.7462   18.5922 C   0  0  0  0  0  0  0  0  0  0  0  0
  -28.8444  -31.9082   20.5321 C   0  0  0  0  0  0  0  0  0  0  0  0
  -26.7555  -33.2715   20.5062 C   0  0  0  0  0  0  0  0  0  0  0  0
  -25.6301  -28.3548   25.1355 C   0  0  0  0  0  0  0  0  0  0  0  0
  -27.1804  -23.5267   19.5245 C   0  0  0  0  0  0  0  0  0  1  0  0
  -30.1674  -15.6036   21.6536 C   0  0  0  0  0  0  0  0  0  0  0  0
  -26.6030  -30.7773   20.8906 C   0  0  1  0  0  0  0  0  0  0  0  0
  -27.0982  -30.3085   24.6195 C   0  0  2  0  0  0  0  0  0  0  0  0
  -27.3558  -31.9011   20.1238 C   0  0  0  0  0  0  0  0  0  0  0  0
  -25.8033  -11.5482   20.2949 N   0  0  0  0  0  0  0  0  0  0  0  0
  -26.2036  -12.8232   20.1534 N   0  0  0  0  0  0  0  0  0  0  0  0
  -24.7034  -29.4920   19.9615 N   0  0  0  0  0  0  0  0  0  0  0  0
  -29.9605  -13.5126   20.3526 N   0  0  0  0  0  0  0  0  0  0  0  0
  -25.4814  -15.0669   20.3882 N   0  0  0  0  0  0  0  0  0  0  0  0
  -21.8585  -12.6712   21.6256 N   0  0  0  0  0  0  0  0  0  0  0  0
  -30.5883  -18.0026   21.6534 N   0  0  0  0  0  0  0  0  0  0  0  0
  -22.4095  -30.3444   17.3650 N   0  0  0  0  0  0  0  0  0  0  0  0
  -26.6446  -30.9135   22.3425 N   0  0  0  0  0  0  0  0  0  0  0  0
  -26.8742  -29.0987   25.4605 N   0  3  0  0  0  0  0  0  0  0  0  0
  -22.6727  -14.7935   21.3227 O   0  0  0  0  0  0  0  0  0  0  0  0
  -26.9057  -21.1356   19.5528 O   0  0  0  0  0  0  0  0  0  0  0  0
  -24.4940  -29.3070   17.3283 O   0  0  0  0  0  0  0  0  0  0  0  0
  -31.9243  -14.7543   20.3105 O   0  0  0  0  0  0  0  0  0  0  0  0
  -24.4171  -31.6808   20.7122 O   0  0  0  0  0  0  0  0  0  0  0  0
  -32.1796  -16.5248   22.5794 O   0  0  0  0  0  0  0  0  0  0  0  0
  -27.6353  -28.8594   22.7623 O   0  0  0  0  0  0  0  0  0  0  0  0
  -21.4802   -7.1154   21.7817 O   0  0  0  0  0  0  0  0  0  0  0  0
  -25.9058  -23.5386   18.8830 O   0  0  0  0  0  0  0  0  0  1  0  0
  -23.8541   -3.0393   24.6373 F   0  0  0  0  0  0  0  0  0  0  0  0
  -20.4347   -6.2833   24.2019 F   0  0  0  0  0  0  0  0  0  0  0  0
  -32.6761  -19.2937   22.5852 S   0  0  0  0  0  0  0  0  0  0  0  0
  1  2  1  0  0  0  0
  1  5  2  0  0  0  0
  2  6  2  0  0  0  0
  3  8  2  0  0  0  0
  3 16  1  0  0  0  0
  4  9  1  0  0  0  0
  4 16  2  0  0  0  0
  5 19  1  0  0  0  0
  6 21  1  0  0  0  0
  7 10  2  0  0  0  0
  7 20  1  0  0  0  0
  8 23  1  0  0  0  0
  9 23  2  0  0  0  0
 10 24  1  0  0  0  0
 11 12  2  0  0  0  0
 11 25  1  0  0  0  0
 12 26  1  0  0  0  0
 13 17  1  0  0  0  0
 13 29  2  0  0  0  0
 14 22  1  0  0  0  0
 14 24  2  0  0  0  0
 15 26  2  0  0  0  0
 15 27  1  0  0  0  0
 16 28  1  0  0  0  0
 17 31  2  0  0  0  0
 17 32  1  0  0  0  0
 18 28  1  0  0  0  0
 18 30  2  0  0  0  0
 18 34  1  0  0  0  0
 19 21  2  0  0  0  0
 19 41  1  0  0  0  0
 20 22  2  0  0  0  0
 20 42  1  0  0  0  0
 21 50  1  0  0  0  0
 22 43  1  0  0  0  0
 23 81  1  0  0  0  0
 24 82  1  0  0  0  0
 25 27  2  0  0  0  0
 25 81  1  0  0  0  0
 26 83  1  0  0  0  0
 27 84  1  0  0  0  0
 28 64  2  0  0  0  0
 29 53  1  0  0  0  0
 29 85  1  0  0  0  0
 30 65  1  0  0  0  0
 30 68  1  0  0  0  0
 31 70  1  0  0  0  0
 31 85  1  0  0  0  0
 32 33  2  0  0  0  0
 33 35  1  0  0  0  0
 34 69  1  0  0  0  0
 34 74  2  0  0  0  0
 35 59  1  0  0  0  0
 35 75  2  0  0  0  0
 36 51  1  0  0  0  0
 36 71  1  0  0  0  0
 36 76  2  0  0  0  0
 37 60  1  0  0  0  0
 37 67  1  0  0  0  0
 37 77  2  0  0  0  0
 38 61  1  0  0  0  0
 38 66  1  0  0  0  0
 38 78  2  0  0  0  0
 39 60  1  0  0  0  0
 39 70  1  0  0  0  0
 39 79  2  0  0  0  0
 40 62  1  0  0  0  0
 40 72  1  0  0  0  0
 40 80  2  0  0  0  0
 41 44  1  0  0  0  0
 42 51  1  0  0  0  0
 43 66  1  0  0  0  0
 44 46  1  0  0  0  0
 45 47  1  0  0  0  0
 45 48  1  0  0  0  0
 46 50  1  0  0  0  0
 47 52  1  0  0  0  0
 48 67  1  0  0  0  0
 49 52  1  0  0  0  0
 49 67  1  0  0  0  0
 50 71  1  0  0  0  0
 51 66  1  0  0  0  0
 52 65  1  0  0  0  0
 54 62  1  0  0  0  0
 55 63  1  0  0  0  0
 56 63  1  0  0  0  0
 57 63  1  0  0  0  0
 58 73  1  0  0  0  0
 59 82  1  0  0  0  0
 61 63  1  0  0  0  0
 61 72  1  0  0  0  0
 62 73  1  0  0  0  0
 64 65  1  0  0  0  0
M  CHG  1  73   1
M  ISO  4  37 100  59 101  60 100  82 101
M  END
> <Batch ID>
0119

> <Smiles>
CNC(C)C(=O)NC(C(=O)N1Cc2cc([101O:1][101CH2:1]C(=O)C=Cc3cc(C)sc3NC(=O)[100CH2:0][100C:0](=O)N3CCCC(n4nc(-c5ccc(Oc6ccc(F)cc6F)cc5)c(C(N)=O)c4N)C3)ccc2CC1C(=O)NC1CCCc2ccccc21)C(C)(C)C

> <Shape>
0.302

> <Color>
0.192

> <Negative vol penalty>
0.000

$$$$

  -OEChem-04052301513D

 85 93  0     1  0  0  0  0  0999 V2000
  -32.0340  -34.2299   21.1121 C   0  0  0  0  0  0  0  0  0  0  0  0
  -31.5633  -32.9221   21.0510 C   0  0  0  0  0  0  0  0  0  0  0  0
  -23.3823   -9.6320   21.6870 C   0  0  0  0  0  0  0  0  0  0  0  0
  -24.0521  -10.7958   23.6955 C   0  0  0  0  0  0  0  0  0  0  0  0
  -31.4538  -35.1377   21.9971 C   0  0  0  0  0  0  0  0  0  0  0  0
  -30.5129  -32.5211   21.8757 C   0  0  0  0  0  0  0  0  0  0  0  0
  -27.0352  -29.7930   19.4043 C   0  0  0  0  0  0  0  0  0  0  0  0
  -22.7309   -8.6715   22.4607 C   0  0  0  0  0  0  0  0  0  0  0  0
  -23.4006   -9.8352   24.4693 C   0  0  0  0  0  0  0  0  0  0  0  0
  -27.3371  -28.4557   19.1509 C   0  0  0  0  0  0  0  0  0  0  0  0
  -19.8092   -8.3872   24.1387 C   0  0  0  0  0  0  0  0  0  0  0  0
  -18.5302   -7.9951   23.7438 C   0  0  0  0  0  0  0  0  0  0  0  0
  -31.2325  -19.9044   21.3321 C   0  0  0  0  0  0  0  0  0  0  0  0
  -29.3857  -18.4265   20.8402 C   0  0  0  0  0  0  0  0  0  0  0  0
  -31.6553  -17.6086   20.7091 C   0  0  0  0  0  0  0  0  0  0  0  0
  -25.9787  -27.7985   21.0330 C   0  0  0  0  0  0  0  0  0  0  0  0
  -19.3033   -5.7191   23.4999 C   0  0  0  0  0  0  0  0  0  0  0  0
  -24.0429  -10.6941   22.3044 C   0  0  0  0  0  0  0  0  0  0  0  0
  -29.8604  -19.6844   21.2117 C   0  0  0  0  0  0  0  0  0  0  0  0
  -32.1300  -18.8665   21.0807 C   0  0  0  0  0  0  0  0  0  0  0  0
  -24.1717  -12.8802   20.9958 C   0  0  0  0  0  0  0  0  0  0  0  0
  -30.3894  -34.7502   22.8262 C   0  0  0  0  0  0  0  0  0  0  0  0
  -26.2101  -30.1444   20.4824 C   0  0  0  0  0  0  0  0  0  0  0  0
  -29.9188  -33.4242   22.7736 C   0  0  0  0  0  0  0  0  0  0  0  0
  -25.6657  -29.1408   21.2964 C   0  0  0  0  0  0  0  0  0  0  0  0
  -30.2831  -17.3886   20.5888 C   0  0  0  0  0  0  0  0  0  0  0  0
  -22.7401   -8.7731   23.8519 C   0  0  0  0  0  0  0  0  0  0  0  0
  -26.8112  -27.4584   19.9670 C   0  0  0  0  0  0  0  0  0  0  0  0
  -20.8353   -7.4453   24.2142 C   0  0  0  0  0  0  0  0  0  0  0  0
  -18.2772   -6.6610   23.4244 C   0  0  0  0  0  0  0  0  0  0  0  0
  -20.5824   -6.1113   23.8948 C   0  0  0  0  0  0  0  0  0  0  0  0
  -24.7164  -11.6864   21.5056 C   0  0  0  0  0  0  0  0  0  0  0  0
  -25.2086  -13.4660   20.3116 C   0  0  0  0  0  0  0  0  0  0  0  0
  -34.2268  -18.3493   22.0973 C   0  0  0  0  0  0  0  0  0  0  0  0
  -28.9126  -20.7799   21.4756 C   0  0  0  0  0  0  0  0  0  0  0  0
  -29.2167  -22.0872   21.4629 C   0  0  0  0  0  0  0  0  0  0  0  0
  -33.5611  -19.0959   21.2047 C   0  0  0  0  0  0  0  0  0  0  0  0
  -22.8469  -13.4120   21.1289 C   0  0  0  0  0  0  0  0  0  0  0  0
  -26.5875  -31.8655   23.1280 C   0  0  0  0  0  0  0  0  0  0  0  0
  -23.4032  -31.3415   23.4567 C   0  0  0  0  0  0  0  0  0  0  0  0
  -20.6959  -29.3978   22.7222 C   0  0  0  0  0  0  0  0  0  0  0  0
  -30.5549  -14.9733   19.9265 C   0  0  0  0  0  0  0  0  0  0  0  0
  -29.8256  -35.7540   23.8005 C   0  0  0  0  0  0  0  0  0  0  0  0
  -25.8723  -31.5897   20.7262 C   0  0  0  0  0  0  0  0  0  0  0  0
  -24.7583  -29.4642   22.4542 C   0  0  0  0  0  0  0  0  0  0  0  0
  -28.4688  -35.3516   24.3728 C   0  0  0  0  0  0  0  0  0  0  0  0
  -29.7409  -11.6335   18.9989 C   0  0  0  0  0  0  0  0  0  0  0  0
  -28.4887  -33.8928   24.8183 C   0  0  0  0  0  0  0  0  0  0  0  0
  -28.3163  -11.4478   19.5265 C   0  0  0  0  0  0  0  0  0  0  0  0
  -30.5872  -12.4886   19.9404 C   0  0  0  0  0  0  0  0  0  0  0  0
  -28.5747  -13.6000   20.8257 C   0  0  0  0  0  0  0  0  0  0  0  0
  -28.7648  -32.9581   23.6344 C   0  0  1  0  0  0  0  0  0  0  0  0
  -25.4369  -31.8676   22.1617 C   0  0  1  0  0  0  0  0  0  0  0  0
  -27.6653  -12.7995   19.8793 C   0  0  2  0  0  0  0  0  0  0  0  0
  -34.2933  -20.1265   20.3908 C   0  0  0  0  0  0  0  0  0  0  0  0
  -18.2338  -29.2009   23.1656 C   0  0  0  0  0  0  0  0  0  0  0  0
  -23.9946  -30.2737   26.2531 C   0  0  0  0  0  0  0  0  0  0  0  0
  -21.7142  -29.2405   26.2651 C   0  0  0  0  0  0  0  0  0  0  0  0
  -21.9584  -31.7173   26.0967 C   0  0  0  0  0  0  0  0  0  0  0  0
  -20.0387  -29.6762   19.8501 C   0  0  0  0  0  0  0  0  0  0  0  0
  -28.2131  -23.1719   21.7343 C   0  0  0  0  0  0  0  0  0  0  0  0
  -28.1199  -24.1462   20.5615 C   0  0  0  0  0  0  0  0  0  0  0  0
  -27.1350  -25.2720   20.8450 C   0  0  0  0  0  0  0  0  0  1  0  0
  -22.5570  -30.2747   24.1085 C   0  0  1  0  0  0  0  0  0  0  0  0
  -19.3027  -29.7536   22.2357 C   0  0  2  0  0  0  0  0  0  0  0  0
  -22.5747  -30.3702   25.6603 C   0  0  0  0  0  0  0  0  0  0  0  0
  -25.9997  -11.5220   21.1736 N   0  0  0  0  0  0  0  0  0  0  0  0
  -26.2699  -12.6202   20.4476 N   0  0  0  0  0  0  0  0  0  0  0  0
  -24.4627  -30.8923   22.6557 N   0  0  0  0  0  0  0  0  0  0  0  0
  -29.9096  -13.7550   20.2265 N   0  0  0  0  0  0  0  0  0  0  0  0
  -25.3070  -14.6168   19.6128 N   0  0  0  0  0  0  0  0  0  0  0  0
  -21.9045  -12.6816   21.8655 N   0  0  0  0  0  0  0  0  0  0  0  0
  -29.8005  -16.1109   20.2117 N   0  0  0  0  0  0  0  0  0  0  0  0
  -27.5709  -32.7906   22.8337 N   0  0  0  0  0  0  0  0  0  0  0  0
  -21.2280  -30.3903   23.5178 N   0  0  0  0  0  0  0  0  0  0  0  0
  -19.0725  -29.1978   20.8722 N   0  3  0  0  0  0  0  0  0  0  0  0
  -22.5043  -14.4948   20.5961 O   0  0  0  0  0  0  0  0  0  0  0  0
  -26.5827  -31.0836   24.0715 O   0  0  0  0  0  0  0  0  0  0  0  0
  -23.1298  -32.5294   23.6453 O   0  0  0  0  0  0  0  0  0  0  0  0
  -21.2547  -28.3431   22.4291 O   0  0  0  0  0  0  0  0  0  0  0  0
  -31.6822  -15.0046   19.4263 O   0  0  0  0  0  0  0  0  0  0  0  0
  -22.1043   -7.8361   24.6072 O   0  0  0  0  0  0  0  0  0  0  0  0
  -27.1049  -26.1524   19.7223 O   0  0  0  0  0  0  0  0  0  1  0  0
  -17.0486   -6.2843   23.0466 F   0  0  0  0  0  0  0  0  0  0  0  0
  -21.5638   -5.2017   23.9666 F   0  0  0  0  0  0  0  0  0  0  0  0
  1  2  1  0  0  0  0
  1  5  2  0  0  0  0
  2  6  2  0  0  0  0
  3  8  2  0  0  0  0
  3 18  1  0  0  0  0
  4  9  1  0  0  0  0
  4 18  2  0  0  0  0
  5 22  1  0  0  0  0
  6 24  1  0  0  0  0
  7 10  2  0  0  0  0
  7 23  1  0  0  0  0
  8 27  1  0  0  0  0
  9 27  2  0  0  0  0
 10 28  1  0  0  0  0
 11 12  2  0  0  0  0
 11 29  1  0  0  0  0
 12 30  1  0  0  0  0
 13 19  2  0  0  0  0
 13 20  1  0  0  0  0
 14 19  1  0  0  0  0
 14 26  2  0  0  0  0
 15 20  2  0  0  0  0
 15 26  1  0  0  0  0
 16 25  1  0  0  0  0
 16 28  2  0  0  0  0
 17 30  2  0  0  0  0
 17 31  1  0  0  0  0
 18 32  1  0  0  0  0
 19 35  1  0  0  0  0
 20 37  1  0  0  0  0
 21 32  1  0  0  0  0
 21 33  2  0  0  0  0
 21 38  1  0  0  0  0
 22 24  2  0  0  0  0
 22 43  1  0  0  0  0
 23 25  2  0  0  0  0
 23 44  1  0  0  0  0
 24 52  1  0  0  0  0
 25 45  1  0  0  0  0
 26 73  1  0  0  0  0
 27 82  1  0  0  0  0
 28 83  1  0  0  0  0
 29 31  2  0  0  0  0
 29 82  1  0  0  0  0
 30 84  1  0  0  0  0
 31 85  1  0  0  0  0
 32 67  2  0  0  0  0
 33 68  1  0  0  0  0
 33 71  1  0  0  0  0
 34 37  2  0  0  0  0
 35 36  2  0  0  0  0
 36 61  1  0  0  0  0
 37 55  1  0  0  0  0
 38 72  1  0  0  0  0
 38 77  2  0  0  0  0
 39 53  1  0  0  0  0
 39 74  1  0  0  0  0
 39 78  2  0  0  0  0
 40 64  1  0  0  0  0
 40 69  1  0  0  0  0
 40 79  2  0  0  0  0
 41 65  1  0  0  0  0
 41 75  1  0  0  0  0
 41 80  2  0  0  0  0
 42 70  1  0  0  0  0
 42 73  1  0  0  0  0
 42 81  2  0  0  0  0
 43 46  1  0  0  0  0
 44 53  1  0  0  0  0
 45 69  1  0  0  0  0
 46 48  1  0  0  0  0
 47 49  1  0  0  0  0
 47 50  1  0  0  0  0
 48 52  1  0  0  0  0
 49 54  1  0  0  0  0
 50 70  1  0  0  0  0
 51 54  1  0  0  0  0
 51 70  1  0  0  0  0
 52 74  1  0  0  0  0
 53 69  1  0  0  0  0
 54 68  1  0  0  0  0
 56 65  1  0  0  0  0
 57 66  1  0  0  0  0
 58 66  1  0  0  0  0
 59 66  1  0  0  0  0
 60 76  1  0  0  0  0
 61 62  1  0  0  0  0
 62 63  1  0  0  0  0
 63 83  1  0  0  0  0
 64 66  1  0  0  0  0
 64 75  1  0  0  0  0
 65 76  1  0  0  0  0
 67 68  1  0  0  0  0
M  CHG  1  76   1
M  ISO  4  42 100  63 101  73 100  83 101
M  END
> <Batch ID>
0119

> <Smiles>
C=C(C)c1cc(C=CCC[101CH2:1][101O:1]c2ccc3c(c2)CN(C(=O)C(NC(=O)C(C)NC)C(C)(C)C)C(C(=O)NC2CCCc4ccccc42)C3)cc([100NH:0][100C:0](=O)N2CCCC(n3nc(-c4ccc(Oc5ccc(F)cc5F)cc4)c(C(N)=O)c3N)C2)c1

> <Shape>
0.291

> <Color>
0.166

> <Negative vol penalty>
0.000

$$$$

  -OEChem-04052301513D

 86 94  0     1  0  0  0  0  0999 V2000
  -28.2636  -36.8367   23.1092 C   0  0  0  0  0  0  0  0  0  0  0  0
  -28.9515  -35.6676   22.8003 C   0  0  0  0  0  0  0  0  0  0  0  0
  -22.9417   -9.9536   20.0466 C   0  0  0  0  0  0  0  0  0  0  0  0
  -23.5921  -10.1357   22.3663 C   0  0  0  0  0  0  0  0  0  0  0  0
  -27.1400  -36.7860   23.9331 C   0  0  0  0  0  0  0  0  0  0  0  0
  -28.5168  -34.4472   23.3161 C   0  0  0  0  0  0  0  0  0  0  0  0
  -28.1773  -27.4872   21.6546 C   0  0  0  0  0  0  0  0  0  0  0  0
  -32.6741  -17.4676   23.3459 C   0  0  0  0  0  0  0  0  0  0  0  0
  -32.0716  -16.5392   22.4969 C   0  0  0  0  0  0  0  0  0  0  0  0
  -22.1393   -8.8559   20.3577 C   0  0  0  0  0  0  0  0  0  0  0  0
  -22.7897   -9.0380   22.6774 C   0  0  0  0  0  0  0  0  0  0  0  0
  -28.5166  -26.2383   22.1731 C   0  0  0  0  0  0  0  0  0  0  0  0
  -22.9674   -5.6711   22.4263 C   0  0  0  0  0  0  0  0  0  0  0  0
  -23.5050   -4.6913   23.2609 C   0  0  0  0  0  0  0  0  0  0  0  0
  -26.5164  -26.2613   23.5214 C   0  0  0  0  0  0  0  0  0  0  0  0
  -21.7336   -5.0795   24.8574 C   0  0  0  0  0  0  0  0  0  0  0  0
  -23.6682  -10.5935   21.0508 C   0  0  0  0  0  0  0  0  0  0  0  0
  -30.5200  -18.4746   23.7734 C   0  0  0  0  0  0  0  0  0  0  0  0
  -24.1205  -13.0834   20.7294 C   0  0  0  0  0  0  0  0  0  0  0  0
  -26.6856  -35.5630   24.4514 C   0  0  0  0  0  0  0  0  0  0  0  0
  -27.0085  -28.1385   22.0745 C   0  0  0  0  0  0  0  0  0  0  0  0
  -27.3868  -34.3802   24.1487 C   0  0  0  0  0  0  0  0  0  0  0  0
  -26.1632  -27.5173   23.0048 C   0  0  0  0  0  0  0  0  0  0  0  0
  -31.8983  -18.4353   23.9842 C   0  0  0  0  0  0  0  0  0  0  0  0
  -29.9175  -17.5463   22.9244 C   0  0  0  0  0  0  0  0  0  0  0  0
  -30.6933  -16.5786   22.2862 C   0  0  0  0  0  0  0  0  0  0  0  0
  -22.0633   -8.3981   21.6732 C   0  0  0  0  0  0  0  0  0  0  0  0
  -27.6876  -25.6265   23.1088 C   0  0  0  0  0  0  0  0  0  0  0  0
  -21.8130   -6.3552   22.8072 C   0  0  0  0  0  0  0  0  0  0  0  0
  -22.8881   -4.3954   24.4764 C   0  0  0  0  0  0  0  0  0  0  0  0
  -21.1961   -6.0594   24.0228 C   0  0  0  0  0  0  0  0  0  0  0  0
  -24.4977  -11.7271   20.7300 C   0  0  0  0  0  0  0  0  0  0  0  0
  -25.2590  -13.7562   20.3582 C   0  0  0  0  0  0  0  0  0  0  0  0
  -29.7046  -19.4974   24.4488 C   0  0  0  0  0  0  0  0  0  0  0  0
  -29.4030  -20.7037   23.9428 C   0  0  0  0  0  0  0  0  0  0  0  0
  -27.1451  -23.3732   23.4236 C   0  0  0  0  0  0  0  0  0  1  0  0
  -22.8544  -13.6816   21.0370 C   0  0  0  0  0  0  0  0  0  0  0  0
  -27.3429  -22.1227   23.8690 C   0  0  0  0  0  0  0  0  0  0  0  0
  -26.3771  -30.8742   23.5649 C   0  0  0  0  0  0  0  0  0  0  0  0
  -23.3017  -30.0542   22.9389 C   0  0  0  0  0  0  0  0  0  0  0  0
  -21.0388  -27.5876   22.2739 C   0  0  0  0  0  0  0  0  0  0  0  0
  -30.7498  -14.6075   20.7184 C   0  0  0  0  0  0  0  0  0  0  0  0
  -25.4940  -35.5644   25.3759 C   0  0  0  0  0  0  0  0  0  0  0  0
  -26.6429  -29.4734   21.4856 C   0  0  0  0  0  0  0  0  0  0  0  0
  -24.8868  -28.1654   23.4731 C   0  0  0  0  0  0  0  0  0  0  0  0
  -24.8781  -34.1822   25.5777 C   0  0  0  0  0  0  0  0  0  0  0  0
  -29.6485  -12.0363   18.5153 C   0  0  0  0  0  0  0  0  0  0  0  0
  -25.9652  -33.1485   25.8539 C   0  0  0  0  0  0  0  0  0  0  0  0
  -28.1792  -11.8382   18.8950 C   0  0  0  0  0  0  0  0  0  0  0  0
  -30.5146  -12.3365   19.7374 C   0  0  0  0  0  0  0  0  0  0  0  0
  -28.5765  -13.2518   20.9520 C   0  0  0  0  0  0  0  0  0  0  0  0
  -26.9315  -33.0340   24.6688 C   0  0  1  0  0  0  0  0  0  0  0  0
  -25.6923  -30.2759   22.3687 C   0  0  1  0  0  0  0  0  0  0  0  0
  -27.6540  -13.0112   19.7459 C   0  0  2  0  0  0  0  0  0  0  0  0
  -32.5825  -19.4121   24.8864 C   0  0  0  0  0  0  0  0  0  0  0  0
  -26.3207  -21.0488   23.6150 C   0  0  0  0  0  0  0  0  0  0  0  0
  -28.0836  -18.1937   21.3420 C   0  0  0  0  0  0  0  0  0  0  0  0
  -18.5933  -27.2205   21.8475 C   0  0  0  0  0  0  0  0  0  0  0  0
  -22.7311  -30.4156   25.9145 C   0  0  0  0  0  0  0  0  0  0  0  0
  -20.5971  -29.1477   25.5881 C   0  0  0  0  0  0  0  0  0  0  0  0
  -20.9564  -31.3092   24.3959 C   0  0  0  0  0  0  0  0  0  0  0  0
  -21.5561  -26.4829   19.5774 C   0  0  0  0  0  0  0  0  0  0  0  0
  -28.4374  -17.5791   22.6906 C   0  0  0  0  0  0  0  0  0  0  0  0
  -28.5601  -21.7163   24.6677 C   0  0  0  0  0  0  0  0  0  0  0  0
  -22.2394  -29.2591   23.6591 C   0  0  1  0  0  0  0  0  0  0  0  0
  -19.9542  -27.4736   21.2179 C   0  0  2  0  0  0  0  0  0  0  0  0
  -21.6560  -30.0213   24.8822 C   0  0  0  0  0  0  0  0  0  0  0  0
  -25.7757  -11.5471   20.3863 N   0  0  0  0  0  0  0  0  0  0  0  0
  -26.2116  -12.7992   20.1662 N   0  0  0  0  0  0  0  0  0  0  0  0
  -24.5760  -29.4733   22.8728 N   0  0  0  0  0  0  0  0  0  0  0  0
  -29.9584  -13.4614   20.4924 N   0  0  0  0  0  0  0  0  0  0  0  0
  -25.5281  -15.0671   20.1806 N   0  0  0  0  0  0  0  0  0  0  0  0
  -21.7905  -12.8446   21.4002 N   0  0  0  0  0  0  0  0  0  0  0  0
  -30.1037  -15.6252   21.4194 N   0  0  0  0  0  0  0  0  0  0  0  0
  -26.3360  -32.2548   23.6045 N   0  0  0  0  0  0  0  0  0  0  0  0
  -21.2478  -28.8969   22.6522 N   0  0  0  0  0  0  0  0  0  0  0  0
  -20.2561  -26.3519   20.2843 N   0  3  0  0  0  0  0  0  0  0  0  0
  -22.6673  -14.9205   20.9751 O   0  0  0  0  0  0  0  0  0  0  0  0
  -26.9025  -30.1377   24.3914 O   0  0  0  0  0  0  0  0  0  0  0  0
  -23.0096  -31.1469   22.4468 O   0  0  0  0  0  0  0  0  0  0  0  0
  -21.6380  -26.6122   22.7213 O   0  0  0  0  0  0  0  0  0  0  0  0
  -31.9058  -14.6916   20.2957 O   0  0  0  0  0  0  0  0  0  0  0  0
  -21.2802   -7.3272   21.9772 O   0  0  0  0  0  0  0  0  0  0  0  0
  -28.0168  -24.4078   23.6170 O   0  0  0  0  0  0  0  0  0  1  0  0
  -23.4035   -3.4534   25.2771 F   0  0  0  0  0  0  0  0  0  0  0  0
  -20.0862   -6.7124   24.3936 F   0  0  0  0  0  0  0  0  0  0  0  0
  1  2  1  0  0  0  0
  1  5  2  0  0  0  0
  2  6  2  0  0  0  0
  3 10  2  0  0  0  0
  3 17  1  0  0  0  0
  4 11  1  0  0  0  0
  4 17  2  0  0  0  0
  5 20  1  0  0  0  0
  6 22  1  0  0  0  0
  7 12  2  0  0  0  0
  7 21  1  0  0  0  0
  8  9  1  0  0  0  0
  8 24  2  0  0  0  0
  9 26  2  0  0  0  0
 10 27  1  0  0  0  0
 11 27  2  0  0  0  0
 12 28  1  0  0  0  0
 13 14  2  0  0  0  0
 13 29  1  0  0  0  0
 14 30  1  0  0  0  0
 15 23  1  0  0  0  0
 15 28  2  0  0  0  0
 16 30  2  0  0  0  0
 16 31  1  0  0  0  0
 17 32  1  0  0  0  0
 18 24  1  0  0  0  0
 18 25  2  0  0  0  0
 18 34  1  0  0  0  0
 19 32  1  0  0  0  0
 19 33  2  0  0  0  0
 19 37  1  0  0  0  0
 20 22  2  0  0  0  0
 20 43  1  0  0  0  0
 21 23  2  0  0  0  0
 21 44  1  0  0  0  0
 22 52  1  0  0  0  0
 23 45  1  0  0  0  0
 24 55  1  0  0  0  0
 25 26  1  0  0  0  0
 25 63  1  0  0  0  0
 26 74  1  0  0  0  0
 27 83  1  0  0  0  0
 28 84  1  0  0  0  0
 29 31  2  0  0  0  0
 29 83  1  0  0  0  0
 30 85  1  0  0  0  0
 31 86  1  0  0  0  0
 32 68  2  0  0  0  0
 33 69  1  0  0  0  0
 33 72  1  0  0  0  0
 34 35  2  0  0  0  0
 35 64  1  0  0  0  0
 36 38  2  0  0  0  0
 36 84  1  0  0  0  0
 37 73  1  0  0  0  0
 37 78  2  0  0  0  0
 38 56  1  0  0  0  0
 38 64  1  0  0  0  0
 39 53  1  0  0  0  0
 39 75  1  0  0  0  0
 39 79  2  0  0  0  0
 40 65  1  0  0  0  0
 40 70  1  0  0  0  0
 40 80  2  0  0  0  0
 41 66  1  0  0  0  0
 41 76  1  0  0  0  0
 41 81  2  0  0  0  0
 42 71  1  0  0  0  0
 42 74  1  0  0  0  0
 42 82  2  0  0  0  0
 43 46  1  0  0  0  0
 44 53  1  0  0  0  0
 45 70  1  0  0  0  0
 46 48  1  0  0  0  0
 47 49  1  0  0  0  0
 47 50  1  0  0  0  0
 48 52  1  0  0  0  0
 49 54  1  0  0  0  0
 50 71  1  0  0  0  0
 51 54  1  0  0  0  0
 51 71  1  0  0  0  0
 52 75  1  0  0  0  0
 53 70  1  0  0  0  0
 54 69  1  0  0  0  0
 57 63  1  0  0  0  0
 58 66  1  0  0  0  0
 59 67  1  0  0  0  0
 60 67  1  0  0  0  0
 61 67  1  0  0  0  0
 62 77  1  0  0  0  0
 65 67  1  0  0  0  0
 65 76  1  0  0  0  0
 66 77  1  0  0  0  0
 68 69  1  0  0  0  0
M  CHG  1  77   1
M  ISO  4  36 101  42 100  74 100  84 101
M  END
> <Batch ID>
0119

> <Smiles>
CCc1c([100NH:0][100C:0](=O)N2CCCC(n3nc(-c4ccc(Oc5ccc(F)cc5F)cc4)c(C(N)=O)c3N)C2)ccc(C)c1C=CCC(C)=[101CH:1][101O:1]c1ccc2c(c1)CN(C(=O)C(NC(=O)C(C)NC)C(C)(C)C)C(C(=O)NC1CCCc3ccccc31)C2

> <Shape>
0.348

> <Color>
0.211

> <Negative vol penalty>
0.000

$$$$

  -OEChem-04052301513D

 82 90  0     1  0  0  0  0  0999 V2000
  -21.0823  -27.4294   25.7387 C   0  0  0  0  0  0  0  0  0  0  0  0
  -21.2500  -26.0615   25.5491 C   0  0  0  0  0  0  0  0  0  0  0  0
  -29.8739  -23.6056   20.7736 C   0  0  0  0  0  0  0  0  0  0  0  0
  -27.5644  -23.3363   20.1176 C   0  0  0  0  0  0  0  0  0  0  0  0
  -24.2621  -13.0435   21.7842 C   0  0  0  0  0  0  0  0  0  0  0  0
  -20.3124  -28.1673   24.8406 C   0  0  0  0  0  0  0  0  0  0  0  0
  -20.6468  -25.4303   24.4618 C   0  0  0  0  0  0  0  0  0  0  0  0
  -23.7741  -22.2267   22.0950 C   0  0  0  0  0  0  0  0  0  0  0  0
  -24.0545  -12.0357   20.8424 C   0  0  0  0  0  0  0  0  0  0  0  0
  -29.8229  -24.9491   20.4020 C   0  0  0  0  0  0  0  0  0  0  0  0
  -27.5133  -24.6798   19.7460 C   0  0  0  0  0  0  0  0  0  0  0  0
  -23.9832  -20.9839   22.6912 C   0  0  0  0  0  0  0  0  0  0  0  0
  -26.6682  -28.1278   18.9614 C   0  0  0  0  0  0  0  0  0  0  0  0
  -25.5552  -28.8692   19.3577 C   0  0  0  0  0  0  0  0  0  0  0  0
  -22.4046  -19.9910   21.1610 C   0  0  0  0  0  0  0  0  0  0  0  0
  -25.9267  -12.8546   19.5535 C   0  0  0  0  0  0  0  0  0  0  0  0
  -26.0801  -28.4197   21.6727 C   0  0  0  0  0  0  0  0  0  0  0  0
  -28.7447  -22.7992   20.6314 C   0  0  0  0  0  0  0  0  0  0  0  0
  -25.3019  -13.9569   21.6106 C   0  0  0  0  0  0  0  0  0  0  0  0
  -28.5013  -20.8666   22.2785 C   0  0  0  0  0  0  0  0  0  0  0  0
  -19.7074  -27.5466   23.7363 C   0  0  0  0  0  0  0  0  0  0  0  0
  -22.8690  -22.3632   21.0327 C   0  0  0  0  0  0  0  0  0  0  0  0
  -19.8669  -26.1603   23.5488 C   0  0  0  0  0  0  0  0  0  0  0  0
  -22.1877  -21.2361   20.5514 C   0  0  0  0  0  0  0  0  0  0  0  0
  -24.8868  -11.9413   19.7271 C   0  0  0  0  0  0  0  0  0  0  0  0
  -26.1343  -13.8624   20.4953 C   0  0  0  0  0  0  0  0  0  0  0  0
  -28.6426  -25.4862   19.8882 C   0  0  0  0  0  0  0  0  0  0  0  0
  -23.2963  -19.8663   22.2261 C   0  0  0  0  0  0  0  0  0  0  0  0
  -27.4872  -27.5322   19.9207 C   0  0  0  0  0  0  0  0  0  0  0  0
  -25.2611  -29.0152   20.7133 C   0  0  0  0  0  0  0  0  0  0  0  0
  -27.1931  -27.6782   21.2764 C   0  0  0  0  0  0  0  0  0  0  0  0
  -28.7970  -21.4112   21.0145 C   0  0  0  0  0  0  0  0  0  0  0  0
  -28.7012  -19.5163   22.1259 C   0  0  0  0  0  0  0  0  0  0  0  0
  -25.4893  -15.0071   22.6254 C   0  0  0  0  0  0  0  0  0  0  0  0
  -24.5843  -15.9465   22.9418 C   0  0  0  0  0  0  0  0  0  0  0  0
  -28.0832  -21.5225   23.4830 C   0  0  0  0  0  0  0  0  0  0  0  0
  -20.1770  -23.9902   20.5744 C   0  0  0  0  0  0  0  0  0  0  0  0
  -20.4702  -22.8638   17.5466 C   0  0  0  0  0  0  0  0  0  0  0  0
  -21.7349  -20.4871   15.4492 C   0  0  0  0  0  0  0  0  0  0  0  0
  -28.0991  -14.8001   19.2279 C   0  0  0  0  0  0  0  0  0  0  0  0
  -18.8453  -28.3772   22.8189 C   0  0  0  0  0  0  0  0  0  0  0  0
  -22.6747  -23.7058   20.3829 C   0  0  0  0  0  0  0  0  0  0  0  0
  -21.2205  -21.3257   19.4004 C   0  0  0  0  0  0  0  0  0  0  0  0
  -18.5484  -27.7000   21.4834 C   0  0  0  0  0  0  0  0  0  0  0  0
  -30.8295  -16.9082   18.3457 C   0  0  0  0  0  0  0  0  0  0  0  0
  -18.1271  -26.2503   21.7020 C   0  0  0  0  0  0  0  0  0  0  0  0
  -30.5198  -18.2228   19.0654 C   0  0  0  0  0  0  0  0  0  0  0  0
  -29.5616  -16.2357   17.8224 C   0  0  0  0  0  0  0  0  0  0  0  0
  -28.1964  -17.3509   19.5434 C   0  0  0  0  0  0  0  0  0  0  0  0
  -19.2489  -25.4441   22.3676 C   0  0  1  0  0  0  0  0  0  0  0  0
  -21.3453  -23.8252   19.6440 C   0  0  1  0  0  0  0  0  0  0  0  0
  -29.4362  -18.0327   20.1448 C   0  0  2  0  0  0  0  0  0  0  0  0
  -24.6648  -10.8632   18.7206 C   0  0  0  0  0  0  0  0  0  0  0  0
  -21.7731  -19.8112   13.0328 C   0  0  0  0  0  0  0  0  0  0  0  0
  -17.6270  -21.7872   17.8053 C   0  0  0  0  0  0  0  0  0  0  0  0
  -18.0651  -20.3463   15.8053 C   0  0  0  0  0  0  0  0  0  0  0  0
  -18.1502  -22.8303   15.5934 C   0  0  0  0  0  0  0  0  0  0  0  0
  -24.6757  -20.7809   15.2935 C   0  0  0  0  0  0  0  0  0  0  0  0
  -24.8223  -17.0105   23.9782 C   0  0  0  0  0  0  0  0  0  0  0  0
  -24.7863  -18.4074   23.3695 C   0  0  0  0  0  0  0  0  0  1  0  0
  -20.0066  -21.6264   16.8166 C   0  0  1  0  0  0  0  0  0  0  0  0
  -22.4739  -20.5999   14.1281 C   0  0  2  0  0  0  0  0  0  0  0  0
  -18.4790  -21.6459   16.5281 C   0  0  0  0  0  0  0  0  0  0  0  0
  -29.1575  -20.4828   20.1245 N   0  0  0  0  0  0  0  0  0  0  0  0
  -29.0897  -19.3411   20.8303 N   0  0  0  0  0  0  0  0  0  0  0  0
  -21.0599  -22.6614   18.8024 N   0  0  0  0  0  0  0  0  0  0  0  0
  -28.5824  -16.0848   18.9009 N   0  0  0  0  0  0  0  0  0  0  0  0
  -28.5809  -18.4736   22.9748 N   0  0  0  0  0  0  0  0  0  0  0  0
  -27.9265  -22.9151   23.4655 N   0  0  0  0  0  0  0  0  0  0  0  0
  -27.1973  -14.7767   20.2913 N   0  0  0  0  0  0  0  0  0  0  0  0
  -20.2653  -25.0964   21.3977 N   0  0  0  0  0  0  0  0  0  0  0  0
  -20.8389  -21.5207   15.6231 N   0  0  0  0  0  0  0  0  0  0  0  0
  -23.8637  -20.0797   14.2659 N   0  3  0  0  0  0  0  0  0  0  0  0
  -27.8711  -20.8941   24.5477 O   0  0  0  0  0  0  0  0  0  0  0  0
  -19.2625  -23.1750   20.5463 O   0  0  0  0  0  0  0  0  0  0  0  0
  -20.3213  -23.9687   17.0187 O   0  0  0  0  0  0  0  0  0  0  0  0
  -21.9300  -19.5716   16.2456 O   0  0  0  0  0  0  0  0  0  0  0  0
  -28.4795  -13.7916   18.6278 O   0  0  0  0  0  0  0  0  0  0  0  0
  -28.5923  -26.7972   19.5257 O   0  0  0  0  0  0  0  0  0  0  0  0
  -23.4980  -18.6522   22.8067 O   0  0  0  0  0  0  0  0  0  1  0  0
  -24.1931  -29.7284   21.0938 F   0  0  0  0  0  0  0  0  0  0  0  0
  -27.9769  -27.1094   22.2027 F   0  0  0  0  0  0  0  0  0  0  0  0
  1  2  1  0  0  0  0
  1  6  2  0  0  0  0
  2  7  2  0  0  0  0
  3 10  2  0  0  0  0
  3 18  1  0  0  0  0
  4 11  1  0  0  0  0
  4 18  2  0  0  0  0
  5  9  2  0  0  0  0
  5 19  1  0  0  0  0
  6 21  1  0  0  0  0
  7 23  1  0  0  0  0
  8 12  2  0  0  0  0
  8 22  1  0  0  0  0
  9 25  1  0  0  0  0
 10 27  1  0  0  0  0
 11 27  2  0  0  0  0
 12 28  1  0  0  0  0
 13 14  2  0  0  0  0
 13 29  1  0  0  0  0
 14 30  1  0  0  0  0
 15 24  1  0  0  0  0
 15 28  2  0  0  0  0
 16 25  2  0  0  0  0
 16 26  1  0  0  0  0
 17 30  2  0  0  0  0
 17 31  1  0  0  0  0
 18 32  1  0  0  0  0
 19 26  2  0  0  0  0
 19 34  1  0  0  0  0
 20 32  1  0  0  0  0
 20 33  2  0  0  0  0
 20 36  1  0  0  0  0
 21 23  2  0  0  0  0
 21 41  1  0  0  0  0
 22 24  2  0  0  0  0
 22 42  1  0  0  0  0
 23 50  1  0  0  0  0
 24 43  1  0  0  0  0
 25 53  1  0  0  0  0
 26 70  1  0  0  0  0
 27 79  1  0  0  0  0
 28 80  1  0  0  0  0
 29 31  2  0  0  0  0
 29 79  1  0  0  0  0
 30 81  1  0  0  0  0
 31 82  1  0  0  0  0
 32 64  2  0  0  0  0
 33 65  1  0  0  0  0
 33 68  1  0  0  0  0
 34 35  2  0  0  0  0
 35 59  1  0  0  0  0
 36 69  1  0  0  0  0
 36 74  2  0  0  0  0
 37 51  1  0  0  0  0
 37 71  1  0  0  0  0
 37 75  2  0  0  0  0
 38 61  1  0  0  0  0
 38 66  1  0  0  0  0
 38 76  2  0  0  0  0
 39 62  1  0  0  0  0
 39 72  1  0  0  0  0
 39 77  2  0  0  0  0
 40 67  1  0  0  0  0
 40 70  1  0  0  0  0
 40 78  2  0  0  0  0
 41 44  1  0  0  0  0
 42 51  1  0  0  0  0
 43 66  1  0  0  0  0
 44 46  1  0  0  0  0
 45 47  1  0  0  0  0
 45 48  1  0  0  0  0
 46 50  1  0  0  0  0
 47 52  1  0  0  0  0
 48 67  1  0  0  0  0
 49 52  1  0  0  0  0
 49 67  1  0  0  0  0
 50 71  1  0  0  0  0
 51 66  1  0  0  0  0
 52 65  1  0  0  0  0
 54 62  1  0  0  0  0
 55 63  1  0  0  0  0
 56 63  1  0  0  0  0
 57 63  1  0  0  0  0
 58 73  1  0  0  0  0
 59 60  1  0  0  0  0
 60 80  1  0  0  0  0
 61 63  1  0  0  0  0
 61 72  1  0  0  0  0
 62 73  1  0  0  0  0
 64 65  1  0  0  0  0
M  CHG  1  73   1
M  ISO  4  40 100  60 101  70 100  80 101
M  END
> <Batch ID>
0119

> <Smiles>
CNC(C)C(=O)NC(C(=O)N1Cc2cc([101O:1][101CH2:1]CC=Cc3ccc(C)cc3[100NH:0][100C:0](=O)N3CCCC(n4nc(-c5ccc(Oc6ccc(F)cc6F)cc5)c(C(N)=O)c4N)C3)ccc2CC1C(=O)NC1CCCc2ccccc21)C(C)(C)C

> <Shape>
0.183

> <Color>
0.080

> <Negative vol penalty>
0.000

$$$$

  -OEChem-04052301513D

 85 93  0     1  0  0  0  0  0999 V2000
  -32.0396  -34.2306   21.1108 C   0  0  0  0  0  0  0  0  0  0  0  0
  -31.5680  -32.9232   21.0498 C   0  0  0  0  0  0  0  0  0  0  0  0
  -23.3839   -9.6302   21.6864 C   0  0  0  0  0  0  0  0  0  0  0  0
  -24.0532  -10.7944   23.6948 C   0  0  0  0  0  0  0  0  0  0  0  0
  -31.4608  -35.1386   21.9965 C   0  0  0  0  0  0  0  0  0  0  0  0
  -30.5179  -32.5227   21.8753 C   0  0  0  0  0  0  0  0  0  0  0  0
  -27.0365  -29.7974   19.4060 C   0  0  0  0  0  0  0  0  0  0  0  0
  -22.7332   -8.6693   22.4602 C   0  0  0  0  0  0  0  0  0  0  0  0
  -23.4025   -9.8335   24.4686 C   0  0  0  0  0  0  0  0  0  0  0  0
  -27.3374  -28.4600   19.1521 C   0  0  0  0  0  0  0  0  0  0  0  0
  -19.8118   -8.3834   24.1385 C   0  0  0  0  0  0  0  0  0  0  0  0
  -18.5330   -7.9905   23.7438 C   0  0  0  0  0  0  0  0  0  0  0  0
  -29.3823  -18.4282   20.8387 C   0  0  0  0  0  0  0  0  0  0  0  0
  -31.2285  -19.9076   21.3281 C   0  0  0  0  0  0  0  0  0  0  0  0
  -25.9800  -27.8034   21.0350 C   0  0  0  0  0  0  0  0  0  0  0  0
  -31.6523  -17.6118   20.7062 C   0  0  0  0  0  0  0  0  0  0  0  0
  -19.3074   -5.7150   23.4998 C   0  0  0  0  0  0  0  0  0  0  0  0
  -24.0440  -10.6927   22.3037 C   0  0  0  0  0  0  0  0  0  0  0  0
  -29.8564  -19.6866   21.2091 C   0  0  0  0  0  0  0  0  0  0  0  0
  -24.1714  -12.8788   20.9951 C   0  0  0  0  0  0  0  0  0  0  0  0
  -30.3967  -34.7517   22.8263 C   0  0  0  0  0  0  0  0  0  0  0  0
  -26.2125  -30.1492   20.4847 C   0  0  0  0  0  0  0  0  0  0  0  0
  -29.9252  -33.4261   22.7738 C   0  0  0  0  0  0  0  0  0  0  0  0
  -25.6681  -29.1458   21.2990 C   0  0  0  0  0  0  0  0  0  0  0  0
  -30.2802  -17.3908   20.5873 C   0  0  0  0  0  0  0  0  0  0  0  0
  -22.7424   -8.7710   23.8513 C   0  0  0  0  0  0  0  0  0  0  0  0
  -26.8115  -27.4629   19.9684 C   0  0  0  0  0  0  0  0  0  0  0  0
  -20.8385   -7.4422   24.2139 C   0  0  0  0  0  0  0  0  0  0  0  0
  -32.1265  -18.8702   21.0766 C   0  0  0  0  0  0  0  0  0  0  0  0
  -18.2808   -6.6564   23.4244 C   0  0  0  0  0  0  0  0  0  0  0  0
  -20.5862   -6.1080   23.8946 C   0  0  0  0  0  0  0  0  0  0  0  0
  -24.7169  -11.6853   21.5048 C   0  0  0  0  0  0  0  0  0  0  0  0
  -25.2079  -13.4652   20.3107 C   0  0  0  0  0  0  0  0  0  0  0  0
  -28.9095  -20.7827   21.4740 C   0  0  0  0  0  0  0  0  0  0  0  0
  -29.2146  -22.0897   21.4613 C   0  0  0  0  0  0  0  0  0  0  0  0
  -22.8463  -13.4100   21.1283 C   0  0  0  0  0  0  0  0  0  0  0  0
  -26.5931  -31.8695   23.1304 C   0  0  0  0  0  0  0  0  0  0  0  0
  -23.4087  -31.3475   23.4614 C   0  0  0  0  0  0  0  0  0  0  0  0
  -20.6996  -29.4057   22.7287 C   0  0  0  0  0  0  0  0  0  0  0  0
  -30.5533  -14.9756   19.9249 C   0  0  0  0  0  0  0  0  0  0  0  0
  -29.8343  -35.7556   23.8013 C   0  0  0  0  0  0  0  0  0  0  0  0
  -25.8759  -31.5946   20.7291 C   0  0  0  0  0  0  0  0  0  0  0  0
  -24.7618  -29.4695   22.4575 C   0  0  0  0  0  0  0  0  0  0  0  0
  -28.4777  -35.3540   24.3745 C   0  0  0  0  0  0  0  0  0  0  0  0
  -29.7410  -11.6353   18.9975 C   0  0  0  0  0  0  0  0  0  0  0  0
  -28.4970  -33.8952   24.8197 C   0  0  0  0  0  0  0  0  0  0  0  0
  -28.3166  -11.4488   19.5252 C   0  0  0  0  0  0  0  0  0  0  0  0
  -30.5870  -12.4909   19.9388 C   0  0  0  0  0  0  0  0  0  0  0  0
  -28.5740  -13.6012   20.8244 C   0  0  0  0  0  0  0  0  0  0  0  0
  -28.7715  -32.9606   23.6354 C   0  0  1  0  0  0  0  0  0  0  0  0
  -25.4417  -31.8725   22.1650 C   0  0  1  0  0  0  0  0  0  0  0  0
  -27.6648  -12.8001   19.8781 C   0  0  2  0  0  0  0  0  0  0  0  0
  -35.4820  -18.4781   22.3317 C   0  0  0  0  0  0  0  0  0  0  0  0
  -18.2376  -29.2104   23.1739 C   0  0  0  0  0  0  0  0  0  0  0  0
  -24.0015  -30.2788   26.2572 C   0  0  0  0  0  0  0  0  0  0  0  0
  -21.7204  -29.2470   26.2708 C   0  0  0  0  0  0  0  0  0  0  0  0
  -21.9662  -31.7237   26.1026 C   0  0  0  0  0  0  0  0  0  0  0  0
  -20.0403  -29.6852   19.8571 C   0  0  0  0  0  0  0  0  0  0  0  0
  -28.2118  -23.1751   21.7337 C   0  0  0  0  0  0  0  0  0  0  0  0
  -28.1183  -24.1497   20.5611 C   0  0  0  0  0  0  0  0  0  0  0  0
  -34.2716  -17.9729   21.5757 C   0  0  0  0  0  0  0  0  0  0  0  0
  -27.1345  -25.2761   20.8457 C   0  0  0  0  0  0  0  0  0  1  0  0
  -22.5623  -30.2812   24.1137 C   0  0  1  0  0  0  0  0  0  0  0  0
  -19.3062  -29.7626   22.2433 C   0  0  2  0  0  0  0  0  0  0  0  0
  -22.5812  -30.3764   25.6655 C   0  0  0  0  0  0  0  0  0  0  0  0
  -26.0001  -11.5217   21.1726 N   0  0  0  0  0  0  0  0  0  0  0  0
  -26.2697  -12.6200   20.4466 N   0  0  0  0  0  0  0  0  0  0  0  0
  -24.4673  -30.8978   22.6595 N   0  0  0  0  0  0  0  0  0  0  0  0
  -29.9086  -13.7569   20.2250 N   0  0  0  0  0  0  0  0  0  0  0  0
  -25.3055  -14.6161   19.6119 N   0  0  0  0  0  0  0  0  0  0  0  0
  -21.9044  -12.6790   21.8650 N   0  0  0  0  0  0  0  0  0  0  0  0
  -29.7982  -16.1128   20.2102 N   0  0  0  0  0  0  0  0  0  0  0  0
  -27.5769  -32.7940   22.8356 N   0  0  0  0  0  0  0  0  0  0  0  0
  -21.2330  -30.3978   23.5241 N   0  0  0  0  0  0  0  0  0  0  0  0
  -19.0746  -29.2072   20.8798 N   0  3  0  0  0  0  0  0  0  0  0  0
  -22.5030  -14.4925   20.5956 O   0  0  0  0  0  0  0  0  0  0  0  0
  -26.5885  -31.0874   24.0738 O   0  0  0  0  0  0  0  0  0  0  0  0
  -23.1362  -32.5356   23.6505 O   0  0  0  0  0  0  0  0  0  0  0  0
  -21.2574  -28.3507   22.4349 O   0  0  0  0  0  0  0  0  0  0  0  0
  -31.6805  -15.0075   19.4246 O   0  0  0  0  0  0  0  0  0  0  0  0
  -22.1073   -7.8337   24.6068 O   0  0  0  0  0  0  0  0  0  0  0  0
  -27.1041  -26.1567   19.7232 O   0  0  0  0  0  0  0  0  0  1  0  0
  -33.4655  -19.0858   21.1920 O   0  0  0  0  0  0  0  0  0  0  0  0
  -17.0523   -6.2789   23.0468 F   0  0  0  0  0  0  0  0  0  0  0  0
  -21.5682   -5.1989   23.9662 F   0  0  0  0  0  0  0  0  0  0  0  0
  1  2  1  0  0  0  0
  1  5  2  0  0  0  0
  2  6  2  0  0  0  0
  3  8  2  0  0  0  0
  3 18  1  0  0  0  0
  4  9  1  0  0  0  0
  4 18  2  0  0  0  0
  5 21  1  0  0  0  0
  6 23  1  0  0  0  0
  7 10  2  0  0  0  0
  7 22  1  0  0  0  0
  8 26  1  0  0  0  0
  9 26  2  0  0  0  0
 10 27  1  0  0  0  0
 11 12  2  0  0  0  0
 11 28  1  0  0  0  0
 12 30  1  0  0  0  0
 13 19  1  0  0  0  0
 13 25  2  0  0  0  0
 14 19  2  0  0  0  0
 14 29  1  0  0  0  0
 15 24  1  0  0  0  0
 15 27  2  0  0  0  0
 16 25  1  0  0  0  0
 16 29  2  0  0  0  0
 17 30  2  0  0  0  0
 17 31  1  0  0  0  0
 18 32  1  0  0  0  0
 19 34  1  0  0  0  0
 20 32  1  0  0  0  0
 20 33  2  0  0  0  0
 20 36  1  0  0  0  0
 21 23  2  0  0  0  0
 21 41  1  0  0  0  0
 22 24  2  0  0  0  0
 22 42  1  0  0  0  0
 23 50  1  0  0  0  0
 24 43  1  0  0  0  0
 25 72  1  0  0  0  0
 26 81  1  0  0  0  0
 27 82  1  0  0  0  0
 28 31  2  0  0  0  0
 28 81  1  0  0  0  0
 29 83  1  0  0  0  0
 30 84  1  0  0  0  0
 31 85  1  0  0  0  0
 32 66  2  0  0  0  0
 33 67  1  0  0  0  0
 33 70  1  0  0  0  0
 34 35  2  0  0  0  0
 35 59  1  0  0  0  0
 36 71  1  0  0  0  0
 36 76  2  0  0  0  0
 37 51  1  0  0  0  0
 37 73  1  0  0  0  0
 37 77  2  0  0  0  0
 38 63  1  0  0  0  0
 38 68  1  0  0  0  0
 38 78  2  0  0  0  0
 39 64  1  0  0  0  0
 39 74  1  0  0  0  0
 39 79  2  0  0  0  0
 40 69  1  0  0  0  0
 40 72  1  0  0  0  0
 40 80  2  0  0  0  0
 41 44  1  0  0  0  0
 42 51  1  0  0  0  0
 43 68  1  0  0  0  0
 44 46  1  0  0  0  0
 45 47  1  0  0  0  0
 45 48  1  0  0  0  0
 46 50  1  0  0  0  0
 47 52  1  0  0  0  0
 48 69  1  0  0  0  0
 49 52  1  0  0  0  0
 49 69  1  0  0  0  0
 50 73  1  0  0  0  0
 51 68  1  0  0  0  0
 52 67  1  0  0  0  0
 53 61  1  0  0  0  0
 54 64  1  0  0  0  0
 55 65  1  0  0  0  0
 56 65  1  0  0  0  0
 57 65  1  0  0  0  0
 58 75  1  0  0  0  0
 59 60  1  0  0  0  0
 60 62  1  0  0  0  0
 61 83  1  0  0  0  0
 62 82  1  0  0  0  0
 63 65  1  0  0  0  0
 63 74  1  0  0  0  0
 64 75  1  0  0  0  0
 66 67  1  0  0  0  0
M  CHG  1  75   1
M  ISO  4  40 100  62 101  72 100  82 101
M  END
> <Batch ID>
0119

> <Smiles>
CCOc1cc(C=CCC[101CH2:1][101O:1]c2ccc3c(c2)CN(C(=O)C(NC(=O)C(C)NC)C(C)(C)C)C(C(=O)NC2CCCc4ccccc42)C3)cc([100NH:0][100C:0](=O)N2CCCC(n3nc(-c4ccc(Oc5ccc(F)cc5F)cc4)c(C(N)=O)c3N)C2)c1

> <Shape>
0.291

> <Color>
0.162

> <Negative vol penalty>
0.000

$$$$

  -OEChem-04052301513D

 86 94  0     1  0  0  0  0  0999 V2000
  -30.5720  -12.2714   19.1937 C   0  0  0  0  0  0  0  0  0  0  0  0
  -30.1827  -13.5790   18.9217 C   0  0  0  0  0  0  0  0  0  0  0  0
  -29.5254  -23.6767   21.5009 C   0  0  0  0  0  0  0  0  0  0  0  0
  -27.8676  -23.8252   19.7497 C   0  0  0  0  0  0  0  0  0  0  0  0
  -18.3707  -27.9063   23.3312 C   0  0  0  0  0  0  0  0  0  0  0  0
  -29.6575  -11.3726   19.7411 C   0  0  0  0  0  0  0  0  0  0  0  0
  -28.8782  -13.9882   19.1960 C   0  0  0  0  0  0  0  0  0  0  0  0
  -25.1518  -19.7457   21.2653 C   0  0  0  0  0  0  0  0  0  0  0  0
  -29.6944  -22.3197   21.2258 C   0  0  0  0  0  0  0  0  0  0  0  0
  -28.0366  -22.4682   19.4746 C   0  0  0  0  0  0  0  0  0  0  0  0
  -18.3668  -26.6500   22.7253 C   0  0  0  0  0  0  0  0  0  0  0  0
  -24.0511  -20.5110   20.8825 C   0  0  0  0  0  0  0  0  0  0  0  0
  -31.2970  -20.4242   18.9298 C   0  0  0  0  0  0  0  0  0  0  0  0
  -32.6012  -19.9352   18.8564 C   0  0  0  0  0  0  0  0  0  0  0  0
  -22.5798  -18.8936   21.9016 C   0  0  0  0  0  0  0  0  0  0  0  0
  -20.4294  -27.1913   21.5896 C   0  0  0  0  0  0  0  0  0  0  0  0
  -32.1307  -18.4084   20.6688 C   0  0  0  0  0  0  0  0  0  0  0  0
  -28.6119  -24.4294   20.7628 C   0  0  0  0  0  0  0  0  0  0  0  0
  -19.4040  -28.8052   23.0664 C   0  0  0  0  0  0  0  0  0  0  0  0
  -29.1380  -26.9088   20.4740 C   0  0  0  0  0  0  0  0  0  0  0  0
  -28.3439  -11.7737   20.0312 C   0  0  0  0  0  0  0  0  0  0  0  0
  -24.9740  -18.5411   21.9608 C   0  0  0  0  0  0  0  0  0  0  0  0
  -27.9449  -13.0936   19.7466 C   0  0  0  0  0  0  0  0  0  0  0  0
  -23.6800  -18.1161   22.2943 C   0  0  0  0  0  0  0  0  0  0  0  0
  -20.4333  -28.4477   22.1956 C   0  0  0  0  0  0  0  0  0  0  0  0
  -28.9500  -21.7155   20.2127 C   0  0  0  0  0  0  0  0  0  0  0  0
  -22.7647  -20.0835   21.1981 C   0  0  0  0  0  0  0  0  0  0  0  0
  -19.3961  -26.2925   21.8544 C   0  0  0  0  0  0  0  0  0  0  0  0
  -30.4096  -19.9054   19.8727 C   0  0  0  0  0  0  0  0  0  0  0  0
  -33.0181  -18.9273   19.7259 C   0  0  0  0  0  0  0  0  0  0  0  0
  -30.8265  -18.8975   20.7422 C   0  0  0  0  0  0  0  0  0  0  0  0
  -28.4365  -25.8311   21.0468 C   0  0  0  0  0  0  0  0  0  0  0  0
  -28.6038  -28.0234   21.0730 C   0  0  0  0  0  0  0  0  0  0  0  0
  -19.4238  -30.2795   25.0263 C   0  0  0  0  0  0  0  0  0  0  0  0
  -19.3780  -30.1104   23.7133 C   0  0  0  0  0  0  0  0  0  0  0  0
  -30.1792  -26.9030   19.4883 C   0  0  0  0  0  0  0  0  0  0  0  0
  -25.6539  -15.4917   21.3756 C   0  0  0  0  0  0  0  0  0  0  0  0
  -20.5834  -22.9723   21.0314 C   0  0  0  0  0  0  0  0  0  0  0  0
  -24.6214  -15.0813   24.4231 C   0  0  0  0  0  0  0  0  0  0  0  0
  -22.7291  -16.2302   27.0205 C   0  0  0  0  0  0  0  0  0  0  0  0
  -23.3051  -29.1339   23.6308 C   0  0  0  0  0  0  0  0  0  0  0  0
  -27.3775  -10.7533   20.5786 C   0  0  0  0  0  0  0  0  0  0  0  0
  -26.1729  -17.7406   22.3899 C   0  0  0  0  0  0  0  0  0  0  0  0
  -23.4363  -16.8407   23.0573 C   0  0  0  0  0  0  0  0  0  0  0  0
  -26.1210  -11.3700   21.1879 C   0  0  0  0  0  0  0  0  0  0  0  0
  -26.5170  -29.4552   25.1333 C   0  0  0  0  0  0  0  0  0  0  0  0
  -25.5470  -12.4372   20.2615 C   0  0  0  0  0  0  0  0  0  0  0  0
  -27.4364  -28.6601   24.2047 C   0  0  0  0  0  0  0  0  0  0  0  0
  -25.1419  -28.8032   25.2597 C   0  0  0  0  0  0  0  0  0  0  0  0
  -25.3827  -27.7403   23.0493 C   0  0  0  0  0  0  0  0  0  0  0  0
  -26.5457  -13.5820   20.0531 C   0  0  1  0  0  0  0  0  0  0  0  0
  -25.8504  -16.2715   22.6448 C   0  0  1  0  0  0  0  0  0  0  0  0
  -26.7626  -28.3889   22.8461 C   0  0  2  0  0  0  0  0  0  0  0  0
  -21.6425  -29.7391   20.3979 C   0  0  0  0  0  0  0  0  0  0  0  0
  -22.0544  -15.6602   29.3693 C   0  0  0  0  0  0  0  0  0  0  0  0
  -22.7036  -12.9619   23.3553 C   0  0  0  0  0  0  0  0  0  0  0  0
  -21.4383  -13.1213   25.5098 C   0  0  0  0  0  0  0  0  0  0  0  0
  -23.8165  -12.3686   25.5149 C   0  0  0  0  0  0  0  0  0  0  0  0
  -23.9375  -18.7098   28.0929 C   0  0  0  0  0  0  0  0  0  0  0  0
  -21.8758  -22.2399   20.7338 C   0  0  0  0  0  0  0  0  0  1  0  0
  -20.6467  -24.4836   20.9489 C   0  0  0  0  0  0  0  0  0  0  0  0
  -21.5559  -29.3860   21.8884 C   0  0  2  0  0  0  0  0  0  0  0  0
  -23.2871  -14.8007   25.0712 C   0  0  1  0  0  0  0  0  0  0  0  0
  -23.0453  -16.4116   28.4941 C   0  0  2  0  0  0  0  0  0  0  0  0
  -22.8156  -13.3362   24.8467 C   0  0  0  0  0  0  0  0  0  0  0  0
  -27.5263  -26.2254   21.9413 N   0  0  0  0  0  0  0  0  0  0  0  0
  -27.6522  -27.5634   21.9350 N   0  0  0  0  0  0  0  0  0  0  0  0
  -24.6404  -16.0897   23.4492 N   0  0  0  0  0  0  0  0  0  0  0  0
  -24.5569  -28.5746   23.9363 N   0  0  0  0  0  0  0  0  0  0  0  0
  -28.8600  -29.3423   20.9413 N   0  0  0  0  0  0  0  0  0  0  0  0
  -30.6091  -25.6705   18.9779 N   0  0  0  0  0  0  0  0  0  0  0  0
  -26.5563  -14.4593   21.2041 N   0  0  0  0  0  0  0  0  0  0  0  0
  -23.4282  -15.1746   26.4743 N   0  0  0  0  0  0  0  0  0  0  0  0
  -22.8260  -28.8739   22.3527 N   0  0  0  0  0  0  0  0  0  0  0  0
  -22.9955  -17.8553   28.8606 N   0  3  0  0  0  0  0  0  0  0  0  0
  -30.7240  -27.9584   19.0847 O   0  0  0  0  0  0  0  0  0  0  0  0
  -24.7496  -15.8026   20.6093 O   0  0  0  0  0  0  0  0  0  0  0  0
  -19.5473  -22.3766   21.3225 O   0  0  0  0  0  0  0  0  0  0  0  0
  -25.6117  -14.4346   24.7734 O   0  0  0  0  0  0  0  0  0  0  0  0
  -21.9381  -16.9503   26.4154 O   0  0  0  0  0  0  0  0  0  0  0  0
  -22.6646  -29.8189   24.4354 O   0  0  0  0  0  0  0  0  0  0  0  0
  -29.1148  -20.3914   19.9438 O   0  0  0  0  0  0  0  0  0  0  0  0
  -21.6885  -20.8282   20.8251 O   0  0  0  0  0  0  0  0  0  1  0  0
  -19.3924  -25.0539   21.2576 O   0  0  0  0  0  0  0  0  0  0  0  0
  -34.2701  -18.4567   19.6542 F   0  0  0  0  0  0  0  0  0  0  0  0
  -29.9782  -18.3943   21.6494 F   0  0  0  0  0  0  0  0  0  0  0  0
  1  2  1  0  0  0  0
  1  6  2  0  0  0  0
  2  7  2  0  0  0  0
  3  9  2  0  0  0  0
  3 18  1  0  0  0  0
  4 10  1  0  0  0  0
  4 18  2  0  0  0  0
  5 11  2  0  0  0  0
  5 19  1  0  0  0  0
  6 21  1  0  0  0  0
  7 23  1  0  0  0  0
  8 12  2  0  0  0  0
  8 22  1  0  0  0  0
  9 26  1  0  0  0  0
 10 26  2  0  0  0  0
 11 28  1  0  0  0  0
 12 27  1  0  0  0  0
 13 14  2  0  0  0  0
 13 29  1  0  0  0  0
 14 30  1  0  0  0  0
 15 24  1  0  0  0  0
 15 27  2  0  0  0  0
 16 25  1  0  0  0  0
 16 28  2  0  0  0  0
 17 30  2  0  0  0  0
 17 31  1  0  0  0  0
 18 32  1  0  0  0  0
 19 25  2  0  0  0  0
 19 35  1  0  0  0  0
 20 32  1  0  0  0  0
 20 33  2  0  0  0  0
 20 36  1  0  0  0  0
 21 23  2  0  0  0  0
 21 42  1  0  0  0  0
 22 24  2  0  0  0  0
 22 43  1  0  0  0  0
 23 51  1  0  0  0  0
 24 44  1  0  0  0  0
 25 62  1  0  0  0  0
 26 82  1  0  0  0  0
 27 83  1  0  0  0  0
 28 84  1  0  0  0  0
 29 31  2  0  0  0  0
 29 82  1  0  0  0  0
 30 85  1  0  0  0  0
 31 86  1  0  0  0  0
 32 66  2  0  0  0  0
 33 67  1  0  0  0  0
 33 70  1  0  0  0  0
 34 35  2  0  0  0  0
 36 71  1  0  0  0  0
 36 76  2  0  0  0  0
 37 52  1  0  0  0  0
 37 72  1  0  0  0  0
 37 77  2  0  0  0  0
 38 60  1  0  0  0  0
 38 61  1  0  0  0  0
 38 78  2  0  0  0  0
 39 63  1  0  0  0  0
 39 68  1  0  0  0  0
 39 79  2  0  0  0  0
 40 64  1  0  0  0  0
 40 73  1  0  0  0  0
 40 80  2  0  0  0  0
 41 69  1  0  0  0  0
 41 74  1  0  0  0  0
 41 81  2  0  0  0  0
 42 45  1  0  0  0  0
 43 52  1  0  0  0  0
 44 68  1  0  0  0  0
 45 47  1  0  0  0  0
 46 48  1  0  0  0  0
 46 49  1  0  0  0  0
 47 51  1  0  0  0  0
 48 53  1  0  0  0  0
 49 69  1  0  0  0  0
 50 53  1  0  0  0  0
 50 69  1  0  0  0  0
 51 72  1  0  0  0  0
 52 68  1  0  0  0  0
 53 67  1  0  0  0  0
 54 62  1  0  0  0  0
 55 64  1  0  0  0  0
 56 65  1  0  0  0  0
 57 65  1  0  0  0  0
 58 65  1  0  0  0  0
 59 75  1  0  0  0  0
 60 83  1  0  0  0  0
 61 84  1  0  0  0  0
 62 74  1  0  0  0  0
 63 65  1  0  0  0  0
 63 73  1  0  0  0  0
 64 75  1  0  0  0  0
 66 67  1  0  0  0  0
M  CHG  1  75   1
M  ISO  4  41 100  60 101  74 100  83 101
M  END
> <Batch ID>
0119

> <Smiles>
C=Cc1ccc(OCC(=O)[101CH2:1][101O:1]c2ccc3c(c2)CN(C(=O)C(NC(=O)C(C)NC)C(C)(C)C)C(C(=O)NC2CCCc4ccccc42)C3)cc1C(C)[100NH:0][100C:0](=O)N1CCCC(n2nc(-c3ccc(Oc4ccc(F)cc4F)cc3)c(C(N)=O)c2N)C1

> <Shape>
0.232

> <Color>
0.067

> <Negative vol penalty>
0.000

$$$$

  -OEChem-04052301513D

 84 92  0     1  0  0  0  0  0999 V2000
  -27.3014  -23.7430   17.7129 C   0  0  0  0  0  0  0  0  0  0  0  0
  -26.1305  -24.1792   18.3245 C   0  0  0  0  0  0  0  0  0  0  0  0
  -27.4366  -14.6933   20.6027 C   0  0  0  0  0  0  0  0  0  0  0  0
  -25.5745  -14.6959   19.0633 C   0  0  0  0  0  0  0  0  0  0  0  0
  -28.5394  -24.1355   18.2202 C   0  0  0  0  0  0  0  0  0  0  0  0
  -26.1968  -25.0073   19.4444 C   0  0  0  0  0  0  0  0  0  0  0  0
  -22.9347  -28.8729   19.1984 C   0  0  0  0  0  0  0  0  0  0  0  0
  -19.2883  -21.3121   18.0656 C   0  0  0  0  0  0  0  0  0  0  0  0
  -27.2000  -13.3483   20.8866 C   0  0  0  0  0  0  0  0  0  0  0  0
  -25.3379  -13.3509   19.3472 C   0  0  0  0  0  0  0  0  0  0  0  0
  -21.5991  -28.5984   19.4894 C   0  0  0  0  0  0  0  0  0  0  0  0
  -18.5092  -22.1053   18.9079 C   0  0  0  0  0  0  0  0  0  0  0  0
  -24.0196  -10.0153   19.9354 C   0  0  0  0  0  0  0  0  0  0  0  0
  -22.7000   -9.6220   20.1582 C   0  0  0  0  0  0  0  0  0  0  0  0
  -21.9079  -29.4832   21.7123 C   0  0  0  0  0  0  0  0  0  0  0  0
  -20.4522  -22.5714   20.2661 C   0  0  0  0  0  0  0  0  0  0  0  0
  -22.5609  -11.1473   22.0267 C   0  0  0  0  0  0  0  0  0  0  0  0
  -26.6237  -15.3671   19.6911 C   0  0  0  0  0  0  0  0  0  0  0  0
  -27.7003  -17.2797   18.3908 C   0  0  0  0  0  0  0  0  0  0  0  0
  -28.6209  -24.9766   19.3412 C   0  0  0  0  0  0  0  0  0  0  0  0
  -23.7712  -29.4455   20.1674 C   0  0  0  0  0  0  0  0  0  0  0  0
  -27.4371  -25.4103   19.9680 C   0  0  0  0  0  0  0  0  0  0  0  0
  -23.2531  -29.7663   21.4302 C   0  0  0  0  0  0  0  0  0  0  0  0
  -20.6494  -21.1485   18.3236 C   0  0  0  0  0  0  0  0  0  0  0  0
  -21.2313  -21.7782   19.4238 C   0  0  0  0  0  0  0  0  0  0  0  0
  -26.1507  -12.6771   20.2588 C   0  0  0  0  0  0  0  0  0  0  0  0
  -21.0863  -28.9009   20.7475 C   0  0  0  0  0  0  0  0  0  0  0  0
  -19.0912  -22.7350   20.0082 C   0  0  0  0  0  0  0  0  0  0  0  0
  -24.6099  -10.9746   20.7583 C   0  0  0  0  0  0  0  0  0  0  0  0
  -21.9706  -10.1881   21.2038 C   0  0  0  0  0  0  0  0  0  0  0  0
  -23.8805  -11.5406   21.8039 C   0  0  0  0  0  0  0  0  0  0  0  0
  -26.8672  -16.7567   19.3979 C   0  0  0  0  0  0  0  0  0  0  0  0
  -27.5891  -18.6419   18.5263 C   0  0  0  0  0  0  0  0  0  0  0  0
  -18.1089  -26.9638   21.2364 C   0  0  0  0  0  0  0  0  0  0  0  0
  -28.5028  -16.5953   17.4196 C   0  0  0  0  0  0  0  0  0  0  0  0
  -17.9930  -25.7100   21.7148 C   0  0  0  0  0  0  0  0  0  0  0  0
  -26.4241  -28.5338   21.6622 C   0  0  0  0  0  0  0  0  0  0  0  0
  -26.3224  -31.5484   22.8556 C   0  0  0  0  0  0  0  0  0  0  0  0
  -24.4527  -34.2967   23.6288 C   0  0  0  0  0  0  0  0  0  0  0  0
  -23.3287  -22.1880   20.7577 C   0  0  0  0  0  0  0  0  0  0  0  0
  -29.9823  -25.3358   19.8818 C   0  0  0  0  0  0  0  0  0  0  0  0
  -25.2026  -29.7599   19.8290 C   0  0  0  0  0  0  0  0  0  0  0  0
  -24.1042  -30.4005   22.4988 C   0  0  0  0  0  0  0  0  0  0  0  0
  -29.9619  -26.5187   20.8465 C   0  0  0  0  0  0  0  0  0  0  0  0
  -26.7264  -22.0206   21.8088 C   0  0  0  0  0  0  0  0  0  0  0  0
  -28.8354  -26.3595   21.8626 C   0  0  0  0  0  0  0  0  0  0  0  0
  -27.2256  -20.7023   21.2130 C   0  0  0  0  0  0  0  0  0  0  0  0
  -25.2761  -21.9180   22.2775 C   0  0  0  0  0  0  0  0  0  0  0  0
  -24.8308  -20.1018   20.6736 C   0  0  0  0  0  0  0  0  0  0  0  0
  -27.4677  -26.3294   21.1698 C   0  0  1  0  0  0  0  0  0  0  0  0
  -26.0970  -29.8710   21.0598 C   0  0  1  0  0  0  0  0  0  0  0  0
  -26.2663  -20.1751   20.1280 C   0  0  2  0  0  0  0  0  0  0  0  0
  -21.4594  -20.2931   17.4044 C   0  0  0  0  0  0  0  0  0  0  0  0
  -16.8146  -25.3392   22.5797 C   0  0  0  0  0  0  0  0  0  0  0  0
  -24.6426  -36.5911   24.6274 C   0  0  0  0  0  0  0  0  0  0  0  0
  -26.5100  -30.3177   25.6414 C   0  0  0  0  0  0  0  0  0  0  0  0
  -25.7487  -32.5084   26.5844 C   0  0  0  0  0  0  0  0  0  0  0  0
  -27.8920  -32.3764   25.3151 C   0  0  0  0  0  0  0  0  0  0  0  0
  -23.5259  -35.5868   21.1316 C   0  0  0  0  0  0  0  0  0  0  0  0
  -19.1842  -27.5263   20.3623 C   0  0  0  0  0  0  0  0  0  1  0  0
  -18.9803  -24.5984   21.4817 C   0  0  0  0  0  0  0  0  0  0  0  0
  -25.7000  -32.1978   24.0681 C   0  0  1  0  0  0  0  0  0  0  0  0
  -24.6667  -35.7728   23.3458 C   0  0  2  0  0  0  0  0  0  0  0  0
  -26.4469  -31.8364   25.3830 C   0  0  0  0  0  0  0  0  0  0  0  0
  -26.2709  -17.7091   20.1200 N   0  0  0  0  0  0  0  0  0  0  0  0
  -26.7299  -18.8442   19.5661 N   0  0  0  0  0  0  0  0  0  0  0  0
  -25.4990  -30.6828   22.1217 N   0  0  0  0  0  0  0  0  0  0  0  0
  -24.4253  -21.4160   21.1963 N   0  0  0  0  0  0  0  0  0  0  0  0
  -28.1435  -19.6745   17.8563 N   0  0  0  0  0  0  0  0  0  0  0  0
  -28.5016  -15.1938   17.4198 N   0  0  0  0  0  0  0  0  0  0  0  0
  -22.6120  -21.6244   19.7026 N   0  0  0  0  0  0  0  0  0  0  0  0
  -27.0614  -27.6670   20.7951 N   0  0  0  0  0  0  0  0  0  0  0  0
  -25.6484  -33.6278   23.7839 N   0  0  0  0  0  0  0  0  0  0  0  0
  -23.6006  -36.2864   22.4400 N   0  3  0  0  0  0  0  0  0  0  0  0
  -29.2131  -17.2084   16.5871 O   0  0  0  0  0  0  0  0  0  0  0  0
  -26.1221  -28.3061   22.8277 O   0  0  0  0  0  0  0  0  0  0  0  0
  -27.4936  -31.8054   22.5663 O   0  0  0  0  0  0  0  0  0  0  0  0
  -23.3364  -33.7888   23.7082 O   0  0  0  0  0  0  0  0  0  0  0  0
  -23.0625  -23.2822   21.2616 O   0  0  0  0  0  0  0  0  0  0  0  0
  -25.9198  -11.3645   20.5354 O   0  0  0  0  0  0  0  0  0  0  0  0
  -19.7832  -28.6335   21.0344 O   0  0  0  0  0  0  0  0  0  1  0  0
  -18.3255  -23.5142   20.8353 O   0  0  0  0  0  0  0  0  0  0  0  0
  -20.7030   -9.8114   21.4166 F   0  0  0  0  0  0  0  0  0  0  0  0
  -24.4418  -12.4634   22.5971 F   0  0  0  0  0  0  0  0  0  0  0  0
  1  2  1  0  0  0  0
  1  5  2  0  0  0  0
  2  6  2  0  0  0  0
  3  9  2  0  0  0  0
  3 18  1  0  0  0  0
  4 10  1  0  0  0  0
  4 18  2  0  0  0  0
  5 20  1  0  0  0  0
  6 22  1  0  0  0  0
  7 11  2  0  0  0  0
  7 21  1  0  0  0  0
  8 12  2  0  0  0  0
  8 24  1  0  0  0  0
  9 26  1  0  0  0  0
 10 26  2  0  0  0  0
 11 27  1  0  0  0  0
 12 28  1  0  0  0  0
 13 14  2  0  0  0  0
 13 29  1  0  0  0  0
 14 30  1  0  0  0  0
 15 23  1  0  0  0  0
 15 27  2  0  0  0  0
 16 25  1  0  0  0  0
 16 28  2  0  0  0  0
 17 30  2  0  0  0  0
 17 31  1  0  0  0  0
 18 32  1  0  0  0  0
 19 32  1  0  0  0  0
 19 33  2  0  0  0  0
 19 35  1  0  0  0  0
 20 22  2  0  0  0  0
 20 41  1  0  0  0  0
 21 23  2  0  0  0  0
 21 42  1  0  0  0  0
 22 50  1  0  0  0  0
 23 43  1  0  0  0  0
 24 25  2  0  0  0  0
 24 53  1  0  0  0  0
 25 71  1  0  0  0  0
 26 80  1  0  0  0  0
 27 81  1  0  0  0  0
 28 82  1  0  0  0  0
 29 31  2  0  0  0  0
 29 80  1  0  0  0  0
 30 83  1  0  0  0  0
 31 84  1  0  0  0  0
 32 65  2  0  0  0  0
 33 66  1  0  0  0  0
 33 69  1  0  0  0  0
 34 36  2  0  0  0  0
 34 60  1  0  0  0  0
 35 70  1  0  0  0  0
 35 75  2  0  0  0  0
 36 54  1  0  0  0  0
 36 61  1  0  0  0  0
 37 51  1  0  0  0  0
 37 72  1  0  0  0  0
 37 76  2  0  0  0  0
 38 62  1  0  0  0  0
 38 67  1  0  0  0  0
 38 77  2  0  0  0  0
 39 63  1  0  0  0  0
 39 73  1  0  0  0  0
 39 78  2  0  0  0  0
 40 68  1  0  0  0  0
 40 71  1  0  0  0  0
 40 79  2  0  0  0  0
 41 44  1  0  0  0  0
 42 51  1  0  0  0  0
 43 67  1  0  0  0  0
 44 46  1  0  0  0  0
 45 47  1  0  0  0  0
 45 48  1  0  0  0  0
 46 50  1  0  0  0  0
 47 52  1  0  0  0  0
 48 68  1  0  0  0  0
 49 52  1  0  0  0  0
 49 68  1  0  0  0  0
 50 72  1  0  0  0  0
 51 67  1  0  0  0  0
 52 66  1  0  0  0  0
 55 63  1  0  0  0  0
 56 64  1  0  0  0  0
 57 64  1  0  0  0  0
 58 64  1  0  0  0  0
 59 74  1  0  0  0  0
 60 81  1  0  0  0  0
 61 82  1  0  0  0  0
 62 64  1  0  0  0  0
 62 73  1  0  0  0  0
 63 74  1  0  0  0  0
 65 66  1  0  0  0  0
M  CHG  1  74   1
M  ISO  4  40 100  60 101  71 100  81 101
M  END
> <Batch ID>
0119

> <Smiles>
CNC(C)C(=O)NC(C(=O)N1Cc2cc([101O:1][101CH2:1]C=C(C)COc3ccc(C)c([100NH:0][100C:0](=O)N4CCCC(n5nc(-c6ccc(Oc7ccc(F)cc7F)cc6)c(C(N)=O)c5N)C4)c3)ccc2CC1C(=O)NC1CCCc2ccccc21)C(C)(C)C

> <Shape>
0.272

> <Color>
0.070

> <Negative vol penalty>
0.000

$$$$

  -OEChem-04052301513D

 86 94  0     1  0  0  0  0  0999 V2000
  -19.6343  -23.9927   22.7850 C   0  0  0  0  0  0  0  0  0  0  0  0
  -20.8156  -24.3080   22.1212 C   0  0  0  0  0  0  0  0  0  0  0  0
  -26.4187  -12.6595   20.0853 C   0  0  0  0  0  0  0  0  0  0  0  0
  -24.1433  -13.1867   20.7031 C   0  0  0  0  0  0  0  0  0  0  0  0
  -18.7487  -25.0062   23.1490 C   0  0  0  0  0  0  0  0  0  0  0  0
  -21.1114  -25.6370   21.8201 C   0  0  0  0  0  0  0  0  0  0  0  0
  -25.9150  -26.8449   22.8744 C   0  0  0  0  0  0  0  0  0  0  0  0
  -24.3425  -21.5186   16.4019 C   0  0  0  0  0  0  0  0  0  0  0  0
  -26.2375  -11.3513   20.5341 C   0  0  0  0  0  0  0  0  0  0  0  0
  -23.9621  -11.8785   21.1519 C   0  0  0  0  0  0  0  0  0  0  0  0
  -26.8896  -26.4301   21.9678 C   0  0  0  0  0  0  0  0  0  0  0  0
  -25.5201  -22.2048   16.1053 C   0  0  0  0  0  0  0  0  0  0  0  0
  -23.3633   -8.8419   19.7949 C   0  0  0  0  0  0  0  0  0  0  0  0
  -22.1856   -8.1902   19.4289 C   0  0  0  0  0  0  0  0  0  0  0  0
  -25.9118  -22.5519   18.4640 C   0  0  0  0  0  0  0  0  0  0  0  0
  -26.9317  -28.6435   21.0096 C   0  0  0  0  0  0  0  0  0  0  0  0
  -21.6067   -7.9273   21.7598 C   0  0  0  0  0  0  0  0  0  0  0  0
  -25.3717  -13.5772   20.1699 C   0  0  0  0  0  0  0  0  0  0  0  0
  -24.7342  -21.8657   18.7605 C   0  0  0  0  0  0  0  0  0  0  0  0
  -25.3210  -15.4240   18.4108 C   0  0  0  0  0  0  0  0  0  0  0  0
  -19.0384  -26.3492   22.8607 C   0  0  0  0  0  0  0  0  0  0  0  0
  -25.4328  -28.1614   22.8483 C   0  0  0  0  0  0  0  0  0  0  0  0
  -20.2282  -26.6693   22.1794 C   0  0  0  0  0  0  0  0  0  0  0  0
  -25.9529  -29.0732   21.9187 C   0  0  0  0  0  0  0  0  0  0  0  0
  -23.9495  -21.3491   17.7295 C   0  0  0  0  0  0  0  0  0  0  0  0
  -25.0092  -10.9608   21.0673 C   0  0  0  0  0  0  0  0  0  0  0  0
  -26.3048  -22.7215   17.1363 C   0  0  0  0  0  0  0  0  0  0  0  0
  -27.3960  -27.3286   21.0333 C   0  0  0  0  0  0  0  0  0  0  0  0
  -23.6627   -9.0363   21.1434 C   0  0  0  0  0  0  0  0  0  0  0  0
  -21.3073   -7.7329   20.4113 C   0  0  0  0  0  0  0  0  0  0  0  0
  -22.7844   -8.5791   22.1258 C   0  0  0  0  0  0  0  0  0  0  0  0
  -25.5585  -14.9289   19.7070 C   0  0  0  0  0  0  0  0  0  0  0  0
  -25.6492  -16.7556   18.4864 C   0  0  0  0  0  0  0  0  0  0  0  0
  -28.0308  -26.2497   16.7789 C   0  0  0  0  0  0  0  0  0  0  0  0
  -28.7959  -26.6036   17.8219 C   0  0  0  0  0  0  0  0  0  0  0  0
  -24.3474  -21.7028   20.1554 C   0  0  0  0  0  0  0  0  0  0  0  0
  -24.8462  -14.7413   17.2428 C   0  0  0  0  0  0  0  0  0  0  0  0
  -25.3623  -21.6215   21.2308 C   0  0  0  0  0  0  0  0  0  0  0  0
  -22.5960  -29.5015   22.3382 C   0  0  0  0  0  0  0  0  0  0  0  0
  -24.1660  -32.2178   23.1625 C   0  0  0  0  0  0  0  0  0  0  0  0
  -27.1324  -33.8857   23.4175 C   0  0  0  0  0  0  0  0  0  0  0  0
  -18.0281  -27.4056   23.2320 C   0  0  0  0  0  0  0  0  0  0  0  0
  -24.4008  -28.6005   23.8505 C   0  0  0  0  0  0  0  0  0  0  0  0
  -25.4833  -30.5032   21.8624 C   0  0  0  0  0  0  0  0  0  0  0  0
  -18.5930  -28.8236   23.2089 C   0  0  0  0  0  0  0  0  0  0  0  0
  -28.0193  -19.3743   22.0955 C   0  0  0  0  0  0  0  0  0  0  0  0
  -19.3989  -29.0564   21.9349 C   0  0  0  0  0  0  0  0  0  0  0  0
  -27.5759  -18.0488   21.4773 C   0  0  0  0  0  0  0  0  0  0  0  0
  -26.8269  -20.1844   22.5940 C   0  0  0  0  0  0  0  0  0  0  0  0
  -25.3412  -19.1101   20.9245 C   0  0  0  0  0  0  0  0  0  0  0  0
  -20.5962  -28.1014   21.8572 C   0  0  1  0  0  0  0  0  0  0  0  0
  -23.6112  -29.8248   23.3977 C   0  0  1  0  0  0  0  0  0  0  0  0
  -26.5163  -18.2763   20.3845 C   0  0  2  0  0  0  0  0  0  0  0  0
  -21.4450  -21.4627   17.7618 C   0  0  0  0  0  0  0  0  0  0  0  0
  -28.0934  -36.1045   24.0889 C   0  0  0  0  0  0  0  0  0  0  0  0
  -23.1731  -33.4364   20.5474 C   0  0  0  0  0  0  0  0  0  0  0  0
  -24.8941  -35.2352   20.8131 C   0  0  0  0  0  0  0  0  0  0  0  0
  -23.0885  -34.9778   22.5149 C   0  0  0  0  0  0  0  0  0  0  0  0
  -28.7655  -32.6608   25.5602 C   0  0  0  0  0  0  0  0  0  0  0  0
  -22.6837  -20.6101   18.0187 C   0  0  0  0  0  0  0  0  0  0  0  0
  -28.4605  -25.2762   15.7178 C   0  0  0  0  0  0  0  0  0  0  0  0
  -28.3640  -27.5727   18.8748 C   0  0  0  0  0  0  0  0  0  1  0  0
  -27.4986  -24.0991   15.6090 C   0  0  0  0  0  0  0  0  0  0  0  0
  -24.9491  -33.2691   22.4138 C   0  0  1  0  0  0  0  0  0  0  0  0
  -27.7367  -34.6992   24.5477 C   0  0  2  0  0  0  0  0  0  0  0  0
  -24.0338  -34.2022   21.5718 C   0  0  0  0  0  0  0  0  0  0  0  0
  -26.0033  -15.8693   20.5447 N   0  0  0  0  0  0  0  0  0  0  0  0
  -23.1060  -21.6208   20.5475 N   0  0  0  0  0  0  0  0  0  0  0  0
  -26.0481  -16.9687   19.7731 N   0  0  0  0  0  0  0  0  0  0  0  0
  -25.8246  -20.3508   21.5434 N   0  0  0  0  0  0  0  0  0  0  0  0
  -24.4684  -30.8827   22.8591 N   0  0  0  0  0  0  0  0  0  0  0  0
  -25.6327  -17.7532   17.5770 N   0  0  0  0  0  0  0  0  0  0  0  0
  -24.5564  -13.3735   17.3399 N   0  0  0  0  0  0  0  0  0  0  0  0
  -21.6632  -28.5572   22.7223 N   0  0  0  0  0  0  0  0  0  0  0  0
  -25.7558  -33.9644   23.4109 N   0  0  0  0  0  0  0  0  0  0  0  0
  -28.9745  -34.0420   25.0547 N   0  3  0  0  0  0  0  0  0  0  0  0
  -24.6993  -15.3233   16.1413 O   0  0  0  0  0  0  0  0  0  0  0  0
  -25.6864  -22.6902   21.7320 O   0  0  0  0  0  0  0  0  0  0  0  0
  -22.6538  -30.0680   21.2531 O   0  0  0  0  0  0  0  0  0  0  0  0
  -23.3222  -32.5681   23.9913 O   0  0  0  0  0  0  0  0  0  0  0  0
  -27.8136  -33.2476   22.6179 O   0  0  0  0  0  0  0  0  0  0  0  0
  -24.8319   -9.6843   21.5051 O   0  0  0  0  0  0  0  0  0  0  0  0
  -28.3468  -26.9261   20.1468 O   0  0  0  0  0  0  0  0  0  1  0  0
  -27.4611  -23.3964   16.8444 O   0  0  0  0  0  0  0  0  0  0  0  0
  -20.1757   -7.1084   20.0597 F   0  0  0  0  0  0  0  0  0  0  0  0
  -23.0661   -8.7640   23.4228 F   0  0  0  0  0  0  0  0  0  0  0  0
  1  2  1  0  0  0  0
  1  5  2  0  0  0  0
  2  6  2  0  0  0  0
  3  9  2  0  0  0  0
  3 18  1  0  0  0  0
  4 10  1  0  0  0  0
  4 18  2  0  0  0  0
  5 21  1  0  0  0  0
  6 23  1  0  0  0  0
  7 11  2  0  0  0  0
  7 22  1  0  0  0  0
  8 12  2  0  0  0  0
  8 25  1  0  0  0  0
  9 26  1  0  0  0  0
 10 26  2  0  0  0  0
 11 28  1  0  0  0  0
 12 27  1  0  0  0  0
 13 14  2  0  0  0  0
 13 29  1  0  0  0  0
 14 30  1  0  0  0  0
 15 19  1  0  0  0  0
 15 27  2  0  0  0  0
 16 24  1  0  0  0  0
 16 28  2  0  0  0  0
 17 30  2  0  0  0  0
 17 31  1  0  0  0  0
 18 32  1  0  0  0  0
 19 25  2  0  0  0  0
 19 36  1  0  0  0  0
 20 32  1  0  0  0  0
 20 33  2  0  0  0  0
 20 37  1  0  0  0  0
 21 23  2  0  0  0  0
 21 42  1  0  0  0  0
 22 24  2  0  0  0  0
 22 43  1  0  0  0  0
 23 51  1  0  0  0  0
 24 44  1  0  0  0  0
 25 60  1  0  0  0  0
 26 82  1  0  0  0  0
 27 84  1  0  0  0  0
 28 83  1  0  0  0  0
 29 31  2  0  0  0  0
 29 82  1  0  0  0  0
 30 85  1  0  0  0  0
 31 86  1  0  0  0  0
 32 67  2  0  0  0  0
 33 69  1  0  0  0  0
 33 72  1  0  0  0  0
 34 35  2  0  0  0  0
 34 61  1  0  0  0  0
 35 62  1  0  0  0  0
 36 38  1  0  0  0  0
 36 68  2  0  0  0  0
 37 73  1  0  0  0  0
 37 77  2  0  0  0  0
 38 70  1  0  0  0  0
 38 78  2  0  0  0  0
 39 52  1  0  0  0  0
 39 74  1  0  0  0  0
 39 79  2  0  0  0  0
 40 64  1  0  0  0  0
 40 71  1  0  0  0  0
 40 80  2  0  0  0  0
 41 65  1  0  0  0  0
 41 75  1  0  0  0  0
 41 81  2  0  0  0  0
 42 45  1  0  0  0  0
 43 52  1  0  0  0  0
 44 71  1  0  0  0  0
 45 47  1  0  0  0  0
 46 48  1  0  0  0  0
 46 49  1  0  0  0  0
 47 51  1  0  0  0  0
 48 53  1  0  0  0  0
 49 70  1  0  0  0  0
 50 53  1  0  0  0  0
 50 70  1  0  0  0  0
 51 74  1  0  0  0  0
 52 71  1  0  0  0  0
 53 69  1  0  0  0  0
 54 60  1  0  0  0  0
 55 65  1  0  0  0  0
 56 66  1  0  0  0  0
 57 66  1  0  0  0  0
 58 66  1  0  0  0  0
 59 76  1  0  0  0  0
 61 63  1  0  0  0  0
 62 83  1  0  0  0  0
 63 84  1  0  0  0  0
 64 66  1  0  0  0  0
 64 75  1  0  0  0  0
 65 76  1  0  0  0  0
 67 69  1  0  0  0  0
M  CHG  1  76   1
M  ISO  4  36 100  38 100  62 101  83 101
M  END
> <Batch ID>
0119

> <Smiles>
CCc1ccc(OCCC=C[101CH2:1][101O:1]c2ccc3c(c2)CN(C(=O)C(NC(=O)C(C)NC)C(C)(C)C)C(C(=O)NC2CCCc4ccccc42)C3)cc1[100C:0](=N)[100C:0](=O)N1CCCC(n2nc(-c3ccc(Oc4ccc(F)cc4F)cc3)c(C(N)=O)c2N)C1

> <Shape>
0.226

> <Color>
0.102

> <Negative vol penalty>
0.000

$$$$

  -OEChem-04052301513D

 86 94  0     1  0  0  0  0  0999 V2000
  -29.9588  -32.6078   25.6150 C   0  0  0  0  0  0  0  0  0  0  0  0
  -29.5780  -31.3684   25.1106 C   0  0  0  0  0  0  0  0  0  0  0  0
  -24.0766   -9.5308   20.8953 C   0  0  0  0  0  0  0  0  0  0  0  0
  -24.6562  -10.2972   23.1120 C   0  0  0  0  0  0  0  0  0  0  0  0
  -28.9957  -33.5863   25.8575 C   0  0  0  0  0  0  0  0  0  0  0  0
  -28.2335  -31.1065   24.8493 C   0  0  0  0  0  0  0  0  0  0  0  0
  -27.5318  -28.8170   20.3872 C   0  0  0  0  0  0  0  0  0  0  0  0
  -23.6804   -8.3022   21.4236 C   0  0  0  0  0  0  0  0  0  0  0  0
  -24.2600   -9.0686   23.6404 C   0  0  0  0  0  0  0  0  0  0  0  0
  -27.8030  -27.4509   20.3229 C   0  0  0  0  0  0  0  0  0  0  0  0
  -22.1782   -5.0922   22.2328 C   0  0  0  0  0  0  0  0  0  0  0  0
  -20.9747   -4.5502   21.7819 C   0  0  0  0  0  0  0  0  0  0  0  0
  -32.1974  -17.7798   22.2410 C   0  0  0  0  0  0  0  0  0  0  0  0
  -25.4451  -26.9799   20.5172 C   0  0  0  0  0  0  0  0  0  0  0  0
  -30.0279  -18.7920   23.6732 C   0  0  0  0  0  0  0  0  0  0  0  0
  -19.7939   -6.4941   22.5969 C   0  0  0  0  0  0  0  0  0  0  0  0
  -24.5645  -10.5283   21.7395 C   0  0  0  0  0  0  0  0  0  0  0  0
  -31.9518  -19.1527   22.2571 C   0  0  0  0  0  0  0  0  0  0  0  0
  -24.1747  -12.9410   21.0082 C   0  0  0  0  0  0  0  0  0  0  0  0
  -27.6399  -33.3396   25.5899 C   0  0  0  0  0  0  0  0  0  0  0  0
  -26.2140  -29.2752   20.5282 C   0  0  0  0  0  0  0  0  0  0  0  0
  -27.2512  -32.0822   25.0896 C   0  0  0  0  0  0  0  0  0  0  0  0
  -25.1597  -28.3523   20.5805 C   0  0  0  0  0  0  0  0  0  0  0  0
  -31.3582  -16.9129   22.9409 C   0  0  0  0  0  0  0  0  0  0  0  0
  -30.2735  -17.4190   23.6570 C   0  0  0  0  0  0  0  0  0  0  0  0
  -23.7721   -8.0711   22.7962 C   0  0  0  0  0  0  0  0  0  0  0  0
  -26.7598  -26.5320   20.3908 C   0  0  0  0  0  0  0  0  0  0  0  0
  -22.1896   -6.3352   22.8658 C   0  0  0  0  0  0  0  0  0  0  0  0
  -30.8671  -19.6588   22.9732 C   0  0  0  0  0  0  0  0  0  0  0  0
  -19.7825   -5.2511   21.9639 C   0  0  0  0  0  0  0  0  0  0  0  0
  -20.9975   -7.0361   23.0478 C   0  0  0  0  0  0  0  0  0  0  0  0
  -24.9744  -11.7975   21.1943 C   0  0  0  0  0  0  0  0  0  0  0  0
  -25.0267  -13.8711   20.4648 C   0  0  0  0  0  0  0  0  0  0  0  0
  -33.0068  -19.9787   20.2028 C   0  0  0  0  0  0  0  0  0  0  0  0
  -32.8411  -20.0371   21.5158 C   0  0  0  0  0  0  0  0  0  0  0  0
  -22.7858  -13.1442   21.3006 C   0  0  0  0  0  0  0  0  0  0  0  0
  -24.6455  -30.9526   22.7259 C   0  0  0  0  0  0  0  0  0  0  0  0
  -22.2471  -30.8310   20.5453 C   0  0  0  0  0  0  0  0  0  0  0  0
  -20.8312  -29.2349   17.8818 C   0  0  0  0  0  0  0  0  0  0  0  0
  -30.9685  -14.5772   20.6835 C   0  0  0  0  0  0  0  0  0  0  0  0
  -26.6295  -34.4118   25.9126 C   0  0  0  0  0  0  0  0  0  0  0  0
  -25.9358  -30.7528   20.5692 C   0  0  0  0  0  0  0  0  0  0  0  0
  -23.7255  -28.7934   20.7115 C   0  0  0  0  0  0  0  0  0  0  0  0
  -25.2700  -34.1851   25.2562 C   0  0  0  0  0  0  0  0  0  0  0  0
  -28.9612  -14.2189   17.7648 C   0  0  0  0  0  0  0  0  0  0  0  0
  -24.8235  -32.7381   25.4393 C   0  0  0  0  0  0  0  0  0  0  0  0
  -27.6396  -13.6609   18.2960 C   0  0  0  0  0  0  0  0  0  0  0  0
  -30.1583  -13.6593   18.5301 C   0  0  0  0  0  0  0  0  0  0  0  0
  -28.7669  -13.2640   20.5254 C   0  0  0  0  0  0  0  0  0  0  0  0
  -25.8055  -31.7688   24.7701 C   0  0  1  0  0  0  0  0  0  0  0  0
  -24.6034  -31.0918   21.2304 C   0  0  1  0  0  0  0  0  0  0  0  0
  -27.5273  -13.8422   19.8217 C   0  0  2  0  0  0  0  0  0  0  0  0
  -29.3604  -16.5100   24.4123 C   0  0  0  0  0  0  0  0  0  0  0  0
  -18.8542  -29.3488   16.3404 C   0  0  0  0  0  0  0  0  0  0  0  0
  -20.4630  -29.7157   22.7551 C   0  0  0  0  0  0  0  0  0  0  0  0
  -18.8539  -28.9744   20.9860 C   0  0  0  0  0  0  0  0  0  0  0  0
  -19.3585  -31.4004   21.2732 C   0  0  0  0  0  0  0  0  0  0  0  0
  -22.5587  -29.5748   15.5029 C   0  0  0  0  0  0  0  0  0  0  0  0
  -31.6402  -15.4466   22.9089 C   0  0  0  0  0  0  0  0  0  0  0  0
  -28.1556  -23.3326   21.3610 C   0  0  0  0  0  0  0  0  0  0  0  0
  -29.4738  -22.8280   21.9376 C   0  0  0  0  0  0  0  0  0  0  0  0
  -28.2792  -24.7587   20.8409 C   0  0  0  0  0  0  0  0  0  1  0  0
  -29.3401  -21.4186   22.4965 C   0  0  0  0  0  0  0  0  0  0  0  0
  -21.1081  -29.8820   20.2606 C   0  0  1  0  0  0  0  0  0  0  0  0
  -20.3024  -29.7583   16.5585 C   0  0  2  0  0  0  0  0  0  0  0  0
  -19.9730  -29.9844   21.3182 C   0  0  0  0  0  0  0  0  0  0  0  0
  -26.2374  -11.9820   20.8008 N   0  0  0  0  0  0  0  0  0  0  0  0
  -26.2377  -13.2523   20.3620 N   0  0  0  0  0  0  0  0  0  0  0  0
  -23.5052  -30.2484   20.7538 N   0  0  0  0  0  0  0  0  0  0  0  0
  -29.9901  -13.8647   19.9707 N   0  0  0  0  0  0  0  0  0  0  0  0
  -24.8506  -15.1499   20.0695 N   0  0  0  0  0  0  0  0  0  0  0  0
  -22.0580  -12.0835   21.8569 N   0  0  0  0  0  0  0  0  0  0  0  0
  -25.5967  -31.7462   23.3382 N   0  0  0  0  0  0  0  0  0  0  0  0
  -20.6783  -30.1584   18.8941 N   0  0  0  0  0  0  0  0  0  0  0  0
  -30.7285  -14.7320   22.0434 N   0  0  0  0  0  0  0  0  0  0  0  0
  -21.1163  -29.2269   15.4289 N   0  3  0  0  0  0  0  0  0  0  0  0
  -22.2035  -14.2289   21.0601 O   0  0  0  0  0  0  0  0  0  0  0  0
  -23.8713  -30.1833   23.2831 O   0  0  0  0  0  0  0  0  0  0  0  0
  -22.0299  -32.0450   20.5742 O   0  0  0  0  0  0  0  0  0  0  0  0
  -21.3267  -28.1170   18.0057 O   0  0  0  0  0  0  0  0  0  0  0  0
  -31.9781  -15.0457   20.1468 O   0  0  0  0  0  0  0  0  0  0  0  0
  -23.3854   -6.8724   23.3121 O   0  0  0  0  0  0  0  0  0  0  0  0
  -27.0218  -25.1981   20.3289 O   0  0  0  0  0  0  0  0  0  1  0  0
  -30.6011  -21.0032   23.0027 O   0  0  0  0  0  0  0  0  0  0  0  0
  -18.6271   -4.7312   21.5296 F   0  0  0  0  0  0  0  0  0  0  0  0
  -21.0023   -8.2312   23.6541 F   0  0  0  0  0  0  0  0  0  0  0  0
  1  2  1  0  0  0  0
  1  5  2  0  0  0  0
  2  6  2  0  0  0  0
  3  8  2  0  0  0  0
  3 17  1  0  0  0  0
  4  9  1  0  0  0  0
  4 17  2  0  0  0  0
  5 20  1  0  0  0  0
  6 22  1  0  0  0  0
  7 10  2  0  0  0  0
  7 21  1  0  0  0  0
  8 26  1  0  0  0  0
  9 26  2  0  0  0  0
 10 27  1  0  0  0  0
 11 12  2  0  0  0  0
 11 28  1  0  0  0  0
 12 30  1  0  0  0  0
 13 18  1  0  0  0  0
 13 24  2  0  0  0  0
 14 23  1  0  0  0  0
 14 27  2  0  0  0  0
 15 25  2  0  0  0  0
 15 29  1  0  0  0  0
 16 30  2  0  0  0  0
 16 31  1  0  0  0  0
 17 32  1  0  0  0  0
 18 29  2  0  0  0  0
 18 35  1  0  0  0  0
 19 32  1  0  0  0  0
 19 33  2  0  0  0  0
 19 36  1  0  0  0  0
 20 22  2  0  0  0  0
 20 41  1  0  0  0  0
 21 23  2  0  0  0  0
 21 42  1  0  0  0  0
 22 50  1  0  0  0  0
 23 43  1  0  0  0  0
 24 25  1  0  0  0  0
 24 59  1  0  0  0  0
 25 53  1  0  0  0  0
 26 82  1  0  0  0  0
 27 83  1  0  0  0  0
 28 31  2  0  0  0  0
 28 82  1  0  0  0  0
 29 84  1  0  0  0  0
 30 85  1  0  0  0  0
 31 86  1  0  0  0  0
 32 67  2  0  0  0  0
 33 68  1  0  0  0  0
 33 71  1  0  0  0  0
 34 35  2  0  0  0  0
 36 72  1  0  0  0  0
 36 77  2  0  0  0  0
 37 51  1  0  0  0  0
 37 73  1  0  0  0  0
 37 78  2  0  0  0  0
 38 64  1  0  0  0  0
 38 69  1  0  0  0  0
 38 79  2  0  0  0  0
 39 65  1  0  0  0  0
 39 74  1  0  0  0  0
 39 80  2  0  0  0  0
 40 70  1  0  0  0  0
 40 75  1  0  0  0  0
 40 81  2  0  0  0  0
 41 44  1  0  0  0  0
 42 51  1  0  0  0  0
 43 69  1  0  0  0  0
 44 46  1  0  0  0  0
 45 47  1  0  0  0  0
 45 48  1  0  0  0  0
 46 50  1  0  0  0  0
 47 52  1  0  0  0  0
 48 70  1  0  0  0  0
 49 52  1  0  0  0  0
 49 70  1  0  0  0  0
 50 73  1  0  0  0  0
 51 69  1  0  0  0  0
 52 68  1  0  0  0  0
 54 65  1  0  0  0  0
 55 66  1  0  0  0  0
 56 66  1  0  0  0  0
 57 66  1  0  0  0  0
 58 76  1  0  0  0  0
 59 75  1  0  0  0  0
 60 61  1  0  0  0  0
 60 62  1  0  0  0  0
 61 63  1  0  0  0  0
 62 83  1  0  0  0  0
 63 84  1  0  0  0  0
 64 66  1  0  0  0  0
 64 74  1  0  0  0  0
 65 76  1  0  0  0  0
 67 68  1  0  0  0  0
M  CHG  1  76   1
M  ISO  4  40 100  62 101  75 100  83 101
M  END
> <Batch ID>
0119

> <Smiles>
C=Cc1cc(C[100NH:0][100C:0](=O)N2CCCC(n3nc(-c4ccc(Oc5ccc(F)cc5F)cc4)c(C(N)=O)c3N)C2)c(C)cc1OCCC[101CH2:1][101O:1]c1ccc2c(c1)CN(C(=O)C(NC(=O)C(C)NC)C(C)(C)C)C(C(=O)NC1CCCc3ccccc31)C2

> <Shape>
0.320

> <Color>
0.152

> <Negative vol penalty>
0.000

$$$$

  -OEChem-04052301513D

 87 95  0     1  0  0  0  0  0999 V2000
  -18.3493  -26.0343   21.8757 C   0  0  0  0  0  0  0  0  0  0  0  0
  -19.5536  -25.4862   22.3056 C   0  0  0  0  0  0  0  0  0  0  0  0
  -24.0516   -9.7827   19.9403 C   0  0  0  0  0  0  0  0  0  0  0  0
  -24.7259  -10.0858   22.2404 C   0  0  0  0  0  0  0  0  0  0  0  0
  -18.2706  -26.6477   20.6261 C   0  0  0  0  0  0  0  0  0  0  0  0
  -20.6796  -25.5502   21.4856 C   0  0  0  0  0  0  0  0  0  0  0  0
  -27.8110  -26.1335   21.8304 C   0  0  0  0  0  0  0  0  0  0  0  0
  -23.7308   -8.4522   20.2097 C   0  0  0  0  0  0  0  0  0  0  0  0
  -24.4052   -8.7553   22.5098 C   0  0  0  0  0  0  0  0  0  0  0  0
  -28.9666  -25.5086   21.3635 C   0  0  0  0  0  0  0  0  0  0  0  0
  -23.4244   -5.5379   23.8899 C   0  0  0  0  0  0  0  0  0  0  0  0
  -22.7059   -5.2662   25.0542 C   0  0  0  0  0  0  0  0  0  0  0  0
  -28.7327  -26.6627   19.2581 C   0  0  0  0  0  0  0  0  0  0  0  0
  -27.3981  -21.7546   18.9146 C   0  0  0  0  0  0  0  0  0  0  0  0
  -29.2740  -20.6357   19.9469 C   0  0  0  0  0  0  0  0  0  0  0  0
  -20.8992   -6.6627   24.2652 C   0  0  0  0  0  0  0  0  0  0  0  0
  -24.5492  -10.5995   20.9557 C   0  0  0  0  0  0  0  0  0  0  0  0
  -24.0310  -13.0911   20.7802 C   0  0  0  0  0  0  0  0  0  0  0  0
  -19.3987  -26.7278   19.7944 C   0  0  0  0  0  0  0  0  0  0  0  0
  -27.1003  -27.0208   21.0094 C   0  0  0  0  0  0  0  0  0  0  0  0
  -20.6156  -26.1641   20.2231 C   0  0  0  0  0  0  0  0  0  0  0  0
  -27.5698  -27.2994   19.7179 C   0  0  0  0  0  0  0  0  0  0  0  0
  -26.5269  -21.0917   19.7790 C   0  0  0  0  0  0  0  0  0  0  0  0
  -28.4029  -19.9728   20.8114 C   0  0  0  0  0  0  0  0  0  0  0  0
  -27.0293  -20.2008   20.7274 C   0  0  0  0  0  0  0  0  0  0  0  0
  -23.9076   -7.9385   21.4944 C   0  0  0  0  0  0  0  0  0  0  0  0
  -29.4260  -25.7710   20.0762 C   0  0  0  0  0  0  0  0  0  0  0  0
  -22.8803   -6.3721   22.9133 C   0  0  0  0  0  0  0  0  0  0  0  0
  -28.7717  -21.5266   18.9985 C   0  0  0  0  0  0  0  0  0  0  0  0
  -21.4433   -5.8285   25.2418 C   0  0  0  0  0  0  0  0  0  0  0  0
  -21.6177   -6.9345   23.1009 C   0  0  0  0  0  0  0  0  0  0  0  0
  -24.8812  -11.9738   20.6780 C   0  0  0  0  0  0  0  0  0  0  0  0
  -24.8166  -14.1554   20.4105 C   0  0  0  0  0  0  0  0  0  0  0  0
  -23.9484  -21.9299   17.4887 C   0  0  0  0  0  0  0  0  0  0  0  0
  -24.5063  -21.0304   18.3068 C   0  0  0  0  0  0  0  0  0  0  0  0
  -22.6542  -13.1608   21.1742 C   0  0  0  0  0  0  0  0  0  0  0  0
  -24.1673  -27.0845   19.7860 C   0  0  0  0  0  0  0  0  0  0  0  0
  -25.0661  -30.0391   18.7937 C   0  0  0  0  0  0  0  0  0  0  0  0
  -27.6001  -32.1784   17.9879 C   0  0  0  0  0  0  0  0  0  0  0  0
  -29.6421  -16.9504   20.6300 C   0  0  0  0  0  0  0  0  0  0  0  0
  -19.2530  -27.3588   18.4323 C   0  0  0  0  0  0  0  0  0  0  0  0
  -25.8705  -27.7071   21.5374 C   0  0  0  0  0  0  0  0  0  0  0  0
  -26.8546  -28.2596   18.8041 C   0  0  0  0  0  0  0  0  0  0  0  0
  -20.5865  -27.7162   17.7809 C   0  0  0  0  0  0  0  0  0  0  0  0
  -29.4065  -14.2788   18.2882 C   0  0  0  0  0  0  0  0  0  0  0  0
  -21.5683  -26.5552   17.9026 C   0  0  0  0  0  0  0  0  0  0  0  0
  -28.1422  -13.5301   18.7135 C   0  0  0  0  0  0  0  0  0  0  0  0
  -30.1766  -14.8155   19.4928 C   0  0  0  0  0  0  0  0  0  0  0  0
  -28.1163  -14.8954   20.8428 C   0  0  0  0  0  0  0  0  0  0  0  0
  -21.8652  -26.2356   19.3726 C   0  0  1  0  0  0  0  0  0  0  0  0
  -24.9400  -28.1989   20.4330 C   0  0  1  0  0  0  0  0  0  0  0  0
  -27.2766  -14.3836   19.6598 C   0  0  2  0  0  0  0  0  0  0  0  0
  -25.6028  -20.3920   22.7805 C   0  0  0  0  0  0  0  0  0  0  0  0
  -28.0223  -34.5148   17.1753 C   0  0  0  0  0  0  0  0  0  0  0  0
  -24.2520  -29.2032   15.9745 C   0  0  0  0  0  0  0  0  0  0  0  0
  -25.5498  -31.1556   15.0959 C   0  0  0  0  0  0  0  0  0  0  0  0
  -23.5972  -31.5339   16.6014 C   0  0  0  0  0  0  0  0  0  0  0  0
  -29.1059  -32.8821   20.4367 C   0  0  0  0  0  0  0  0  0  0  0  0
  -25.0608  -21.3551   19.6687 C   0  0  0  0  0  0  0  0  0  0  0  0
  -26.0948  -19.4898   21.6540 C   0  0  0  0  0  0  0  0  0  0  0  0
  -28.9654  -19.0222   21.8170 C   0  0  0  0  0  0  0  0  0  0  0  0
  -31.4923  -23.6875   17.9547 C   0  0  0  0  0  0  0  0  0  0  0  0
  -30.6333  -24.9151   18.2146 C   0  0  0  0  0  0  0  0  0  1  0  0
  -30.9339  -22.4479   18.6357 C   0  0  0  0  0  0  0  0  0  0  0  0
  -25.7390  -30.5944   17.5617 C   0  0  1  0  0  0  0  0  0  0  0  0
  -27.8718  -33.6160   18.3928 C   0  0  2  0  0  0  0  0  0  0  0  0
  -24.7972  -30.6021   16.3246 C   0  0  0  0  0  0  0  0  0  0  0  0
  -26.1126  -12.2980   20.2747 N   0  0  0  0  0  0  0  0  0  0  0  0
  -26.0418  -13.6312   20.1203 N   0  0  0  0  0  0  0  0  0  0  0  0
  -25.6533  -28.9007   19.3639 N   0  0  0  0  0  0  0  0  0  0  0  0
  -29.2992  -15.6175   20.3489 N   0  0  0  0  0  0  0  0  0  0  0  0
  -24.5720  -15.4791   20.3086 N   0  0  0  0  0  0  0  0  0  0  0  0
  -21.9979  -11.9724   21.5225 N   0  0  0  0  0  0  0  0  0  0  0  0
  -22.7967  -27.1980   19.9209 N   0  0  0  0  0  0  0  0  0  0  0  0
  -26.2488  -31.9100   17.9328 N   0  0  0  0  0  0  0  0  0  0  0  0
  -28.7530  -17.6414   21.4441 N   0  0  0  0  0  0  0  0  0  0  0  0
  -29.1240  -33.6999   19.1965 N   0  3  0  0  0  0  0  0  0  0  0  0
  -22.0200  -14.2428   21.2005 O   0  0  0  0  0  0  0  0  0  0  0  0
  -24.7698  -26.1888   19.2059 O   0  0  0  0  0  0  0  0  0  0  0  0
  -24.0609  -30.5992   19.2381 O   0  0  0  0  0  0  0  0  0  0  0  0
  -28.4969  -31.3750   17.7412 O   0  0  0  0  0  0  0  0  0  0  0  0
  -30.6621  -17.4866   20.1838 O   0  0  0  0  0  0  0  0  0  0  0  0
  -23.5945   -6.6404   21.7576 O   0  0  0  0  0  0  0  0  0  0  0  0
  -30.5533  -25.1620   19.6178 O   0  0  0  0  0  0  0  0  0  1  0  0
  -29.6271  -22.1765   18.1474 O   0  0  0  0  0  0  0  0  0  0  0  0
  -20.7528   -5.5662   26.3592 F   0  0  0  0  0  0  0  0  0  0  0  0
  -21.0893   -7.7357   22.1657 F   0  0  0  0  0  0  0  0  0  0  0  0
  1  2  1  0  0  0  0
  1  5  2  0  0  0  0
  2  6  2  0  0  0  0
  3  8  2  0  0  0  0
  3 17  1  0  0  0  0
  4  9  1  0  0  0  0
  4 17  2  0  0  0  0
  5 19  1  0  0  0  0
  6 21  1  0  0  0  0
  7 10  2  0  0  0  0
  7 20  1  0  0  0  0
  8 26  1  0  0  0  0
  9 26  2  0  0  0  0
 10 27  1  0  0  0  0
 11 12  2  0  0  0  0
 11 28  1  0  0  0  0
 12 30  1  0  0  0  0
 13 22  1  0  0  0  0
 13 27  2  0  0  0  0
 14 23  1  0  0  0  0
 14 29  2  0  0  0  0
 15 24  2  0  0  0  0
 15 29  1  0  0  0  0
 16 30  2  0  0  0  0
 16 31  1  0  0  0  0
 17 32  1  0  0  0  0
 18 32  1  0  0  0  0
 18 33  2  0  0  0  0
 18 36  1  0  0  0  0
 19 21  2  0  0  0  0
 19 41  1  0  0  0  0
 20 22  2  0  0  0  0
 20 42  1  0  0  0  0
 21 50  1  0  0  0  0
 22 43  1  0  0  0  0
 23 25  2  0  0  0  0
 23 59  1  0  0  0  0
 24 25  1  0  0  0  0
 24 61  1  0  0  0  0
 25 60  1  0  0  0  0
 26 83  1  0  0  0  0
 27 84  1  0  0  0  0
 28 31  2  0  0  0  0
 28 83  1  0  0  0  0
 29 85  1  0  0  0  0
 30 86  1  0  0  0  0
 31 87  1  0  0  0  0
 32 68  2  0  0  0  0
 33 69  1  0  0  0  0
 33 72  1  0  0  0  0
 34 35  2  0  0  0  0
 35 59  1  0  0  0  0
 36 73  1  0  0  0  0
 36 78  2  0  0  0  0
 37 51  1  0  0  0  0
 37 74  1  0  0  0  0
 37 79  2  0  0  0  0
 38 65  1  0  0  0  0
 38 70  1  0  0  0  0
 38 80  2  0  0  0  0
 39 66  1  0  0  0  0
 39 75  1  0  0  0  0
 39 81  2  0  0  0  0
 40 71  1  0  0  0  0
 40 76  1  0  0  0  0
 40 82  2  0  0  0  0
 41 44  1  0  0  0  0
 42 51  1  0  0  0  0
 43 70  1  0  0  0  0
 44 46  1  0  0  0  0
 45 47  1  0  0  0  0
 45 48  1  0  0  0  0
 46 50  1  0  0  0  0
 47 52  1  0  0  0  0
 48 71  1  0  0  0  0
 49 52  1  0  0  0  0
 49 71  1  0  0  0  0
 50 74  1  0  0  0  0
 51 70  1  0  0  0  0
 52 69  1  0  0  0  0
 53 60  1  0  0  0  0
 54 66  1  0  0  0  0
 55 67  1  0  0  0  0
 56 67  1  0  0  0  0
 57 67  1  0  0  0  0
 58 77  1  0  0  0  0
 61 76  1  0  0  0  0
 62 63  1  0  0  0  0
 62 64  1  0  0  0  0
 63 84  1  0  0  0  0
 64 85  1  0  0  0  0
 65 67  1  0  0  0  0
 65 75  1  0  0  0  0
 66 77  1  0  0  0  0
 68 69  1  0  0  0  0
M  CHG  1  77   1
M  ISO  4  40 100  63 101  76 100  84 101
M  END
> <Batch ID>
0119

> <Smiles>
C=CCc1cc(OCC[101CH2:1][101O:1]c2ccc3c(c2)CN(C(=O)C(NC(=O)C(C)NC)C(C)(C)C)C(C(=O)NC2CCCc4ccccc42)C3)cc(C[100NH:0][100C:0](=O)N2CCCC(n3nc(-c4ccc(Oc5ccc(F)cc5F)cc4)c(C(N)=O)c3N)C2)c1CC

> <Shape>
0.281

> <Color>
0.134

> <Negative vol penalty>
0.000

$$$$

  -OEChem-04052301513D

 85 93  0     1  0  0  0  0  0999 V2000
  -16.1912  -23.7081   27.3537 C   0  0  0  0  0  0  0  0  0  0  0  0
  -17.5567  -23.4434   27.3247 C   0  0  0  0  0  0  0  0  0  0  0  0
  -23.0317   -9.9117   19.9714 C   0  0  0  0  0  0  0  0  0  0  0  0
  -23.7470   -9.9639   22.2785 C   0  0  0  0  0  0  0  0  0  0  0  0
  -15.6149  -24.5012   26.3624 C   0  0  0  0  0  0  0  0  0  0  0  0
  -18.3465  -23.9709   26.3037 C   0  0  0  0  0  0  0  0  0  0  0  0
  -24.1551  -25.8606   26.7452 C   0  0  0  0  0  0  0  0  0  0  0  0
  -32.6114  -17.5246   23.4770 C   0  0  0  0  0  0  0  0  0  0  0  0
  -32.0055  -16.6371   22.5877 C   0  0  0  0  0  0  0  0  0  0  0  0
  -22.2769   -8.7679   20.2312 C   0  0  0  0  0  0  0  0  0  0  0  0
  -22.9922   -8.8200   22.5384 C   0  0  0  0  0  0  0  0  0  0  0  0
  -25.3671  -25.2487   26.4284 C   0  0  0  0  0  0  0  0  0  0  0  0
  -23.2760   -5.4855   22.0575 C   0  0  0  0  0  0  0  0  0  0  0  0
  -23.8720   -4.4727   22.8090 C   0  0  0  0  0  0  0  0  0  0  0  0
  -25.3601  -26.3577   24.2862 C   0  0  0  0  0  0  0  0  0  0  0  0
  -22.1387   -4.6912   24.4779 C   0  0  0  0  0  0  0  0  0  0  0  0
  -23.7668  -10.5097   20.9950 C   0  0  0  0  0  0  0  0  0  0  0  0
  -29.8404  -17.5472   23.1546 C   0  0  0  0  0  0  0  0  0  0  0  0
  -24.1244  -13.0300   20.8281 C   0  0  0  0  0  0  0  0  0  0  0  0
  -16.3996  -25.0466   25.3341 C   0  0  0  0  0  0  0  0  0  0  0  0
  -23.5300  -26.7185   25.8289 C   0  0  0  0  0  0  0  0  0  0  0  0
  -17.7798  -24.7710   25.2970 C   0  0  0  0  0  0  0  0  0  0  0  0
  -24.1415  -26.9812   24.5947 C   0  0  0  0  0  0  0  0  0  0  0  0
  -31.8318  -18.4234   24.2052 C   0  0  0  0  0  0  0  0  0  0  0  0
  -30.6200  -16.6484   22.4265 C   0  0  0  0  0  0  0  0  0  0  0  0
  -22.2571   -8.2220   21.5147 C   0  0  0  0  0  0  0  0  0  0  0  0
  -25.9684  -25.4950   25.1976 C   0  0  0  0  0  0  0  0  0  0  0  0
  -22.1115   -6.1012   22.5163 C   0  0  0  0  0  0  0  0  0  0  0  0
  -30.4463  -18.4347   24.0440 C   0  0  0  0  0  0  0  0  0  0  0  0
  -23.3033   -4.0755   24.0191 C   0  0  0  0  0  0  0  0  0  0  0  0
  -21.5428   -5.7040   23.7264 C   0  0  0  0  0  0  0  0  0  0  0  0
  -24.5471  -11.6910   20.7271 C   0  0  0  0  0  0  0  0  0  0  0  0
  -25.2274  -13.7662   20.4703 C   0  0  0  0  0  0  0  0  0  0  0  0
  -27.5611  -16.8594   23.7435 C   0  0  0  0  0  0  0  0  0  0  0  0
  -28.3885  -17.5671   22.9931 C   0  0  0  0  0  0  0  0  0  0  0  0
  -22.8488  -13.5609   21.2111 C   0  0  0  0  0  0  0  0  0  0  0  0
  -20.7580  -26.7038   24.2734 C   0  0  0  0  0  0  0  0  0  0  0  0
  -21.7172  -29.6552   23.3294 C   0  0  0  0  0  0  0  0  0  0  0  0
  -24.2921  -31.8259   22.7770 C   0  0  0  0  0  0  0  0  0  0  0  0
  -30.6947  -14.7882   20.7294 C   0  0  0  0  0  0  0  0  0  0  0  0
  -15.7237  -25.8591   24.2582 C   0  0  0  0  0  0  0  0  0  0  0  0
  -22.2360  -27.3916   26.1965 C   0  0  0  0  0  0  0  0  0  0  0  0
  -23.5214  -27.9101   23.5842 C   0  0  0  0  0  0  0  0  0  0  0  0
  -16.6941  -26.6885   23.4211 C   0  0  0  0  0  0  0  0  0  0  0  0
  -29.6135  -12.3299   18.3916 C   0  0  0  0  0  0  0  0  0  0  0  0
  -17.8916  -25.8433   22.9984 C   0  0  0  0  0  0  0  0  0  0  0  0
  -28.1642  -12.0547   18.7991 C   0  0  0  0  0  0  0  0  0  0  0  0
  -30.5063  -12.5798   19.6057 C   0  0  0  0  0  0  0  0  0  0  0  0
  -28.5769  -13.3430   20.9338 C   0  0  0  0  0  0  0  0  0  0  0  0
  -18.6740  -25.3455   24.2197 C   0  0  1  0  0  0  0  0  0  0  0  0
  -21.4320  -27.8447   24.9817 C   0  0  1  0  0  0  0  0  0  0  0  0
  -27.6261  -13.1495   19.7412 C   0  0  2  0  0  0  0  0  0  0  0  0
  -32.5005  -19.3650   25.1520 C   0  0  0  0  0  0  0  0  0  0  0  0
  -24.7672  -34.1539   21.9694 C   0  0  0  0  0  0  0  0  0  0  0  0
  -21.2495  -28.7504   20.4532 C   0  0  0  0  0  0  0  0  0  0  0  0
  -22.6083  -30.7096   19.6895 C   0  0  0  0  0  0  0  0  0  0  0  0
  -20.4882  -31.0800   20.9508 C   0  0  0  0  0  0  0  0  0  0  0  0
  -25.4918  -32.6045   25.3680 C   0  0  0  0  0  0  0  0  0  0  0  0
  -28.3068  -22.8063   24.5428 C   0  0  0  0  0  0  0  0  0  0  0  0
  -28.5889  -21.4203   25.1121 C   0  0  0  0  0  0  0  0  0  0  0  0
  -27.4054  -23.6187   25.4632 C   0  0  0  0  0  0  0  0  0  1  0  0
  -29.4545  -20.5923   24.1728 C   0  0  0  0  0  0  0  0  0  0  0  0
  -22.5193  -30.1994   22.1720 C   0  0  1  0  0  0  0  0  0  0  0  0
  -24.4913  -33.2758   23.1801 C   0  0  2  0  0  0  0  0  0  0  0  0
  -21.7273  -30.1658   20.8344 C   0  0  0  0  0  0  0  0  0  0  0  0
  -25.8193  -11.5800   20.3357 N   0  0  0  0  0  0  0  0  0  0  0  0
  -26.2055  -12.8587   20.1875 N   0  0  0  0  0  0  0  0  0  0  0  0
  -22.2529  -28.5392   23.9876 N   0  0  0  0  0  0  0  0  0  0  0  0
  -29.9360  -13.6319   20.4500 N   0  0  0  0  0  0  0  0  0  0  0  0
  -25.4463  -15.0947   20.3732 N   0  0  0  0  0  0  0  0  0  0  0  0
  -21.8257  -12.6642   21.5478 N   0  0  0  0  0  0  0  0  0  0  0  0
  -30.0365  -15.7337   21.5152 N   0  0  0  0  0  0  0  0  0  0  0  0
  -19.4988  -26.4058   24.7582 N   0  0  0  0  0  0  0  0  0  0  0  0
  -22.9608  -31.5312   22.5717 N   0  0  0  0  0  0  0  0  0  0  0  0
  -25.6402  -33.3986   24.1213 N   0  3  0  0  0  0  0  0  0  0  0  0
  -22.6181  -14.7937   21.2377 O   0  0  0  0  0  0  0  0  0  0  0  0
  -21.3369  -26.1368   23.3540 O   0  0  0  0  0  0  0  0  0  0  0  0
  -20.6582  -30.2047   23.6426 O   0  0  0  0  0  0  0  0  0  0  0  0
  -25.2245  -31.0349   22.6527 O   0  0  0  0  0  0  0  0  0  0  0  0
  -31.8335  -14.9413   20.2804 O   0  0  0  0  0  0  0  0  0  0  0  0
  -21.5206   -7.1060   21.7687 O   0  0  0  0  0  0  0  0  0  0  0  0
  -27.1512  -24.8986   24.8856 O   0  0  0  0  0  0  0  0  0  1  0  0
  -29.6921  -19.3230   24.7657 O   0  0  0  0  0  0  0  0  0  0  0  0
  -23.8749   -3.1019   24.7399 F   0  0  0  0  0  0  0  0  0  0  0  0
  -20.4234   -6.2910   24.1717 F   0  0  0  0  0  0  0  0  0  0  0  0
  1  2  1  0  0  0  0
  1  5  2  0  0  0  0
  2  6  2  0  0  0  0
  3 10  2  0  0  0  0
  3 17  1  0  0  0  0
  4 11  1  0  0  0  0
  4 17  2  0  0  0  0
  5 20  1  0  0  0  0
  6 22  1  0  0  0  0
  7 12  2  0  0  0  0
  7 21  1  0  0  0  0
  8  9  1  0  0  0  0
  8 24  2  0  0  0  0
  9 25  2  0  0  0  0
 10 26  1  0  0  0  0
 11 26  2  0  0  0  0
 12 27  1  0  0  0  0
 13 14  2  0  0  0  0
 13 28  1  0  0  0  0
 14 30  1  0  0  0  0
 15 23  1  0  0  0  0
 15 27  2  0  0  0  0
 16 30  2  0  0  0  0
 16 31  1  0  0  0  0
 17 32  1  0  0  0  0
 18 25  1  0  0  0  0
 18 29  2  0  0  0  0
 18 35  1  0  0  0  0
 19 32  1  0  0  0  0
 19 33  2  0  0  0  0
 19 36  1  0  0  0  0
 20 22  2  0  0  0  0
 20 41  1  0  0  0  0
 21 23  2  0  0  0  0
 21 42  1  0  0  0  0
 22 50  1  0  0  0  0
 23 43  1  0  0  0  0
 24 29  1  0  0  0  0
 24 53  1  0  0  0  0
 25 72  1  0  0  0  0
 26 81  1  0  0  0  0
 27 82  1  0  0  0  0
 28 31  2  0  0  0  0
 28 81  1  0  0  0  0
 29 83  1  0  0  0  0
 30 84  1  0  0  0  0
 31 85  1  0  0  0  0
 32 66  2  0  0  0  0
 33 67  1  0  0  0  0
 33 70  1  0  0  0  0
 34 35  2  0  0  0  0
 36 71  1  0  0  0  0
 36 76  2  0  0  0  0
 37 51  1  0  0  0  0
 37 73  1  0  0  0  0
 37 77  2  0  0  0  0
 38 63  1  0  0  0  0
 38 68  1  0  0  0  0
 38 78  2  0  0  0  0
 39 64  1  0  0  0  0
 39 74  1  0  0  0  0
 39 79  2  0  0  0  0
 40 69  1  0  0  0  0
 40 72  1  0  0  0  0
 40 80  2  0  0  0  0
 41 44  1  0  0  0  0
 42 51  1  0  0  0  0
 43 68  1  0  0  0  0
 44 46  1  0  0  0  0
 45 47  1  0  0  0  0
 45 48  1  0  0  0  0
 46 50  1  0  0  0  0
 47 52  1  0  0  0  0
 48 69  1  0  0  0  0
 49 52  1  0  0  0  0
 49 69  1  0  0  0  0
 50 73  1  0  0  0  0
 51 68  1  0  0  0  0
 52 67  1  0  0  0  0
 54 64  1  0  0  0  0
 55 65  1  0  0  0  0
 56 65  1  0  0  0  0
 57 65  1  0  0  0  0
 58 75  1  0  0  0  0
 59 60  1  0  0  0  0
 59 61  1  0  0  0  0
 60 62  1  0  0  0  0
 61 82  1  0  0  0  0
 62 83  1  0  0  0  0
 63 65  1  0  0  0  0
 63 74  1  0  0  0  0
 64 75  1  0  0  0  0
 66 67  1  0  0  0  0
M  CHG  1  75   1
M  ISO  4  40 100  61 101  72 100  82 101
M  END
> <Batch ID>
0119

> <Smiles>
C=Cc1c([100NH:0][100C:0](=O)N2CCCC(n3nc(-c4ccc(Oc5ccc(F)cc5F)cc4)c(C(N)=O)c3N)C2)ccc(C)c1OCCC[101CH2:1][101O:1]c1ccc2c(c1)CN(C(=O)C(NC(=O)C(C)NC)C(C)(C)C)C(C(=O)NC1CCCc3ccccc31)C2

> <Shape>
0.275

> <Color>
0.217

> <Negative vol penalty>
0.000

$$$$

  -OEChem-04052301513D

 86 95  0     1  0  0  0  0  0999 V2000
  -15.8667  -26.8293   22.9270 C   0  0  0  0  0  0  0  0  0  0  0  0
  -16.3731  -25.5502   22.7198 C   0  0  0  0  0  0  0  0  0  0  0  0
  -29.6892  -22.7510   18.1517 C   0  0  0  0  0  0  0  0  0  0  0  0
  -29.2323  -23.3888   20.4368 C   0  0  0  0  0  0  0  0  0  0  0  0
  -16.7293  -27.9245   22.9473 C   0  0  0  0  0  0  0  0  0  0  0  0
  -17.7424  -25.3658   22.5316 C   0  0  0  0  0  0  0  0  0  0  0  0
  -21.1042  -20.5958   24.3894 C   0  0  0  0  0  0  0  0  0  0  0  0
  -26.1945  -11.4027   20.5052 C   0  0  0  0  0  0  0  0  0  0  0  0
  -24.8689  -11.1386   20.8496 C   0  0  0  0  0  0  0  0  0  0  0  0
  -30.3252  -23.9738   17.9376 C   0  0  0  0  0  0  0  0  0  0  0  0
  -29.8683  -24.6116   20.2227 C   0  0  0  0  0  0  0  0  0  0  0  0
  -21.5594  -19.4552   23.7293 C   0  0  0  0  0  0  0  0  0  0  0  0
  -29.1395  -27.5792   18.7759 C   0  0  0  0  0  0  0  0  0  0  0  0
  -28.5094  -28.7294   19.2510 C   0  0  0  0  0  0  0  0  0  0  0  0
  -23.6695  -20.5469   23.3110 C   0  0  0  0  0  0  0  0  0  0  0  0
  -25.6585  -13.7432   20.2372 C   0  0  0  0  0  0  0  0  0  0  0  0
  -30.4225  -29.1995   20.6497 C   0  0  0  0  0  0  0  0  0  0  0  0
  -29.1427  -22.4585   19.4013 C   0  0  0  0  0  0  0  0  0  0  0  0
  -27.3580  -20.6938   18.9452 C   0  0  0  0  0  0  0  0  0  0  0  0
  -18.1110  -27.7523   22.7689 C   0  0  0  0  0  0  0  0  0  0  0  0
  -21.9257  -21.7263   24.5059 C   0  0  0  0  0  0  0  0  0  0  0  0
  -18.6241  -26.4598   22.5481 C   0  0  0  0  0  0  0  0  0  0  0  0
  -23.2233  -21.6996   23.9753 C   0  0  0  0  0  0  0  0  0  0  0  0
  -26.5893  -12.7051   20.1991 C   0  0  0  0  0  0  0  0  0  0  0  0
  -23.9381  -12.1767   20.8878 C   0  0  0  0  0  0  0  0  0  0  0  0
  -24.3328  -13.4791   20.5816 C   0  0  0  0  0  0  0  0  0  0  0  0
  -30.4148  -24.9041   18.9730 C   0  0  0  0  0  0  0  0  0  0  0  0
  -22.8412  -19.4317   23.1874 C   0  0  0  0  0  0  0  0  0  0  0  0
  -30.4110  -27.2391   19.2377 C   0  0  0  0  0  0  0  0  0  0  0  0
  -29.1509  -29.5395   20.1879 C   0  0  0  0  0  0  0  0  0  0  0  0
  -31.0525  -28.0493   20.1746 C   0  0  0  0  0  0  0  0  0  0  0  0
  -28.4851  -21.1958   19.6230 C   0  0  0  0  0  0  0  0  0  0  0  0
  -27.1283  -19.4684   19.5216 C   0  0  0  0  0  0  0  0  0  0  0  0
  -22.5266  -16.6097   21.0741 C   0  0  0  0  0  0  0  0  0  0  0  0
  -22.5980  -17.8940   21.4419 C   0  0  0  0  0  0  0  0  0  1  0  0
  -26.5876  -21.2824   17.8890 C   0  0  0  0  0  0  0  0  0  0  0  0
  -21.7498  -24.7392   23.5085 C   0  0  0  0  0  0  0  0  0  0  0  0
  -24.4353  -25.0781   25.2962 C   0  0  0  0  0  0  0  0  0  0  0  0
  -27.1680  -23.6164   26.7254 C   0  0  0  0  0  0  0  0  0  0  0  0
  -28.9884  -14.5780   21.4631 C   0  0  0  0  0  0  0  0  0  0  0  0
  -18.9983  -28.9717   22.7517 C   0  0  0  0  0  0  0  0  0  0  0  0
  -21.4294  -22.9391   25.2443 C   0  0  0  0  0  0  0  0  0  0  0  0
  -24.1518  -22.8798   24.0911 C   0  0  0  0  0  0  0  0  0  0  0  0
  -21.7882  -16.1000   19.8777 C   0  0  0  0  0  0  0  0  0  0  0  0
  -20.4809  -28.6485   22.9177 C   0  0  0  0  0  0  0  0  0  0  0  0
  -29.0990  -17.3637   23.6777 C   0  0  0  0  0  0  0  0  0  0  0  0
  -20.8802  -27.4912   22.0077 C   0  0  0  0  0  0  0  0  0  0  0  0
  -28.8625  -18.5672   22.7636 C   0  0  0  0  0  0  0  0  0  0  0  0
  -22.6365  -14.9108   19.4382 C   0  0  0  0  0  0  0  0  0  0  0  0
  -29.9332  -16.2865   22.9879 C   0  0  0  0  0  0  0  0  0  0  0  0
  -29.1747  -17.0437   20.7686 C   0  0  0  0  0  0  0  0  0  0  0  0
  -20.1064  -26.2164   22.3648 C   0  0  1  0  0  0  0  0  0  0  0  0
  -23.2785  -15.4746   21.7206 C   0  0  1  0  0  0  0  0  0  0  0  0
  -22.1648  -24.2179   24.8552 C   0  0  1  0  0  0  0  0  0  0  0  0
  -28.2909  -18.1325   21.4007 C   0  0  2  0  0  0  0  0  0  0  0  0
  -22.5245  -11.8648   21.2581 C   0  0  0  0  0  0  0  0  0  0  0  0
  -22.4579  -14.8690   22.8582 C   0  0  0  0  0  0  0  0  0  0  0  0
  -29.2016  -24.1562   28.0930 C   0  0  0  0  0  0  0  0  0  0  0  0
  -25.7809  -26.2582   22.8251 C   0  0  0  0  0  0  0  0  0  0  0  0
  -27.9925  -25.8909   23.9396 C   0  0  0  0  0  0  0  0  0  0  0  0
  -26.3205  -27.4309   24.9670 C   0  0  0  0  0  0  0  0  0  0  0  0
  -26.2937  -21.8514   28.9343 C   0  0  0  0  0  0  0  0  0  0  0  0
  -28.0066  -12.9870   19.8310 C   0  0  0  0  0  0  0  0  0  0  0  0
  -25.9160  -24.9363   25.0387 C   0  0  1  0  0  0  0  0  0  0  0  0
  -27.7466  -23.7151   28.1254 C   0  0  2  0  0  0  0  0  0  0  0  0
  -26.4845  -26.1074   24.1886 C   0  0  0  0  0  0  0  0  0  0  0  0
  -28.9397  -20.3579   20.5586 N   0  0  0  0  0  0  0  0  0  0  0  0
  -28.0940  -19.3170   20.4728 N   0  0  0  0  0  0  0  0  0  0  0  0
  -23.4218  -14.5213   20.6128 N   0  0  3  0  0  0  0  0  0  0  0  0
  -23.6183  -24.0445   24.8166 N   0  0  0  0  0  0  0  0  0  0  0  0
  -29.3362  -15.9178   21.7020 N   0  0  0  0  0  0  0  0  0  0  0  0
  -26.1966  -18.5164   19.3025 N   0  0  0  0  0  0  0  0  0  0  0  0
  -25.4915  -22.0867   18.2297 N   0  0  0  0  0  0  0  0  0  0  0  0
  -20.6683  -25.5985   23.5467 N   0  0  0  0  0  0  0  0  0  0  0  0
  -26.5453  -24.7868   26.3464 N   0  0  0  0  0  0  0  0  0  0  0  0
  -28.4224  -14.3157   20.2215 N   0  0  0  0  0  0  0  0  0  0  0  0
  -27.6711  -22.3942   28.8114 N   0  3  0  0  0  0  0  0  0  0  0  0
  -26.8531  -21.0872   16.6786 O   0  0  0  0  0  0  0  0  0  0  0  0
  -22.3662  -24.3891   22.5089 O   0  0  0  0  0  0  0  0  0  0  0  0
  -24.0196  -26.0660   25.9069 O   0  0  0  0  0  0  0  0  0  0  0  0
  -27.2624  -22.6037   26.0354 O   0  0  0  0  0  0  0  0  0  0  0  0
  -29.1641  -13.6829   22.2967 O   0  0  0  0  0  0  0  0  0  0  0  0
  -31.0355  -26.0973   18.7645 O   0  0  0  0  0  0  0  0  0  0  0  0
  -23.2878  -18.3200   22.5421 O   0  0  0  0  0  0  0  0  0  1  0  0
  -28.5464  -30.6448   20.6429 F   0  0  0  0  0  0  0  0  0  0  0  0
  -32.2746  -27.7283   20.6212 F   0  0  0  0  0  0  0  0  0  0  0  0
  1  2  1  0  0  0  0
  1  5  2  0  0  0  0
  2  6  2  0  0  0  0
  3 10  2  0  0  0  0
  3 18  1  0  0  0  0
  4 11  1  0  0  0  0
  4 18  2  0  0  0  0
  5 20  1  0  0  0  0
  6 22  1  0  0  0  0
  7 12  2  0  0  0  0
  7 21  1  0  0  0  0
  8  9  2  0  0  0  0
  8 24  1  0  0  0  0
  9 25  1  0  0  0  0
 10 27  1  0  0  0  0
 11 27  2  0  0  0  0
 12 28  1  0  0  0  0
 13 14  2  0  0  0  0
 13 29  1  0  0  0  0
 14 30  1  0  0  0  0
 15 23  1  0  0  0  0
 15 28  2  0  0  0  0
 16 24  2  0  0  0  0
 16 26  1  0  0  0  0
 17 30  2  0  0  0  0
 17 31  1  0  0  0  0
 18 32  1  0  0  0  0
 19 32  1  0  0  0  0
 19 33  2  0  0  0  0
 19 36  1  0  0  0  0
 20 22  2  0  0  0  0
 20 41  1  0  0  0  0
 21 23  2  0  0  0  0
 21 42  1  0  0  0  0
 22 52  1  0  0  0  0
 23 43  1  0  0  0  0
 24 63  1  0  0  0  0
 25 26  2  0  0  0  0
 25 56  1  0  0  0  0
 26 69  1  0  0  0  0
 27 83  1  0  0  0  0
 28 84  1  0  0  0  0
 29 31  2  0  0  0  0
 29 83  1  0  0  0  0
 30 85  1  0  0  0  0
 31 86  1  0  0  0  0
 32 67  2  0  0  0  0
 33 68  1  0  0  0  0
 33 72  1  0  0  0  0
 34 35  2  0  0  0  0
 34 44  1  0  0  0  0
 34 53  1  0  0  0  0
 35 84  1  0  0  0  0
 36 73  1  0  0  0  0
 36 78  2  0  0  0  0
 37 54  1  0  0  0  0
 37 74  1  0  0  0  0
 37 79  2  0  0  0  0
 38 64  1  0  0  0  0
 38 70  1  0  0  0  0
 38 80  2  0  0  0  0
 39 65  1  0  0  0  0
 39 75  1  0  0  0  0
 39 81  2  0  0  0  0
 40 71  1  0  0  0  0
 40 76  1  0  0  0  0
 40 82  2  0  0  0  0
 41 45  1  0  0  0  0
 42 54  1  0  0  0  0
 43 70  1  0  0  0  0
 44 49  1  0  0  0  0
 45 47  1  0  0  0  0
 46 48  1  0  0  0  0
 46 50  1  0  0  0  0
 47 52  1  0  0  0  0
 48 55  1  0  0  0  0
 49 69  1  0  0  0  0
 50 71  1  0  0  0  0
 51 55  1  0  0  0  0
 51 71  1  0  0  0  0
 52 74  1  0  0  0  0
 53 57  1  0  0  0  0
 53 69  1  0  0  0  0
 54 70  1  0  0  0  0
 55 68  1  0  0  0  0
 58 65  1  0  0  0  0
 59 66  1  0  0  0  0
 60 66  1  0  0  0  0
 61 66  1  0  0  0  0
 62 77  1  0  0  0  0
 63 76  1  0  0  0  0
 64 66  1  0  0  0  0
 64 75  1  0  0  0  0
 65 77  1  0  0  0  0
 67 68  1  0  0  0  0
M  CHG  1  77   1
M  ISO  4  35 101  40 100  76 100  84 101
M  END
> <Batch ID>
0119

> <Smiles>
CNC(C)C(=O)NC(C(=O)N1Cc2cc([101O:1][101CH:1]=C3CCN(c4cc(C[100NH:0][100C:0](=O)N5CCCC(n6nc(-c7ccc(Oc8ccc(F)cc8F)cc7)c(C(N)=O)c6N)C5)ccc4C)C3C)ccc2CC1C(=O)NC1CCCc2ccccc21)C(C)(C)C

> <Shape>
0.227

> <Color>
0.054

> <Negative vol penalty>
0.000

$$$$

  -OEChem-04052301513D

 85 93  0     1  0  0  0  0  0999 V2000
  -31.7749  -33.7068   19.3022 C   0  0  0  0  0  0  0  0  0  0  0  0
  -32.1433  -32.3655   19.3286 C   0  0  0  0  0  0  0  0  0  0  0  0
  -23.0003   -9.8940   19.9808 C   0  0  0  0  0  0  0  0  0  0  0  0
  -23.7255   -9.9443   22.2848 C   0  0  0  0  0  0  0  0  0  0  0  0
  -30.7986  -34.1428   18.4075 C   0  0  0  0  0  0  0  0  0  0  0  0
  -31.5346  -31.4592   18.4611 C   0  0  0  0  0  0  0  0  0  0  0  0
  -34.1331  -26.5895   15.8078 C   0  0  0  0  0  0  0  0  0  0  0  0
  -22.2336   -8.7596   20.2468 C   0  0  0  0  0  0  0  0  0  0  0  0
  -22.9587   -8.8099   22.5509 C   0  0  0  0  0  0  0  0  0  0  0  0
  -34.1258  -25.2323   16.1266 C   0  0  0  0  0  0  0  0  0  0  0  0
  -23.2026   -5.4710   22.0781 C   0  0  0  0  0  0  0  0  0  0  0  0
  -23.7900   -4.4536   22.8300 C   0  0  0  0  0  0  0  0  0  0  0  0
  -30.7040  -18.6755   23.5336 C   0  0  0  0  0  0  0  0  0  0  0  0
  -32.3132  -24.8835   14.5734 C   0  0  0  0  0  0  0  0  0  0  0  0
  -31.5322  -17.5460   21.1209 C   0  0  0  0  0  0  0  0  0  0  0  0
  -22.0661   -4.6963   24.5052 C   0  0  0  0  0  0  0  0  0  0  0  0
  -23.7463  -10.4864   20.9998 C   0  0  0  0  0  0  0  0  0  0  0  0
  -31.6407  -19.3367   22.7392 C   0  0  0  0  0  0  0  0  0  0  0  0
  -24.1319  -13.0020   20.8244 C   0  0  0  0  0  0  0  0  0  0  0  0
  -30.1846  -33.2432   17.5218 C   0  0  0  0  0  0  0  0  0  0  0  0
  -33.2218  -27.1068   14.8759 C   0  0  0  0  0  0  0  0  0  0  0  0
  -30.5482  -31.8834   17.5546 C   0  0  0  0  0  0  0  0  0  0  0  0
  -32.3128  -26.2473   14.2427 C   0  0  0  0  0  0  0  0  0  0  0  0
  -30.1814  -17.4496   23.1216 C   0  0  0  0  0  0  0  0  0  0  0  0
  -30.5955  -16.8849   21.9153 C   0  0  0  0  0  0  0  0  0  0  0  0
  -22.2128   -8.2175   21.5318 C   0  0  0  0  0  0  0  0  0  0  0  0
  -33.2138  -24.3796   15.5115 C   0  0  0  0  0  0  0  0  0  0  0  0
  -22.0470   -6.1012   22.5398 C   0  0  0  0  0  0  0  0  0  0  0  0
  -32.0548  -18.7720   21.5329 C   0  0  0  0  0  0  0  0  0  0  0  0
  -23.2218   -4.0662   24.0435 C   0  0  0  0  0  0  0  0  0  0  0  0
  -21.4787   -5.7138   23.7534 C   0  0  0  0  0  0  0  0  0  0  0  0
  -24.5389  -11.6580   20.7255 C   0  0  0  0  0  0  0  0  0  0  0  0
  -25.2418  -13.7245   20.4602 C   0  0  0  0  0  0  0  0  0  0  0  0
  -31.4205  -21.6735   23.4506 C   0  0  0  0  0  0  0  0  0  0  0  0
  -32.1735  -20.6147   23.1914 C   0  0  0  0  0  0  0  0  0  0  0  0
  -22.8640  -13.5485   21.2111 C   0  0  0  0  0  0  0  0  0  0  0  0
  -30.8773  -29.2505   14.9832 C   0  0  0  0  0  0  0  0  0  0  0  0
  -30.8012  -28.7518   11.7788 C   0  0  0  0  0  0  0  0  0  0  0  0
  -31.4793  -26.6813    9.1520 C   0  0  0  0  0  0  0  0  0  0  0  0
  -30.7214  -14.6848   20.6946 C   0  0  0  0  0  0  0  0  0  0  0  0
  -29.1005  -33.7526   16.6053 C   0  0  0  0  0  0  0  0  0  0  0  0
  -33.2604  -28.5685   14.5232 C   0  0  0  0  0  0  0  0  0  0  0  0
  -31.3272  -26.7492   13.2204 C   0  0  0  0  0  0  0  0  0  0  0  0
  -28.7719  -32.7975   15.4608 C   0  0  0  0  0  0  0  0  0  0  0  0
  -29.6028  -12.2327   18.3680 C   0  0  0  0  0  0  0  0  0  0  0  0
  -28.6221  -31.3716   15.9817 C   0  0  0  0  0  0  0  0  0  0  0  0
  -28.1522  -11.9751   18.7820 C   0  0  0  0  0  0  0  0  0  0  0  0
  -30.5034  -12.4756   19.5778 C   0  0  0  0  0  0  0  0  0  0  0  0
  -28.5881  -13.2644   20.9115 C   0  0  0  0  0  0  0  0  0  0  0  0
  -29.9286  -30.8745   16.6121 C   0  0  1  0  0  0  0  0  0  0  0  0
  -31.9455  -29.0775   13.9407 C   0  0  1  0  0  0  0  0  0  0  0  0
  -27.6304  -13.0785   19.7233 C   0  0  2  0  0  0  0  0  0  0  0  0
  -29.1784  -16.7639   23.9919 C   0  0  0  0  0  0  0  0  0  0  0  0
  -31.2700  -26.5328    6.6557 C   0  0  0  0  0  0  0  0  0  0  0  0
  -27.8190  -28.1739   12.0657 C   0  0  0  0  0  0  0  0  0  0  0  0
  -27.8732  -27.1308    9.7904 C   0  0  0  0  0  0  0  0  0  0  0  0
  -28.4278  -29.5472   10.0663 C   0  0  0  0  0  0  0  0  0  0  0  0
  -34.4104  -26.4677    8.8027 C   0  0  0  0  0  0  0  0  0  0  0  0
  -32.9061  -21.4104   17.5645 C   0  0  0  0  0  0  0  0  0  0  0  0
  -33.2951  -20.9967   18.9795 C   0  0  0  0  0  0  0  0  0  0  0  0
  -33.6096  -22.6930   17.1408 C   0  0  0  0  0  0  0  0  0  1  0  0
  -32.5600  -19.7386   19.4195 C   0  0  0  0  0  0  0  0  0  0  0  0
  -30.0722  -27.7994   10.8621 C   0  0  1  0  0  0  0  0  0  0  0  0
  -32.1620  -26.9345    7.8200 C   0  0  2  0  0  0  0  0  0  0  0  0
  -28.5652  -28.1534   10.7168 C   0  0  0  0  0  0  0  0  0  0  0  0
  -25.8082  -11.5314   20.3293 N   0  0  0  0  0  0  0  0  0  0  0  0
  -26.2083  -12.8052   20.1760 N   0  0  0  0  0  0  0  0  0  0  0  0
  -31.4000  -28.1873   12.9140 N   0  0  0  0  0  0  0  0  0  0  0  0
  -29.9485  -13.5365   20.4214 N   0  0  0  0  0  0  0  0  0  0  0  0
  -25.4755  -15.0502   20.3585 N   0  0  0  0  0  0  0  0  0  0  0  0
  -21.8321  -12.6644   21.5543 N   0  0  0  0  0  0  0  0  0  0  0  0
  -30.0772  -15.6399   21.4804 N   0  0  0  0  0  0  0  0  0  0  0  0
  -30.8736  -30.4949   15.5838 N   0  0  0  0  0  0  0  0  0  0  0  0
  -30.8100  -27.7991    9.6035 N   0  0  0  0  0  0  0  0  0  0  0  0
  -33.4296  -26.1558    7.7314 N   0  3  0  0  0  0  0  0  0  0  0  0
  -22.6475  -14.7838   21.2351 O   0  0  0  0  0  0  0  0  0  0  0  0
  -30.1121  -28.3240   15.2236 O   0  0  0  0  0  0  0  0  0  0  0  0
  -30.8441  -29.9513   11.4943 O   0  0  0  0  0  0  0  0  0  0  0  0
  -31.5313  -25.5990    9.7321 O   0  0  0  0  0  0  0  0  0  0  0  0
  -31.8601  -14.8237   20.2406 O   0  0  0  0  0  0  0  0  0  0  0  0
  -21.4646   -7.1107   21.7919 O   0  0  0  0  0  0  0  0  0  0  0  0
  -33.2040  -23.0545   15.8213 O   0  0  0  0  0  0  0  0  0  1  0  0
  -32.9762  -19.3993   20.7351 O   0  0  0  0  0  0  0  0  0  0  0  0
  -23.7851   -3.0880   24.7647 F   0  0  0  0  0  0  0  0  0  0  0  0
  -20.3679   -6.3147   24.2015 F   0  0  0  0  0  0  0  0  0  0  0  0
  1  2  1  0  0  0  0
  1  5  2  0  0  0  0
  2  6  2  0  0  0  0
  3  8  2  0  0  0  0
  3 17  1  0  0  0  0
  4  9  1  0  0  0  0
  4 17  2  0  0  0  0
  5 20  1  0  0  0  0
  6 22  1  0  0  0  0
  7 10  2  0  0  0  0
  7 21  1  0  0  0  0
  8 26  1  0  0  0  0
  9 26  2  0  0  0  0
 10 27  1  0  0  0  0
 11 12  2  0  0  0  0
 11 28  1  0  0  0  0
 12 30  1  0  0  0  0
 13 18  1  0  0  0  0
 13 24  2  0  0  0  0
 14 23  1  0  0  0  0
 14 27  2  0  0  0  0
 15 25  2  0  0  0  0
 15 29  1  0  0  0  0
 16 30  2  0  0  0  0
 16 31  1  0  0  0  0
 17 32  1  0  0  0  0
 18 29  2  0  0  0  0
 18 35  1  0  0  0  0
 19 32  1  0  0  0  0
 19 33  2  0  0  0  0
 19 36  1  0  0  0  0
 20 22  2  0  0  0  0
 20 41  1  0  0  0  0
 21 23  2  0  0  0  0
 21 42  1  0  0  0  0
 22 50  1  0  0  0  0
 23 43  1  0  0  0  0
 24 25  1  0  0  0  0
 24 53  1  0  0  0  0
 25 72  1  0  0  0  0
 26 81  1  0  0  0  0
 27 82  1  0  0  0  0
 28 31  2  0  0  0  0
 28 81  1  0  0  0  0
 29 83  1  0  0  0  0
 30 84  1  0  0  0  0
 31 85  1  0  0  0  0
 32 66  2  0  0  0  0
 33 67  1  0  0  0  0
 33 70  1  0  0  0  0
 34 35  2  0  0  0  0
 36 71  1  0  0  0  0
 36 76  2  0  0  0  0
 37 51  1  0  0  0  0
 37 73  1  0  0  0  0
 37 77  2  0  0  0  0
 38 63  1  0  0  0  0
 38 68  1  0  0  0  0
 38 78  2  0  0  0  0
 39 64  1  0  0  0  0
 39 74  1  0  0  0  0
 39 79  2  0  0  0  0
 40 69  1  0  0  0  0
 40 72  1  0  0  0  0
 40 80  2  0  0  0  0
 41 44  1  0  0  0  0
 42 51  1  0  0  0  0
 43 68  1  0  0  0  0
 44 46  1  0  0  0  0
 45 47  1  0  0  0  0
 45 48  1  0  0  0  0
 46 50  1  0  0  0  0
 47 52  1  0  0  0  0
 48 69  1  0  0  0  0
 49 52  1  0  0  0  0
 49 69  1  0  0  0  0
 50 73  1  0  0  0  0
 51 68  1  0  0  0  0
 52 67  1  0  0  0  0
 54 64  1  0  0  0  0
 55 65  1  0  0  0  0
 56 65  1  0  0  0  0
 57 65  1  0  0  0  0
 58 75  1  0  0  0  0
 59 60  1  0  0  0  0
 59 61  1  0  0  0  0
 60 62  1  0  0  0  0
 61 82  1  0  0  0  0
 62 83  1  0  0  0  0
 63 65  1  0  0  0  0
 63 74  1  0  0  0  0
 64 75  1  0  0  0  0
 66 67  1  0  0  0  0
M  CHG  1  75   1
M  ISO  4  40 100  61 101  72 100  82 101
M  END
> <Batch ID>
0119

> <Smiles>
C=Cc1cc(C)c([100NH:0][100C:0](=O)N2CCCC(n3nc(-c4ccc(Oc5ccc(F)cc5F)cc4)c(C(N)=O)c3N)C2)cc1OCCC[101CH2:1][101O:1]c1ccc2c(c1)CN(C(=O)C(NC(=O)C(C)NC)C(C)(C)C)C(C(=O)NC1CCCc3ccccc31)C2

> <Shape>
0.175

> <Color>
0.198

> <Negative vol penalty>
0.000

$$$$

  -OEChem-04052301513D

 86 94  0     1  0  0  0  0  0999 V2000
  -25.4560  -12.5220   18.8660 C   0  0  0  0  0  0  0  0  0  0  0  0
  -25.4132  -13.9125   18.8742 C   0  0  0  0  0  0  0  0  0  0  0  0
  -25.0758  -24.4497   16.6639 C   0  0  0  0  0  0  0  0  0  0  0  0
  -26.2923  -26.1318   15.4278 C   0  0  0  0  0  0  0  0  0  0  0  0
  -26.6348  -11.8600   19.2068 C   0  0  0  0  0  0  0  0  0  0  0  0
  -26.5490  -14.6419   19.2242 C   0  0  0  0  0  0  0  0  0  0  0  0
  -28.3046  -20.0445   16.9362 C   0  0  0  0  0  0  0  0  0  0  0  0
  -24.5529  -25.6235   24.4827 C   0  0  0  0  0  0  0  0  0  0  0  0
  -23.5075  -26.5193   24.2586 C   0  0  0  0  0  0  0  0  0  0  0  0
  -24.6646  -23.8664   15.4655 C   0  0  0  0  0  0  0  0  0  0  0  0
  -25.8811  -25.5484   14.2294 C   0  0  0  0  0  0  0  0  0  0  0  0
  -28.1654  -21.3508   17.4031 C   0  0  0  0  0  0  0  0  0  0  0  0
  -24.8576  -24.7157   10.8428 C   0  0  0  0  0  0  0  0  0  0  0  0
  -24.3988  -25.5622    9.8336 C   0  0  0  0  0  0  0  0  0  0  0  0
  -30.3790  -21.2400   18.3554 C   0  0  0  0  0  0  0  0  0  0  0  0
  -22.6431  -26.3513   11.2937 C   0  0  0  0  0  0  0  0  0  0  0  0
  -25.8896  -25.5825   16.6451 C   0  0  0  0  0  0  0  0  0  0  0  0
  -24.5293  -27.1904   22.1747 C   0  0  0  0  0  0  0  0  0  0  0  0
  -27.4762  -25.8872   18.6193 C   0  0  0  0  0  0  0  0  0  0  0  0
  -27.7884  -12.5818   19.5518 C   0  0  0  0  0  0  0  0  0  0  0  0
  -29.4799  -19.3211   17.1852 C   0  0  0  0  0  0  0  0  0  0  0  0
  -27.7439  -13.9889   19.5712 C   0  0  0  0  0  0  0  0  0  0  0  0
  -30.5317  -19.9256   17.8883 C   0  0  0  0  0  0  0  0  0  0  0  0
  -25.5865  -25.5111   23.5527 C   0  0  0  0  0  0  0  0  0  0  0  0
  -23.4957  -27.3028   23.1047 C   0  0  0  0  0  0  0  0  0  0  0  0
  -25.0673  -24.4157   14.2482 C   0  0  0  0  0  0  0  0  0  0  0  0
  -29.2015  -21.9477   18.1153 C   0  0  0  0  0  0  0  0  0  0  0  0
  -24.2092  -24.6869   12.0774 C   0  0  0  0  0  0  0  0  0  0  0  0
  -25.5747  -26.2946   22.3988 C   0  0  0  0  0  0  0  0  0  0  0  0
  -23.2916  -26.3800   10.0590 C   0  0  0  0  0  0  0  0  0  0  0  0
  -23.1019  -25.5048   12.3029 C   0  0  0  0  0  0  0  0  0  0  0  0
  -26.3143  -26.1859   17.8827 C   0  0  0  0  0  0  0  0  0  0  0  0
  -27.4198  -26.7269   19.7048 C   0  0  0  0  0  0  0  0  0  0  0  0
  -23.9347  -27.6406   19.8382 C   0  0  0  0  0  0  0  0  0  0  0  0
  -24.5263  -28.0065   20.9629 C   0  0  0  0  0  0  0  0  0  0  0  0
  -28.5137  -24.9360   18.3467 C   0  0  0  0  0  0  0  0  0  0  0  0
  -30.1777  -16.6466   18.7547 C   0  0  0  0  0  0  0  0  0  0  0  0
  -27.7849  -24.6870   20.0115 C   0  0  0  0  0  0  0  0  0  0  0  0
  -33.1293  -17.1446   17.5049 C   0  0  0  0  0  0  0  0  0  0  0  0
  -35.4017  -19.3489   16.2306 C   0  0  0  0  0  0  0  0  0  0  0  0
  -22.5246  -29.4295   22.1962 C   0  0  0  0  0  0  0  0  0  0  0  0
  -29.0258  -11.8215   19.9586 C   0  0  0  0  0  0  0  0  0  0  0  0
  -29.6250  -17.9223   16.6516 C   0  0  0  0  0  0  0  0  0  0  0  0
  -31.8217  -19.1990   18.1646 C   0  0  0  0  0  0  0  0  0  0  0  0
  -30.2927  -12.6730   19.9545 C   0  0  0  0  0  0  0  0  0  0  0  0
  -25.7098  -30.9650   21.1056 C   0  0  0  0  0  0  0  0  0  0  0  0
  -30.0417  -14.0068   20.6508 C   0  0  0  0  0  0  0  0  0  0  0  0
  -26.2815  -29.9186   20.1508 C   0  0  0  0  0  0  0  0  0  0  0  0
  -24.1850  -30.9282   21.1391 C   0  0  0  0  0  0  0  0  0  0  0  0
  -24.2013  -28.5312   20.5101 C   0  0  0  0  0  0  0  0  0  0  0  0
  -28.9623  -14.8155   19.9213 C   0  0  1  0  0  0  0  0  0  0  0  0
  -30.6640  -17.0995   17.4071 C   0  0  1  0  0  0  0  0  0  0  0  0
  -25.7371  -28.5210   20.4889 C   0  0  1  0  0  0  0  0  0  0  0  0
  -26.6962  -24.5458   23.8120 C   0  0  0  0  0  0  0  0  0  0  0  0
  -37.7412  -19.4665   15.3303 C   0  0  0  0  0  0  0  0  0  0  0  0
  -34.2295  -16.9347   20.3431 C   0  0  0  0  0  0  0  0  0  0  0  0
  -36.3508  -17.9821   19.5237 C   0  0  0  0  0  0  0  0  0  0  0  0
  -35.6090  -15.7860   18.6019 C   0  0  0  0  0  0  0  0  0  0  0  0
  -21.1817  -28.0101   23.6840 C   0  0  0  0  0  0  0  0  0  0  0  0
  -34.4628  -20.3114   13.5941 C   0  0  0  0  0  0  0  0  0  0  0  0
  -27.7493  -23.6611   18.8972 C   0  0  0  0  0  0  0  0  0  1  0  0
  -26.4402  -25.2198   20.4619 C   0  0  0  0  0  0  0  0  0  0  0  0
  -34.3662  -17.8883   17.9477 C   0  0  1  0  0  0  0  0  0  0  0  0
  -36.2698  -19.2942   14.9864 C   0  0  2  0  0  0  0  0  0  0  0  0
  -35.1139  -17.1611   19.1008 C   0  0  0  0  0  0  0  0  0  0  0  0
  -25.5738  -27.1406   18.4522 N   0  0  0  0  0  0  0  0  0  0  0  0
  -26.2721  -27.4491   19.5582 N   0  0  0  0  0  0  0  0  0  0  0  0
  -31.9130  -17.8312   17.6277 N   0  0  0  0  0  0  0  0  0  0  0  0
  -23.6803  -29.5796   21.4024 N   0  0  0  0  0  0  0  0  0  0  0  0
  -28.2404  -26.9105   20.7608 N   0  0  0  0  0  0  0  0  0  0  0  0
  -28.4155  -24.1541   17.1877 N   0  0  0  0  0  0  0  0  0  0  0  0
  -29.5112  -15.4362   18.7348 N   0  0  0  0  0  0  0  0  0  0  0  0
  -35.1714  -18.0919   16.7483 N   0  0  0  0  0  0  0  0  0  0  0  0
  -22.3997  -28.2190   22.9043 N   0  0  0  0  0  0  0  0  0  0  0  0
  -35.8801  -20.3731   14.0350 N   0  3  0  0  0  0  0  0  0  0  0  0
  -29.4902  -24.7723   19.1169 O   0  0  0  0  0  0  0  0  0  0  0  0
  -30.3925  -17.3429   19.7399 O   0  0  0  0  0  0  0  0  0  0  0  0
  -28.8402  -25.0641   20.5186 O   0  0  0  0  0  0  0  0  0  0  0  0
  -33.2391  -15.9995   17.0597 O   0  0  0  0  0  0  0  0  0  0  0  0
  -34.9741  -20.4018   16.6986 O   0  0  0  0  0  0  0  0  0  0  0  0
  -21.6369  -30.2906   22.2290 O   0  0  0  0  0  0  0  0  0  0  0  0
  -24.6664  -23.8466   13.0786 O   0  0  0  0  0  0  0  0  0  0  0  0
  -29.0679  -23.2224   18.5728 O   0  0  0  0  0  0  0  0  0  1  0  0
  -26.5996  -26.1738   21.4905 O   0  0  0  0  0  0  0  0  0  0  0  0
  -22.8520  -27.1940    9.0903 F   0  0  0  0  0  0  0  0  0  0  0  0
  -22.4756  -25.4824   13.4874 F   0  0  0  0  0  0  0  0  0  0  0  0
  1  2  1  0  0  0  0
  1  5  2  0  0  0  0
  2  6  2  0  0  0  0
  3 10  2  0  0  0  0
  3 17  1  0  0  0  0
  4 11  1  0  0  0  0
  4 17  2  0  0  0  0
  5 20  1  0  0  0  0
  6 22  1  0  0  0  0
  7 12  2  0  0  0  0
  7 21  1  0  0  0  0
  8  9  1  0  0  0  0
  8 24  2  0  0  0  0
  9 25  2  0  0  0  0
 10 26  1  0  0  0  0
 11 26  2  0  0  0  0
 12 27  1  0  0  0  0
 13 14  2  0  0  0  0
 13 28  1  0  0  0  0
 14 30  1  0  0  0  0
 15 23  1  0  0  0  0
 15 27  2  0  0  0  0
 16 30  2  0  0  0  0
 16 31  1  0  0  0  0
 17 32  1  0  0  0  0
 18 25  1  0  0  0  0
 18 29  2  0  0  0  0
 18 35  1  0  0  0  0
 19 32  1  0  0  0  0
 19 33  2  0  0  0  0
 19 36  1  0  0  0  0
 20 22  2  0  0  0  0
 20 42  1  0  0  0  0
 21 23  2  0  0  0  0
 21 43  1  0  0  0  0
 22 51  1  0  0  0  0
 23 44  1  0  0  0  0
 24 29  1  0  0  0  0
 24 54  1  0  0  0  0
 25 74  1  0  0  0  0
 26 82  1  0  0  0  0
 27 83  1  0  0  0  0
 28 31  2  0  0  0  0
 28 82  1  0  0  0  0
 29 84  1  0  0  0  0
 30 85  1  0  0  0  0
 31 86  1  0  0  0  0
 32 66  2  0  0  0  0
 33 67  1  0  0  0  0
 33 70  1  0  0  0  0
 34 35  2  0  0  0  0
 36 71  1  0  0  0  0
 36 76  2  0  0  0  0
 37 52  1  0  0  0  0
 37 72  1  0  0  0  0
 37 77  2  0  0  0  0
 38 61  1  0  0  0  0
 38 62  1  0  0  0  0
 38 78  2  0  0  0  0
 39 63  1  0  0  0  0
 39 68  1  0  0  0  0
 39 79  2  0  0  0  0
 40 64  1  0  0  0  0
 40 73  1  0  0  0  0
 40 80  2  0  0  0  0
 41 69  1  0  0  0  0
 41 74  1  0  0  0  0
 41 81  2  0  0  0  0
 42 45  1  0  0  0  0
 43 52  1  0  0  0  0
 44 68  1  0  0  0  0
 45 47  1  0  0  0  0
 46 48  1  0  0  0  0
 46 49  1  0  0  0  0
 47 51  1  0  0  0  0
 48 53  1  0  0  0  0
 49 69  1  0  0  0  0
 50 53  1  0  0  0  0
 50 69  1  0  0  0  0
 51 72  1  0  0  0  0
 52 68  1  0  0  0  0
 53 67  1  0  0  0  0
 55 64  1  0  0  0  0
 56 65  1  0  0  0  0
 57 65  1  0  0  0  0
 58 65  1  0  0  0  0
 59 74  1  0  0  0  0
 60 75  1  0  0  0  0
 61 83  1  0  0  0  0
 62 84  1  0  0  0  0
 63 65  1  0  0  0  0
 63 73  1  0  0  0  0
 64 75  1  0  0  0  0
 66 67  1  0  0  0  0
M  CHG  1  75   1
M  ISO  4  41 100  61 101  74 100  83 101
M  END
> <Batch ID>
0119

> <Smiles>
C=Cc1c([100N:0](C)[100C:0](=O)N2CCCC(n3nc(-c4ccc(Oc5ccc(F)cc5F)cc4)c(C(N)=O)c3N)C2)ccc(C)c1OCC(=O)[101CH2:1][101O:1]c1ccc2c(c1)CN(C(=O)C(NC(=O)C(C)NC)C(C)(C)C)C(C(=O)NC1CCCc3ccccc31)C2

> <Shape>
0.171

> <Color>
0.075

> <Negative vol penalty>
0.000

$$$$

  -OEChem-04052301513D

 85 94  0     1  0  0  0  0  0999 V2000
  -29.7713  -35.5505   25.9124 C   0  0  0  0  0  0  0  0  0  0  0  0
  -30.0774  -34.6844   24.8677 C   0  0  0  0  0  0  0  0  0  0  0  0
  -23.7046   -8.8313   19.4889 C   0  0  0  0  0  0  0  0  0  0  0  0
  -24.4315   -9.1206   21.7747 C   0  0  0  0  0  0  0  0  0  0  0  0
  -28.7268  -35.2470   26.7847 C   0  0  0  0  0  0  0  0  0  0  0  0
  -29.3399  -33.5136   24.6952 C   0  0  0  0  0  0  0  0  0  0  0  0
  -26.9300  -29.1388   19.5600 C   0  0  0  0  0  0  0  0  0  0  0  0
  -23.4516  -17.8080   16.1441 C   0  0  0  0  0  0  0  0  0  0  0  0
  -24.3218  -16.8990   16.7459 C   0  0  0  0  0  0  0  0  0  0  0  0
  -22.5970   -8.1088   19.9325 C   0  0  0  0  0  0  0  0  0  0  0  0
  -23.3239   -8.3981   22.2184 C   0  0  0  0  0  0  0  0  0  0  0  0
  -26.9249  -27.7894   19.2096 C   0  0  0  0  0  0  0  0  0  0  0  0
  -22.3951   -5.1556   22.4516 C   0  0  0  0  0  0  0  0  0  0  0  0
  -22.6049   -4.1836   23.4297 C   0  0  0  0  0  0  0  0  0  0  0  0
  -25.0211  -18.6033   18.3090 C   0  0  0  0  0  0  0  0  0  0  0  0
  -25.0916  -27.4076   20.7303 C   0  0  0  0  0  0  0  0  0  0  0  0
  -21.0918   -5.3474   24.9107 C   0  0  0  0  0  0  0  0  0  0  0  0
  -24.6219   -9.3372   20.4099 C   0  0  0  0  0  0  0  0  0  0  0  0
  -26.7862   -9.6329   19.0925 C   0  0  0  0  0  0  0  0  0  0  0  0
  -27.9699  -34.0767   26.6171 C   0  0  0  0  0  0  0  0  0  0  0  0
  -26.0216  -29.6314   20.5080 C   0  0  0  0  0  0  0  0  0  0  0  0
  -28.2851  -33.1935   25.5669 C   0  0  0  0  0  0  0  0  0  0  0  0
  -24.1510  -19.5123   17.7072 C   0  0  0  0  0  0  0  0  0  0  0  0
  -25.0856  -28.7642   21.0892 C   0  0  0  0  0  0  0  0  0  0  0  0
  -23.3663  -19.1147   16.6248 C   0  0  0  0  0  0  0  0  0  0  0  0
  -25.1065  -17.2966   17.8283 C   0  0  0  0  0  0  0  0  0  0  0  0
  -22.4067   -7.8922   21.2973 C   0  0  0  0  0  0  0  0  0  0  0  0
  -26.0075  -26.9230   19.7968 C   0  0  0  0  0  0  0  0  0  0  0  0
  -21.5337   -6.2236   22.7030 C   0  0  0  0  0  0  0  0  0  0  0  0
  -21.9532   -4.2795   24.6593 C   0  0  0  0  0  0  0  0  0  0  0  0
  -20.8821   -6.3195   23.9325 C   0  0  0  0  0  0  0  0  0  0  0  0
  -25.7665  -10.0832   19.9522 C   0  0  0  0  0  0  0  0  0  0  0  0
  -27.6304  -10.7091   18.9679 C   0  0  0  0  0  0  0  0  0  0  0  0
  -26.9552   -8.3560   18.4627 C   0  0  0  0  0  0  0  0  0  0  0  0
  -26.2827  -31.0073   23.3615 C   0  0  0  0  0  0  0  0  0  0  0  0
  -23.0720  -31.3539   23.0557 C   0  0  0  0  0  0  0  0  0  0  0  0
  -20.1645  -30.2771   21.6296 C   0  0  0  0  0  0  0  0  0  0  0  0
  -26.8370  -16.6055   19.5237 C   0  0  0  0  0  0  0  0  0  0  0  0
  -26.8808  -33.7676   27.6136 C   0  0  0  0  0  0  0  0  0  0  0  0
  -26.0224  -31.0949   20.8554 C   0  0  0  0  0  0  0  0  0  0  0  0
  -24.0760  -29.2471   22.0971 C   0  0  0  0  0  0  0  0  0  0  0  0
  -25.9065  -32.6932   27.1375 C   0  0  0  0  0  0  0  0  0  0  0  0
  -29.1331  -14.5847   21.3462 C   0  0  0  0  0  0  0  0  0  0  0  0
  -25.0368  -21.8756   17.5141 C   0  0  0  0  0  0  0  0  0  0  0  0
  -24.3107  -20.9735   19.7677 C   0  0  0  0  0  0  0  0  0  0  0  0
  -26.6651  -31.5058   26.5533 C   0  0  0  0  0  0  0  0  0  0  0  0
  -24.9421  -23.3009   18.0578 C   0  0  0  0  0  0  0  0  0  0  0  0
  -24.2179  -22.4011   20.3057 C   0  0  0  0  0  0  0  0  0  0  0  0
  -28.6267  -13.1596   21.1123 C   0  0  0  0  0  0  0  0  0  0  0  0
  -27.9825  -15.5812   21.4766 C   0  0  0  0  0  0  0  0  0  0  0  0
  -26.5052  -14.1308   20.1413 C   0  0  0  0  0  0  0  0  0  0  0  0
  -24.0736  -20.9281   18.2488 C   0  0  0  0  0  0  0  0  0  0  0  0
  -27.4921  -31.9261   25.3322 C   0  0  1  0  0  0  0  0  0  0  0  0
  -25.3912  -31.3871   22.2132 C   0  0  1  0  0  0  0  0  0  0  0  0
  -25.1785  -23.3469   19.5730 C   0  0  0  0  0  0  0  0  0  0  0  0
  -27.6291  -13.1015   19.9389 C   0  0  2  0  0  0  0  0  0  0  0  0
  -22.4279  -20.0702   15.9637 C   0  0  0  0  0  0  0  0  0  0  0  0
  -17.6969  -30.7327   21.6024 C   0  0  0  0  0  0  0  0  0  0  0  0
  -22.7918  -29.9851   25.7682 C   0  0  0  0  0  0  0  0  0  0  0  0
  -20.3694  -29.6165   25.2539 C   0  0  0  0  0  0  0  0  0  0  0  0
  -21.2677  -31.9376   25.4225 C   0  0  0  0  0  0  0  0  0  0  0  0
  -20.1960  -30.9114   18.7390 C   0  0  0  0  0  0  0  0  0  0  0  0
  -25.0337  -24.7743   20.0977 C   0  0  0  0  0  0  0  0  0  1  0  0
  -21.8673  -30.5191   23.4174 C   0  0  1  0  0  0  0  0  0  0  0  0
  -19.0370  -31.0314   20.9483 C   0  0  2  0  0  0  0  0  0  0  0  0
  -21.5942  -30.5048   24.9480 C   0  0  0  0  0  0  0  0  0  0  0  0
  -25.9448  -11.3469   20.3461 N   0  0  0  0  0  0  0  0  0  0  0  0
  -27.0864  -11.6999   19.7312 N   0  0  0  0  0  0  0  0  0  0  0  0
  -24.1209  -30.6853   22.4086 N   0  0  0  0  0  0  0  0  0  0  0  0
  -27.0810  -15.4719   20.3276 N   0  0  0  0  0  0  0  0  0  0  0  0
  -28.7777  -10.8952   18.2812 N   0  0  0  0  0  0  0  0  0  0  0  0
  -27.6798   -7.3668   19.1416 N   0  0  0  0  0  0  0  0  0  0  0  0
  -25.9892  -16.3730   18.4412 N   0  0  0  0  0  0  0  0  0  0  0  0
  -26.6413  -32.0688   24.1703 N   0  0  0  0  0  0  0  0  0  0  0  0
  -20.7602  -31.0321   22.6177 N   0  0  0  0  0  0  0  0  0  0  0  0
  -18.9534  -30.6499   19.5101 N   0  3  0  0  0  0  0  0  0  0  0  0
  -26.4919   -8.1052   17.3243 O   0  0  0  0  0  0  0  0  0  0  0  0
  -26.6192  -29.8376   23.5040 O   0  0  0  0  0  0  0  0  0  0  0  0
  -23.0791  -32.5565   23.3304 O   0  0  0  0  0  0  0  0  0  0  0  0
  -20.4824  -29.1312   21.3190 O   0  0  0  0  0  0  0  0  0  0  0  0
  -27.3644  -17.6951   19.7612 O   0  0  0  0  0  0  0  0  0  0  0  0
  -21.3259   -7.1874   21.7306 O   0  0  0  0  0  0  0  0  0  0  0  0
  -26.0008  -25.6053   19.4570 O   0  0  0  0  0  0  0  0  0  1  0  0
  -22.1536   -3.3452   25.5979 F   0  0  0  0  0  0  0  0  0  0  0  0
  -20.0525   -7.3425   24.1794 F   0  0  0  0  0  0  0  0  0  0  0  0
  1  2  1  0  0  0  0
  1  5  2  0  0  0  0
  2  6  2  0  0  0  0
  3 10  2  0  0  0  0
  3 18  1  0  0  0  0
  4 11  1  0  0  0  0
  4 18  2  0  0  0  0
  5 20  1  0  0  0  0
  6 22  1  0  0  0  0
  7 12  2  0  0  0  0
  7 21  1  0  0  0  0
  8  9  2  0  0  0  0
  8 25  1  0  0  0  0
  9 26  1  0  0  0  0
 10 27  1  0  0  0  0
 11 27  2  0  0  0  0
 12 28  1  0  0  0  0
 13 14  2  0  0  0  0
 13 29  1  0  0  0  0
 14 30  1  0  0  0  0
 15 23  1  0  0  0  0
 15 26  2  0  0  0  0
 16 24  1  0  0  0  0
 16 28  2  0  0  0  0
 17 30  2  0  0  0  0
 17 31  1  0  0  0  0
 18 32  1  0  0  0  0
 19 32  1  0  0  0  0
 19 33  2  0  0  0  0
 19 34  1  0  0  0  0
 20 22  2  0  0  0  0
 20 39  1  0  0  0  0
 21 24  2  0  0  0  0
 21 40  1  0  0  0  0
 22 53  1  0  0  0  0
 23 25  2  0  0  0  0
 23 52  1  0  0  0  0
 24 41  1  0  0  0  0
 25 57  1  0  0  0  0
 26 73  1  0  0  0  0
 27 82  1  0  0  0  0
 28 83  1  0  0  0  0
 29 31  2  0  0  0  0
 29 82  1  0  0  0  0
 30 84  1  0  0  0  0
 31 85  1  0  0  0  0
 32 67  2  0  0  0  0
 33 68  1  0  0  0  0
 33 71  1  0  0  0  0
 34 72  1  0  0  0  0
 34 77  2  0  0  0  0
 35 54  1  0  0  0  0
 35 74  1  0  0  0  0
 35 78  2  0  0  0  0
 36 64  1  0  0  0  0
 36 69  1  0  0  0  0
 36 79  2  0  0  0  0
 37 65  1  0  0  0  0
 37 75  1  0  0  0  0
 37 80  2  0  0  0  0
 38 70  1  0  0  0  0
 38 73  1  0  0  0  0
 38 81  2  0  0  0  0
 39 42  1  0  0  0  0
 40 54  1  0  0  0  0
 41 69  1  0  0  0  0
 42 46  1  0  0  0  0
 43 49  1  0  0  0  0
 43 50  1  0  0  0  0
 44 47  1  0  0  0  0
 44 52  1  0  0  0  0
 45 48  1  0  0  0  0
 45 52  1  0  0  0  0
 46 53  1  0  0  0  0
 47 55  1  0  0  0  0
 48 55  1  0  0  0  0
 49 56  1  0  0  0  0
 50 70  1  0  0  0  0
 51 56  1  0  0  0  0
 51 70  1  0  0  0  0
 53 74  1  0  0  0  0
 54 69  1  0  0  0  0
 55 63  1  0  0  0  0
 56 68  1  0  0  0  0
 58 65  1  0  0  0  0
 59 66  1  0  0  0  0
 60 66  1  0  0  0  0
 61 66  1  0  0  0  0
 62 76  1  0  0  0  0
 63 83  1  0  0  0  0
 64 66  1  0  0  0  0
 64 75  1  0  0  0  0
 65 76  1  0  0  0  0
 67 68  1  0  0  0  0
M  CHG  1  76   1
M  ISO  4  38 100  63 101  73 100  83 101
M  END
> <Batch ID>
0119

> <Smiles>
CNC(C)C(=O)NC(C(=O)N1Cc2cc([101O:1][101CH2:1]C3CCC(c4cc([100NH:0][100C:0](=O)N5CCCC(n6nc(-c7ccc(Oc8ccc(F)cc8F)cc7)c(C(N)=O)c6N)C5)ccc4C)CC3)ccc2CC1C(=O)NC1CCCc2ccccc21)C(C)(C)C

> <Shape>
0.242

> <Color>
0.109

> <Negative vol penalty>
0.000

$$$$

  -OEChem-04052301513D

 84 92  0     1  0  0  0  0  0999 V2000
  -32.1097  -24.9000   15.3053 C   0  0  0  0  0  0  0  0  0  0  0  0
  -30.9061  -25.5297   15.0048 C   0  0  0  0  0  0  0  0  0  0  0  0
  -27.0927  -12.6178   21.5259 C   0  0  0  0  0  0  0  0  0  0  0  0
  -26.4977  -13.8831   19.5556 C   0  0  0  0  0  0  0  0  0  0  0  0
  -23.5885  -23.6777   21.2895 C   0  0  0  0  0  0  0  0  0  0  0  0
  -32.2478  -24.1971   16.5014 C   0  0  0  0  0  0  0  0  0  0  0  0
  -29.8395  -25.4560   15.9000 C   0  0  0  0  0  0  0  0  0  0  0  0
  -24.2560  -29.2745   18.2579 C   0  0  0  0  0  0  0  0  0  0  0  0
  -24.4403  -22.8108   21.9739 C   0  0  0  0  0  0  0  0  0  0  0  0
  -26.3177  -11.5498   21.0741 C   0  0  0  0  0  0  0  0  0  0  0  0
  -25.7227  -12.8150   19.1037 C   0  0  0  0  0  0  0  0  0  0  0  0
  -22.8786  -29.1659   18.4444 C   0  0  0  0  0  0  0  0  0  0  0  0
  -23.0442  -10.7135   20.9780 C   0  0  0  0  0  0  0  0  0  0  0  0
  -22.2052  -10.0871   21.8996 C   0  0  0  0  0  0  0  0  0  0  0  0
  -23.2579  -27.9904   20.5164 C   0  0  0  0  0  0  0  0  0  0  0  0
  -25.2109  -21.9070   19.8700 C   0  0  0  0  0  0  0  0  0  0  0  0
  -23.3655   -7.9992   21.5368 C   0  0  0  0  0  0  0  0  0  0  0  0
  -27.1827  -13.7846   20.7667 C   0  0  0  0  0  0  0  0  0  0  0  0
  -23.5478  -23.6592   19.8954 C   0  0  0  0  0  0  0  0  0  0  0  0
  -29.3460  -15.1210   20.9705 C   0  0  0  0  0  0  0  0  0  0  0  0
  -31.1855  -24.1229   17.4161 C   0  0  0  0  0  0  0  0  0  0  0  0
  -25.1462  -28.7314   19.1954 C   0  0  0  0  0  0  0  0  0  0  0  0
  -29.9631  -24.7504   17.1089 C   0  0  0  0  0  0  0  0  0  0  0  0
  -24.6461  -28.0957   20.3408 C   0  0  0  0  0  0  0  0  0  0  0  0
  -24.3590  -22.7739   19.1856 C   0  0  0  0  0  0  0  0  0  0  0  0
  -25.2516  -21.9255   21.2642 C   0  0  0  0  0  0  0  0  0  0  0  0
  -25.6327  -11.6483   19.8630 C   0  0  0  0  0  0  0  0  0  0  0  0
  -22.3794  -28.5212   19.5723 C   0  0  0  0  0  0  0  0  0  0  0  0
  -24.0439   -9.9827   20.3358 C   0  0  0  0  0  0  0  0  0  0  0  0
  -22.3658   -8.7300   22.1790 C   0  0  0  0  0  0  0  0  0  0  0  0
  -24.2045   -8.6256   20.6152 C   0  0  0  0  0  0  0  0  0  0  0  0
  -27.9827  -14.8884   21.2331 C   0  0  0  0  0  0  0  0  0  0  0  0
  -29.6291  -16.2896   21.6344 C   0  0  0  0  0  0  0  0  0  0  0  0
  -22.6385  -24.5869   19.2022 C   0  0  0  0  0  0  0  0  0  0  0  0
  -21.3031  -24.6049   19.3352 C   0  0  0  0  0  0  0  0  0  0  0  0
  -30.2736  -14.3497   20.1957 C   0  0  0  0  0  0  0  0  0  0  0  0
  -27.3882  -26.4795   19.1171 C   0  0  0  0  0  0  0  0  0  0  0  0
  -27.9671  -27.4987   22.1418 C   0  0  0  0  0  0  0  0  0  0  0  0
  -26.7976  -29.0388   24.9538 C   0  0  0  0  0  0  0  0  0  0  0  0
  -26.2746  -20.9310   23.3404 C   0  0  0  0  0  0  0  0  0  0  0  0
  -31.3666  -23.3118   18.6747 C   0  0  0  0  0  0  0  0  0  0  0  0
  -26.6292  -28.8804   18.9931 C   0  0  0  0  0  0  0  0  0  0  0  0
  -25.5596  -27.5135   21.3873 C   0  0  0  0  0  0  0  0  0  0  0  0
  -30.3109  -23.5966   19.7400 C   0  0  0  0  0  0  0  0  0  0  0  0
  -28.2681  -18.8586   25.4400 C   0  0  0  0  0  0  0  0  0  0  0  0
  -28.9170  -23.6081   19.1206 C   0  0  0  0  0  0  0  0  0  0  0  0
  -28.5503  -17.6292   24.5734 C   0  0  0  0  0  0  0  0  0  0  0  0
  -26.8593  -19.4029   25.2107 C   0  0  0  0  0  0  0  0  0  0  0  0
  -26.8015  -18.4452   22.9416 C   0  0  0  0  0  0  0  0  0  0  0  0
  -28.7912  -24.7140   18.0658 C   0  0  1  0  0  0  0  0  0  0  0  0
  -27.4437  -27.8391   19.7544 C   0  0  1  0  0  0  0  0  0  0  0  0
  -28.2314  -17.9001   23.0900 C   0  0  2  0  0  0  0  0  0  0  0  0
  -24.3421  -22.7269   17.6915 C   0  0  0  0  0  0  0  0  0  0  0  0
  -27.4909  -29.6905   27.2759 C   0  0  0  0  0  0  0  0  0  0  0  0
  -19.8466  -27.7414   21.7298 C   0  0  0  0  0  0  0  0  0  0  0  0
  -27.6659  -24.5992   23.0428 C   0  0  0  0  0  0  0  0  0  0  0  0
  -27.4176  -25.4281   25.3922 C   0  0  0  0  0  0  0  0  0  0  0  0
  -29.5357  -25.8443   24.1419 C   0  0  0  0  0  0  0  0  0  0  0  0
  -26.3812  -31.9153   24.3958 C   0  0  0  0  0  0  0  0  0  0  0  0
  -20.4117  -25.5637   18.5971 C   0  0  0  0  0  0  0  0  0  0  0  0
  -19.6353  -26.4578   19.5708 C   0  0  0  0  0  0  0  0  0  0  0  0
  -27.4514  -27.1291   23.5116 C   0  0  1  0  0  0  0  0  0  0  0  0
  -27.3906  -30.1321   25.8241 C   0  0  2  0  0  0  0  0  0  0  0  0
  -20.5677  -27.2715   20.4735 C   0  0  1  0  0  0  0  0  0  1  0  0
  -28.0002  -25.7593   24.0016 C   0  0  0  0  0  0  0  0  0  0  0  0
  -27.4375  -15.8333   22.0039 N   0  0  0  0  0  0  0  0  0  0  0  0
  -28.4636  -16.6709   22.2314 N   0  0  0  0  0  0  0  0  0  0  0  0
  -27.0017  -27.6791   21.1411 N   0  0  0  0  0  0  0  0  0  0  0  0
  -26.6303  -19.6395   23.7837 N   0  0  0  0  0  0  0  0  0  0  0  0
  -30.7588  -17.0178   21.7601 N   0  0  0  0  0  0  0  0  0  0  0  0
  -29.8168  -13.1760   19.5808 N   0  0  0  0  0  0  0  0  0  0  0  0
  -26.1149  -21.0429   21.9596 N   0  0  0  0  0  0  0  0  0  0  0  0
  -28.6167  -26.0020   18.7022 N   0  0  0  0  0  0  0  0  0  0  0  0
  -27.7763  -28.2505   24.3864 N   0  0  0  0  0  0  0  0  0  0  0  0
  -26.5457  -31.3582   25.7631 N   0  3  0  0  0  0  0  0  0  0  0  0
  -31.4761  -14.6826   20.0663 O   0  0  0  0  0  0  0  0  0  0  0  0
  -26.3107  -25.9054   19.0112 O   0  0  0  0  0  0  0  0  0  0  0  0
  -29.1812  -27.6299   21.9678 O   0  0  0  0  0  0  0  0  0  0  0  0
  -25.5871  -28.8959   24.7963 O   0  0  0  0  0  0  0  0  0  0  0  0
  -26.1496  -21.8748   24.1249 O   0  0  0  0  0  0  0  0  0  0  0  0
  -24.8766  -10.6062   19.4217 O   0  0  0  0  0  0  0  0  0  0  0  0
  -21.0354  -28.4132   19.7564 O   0  0  0  0  0  0  0  0  0  1  0  0
  -21.5610   -8.1289   23.0651 F   0  0  0  0  0  0  0  0  0  0  0  0
  -25.1638   -7.9186   20.0022 F   0  0  0  0  0  0  0  0  0  0  0  0
  1  2  1  0  0  0  0
  1  6  2  0  0  0  0
  2  7  2  0  0  0  0
  3 10  2  0  0  0  0
  3 18  1  0  0  0  0
  4 11  1  0  0  0  0
  4 18  2  0  0  0  0
  5  9  2  0  0  0  0
  5 19  1  0  0  0  0
  6 21  1  0  0  0  0
  7 23  1  0  0  0  0
  8 12  2  0  0  0  0
  8 22  1  0  0  0  0
  9 26  1  0  0  0  0
 10 27  1  0  0  0  0
 11 27  2  0  0  0  0
 12 28  1  0  0  0  0
 13 14  2  0  0  0  0
 13 29  1  0  0  0  0
 14 30  1  0  0  0  0
 15 24  1  0  0  0  0
 15 28  2  0  0  0  0
 16 25  1  0  0  0  0
 16 26  2  0  0  0  0
 17 30  2  0  0  0  0
 17 31  1  0  0  0  0
 18 32  1  0  0  0  0
 19 25  2  0  0  0  0
 19 34  1  0  0  0  0
 20 32  1  0  0  0  0
 20 33  2  0  0  0  0
 20 36  1  0  0  0  0
 21 23  2  0  0  0  0
 21 41  1  0  0  0  0
 22 24  2  0  0  0  0
 22 42  1  0  0  0  0
 23 50  1  0  0  0  0
 24 43  1  0  0  0  0
 25 53  1  0  0  0  0
 26 72  1  0  0  0  0
 27 81  1  0  0  0  0
 28 82  1  0  0  0  0
 29 31  2  0  0  0  0
 29 81  1  0  0  0  0
 30 83  1  0  0  0  0
 31 84  1  0  0  0  0
 32 66  2  0  0  0  0
 33 67  1  0  0  0  0
 33 70  1  0  0  0  0
 34 35  2  0  0  0  0
 35 60  1  0  0  0  0
 36 71  1  0  0  0  0
 36 76  2  0  0  0  0
 37 51  1  0  0  0  0
 37 73  1  0  0  0  0
 37 77  2  0  0  0  0
 38 62  1  0  0  0  0
 38 68  1  0  0  0  0
 38 78  2  0  0  0  0
 39 63  1  0  0  0  0
 39 74  1  0  0  0  0
 39 79  2  0  0  0  0
 40 69  1  0  0  0  0
 40 72  1  0  0  0  0
 40 80  2  0  0  0  0
 41 44  1  0  0  0  0
 42 51  1  0  0  0  0
 43 68  1  0  0  0  0
 44 46  1  0  0  0  0
 45 47  1  0  0  0  0
 45 48  1  0  0  0  0
 46 50  1  0  0  0  0
 47 52  1  0  0  0  0
 48 69  1  0  0  0  0
 49 52  1  0  0  0  0
 49 69  1  0  0  0  0
 50 73  1  0  0  0  0
 51 68  1  0  0  0  0
 52 67  1  0  0  0  0
 54 63  1  0  0  0  0
 55 64  1  0  0  0  0
 56 65  1  0  0  0  0
 57 65  1  0  0  0  0
 58 65  1  0  0  0  0
 59 75  1  0  0  0  0
 60 61  1  0  0  0  0
 61 64  1  0  0  0  0
 62 65  1  0  0  0  0
 62 74  1  0  0  0  0
 63 75  1  0  0  0  0
 64 82  1  0  0  0  0
 66 67  1  0  0  0  0
M  CHG  1  75   1
M  ISO  4  40 100  64 101  72 100  82 101
M  END
> <Batch ID>
0119

> <Smiles>
CNC(C)C(=O)NC(C(=O)N1Cc2cc([101O:1][101CH:1](C)CCC=Cc3ccc([100NH:0][100C:0](=O)N4CCCC(n5nc(-c6ccc(Oc7ccc(F)cc7F)cc6)c(C(N)=O)c5N)C4)cc3C)ccc2CC1C(=O)NC1CCCc2ccccc21)C(C)(C)C

> <Shape>
0.221

> <Color>
0.062

> <Negative vol penalty>
0.000

$$$$

  -OEChem-04052301513D

 87 95  0     1  0  0  0  0  0999 V2000
  -30.5151  -32.3473   14.2316 C   0  0  0  0  0  0  0  0  0  0  0  0
  -30.1213  -31.1487   14.8179 C   0  0  0  0  0  0  0  0  0  0  0  0
  -24.5008   -9.3860   20.0053 C   0  0  0  0  0  0  0  0  0  0  0  0
  -24.4610   -9.8148   22.3826 C   0  0  0  0  0  0  0  0  0  0  0  0
  -30.6900  -33.4835   15.0205 C   0  0  0  0  0  0  0  0  0  0  0  0
  -29.9032  -31.0854   16.1937 C   0  0  0  0  0  0  0  0  0  0  0  0
  -25.6580  -28.5898   17.3749 C   0  0  0  0  0  0  0  0  0  0  0  0
  -24.1249   -8.0630   20.2376 C   0  0  0  0  0  0  0  0  0  0  0  0
  -24.0851   -8.4918   22.6149 C   0  0  0  0  0  0  0  0  0  0  0  0
  -25.7033  -27.1972   17.3253 C   0  0  0  0  0  0  0  0  0  0  0  0
  -21.2630   -6.6401   22.4487 C   0  0  0  0  0  0  0  0  0  0  0  0
  -20.2323   -6.4113   23.3602 C   0  0  0  0  0  0  0  0  0  0  0  0
  -32.7676  -19.0752   19.9094 C   0  0  0  0  0  0  0  0  0  0  0  0
  -30.1292  -18.5538   19.1679 C   0  0  0  0  0  0  0  0  0  0  0  0
  -25.9721  -27.1266   19.7215 C   0  0  0  0  0  0  0  0  0  0  0  0
  -21.7305   -5.0953   24.7242 C   0  0  0  0  0  0  0  0  0  0  0  0
  -24.6689  -10.2619   21.0778 C   0  0  0  0  0  0  0  0  0  0  0  0
  -32.4747  -17.9783   19.0992 C   0  0  0  0  0  0  0  0  0  0  0  0
  -31.7413  -19.9115   20.3490 C   0  0  0  0  0  0  0  0  0  0  0  0
  -31.1556  -17.7176   18.7284 C   0  0  0  0  0  0  0  0  0  0  0  0
  -24.2068  -12.7297   20.6258 C   0  0  0  0  0  0  0  0  0  0  0  0
  -30.4646  -33.4365   16.4053 C   0  0  0  0  0  0  0  0  0  0  0  0
  -25.7805  -29.2627   18.5990 C   0  0  0  0  0  0  0  0  0  0  0  0
  -30.0766  -32.2217   17.0021 C   0  0  0  0  0  0  0  0  0  0  0  0
  -25.9254  -28.5276   19.7843 C   0  0  0  0  0  0  0  0  0  0  0  0
  -23.9171   -7.6159   21.5424 C   0  0  0  0  0  0  0  0  0  0  0  0
  -25.8633  -26.4655   18.4983 C   0  0  0  0  0  0  0  0  0  0  0  0
  -22.5275   -6.0964   22.6749 C   0  0  0  0  0  0  0  0  0  0  0  0
  -30.4221  -19.6507   19.9782 C   0  0  0  0  0  0  0  0  0  0  0  0
  -20.4660   -5.6390   24.4979 C   0  0  0  0  0  0  0  0  0  0  0  0
  -22.7613   -5.3240   23.8126 C   0  0  0  0  0  0  0  0  0  0  0  0
  -25.0577  -11.6285   20.8385 C   0  0  0  0  0  0  0  0  0  0  0  0
  -25.0585  -13.7926   20.4492 C   0  0  0  0  0  0  0  0  0  0  0  0
  -34.6074  -17.5640   17.9610 C   0  0  0  0  0  0  0  0  0  0  0  0
  -32.8578  -22.0449   20.8149 C   0  0  0  0  0  0  0  0  0  0  0  0
  -33.5708  -17.1245   18.6580 C   0  0  0  0  0  0  0  0  0  0  0  0
  -32.0721  -21.0491   21.1967 C   0  0  0  0  0  0  0  0  0  0  0  0
  -30.8072  -16.5811   17.8835 C   0  0  0  0  0  0  0  0  0  0  0  0
  -22.7746  -12.7866   20.5911 C   0  0  0  0  0  0  0  0  0  0  0  0
  -29.4971  -15.9104   18.0037 C   0  0  0  0  0  0  0  0  0  0  0  0
  -27.8549  -31.3391   19.8195 C   0  0  0  0  0  0  0  0  0  0  0  0
  -25.7287  -31.4297   22.2677 C   0  0  0  0  0  0  0  0  0  0  0  0
  -23.2290  -29.8738   23.9932 C   0  0  0  0  0  0  0  0  0  0  0  0
  -30.7124  -34.6788   17.2237 C   0  0  0  0  0  0  0  0  0  0  0  0
  -25.7029  -30.7643   18.6387 C   0  0  0  0  0  0  0  0  0  0  0  0
  -26.0411  -29.2015   21.1263 C   0  0  0  0  0  0  0  0  0  0  0  0
  -30.0980  -34.6210   18.6199 C   0  0  0  0  0  0  0  0  0  0  0  0
  -30.0267  -14.2094   21.2065 C   0  0  0  0  0  0  0  0  0  0  0  0
  -30.4075  -33.2833   19.2844 C   0  0  0  0  0  0  0  0  0  0  0  0
  -28.7179  -13.4369   21.3487 C   0  0  0  0  0  0  0  0  0  0  0  0
  -30.4694  -14.3207   19.7483 C   0  0  0  0  0  0  0  0  0  0  0  0
  -28.1173  -14.1246   18.9935 C   0  0  0  0  0  0  0  0  0  0  0  0
  -29.8063  -32.1193   18.4875 C   0  0  1  0  0  0  0  0  0  0  0  0
  -26.3538  -31.3637   19.8814 C   0  0  1  0  0  0  0  0  0  0  0  0
  -27.6288  -14.0410   20.4481 C   0  0  1  0  0  0  0  0  0  0  0  0
  -21.7138  -30.1796   25.9701 C   0  0  0  0  0  0  0  0  0  0  0  0
  -28.0505  -30.7937   24.1425 C   0  0  0  0  0  0  0  0  0  0  0  0
  -26.3739  -30.1811   25.8980 C   0  0  0  0  0  0  0  0  0  0  0  0
  -26.4508  -32.5102   25.0080 C   0  0  0  0  0  0  0  0  0  0  0  0
  -20.8040  -29.7425   22.3017 C   0  0  0  0  0  0  0  0  0  0  0  0
  -27.2629  -23.1557   18.8903 C   0  0  0  0  0  0  0  0  0  0  0  0
  -28.0863  -22.4074   19.9330 C   0  0  0  0  0  0  0  0  0  0  0  0
  -26.6858  -24.4482   19.4522 C   0  0  0  0  0  0  0  0  0  1  0  0
  -28.6278  -21.0946   19.3853 C   0  0  0  0  0  0  0  0  0  0  0  0
  -25.5413  -30.6556   23.5501 C   0  0  1  0  0  0  0  0  0  0  0  0
  -21.8751  -30.3681   24.4697 C   0  0  2  0  0  0  0  0  0  0  0  0
  -26.6039  -31.0222   24.6243 C   0  0  0  0  0  0  0  0  0  0  0  0
  -26.3508  -11.9612   20.8006 N   0  0  0  0  0  0  0  0  0  0  0  0
  -31.6107  -16.0908   16.9817 N   0  0  0  0  0  0  0  0  0  0  0  0
  -26.3187  -13.2834   20.5621 N   0  0  0  0  0  0  0  0  0  0  0  0
  -29.3913  -14.8459   18.8971 N   0  0  0  0  0  0  0  0  0  0  0  0
  -25.9658  -30.6718   21.1122 N   0  0  0  0  0  0  0  0  0  0  0  0
  -24.8449  -15.1039   20.2099 N   0  0  0  0  0  0  0  0  0  0  0  0
  -22.0538  -11.6015   20.7921 N   0  0  0  0  0  0  0  0  0  0  0  0
  -28.3846  -32.0164   18.7378 N   0  0  0  0  0  0  0  0  0  0  0  0
  -24.1633  -30.8876   23.9693 N   0  0  0  0  0  0  0  0  0  0  0  0
  -20.7812  -29.6250   23.7825 N   0  3  0  0  0  0  0  0  0  0  0  0
  -22.1528  -13.8537   20.3717 O   0  0  0  0  0  0  0  0  0  0  0  0
  -28.5763  -16.3312   17.3010 O   0  0  0  0  0  0  0  0  0  0  0  0
  -28.4859  -30.7504   20.6896 O   0  0  0  0  0  0  0  0  0  0  0  0
  -25.6600  -32.6612   22.2891 O   0  0  0  0  0  0  0  0  0  0  0  0
  -23.4379  -28.7045   23.6775 O   0  0  0  0  0  0  0  0  0  0  0  0
  -23.5500   -6.3250   21.7694 O   0  0  0  0  0  0  0  0  0  0  0  0
  -25.9085  -25.1061   18.4527 O   0  0  0  0  0  0  0  0  0  1  0  0
  -29.3949  -20.4560   20.3967 O   0  0  0  0  0  0  0  0  0  0  0  0
  -19.4765   -5.4207   25.3740 F   0  0  0  0  0  0  0  0  0  0  0  0
  -23.9743   -4.8001   24.0359 F   0  0  0  0  0  0  0  0  0  0  0  0
  1  2  1  0  0  0  0
  1  5  2  0  0  0  0
  2  6  2  0  0  0  0
  3  8  2  0  0  0  0
  3 17  1  0  0  0  0
  4  9  1  0  0  0  0
  4 17  2  0  0  0  0
  5 22  1  0  0  0  0
  6 24  1  0  0  0  0
  7 10  2  0  0  0  0
  7 23  1  0  0  0  0
  8 26  1  0  0  0  0
  9 26  2  0  0  0  0
 10 27  1  0  0  0  0
 11 12  2  0  0  0  0
 11 28  1  0  0  0  0
 12 30  1  0  0  0  0
 13 18  2  0  0  0  0
 13 19  1  0  0  0  0
 14 20  2  0  0  0  0
 14 29  1  0  0  0  0
 15 25  1  0  0  0  0
 15 27  2  0  0  0  0
 16 30  2  0  0  0  0
 16 31  1  0  0  0  0
 17 32  1  0  0  0  0
 18 20  1  0  0  0  0
 18 36  1  0  0  0  0
 19 29  2  0  0  0  0
 19 37  1  0  0  0  0
 20 38  1  0  0  0  0
 21 32  1  0  0  0  0
 21 33  2  0  0  0  0
 21 39  1  0  0  0  0
 22 24  2  0  0  0  0
 22 44  1  0  0  0  0
 23 25  2  0  0  0  0
 23 45  1  0  0  0  0
 24 53  1  0  0  0  0
 25 46  1  0  0  0  0
 26 83  1  0  0  0  0
 27 84  1  0  0  0  0
 28 31  2  0  0  0  0
 28 83  1  0  0  0  0
 29 85  1  0  0  0  0
 30 86  1  0  0  0  0
 31 87  1  0  0  0  0
 32 68  2  0  0  0  0
 33 70  1  0  0  0  0
 33 73  1  0  0  0  0
 34 36  2  0  0  0  0
 35 37  2  0  0  0  0
 38 40  1  0  0  0  0
 38 69  2  0  0  0  0
 39 74  1  0  0  0  0
 39 78  2  0  0  0  0
 40 71  1  0  0  0  0
 40 79  2  0  0  0  0
 41 54  1  0  0  0  0
 41 75  1  0  0  0  0
 41 80  2  0  0  0  0
 42 65  1  0  0  0  0
 42 72  1  0  0  0  0
 42 81  2  0  0  0  0
 43 66  1  0  0  0  0
 43 76  1  0  0  0  0
 43 82  2  0  0  0  0
 44 47  1  0  0  0  0
 45 54  1  0  0  0  0
 46 72  1  0  0  0  0
 47 49  1  0  0  0  0
 48 50  1  0  0  0  0
 48 51  1  0  0  0  0
 49 53  1  0  0  0  0
 50 55  1  0  0  0  0
 51 71  1  0  0  0  0
 52 55  1  0  0  0  0
 52 71  1  0  0  0  0
 53 75  1  0  0  0  0
 54 72  1  0  0  0  0
 55 70  1  0  0  0  0
 56 66  1  0  0  0  0
 57 67  1  0  0  0  0
 58 67  1  0  0  0  0
 59 67  1  0  0  0  0
 60 77  1  0  0  0  0
 61 62  1  0  0  0  0
 61 63  1  0  0  0  0
 62 64  1  0  0  0  0
 63 84  1  0  0  0  0
 64 85  1  0  0  0  0
 65 67  1  0  0  0  0
 65 76  1  0  0  0  0
 66 77  1  0  0  0  0
 68 70  1  0  0  0  0
M  CHG  1  77   1
M  ISO  4  38 100  40 100  63 101  84 101
M  END
> <Batch ID>
0119

> <Smiles>
C=Cc1cc(C=C)c([100C:0](=N)[100C:0](=O)N2CCCC(n3nc(-c4ccc(Oc5ccc(F)cc5F)cc4)c(C(N)=O)c3N)C2)cc1OCCC[101CH2:1][101O:1]c1ccc2c(c1)CN(C(=O)C(NC(=O)C(C)NC)C(C)(C)C)C(C(=O)NC1CCCc3ccccc31)C2

> <Shape>
0.266

> <Color>
0.144

> <Negative vol penalty>
0.000

$$$$

  -OEChem-04052301513D

 85 94  0     1  0  0  0  0  0999 V2000
  -17.1517  -29.3865   24.7672 C   0  0  0  0  0  0  0  0  0  0  0  0
  -17.8459  -28.2626   24.3311 C   0  0  0  0  0  0  0  0  0  0  0  0
  -22.4498  -14.2405   20.5216 C   0  0  0  0  0  0  0  0  0  0  0  0
  -24.0004  -15.0284   22.1985 C   0  0  0  0  0  0  0  0  0  0  0  0
  -17.3659  -30.6191   24.1518 C   0  0  0  0  0  0  0  0  0  0  0  0
  -18.7541  -28.3704   23.2785 C   0  0  0  0  0  0  0  0  0  0  0  0
  -23.0942  -25.9290   24.1994 C   0  0  0  0  0  0  0  0  0  0  0  0
  -28.8529  -20.1462   21.2702 C   0  0  0  0  0  0  0  0  0  0  0  0
  -27.5063  -20.4640   21.0927 C   0  0  0  0  0  0  0  0  0  0  0  0
  -21.5560  -15.2520   20.8727 C   0  0  0  0  0  0  0  0  0  0  0  0
  -23.1065  -16.0401   22.5496 C   0  0  0  0  0  0  0  0  0  0  0  0
  -23.0905  -24.5434   24.0448 C   0  0  0  0  0  0  0  0  0  0  0  0
  -20.2788  -16.3420   24.3782 C   0  0  0  0  0  0  0  0  0  0  0  0
  -20.0547  -16.5662   25.7365 C   0  0  0  0  0  0  0  0  0  0  0  0
  -24.1186  -24.7887   21.8763 C   0  0  0  0  0  0  0  0  0  0  0  0
  -27.1417  -18.3251   20.0298 C   0  0  0  0  0  0  0  0  0  0  0  0
  -20.8556  -18.8327   25.4945 C   0  0  0  0  0  0  0  0  0  0  0  0
  -23.6720  -14.1286   21.1846 C   0  0  0  0  0  0  0  0  0  0  0  0
  -24.3709  -11.6947   20.8754 C   0  0  0  0  0  0  0  0  0  0  0  0
  -18.2843  -30.7440   23.0975 C   0  0  0  0  0  0  0  0  0  0  0  0
  -23.6010  -26.7568   23.1873 C   0  0  0  0  0  0  0  0  0  0  0  0
  -18.9799  -29.6056   22.6475 C   0  0  0  0  0  0  0  0  0  0  0  0
  -24.1299  -26.1844   22.0217 C   0  0  0  0  0  0  0  0  0  0  0  0
  -29.3439  -18.9180   20.8274 C   0  0  0  0  0  0  0  0  0  0  0  0
  -26.6508  -19.5534   20.4726 C   0  0  0  0  0  0  0  0  0  0  0  0
  -28.4883  -18.0074   20.2073 C   0  0  0  0  0  0  0  0  0  0  0  0
  -21.8843  -16.1519   21.8867 C   0  0  0  0  0  0  0  0  0  0  0  0
  -23.6001  -23.9732   22.8819 C   0  0  0  0  0  0  0  0  0  0  0  0
  -20.7913  -17.3631   23.5780 C   0  0  0  0  0  0  0  0  0  0  0  0
  -20.3431  -17.8115   26.2947 C   0  0  0  0  0  0  0  0  0  0  0  0
  -21.0797  -18.6085   24.1362 C   0  0  0  0  0  0  0  0  0  0  0  0
  -24.5955  -13.0835   20.8227 C   0  0  0  0  0  0  0  0  0  0  0  0
  -25.5462  -11.1397   20.4314 C   0  0  0  0  0  0  0  0  0  0  0  0
  -23.2546  -20.9527   21.0629 C   0  0  0  0  0  0  0  0  0  0  0  0
  -22.9059  -22.0951   21.6730 C   0  0  0  0  0  0  0  0  0  1  0  0
  -23.2042  -10.9711   21.2887 C   0  0  0  0  0  0  0  0  0  0  0  0
  -22.3834  -29.0301   21.3291 C   0  0  0  0  0  0  0  0  0  0  0  0
  -25.4698  -29.3748   20.3925 C   0  0  0  0  0  0  0  0  0  0  0  0
  -28.5681  -27.9838   20.0564 C   0  0  0  0  0  0  0  0  0  0  0  0
  -28.2455  -15.7408   19.1152 C   0  0  0  0  0  0  0  0  0  0  0  0
  -18.4473  -32.0877   22.4322 C   0  0  0  0  0  0  0  0  0  0  0  0
  -23.6222  -28.2482   23.3809 C   0  0  0  0  0  0  0  0  0  0  0  0
  -24.7041  -27.0281   20.9140 C   0  0  0  0  0  0  0  0  0  0  0  0
  -22.4774  -20.3948   19.9037 C   0  0  0  0  0  0  0  0  0  0  0  0
  -24.4663  -20.1539   21.4730 C   0  0  0  0  0  0  0  0  0  0  0  0
  -19.7033  -32.1925   21.5709 C   0  0  0  0  0  0  0  0  0  0  0  0
  -23.4166  -20.1701   18.7238 C   0  0  0  0  0  0  0  0  0  0  0  0
  -30.1321  -12.6545   20.4501 C   0  0  0  0  0  0  0  0  0  0  0  0
  -19.8460  -30.9605   20.6829 C   0  0  0  0  0  0  0  0  0  0  0  0
  -28.8145  -11.9606   20.7718 C   0  0  0  0  0  0  0  0  0  0  0  0
  -24.6217  -19.3126   19.1134 C   0  0  0  0  0  0  0  0  0  0  0  0
  -29.9023  -14.1454   20.2186 C   0  0  0  0  0  0  0  0  0  0  0  0
  -28.1298  -13.2949   18.6800 C   0  0  0  0  0  0  0  0  0  0  0  0
  -19.9916  -29.6873   21.5250 C   0  0  1  0  0  0  0  0  0  0  0  0
  -23.6922  -29.0203   22.0670 C   0  0  1  0  0  0  0  0  0  0  0  0
  -27.7957  -12.1234   19.6261 C   0  0  2  0  0  0  0  0  0  0  0  0
  -30.7907  -18.6046   21.0307 C   0  0  0  0  0  0  0  0  0  0  0  0
  -30.8785  -28.4984   19.2231 C   0  0  0  0  0  0  0  0  0  0  0  0
  -24.5024  -29.0503   17.5169 C   0  0  0  0  0  0  0  0  0  0  0  0
  -26.8746  -28.6214   16.8409 C   0  0  0  0  0  0  0  0  0  0  0  0
  -26.2418  -30.8182   17.8393 C   0  0  0  0  0  0  0  0  0  0  0  0
  -29.7527  -27.5682   22.7365 C   0  0  0  0  0  0  0  0  0  0  0  0
  -26.3341  -28.7669   19.3143 C   0  0  1  0  0  0  0  0  0  0  0  0
  -29.9481  -28.4970   20.4261 C   0  0  2  0  0  0  0  0  0  0  0  0
  -25.9757  -29.2981   17.8977 C   0  0  0  0  0  0  0  0  0  0  0  0
  -25.8175  -13.3917   20.3803 N   0  0  0  0  0  0  0  0  0  0  0  0
  -26.3713  -12.1889   20.1510 N   0  0  0  0  0  0  0  0  0  0  0  0
  -25.2981  -19.8730   20.2944 N   0  0  2  0  0  0  0  0  0  0  0  0
  -24.6966  -28.4816   21.1477 N   0  0  0  0  0  0  0  0  0  0  0  0
  -28.7395  -14.4363   19.3669 N   0  0  0  0  0  0  0  0  0  0  0  0
  -25.9441   -9.8615   20.2575 N   0  0  0  0  0  0  0  0  0  0  0  0
  -22.0842  -11.6973   21.7160 N   0  0  0  0  0  0  0  0  0  0  0  0
  -28.9684  -16.7541   19.7505 N   0  0  0  0  0  0  0  0  0  0  0  0
  -21.3370  -29.5775   22.0468 N   0  0  0  0  0  0  0  0  0  0  0  0
  -27.7161  -29.0120   19.7124 N   0  0  0  0  0  0  0  0  0  0  0  0
  -30.5520  -27.6414   21.4863 N   0  3  0  0  0  0  0  0  0  0  0  0
  -23.1620   -9.7175   21.2950 O   0  0  0  0  0  0  0  0  0  0  0  0
  -22.3273  -28.5761   20.1923 O   0  0  0  0  0  0  0  0  0  0  0  0
  -25.4857  -30.5963   20.5632 O   0  0  0  0  0  0  0  0  0  0  0  0
  -28.2762  -26.7900   20.0678 O   0  0  0  0  0  0  0  0  0  0  0  0
  -27.2656  -15.9340   18.3927 O   0  0  0  0  0  0  0  0  0  0  0  0
  -21.0124  -17.1393   22.2294 O   0  0  0  0  0  0  0  0  0  0  0  0
  -23.5971  -22.6211   22.7281 O   0  0  0  0  0  0  0  0  0  1  0  0
  -20.1265  -18.0271   27.5988 F   0  0  0  0  0  0  0  0  0  0  0  0
  -21.5711  -19.5937   23.3722 F   0  0  0  0  0  0  0  0  0  0  0  0
  1  2  1  0  0  0  0
  1  5  2  0  0  0  0
  2  6  2  0  0  0  0
  3 10  2  0  0  0  0
  3 18  1  0  0  0  0
  4 11  1  0  0  0  0
  4 18  2  0  0  0  0
  5 20  1  0  0  0  0
  6 22  1  0  0  0  0
  7 12  2  0  0  0  0
  7 21  1  0  0  0  0
  8  9  2  0  0  0  0
  8 24  1  0  0  0  0
  9 25  1  0  0  0  0
 10 27  1  0  0  0  0
 11 27  2  0  0  0  0
 12 28  1  0  0  0  0
 13 14  2  0  0  0  0
 13 29  1  0  0  0  0
 14 30  1  0  0  0  0
 15 23  1  0  0  0  0
 15 28  2  0  0  0  0
 16 25  2  0  0  0  0
 16 26  1  0  0  0  0
 17 30  2  0  0  0  0
 17 31  1  0  0  0  0
 18 32  1  0  0  0  0
 19 32  1  0  0  0  0
 19 33  2  0  0  0  0
 19 36  1  0  0  0  0
 20 22  2  0  0  0  0
 20 41  1  0  0  0  0
 21 23  2  0  0  0  0
 21 42  1  0  0  0  0
 22 54  1  0  0  0  0
 23 43  1  0  0  0  0
 24 26  2  0  0  0  0
 24 57  1  0  0  0  0
 25 68  1  0  0  0  0
 26 73  1  0  0  0  0
 27 82  1  0  0  0  0
 28 83  1  0  0  0  0
 29 31  2  0  0  0  0
 29 82  1  0  0  0  0
 30 84  1  0  0  0  0
 31 85  1  0  0  0  0
 32 66  2  0  0  0  0
 33 67  1  0  0  0  0
 33 71  1  0  0  0  0
 34 35  2  0  0  0  0
 34 44  1  0  0  0  0
 34 45  1  0  0  0  0
 35 83  1  0  0  0  0
 36 72  1  0  0  0  0
 36 77  2  0  0  0  0
 37 55  1  0  0  0  0
 37 74  1  0  0  0  0
 37 78  2  0  0  0  0
 38 63  1  0  0  0  0
 38 69  1  0  0  0  0
 38 79  2  0  0  0  0
 39 64  1  0  0  0  0
 39 75  1  0  0  0  0
 39 80  2  0  0  0  0
 40 70  1  0  0  0  0
 40 73  1  0  0  0  0
 40 81  2  0  0  0  0
 41 46  1  0  0  0  0
 42 55  1  0  0  0  0
 43 69  1  0  0  0  0
 44 47  1  0  0  0  0
 45 68  1  0  0  0  0
 46 49  1  0  0  0  0
 47 51  1  0  0  0  0
 48 50  1  0  0  0  0
 48 52  1  0  0  0  0
 49 54  1  0  0  0  0
 50 56  1  0  0  0  0
 51 68  1  0  0  0  0
 52 70  1  0  0  0  0
 53 56  1  0  0  0  0
 53 70  1  0  0  0  0
 54 74  1  0  0  0  0
 55 69  1  0  0  0  0
 56 67  1  0  0  0  0
 58 64  1  0  0  0  0
 59 65  1  0  0  0  0
 60 65  1  0  0  0  0
 61 65  1  0  0  0  0
 62 76  1  0  0  0  0
 63 65  1  0  0  0  0
 63 75  1  0  0  0  0
 64 76  1  0  0  0  0
 66 67  1  0  0  0  0
M  CHG  1  76   1
M  ISO  4  35 101  40 100  73 100  83 101
M  END
> <Batch ID>
0119

> <Smiles>
CNC(C)C(=O)NC(C(=O)N1Cc2cc([101O:1][101CH:1]=C3CCCN(c4ccc(C)c([100NH:0][100C:0](=O)N5CCCC(n6nc(-c7ccc(Oc8ccc(F)cc8F)cc7)c(C(N)=O)c6N)C5)c4)C3)ccc2CC1C(=O)NC1CCCc2ccccc21)C(C)(C)C

> <Shape>
0.228

> <Color>
0.095

> <Negative vol penalty>
0.000

$$$$

  -OEChem-04052301513D

 85 93  0     1  0  0  0  0  0999 V2000
  -29.6966  -35.3806   22.6990 C   0  0  0  0  0  0  0  0  0  0  0  0
  -29.6528  -33.9955   22.5766 C   0  0  0  0  0  0  0  0  0  0  0  0
  -23.0971  -10.0189   21.1967 C   0  0  0  0  0  0  0  0  0  0  0  0
  -22.6412  -12.3915   21.1870 C   0  0  0  0  0  0  0  0  0  0  0  0
  -29.2189  -18.8600   19.2159 C   0  0  0  0  0  0  0  0  0  0  0  0
  -29.8341  -17.6092   19.1665 C   0  0  0  0  0  0  0  0  0  0  0  0
  -28.5955  -36.0696   23.2058 C   0  0  0  0  0  0  0  0  0  0  0  0
  -28.5083  -33.2984   22.9620 C   0  0  0  0  0  0  0  0  0  0  0  0
  -27.1529  -29.7727   19.5890 C   0  0  0  0  0  0  0  0  0  0  0  0
  -21.9548   -9.8025   21.9673 C   0  0  0  0  0  0  0  0  0  0  0  0
  -21.4988  -12.1751   21.9576 C   0  0  0  0  0  0  0  0  0  0  0  0
  -27.8724  -28.5785   19.5922 C   0  0  0  0  0  0  0  0  0  0  0  0
  -21.0455  -10.0957   25.2094 C   0  0  0  0  0  0  0  0  0  0  0  0
  -21.1539   -9.2321   26.2993 C   0  0  0  0  0  0  0  0  0  0  0  0
  -27.7541  -18.2111   17.4075 C   0  0  0  0  0  0  0  0  0  0  0  0
  -26.1054  -27.5242   20.8512 C   0  0  0  0  0  0  0  0  0  0  0  0
  -19.4647   -7.8004   25.3329 C   0  0  0  0  0  0  0  0  0  0  0  0
  -23.4404  -11.3134   20.8066 C   0  0  0  0  0  0  0  0  0  0  0  0
  -28.1788  -19.1610   18.3364 C   0  0  0  0  0  0  0  0  0  0  0  0
  -29.4094  -16.6593   18.2375 C   0  0  0  0  0  0  0  0  0  0  0  0
  -24.7093  -11.5491   18.6061 C   0  0  0  0  0  0  0  0  0  0  0  0
  -27.4333  -35.3815   23.5885 C   0  0  0  0  0  0  0  0  0  0  0  0
  -25.9070  -29.8547   20.2274 C   0  0  0  0  0  0  0  0  0  0  0  0
  -27.3911  -33.9787   23.4756 C   0  0  0  0  0  0  0  0  0  0  0  0
  -25.3709  -28.7198   20.8525 C   0  0  0  0  0  0  0  0  0  0  0  0
  -28.3694  -16.9602   17.3580 C   0  0  0  0  0  0  0  0  0  0  0  0
  -21.1556  -10.8806   22.3477 C   0  0  0  0  0  0  0  0  0  0  0  0
  -27.3500  -27.4548   20.2258 C   0  0  0  0  0  0  0  0  0  0  0  0
  -20.1466   -9.8117   24.1812 C   0  0  0  0  0  0  0  0  0  0  0  0
  -20.3635   -8.0844   26.3611 C   0  0  0  0  0  0  0  0  0  0  0  0
  -19.3563   -8.6641   24.2430 C   0  0  0  0  0  0  0  0  0  0  0  0
  -24.6206  -11.5376   20.0111 C   0  0  0  0  0  0  0  0  0  0  0  0
  -26.0340  -11.8035   18.3478 C   0  0  0  0  0  0  0  0  0  0  0  0
  -27.5295  -20.4826   18.3898 C   0  0  0  0  0  0  0  0  0  0  0  0
  -28.0742  -21.5755   18.9442 C   0  0  0  0  0  0  0  0  0  0  0  0
  -28.0451  -23.9822   19.5935 C   0  0  0  0  0  0  0  0  0  0  0  0
  -27.4738  -25.1888   19.6596 C   0  0  0  0  0  0  0  0  0  1  0  0
  -30.0691  -15.3608   18.2079 C   0  0  0  0  0  0  0  0  0  0  0  0
  -23.6856  -11.3480   17.6226 C   0  0  0  0  0  0  0  0  0  0  0  0
  -27.3191  -22.8585   18.9462 C   0  0  0  0  0  0  0  0  0  0  0  0
  -30.6531  -14.7665   19.4323 C   0  0  0  0  0  0  0  0  0  0  0  0
  -24.7342  -31.5477   22.6485 C   0  0  0  0  0  0  0  0  0  0  0  0
  -21.9433  -30.1518   21.7630 C   0  0  0  0  0  0  0  0  0  0  0  0
  -20.3686  -27.5510   20.2128 C   0  0  0  0  0  0  0  0  0  0  0  0
  -26.2858  -36.1651   24.1751 C   0  0  0  0  0  0  0  0  0  0  0  0
  -25.1312  -31.1428   20.1920 C   0  0  0  0  0  0  0  0  0  0  0  0
  -24.0285  -28.7499   21.5347 C   0  0  0  0  0  0  0  0  0  0  0  0
  -24.9725  -35.3877   24.2104 C   0  0  0  0  0  0  0  0  0  0  0  0
  -30.0501  -11.8364   21.4091 C   0  0  0  0  0  0  0  0  0  0  0  0
  -25.1990  -33.9815   24.7563 C   0  0  0  0  0  0  0  0  0  0  0  0
  -28.5796  -11.5224   21.1355 C   0  0  0  0  0  0  0  0  0  0  0  0
  -30.3091  -13.3395   21.4107 C   0  0  0  0  0  0  0  0  0  0  0  0
  -28.3950  -13.7169   19.8802 C   0  0  0  0  0  0  0  0  0  0  0  0
  -26.1584  -33.1895   23.8598 C   0  0  1  0  0  0  0  0  0  0  0  0
  -24.1055  -31.2537   21.3159 C   0  0  1  0  0  0  0  0  0  0  0  0
  -28.0999  -12.2072   19.8433 C   0  0  2  0  0  0  0  0  0  0  0  0
  -27.8951  -15.9604   16.3540 C   0  0  0  0  0  0  0  0  0  0  0  0
  -18.0805  -26.6672   19.6832 C   0  0  0  0  0  0  0  0  0  0  0  0
  -21.6361  -29.2225   24.6530 C   0  0  0  0  0  0  0  0  0  0  0  0
  -19.8998  -27.5964   23.8723 C   0  0  0  0  0  0  0  0  0  0  0  0
  -19.5266  -30.0469   23.5925 C   0  0  0  0  0  0  0  0  0  0  0  0
  -20.8566  -27.7059   17.2978 C   0  0  0  0  0  0  0  0  0  0  0  0
  -21.2228  -28.8764   22.1280 C   0  0  1  0  0  0  0  0  0  0  0  0
  -19.2429  -27.5176   19.1949 C   0  0  2  0  0  0  0  0  0  0  0  0
  -20.5975  -28.9352   23.5503 C   0  0  0  0  0  0  0  0  0  0  0  0
  -25.7955  -11.7663   20.6037 N   0  0  0  0  0  0  0  0  0  0  0  0
  -30.1876  -14.6444   17.1243 N   0  0  0  0  0  0  0  0  0  0  0  0
  -26.6350  -11.9238   19.5662 N   0  0  0  0  0  0  0  0  0  0  0  0
  -29.8096  -13.9633   20.1869 N   0  0  0  0  0  0  0  0  0  0  0  0
  -23.3111  -30.0344   21.4783 N   0  0  0  0  0  0  0  0  0  0  0  0
  -26.7319  -11.9336   17.1995 N   0  0  0  0  0  0  0  0  0  0  0  0
  -22.3780  -11.0977   18.0607 N   0  0  0  0  0  0  0  0  0  0  0  0
  -25.4709  -32.7165   22.6774 N   0  0  0  0  0  0  0  0  0  0  0  0
  -20.2584  -28.6326   21.0609 N   0  0  0  0  0  0  0  0  0  0  0  0
  -19.7284  -26.9532   17.9039 N   0  3  0  0  0  0  0  0  0  0  0  0
  -23.9266  -11.3726   16.3918 O   0  0  0  0  0  0  0  0  0  0  0  0
  -26.2021  -22.9793   18.4587 O   0  0  0  0  0  0  0  0  0  0  0  0
  -31.8241  -15.0496   19.6491 O   0  0  0  0  0  0  0  0  0  0  0  0
  -24.5625  -30.7725   23.5819 O   0  0  0  0  0  0  0  0  0  0  0  0
  -21.3140  -31.2121   21.7248 O   0  0  0  0  0  0  0  0  0  0  0  0
  -21.2549  -26.7006   20.2539 O   0  0  0  0  0  0  0  0  0  0  0  0
  -20.0407  -10.6697   23.0994 O   0  0  0  0  0  0  0  0  0  0  0  0
  -28.0506  -26.2882   20.2309 O   0  0  0  0  0  0  0  0  0  1  0  0
  -20.4689   -7.2543   27.4070 F   0  0  0  0  0  0  0  0  0  0  0  0
  -18.4918   -8.3853   23.2576 F   0  0  0  0  0  0  0  0  0  0  0  0
  1  2  1  0  0  0  0
  1  7  2  0  0  0  0
  2  8  2  0  0  0  0
  3 10  2  0  0  0  0
  3 18  1  0  0  0  0
  4 11  1  0  0  0  0
  4 18  2  0  0  0  0
  5  6  2  0  0  0  0
  5 19  1  0  0  0  0
  6 20  1  0  0  0  0
  7 22  1  0  0  0  0
  8 24  1  0  0  0  0
  9 12  2  0  0  0  0
  9 23  1  0  0  0  0
 10 27  1  0  0  0  0
 11 27  2  0  0  0  0
 12 28  1  0  0  0  0
 13 14  2  0  0  0  0
 13 29  1  0  0  0  0
 14 30  1  0  0  0  0
 15 19  2  0  0  0  0
 15 26  1  0  0  0  0
 16 25  1  0  0  0  0
 16 28  2  0  0  0  0
 17 30  2  0  0  0  0
 17 31  1  0  0  0  0
 18 32  1  0  0  0  0
 19 34  1  0  0  0  0
 20 26  2  0  0  0  0
 20 38  1  0  0  0  0
 21 32  1  0  0  0  0
 21 33  2  0  0  0  0
 21 39  1  0  0  0  0
 22 24  2  0  0  0  0
 22 45  1  0  0  0  0
 23 25  2  0  0  0  0
 23 46  1  0  0  0  0
 24 54  1  0  0  0  0
 25 47  1  0  0  0  0
 26 57  1  0  0  0  0
 27 82  1  0  0  0  0
 28 83  1  0  0  0  0
 29 31  2  0  0  0  0
 29 82  1  0  0  0  0
 30 84  1  0  0  0  0
 31 85  1  0  0  0  0
 32 66  2  0  0  0  0
 33 68  1  0  0  0  0
 33 71  1  0  0  0  0
 34 35  2  0  0  0  0
 35 40  1  0  0  0  0
 36 37  2  0  0  0  0
 36 40  1  0  0  0  0
 37 83  1  0  0  0  0
 38 41  1  0  0  0  0
 38 67  2  0  0  0  0
 39 72  1  0  0  0  0
 39 76  2  0  0  0  0
 40 77  2  0  0  0  0
 41 69  1  0  0  0  0
 41 78  2  0  0  0  0
 42 55  1  0  0  0  0
 42 73  1  0  0  0  0
 42 79  2  0  0  0  0
 43 63  1  0  0  0  0
 43 70  1  0  0  0  0
 43 80  2  0  0  0  0
 44 64  1  0  0  0  0
 44 74  1  0  0  0  0
 44 81  2  0  0  0  0
 45 48  1  0  0  0  0
 46 55  1  0  0  0  0
 47 70  1  0  0  0  0
 48 50  1  0  0  0  0
 49 51  1  0  0  0  0
 49 52  1  0  0  0  0
 50 54  1  0  0  0  0
 51 56  1  0  0  0  0
 52 69  1  0  0  0  0
 53 56  1  0  0  0  0
 53 69  1  0  0  0  0
 54 73  1  0  0  0  0
 55 70  1  0  0  0  0
 56 68  1  0  0  0  0
 58 64  1  0  0  0  0
 59 65  1  0  0  0  0
 60 65  1  0  0  0  0
 61 65  1  0  0  0  0
 62 75  1  0  0  0  0
 63 65  1  0  0  0  0
 63 74  1  0  0  0  0
 64 75  1  0  0  0  0
 66 68  1  0  0  0  0
M  CHG  1  75   1
M  ISO  4  37 101  38 100  41 100  83 101
M  END
> <Batch ID>
0119

> <Smiles>
CNC(C)C(=O)NC(C(=O)N1Cc2cc([101O:1][101CH:1]=CC(=O)C=Cc3ccc([100C:0](=N)[100C:0](=O)N4CCCC(n5nc(-c6ccc(Oc7ccc(F)cc7F)cc6)c(C(N)=O)c5N)C4)c(C)c3)ccc2CC1C(=O)NC1CCCc2ccccc21)C(C)(C)C

> <Shape>
0.276

> <Color>
0.087

> <Negative vol penalty>
0.000

$$$$

  -OEChem-04052301513D

 84 92  0     1  0  0  0  0  0999 V2000
  -29.0132  -36.3528   22.2930 C   0  0  0  0  0  0  0  0  0  0  0  0
  -29.0000  -34.9676   22.4217 C   0  0  0  0  0  0  0  0  0  0  0  0
  -26.5293   -8.1870   21.9988 C   0  0  0  0  0  0  0  0  0  0  0  0
  -24.6441   -8.0264   20.4963 C   0  0  0  0  0  0  0  0  0  0  0  0
  -27.8592  -37.0877   22.5620 C   0  0  0  0  0  0  0  0  0  0  0  0
  -27.8332  -34.3166   22.8205 C   0  0  0  0  0  0  0  0  0  0  0  0
  -26.8564  -30.2009   20.0363 C   0  0  0  0  0  0  0  0  0  0  0  0
  -26.0425   -7.1006   22.7257 C   0  0  0  0  0  0  0  0  0  0  0  0
  -24.1574   -6.9399   21.2232 C   0  0  0  0  0  0  0  0  0  0  0  0
  -27.5883  -29.0495   20.3234 C   0  0  0  0  0  0  0  0  0  0  0  0
  -22.4734   -6.4272   24.1098 C   0  0  0  0  0  0  0  0  0  0  0  0
  -21.1128   -6.4099   24.4163 C   0  0  0  0  0  0  0  0  0  0  0  0
  -29.8543  -22.1434   19.6841 C   0  0  0  0  0  0  0  0  0  0  0  0
  -27.6062  -20.5542   19.2337 C   0  0  0  0  0  0  0  0  0  0  0  0
  -25.7226  -28.1854   21.5851 C   0  0  0  0  0  0  0  0  0  0  0  0
  -20.8658   -4.3353   23.2029 C   0  0  0  0  0  0  0  0  0  0  0  0
  -25.8301   -8.6499   20.8841 C   0  0  0  0  0  0  0  0  0  0  0  0
  -28.6163  -22.7389   19.4426 C   0  0  0  0  0  0  0  0  0  0  0  0
  -28.8443  -19.9587   19.4751 C   0  0  0  0  0  0  0  0  0  0  0  0
  -27.2110   -9.7353   19.0341 C   0  0  0  0  0  0  0  0  0  0  0  0
  -26.6749  -36.4445   22.9549 C   0  0  0  0  0  0  0  0  0  0  0  0
  -25.5539  -30.3582   20.5313 C   0  0  0  0  0  0  0  0  0  0  0  0
  -26.6627  -35.0437   23.0962 C   0  0  0  0  0  0  0  0  0  0  0  0
  -24.9754  -29.3386   21.3007 C   0  0  0  0  0  0  0  0  0  0  0  0
  -29.9683  -20.7533   19.7003 C   0  0  0  0  0  0  0  0  0  0  0  0
  -27.4923  -21.9443   19.2174 C   0  0  0  0  0  0  0  0  0  0  0  0
  -24.8566   -6.4771   22.3379 C   0  0  0  0  0  0  0  0  0  0  0  0
  -27.0225  -28.0428   21.1003 C   0  0  0  0  0  0  0  0  0  0  0  0
  -23.0303   -5.3986   23.3497 C   0  0  0  0  0  0  0  0  0  0  0  0
  -20.3090   -5.3640   23.9629 C   0  0  0  0  0  0  0  0  0  0  0  0
  -22.2264   -4.3527   22.8963 C   0  0  0  0  0  0  0  0  0  0  0  0
  -26.3321   -9.7725   20.1331 C   0  0  0  0  0  0  0  0  0  0  0  0
  -27.3776  -11.0527   18.6829 C   0  0  0  0  0  0  0  0  0  0  0  0
  -28.9313  -18.5043   19.4871 C   0  0  0  0  0  0  0  0  0  0  0  0
  -28.5284  -24.2087   19.4316 C   0  0  0  0  0  0  0  0  0  0  0  0
  -28.2396  -17.6876   20.3077 C   0  0  0  0  0  0  0  0  0  0  0  0
  -28.8144  -25.0092   20.4702 C   0  0  0  0  0  0  0  0  0  0  0  0
  -27.8221   -8.6106   18.3882 C   0  0  0  0  0  0  0  0  0  0  0  0
  -28.4305  -16.2279   20.1907 C   0  0  0  0  0  0  0  0  0  0  0  0
  -24.1307  -32.4230   22.4846 C   0  0  0  0  0  0  0  0  0  0  0  0
  -21.4570  -30.8053   21.6147 C   0  0  0  0  0  0  0  0  0  0  0  0
  -20.0742  -27.9206   20.4260 C   0  0  0  0  0  0  0  0  0  0  0  0
  -25.4659  -37.2853   23.2804 C   0  0  0  0  0  0  0  0  0  0  0  0
  -24.7679  -31.5944   20.1903 C   0  0  0  0  0  0  0  0  0  0  0  0
  -23.5732  -29.4499   21.8391 C   0  0  0  0  0  0  0  0  0  0  0  0
  -24.1658  -36.4870   23.3354 C   0  0  0  0  0  0  0  0  0  0  0  0
  -24.9126  -15.2012   20.1473 C   0  0  0  0  0  0  0  0  0  0  0  0
  -24.3575  -35.2098   24.1471 C   0  0  0  0  0  0  0  0  0  0  0  0
  -25.0507  -13.6819   20.0972 C   0  0  0  0  0  0  0  0  0  0  0  0
  -26.0279  -15.8500   20.9657 C   0  0  0  0  0  0  0  0  0  0  0  0
  -27.5355  -13.9483   20.4647 C   0  0  0  0  0  0  0  0  0  0  0  0
  -25.4094  -34.2991   23.5024 C   0  0  1  0  0  0  0  0  0  0  0  0
  -23.6373  -31.8744   21.1756 C   0  0  1  0  0  0  0  0  0  0  0  0
  -26.4504  -13.2785   19.6072 C   0  0  1  0  0  0  0  0  0  0  0  0
  -31.3104  -20.1492   19.9625 C   0  0  0  0  0  0  0  0  0  0  0  0
  -25.4915  -23.0658   20.2303 C   0  0  0  0  0  0  0  0  0  0  0  0
  -17.8597  -26.8859   19.8576 C   0  0  0  0  0  0  0  0  0  0  0  0
  -20.8855  -30.4029   24.5848 C   0  0  0  0  0  0  0  0  0  0  0  0
  -19.2546  -28.6101   23.9568 C   0  0  0  0  0  0  0  0  0  0  0  0
  -18.8770  -30.9575   23.2017 C   0  0  0  0  0  0  0  0  0  0  0  0
  -20.8385  -27.5627   17.5893 C   0  0  0  0  0  0  0  0  0  0  0  0
  -26.1499  -22.5479   18.9557 C   0  0  0  0  0  0  0  0  0  0  0  0
  -28.6965  -26.4987   20.4154 C   0  0  0  0  0  0  0  0  0  1  0  0
  -20.7220  -29.5949   22.1381 C   0  0  1  0  0  0  0  0  0  0  0  0
  -19.0522  -27.6697   19.3319 C   0  0  2  0  0  0  0  0  0  0  0  0
  -19.9619  -29.8898   23.4620 C   0  0  0  0  0  0  0  0  0  0  0  0
  -25.9660  -11.0150   20.4588 N   0  0  0  0  0  0  0  0  0  0  0  0
  -26.6182  -11.7709   19.5591 N   0  0  0  0  0  0  0  0  0  0  0  0
  -27.3550  -15.4034   20.5161 N   0  0  0  0  0  0  0  0  0  0  0  0
  -22.8474  -30.6805   21.4836 N   0  0  0  0  0  0  0  0  0  0  0  0
  -28.0981  -11.6552   17.7133 N   0  0  0  0  0  0  0  0  0  0  0  0
  -27.5432   -7.3268   18.8767 N   0  0  0  0  0  0  0  0  0  0  0  0
  -24.8454  -33.5999   22.3678 N   0  0  0  0  0  0  0  0  0  0  0  0
  -19.8682  -29.1334   21.0489 N   0  0  0  0  0  0  0  0  0  0  0  0
  -19.6673  -26.8971   18.2158 N   0  3  0  0  0  0  0  0  0  0  0  0
  -28.6057   -8.7412   17.4174 O   0  0  0  0  0  0  0  0  0  0  0  0
  -29.5340  -15.8270   19.8160 O   0  0  0  0  0  0  0  0  0  0  0  0
  -23.8803  -31.8237   23.5237 O   0  0  0  0  0  0  0  0  0  0  0  0
  -20.8201  -31.8214   21.3259 O   0  0  0  0  0  0  0  0  0  0  0  0
  -20.9637  -27.1191   20.7030 O   0  0  0  0  0  0  0  0  0  0  0  0
  -24.3814   -5.4168   23.0468 O   0  0  0  0  0  0  0  0  0  0  0  0
  -27.7349  -26.9183   21.3827 O   0  0  0  0  0  0  0  0  0  1  0  0
  -19.0027   -5.3467   24.2587 F   0  0  0  0  0  0  0  0  0  0  0  0
  -22.7559   -3.3611   22.1667 F   0  0  0  0  0  0  0  0  0  0  0  0
  1  2  1  0  0  0  0
  1  5  2  0  0  0  0
  2  6  2  0  0  0  0
  3  8  2  0  0  0  0
  3 17  1  0  0  0  0
  4  9  1  0  0  0  0
  4 17  2  0  0  0  0
  5 21  1  0  0  0  0
  6 23  1  0  0  0  0
  7 10  2  0  0  0  0
  7 22  1  0  0  0  0
  8 27  1  0  0  0  0
  9 27  2  0  0  0  0
 10 28  1  0  0  0  0
 11 12  2  0  0  0  0
 11 29  1  0  0  0  0
 12 30  1  0  0  0  0
 13 18  1  0  0  0  0
 13 25  2  0  0  0  0
 14 19  2  0  0  0  0
 14 26  1  0  0  0  0
 15 24  1  0  0  0  0
 15 28  2  0  0  0  0
 16 30  2  0  0  0  0
 16 31  1  0  0  0  0
 17 32  1  0  0  0  0
 18 26  2  0  0  0  0
 18 35  1  0  0  0  0
 19 25  1  0  0  0  0
 19 34  1  0  0  0  0
 20 32  1  0  0  0  0
 20 33  2  0  0  0  0
 20 38  1  0  0  0  0
 21 23  2  0  0  0  0
 21 43  1  0  0  0  0
 22 24  2  0  0  0  0
 22 44  1  0  0  0  0
 23 52  1  0  0  0  0
 24 45  1  0  0  0  0
 25 55  1  0  0  0  0
 26 62  1  0  0  0  0
 27 81  1  0  0  0  0
 28 82  1  0  0  0  0
 29 31  2  0  0  0  0
 29 81  1  0  0  0  0
 30 83  1  0  0  0  0
 31 84  1  0  0  0  0
 32 67  2  0  0  0  0
 33 68  1  0  0  0  0
 33 71  1  0  0  0  0
 34 36  2  0  0  0  0
 35 37  2  0  0  0  0
 36 39  1  0  0  0  0
 37 63  1  0  0  0  0
 38 72  1  0  0  0  0
 38 76  2  0  0  0  0
 39 69  1  0  0  0  0
 39 77  2  0  0  0  0
 40 53  1  0  0  0  0
 40 73  1  0  0  0  0
 40 78  2  0  0  0  0
 41 64  1  0  0  0  0
 41 70  1  0  0  0  0
 41 79  2  0  0  0  0
 42 65  1  0  0  0  0
 42 74  1  0  0  0  0
 42 80  2  0  0  0  0
 43 46  1  0  0  0  0
 44 53  1  0  0  0  0
 45 70  1  0  0  0  0
 46 48  1  0  0  0  0
 47 49  1  0  0  0  0
 47 50  1  0  0  0  0
 48 52  1  0  0  0  0
 49 54  1  0  0  0  0
 50 69  1  0  0  0  0
 51 54  1  0  0  0  0
 51 69  1  0  0  0  0
 52 73  1  0  0  0  0
 53 70  1  0  0  0  0
 54 68  1  0  0  0  0
 56 62  1  0  0  0  0
 57 65  1  0  0  0  0
 58 66  1  0  0  0  0
 59 66  1  0  0  0  0
 60 66  1  0  0  0  0
 61 75  1  0  0  0  0
 63 82  1  0  0  0  0
 64 66  1  0  0  0  0
 64 74  1  0  0  0  0
 65 75  1  0  0  0  0
 67 68  1  0  0  0  0
M  CHG  1  75   1
M  ISO  4  36 100  39 100  63 101  82 101
M  END
> <Batch ID>
0119

> <Smiles>
CCc1cc(C=[100CH:0][100C:0](=O)N2CCCC(n3nc(-c4ccc(Oc5ccc(F)cc5F)cc4)c(C(N)=O)c3N)C2)c(C)cc1C=C[101CH2:1][101O:1]c1ccc2c(c1)CN(C(=O)C(NC(=O)C(C)NC)C(C)(C)C)C(C(=O)NC1CCCc3ccccc31)C2

> <Shape>
0.294

> <Color>
0.068

> <Negative vol penalty>
0.000

$$$$

  -OEChem-04052301513D

 87 96  0     1  0  0  0  0  0999 V2000
  -25.0495  -35.9990   23.5850 C   0  0  0  0  0  0  0  0  0  0  0  0
  -25.5456  -35.0915   22.6546 C   0  0  0  0  0  0  0  0  0  0  0  0
  -24.6542   -9.1283   21.9136 C   0  0  0  0  0  0  0  0  0  0  0  0
  -22.9833  -10.3943   20.7125 C   0  0  0  0  0  0  0  0  0  0  0  0
  -28.3914  -20.2501   15.4747 C   0  0  0  0  0  0  0  0  0  0  0  0
  -24.9004  -35.6179   24.9178 C   0  0  0  0  0  0  0  0  0  0  0  0
  -25.8938  -33.8025   23.0567 C   0  0  0  0  0  0  0  0  0  0  0  0
  -25.3129  -28.6475   19.8019 C   0  0  0  0  0  0  0  0  0  0  0  0
  -29.0128  -21.1244   14.5830 C   0  0  0  0  0  0  0  0  0  0  0  0
  -23.8203   -8.0104   21.8955 C   0  0  0  0  0  0  0  0  0  0  0  0
  -22.1493   -9.2763   20.6944 C   0  0  0  0  0  0  0  0  0  0  0  0
  -26.2198  -27.9117   19.0404 C   0  0  0  0  0  0  0  0  0  0  0  0
  -21.1143   -6.8944   23.5856 C   0  0  0  0  0  0  0  0  0  0  0  0
  -20.9767   -6.1702   24.7697 C   0  0  0  0  0  0  0  0  0  0  0  0
  -29.8282  -21.0392   17.2496 C   0  0  0  0  0  0  0  0  0  0  0  0
  -26.6173  -26.4610   20.9263 C   0  0  0  0  0  0  0  0  0  0  0  0
  -21.8450   -4.2033   23.6678 C   0  0  0  0  0  0  0  0  0  0  0  0
  -24.2357  -10.3203   21.3221 C   0  0  0  0  0  0  0  0  0  0  0  0
  -28.7991  -20.2075   16.8080 C   0  0  0  0  0  0  0  0  0  0  0  0
  -30.4496  -21.9134   16.3579 C   0  0  0  0  0  0  0  0  0  0  0  0
  -25.5983  -12.1435   22.4741 C   0  0  0  0  0  0  0  0  0  0  0  0
  -25.2379  -34.3206   25.3346 C   0  0  0  0  0  0  0  0  0  0  0  0
  -25.0591  -28.3015   21.1370 C   0  0  0  0  0  0  0  0  0  0  0  0
  -25.7504  -33.4041   24.3966 C   0  0  0  0  0  0  0  0  0  0  0  0
  -25.7048  -27.1924   21.7019 C   0  0  0  0  0  0  0  0  0  0  0  0
  -30.0419  -21.9560   15.0246 C   0  0  0  0  0  0  0  0  0  0  0  0
  -22.5679   -8.0843   21.2859 C   0  0  0  0  0  0  0  0  0  0  0  0
  -26.8744  -26.8201   19.6034 C   0  0  0  0  0  0  0  0  0  0  0  0
  -21.6172   -6.2730   22.4425 C   0  0  0  0  0  0  0  0  0  0  0  0
  -21.3421   -4.8247   24.8108 C   0  0  0  0  0  0  0  0  0  0  0  0
  -21.9826   -4.9275   22.4836 C   0  0  0  0  0  0  0  0  0  0  0  0
  -25.0965  -11.4757   21.3410 C   0  0  0  0  0  0  0  0  0  0  0  0
  -26.3584  -13.1661   21.9614 C   0  0  0  0  0  0  0  0  0  0  0  0
  -30.0276  -25.8515   18.1885 C   0  0  0  0  0  0  0  0  0  0  0  0
  -28.1502  -19.2949   17.7365 C   0  0  0  0  0  0  0  0  0  0  0  0
  -29.0722  -26.4841   18.8774 C   0  0  0  0  0  0  0  0  0  1  0  0
  -27.4388  -18.2008   17.3909 C   0  0  0  0  0  0  0  0  0  0  0  0
  -31.5320  -22.7792   16.8495 C   0  0  0  0  0  0  0  0  0  0  0  0
  -25.3956  -11.8643   23.8658 C   0  0  0  0  0  0  0  0  0  0  0  0
  -26.8472  -17.3651   18.4549 C   0  0  0  0  0  0  0  0  0  0  0  0
  -25.4375  -29.7507   23.9406 C   0  0  0  0  0  0  0  0  0  0  0  0
  -23.8790  -27.1363   25.0622 C   0  0  0  0  0  0  0  0  0  0  0  0
  -23.0215  -23.8628   24.6194 C   0  0  0  0  0  0  0  0  0  0  0  0
  -25.1038  -33.9694   26.7952 C   0  0  0  0  0  0  0  0  0  0  0  0
  -24.0579  -29.0891   21.9369 C   0  0  0  0  0  0  0  0  0  0  0  0
  -25.4522  -26.7674   23.1246 C   0  0  0  0  0  0  0  0  0  0  0  0
  -31.4770  -26.2332   18.1726 C   0  0  0  0  0  0  0  0  0  0  0  0
  -29.8301  -24.5855   17.4143 C   0  0  0  0  0  0  0  0  0  0  0  0
  -25.1435  -32.4678   27.0668 C   0  0  0  0  0  0  0  0  0  0  0  0
  -27.9351  -14.0762   17.2586 C   0  0  0  0  0  0  0  0  0  0  0  0
  -26.2925  -31.8173   26.3029 C   0  0  0  0  0  0  0  0  0  0  0  0
  -27.2868  -13.1587   18.2919 C   0  0  0  0  0  0  0  0  0  0  0  0
  -32.1602  -24.8903   17.9828 C   0  0  0  0  0  0  0  0  0  0  0  0
  -27.0752  -15.3046   16.9654 C   0  0  0  0  0  0  0  0  0  0  0  0
  -26.0562  -15.1600   19.2195 C   0  0  0  0  0  0  0  0  0  0  0  0
  -26.1159  -31.9891   24.7894 C   0  0  1  0  0  0  0  0  0  0  0  0
  -24.2614  -28.9589   23.4432 C   0  0  1  0  0  0  0  0  0  0  0  0
  -26.9262  -13.9412   19.5646 C   0  0  1  0  0  0  0  0  0  0  0  0
  -30.6913  -22.8823   14.0485 C   0  0  0  0  0  0  0  0  0  0  0  0
  -21.7734  -21.9867   25.7238 C   0  0  0  0  0  0  0  0  0  0  0  0
  -26.1928  -26.7487   27.0132 C   0  0  0  0  0  0  0  0  0  0  0  0
  -25.3831  -24.4115   27.4007 C   0  0  0  0  0  0  0  0  0  0  0  0
  -23.9259  -26.3484   27.9906 C   0  0  0  0  0  0  0  0  0  0  0  0
  -21.1208  -23.6436   22.3615 C   0  0  0  0  0  0  0  0  0  0  0  0
  -24.2974  -25.7727   25.5569 C   0  0  1  0  0  0  0  0  0  0  0  0
  -21.6895  -23.1450   24.7420 C   0  0  2  0  0  0  0  0  0  0  0  0
  -24.9562  -25.8293   26.9641 C   0  0  0  0  0  0  0  0  0  0  0  0
  -25.5033  -12.0278   20.1949 N   0  0  0  0  0  0  0  0  0  0  0  0
  -26.2688  -13.0534   20.6052 N   0  0  0  0  0  0  0  0  0  0  0  0
  -31.1777  -24.0273   17.3433 N   0  0  0  0  0  0  0  0  0  0  0  0
  -26.6946  -16.0029   18.2024 N   0  0  0  0  0  0  0  0  0  0  0  0
  -24.4693  -27.5731   23.8678 N   0  0  0  0  0  0  0  0  0  0  0  0
  -27.0878  -14.1419   22.5429 N   0  0  0  0  0  0  0  0  0  0  0  0
  -24.3131  -12.4702   24.5181 N   0  0  0  0  0  0  0  0  0  0  0  0
  -25.1331  -31.0537   24.2858 N   0  0  0  0  0  0  0  0  0  0  0  0
  -23.1080  -24.9307   25.4874 N   0  0  0  0  0  0  0  0  0  0  0  0
  -21.2663  -22.6088   23.4175 N   0  3  0  0  0  0  0  0  0  0  0  0
  -32.6766  -22.3337   16.8016 O   0  0  0  0  0  0  0  0  0  0  0  0
  -26.1616  -11.1130   24.5157 O   0  0  0  0  0  0  0  0  0  0  0  0
  -26.5192  -17.9258   19.5022 O   0  0  0  0  0  0  0  0  0  0  0  0
  -26.5393  -29.2185   24.0077 O   0  0  0  0  0  0  0  0  0  0  0  0
  -23.0534  -27.7868   25.7079 O   0  0  0  0  0  0  0  0  0  0  0  0
  -23.8990  -23.5092   23.8349 O   0  0  0  0  0  0  0  0  0  0  0  0
  -21.7540   -6.9936   21.2678 O   0  0  0  0  0  0  0  0  0  0  0  0
  -27.7606  -26.1007   18.8626 O   0  0  0  0  0  0  0  0  0  1  0  0
  -21.2113   -4.1298   25.9485 F   0  0  0  0  0  0  0  0  0  0  0  0
  -22.4675   -4.3255   21.3889 F   0  0  0  0  0  0  0  0  0  0  0  0
  1  2  1  0  0  0  0
  1  6  2  0  0  0  0
  2  7  2  0  0  0  0
  3 10  2  0  0  0  0
  3 18  1  0  0  0  0
  4 11  1  0  0  0  0
  4 18  2  0  0  0  0
  5  9  2  0  0  0  0
  5 19  1  0  0  0  0
  6 22  1  0  0  0  0
  7 24  1  0  0  0  0
  8 12  2  0  0  0  0
  8 23  1  0  0  0  0
  9 26  1  0  0  0  0
 10 27  1  0  0  0  0
 11 27  2  0  0  0  0
 12 28  1  0  0  0  0
 13 14  2  0  0  0  0
 13 29  1  0  0  0  0
 14 30  1  0  0  0  0
 15 19  2  0  0  0  0
 15 20  1  0  0  0  0
 16 25  1  0  0  0  0
 16 28  2  0  0  0  0
 17 30  2  0  0  0  0
 17 31  1  0  0  0  0
 18 32  1  0  0  0  0
 19 35  1  0  0  0  0
 20 26  2  0  0  0  0
 20 38  1  0  0  0  0
 21 32  1  0  0  0  0
 21 33  2  0  0  0  0
 21 39  1  0  0  0  0
 22 24  2  0  0  0  0
 22 44  1  0  0  0  0
 23 25  2  0  0  0  0
 23 45  1  0  0  0  0
 24 56  1  0  0  0  0
 25 46  1  0  0  0  0
 26 59  1  0  0  0  0
 27 84  1  0  0  0  0
 28 85  1  0  0  0  0
 29 31  2  0  0  0  0
 29 84  1  0  0  0  0
 30 86  1  0  0  0  0
 31 87  1  0  0  0  0
 32 68  2  0  0  0  0
 33 69  1  0  0  0  0
 33 73  1  0  0  0  0
 34 36  2  0  0  0  0
 34 47  1  0  0  0  0
 34 48  1  0  0  0  0
 35 37  2  0  0  0  0
 36 85  1  0  0  0  0
 37 40  1  0  0  0  0
 38 70  1  0  0  0  0
 38 78  2  0  0  0  0
 39 74  1  0  0  0  0
 39 79  2  0  0  0  0
 40 71  1  0  0  0  0
 40 80  2  0  0  0  0
 41 57  1  0  0  0  0
 41 75  1  0  0  0  0
 41 81  2  0  0  0  0
 42 65  1  0  0  0  0
 42 72  1  0  0  0  0
 42 82  2  0  0  0  0
 43 66  1  0  0  0  0
 43 76  1  0  0  0  0
 43 83  2  0  0  0  0
 44 49  1  0  0  0  0
 45 57  1  0  0  0  0
 46 72  1  0  0  0  0
 47 53  1  0  0  0  0
 48 70  1  0  0  0  0
 49 51  1  0  0  0  0
 50 52  1  0  0  0  0
 50 54  1  0  0  0  0
 51 56  1  0  0  0  0
 52 58  1  0  0  0  0
 53 70  1  0  0  0  0
 54 71  1  0  0  0  0
 55 58  1  0  0  0  0
 55 71  1  0  0  0  0
 56 75  1  0  0  0  0
 57 72  1  0  0  0  0
 58 69  1  0  0  0  0
 60 66  1  0  0  0  0
 61 67  1  0  0  0  0
 62 67  1  0  0  0  0
 63 67  1  0  0  0  0
 64 77  1  0  0  0  0
 65 67  1  0  0  0  0
 65 76  1  0  0  0  0
 66 77  1  0  0  0  0
 68 69  1  0  0  0  0
M  CHG  1  77   1
M  ISO  4  36 101  37 100  40 100  85 101
M  END
> <Batch ID>
0119

> <Smiles>
CNC(C)C(=O)NC(C(=O)N1Cc2cc([101O:1][101CH:1]=C3CCN(C(=O)c4cc(C=[100CH:0][100C:0](=O)N5CCCC(n6nc(-c7ccc(Oc8ccc(F)cc8F)cc7)c(C(N)=O)c6N)C5)ccc4C)C3)ccc2CC1C(=O)NC1CCCc2ccccc21)C(C)(C)C

> <Shape>
0.254

> <Color>
0.091

> <Negative vol penalty>
0.000

$$$$

  -OEChem-04052301513D

 85 93  0     1  0  0  0  0  0999 V2000
  -18.5544  -25.0066   21.3717 C   0  0  0  0  0  0  0  0  0  0  0  0
  -19.8519  -25.1707   20.8973 C   0  0  0  0  0  0  0  0  0  0  0  0
  -24.2838  -12.7969   19.6518 C   0  0  0  0  0  0  0  0  0  0  0  0
  -25.7469  -13.7906   21.2978 C   0  0  0  0  0  0  0  0  0  0  0  0
  -29.9011  -22.8975   18.6125 C   0  0  0  0  0  0  0  0  0  0  0  0
  -17.8109  -26.1190   21.7637 C   0  0  0  0  0  0  0  0  0  0  0  0
  -20.4063  -26.4474   20.8137 C   0  0  0  0  0  0  0  0  0  0  0  0
  -25.1532  -26.6231   22.5688 C   0  0  0  0  0  0  0  0  0  0  0  0
  -28.7097  -22.2632   18.2610 C   0  0  0  0  0  0  0  0  0  0  0  0
  -24.9229  -11.5693   19.8249 C   0  0  0  0  0  0  0  0  0  0  0  0
  -26.3860  -12.5629   21.4708 C   0  0  0  0  0  0  0  0  0  0  0  0
  -26.1592  -26.1394   21.7334 C   0  0  0  0  0  0  0  0  0  0  0  0
  -24.8768   -9.0297   22.0567 C   0  0  0  0  0  0  0  0  0  0  0  0
  -24.0766   -7.8932   22.1744 C   0  0  0  0  0  0  0  0  0  0  0  0
  -26.7056  -28.4000   21.0926 C   0  0  0  0  0  0  0  0  0  0  0  0
  -28.5062  -21.3999   20.5083 C   0  0  0  0  0  0  0  0  0  0  0  0
  -25.1300   -6.9488   20.2159 C   0  0  0  0  0  0  0  0  0  0  0  0
  -24.6959  -13.9077   20.3883 C   0  0  0  0  0  0  0  0  0  0  0  0
  -30.3952  -22.7830   19.9120 C   0  0  0  0  0  0  0  0  0  0  0  0
  -22.9170  -15.6591   20.9135 C   0  0  0  0  0  0  0  0  0  0  0  0
  -18.3598  -27.4091   21.6939 C   0  0  0  0  0  0  0  0  0  0  0  0
  -24.9083  -28.0005   22.6642 C   0  0  0  0  0  0  0  0  0  0  0  0
  -19.6689  -27.5782   21.2039 C   0  0  0  0  0  0  0  0  0  0  0  0
  -25.6976  -28.8987   21.9318 C   0  0  0  0  0  0  0  0  0  0  0  0
  -29.6977  -22.0342   20.8598 C   0  0  0  0  0  0  0  0  0  0  0  0
  -28.0122  -21.5144   19.2089 C   0  0  0  0  0  0  0  0  0  0  0  0
  -25.9740  -11.4522   20.7344 C   0  0  0  0  0  0  0  0  0  0  0  0
  -26.9337  -27.0277   20.9930 C   0  0  0  0  0  0  0  0  0  0  0  0
  -25.8035   -9.1258   21.0186 C   0  0  0  0  0  0  0  0  0  0  0  0
  -24.2033   -6.8528   21.2540 C   0  0  0  0  0  0  0  0  0  0  0  0
  -25.9301   -8.0853   20.0982 C   0  0  0  0  0  0  0  0  0  0  0  0
  -24.0365  -15.1763   20.2095 C   0  0  0  0  0  0  0  0  0  0  0  0
  -22.6817  -16.9003   20.3745 C   0  0  0  0  0  0  0  0  0  0  0  0
  -33.4254  -26.4502   21.4700 C   0  0  0  0  0  0  0  0  0  0  0  0
  -31.6501  -23.4621   20.2507 C   0  0  0  0  0  0  0  0  0  0  0  0
  -33.0990  -25.2393   21.0010 C   0  0  0  0  0  0  0  0  0  0  0  0
  -22.1578  -15.0409   21.9609 C   0  0  0  0  0  0  0  0  0  0  0  0
  -31.7586  -24.7224   20.7240 C   0  0  0  0  0  0  0  0  0  0  0  0
  -22.4357  -29.8893   22.0143 C   0  0  0  0  0  0  0  0  0  0  0  0
  -24.3127  -32.1601   23.3718 C   0  0  0  0  0  0  0  0  0  0  0  0
  -27.4541  -33.2131   24.1897 C   0  0  0  0  0  0  0  0  0  0  0  0
  -26.1768  -20.8776   17.6051 C   0  0  0  0  0  0  0  0  0  0  0  0
  -17.5008  -28.5856   22.0844 C   0  0  0  0  0  0  0  0  0  0  0  0
  -23.8370  -28.5078   23.5902 C   0  0  0  0  0  0  0  0  0  0  0  0
  -25.4882  -30.3879   22.0143 C   0  0  0  0  0  0  0  0  0  0  0  0
  -18.2945  -29.8686   22.3174 C   0  0  0  0  0  0  0  0  0  0  0  0
  -23.2150  -19.3820   16.3136 C   0  0  0  0  0  0  0  0  0  0  0  0
  -19.2957  -30.0895   21.1880 C   0  0  0  0  0  0  0  0  0  0  0  0
  -22.9842  -18.1812   17.2339 C   0  0  0  0  0  0  0  0  0  0  0  0
  -24.7013  -19.6185   16.0518 C   0  0  0  0  0  0  0  0  0  0  0  0
  -25.3035  -18.5268   18.1766 C   0  0  0  0  0  0  0  0  0  0  0  0
  -20.3139  -28.9447   21.1217 C   0  0  1  0  0  0  0  0  0  0  0  0
  -23.3352  -29.8995   23.2178 C   0  0  1  0  0  0  0  0  0  0  0  0
  -23.8244  -18.2885   18.5216 C   0  0  2  0  0  0  0  0  0  0  0  0
  -30.1969  -21.8901   22.2616 C   0  0  0  0  0  0  0  0  0  0  0  0
  -28.6739  -35.1276   25.2595 C   0  0  0  0  0  0  0  0  0  0  0  0
  -23.9090  -33.8251   20.8470 C   0  0  0  0  0  0  0  0  0  0  0  0
  -25.8556  -35.2344   21.5491 C   0  0  0  0  0  0  0  0  0  0  0  0
  -23.8156  -35.1263   22.9807 C   0  0  0  0  0  0  0  0  0  0  0  0
  -28.5466  -31.4766   26.3227 C   0  0  0  0  0  0  0  0  0  0  0  0
  -30.5602  -25.6297   20.9435 C   0  0  0  0  0  0  0  0  0  0  0  0
  -30.2754  -26.5305   19.7383 C   0  0  0  0  0  0  0  0  0  0  0  0
  -29.0484  -27.4018   19.9711 C   0  0  0  0  0  0  0  0  0  1  0  0
  -25.3573  -33.1257   22.8667 C   0  0  1  0  0  0  0  0  0  0  0  0
  -28.0256  -33.7699   25.4812 C   0  0  2  0  0  0  0  0  0  0  0  0
  -24.7373  -34.2998   22.0576 C   0  0  0  0  0  0  0  0  0  0  0  0
  -24.4813  -16.0402   19.2932 N   0  0  0  0  0  0  0  0  0  0  0  0
  -23.6370  -17.0784   19.4176 N   0  0  0  0  0  0  0  0  0  0  0  0
  -24.4244  -30.8345   22.9289 N   0  0  0  0  0  0  0  0  0  0  0  0
  -25.4329  -19.7139   17.3169 N   0  0  0  0  0  0  0  0  0  0  0  0
  -21.7527  -17.8458   20.6305 N   0  0  0  0  0  0  0  0  0  0  0  0
  -22.5358  -13.7631   22.3953 N   0  0  0  0  0  0  0  0  0  0  0  0
  -26.8033  -20.8677   18.8508 N   0  0  0  0  0  0  0  0  0  0  0  0
  -21.3131  -29.0964   22.1576 N   0  0  0  0  0  0  0  0  0  0  0  0
  -26.1247  -33.5446   24.0347 N   0  0  0  0  0  0  0  0  0  0  0  0
  -29.0530  -32.8432   26.0349 N   0  3  0  0  0  0  0  0  0  0  0  0
  -21.1634  -15.5981   22.4845 O   0  0  0  0  0  0  0  0  0  0  0  0
  -22.7370  -30.5530   21.0291 O   0  0  0  0  0  0  0  0  0  0  0  0
  -23.4341  -32.5654   24.1370 O   0  0  0  0  0  0  0  0  0  0  0  0
  -28.1214  -32.5536   23.3958 O   0  0  0  0  0  0  0  0  0  0  0  0
  -26.2303  -21.8253   16.8170 O   0  0  0  0  0  0  0  0  0  0  0  0
  -26.5977  -10.2543   20.9036 O   0  0  0  0  0  0  0  0  0  0  0  0
  -27.9158  -26.5582   20.1763 O   0  0  0  0  0  0  0  0  0  1  0  0
  -23.4359   -5.7609   21.3680 F   0  0  0  0  0  0  0  0  0  0  0  0
  -26.8195   -8.1714   19.0995 F   0  0  0  0  0  0  0  0  0  0  0  0
  1  2  1  0  0  0  0
  1  6  2  0  0  0  0
  2  7  2  0  0  0  0
  3 10  2  0  0  0  0
  3 18  1  0  0  0  0
  4 11  1  0  0  0  0
  4 18  2  0  0  0  0
  5  9  2  0  0  0  0
  5 19  1  0  0  0  0
  6 21  1  0  0  0  0
  7 23  1  0  0  0  0
  8 12  2  0  0  0  0
  8 22  1  0  0  0  0
  9 26  1  0  0  0  0
 10 27  1  0  0  0  0
 11 27  2  0  0  0  0
 12 28  1  0  0  0  0
 13 14  2  0  0  0  0
 13 29  1  0  0  0  0
 14 30  1  0  0  0  0
 15 24  1  0  0  0  0
 15 28  2  0  0  0  0
 16 25  1  0  0  0  0
 16 26  2  0  0  0  0
 17 30  2  0  0  0  0
 17 31  1  0  0  0  0
 18 32  1  0  0  0  0
 19 25  2  0  0  0  0
 19 35  1  0  0  0  0
 20 32  1  0  0  0  0
 20 33  2  0  0  0  0
 20 37  1  0  0  0  0
 21 23  2  0  0  0  0
 21 43  1  0  0  0  0
 22 24  2  0  0  0  0
 22 44  1  0  0  0  0
 23 52  1  0  0  0  0
 24 45  1  0  0  0  0
 25 55  1  0  0  0  0
 26 73  1  0  0  0  0
 27 82  1  0  0  0  0
 28 83  1  0  0  0  0
 29 31  2  0  0  0  0
 29 82  1  0  0  0  0
 30 84  1  0  0  0  0
 31 85  1  0  0  0  0
 32 67  2  0  0  0  0
 33 68  1  0  0  0  0
 33 71  1  0  0  0  0
 34 36  2  0  0  0  0
 35 38  2  0  0  0  0
 36 38  1  0  0  0  0
 37 72  1  0  0  0  0
 37 77  2  0  0  0  0
 38 61  1  0  0  0  0
 39 53  1  0  0  0  0
 39 74  1  0  0  0  0
 39 78  2  0  0  0  0
 40 64  1  0  0  0  0
 40 69  1  0  0  0  0
 40 79  2  0  0  0  0
 41 65  1  0  0  0  0
 41 75  1  0  0  0  0
 41 80  2  0  0  0  0
 42 70  1  0  0  0  0
 42 73  1  0  0  0  0
 42 81  2  0  0  0  0
 43 46  1  0  0  0  0
 44 53  1  0  0  0  0
 45 69  1  0  0  0  0
 46 48  1  0  0  0  0
 47 49  1  0  0  0  0
 47 50  1  0  0  0  0
 48 52  1  0  0  0  0
 49 54  1  0  0  0  0
 50 70  1  0  0  0  0
 51 54  1  0  0  0  0
 51 70  1  0  0  0  0
 52 74  1  0  0  0  0
 53 69  1  0  0  0  0
 54 68  1  0  0  0  0
 56 65  1  0  0  0  0
 57 66  1  0  0  0  0
 58 66  1  0  0  0  0
 59 66  1  0  0  0  0
 60 76  1  0  0  0  0
 61 62  1  0  0  0  0
 62 63  1  0  0  0  0
 63 83  1  0  0  0  0
 64 66  1  0  0  0  0
 64 75  1  0  0  0  0
 65 76  1  0  0  0  0
 67 68  1  0  0  0  0
M  CHG  1  76   1
M  ISO  4  42 100  63 101  73 100  83 101
M  END
> <Batch ID>
0119

> <Smiles>
C=CC(=Cc1ccc([100NH:0][100C:0](=O)N2CCCC(n3nc(-c4ccc(Oc5ccc(F)cc5F)cc4)c(C(N)=O)c3N)C2)cc1C)CC[101CH2:1][101O:1]c1ccc2c(c1)CN(C(=O)C(NC(=O)C(C)NC)C(C)(C)C)C(C(=O)NC1CCCc3ccccc31)C2

> <Shape>
0.261

> <Color>
0.089

> <Negative vol penalty>
0.000

$$$$

  -OEChem-04052301513D

 85 93  0     1  0  0  0  0  0999 V2000
  -20.3660  -34.8815   22.1932 C   0  0  0  0  0  0  0  0  0  0  0  0
  -21.6147  -34.3816   21.8379 C   0  0  0  0  0  0  0  0  0  0  0  0
  -23.2683  -10.1704   21.4498 C   0  0  0  0  0  0  0  0  0  0  0  0
  -24.8525   -8.4567   22.0749 C   0  0  0  0  0  0  0  0  0  0  0  0
  -19.5169  -34.1244   22.9993 C   0  0  0  0  0  0  0  0  0  0  0  0
  -22.0154  -33.1246   22.2893 C   0  0  0  0  0  0  0  0  0  0  0  0
  -25.4747  -29.0634   19.2817 C   0  0  0  0  0  0  0  0  0  0  0  0
  -22.2741   -9.2017   21.3134 C   0  0  0  0  0  0  0  0  0  0  0  0
  -23.8582   -7.4879   21.9386 C   0  0  0  0  0  0  0  0  0  0  0  0
  -26.8335  -28.7580   19.3470 C   0  0  0  0  0  0  0  0  0  0  0  0
  -21.6467   -4.6070   22.1053 C   0  0  0  0  0  0  0  0  0  0  0  0
  -21.5396   -3.6413   23.1060 C   0  0  0  0  0  0  0  0  0  0  0  0
  -30.4815  -19.5832   21.0297 C   0  0  0  0  0  0  0  0  0  0  0  0
  -28.6834  -20.2443   19.5578 C   0  0  0  0  0  0  0  0  0  0  0  0
  -26.3472  -26.9469   20.8644 C   0  0  0  0  0  0  0  0  0  0  0  0
  -21.1255   -5.3760   24.7358 C   0  0  0  0  0  0  0  0  0  0  0  0
  -24.5576   -9.7979   21.8305 C   0  0  0  0  0  0  0  0  0  0  0  0
  -29.7893  -20.5782   20.3395 C   0  0  0  0  0  0  0  0  0  0  0  0
  -25.9122  -11.5237   23.1321 C   0  0  0  0  0  0  0  0  0  0  0  0
  -19.9035  -32.8534   23.4528 C   0  0  0  0  0  0  0  0  0  0  0  0
  -24.5416  -28.3185   20.0170 C   0  0  0  0  0  0  0  0  0  0  0  0
  -21.1712  -32.3503   23.1033 C   0  0  0  0  0  0  0  0  0  0  0  0
  -24.9770  -27.2433   20.8047 C   0  0  0  0  0  0  0  0  0  0  0  0
  -30.0678  -18.2542   20.9382 C   0  0  0  0  0  0  0  0  0  0  0  0
  -28.2696  -18.9153   19.4663 C   0  0  0  0  0  0  0  0  0  0  0  0
  -22.5690   -7.8604   21.5578 C   0  0  0  0  0  0  0  0  0  0  0  0
  -27.2702  -27.7014   20.1407 C   0  0  0  0  0  0  0  0  0  0  0  0
  -21.4932   -5.9573   22.4199 C   0  0  0  0  0  0  0  0  0  0  0  0
  -28.9618  -17.9202   20.1565 C   0  0  0  0  0  0  0  0  0  0  0  0
  -21.2790   -4.0257   24.4213 C   0  0  0  0  0  0  0  0  0  0  0  0
  -21.2326   -6.3418   23.7351 C   0  0  0  0  0  0  0  0  0  0  0  0
  -25.5852  -10.7981   21.9709 C   0  0  0  0  0  0  0  0  0  0  0  0
  -26.9479  -12.3394   22.7470 C   0  0  0  0  0  0  0  0  0  0  0  0
  -30.2279  -21.9815   20.4352 C   0  0  0  0  0  0  0  0  0  0  0  0
  -29.9133  -22.9493   19.5595 C   0  0  0  0  0  0  0  0  0  0  0  0
  -30.3809  -24.3116   19.6977 C   0  0  0  0  0  0  0  0  0  0  0  0
  -30.0721  -25.2853   18.8282 C   0  0  0  0  0  0  0  0  0  0  0  0
  -25.3316  -11.4655   24.4418 C   0  0  0  0  0  0  0  0  0  0  0  0
  -22.4748  -28.9782   22.3401 C   0  0  0  0  0  0  0  0  0  0  0  0
  -21.5537  -25.9049   21.8621 C   0  0  0  0  0  0  0  0  0  0  0  0
  -22.3534  -22.7811   20.7445 C   0  0  0  0  0  0  0  0  0  0  0  0
  -29.1405  -15.8749   19.0192 C   0  0  0  0  0  0  0  0  0  0  0  0
  -18.9707  -32.0919   24.3610 C   0  0  0  0  0  0  0  0  0  0  0  0
  -23.0766  -28.6439   19.9149 C   0  0  0  0  0  0  0  0  0  0  0  0
  -24.0134  -26.3999   21.5976 C   0  0  0  0  0  0  0  0  0  0  0  0
  -19.3191  -30.6112   24.4887 C   0  0  0  0  0  0  0  0  0  0  0  0
  -29.7533  -12.3592   18.5473 C   0  0  0  0  0  0  0  0  0  0  0  0
  -20.8148  -30.4335   24.7294 C   0  0  0  0  0  0  0  0  0  0  0  0
  -28.7230  -11.7006   19.4643 C   0  0  0  0  0  0  0  0  0  0  0  0
  -29.2121  -13.6454   17.9311 C   0  0  0  0  0  0  0  0  0  0  0  0
  -27.6883  -13.9801   19.8594 C   0  0  0  0  0  0  0  0  0  0  0  0
  -21.6318  -30.9806   23.5527 C   0  0  1  0  0  0  0  0  0  0  0  0
  -22.2687  -28.1431   21.1081 C   0  0  1  0  0  0  0  0  0  0  0  0
  -28.2101  -12.6937   20.5225 C   0  0  1  0  0  0  0  0  0  0  0  0
  -30.8204  -17.2029   21.6856 C   0  0  0  0  0  0  0  0  0  0  0  0
  -27.0839  -18.5773   18.6237 C   0  0  0  0  0  0  0  0  0  0  0  0
  -21.4079  -20.4675   20.5194 C   0  0  0  0  0  0  0  0  0  0  0  0
  -21.9680  -25.4474   24.8503 C   0  0  0  0  0  0  0  0  0  0  0  0
  -21.9434  -22.9837   24.4057 C   0  0  0  0  0  0  0  0  0  0  0  0
  -19.9251  -24.3604   23.9019 C   0  0  0  0  0  0  0  0  0  0  0  0
  -22.6222  -22.8326   17.7976 C   0  0  0  0  0  0  0  0  0  0  0  0
  -30.5479  -26.7053   18.9648 C   0  0  0  0  0  0  0  0  0  0  0  0
  -29.3847  -27.6866   19.0522 C   0  0  0  0  0  0  0  0  0  1  0  0
  -21.9659  -24.5656   22.4237 C   0  0  1  0  0  0  0  0  0  0  0  0
  -21.6102  -21.8135   19.8412 C   0  0  2  0  0  0  0  0  0  0  0  0
  -21.4692  -24.3562   23.8821 C   0  0  0  0  0  0  0  0  0  0  0  0
  -26.3510  -11.1243   20.9264 N   0  0  0  0  0  0  0  0  0  0  0  0
  -27.1695  -12.0638   21.4298 N   0  0  0  0  0  0  0  0  0  0  0  0
  -22.5920  -26.7615   21.4698 N   0  0  0  0  0  0  0  0  0  0  0  0
  -28.7003  -14.5486   18.9610 N   0  0  0  0  0  0  0  0  0  0  0  0
  -27.6816  -13.2585   23.4100 N   0  0  0  0  0  0  0  0  0  0  0  0
  -24.2754  -10.5717   24.6654 N   0  0  0  0  0  0  0  0  0  0  0  0
  -21.6085  -30.0496   22.4450 N   0  0  0  0  0  0  0  0  0  0  0  0
  -21.4867  -23.5620   21.4794 N   0  0  0  0  0  0  0  0  0  0  0  0
  -22.3717  -21.5942   18.5790 N   0  3  0  0  0  0  0  0  0  0  0  0
  -25.7267  -12.1965   25.3816 O   0  0  0  0  0  0  0  0  0  0  0  0
  -23.3537  -28.6722   23.1374 O   0  0  0  0  0  0  0  0  0  0  0  0
  -20.3544  -26.1780   21.7681 O   0  0  0  0  0  0  0  0  0  0  0  0
  -23.5801  -22.8358   20.7959 O   0  0  0  0  0  0  0  0  0  0  0  0
  -29.9580  -16.3674   18.2427 O   0  0  0  0  0  0  0  0  0  0  0  0
  -21.5990   -6.9149   21.4251 O   0  0  0  0  0  0  0  0  0  0  0  0
  -28.5470  -16.5878   20.0647 O   0  0  0  0  0  0  0  0  0  0  0  0
  -28.5960  -27.4015   20.2067 O   0  0  0  0  0  0  0  0  0  1  0  0
  -21.1746   -3.0981   25.3819 F   0  0  0  0  0  0  0  0  0  0  0  0
  -21.0830   -7.6374   24.0432 F   0  0  0  0  0  0  0  0  0  0  0  0
  1  2  1  0  0  0  0
  1  5  2  0  0  0  0
  2  6  2  0  0  0  0
  3  8  2  0  0  0  0
  3 17  1  0  0  0  0
  4  9  1  0  0  0  0
  4 17  2  0  0  0  0
  5 20  1  0  0  0  0
  6 22  1  0  0  0  0
  7 10  2  0  0  0  0
  7 21  1  0  0  0  0
  8 26  1  0  0  0  0
  9 26  2  0  0  0  0
 10 27  1  0  0  0  0
 11 12  2  0  0  0  0
 11 28  1  0  0  0  0
 12 30  1  0  0  0  0
 13 18  1  0  0  0  0
 13 24  2  0  0  0  0
 14 18  2  0  0  0  0
 14 25  1  0  0  0  0
 15 23  1  0  0  0  0
 15 27  2  0  0  0  0
 16 30  2  0  0  0  0
 16 31  1  0  0  0  0
 17 32  1  0  0  0  0
 18 34  1  0  0  0  0
 19 32  1  0  0  0  0
 19 33  2  0  0  0  0
 19 38  1  0  0  0  0
 20 22  2  0  0  0  0
 20 43  1  0  0  0  0
 21 23  2  0  0  0  0
 21 44  1  0  0  0  0
 22 52  1  0  0  0  0
 23 45  1  0  0  0  0
 24 29  1  0  0  0  0
 24 55  1  0  0  0  0
 25 29  2  0  0  0  0
 25 56  1  0  0  0  0
 26 81  1  0  0  0  0
 27 83  1  0  0  0  0
 28 31  2  0  0  0  0
 28 81  1  0  0  0  0
 29 82  1  0  0  0  0
 30 84  1  0  0  0  0
 31 85  1  0  0  0  0
 32 67  2  0  0  0  0
 33 68  1  0  0  0  0
 33 71  1  0  0  0  0
 34 35  2  0  0  0  0
 35 36  1  0  0  0  0
 36 37  2  0  0  0  0
 37 62  1  0  0  0  0
 38 72  1  0  0  0  0
 38 76  2  0  0  0  0
 39 53  1  0  0  0  0
 39 73  1  0  0  0  0
 39 77  2  0  0  0  0
 40 64  1  0  0  0  0
 40 69  1  0  0  0  0
 40 78  2  0  0  0  0
 41 65  1  0  0  0  0
 41 74  1  0  0  0  0
 41 79  2  0  0  0  0
 42 70  1  0  0  0  0
 42 80  2  0  0  0  0
 42 82  1  0  0  0  0
 43 46  1  0  0  0  0
 44 53  1  0  0  0  0
 45 69  1  0  0  0  0
 46 48  1  0  0  0  0
 47 49  1  0  0  0  0
 47 50  1  0  0  0  0
 48 52  1  0  0  0  0
 49 54  1  0  0  0  0
 50 70  1  0  0  0  0
 51 54  1  0  0  0  0
 51 70  1  0  0  0  0
 52 73  1  0  0  0  0
 53 69  1  0  0  0  0
 54 68  1  0  0  0  0
 57 65  1  0  0  0  0
 58 66  1  0  0  0  0
 59 66  1  0  0  0  0
 60 66  1  0  0  0  0
 61 75  1  0  0  0  0
 62 63  1  0  0  0  0
 63 83  1  0  0  0  0
 64 66  1  0  0  0  0
 64 74  1  0  0  0  0
 65 75  1  0  0  0  0
 67 68  1  0  0  0  0
M  CHG  1  75   1
M  ISO  4  42 100  63 101  82 100  83 101
M  END
> <Batch ID>
0119

> <Smiles>
CNC(C)C(=O)NC(C(=O)N1Cc2cc([101O:1][101CH2:1]CC=CC=Cc3cc(C)c([100O:0][100C:0](=O)N4CCCC(n5nc(-c6ccc(Oc7ccc(F)cc7F)cc6)c(C(N)=O)c5N)C4)c(C)c3)ccc2CC1C(=O)NC1CCCc2ccccc21)C(C)(C)C

> <Shape>
0.295

> <Color>
0.145

> <Negative vol penalty>
0.000

$$$$

  -OEChem-04052301513D

 89 97  0     1  0  0  0  0  0999 V2000
  -32.0398  -14.5879   21.5105 C   0  0  0  0  0  0  0  0  0  0  0  0
  -31.0754  -15.5396   21.8262 C   0  0  0  0  0  0  0  0  0  0  0  0
  -28.2745  -26.0210   18.2443 C   0  0  0  0  0  0  0  0  0  0  0  0
  -26.2838  -24.7766   18.8151 C   0  0  0  0  0  0  0  0  0  0  0  0
  -31.7124  -13.5119   20.6867 C   0  0  0  0  0  0  0  0  0  0  0  0
  -29.7830  -15.4162   21.3172 C   0  0  0  0  0  0  0  0  0  0  0  0
  -24.5629  -16.9977   24.1020 C   0  0  0  0  0  0  0  0  0  0  0  0
  -29.0445  -24.8721   18.4249 C   0  0  0  0  0  0  0  0  0  0  0  0
  -27.0538  -23.6277   18.9956 C   0  0  0  0  0  0  0  0  0  0  0  0
  -23.7525  -18.1278   24.0038 C   0  0  0  0  0  0  0  0  0  0  0  0
  -29.0843  -22.3372   21.3711 C   0  0  0  0  0  0  0  0  0  0  0  0
  -28.8353  -21.5615   22.5033 C   0  0  0  0  0  0  0  0  0  0  0  0
  -20.3854  -27.2672   23.6423 C   0  0  0  0  0  0  0  0  0  0  0  0
  -22.3455  -16.9739   22.4201 C   0  0  0  0  0  0  0  0  0  0  0  0
  -18.8672  -28.3772   22.1256 C   0  0  0  0  0  0  0  0  0  0  0  0
  -28.2917  -19.6770   21.0926 C   0  0  0  0  0  0  0  0  0  0  0  0
  -26.8941  -25.9733   18.4395 C   0  0  0  0  0  0  0  0  0  0  0  0
  -19.7192  -26.0609   23.4263 C   0  0  0  0  0  0  0  0  0  0  0  0
  -25.4851  -27.5945   17.0633 C   0  0  0  0  0  0  0  0  0  0  0  0
  -30.4128  -13.3701   20.1751 C   0  0  0  0  0  0  0  0  0  0  0  0
  -24.2765  -15.8489   23.3505 C   0  0  0  0  0  0  0  0  0  0  0  0
  -29.4382  -14.3380   20.4846 C   0  0  0  0  0  0  0  0  0  0  0  0
  -23.1524  -15.8296   22.5125 C   0  0  0  0  0  0  0  0  0  0  0  0
  -19.9593  -28.4254   22.9920 C   0  0  0  0  0  0  0  0  0  0  0  0
  -18.2011  -27.1709   21.9095 C   0  0  0  0  0  0  0  0  0  0  0  0
  -18.6271  -26.0127   22.5599 C   0  0  0  0  0  0  0  0  0  0  0  0
  -28.4342  -23.6754   18.8005 C   0  0  0  0  0  0  0  0  0  0  0  0
  -22.6452  -18.1171   23.1606 C   0  0  0  0  0  0  0  0  0  0  0  0
  -28.9369  -21.7828   20.0996 C   0  0  0  0  0  0  0  0  0  0  0  0
  -28.4390  -20.2314   22.3641 C   0  0  0  0  0  0  0  0  0  0  0  0
  -28.5406  -20.4527   19.9604 C   0  0  0  0  0  0  0  0  0  0  0  0
  -26.0983  -27.1600   18.2537 C   0  0  0  0  0  0  0  0  0  0  0  0
  -24.8527  -28.7635   17.4098 C   0  0  0  0  0  0  0  0  0  0  0  0
  -16.8595  -28.6754   18.9883 C   0  0  0  0  0  0  0  0  0  0  0  0
  -20.1959  -24.8577   24.1283 C   0  0  0  0  0  0  0  0  0  0  0  0
  -17.3863  -27.5998   19.5844 C   0  0  0  0  0  0  0  0  0  0  0  0
  -21.1005  -23.9893   23.6492 C   0  0  0  0  0  0  0  0  0  0  0  0
  -25.4869  -26.9951   15.7609 C   0  0  0  0  0  0  0  0  0  0  0  0
  -25.7950  -14.2124   21.0878 C   0  0  0  0  0  0  0  0  0  0  0  0
  -21.2536  -21.5012   23.6165 C   0  0  0  0  0  0  0  0  0  0  0  0
  -23.3109  -12.1583   21.4520 C   0  0  0  0  0  0  0  0  0  0  0  0
  -20.0778  -11.6657   22.4272 C   0  0  0  0  0  0  0  0  0  0  0  0
  -22.7696  -30.8873   22.6061 C   0  0  0  0  0  0  0  0  0  0  0  0
  -30.1186  -12.2156   19.2503 C   0  0  0  0  0  0  0  0  0  0  0  0
  -25.1452  -14.6288   23.4879 C   0  0  0  0  0  0  0  0  0  0  0  0
  -22.7899  -14.6144   21.6999 C   0  0  0  0  0  0  0  0  0  0  0  0
  -28.6270  -11.9555   19.0561 C   0  0  0  0  0  0  0  0  0  0  0  0
  -25.1682  -32.4262   20.4718 C   0  0  0  0  0  0  0  0  0  0  0  0
  -27.8880  -13.2623   18.7859 C   0  0  0  0  0  0  0  0  0  0  0  0
  -25.6233  -31.2903   19.5539 C   0  0  0  0  0  0  0  0  0  0  0  0
  -24.8993  -31.9315   21.8912 C   0  0  0  0  0  0  0  0  0  0  0  0
  -24.4183  -29.6595   21.0663 C   0  0  0  0  0  0  0  0  0  0  0  0
  -28.0188  -14.2255   19.9720 C   0  0  1  0  0  0  0  0  0  0  0  0
  -25.0542  -13.6922   22.2872 C   0  0  1  0  0  0  0  0  0  0  0  0
  -24.6480  -30.0991   19.6101 C   0  0  2  0  0  0  0  0  0  0  0  0
  -16.5831  -24.6564   23.0787 C   0  0  0  0  0  0  0  0  0  0  0  0
  -18.3125   -9.8879   22.5705 C   0  0  0  0  0  0  0  0  0  0  0  0
  -22.8595  -12.3674   18.4416 C   0  0  0  0  0  0  0  0  0  0  0  0
  -20.5857  -11.3772   18.7841 C   0  0  0  0  0  0  0  0  0  0  0  0
  -22.6198  -10.0595   19.3745 C   0  0  0  0  0  0  0  0  0  0  0  0
  -19.8903  -11.9258   25.3694 C   0  0  0  0  0  0  0  0  0  0  0  0
  -17.0344  -27.1474   20.9769 C   0  0  0  0  0  0  0  0  0  0  0  0
  -17.9037  -24.7235   22.3206 C   0  0  0  0  0  0  0  0  0  0  0  0
  -20.6708  -29.7157   23.2235 C   0  0  0  0  0  0  0  0  0  0  0  0
  -21.5507  -22.7728   24.3988 C   0  0  0  0  0  0  0  0  0  0  0  0
  -22.2146  -20.3516   23.8517 C   0  0  0  0  0  0  0  0  0  1  0  0
  -21.9433  -12.0135   20.8293 C   0  0  1  0  0  0  0  0  0  0  0  0
  -19.4404  -10.6003   23.3007 C   0  0  2  0  0  0  0  0  0  0  0  0
  -22.0097  -11.4781   19.3711 C   0  0  0  0  0  0  0  0  0  0  0  0
  -25.8757  -27.9858   19.2796 N   0  0  0  0  0  0  0  0  0  0  0  0
  -25.1156  -28.9510   18.7349 N   0  0  0  0  0  0  0  0  0  0  0  0
  -23.6738  -13.4484   21.8638 N   0  0  0  0  0  0  0  0  0  0  0  0
  -23.9659  -30.8025   21.8747 N   0  0  0  0  0  0  0  0  0  0  0  0
  -24.1030  -29.6391   16.7071 N   0  0  0  0  0  0  0  0  0  0  0  0
  -26.1863  -25.7942   15.5790 N   0  0  0  0  0  0  0  0  0  0  0  0
  -27.1237  -13.8360   21.0404 N   0  0  0  0  0  0  0  0  0  0  0  0
  -21.1675  -11.1767   21.7383 N   0  0  0  0  0  0  0  0  0  0  0  0
  -21.9387  -29.7761   22.5311 N   0  0  0  0  0  0  0  0  0  0  0  0
  -18.8848  -11.2116   24.5411 N   0  3  0  0  0  0  0  0  0  0  0  0
  -24.8998  -27.5176   14.7833 O   0  0  0  0  0  0  0  0  0  0  0  0
  -25.2043  -14.9028   20.2655 O   0  0  0  0  0  0  0  0  0  0  0  0
  -20.2941  -21.3937   22.8538 O   0  0  0  0  0  0  0  0  0  0  0  0
  -24.0279  -11.1621   21.5751 O   0  0  0  0  0  0  0  0  0  0  0  0
  -19.6495  -12.8158   22.3598 O   0  0  0  0  0  0  0  0  0  0  0  0
  -22.4623  -31.8818   23.2719 O   0  0  0  0  0  0  0  0  0  0  0  0
  -29.1852  -22.5540   18.9766 O   0  0  0  0  0  0  0  0  0  0  0  0
  -21.8529  -19.2191   23.0624 O   0  0  0  0  0  0  0  0  0  1  0  0
  -28.2015  -19.4862   23.4515 F   0  0  0  0  0  0  0  0  0  0  0  0
  -28.3985  -19.9142   18.7415 F   0  0  0  0  0  0  0  0  0  0  0  0
  1  2  1  0  0  0  0
  1  5  2  0  0  0  0
  2  6  2  0  0  0  0
  3  8  2  0  0  0  0
  3 17  1  0  0  0  0
  4  9  1  0  0  0  0
  4 17  2  0  0  0  0
  5 20  1  0  0  0  0
  6 22  1  0  0  0  0
  7 10  2  0  0  0  0
  7 21  1  0  0  0  0
  8 27  1  0  0  0  0
  9 27  2  0  0  0  0
 10 28  1  0  0  0  0
 11 12  2  0  0  0  0
 11 29  1  0  0  0  0
 12 30  1  0  0  0  0
 13 18  2  0  0  0  0
 13 24  1  0  0  0  0
 14 23  1  0  0  0  0
 14 28  2  0  0  0  0
 15 24  2  0  0  0  0
 15 25  1  0  0  0  0
 16 30  2  0  0  0  0
 16 31  1  0  0  0  0
 17 32  1  0  0  0  0
 18 26  1  0  0  0  0
 18 35  1  0  0  0  0
 19 32  1  0  0  0  0
 19 33  2  0  0  0  0
 19 38  1  0  0  0  0
 20 22  2  0  0  0  0
 20 44  1  0  0  0  0
 21 23  2  0  0  0  0
 21 45  1  0  0  0  0
 22 53  1  0  0  0  0
 23 46  1  0  0  0  0
 24 64  1  0  0  0  0
 25 26  2  0  0  0  0
 25 62  1  0  0  0  0
 26 63  1  0  0  0  0
 27 86  1  0  0  0  0
 28 87  1  0  0  0  0
 29 31  2  0  0  0  0
 29 86  1  0  0  0  0
 30 88  1  0  0  0  0
 31 89  1  0  0  0  0
 32 70  2  0  0  0  0
 33 71  1  0  0  0  0
 33 74  1  0  0  0  0
 34 36  2  0  0  0  0
 35 37  2  0  0  0  0
 36 62  1  0  0  0  0
 37 65  1  0  0  0  0
 38 75  1  0  0  0  0
 38 80  2  0  0  0  0
 39 54  1  0  0  0  0
 39 76  1  0  0  0  0
 39 81  2  0  0  0  0
 40 65  1  0  0  0  0
 40 66  1  0  0  0  0
 40 82  2  0  0  0  0
 41 67  1  0  0  0  0
 41 72  1  0  0  0  0
 41 83  2  0  0  0  0
 42 68  1  0  0  0  0
 42 77  1  0  0  0  0
 42 84  2  0  0  0  0
 43 73  1  0  0  0  0
 43 78  1  0  0  0  0
 43 85  2  0  0  0  0
 44 47  1  0  0  0  0
 45 54  1  0  0  0  0
 46 72  1  0  0  0  0
 47 49  1  0  0  0  0
 48 50  1  0  0  0  0
 48 51  1  0  0  0  0
 49 53  1  0  0  0  0
 50 55  1  0  0  0  0
 51 73  1  0  0  0  0
 52 55  1  0  0  0  0
 52 73  1  0  0  0  0
 53 76  1  0  0  0  0
 54 72  1  0  0  0  0
 55 71  1  0  0  0  0
 56 63  1  0  0  0  0
 57 68  1  0  0  0  0
 58 69  1  0  0  0  0
 59 69  1  0  0  0  0
 60 69  1  0  0  0  0
 61 79  1  0  0  0  0
 64 78  1  0  0  0  0
 66 87  1  0  0  0  0
 67 69  1  0  0  0  0
 67 77  1  0  0  0  0
 68 79  1  0  0  0  0
 70 71  1  0  0  0  0
M  CHG  1  79   1
M  ISO  4  43 100  66 101  78 100  87 101
M  END
> <Batch ID>
0119

> <Smiles>
C=CCc1cc(C[100NH:0][100C:0](=O)N2CCCC(n3nc(-c4ccc(Oc5ccc(F)cc5F)cc4)c(C(N)=O)c3N)C2)cc(C=CCC(=O)[101CH2:1][101O:1]c2ccc3c(c2)CN(C(=O)C(NC(=O)C(C)NC)C(C)(C)C)C(C(=O)NC2CCCc4ccccc42)C3)c1CC

> <Shape>
0.262

> <Color>
0.087

> <Negative vol penalty>
0.000

$$$$

  -OEChem-04052301513D

 85 93  0     1  0  0  0  0  0999 V2000
  -19.8398  -24.1033   22.0918 C   0  0  0  0  0  0  0  0  0  0  0  0
  -20.9818  -24.5552   21.4384 C   0  0  0  0  0  0  0  0  0  0  0  0
  -29.9494  -12.9729   17.5680 C   0  0  0  0  0  0  0  0  0  0  0  0
  -30.7872  -12.9880   19.8340 C   0  0  0  0  0  0  0  0  0  0  0  0
  -18.9265  -25.0198   22.6112 C   0  0  0  0  0  0  0  0  0  0  0  0
  -21.2107  -25.9240   21.3031 C   0  0  0  0  0  0  0  0  0  0  0  0
  -25.9950  -27.2071   22.3563 C   0  0  0  0  0  0  0  0  0  0  0  0
  -31.0768  -12.2626   17.1558 C   0  0  0  0  0  0  0  0  0  0  0  0
  -31.9147  -12.2776   19.4218 C   0  0  0  0  0  0  0  0  0  0  0  0
  -26.9522  -26.9573   21.3739 C   0  0  0  0  0  0  0  0  0  0  0  0
  -33.5608  -10.1318   15.5732 C   0  0  0  0  0  0  0  0  0  0  0  0
  -33.3669   -9.0455   14.7200 C   0  0  0  0  0  0  0  0  0  0  0  0
  -23.5046  -25.2444   17.7433 C   0  0  0  0  0  0  0  0  0  0  0  0
  -26.0923  -24.5080   17.0053 C   0  0  0  0  0  0  0  0  0  0  0  0
  -26.8668  -29.2748   20.7098 C   0  0  0  0  0  0  0  0  0  0  0  0
  -31.9847   -7.9799   16.3907 C   0  0  0  0  0  0  0  0  0  0  0  0
  -29.8045  -13.3356   18.9071 C   0  0  0  0  0  0  0  0  0  0  0  0
  -23.8634  -23.8969   17.7093 C   0  0  0  0  0  0  0  0  0  0  0  0
  -25.1572  -23.5287   17.3404 C   0  0  0  0  0  0  0  0  0  0  0  0
  -27.4192  -13.5376   19.7886 C   0  0  0  0  0  0  0  0  0  0  0  0
  -19.1492  -26.4006   22.4907 C   0  0  0  0  0  0  0  0  0  0  0  0
  -25.4576  -28.4925   22.5159 C   0  0  0  0  0  0  0  0  0  0  0  0
  -20.2989  -26.8599   21.8202 C   0  0  0  0  0  0  0  0  0  0  0  0
  -25.9048  -29.5389   21.6966 C   0  0  0  0  0  0  0  0  0  0  0  0
  -24.4397  -26.2237   17.4082 C   0  0  0  0  0  0  0  0  0  0  0  0
  -32.0595  -11.9149   18.0827 C   0  0  0  0  0  0  0  0  0  0  0  0
  -27.3862  -27.9905   20.5485 C   0  0  0  0  0  0  0  0  0  0  0  0
  -32.9668  -10.1421   16.8353 C   0  0  0  0  0  0  0  0  0  0  0  0
  -25.7335  -25.8556   17.0392 C   0  0  0  0  0  0  0  0  0  0  0  0
  -32.5788   -7.9696   15.1287 C   0  0  0  0  0  0  0  0  0  0  0  0
  -32.1787   -9.0662   17.2440 C   0  0  0  0  0  0  0  0  0  0  0  0
  -28.6404  -14.0699   19.3333 C   0  0  0  0  0  0  0  0  0  0  0  0
  -26.6474  -14.6389   20.0675 C   0  0  0  0  0  0  0  0  0  0  0  0
  -21.7214  -22.7429   17.4006 C   0  0  0  0  0  0  0  0  0  0  0  0
  -22.8530  -22.9073   18.0671 C   0  0  0  0  0  0  0  0  0  0  0  0
  -25.5766  -22.1324   17.2904 C   0  0  0  0  0  0  0  0  0  0  0  0
  -26.5629  -21.5884   18.0301 C   0  0  0  0  0  0  0  0  0  0  0  0
  -27.0185  -12.1699   19.9454 C   0  0  0  0  0  0  0  0  0  0  0  0
  -26.8635  -20.1513   17.8721 C   0  0  0  0  0  0  0  0  0  0  0  0
  -22.5505  -29.7546   22.2716 C   0  0  0  0  0  0  0  0  0  0  0  0
  -24.0348  -32.4124   23.3921 C   0  0  0  0  0  0  0  0  0  0  0  0
  -26.9363  -34.1690   23.7694 C   0  0  0  0  0  0  0  0  0  0  0  0
  -18.1099  -27.3530   23.0268 C   0  0  0  0  0  0  0  0  0  0  0  0
  -24.4454  -28.7515   23.5979 C   0  0  0  0  0  0  0  0  0  0  0  0
  -25.3742  -30.9411   21.8407 C   0  0  0  0  0  0  0  0  0  0  0  0
  -18.6138  -28.7868   23.1702 C   0  0  0  0  0  0  0  0  0  0  0  0
  -26.9667  -19.2048   21.4113 C   0  0  0  0  0  0  0  0  0  0  0  0
  -19.3622  -29.2178   21.9128 C   0  0  0  0  0  0  0  0  0  0  0  0
  -27.3461  -17.7298   21.3098 C   0  0  0  0  0  0  0  0  0  0  0  0
  -27.6166  -20.0394   20.3087 C   0  0  0  0  0  0  0  0  0  0  0  0
  -27.7239  -18.0515   18.8331 C   0  0  0  0  0  0  0  0  0  0  0  0
  -20.5947  -28.3369   21.6751 C   0  0  1  0  0  0  0  0  0  0  0  0
  -23.5894  -29.9860   23.3322 C   0  0  1  0  0  0  0  0  0  0  0  0
  -27.0436  -17.1854   19.9048 C   0  0  1  0  0  0  0  0  0  0  0  0
  -24.0388  -27.6615   17.4502 C   0  0  0  0  0  0  0  0  0  0  0  0
  -27.8276  -36.3255   24.6927 C   0  0  0  0  0  0  0  0  0  0  0  0
  -22.8969  -33.9089   20.9888 C   0  0  0  0  0  0  0  0  0  0  0  0
  -24.5498  -35.7363   21.4322 C   0  0  0  0  0  0  0  0  0  0  0  0
  -22.8200  -35.1800   23.1413 C   0  0  0  0  0  0  0  0  0  0  0  0
  -28.6964  -32.7563   25.6838 C   0  0  0  0  0  0  0  0  0  0  0  0
  -28.8081  -27.7720   17.2256 C   0  0  0  0  0  0  0  0  0  0  0  0
  -28.2636  -28.5535   18.4110 C   0  0  0  0  0  0  0  0  0  1  0  0
  -28.0239  -26.4928   16.9789 C   0  0  0  0  0  0  0  0  0  0  0  0
  -24.7454  -33.5859   22.7622 C   0  0  1  0  0  0  0  0  0  0  0  0
  -27.5470  -34.8580   24.9764 C   0  0  2  0  0  0  0  0  0  0  0  0
  -23.7618  -34.5760   22.0769 C   0  0  0  0  0  0  0  0  0  0  0  0
  -28.6484  -15.4055   19.3220 N   0  0  0  0  0  0  0  0  0  0  0  0
  -27.4228  -15.7217   19.7735 N   0  0  0  0  0  0  0  0  0  0  0  0
  -27.3620  -19.4659   18.9786 N   0  0  0  0  0  0  0  0  0  0  0  0
  -24.3814  -31.1426   22.9090 N   0  0  0  0  0  0  0  0  0  0  0  0
  -25.3878  -14.7770   20.5331 N   0  0  0  0  0  0  0  0  0  0  0  0
  -27.9347  -11.1629   19.6125 N   0  0  0  0  0  0  0  0  0  0  0  0
  -21.6726  -28.7268   22.5586 N   0  0  0  0  0  0  0  0  0  0  0  0
  -25.5583  -34.1842   23.8156 N   0  0  0  0  0  0  0  0  0  0  0  0
  -28.8288  -34.1990   25.3554 N   0  3  0  0  0  0  0  0  0  0  0  0
  -25.8759  -11.8503   20.3526 O   0  0  0  0  0  0  0  0  0  0  0  0
  -26.6592  -19.6457   16.7670 O   0  0  0  0  0  0  0  0  0  0  0  0
  -22.5449  -30.4575   21.2678 O   0  0  0  0  0  0  0  0  0  0  0  0
  -23.2080  -32.6144   24.2850 O   0  0  0  0  0  0  0  0  0  0  0  0
  -27.6139  -33.6707   22.8732 O   0  0  0  0  0  0  0  0  0  0  0  0
  -33.1597  -11.2216   17.6809 O   0  0  0  0  0  0  0  0  0  0  0  0
  -28.3199  -27.7493   19.5884 O   0  0  0  0  0  0  0  0  0  1  0  0
  -26.6644  -26.8053   16.7073 O   0  0  0  0  0  0  0  0  0  0  0  0
  -32.3914   -6.9273   14.3086 F   0  0  0  0  0  0  0  0  0  0  0  0
  -31.6045   -9.0709   18.4548 F   0  0  0  0  0  0  0  0  0  0  0  0
  1  2  1  0  0  0  0
  1  5  2  0  0  0  0
  2  6  2  0  0  0  0
  3  8  2  0  0  0  0
  3 17  1  0  0  0  0
  4  9  1  0  0  0  0
  4 17  2  0  0  0  0
  5 21  1  0  0  0  0
  6 23  1  0  0  0  0
  7 10  2  0  0  0  0
  7 22  1  0  0  0  0
  8 26  1  0  0  0  0
  9 26  2  0  0  0  0
 10 27  1  0  0  0  0
 11 12  2  0  0  0  0
 11 28  1  0  0  0  0
 12 30  1  0  0  0  0
 13 18  1  0  0  0  0
 13 25  2  0  0  0  0
 14 19  1  0  0  0  0
 14 29  2  0  0  0  0
 15 24  1  0  0  0  0
 15 27  2  0  0  0  0
 16 30  2  0  0  0  0
 16 31  1  0  0  0  0
 17 32  1  0  0  0  0
 18 19  2  0  0  0  0
 18 35  1  0  0  0  0
 19 36  1  0  0  0  0
 20 32  1  0  0  0  0
 20 33  2  0  0  0  0
 20 38  1  0  0  0  0
 21 23  2  0  0  0  0
 21 43  1  0  0  0  0
 22 24  2  0  0  0  0
 22 44  1  0  0  0  0
 23 52  1  0  0  0  0
 24 45  1  0  0  0  0
 25 29  1  0  0  0  0
 25 55  1  0  0  0  0
 26 81  1  0  0  0  0
 27 82  1  0  0  0  0
 28 31  2  0  0  0  0
 28 81  1  0  0  0  0
 29 83  1  0  0  0  0
 30 84  1  0  0  0  0
 31 85  1  0  0  0  0
 32 67  2  0  0  0  0
 33 68  1  0  0  0  0
 33 71  1  0  0  0  0
 34 35  2  0  0  0  0
 36 37  2  0  0  0  0
 37 39  1  0  0  0  0
 38 72  1  0  0  0  0
 38 76  2  0  0  0  0
 39 69  1  0  0  0  0
 39 77  2  0  0  0  0
 40 53  1  0  0  0  0
 40 73  1  0  0  0  0
 40 78  2  0  0  0  0
 41 64  1  0  0  0  0
 41 70  1  0  0  0  0
 41 79  2  0  0  0  0
 42 65  1  0  0  0  0
 42 74  1  0  0  0  0
 42 80  2  0  0  0  0
 43 46  1  0  0  0  0
 44 53  1  0  0  0  0
 45 70  1  0  0  0  0
 46 48  1  0  0  0  0
 47 49  1  0  0  0  0
 47 50  1  0  0  0  0
 48 52  1  0  0  0  0
 49 54  1  0  0  0  0
 50 69  1  0  0  0  0
 51 54  1  0  0  0  0
 51 69  1  0  0  0  0
 52 73  1  0  0  0  0
 53 70  1  0  0  0  0
 54 68  1  0  0  0  0
 56 65  1  0  0  0  0
 57 66  1  0  0  0  0
 58 66  1  0  0  0  0
 59 66  1  0  0  0  0
 60 75  1  0  0  0  0
 61 62  1  0  0  0  0
 61 63  1  0  0  0  0
 62 82  1  0  0  0  0
 63 83  1  0  0  0  0
 64 66  1  0  0  0  0
 64 74  1  0  0  0  0
 65 75  1  0  0  0  0
 67 68  1  0  0  0  0
M  CHG  1  75   1
M  ISO  4  37 100  39 100  62 101  82 101
M  END
> <Batch ID>
0119

> <Smiles>
C=Cc1cc(C)c(OCC[101CH2:1][101O:1]c2ccc3c(c2)CN(C(=O)C(NC(=O)C(C)NC)C(C)(C)C)C(C(=O)NC2CCCc4ccccc42)C3)cc1C=[100CH:0][100C:0](=O)N1CCCC(n2nc(-c3ccc(Oc4ccc(F)cc4F)cc3)c(C(N)=O)c2N)C1

> <Shape>
0.240

> <Color>
0.123

> <Negative vol penalty>
0.000

$$$$

  -OEChem-04052301513D

 86 94  0     1  0  0  0  0  0999 V2000
  -29.7505  -34.5908   15.7169 C   0  0  0  0  0  0  0  0  0  0  0  0
  -29.3592  -33.2661   15.8819 C   0  0  0  0  0  0  0  0  0  0  0  0
  -23.0854   -9.7815   20.0285 C   0  0  0  0  0  0  0  0  0  0  0  0
  -23.8266   -9.9306   22.3232 C   0  0  0  0  0  0  0  0  0  0  0  0
  -29.7867  -17.2471   19.7181 C   0  0  0  0  0  0  0  0  0  0  0  0
  -29.9621  -35.3982   16.8337 C   0  0  0  0  0  0  0  0  0  0  0  0
  -29.1802  -32.7476   17.1639 C   0  0  0  0  0  0  0  0  0  0  0  0
  -25.0365  -28.5891   18.9081 C   0  0  0  0  0  0  0  0  0  0  0  0
  -29.1079  -18.3249   19.1497 C   0  0  0  0  0  0  0  0  0  0  0  0
  -22.3409   -8.6446   20.3428 C   0  0  0  0  0  0  0  0  0  0  0  0
  -23.0821   -8.7937   22.6375 C   0  0  0  0  0  0  0  0  0  0  0  0
  -25.1171  -27.2119   19.1096 C   0  0  0  0  0  0  0  0  0  0  0  0
  -19.8501   -8.0287   23.2619 C   0  0  0  0  0  0  0  0  0  0  0  0
  -19.0837   -8.0594   24.4269 C   0  0  0  0  0  0  0  0  0  0  0  0
  -27.6490  -18.4205   21.0731 C   0  0  0  0  0  0  0  0  0  0  0  0
  -25.4687  -27.5836   21.4671 C   0  0  0  0  0  0  0  0  0  0  0  0
  -20.3215   -6.1730   25.2908 C   0  0  0  0  0  0  0  0  0  0  0  0
  -23.8283  -10.4245   21.0187 C   0  0  0  0  0  0  0  0  0  0  0  0
  -29.3966  -16.7559   20.9640 C   0  0  0  0  0  0  0  0  0  0  0  0
  -28.3278  -17.3426   21.6415 C   0  0  0  0  0  0  0  0  0  0  0  0
  -24.1679  -12.9381   20.7467 C   0  0  0  0  0  0  0  0  0  0  0  0
  -29.7764  -34.8922   18.1299 C   0  0  0  0  0  0  0  0  0  0  0  0
  -25.1825  -29.4758   19.9847 C   0  0  0  0  0  0  0  0  0  0  0  0
  -29.3909  -33.5486   18.2991 C   0  0  0  0  0  0  0  0  0  0  0  0
  -25.3870  -28.9715   21.2769 C   0  0  0  0  0  0  0  0  0  0  0  0
  -28.0391  -18.9116   19.8271 C   0  0  0  0  0  0  0  0  0  0  0  0
  -22.3393   -8.1507   21.6473 C   0  0  0  0  0  0  0  0  0  0  0  0
  -25.3361  -26.7090   20.3888 C   0  0  0  0  0  0  0  0  0  0  0  0
  -20.8522   -7.0701   23.1113 C   0  0  0  0  0  0  0  0  0  0  0  0
  -19.3194   -7.1316   25.4414 C   0  0  0  0  0  0  0  0  0  0  0  0
  -21.0879   -6.1423   24.1258 C   0  0  0  0  0  0  0  0  0  0  0  0
  -24.5979  -11.5987   20.6946 C   0  0  0  0  0  0  0  0  0  0  0  0
  -25.2620  -13.6658   20.3469 C   0  0  0  0  0  0  0  0  0  0  0  0
  -27.8502  -17.6063   24.0326 C   0  0  0  0  0  0  0  0  0  0  0  0
  -27.8929  -16.8535   22.9441 C   0  0  0  0  0  0  0  0  0  0  0  0
  -27.8173  -21.1693   19.5455 C   0  0  0  0  0  0  0  0  0  0  0  0
  -30.1325  -15.6280   21.5232 C   0  0  0  0  0  0  0  0  0  0  0  0
  -22.8934  -13.4765   21.1229 C   0  0  0  0  0  0  0  0  0  0  0  0
  -30.7665  -14.6149   20.6486 C   0  0  0  0  0  0  0  0  0  0  0  0
  -27.2410  -31.7805   20.7291 C   0  0  0  0  0  0  0  0  0  0  0  0
  -26.6164  -23.3371   20.0307 C   0  0  0  0  0  0  0  0  0  0  0  0
  -25.1974  -32.2722   23.1998 C   0  0  0  0  0  0  0  0  0  0  0  0
  -22.7999  -31.0063   25.2725 C   0  0  0  0  0  0  0  0  0  0  0  0
  -30.0630  -35.7896   19.3076 C   0  0  0  0  0  0  0  0  0  0  0  0
  -25.0663  -30.9577   19.7548 C   0  0  0  0  0  0  0  0  0  0  0  0
  -25.5301  -29.8803   22.4694 C   0  0  0  0  0  0  0  0  0  0  0  0
  -29.4886  -35.2704   20.6231 C   0  0  0  0  0  0  0  0  0  0  0  0
  -29.6200  -12.2013   18.2576 C   0  0  0  0  0  0  0  0  0  0  0  0
  -29.8007  -33.7870   20.7933 C   0  0  0  0  0  0  0  0  0  0  0  0
  -28.1884  -11.9112   18.7075 C   0  0  0  0  0  0  0  0  0  0  0  0
  -30.5340  -12.4769   19.4471 C   0  0  0  0  0  0  0  0  0  0  0  0
  -28.6154  -13.2905   20.7909 C   0  0  0  0  0  0  0  0  0  0  0  0
  -29.1624  -32.9568   19.6731 C   0  0  1  0  0  0  0  0  0  0  0  0
  -25.7428  -31.7859   20.8428 C   0  0  1  0  0  0  0  0  0  0  0  0
  -27.6565  -13.0346   19.6151 C   0  0  2  0  0  0  0  0  0  0  0  0
  -21.3450  -31.6361   27.2178 C   0  0  0  0  0  0  0  0  0  0  0  0
  -27.5975  -32.0343   25.0687 C   0  0  0  0  0  0  0  0  0  0  0  0
  -25.9983  -31.7177   26.9689 C   0  0  0  0  0  0  0  0  0  0  0  0
  -25.9830  -33.8472   25.6698 C   0  0  0  0  0  0  0  0  0  0  0  0
  -20.3233  -30.5211   23.7265 C   0  0  0  0  0  0  0  0  0  0  0  0
  -27.1796  -22.4054   18.9790 C   0  0  0  0  0  0  0  0  0  0  0  0
  -25.9185  -24.5773   19.5098 C   0  0  0  0  0  0  0  0  0  1  0  0
  -25.0743  -31.7406   24.6074 C   0  0  1  0  0  0  0  0  0  0  0  0
  -21.4502  -31.5518   25.7030 C   0  0  2  0  0  0  0  0  0  0  0  0
  -26.1626  -32.3176   25.5561 C   0  0  0  0  0  0  0  0  0  0  0  0
  -25.8663  -11.4796   20.2931 N   0  0  0  0  0  0  0  0  0  0  0  0
  -30.2816  -15.4389   22.8043 N   0  0  0  0  0  0  0  0  0  0  0  0
  -27.3558  -19.9973   19.2539 N   0  0  0  0  0  0  0  0  0  0  0  0
  -26.2426  -12.7535   20.0893 N   0  0  0  0  0  0  0  0  0  0  0  0
  -29.9822  -13.5222   20.3068 N   0  0  0  0  0  0  0  0  0  0  0  0
  -25.4153  -31.3217   22.1924 N   0  0  0  0  0  0  0  0  0  0  0  0
  -25.4714  -14.9907   20.1940 N   0  0  0  0  0  0  0  0  0  0  0  0
  -21.8799  -12.5879   21.5072 N   0  0  0  0  0  0  0  0  0  0  0  0
  -27.7474  -32.7790   19.9192 N   0  0  0  0  0  0  0  0  0  0  0  0
  -23.7056  -32.0173   25.0299 N   0  0  0  0  0  0  0  0  0  0  0  0
  -20.3538  -30.6744   25.2039 N   0  3  0  0  0  0  0  0  0  0  0  0
  -22.6551  -14.7079   21.1027 O   0  0  0  0  0  0  0  0  0  0  0  0
  -31.9216  -14.8511   20.3193 O   0  0  0  0  0  0  0  0  0  0  0  0
  -27.8897  -30.9340   21.3328 O   0  0  0  0  0  0  0  0  0  0  0  0
  -26.7227  -23.1075   21.2347 O   0  0  0  0  0  0  0  0  0  0  0  0
  -25.0967  -33.4854   23.0006 O   0  0  0  0  0  0  0  0  0  0  0  0
  -23.0290  -29.8035   25.1660 O   0  0  0  0  0  0  0  0  0  0  0  0
  -21.6128   -7.0414   21.9544 O   0  0  0  0  0  0  0  0  0  0  0  0
  -25.4159  -25.3653   20.5882 O   0  0  0  0  0  0  0  0  0  1  0  0
  -18.5844   -7.1621   26.5608 F   0  0  0  0  0  0  0  0  0  0  0  0
  -22.0500   -5.2197   23.9873 F   0  0  0  0  0  0  0  0  0  0  0  0
  1  2  1  0  0  0  0
  1  6  2  0  0  0  0
  2  7  2  0  0  0  0
  3 10  2  0  0  0  0
  3 18  1  0  0  0  0
  4 11  1  0  0  0  0
  4 18  2  0  0  0  0
  5  9  2  0  0  0  0
  5 19  1  0  0  0  0
  6 22  1  0  0  0  0
  7 24  1  0  0  0  0
  8 12  2  0  0  0  0
  8 23  1  0  0  0  0
  9 26  1  0  0  0  0
 10 27  1  0  0  0  0
 11 27  2  0  0  0  0
 12 28  1  0  0  0  0
 13 14  2  0  0  0  0
 13 29  1  0  0  0  0
 14 30  1  0  0  0  0
 15 20  1  0  0  0  0
 15 26  2  0  0  0  0
 16 25  1  0  0  0  0
 16 28  2  0  0  0  0
 17 30  2  0  0  0  0
 17 31  1  0  0  0  0
 18 32  1  0  0  0  0
 19 20  2  0  0  0  0
 19 37  1  0  0  0  0
 20 35  1  0  0  0  0
 21 32  1  0  0  0  0
 21 33  2  0  0  0  0
 21 38  1  0  0  0  0
 22 24  2  0  0  0  0
 22 44  1  0  0  0  0
 23 25  2  0  0  0  0
 23 45  1  0  0  0  0
 24 53  1  0  0  0  0
 25 46  1  0  0  0  0
 26 68  1  0  0  0  0
 27 83  1  0  0  0  0
 28 84  1  0  0  0  0
 29 31  2  0  0  0  0
 29 83  1  0  0  0  0
 30 85  1  0  0  0  0
 31 86  1  0  0  0  0
 32 66  2  0  0  0  0
 33 69  1  0  0  0  0
 33 72  1  0  0  0  0
 34 35  2  0  0  0  0
 36 61  1  0  0  0  0
 36 68  2  0  0  0  0
 37 39  1  0  0  0  0
 37 67  2  0  0  0  0
 38 73  1  0  0  0  0
 38 77  2  0  0  0  0
 39 70  1  0  0  0  0
 39 78  2  0  0  0  0
 40 54  1  0  0  0  0
 40 74  1  0  0  0  0
 40 79  2  0  0  0  0
 41 61  1  0  0  0  0
 41 62  1  0  0  0  0
 41 80  2  0  0  0  0
 42 63  1  0  0  0  0
 42 71  1  0  0  0  0
 42 81  2  0  0  0  0
 43 64  1  0  0  0  0
 43 75  1  0  0  0  0
 43 82  2  0  0  0  0
 44 47  1  0  0  0  0
 45 54  1  0  0  0  0
 46 71  1  0  0  0  0
 47 49  1  0  0  0  0
 48 50  1  0  0  0  0
 48 51  1  0  0  0  0
 49 53  1  0  0  0  0
 50 55  1  0  0  0  0
 51 70  1  0  0  0  0
 52 55  1  0  0  0  0
 52 70  1  0  0  0  0
 53 74  1  0  0  0  0
 54 71  1  0  0  0  0
 55 69  1  0  0  0  0
 56 64  1  0  0  0  0
 57 65  1  0  0  0  0
 58 65  1  0  0  0  0
 59 65  1  0  0  0  0
 60 76  1  0  0  0  0
 62 84  1  0  0  0  0
 63 65  1  0  0  0  0
 63 75  1  0  0  0  0
 64 76  1  0  0  0  0
 66 69  1  0  0  0  0
M  CHG  1  76   1
M  ISO  4  37 100  39 100  62 101  84 101
M  END
> <Batch ID>
0119

> <Smiles>
C=Cc1cc(NC=CC(=O)[101CH2:1][101O:1]c2ccc3c(c2)CN(C(=O)C(NC(=O)C(C)NC)C(C)(C)C)C(C(=O)NC2CCCc4ccccc42)C3)ccc1[100C:0](=N)[100C:0](=O)N1CCCC(n2nc(-c3ccc(Oc4ccc(F)cc4F)cc3)c(C(N)=O)c2N)C1

> <Shape>
0.332

> <Color>
0.212

> <Negative vol penalty>
0.000

$$$$

  -OEChem-04052301513D

 86 94  0     1  0  0  0  0  0999 V2000
  -25.3103  -31.7380   17.9623 C   0  0  0  0  0  0  0  0  0  0  0  0
  -25.2882  -30.4044   18.3581 C   0  0  0  0  0  0  0  0  0  0  0  0
  -23.0379   -9.7912   20.1040 C   0  0  0  0  0  0  0  0  0  0  0  0
  -23.6230  -10.1397   22.4220 C   0  0  0  0  0  0  0  0  0  0  0  0
  -24.9738  -32.7395   18.8720 C   0  0  0  0  0  0  0  0  0  0  0  0
  -24.9307  -30.0718   19.6642 C   0  0  0  0  0  0  0  0  0  0  0  0
  -21.7112  -26.1678   19.8626 C   0  0  0  0  0  0  0  0  0  0  0  0
  -22.2608   -8.6907   20.4656 C   0  0  0  0  0  0  0  0  0  0  0  0
  -22.8460   -9.0392   22.7836 C   0  0  0  0  0  0  0  0  0  0  0  0
  -22.2465  -24.8918   19.6918 C   0  0  0  0  0  0  0  0  0  0  0  0
  -23.1303   -5.6704   22.7523 C   0  0  0  0  0  0  0  0  0  0  0  0
  -23.6753   -4.7625   23.6602 C   0  0  0  0  0  0  0  0  0  0  0  0
  -28.5944  -18.8238   24.1584 C   0  0  0  0  0  0  0  0  0  0  0  0
  -22.2117  -24.5640   22.0815 C   0  0  0  0  0  0  0  0  0  0  0  0
  -29.2647  -19.0360   21.4587 C   0  0  0  0  0  0  0  0  0  0  0  0
  -21.8529   -5.1950   25.1864 C   0  0  0  0  0  0  0  0  0  0  0  0
  -23.7190  -10.5157   21.0822 C   0  0  0  0  0  0  0  0  0  0  0  0
  -28.0726  -19.8643   23.3900 C   0  0  0  0  0  0  0  0  0  0  0  0
  -24.1051  -12.9933   20.6132 C   0  0  0  0  0  0  0  0  0  0  0  0
  -24.6025  -32.4184   20.1871 C   0  0  0  0  0  0  0  0  0  0  0  0
  -21.4319  -26.6565   21.1469 C   0  0  0  0  0  0  0  0  0  0  0  0
  -24.5901  -31.0701   20.5927 C   0  0  0  0  0  0  0  0  0  0  0  0
  -21.6706  -25.8456   22.2657 C   0  0  0  0  0  0  0  0  0  0  0  0
  -29.4515  -17.8893   23.5770 C   0  0  0  0  0  0  0  0  0  0  0  0
  -29.7866  -17.9954   22.2272 C   0  0  0  0  0  0  0  0  0  0  0  0
  -22.1649   -8.3147   21.8054 C   0  0  0  0  0  0  0  0  0  0  0  0
  -22.4995  -24.0908   20.8015 C   0  0  0  0  0  0  0  0  0  0  0  0
  -21.9467   -6.3406   23.0614 C   0  0  0  0  0  0  0  0  0  0  0  0
  -28.4076  -19.9704   22.0402 C   0  0  0  0  0  0  0  0  0  0  0  0
  -23.0366   -4.5248   24.8773 C   0  0  0  0  0  0  0  0  0  0  0  0
  -21.3080   -6.1029   24.2785 C   0  0  0  0  0  0  0  0  0  0  0  0
  -24.5223  -11.6522   20.7093 C   0  0  0  0  0  0  0  0  0  0  0  0
  -25.2321  -13.6766   20.2268 C   0  0  0  0  0  0  0  0  0  0  0  0
  -25.9230  -21.0154   23.6536 C   0  0  0  0  0  0  0  0  0  0  0  0
  -27.1820  -20.8291   24.0210 C   0  0  0  0  0  0  0  0  0  0  0  0
  -24.8378  -21.5464   19.8275 C   0  0  0  0  0  0  0  0  0  0  0  0
  -26.1694  -21.7053   19.8281 C   0  0  0  0  0  0  0  0  0  0  0  0
  -22.8142  -13.5698   20.8519 C   0  0  0  0  0  0  0  0  0  0  0  0
  -22.4738  -29.0997   22.8930 C   0  0  0  0  0  0  0  0  0  0  0  0
  -20.1535  -28.1224   24.9383 C   0  0  0  0  0  0  0  0  0  0  0  0
  -18.1552  -25.5922   26.0572 C   0  0  0  0  0  0  0  0  0  0  0  0
  -30.7002  -14.6965   20.6802 C   0  0  0  0  0  0  0  0  0  0  0  0
  -24.2927  -33.5387   21.1482 C   0  0  0  0  0  0  0  0  0  0  0  0
  -20.8298  -28.0249   21.3125 C   0  0  0  0  0  0  0  0  0  0  0  0
  -21.3694  -26.3156   23.6645 C   0  0  0  0  0  0  0  0  0  0  0  0
  -23.5627  -33.0771   22.4069 C   0  0  0  0  0  0  0  0  0  0  0  0
  -29.7114  -11.9844   18.5961 C   0  0  0  0  0  0  0  0  0  0  0  0
  -24.2319  -31.8351   22.9869 C   0  0  0  0  0  0  0  0  0  0  0  0
  -28.2414  -11.7631   18.9566 C   0  0  0  0  0  0  0  0  0  0  0  0
  -30.5386  -12.3801   19.8172 C   0  0  0  0  0  0  0  0  0  0  0  0
  -28.5486  -13.3163   20.9294 C   0  0  0  0  0  0  0  0  0  0  0  0
  -24.1836  -30.6677   21.9937 C   0  0  1  0  0  0  0  0  0  0  0  0
  -21.0642  -28.6170   22.6988 C   0  0  1  0  0  0  0  0  0  0  0  0
  -27.6634  -12.9700   19.7199 C   0  0  2  0  0  0  0  0  0  0  0  0
  -29.9986  -16.7840   24.4193 C   0  0  0  0  0  0  0  0  0  0  0  0
  -16.3874  -25.0865   27.7650 C   0  0  0  0  0  0  0  0  0  0  0  0
  -22.2888  -28.0230   27.1156 C   0  0  0  0  0  0  0  0  0  0  0  0
  -20.7208  -26.6401   28.4930 C   0  0  0  0  0  0  0  0  0  0  0  0
  -20.0927  -28.9672   27.8505 C   0  0  0  0  0  0  0  0  0  0  0  0
  -16.1687  -24.9151   23.9705 C   0  0  0  0  0  0  0  0  0  0  0  0
  -30.7036  -17.0079   21.5836 C   0  0  0  0  0  0  0  0  0  0  0  0
  -23.8721  -22.6407   19.5095 C   0  0  0  0  0  0  0  0  0  1  0  0
  -27.1358  -20.6082   20.1346 C   0  0  0  0  0  0  0  0  0  0  0  0
  -20.0849  -27.1509   26.0918 C   0  0  1  0  0  0  0  0  0  0  0  0
  -16.6646  -25.5353   26.3387 C   0  0  2  0  0  0  0  0  0  0  0  0
  -20.8044  -27.6869   27.3616 C   0  0  0  0  0  0  0  0  0  0  0  0
  -25.8136  -11.4911   20.4080 N   0  0  0  0  0  0  0  0  0  0  0  0
  -26.2174  -12.7398   20.1188 N   0  0  0  0  0  0  0  0  0  0  0  0
  -20.7873  -27.6634   23.7750 N   0  0  0  0  0  0  0  0  0  0  0  0
  -29.9377  -13.5314   20.4949 N   0  0  0  0  0  0  0  0  0  0  0  0
  -25.4665  -14.9815   19.9722 N   0  0  0  0  0  0  0  0  0  0  0  0
  -21.7669  -12.7244   21.2426 N   0  0  0  0  0  0  0  0  0  0  0  0
  -22.8680  -30.0648   21.9860 N   0  0  0  0  0  0  0  0  0  0  0  0
  -18.6710  -26.8499   26.2884 N   0  0  0  0  0  0  0  0  0  0  0  0
  -30.0528  -15.7428   21.3258 N   0  0  0  0  0  0  0  0  0  0  0  0
  -15.9977  -24.5813   25.4079 N   0  3  0  0  0  0  0  0  0  0  0  0
  -22.5920  -14.7957   20.7067 O   0  0  0  0  0  0  0  0  0  0  0  0
  -23.1530  -28.6323   23.7996 O   0  0  0  0  0  0  0  0  0  0  0  0
  -19.6565  -29.2445   25.0624 O   0  0  0  0  0  0  0  0  0  0  0  0
  -18.7985  -24.6174   25.6744 O   0  0  0  0  0  0  0  0  0  0  0  0
  -31.8695  -14.7986   20.2938 O   0  0  0  0  0  0  0  0  0  0  0  0
  -21.4065   -7.2411   22.1586 O   0  0  0  0  0  0  0  0  0  0  0  0
  -23.0225  -22.8452   20.6377 O   0  0  0  0  0  0  0  0  0  1  0  0
  -27.9117  -20.9853   21.2633 O   0  0  0  0  0  0  0  0  0  0  0  0
  -23.5592   -3.6517   25.7484 F   0  0  0  0  0  0  0  0  0  0  0  0
  -20.1700   -6.7429   24.5805 F   0  0  0  0  0  0  0  0  0  0  0  0
  1  2  1  0  0  0  0
  1  5  2  0  0  0  0
  2  6  2  0  0  0  0
  3  8  2  0  0  0  0
  3 17  1  0  0  0  0
  4  9  1  0  0  0  0
  4 17  2  0  0  0  0
  5 20  1  0  0  0  0
  6 22  1  0  0  0  0
  7 10  2  0  0  0  0
  7 21  1  0  0  0  0
  8 26  1  0  0  0  0
  9 26  2  0  0  0  0
 10 27  1  0  0  0  0
 11 12  2  0  0  0  0
 11 28  1  0  0  0  0
 12 30  1  0  0  0  0
 13 18  1  0  0  0  0
 13 24  2  0  0  0  0
 14 23  1  0  0  0  0
 14 27  2  0  0  0  0
 15 25  2  0  0  0  0
 15 29  1  0  0  0  0
 16 30  2  0  0  0  0
 16 31  1  0  0  0  0
 17 32  1  0  0  0  0
 18 29  2  0  0  0  0
 18 35  1  0  0  0  0
 19 32  1  0  0  0  0
 19 33  2  0  0  0  0
 19 38  1  0  0  0  0
 20 22  2  0  0  0  0
 20 43  1  0  0  0  0
 21 23  2  0  0  0  0
 21 44  1  0  0  0  0
 22 52  1  0  0  0  0
 23 45  1  0  0  0  0
 24 25  1  0  0  0  0
 24 55  1  0  0  0  0
 25 61  1  0  0  0  0
 26 82  1  0  0  0  0
 27 83  1  0  0  0  0
 28 31  2  0  0  0  0
 28 82  1  0  0  0  0
 29 84  1  0  0  0  0
 30 85  1  0  0  0  0
 31 86  1  0  0  0  0
 32 67  2  0  0  0  0
 33 68  1  0  0  0  0
 33 71  1  0  0  0  0
 34 35  2  0  0  0  0
 36 37  2  0  0  0  0
 36 62  1  0  0  0  0
 37 63  1  0  0  0  0
 38 72  1  0  0  0  0
 38 77  2  0  0  0  0
 39 53  1  0  0  0  0
 39 73  1  0  0  0  0
 39 78  2  0  0  0  0
 40 64  1  0  0  0  0
 40 69  1  0  0  0  0
 40 79  2  0  0  0  0
 41 65  1  0  0  0  0
 41 74  1  0  0  0  0
 41 80  2  0  0  0  0
 42 70  1  0  0  0  0
 42 75  1  0  0  0  0
 42 81  2  0  0  0  0
 43 46  1  0  0  0  0
 44 53  1  0  0  0  0
 45 69  1  0  0  0  0
 46 48  1  0  0  0  0
 47 49  1  0  0  0  0
 47 50  1  0  0  0  0
 48 52  1  0  0  0  0
 49 54  1  0  0  0  0
 50 70  1  0  0  0  0
 51 54  1  0  0  0  0
 51 70  1  0  0  0  0
 52 73  1  0  0  0  0
 53 69  1  0  0  0  0
 54 68  1  0  0  0  0
 56 65  1  0  0  0  0
 57 66  1  0  0  0  0
 58 66  1  0  0  0  0
 59 66  1  0  0  0  0
 60 76  1  0  0  0  0
 61 75  1  0  0  0  0
 62 83  1  0  0  0  0
 63 84  1  0  0  0  0
 64 66  1  0  0  0  0
 64 74  1  0  0  0  0
 65 76  1  0  0  0  0
 67 68  1  0  0  0  0
M  CHG  1  76   1
M  ISO  4  42 100  62 101  75 100  83 101
M  END
> <Batch ID>
0119

> <Smiles>
C=Cc1cc(C)c(C[100NH:0][100C:0](=O)N2CCCC(n3nc(-c4ccc(Oc5ccc(F)cc5F)cc4)c(C(N)=O)c3N)C2)cc1OCC=C[101CH2:1][101O:1]c1ccc2c(c1)CN(C(=O)C(NC(=O)C(C)NC)C(C)(C)C)C(C(=O)NC1CCCc3ccccc31)C2

> <Shape>
0.277

> <Color>
0.200

> <Negative vol penalty>
0.000

$$$$

  -OEChem-04052301513D

 88 96  0     1  0  0  0  0  0999 V2000
  -27.9212  -37.4082   20.7137 C   0  0  0  0  0  0  0  0  0  0  0  0
  -28.3443  -36.1259   20.3788 C   0  0  0  0  0  0  0  0  0  0  0  0
  -24.7370   -9.0765   21.8462 C   0  0  0  0  0  0  0  0  0  0  0  0
  -23.2327  -10.2672   20.3778 C   0  0  0  0  0  0  0  0  0  0  0  0
  -27.0343  -37.5938   21.7734 C   0  0  0  0  0  0  0  0  0  0  0  0
  -27.8816  -35.0286   21.1042 C   0  0  0  0  0  0  0  0  0  0  0  0
  -26.7067  -29.4191   18.9457 C   0  0  0  0  0  0  0  0  0  0  0  0
  -23.6457   -8.5371   22.5270 C   0  0  0  0  0  0  0  0  0  0  0  0
  -22.1412   -9.7277   21.0586 C   0  0  0  0  0  0  0  0  0  0  0  0
  -27.4471  -28.2377   18.9515 C   0  0  0  0  0  0  0  0  0  0  0  0
  -21.2539   -6.5625   24.4231 C   0  0  0  0  0  0  0  0  0  0  0  0
  -21.2861   -5.2010   24.7247 C   0  0  0  0  0  0  0  0  0  0  0  0
  -24.9307  -17.7568   17.6966 C   0  0  0  0  0  0  0  0  0  0  0  0
  -26.2774  -27.5214   20.9359 C   0  0  0  0  0  0  0  0  0  0  0  0
  -26.3352  -19.1293   19.1040 C   0  0  0  0  0  0  0  0  0  0  0  0
  -21.4384   -4.6830   22.3698 C   0  0  0  0  0  0  0  0  0  0  0  0
  -24.5306   -9.9416   20.7716 C   0  0  0  0  0  0  0  0  0  0  0  0
  -24.1508  -18.8713   17.3880 C   0  0  0  0  0  0  0  0  0  0  0  0
  -24.4631  -20.1148   17.9373 C   0  0  0  0  0  0  0  0  0  0  0  0
  -26.3168   -9.9543   18.9504 C   0  0  0  0  0  0  0  0  0  0  0  0
  -26.5530  -36.4973   22.5060 C   0  0  0  0  0  0  0  0  0  0  0  0
  -25.7522  -29.6657   19.9430 C   0  0  0  0  0  0  0  0  0  0  0  0
  -26.9886  -35.1998   22.1755 C   0  0  0  0  0  0  0  0  0  0  0  0
  -25.5244  -28.7055   20.9391 C   0  0  0  0  0  0  0  0  0  0  0  0
  -26.0228  -17.8858   18.5546 C   0  0  0  0  0  0  0  0  0  0  0  0
  -22.3478   -8.8627   22.1332 C   0  0  0  0  0  0  0  0  0  0  0  0
  -27.2346  -27.2900   19.9483 C   0  0  0  0  0  0  0  0  0  0  0  0
  -21.3138   -6.9842   23.0948 C   0  0  0  0  0  0  0  0  0  0  0  0
  -25.5553  -20.2438   18.7953 C   0  0  0  0  0  0  0  0  0  0  0  0
  -21.3784   -4.2613   23.6980 C   0  0  0  0  0  0  0  0  0  0  0  0
  -21.4062   -6.0445   22.0682 C   0  0  0  0  0  0  0  0  0  0  0  0
  -25.6576  -10.4996   20.0684 C   0  0  0  0  0  0  0  0  0  0  0  0
  -27.3107  -10.8578   18.6634 C   0  0  0  0  0  0  0  0  0  0  0  0
  -21.8385  -18.3900   17.0429 C   0  0  0  0  0  0  0  0  0  0  0  0
  -23.0174  -18.6977   16.4873 C   0  0  0  0  0  0  0  0  0  0  0  0
  -23.6579  -21.2931   17.6268 C   0  0  0  0  0  0  0  0  0  0  0  0
  -26.0542   -8.7397   18.2353 C   0  0  0  0  0  0  0  0  0  0  0  0
  -25.3897  -31.8688   22.2054 C   0  0  0  0  0  0  0  0  0  0  0  0
  -22.5437  -30.3786   22.6551 C   0  0  0  0  0  0  0  0  0  0  0  0
  -20.6761  -27.5408   22.3302 C   0  0  0  0  0  0  0  0  0  0  0  0
  -27.9325  -16.7093   19.7016 C   0  0  0  0  0  0  0  0  0  0  0  0
  -25.6325  -36.7519   23.6732 C   0  0  0  0  0  0  0  0  0  0  0  0
  -24.9429  -30.9331   19.9074 C   0  0  0  0  0  0  0  0  0  0  0  0
  -24.4971  -28.9132   22.0207 C   0  0  0  0  0  0  0  0  0  0  0  0
  -24.8974  -35.5029   24.1529 C   0  0  0  0  0  0  0  0  0  0  0  0
  -30.1300  -14.1142   20.7567 C   0  0  0  0  0  0  0  0  0  0  0  0
  -25.8643  -34.3299   24.2791 C   0  0  0  0  0  0  0  0  0  0  0  0
  -29.2945  -12.8425   20.5924 C   0  0  0  0  0  0  0  0  0  0  0  0
  -29.2821  -15.2922   21.2331 C   0  0  0  0  0  0  0  0  0  0  0  0
  -27.2516  -14.2927   20.2599 C   0  0  0  0  0  0  0  0  0  0  0  0
  -26.4897  -33.9821   22.9228 C   0  0  1  0  0  0  0  0  0  0  0  0
  -24.3596  -31.3079   21.2663 C   0  0  1  0  0  0  0  0  0  0  0  0
  -28.0497  -13.0949   19.7193 C   0  0  2  0  0  0  0  0  0  0  0  0
  -23.1378  -18.8393   14.9971 C   0  0  0  0  0  0  0  0  0  0  0  0
  -22.9904  -21.9907   18.7726 C   0  0  0  0  0  0  0  0  0  0  0  0
  -18.3961  -26.6159   22.8235 C   0  0  0  0  0  0  0  0  0  0  0  0
  -23.2950  -30.1038   25.5995 C   0  0  0  0  0  0  0  0  0  0  0  0
  -21.4867  -28.3874   25.8288 C   0  0  0  0  0  0  0  0  0  0  0  0
  -20.9087  -30.7273   25.1856 C   0  0  0  0  0  0  0  0  0  0  0  0
  -20.1277  -27.0502   19.4636 C   0  0  0  0  0  0  0  0  0  0  0  0
  -28.4654  -24.1121   18.7426 C   0  0  0  0  0  0  0  0  0  0  0  0
  -27.1055  -23.4909   19.0423 C   0  0  0  0  0  0  0  0  0  0  0  0
  -28.3899  -25.6324   18.6940 C   0  0  0  0  0  0  0  0  0  1  0  0
  -27.1713  -21.9702   19.0487 C   0  0  0  0  0  0  0  0  0  0  0  0
  -22.0616  -29.2292   23.5067 C   0  0  1  0  0  0  0  0  0  0  0  0
  -19.2735  -27.3137   21.7959 C   0  0  2  0  0  0  0  0  0  0  0  0
  -21.9588  -29.6085   25.0110 C   0  0  0  0  0  0  0  0  0  0  0  0
  -26.1881  -11.6596   20.4646 N   0  0  0  0  0  0  0  0  0  0  0  0
  -27.1912  -11.8505   19.5910 N   0  0  0  0  0  0  0  0  0  0  0  0
  -23.7357  -30.1711   21.9465 N   0  0  0  0  0  0  0  0  0  0  0  0
  -28.1235  -15.4739   20.3559 N   0  0  0  0  0  0  0  0  0  0  0  0
  -28.2665  -10.8919   17.7107 N   0  0  0  0  0  0  0  0  0  0  0  0
  -24.9949   -7.9279   18.6635 N   0  0  0  0  0  0  0  0  0  0  0  0
  -26.8152  -16.7538   18.8683 N   0  0  0  0  0  0  0  0  0  0  0  0
  -25.5520  -33.2378   22.1098 N   0  0  0  0  0  0  0  0  0  0  0  0
  -20.8048  -28.7824   22.9159 N   0  0  0  0  0  0  0  0  0  0  0  0
  -19.3174  -26.4724   20.5666 N   0  3  0  0  0  0  0  0  0  0  0  0
  -23.4869  -21.7466   16.4971 O   0  0  0  0  0  0  0  0  0  0  0  0
  -26.7489   -8.3765   17.2560 O   0  0  0  0  0  0  0  0  0  0  0  0
  -25.9915  -31.1157   22.9618 O   0  0  0  0  0  0  0  0  0  0  0  0
  -21.8832  -31.4196   22.6142 O   0  0  0  0  0  0  0  0  0  0  0  0
  -21.5674  -26.6993   22.2406 O   0  0  0  0  0  0  0  0  0  0  0  0
  -28.7185  -17.6490   19.8471 O   0  0  0  0  0  0  0  0  0  0  0  0
  -21.2825   -8.3363   22.7971 O   0  0  0  0  0  0  0  0  0  0  0  0
  -27.9563  -26.1363   19.9566 O   0  0  0  0  0  0  0  0  0  1  0  0
  -25.8809  -21.4555   19.3473 O   0  0  0  0  0  0  0  0  0  0  0  0
  -21.4109   -2.9540   23.9879 F   0  0  0  0  0  0  0  0  0  0  0  0
  -21.4653   -6.4437   20.7903 F   0  0  0  0  0  0  0  0  0  0  0  0
  1  2  1  0  0  0  0
  1  5  2  0  0  0  0
  2  6  2  0  0  0  0
  3  8  2  0  0  0  0
  3 17  1  0  0  0  0
  4  9  1  0  0  0  0
  4 17  2  0  0  0  0
  5 21  1  0  0  0  0
  6 23  1  0  0  0  0
  7 10  2  0  0  0  0
  7 22  1  0  0  0  0
  8 26  1  0  0  0  0
  9 26  2  0  0  0  0
 10 27  1  0  0  0  0
 11 12  2  0  0  0  0
 11 28  1  0  0  0  0
 12 30  1  0  0  0  0
 13 18  1  0  0  0  0
 13 25  2  0  0  0  0
 14 24  1  0  0  0  0
 14 27  2  0  0  0  0
 15 25  1  0  0  0  0
 15 29  2  0  0  0  0
 16 30  2  0  0  0  0
 16 31  1  0  0  0  0
 17 32  1  0  0  0  0
 18 19  2  0  0  0  0
 18 35  1  0  0  0  0
 19 29  1  0  0  0  0
 19 36  1  0  0  0  0
 20 32  1  0  0  0  0
 20 33  2  0  0  0  0
 20 37  1  0  0  0  0
 21 23  2  0  0  0  0
 21 42  1  0  0  0  0
 22 24  2  0  0  0  0
 22 43  1  0  0  0  0
 23 51  1  0  0  0  0
 24 44  1  0  0  0  0
 25 74  1  0  0  0  0
 26 84  1  0  0  0  0
 27 85  1  0  0  0  0
 28 31  2  0  0  0  0
 28 84  1  0  0  0  0
 29 86  1  0  0  0  0
 30 87  1  0  0  0  0
 31 88  1  0  0  0  0
 32 68  2  0  0  0  0
 33 69  1  0  0  0  0
 33 72  1  0  0  0  0
 34 35  2  0  0  0  0
 35 54  1  0  0  0  0
 36 55  1  0  0  0  0
 36 78  2  0  0  0  0
 37 73  1  0  0  0  0
 37 79  2  0  0  0  0
 38 52  1  0  0  0  0
 38 75  1  0  0  0  0
 38 80  2  0  0  0  0
 39 65  1  0  0  0  0
 39 70  1  0  0  0  0
 39 81  2  0  0  0  0
 40 66  1  0  0  0  0
 40 76  1  0  0  0  0
 40 82  2  0  0  0  0
 41 71  1  0  0  0  0
 41 74  1  0  0  0  0
 41 83  2  0  0  0  0
 42 45  1  0  0  0  0
 43 52  1  0  0  0  0
 44 70  1  0  0  0  0
 45 47  1  0  0  0  0
 46 48  1  0  0  0  0
 46 49  1  0  0  0  0
 47 51  1  0  0  0  0
 48 53  1  0  0  0  0
 49 71  1  0  0  0  0
 50 53  1  0  0  0  0
 50 71  1  0  0  0  0
 51 75  1  0  0  0  0
 52 70  1  0  0  0  0
 53 69  1  0  0  0  0
 56 66  1  0  0  0  0
 57 67  1  0  0  0  0
 58 67  1  0  0  0  0
 59 67  1  0  0  0  0
 60 77  1  0  0  0  0
 61 62  1  0  0  0  0
 61 63  1  0  0  0  0
 62 64  1  0  0  0  0
 63 85  1  0  0  0  0
 64 86  1  0  0  0  0
 65 67  1  0  0  0  0
 65 76  1  0  0  0  0
 66 77  1  0  0  0  0
 68 69  1  0  0  0  0
M  CHG  1  77   1
M  ISO  4  41 100  63 101  74 100  85 101
M  END
> <Batch ID>
0119

> <Smiles>
C=C(C)c1cc([100NH:0][100C:0](=O)N2CCCC(n3nc(-c4ccc(Oc5ccc(F)cc5F)cc4)c(C(N)=O)c3N)C2)cc(OCCC[101CH2:1][101O:1]c2ccc3c(c2)CN(C(=O)C(NC(=O)C(C)NC)C(C)(C)C)C(C(=O)NC2CCCc4ccccc42)C3)c1C(C)=O

> <Shape>
0.307

> <Color>
0.105

> <Negative vol penalty>
0.000

$$$$

  -OEChem-04052301513D

 82 90  0     1  0  0  0  0  0999 V2000
  -27.4319  -35.8481   25.7443 C   0  0  0  0  0  0  0  0  0  0  0  0
  -27.9715  -34.7440   25.0921 C   0  0  0  0  0  0  0  0  0  0  0  0
  -30.4146  -20.9578   15.9648 C   0  0  0  0  0  0  0  0  0  0  0  0
  -22.6085  -10.1817   20.3856 C   0  0  0  0  0  0  0  0  0  0  0  0
  -23.9503   -9.6987   22.3358 C   0  0  0  0  0  0  0  0  0  0  0  0
  -29.4371  -20.0876   16.4473 C   0  0  0  0  0  0  0  0  0  0  0  0
  -30.5906  -22.2075   16.5591 C   0  0  0  0  0  0  0  0  0  0  0  0
  -26.1120  -35.8153   26.1922 C   0  0  0  0  0  0  0  0  0  0  0  0
  -27.1917  -33.6060   24.8885 C   0  0  0  0  0  0  0  0  0  0  0  0
  -27.3846  -29.8238   20.0757 C   0  0  0  0  0  0  0  0  0  0  0  0
  -22.2498   -8.8366   20.2992 C   0  0  0  0  0  0  0  0  0  0  0  0
  -23.5916   -8.3535   22.2495 C   0  0  0  0  0  0  0  0  0  0  0  0
  -28.0061  -28.5920   19.8750 C   0  0  0  0  0  0  0  0  0  0  0  0
  -20.9309   -6.4305   23.0515 C   0  0  0  0  0  0  0  0  0  0  0  0
  -20.5580   -5.7838   24.2298 C   0  0  0  0  0  0  0  0  0  0  0  0
  -28.8114  -21.7167   18.1181 C   0  0  0  0  0  0  0  0  0  0  0  0
  -25.9491  -27.4682   20.4453 C   0  0  0  0  0  0  0  0  0  0  0  0
  -22.3668   -4.2089   23.9380 C   0  0  0  0  0  0  0  0  0  0  0  0
  -23.4588  -10.6128   21.4039 C   0  0  0  0  0  0  0  0  0  0  0  0
  -28.6355  -20.4671   17.5239 C   0  0  0  0  0  0  0  0  0  0  0  0
  -29.7890  -22.5869   17.6357 C   0  0  0  0  0  0  0  0  0  0  0  0
  -23.1619  -13.0166   22.2047 C   0  0  0  0  0  0  0  0  0  0  0  0
  -25.3127  -34.6800   25.9854 C   0  0  0  0  0  0  0  0  0  0  0  0
  -26.0415  -29.8870   20.4739 C   0  0  0  0  0  0  0  0  0  0  0  0
  -25.8603  -33.5576   25.3353 C   0  0  0  0  0  0  0  0  0  0  0  0
  -25.3122  -28.7021   20.6478 C   0  0  0  0  0  0  0  0  0  0  0  0
  -22.7413   -7.9225   21.2311 C   0  0  0  0  0  0  0  0  0  0  0  0
  -27.2891  -27.4139   20.0626 C   0  0  0  0  0  0  0  0  0  0  0  0
  -22.0218   -5.9663   22.3164 C   0  0  0  0  0  0  0  0  0  0  0  0
  -21.2759   -4.6731   24.6731 C   0  0  0  0  0  0  0  0  0  0  0  0
  -22.7397   -4.8556   22.7597 C   0  0  0  0  0  0  0  0  0  0  0  0
  -23.8302  -12.0021   21.4934 C   0  0  0  0  0  0  0  0  0  0  0  0
  -23.9073  -14.1467   21.9728 C   0  0  0  0  0  0  0  0  0  0  0  0
  -27.6165  -19.5589   18.0263 C   0  0  0  0  0  0  0  0  0  0  0  0
  -27.5859  -18.2249   17.8206 C   0  0  0  0  0  0  0  0  0  0  0  0
  -28.9541  -24.7953   18.2849 C   0  0  0  0  0  0  0  0  0  0  0  0
  -29.9772  -23.9173   18.2678 C   0  0  0  0  0  0  0  0  0  0  0  0
  -21.9737  -12.9439   23.0037 C   0  0  0  0  0  0  0  0  0  0  0  0
  -26.4856  -17.4341   18.4076 C   0  0  0  0  0  0  0  0  0  0  0  0
  -24.5067  -31.0186   23.0170 C   0  0  0  0  0  0  0  0  0  0  0  0
  -21.8740  -30.2520   21.2840 C   0  0  0  0  0  0  0  0  0  0  0  0
  -20.4858  -28.3574   18.8081 C   0  0  0  0  0  0  0  0  0  0  0  0
  -23.9060  -34.6737   26.5294 C   0  0  0  0  0  0  0  0  0  0  0  0
  -25.3782  -31.2240   20.6602 C   0  0  0  0  0  0  0  0  0  0  0  0
  -23.8623  -28.7159   21.0553 C   0  0  0  0  0  0  0  0  0  0  0  0
  -23.0307  -33.5696   25.9421 C   0  0  0  0  0  0  0  0  0  0  0  0
  -28.4648  -14.7319   19.8950 C   0  0  0  0  0  0  0  0  0  0  0  0
  -23.7773  -32.2393   25.9427 C   0  0  0  0  0  0  0  0  0  0  0  0
  -27.3640  -13.8392   20.4615 C   0  0  0  0  0  0  0  0  0  0  0  0
  -28.0359  -15.4150   18.5974 C   0  0  0  0  0  0  0  0  0  0  0  0
  -25.6590  -15.2851   19.2858 C   0  0  0  0  0  0  0  0  0  0  0  0
  -25.0385  -32.3141   25.0737 C   0  0  1  0  0  0  0  0  0  0  0  0
  -24.1509  -31.1613   21.5642 C   0  0  1  0  0  0  0  0  0  0  0  0
  -26.0520  -14.6245   20.6164 C   0  0  1  0  0  0  0  0  0  0  0  0
  -31.3306  -24.1777   18.8709 C   0  0  0  0  0  0  0  0  0  0  0  0
  -18.3040  -27.9271   17.6454 C   0  0  0  0  0  0  0  0  0  0  0  0
  -20.9105  -28.6448   23.6920 C   0  0  0  0  0  0  0  0  0  0  0  0
  -19.2698  -27.5023   22.1850 C   0  0  0  0  0  0  0  0  0  0  0  0
  -19.1280  -29.9674   22.5397 C   0  0  0  0  0  0  0  0  0  0  0  0
  -21.5790  -29.2075   16.1925 C   0  0  0  0  0  0  0  0  0  0  0  0
  -28.9431  -26.1590   18.9027 C   0  0  0  0  0  0  0  0  0  1  0  0
  -21.0096  -29.0228   21.1399 C   0  0  1  0  0  0  0  0  0  0  0  0
  -19.5969  -28.7278   17.6346 C   0  0  2  0  0  0  0  0  0  0  0  0
  -20.1073  -28.7837   22.3833 C   0  0  0  0  0  0  0  0  0  0  0  0
  -24.9165  -12.4483   20.8571 N   0  0  0  0  0  0  0  0  0  0  0  0
  -24.9365  -13.7557   21.1678 N   0  0  0  0  0  0  0  0  0  0  0  0
  -26.7496  -16.1104   18.7549 N   0  0  0  0  0  0  0  0  0  0  0  0
  -23.2601  -30.0477   21.2314 N   0  0  0  0  0  0  0  0  0  0  0  0
  -23.7762  -15.4268   22.3810 N   0  0  0  0  0  0  0  0  0  0  0  0
  -21.3328  -11.7046   23.1368 N   0  0  0  0  0  0  0  0  0  0  0  0
  -24.6923  -32.2214   23.6715 N   0  0  0  0  0  0  0  0  0  0  0  0
  -20.2742  -29.1851   19.8904 N   0  0  0  0  0  0  0  0  0  0  0  0
  -20.3015  -28.4654   16.3479 N   0  3  0  0  0  0  0  0  0  0  0  0
  -21.4852  -13.9515   23.5691 O   0  0  0  0  0  0  0  0  0  0  0  0
  -25.3967  -17.9934   18.5504 O   0  0  0  0  0  0  0  0  0  0  0  0
  -24.6042  -29.9002   23.5082 O   0  0  0  0  0  0  0  0  0  0  0  0
  -21.3390  -31.3538   21.4304 O   0  0  0  0  0  0  0  0  0  0  0  0
  -21.2851  -27.4246   18.7698 O   0  0  0  0  0  0  0  0  0  0  0  0
  -22.3912   -6.6099   21.1473 O   0  0  0  0  0  0  0  0  0  0  0  0
  -27.8935  -26.2103   19.8681 O   0  0  0  0  0  0  0  0  0  1  0  0
  -20.9186   -4.0532   25.8054 F   0  0  0  0  0  0  0  0  0  0  0  0
  -23.7893   -4.4058   22.0584 F   0  0  0  0  0  0  0  0  0  0  0  0
  1  2  1  0  0  0  0
  1  8  2  0  0  0  0
  2  9  2  0  0  0  0
  3  6  1  0  0  0  0
  3  7  2  0  0  0  0
  4 11  2  0  0  0  0
  4 19  1  0  0  0  0
  5 12  1  0  0  0  0
  5 19  2  0  0  0  0
  6 20  2  0  0  0  0
  7 21  1  0  0  0  0
  8 23  1  0  0  0  0
  9 25  1  0  0  0  0
 10 13  2  0  0  0  0
 10 24  1  0  0  0  0
 11 27  1  0  0  0  0
 12 27  2  0  0  0  0
 13 28  1  0  0  0  0
 14 15  2  0  0  0  0
 14 29  1  0  0  0  0
 15 30  1  0  0  0  0
 16 20  1  0  0  0  0
 16 21  2  0  0  0  0
 17 26  1  0  0  0  0
 17 28  2  0  0  0  0
 18 30  2  0  0  0  0
 18 31  1  0  0  0  0
 19 32  1  0  0  0  0
 20 34  1  0  0  0  0
 21 37  1  0  0  0  0
 22 32  1  0  0  0  0
 22 33  2  0  0  0  0
 22 38  1  0  0  0  0
 23 25  2  0  0  0  0
 23 43  1  0  0  0  0
 24 26  2  0  0  0  0
 24 44  1  0  0  0  0
 25 52  1  0  0  0  0
 26 45  1  0  0  0  0
 27 79  1  0  0  0  0
 28 80  1  0  0  0  0
 29 31  2  0  0  0  0
 29 79  1  0  0  0  0
 30 81  1  0  0  0  0
 31 82  1  0  0  0  0
 32 65  2  0  0  0  0
 33 66  1  0  0  0  0
 33 69  1  0  0  0  0
 34 35  2  0  0  0  0
 35 39  1  0  0  0  0
 36 37  2  0  0  0  0
 36 61  1  0  0  0  0
 37 55  1  0  0  0  0
 38 70  1  0  0  0  0
 38 74  2  0  0  0  0
 39 67  1  0  0  0  0
 39 75  2  0  0  0  0
 40 53  1  0  0  0  0
 40 71  1  0  0  0  0
 40 76  2  0  0  0  0
 41 62  1  0  0  0  0
 41 68  1  0  0  0  0
 41 77  2  0  0  0  0
 42 63  1  0  0  0  0
 42 72  1  0  0  0  0
 42 78  2  0  0  0  0
 43 46  1  0  0  0  0
 44 53  1  0  0  0  0
 45 68  1  0  0  0  0
 46 48  1  0  0  0  0
 47 49  1  0  0  0  0
 47 50  1  0  0  0  0
 48 52  1  0  0  0  0
 49 54  1  0  0  0  0
 50 67  1  0  0  0  0
 51 54  1  0  0  0  0
 51 67  1  0  0  0  0
 52 71  1  0  0  0  0
 53 68  1  0  0  0  0
 54 66  1  0  0  0  0
 56 63  1  0  0  0  0
 57 64  1  0  0  0  0
 58 64  1  0  0  0  0
 59 64  1  0  0  0  0
 60 73  1  0  0  0  0
 61 80  1  0  0  0  0
 62 64  1  0  0  0  0
 62 72  1  0  0  0  0
 63 73  1  0  0  0  0
 65 66  1  0  0  0  0
M  CHG  1  73   1
M  ISO  4  35 100  39 100  61 101  80 101
M  END
> <Batch ID>
0119

> <Smiles>
CNC(C)C(=O)NC(C(=O)N1Cc2cc([101O:1][101CH2:1]C=C(C)c3cccc(C=[100CH:0][100C:0](=O)N4CCCC(n5nc(-c6ccc(Oc7ccc(F)cc7F)cc6)c(C(N)=O)c5N)C4)c3)ccc2CC1C(=O)NC1CCCc2ccccc21)C(C)(C)C

> <Shape>
0.320

> <Color>
0.102

> <Negative vol penalty>
0.000

$$$$

  -OEChem-04052301513D

 85 93  0     1  0  0  0  0  0999 V2000
  -21.8714  -33.9633   19.0362 C   0  0  0  0  0  0  0  0  0  0  0  0
  -23.0051  -33.1931   19.2746 C   0  0  0  0  0  0  0  0  0  0  0  0
  -24.0597  -12.3108   20.2423 C   0  0  0  0  0  0  0  0  0  0  0  0
  -25.8090  -12.5459   21.8920 C   0  0  0  0  0  0  0  0  0  0  0  0
  -29.9069  -21.5326   22.9965 C   0  0  0  0  0  0  0  0  0  0  0  0
  -20.7752  -33.8721   19.8929 C   0  0  0  0  0  0  0  0  0  0  0  0
  -23.0437  -32.3319   20.3706 C   0  0  0  0  0  0  0  0  0  0  0  0
  -24.9197  -27.7768   19.1973 C   0  0  0  0  0  0  0  0  0  0  0  0
  -30.1848  -20.4018   22.2286 C   0  0  0  0  0  0  0  0  0  0  0  0
  -24.1419  -10.9228   20.3529 C   0  0  0  0  0  0  0  0  0  0  0  0
  -25.8912  -11.1579   22.0027 C   0  0  0  0  0  0  0  0  0  0  0  0
  -26.3045  -27.6709   19.0744 C   0  0  0  0  0  0  0  0  0  0  0  0
  -23.6407   -7.3240   20.4656 C   0  0  0  0  0  0  0  0  0  0  0  0
  -22.4465   -6.6085   20.5534 C   0  0  0  0  0  0  0  0  0  0  0  0
  -30.7638  -21.8152   20.3567 C   0  0  0  0  0  0  0  0  0  0  0  0
  -26.4241  -26.7383   21.2959 C   0  0  0  0  0  0  0  0  0  0  0  0
  -21.8757   -7.8090   22.5709 C   0  0  0  0  0  0  0  0  0  0  0  0
  -24.8933  -13.1224   21.0119 C   0  0  0  0  0  0  0  0  0  0  0  0
  -30.0574  -22.8047   22.4444 C   0  0  0  0  0  0  0  0  0  0  0  0
  -30.4859  -22.9460   21.1245 C   0  0  0  0  0  0  0  0  0  0  0  0
  -23.9883  -15.4219   21.6450 C   0  0  0  0  0  0  0  0  0  0  0  0
  -20.7967  -33.0022   20.9945 C   0  0  0  0  0  0  0  0  0  0  0  0
  -24.2769  -27.3737   20.3765 C   0  0  0  0  0  0  0  0  0  0  0  0
  -21.9473  -32.2300   21.2437 C   0  0  0  0  0  0  0  0  0  0  0  0
  -25.0309  -26.8378   21.4303 C   0  0  0  0  0  0  0  0  0  0  0  0
  -30.6133  -20.5431   20.9087 C   0  0  0  0  0  0  0  0  0  0  0  0
  -25.0577  -10.3463   21.2331 C   0  0  0  0  0  0  0  0  0  0  0  0
  -27.0572  -27.1543   20.1249 C   0  0  0  0  0  0  0  0  0  0  0  0
  -23.9524   -8.2819   21.4305 C   0  0  0  0  0  0  0  0  0  0  0  0
  -21.5640   -6.8510   21.6060 C   0  0  0  0  0  0  0  0  0  0  0  0
  -23.0699   -8.5244   22.4831 C   0  0  0  0  0  0  0  0  0  0  0  0
  -24.8092  -14.5562   20.8976 C   0  0  0  0  0  0  0  0  0  0  0  0
  -24.2784  -16.6738   21.1603 C   0  0  0  0  0  0  0  0  0  0  0  0
  -29.7544  -23.9583   23.2845 C   0  0  0  0  0  0  0  0  0  0  0  0
  -30.6578  -24.2684   20.5004 C   0  0  0  0  0  0  0  0  0  0  0  0
  -28.5554  -24.2365   23.8387 C   0  0  0  0  0  0  0  0  0  0  0  0
  -30.0180  -24.6926   19.3993 C   0  0  0  0  0  0  0  0  0  0  0  0
  -23.0478  -15.1212   22.6846 C   0  0  0  0  0  0  0  0  0  0  0  0
  -22.5207  -28.8356   22.5862 C   0  0  0  0  0  0  0  0  0  0  0  0
  -22.1423  -25.8206   23.7215 C   0  0  0  0  0  0  0  0  0  0  0  0
  -23.3376  -22.6306   23.9262 C   0  0  0  0  0  0  0  0  0  0  0  0
  -29.0885  -18.9796   18.4405 C   0  0  0  0  0  0  0  0  0  0  0  0
  -19.6059  -32.9729   21.9196 C   0  0  0  0  0  0  0  0  0  0  0  0
  -22.7796  -27.4697   20.4831 C   0  0  0  0  0  0  0  0  0  0  0  0
  -24.3867  -26.3720   22.7095 C   0  0  0  0  0  0  0  0  0  0  0  0
  -19.5831  -31.7588   22.8447 C   0  0  0  0  0  0  0  0  0  0  0  0
  -25.7546  -18.9036   17.1929 C   0  0  0  0  0  0  0  0  0  0  0  0
  -20.9543  -31.5438   23.4773 C   0  0  0  0  0  0  0  0  0  0  0  0
  -25.0602  -17.8589   18.0684 C   0  0  0  0  0  0  0  0  0  0  0  0
  -27.2037  -18.5211   16.8998 C   0  0  0  0  0  0  0  0  0  0  0  0
  -27.3268  -17.1867   18.9681 C   0  0  0  0  0  0  0  0  0  0  0  0
  -22.0177  -31.2658   22.4080 C   0  0  1  0  0  0  0  0  0  0  0  0
  -22.2844  -27.5069   21.9255 C   0  0  1  0  0  0  0  0  0  0  0  0
  -25.8799  -17.5563   19.3371 C   0  0  2  0  0  0  0  0  0  0  0  0
  -28.2881  -25.4374   24.6867 C   0  0  0  0  0  0  0  0  0  0  0  0
  -23.3723  -20.1899   24.5089 C   0  0  0  0  0  0  0  0  0  0  0  0
  -23.1094  -26.8516   26.4256 C   0  0  0  0  0  0  0  0  0  0  0  0
  -23.4874  -24.4755   27.1180 C   0  0  0  0  0  0  0  0  0  0  0  0
  -21.1883  -25.2548   26.5443 C   0  0  0  0  0  0  0  0  0  0  0  0
  -21.9612  -21.8920   21.4124 C   0  0  0  0  0  0  0  0  0  0  0  0
  -30.9097  -19.3331   20.0889 C   0  0  0  0  0  0  0  0  0  0  0  0
  -30.2334  -26.0495   18.7869 C   0  0  0  0  0  0  0  0  0  0  0  0
  -28.9332  -26.8397   18.6975 C   0  0  0  0  0  0  0  0  0  1  0  0
  -22.8884  -24.9448   24.6989 C   0  0  1  0  0  0  0  0  0  0  0  0
  -22.6592  -21.2864   23.7330 C   0  0  2  0  0  0  0  0  0  0  0  0
  -22.6810  -25.3922   26.1735 C   0  0  0  0  0  0  0  0  0  0  0  0
  -25.5640  -15.2035   20.0057 N   0  0  0  0  0  0  0  0  0  0  0  0
  -25.2185  -16.4891   20.1895 N   0  0  0  0  0  0  0  0  0  0  0  0
  -22.9205  -26.4920   22.7679 N   0  0  0  0  0  0  0  0  0  0  0  0
  -27.9261  -18.2486   18.1446 N   0  0  0  0  0  0  0  0  0  0  0  0
  -23.8183  -17.9037   21.4738 N   0  0  0  0  0  0  0  0  0  0  0  0
  -22.8725  -13.7824   23.0602 N   0  0  0  0  0  0  0  0  0  0  0  0
  -21.9198  -29.8995   21.9410 N   0  0  0  0  0  0  0  0  0  0  0  0
  -22.4660  -23.5755   24.4249 N   0  0  0  0  0  0  0  0  0  0  0  0
  -29.7084  -18.6631   19.6431 N   0  0  0  0  0  0  0  0  0  0  0  0
  -22.6518  -20.9125   22.2903 N   0  3  0  0  0  0  0  0  0  0  0  0
  -22.3706  -16.0117   23.2519 O   0  0  0  0  0  0  0  0  0  0  0  0
  -23.1969  -28.8911   23.6067 O   0  0  0  0  0  0  0  0  0  0  0  0
  -20.9137  -25.9003   23.7968 O   0  0  0  0  0  0  0  0  0  0  0  0
  -24.5231  -22.8221   23.6648 O   0  0  0  0  0  0  0  0  0  0  0  0
  -29.5373  -19.8536   17.6911 O   0  0  0  0  0  0  0  0  0  0  0  0
  -25.1380   -8.9919   21.3415 O   0  0  0  0  0  0  0  0  0  0  0  0
  -28.4090  -27.0504   20.0079 O   0  0  0  0  0  0  0  0  0  1  0  0
  -20.4166   -6.1650   21.6893 F   0  0  0  0  0  0  0  0  0  0  0  0
  -23.3633   -9.4443   23.4124 F   0  0  0  0  0  0  0  0  0  0  0  0
  1  2  1  0  0  0  0
  1  6  2  0  0  0  0
  2  7  2  0  0  0  0
  3 10  2  0  0  0  0
  3 18  1  0  0  0  0
  4 11  1  0  0  0  0
  4 18  2  0  0  0  0
  5  9  2  0  0  0  0
  5 19  1  0  0  0  0
  6 22  1  0  0  0  0
  7 24  1  0  0  0  0
  8 12  2  0  0  0  0
  8 23  1  0  0  0  0
  9 26  1  0  0  0  0
 10 27  1  0  0  0  0
 11 27  2  0  0  0  0
 12 28  1  0  0  0  0
 13 14  2  0  0  0  0
 13 29  1  0  0  0  0
 14 30  1  0  0  0  0
 15 20  1  0  0  0  0
 15 26  2  0  0  0  0
 16 25  1  0  0  0  0
 16 28  2  0  0  0  0
 17 30  2  0  0  0  0
 17 31  1  0  0  0  0
 18 32  1  0  0  0  0
 19 20  2  0  0  0  0
 19 34  1  0  0  0  0
 20 35  1  0  0  0  0
 21 32  1  0  0  0  0
 21 33  2  0  0  0  0
 21 38  1  0  0  0  0
 22 24  2  0  0  0  0
 22 43  1  0  0  0  0
 23 25  2  0  0  0  0
 23 44  1  0  0  0  0
 24 52  1  0  0  0  0
 25 45  1  0  0  0  0
 26 61  1  0  0  0  0
 27 82  1  0  0  0  0
 28 83  1  0  0  0  0
 29 31  2  0  0  0  0
 29 82  1  0  0  0  0
 30 84  1  0  0  0  0
 31 85  1  0  0  0  0
 32 67  2  0  0  0  0
 33 68  1  0  0  0  0
 33 71  1  0  0  0  0
 34 36  2  0  0  0  0
 35 37  2  0  0  0  0
 36 55  1  0  0  0  0
 37 62  1  0  0  0  0
 38 72  1  0  0  0  0
 38 77  2  0  0  0  0
 39 53  1  0  0  0  0
 39 73  1  0  0  0  0
 39 78  2  0  0  0  0
 40 64  1  0  0  0  0
 40 69  1  0  0  0  0
 40 79  2  0  0  0  0
 41 65  1  0  0  0  0
 41 74  1  0  0  0  0
 41 80  2  0  0  0  0
 42 70  1  0  0  0  0
 42 75  1  0  0  0  0
 42 81  2  0  0  0  0
 43 46  1  0  0  0  0
 44 53  1  0  0  0  0
 45 69  1  0  0  0  0
 46 48  1  0  0  0  0
 47 49  1  0  0  0  0
 47 50  1  0  0  0  0
 48 52  1  0  0  0  0
 49 54  1  0  0  0  0
 50 70  1  0  0  0  0
 51 54  1  0  0  0  0
 51 70  1  0  0  0  0
 52 73  1  0  0  0  0
 53 69  1  0  0  0  0
 54 68  1  0  0  0  0
 56 65  1  0  0  0  0
 57 66  1  0  0  0  0
 58 66  1  0  0  0  0
 59 66  1  0  0  0  0
 60 76  1  0  0  0  0
 61 75  1  0  0  0  0
 62 63  1  0  0  0  0
 63 83  1  0  0  0  0
 64 66  1  0  0  0  0
 64 74  1  0  0  0  0
 65 76  1  0  0  0  0
 67 68  1  0  0  0  0
M  CHG  1  76   1
M  ISO  4  42 100  63 101  75 100  83 101
M  END
> <Batch ID>
0119

> <Smiles>
CC=Cc1ccc(C[100NH:0][100C:0](=O)N2CCCC(n3nc(-c4ccc(Oc5ccc(F)cc5F)cc4)c(C(N)=O)c3N)C2)cc1C=CC[101CH2:1][101O:1]c1ccc2c(c1)CN(C(=O)C(NC(=O)C(C)NC)C(C)(C)C)C(C(=O)NC1CCCc3ccccc31)C2

> <Shape>
0.189

> <Color>
0.075

> <Negative vol penalty>
0.000

$$$$

  -OEChem-04052301513D

 86 94  0     1  0  0  0  0  0999 V2000
  -28.4663  -34.4477   21.3643 C   0  0  0  0  0  0  0  0  0  0  0  0
  -28.0590  -33.1207   21.2717 C   0  0  0  0  0  0  0  0  0  0  0  0
  -24.2816   -9.5370   22.2052 C   0  0  0  0  0  0  0  0  0  0  0  0
  -24.3597   -8.9066   19.8742 C   0  0  0  0  0  0  0  0  0  0  0  0
  -27.8271  -35.3114   22.2528 C   0  0  0  0  0  0  0  0  0  0  0  0
  -27.0129  -32.6564   22.0683 C   0  0  0  0  0  0  0  0  0  0  0  0
  -23.7157  -29.8132   19.4819 C   0  0  0  0  0  0  0  0  0  0  0  0
  -23.1644   -8.7221   22.3882 C   0  0  0  0  0  0  0  0  0  0  0  0
  -23.2425   -8.0917   20.0572 C   0  0  0  0  0  0  0  0  0  0  0  0
  -24.0851  -28.4962   19.2120 C   0  0  0  0  0  0  0  0  0  0  0  0
  -22.5242   -5.4268   22.7934 C   0  0  0  0  0  0  0  0  0  0  0  0
  -22.4998   -4.6033   23.9189 C   0  0  0  0  0  0  0  0  0  0  0  0
  -31.7178  -20.5386   21.0509 C   0  0  0  0  0  0  0  0  0  0  0  0
  -29.5966  -20.7518   19.9143 C   0  0  0  0  0  0  0  0  0  0  0  0
  -22.7231  -27.7428   21.0550 C   0  0  0  0  0  0  0  0  0  0  0  0
  -20.4863   -5.7013   24.6788 C   0  0  0  0  0  0  0  0  0  0  0  0
  -24.8792   -9.6293   20.9483 C   0  0  0  0  0  0  0  0  0  0  0  0
  -30.5037  -19.9845   20.6452 C   0  0  0  0  0  0  0  0  0  0  0  0
  -32.0247  -21.8599   20.7260 C   0  0  0  0  0  0  0  0  0  0  0  0
  -27.3849  -10.1060   20.9024 C   0  0  0  0  0  0  0  0  0  0  0  0
  -26.7663  -34.8599   23.0537 C   0  0  0  0  0  0  0  0  0  0  0  0
  -22.8544  -30.1064   20.5489 C   0  0  0  0  0  0  0  0  0  0  0  0
  -26.3598  -33.5146   22.9692 C   0  0  0  0  0  0  0  0  0  0  0  0
  -22.3423  -29.0641   21.3348 C   0  0  0  0  0  0  0  0  0  0  0  0
  -31.1176  -22.6271   19.9951 C   0  0  0  0  0  0  0  0  0  0  0  0
  -22.6448   -7.9995   21.3141 C   0  0  0  0  0  0  0  0  0  0  0  0
  -23.5911  -27.4610   20.0004 C   0  0  0  0  0  0  0  0  0  0  0  0
  -21.5297   -6.3877   22.6106 C   0  0  0  0  0  0  0  0  0  0  0  0
  -29.9035  -22.0731   19.5893 C   0  0  0  0  0  0  0  0  0  0  0  0
  -21.4809   -4.7405   24.8616 C   0  0  0  0  0  0  0  0  0  0  0  0
  -20.5107   -6.5249   23.5533 C   0  0  0  0  0  0  0  0  0  0  0  0
  -26.0330  -10.4713   20.7585 C   0  0  0  0  0  0  0  0  0  0  0  0
  -28.0830  -11.2533   20.6147 C   0  0  0  0  0  0  0  0  0  0  0  0
  -33.6777  -22.4663   22.4333 C   0  0  0  0  0  0  0  0  0  0  0  0
  -30.1820  -18.6072   20.9848 C   0  0  0  0  0  0  0  0  0  0  0  0
  -33.3018  -22.4082   21.1648 C   0  0  0  0  0  0  0  0  0  0  0  0
  -28.9420  -18.0737   21.0008 C   0  0  0  0  0  0  0  0  0  0  0  0
  -27.9583   -8.8425   21.2638 C   0  0  0  0  0  0  0  0  0  0  0  0
  -28.7787  -16.6503   21.3586 C   0  0  0  0  0  0  0  0  0  0  0  0
  -23.0994  -31.7958   23.2303 C   0  0  0  0  0  0  0  0  0  0  0  0
  -19.9375  -31.1177   23.4862 C   0  0  0  0  0  0  0  0  0  0  0  0
  -17.3394  -29.0630   22.6648 C   0  0  0  0  0  0  0  0  0  0  0  0
  -26.1372  -35.8187   24.0333 C   0  0  0  0  0  0  0  0  0  0  0  0
  -22.4443  -31.5297   20.8104 C   0  0  0  0  0  0  0  0  0  0  0  0
  -21.3986  -29.3239   22.4795 C   0  0  0  0  0  0  0  0  0  0  0  0
  -24.7902  -35.3432   24.5714 C   0  0  0  0  0  0  0  0  0  0  0  0
  -26.5712  -15.6297   18.6168 C   0  0  0  0  0  0  0  0  0  0  0  0
  -24.8702  -33.8793   24.9925 C   0  0  0  0  0  0  0  0  0  0  0  0
  -26.3106  -14.1697   18.9776 C   0  0  0  0  0  0  0  0  0  0  0  0
  -26.7183  -16.5080   19.8584 C   0  0  0  0  0  0  0  0  0  0  0  0
  -27.4905  -14.5574   21.1771 C   0  0  0  0  0  0  0  0  0  0  0  0
  -25.2126  -32.9798   23.7987 C   0  0  1  0  0  0  0  0  0  0  0  0
  -21.9687  -31.7613   22.2413 C   0  0  1  0  0  0  0  0  0  0  0  0
  -27.3861  -13.6473   19.9433 C   0  0  1  0  0  0  0  0  0  0  0  0
  -31.4300  -24.0468   19.6374 C   0  0  0  0  0  0  0  0  0  0  0  0
  -14.8812  -28.7434   23.0553 C   0  0  0  0  0  0  0  0  0  0  0  0
  -20.5246  -30.0290   26.2755 C   0  0  0  0  0  0  0  0  0  0  0  0
  -18.2956  -28.8903   26.2243 C   0  0  0  0  0  0  0  0  0  0  0  0
  -18.4261  -31.3784   26.1026 C   0  0  0  0  0  0  0  0  0  0  0  0
  -16.7251  -29.3615   19.7852 C   0  0  0  0  0  0  0  0  0  0  0  0
  -25.7753  -24.6013   19.5799 C   0  0  0  0  0  0  0  0  0  0  0  0
  -27.1623  -24.3421   19.0022 C   0  0  0  0  0  0  0  0  0  0  0  0
  -25.2391  -25.9645   19.1634 C   0  0  0  0  0  0  0  0  0  1  0  0
  -27.7169  -22.9982   19.4529 C   0  0  0  0  0  0  0  0  0  0  0  0
  -19.1301  -30.0011   24.1028 C   0  0  1  0  0  0  0  0  0  0  0  0
  -15.9406  -29.3619   22.1565 C   0  0  2  0  0  0  0  0  0  0  0  0
  -19.1134  -30.0696   25.6560 C   0  0  0  0  0  0  0  0  0  0  0  0
  -25.8791  -11.7506   20.4069 N   0  0  0  0  0  0  0  0  0  0  0  0
  -27.1435  -12.1993   20.3275 N   0  0  0  0  0  0  0  0  0  0  0  0
  -27.7102  -15.9564   20.7936 N   0  0  0  0  0  0  0  0  0  0  0  0
  -21.0322  -30.7329   22.6991 N   0  0  0  0  0  0  0  0  0  0  0  0
  -29.4028  -11.5351   20.5820 N   0  0  0  0  0  0  0  0  0  0  0  0
  -27.0970   -7.7685   21.5261 N   0  0  0  0  0  0  0  0  0  0  0  0
  -24.0436  -32.7709   22.9715 N   0  0  0  0  0  0  0  0  0  0  0  0
  -17.8088  -30.0649   23.4876 N   0  0  0  0  0  0  0  0  0  0  0  0
  -15.7631  -28.8204   20.7795 N   0  3  0  0  0  0  0  0  0  0  0  0
  -29.1972   -8.6755   21.3674 O   0  0  0  0  0  0  0  0  0  0  0  0
  -29.5968  -16.1632   22.1409 O   0  0  0  0  0  0  0  0  0  0  0  0
  -23.1132  -30.9978   24.1602 O   0  0  0  0  0  0  0  0  0  0  0  0
  -19.6049  -32.2880   23.6893 O   0  0  0  0  0  0  0  0  0  0  0  0
  -17.9527  -28.0409   22.3652 O   0  0  0  0  0  0  0  0  0  0  0  0
  -21.5548   -7.2041   21.4923 O   0  0  0  0  0  0  0  0  0  0  0  0
  -23.9506  -26.1747   19.7396 O   0  0  0  0  0  0  0  0  0  1  0  0
  -28.9996  -22.8116   18.8706 O   0  0  0  0  0  0  0  0  0  0  0  0
  -21.4567   -3.9485   25.9415 F   0  0  0  0  0  0  0  0  0  0  0  0
  -19.5519   -7.4453   23.3825 F   0  0  0  0  0  0  0  0  0  0  0  0
  1  2  1  0  0  0  0
  1  5  2  0  0  0  0
  2  6  2  0  0  0  0
  3  8  2  0  0  0  0
  3 17  1  0  0  0  0
  4  9  1  0  0  0  0
  4 17  2  0  0  0  0
  5 21  1  0  0  0  0
  6 23  1  0  0  0  0
  7 10  2  0  0  0  0
  7 22  1  0  0  0  0
  8 26  1  0  0  0  0
  9 26  2  0  0  0  0
 10 27  1  0  0  0  0
 11 12  2  0  0  0  0
 11 28  1  0  0  0  0
 12 30  1  0  0  0  0
 13 18  2  0  0  0  0
 13 19  1  0  0  0  0
 14 18  1  0  0  0  0
 14 29  2  0  0  0  0
 15 24  1  0  0  0  0
 15 27  2  0  0  0  0
 16 30  2  0  0  0  0
 16 31  1  0  0  0  0
 17 32  1  0  0  0  0
 18 35  1  0  0  0  0
 19 25  2  0  0  0  0
 19 36  1  0  0  0  0
 20 32  1  0  0  0  0
 20 33  2  0  0  0  0
 20 38  1  0  0  0  0
 21 23  2  0  0  0  0
 21 43  1  0  0  0  0
 22 24  2  0  0  0  0
 22 44  1  0  0  0  0
 23 52  1  0  0  0  0
 24 45  1  0  0  0  0
 25 29  1  0  0  0  0
 25 55  1  0  0  0  0
 26 82  1  0  0  0  0
 27 83  1  0  0  0  0
 28 31  2  0  0  0  0
 28 82  1  0  0  0  0
 29 84  1  0  0  0  0
 30 85  1  0  0  0  0
 31 86  1  0  0  0  0
 32 68  2  0  0  0  0
 33 69  1  0  0  0  0
 33 72  1  0  0  0  0
 34 36  2  0  0  0  0
 35 37  2  0  0  0  0
 37 39  1  0  0  0  0
 38 73  1  0  0  0  0
 38 77  2  0  0  0  0
 39 70  1  0  0  0  0
 39 78  2  0  0  0  0
 40 53  1  0  0  0  0
 40 74  1  0  0  0  0
 40 79  2  0  0  0  0
 41 65  1  0  0  0  0
 41 71  1  0  0  0  0
 41 80  2  0  0  0  0
 42 66  1  0  0  0  0
 42 75  1  0  0  0  0
 42 81  2  0  0  0  0
 43 46  1  0  0  0  0
 44 53  1  0  0  0  0
 45 71  1  0  0  0  0
 46 48  1  0  0  0  0
 47 49  1  0  0  0  0
 47 50  1  0  0  0  0
 48 52  1  0  0  0  0
 49 54  1  0  0  0  0
 50 70  1  0  0  0  0
 51 54  1  0  0  0  0
 51 70  1  0  0  0  0
 52 74  1  0  0  0  0
 53 71  1  0  0  0  0
 54 69  1  0  0  0  0
 56 66  1  0  0  0  0
 57 67  1  0  0  0  0
 58 67  1  0  0  0  0
 59 67  1  0  0  0  0
 60 76  1  0  0  0  0
 61 62  1  0  0  0  0
 61 63  1  0  0  0  0
 62 64  1  0  0  0  0
 63 83  1  0  0  0  0
 64 84  1  0  0  0  0
 65 67  1  0  0  0  0
 65 75  1  0  0  0  0
 66 76  1  0  0  0  0
 68 69  1  0  0  0  0
M  CHG  1  76   1
M  ISO  4  37 100  39 100  63 101  83 101
M  END
> <Batch ID>
0119

> <Smiles>
C=Cc1cc(C=[100CH:0][100C:0](=O)N2CCCC(n3nc(-c4ccc(Oc5ccc(F)cc5F)cc4)c(C(N)=O)c3N)C2)cc(OCCC[101CH2:1][101O:1]c2ccc3c(c2)CN(C(=O)C(NC(=O)C(C)NC)C(C)(C)C)C(C(=O)NC2CCCc4ccccc42)C3)c1C

> <Shape>
0.299

> <Color>
0.089

> <Negative vol penalty>
0.000

$$$$

  -OEChem-04052301513D

 85 94  0     1  0  0  0  0  0999 V2000
  -36.9540  -32.6983   23.6035 C   0  0  0  0  0  0  0  0  0  0  0  0
  -36.3265  -31.6444   24.2601 C   0  0  0  0  0  0  0  0  0  0  0  0
  -22.6320  -10.2763   20.2299 C   0  0  0  0  0  0  0  0  0  0  0  0
  -24.2524   -9.5289   21.8586 C   0  0  0  0  0  0  0  0  0  0  0  0
  -36.5865  -33.0225   22.2982 C   0  0  0  0  0  0  0  0  0  0  0  0
  -35.3305  -30.9148   23.6121 C   0  0  0  0  0  0  0  0  0  0  0  0
  -34.1778  -24.9290   24.2016 C   0  0  0  0  0  0  0  0  0  0  0  0
  -21.8767   -9.1251   20.4530 C   0  0  0  0  0  0  0  0  0  0  0  0
  -23.4970   -8.3777   22.0818 C   0  0  0  0  0  0  0  0  0  0  0  0
  -33.2413  -24.2240   24.9565 C   0  0  0  0  0  0  0  0  0  0  0  0
  -21.9636   -5.8729   19.5365 C   0  0  0  0  0  0  0  0  0  0  0  0
  -21.4708   -5.1957   18.4211 C   0  0  0  0  0  0  0  0  0  0  0  0
  -31.7762  -24.1323   23.0422 C   0  0  0  0  0  0  0  0  0  0  0  0
  -31.8907  -17.4544   21.7913 C   0  0  0  0  0  0  0  0  0  0  0  0
  -19.2135   -5.5322   19.2141 C   0  0  0  0  0  0  0  0  0  0  0  0
  -23.8199  -10.4782   20.9326 C   0  0  0  0  0  0  0  0  0  0  0  0
  -24.1932  -13.0013   20.8883 C   0  0  0  0  0  0  0  0  0  0  0  0
  -35.5922  -32.2903   21.6305 C   0  0  0  0  0  0  0  0  0  0  0  0
  -33.9154  -25.2510   22.8622 C   0  0  0  0  0  0  0  0  0  0  0  0
  -34.9485  -31.2304   22.2971 C   0  0  0  0  0  0  0  0  0  0  0  0
  -32.7121  -24.8392   22.2718 C   0  0  0  0  0  0  0  0  0  0  0  0
  -32.0038  -18.6906   22.4908 C   0  0  0  0  0  0  0  0  0  0  0  0
  -22.3091   -8.1758   21.3790 C   0  0  0  0  0  0  0  0  0  0  0  0
  -32.0391  -23.8280   24.3777 C   0  0  0  0  0  0  0  0  0  0  0  0
  -21.0814   -6.3797   20.4908 C   0  0  0  0  0  0  0  0  0  0  0  0
  -20.0957   -5.0254   18.2599 C   0  0  0  0  0  0  0  0  0  0  0  0
  -19.7064   -6.2094   20.3296 C   0  0  0  0  0  0  0  0  0  0  0  0
  -24.6009  -11.6668   20.7021 C   0  0  0  0  0  0  0  0  0  0  0  0
  -30.8698  -18.9795   23.2175 C   0  0  0  0  0  0  0  0  0  0  0  0
  -25.2900  -13.7482   20.5337 C   0  0  0  0  0  0  0  0  0  0  0  0
  -30.6746  -16.8454   22.0103 C   0  0  0  0  0  0  0  0  0  0  0  0
  -22.9354  -13.5195   21.3414 C   0  0  0  0  0  0  0  0  0  0  0  0
  -30.5813  -20.1429   24.0675 C   0  0  0  0  0  0  0  0  0  0  0  0
  -33.6093  -27.9579   21.2244 C   0  0  0  0  0  0  0  0  0  0  0  0
  -33.4436  -25.9467   18.6848 C   0  0  0  0  0  0  0  0  0  0  0  0
  -32.7429  -22.8222   17.5044 C   0  0  0  0  0  0  0  0  0  0  0  0
  -30.7713  -14.7182   20.6643 C   0  0  0  0  0  0  0  0  0  0  0  0
  -35.1958  -32.7081   20.2366 C   0  0  0  0  0  0  0  0  0  0  0  0
  -34.9472  -25.9887   22.0539 C   0  0  0  0  0  0  0  0  0  0  0  0
  -32.3908  -25.1423   20.8319 C   0  0  0  0  0  0  0  0  0  0  0  0
  -34.3935  -31.6471   19.4876 C   0  0  0  0  0  0  0  0  0  0  0  0
  -29.5928  -12.3960   18.2362 C   0  0  0  0  0  0  0  0  0  0  0  0
  -31.8907  -19.3944   27.4679 C   0  0  0  0  0  0  0  0  0  0  0  0
  -33.2917  -31.0831   20.3790 C   0  0  0  0  0  0  0  0  0  0  0  0
  -28.1555  -12.1091   18.6766 C   0  0  0  0  0  0  0  0  0  0  0  0
  -30.8458  -20.4749   27.7266 C   0  0  0  0  0  0  0  0  0  0  0  0
  -31.5474  -18.9045   26.0701 C   0  0  0  0  0  0  0  0  0  0  0  0
  -30.5273  -12.5745   19.4315 C   0  0  0  0  0  0  0  0  0  0  0  0
  -28.6492  -13.2783   20.8620 C   0  0  0  0  0  0  0  0  0  0  0  0
  -33.8808  -30.3995   21.6188 C   0  0  1  0  0  0  0  0  0  0  0  0
  -34.3564  -26.7103   20.8465 C   0  0  1  0  0  0  0  0  0  0  0  0
  -27.6581  -13.1553   19.6932 C   0  0  2  0  0  0  0  0  0  0  0  0
  -30.6618  -21.1333   26.3578 C   0  0  1  0  0  0  0  0  0  0  0  0
  -33.2080  -19.5544   22.4338 C   0  0  0  0  0  0  0  0  0  0  0  0
  -32.6636  -21.4916   15.3782 C   0  0  0  0  0  0  0  0  0  0  0  0
  -30.8312  -27.3263   17.9218 C   0  0  0  0  0  0  0  0  0  0  0  0
  -30.3324  -25.3929   16.4115 C   0  0  0  0  0  0  0  0  0  0  0  0
  -32.3409  -26.8124   15.9954 C   0  0  0  0  0  0  0  0  0  0  0  0
  -34.7920  -20.9226   18.4801 C   0  0  0  0  0  0  0  0  0  0  0  0
  -31.6224  -22.3045   26.1556 C   0  0  0  0  0  0  0  0  0  1  0  0
  -32.3311  -25.2252   17.9632 C   0  0  1  0  0  0  0  0  0  0  0  0
  -33.5107  -21.9018   16.5727 C   0  0  2  0  0  0  0  0  0  0  0  0
  -31.4638  -26.1850   17.1007 C   0  0  0  0  0  0  0  0  0  0  0  0
  -25.8586  -11.5685   20.2631 N   0  0  0  0  0  0  0  0  0  0  0  0
  -26.2505  -12.8506   20.1704 N   0  0  0  0  0  0  0  0  0  0  0  0
  -30.9290  -20.0518   25.4082 N   0  0  0  0  0  0  0  0  0  0  0  0
  -33.4290  -25.8714   20.0848 N   0  0  0  0  0  0  0  0  0  0  0  0
  -29.9940  -13.5836   20.3491 N   0  0  0  0  0  0  0  0  0  0  0  0
  -25.5168  -15.0785   20.5002 N   0  0  0  0  0  0  0  0  0  0  0  0
  -22.7523  -13.7218   22.7161 N   0  0  0  0  0  0  0  0  0  0  0  0
  -30.1475  -15.6246   21.5209 N   0  0  0  0  0  0  0  0  0  0  0  0
  -34.3976  -29.0916   21.2773 N   0  0  0  0  0  0  0  0  0  0  0  0
  -32.9646  -24.1503   17.2072 N   0  0  0  0  0  0  0  0  0  0  0  0
  -33.9329  -20.6685   17.2950 N   0  3  0  0  0  0  0  0  0  0  0  0
  -21.9958  -13.7795   20.5521 O   0  0  0  0  0  0  0  0  0  0  0  0
  -30.0614  -21.1168   23.5277 O   0  0  0  0  0  0  0  0  0  0  0  0
  -32.4063  -27.8968   21.4498 O   0  0  0  0  0  0  0  0  0  0  0  0
  -34.2983  -26.5488   18.0301 O   0  0  0  0  0  0  0  0  0  0  0  0
  -32.0162  -22.4047   18.4033 O   0  0  0  0  0  0  0  0  0  0  0  0
  -31.8960  -14.8875   20.1864 O   0  0  0  0  0  0  0  0  0  0  0  0
  -21.5722   -7.0525   21.5972 O   0  0  0  0  0  0  0  0  0  0  0  0
  -31.1231  -23.1404   25.1124 O   0  0  0  0  0  0  0  0  0  1  0  0
  -19.6226   -4.3764   17.1879 F   0  0  0  0  0  0  0  0  0  0  0  0
  -18.8539   -6.6950   21.2424 F   0  0  0  0  0  0  0  0  0  0  0  0
  -29.6754  -17.7632   23.0552 S   0  0  0  0  0  0  0  0  0  0  0  0
  1  2  1  0  0  0  0
  1  5  2  0  0  0  0
  2  6  2  0  0  0  0
  3  8  2  0  0  0  0
  3 16  1  0  0  0  0
  4  9  1  0  0  0  0
  4 16  2  0  0  0  0
  5 18  1  0  0  0  0
  6 20  1  0  0  0  0
  7 10  2  0  0  0  0
  7 19  1  0  0  0  0
  8 23  1  0  0  0  0
  9 23  2  0  0  0  0
 10 24  1  0  0  0  0
 11 12  2  0  0  0  0
 11 25  1  0  0  0  0
 12 26  1  0  0  0  0
 13 21  1  0  0  0  0
 13 24  2  0  0  0  0
 14 22  1  0  0  0  0
 14 31  2  0  0  0  0
 15 26  2  0  0  0  0
 15 27  1  0  0  0  0
 16 28  1  0  0  0  0
 17 28  1  0  0  0  0
 17 30  2  0  0  0  0
 17 32  1  0  0  0  0
 18 20  2  0  0  0  0
 18 38  1  0  0  0  0
 19 21  2  0  0  0  0
 19 39  1  0  0  0  0
 20 50  1  0  0  0  0
 21 40  1  0  0  0  0
 22 29  2  0  0  0  0
 22 54  1  0  0  0  0
 23 81  1  0  0  0  0
 24 82  1  0  0  0  0
 25 27  2  0  0  0  0
 25 81  1  0  0  0  0
 26 83  1  0  0  0  0
 27 84  1  0  0  0  0
 28 64  2  0  0  0  0
 29 33  1  0  0  0  0
 29 85  1  0  0  0  0
 30 65  1  0  0  0  0
 30 69  1  0  0  0  0
 31 71  1  0  0  0  0
 31 85  1  0  0  0  0
 32 70  1  0  0  0  0
 32 75  2  0  0  0  0
 33 66  1  0  0  0  0
 33 76  2  0  0  0  0
 34 51  1  0  0  0  0
 34 72  1  0  0  0  0
 34 77  2  0  0  0  0
 35 61  1  0  0  0  0
 35 67  1  0  0  0  0
 35 78  2  0  0  0  0
 36 62  1  0  0  0  0
 36 73  1  0  0  0  0
 36 79  2  0  0  0  0
 37 68  1  0  0  0  0
 37 71  1  0  0  0  0
 37 80  2  0  0  0  0
 38 41  1  0  0  0  0
 39 51  1  0  0  0  0
 40 67  1  0  0  0  0
 41 44  1  0  0  0  0
 42 45  1  0  0  0  0
 42 48  1  0  0  0  0
 43 46  1  0  0  0  0
 43 47  1  0  0  0  0
 44 50  1  0  0  0  0
 45 52  1  0  0  0  0
 46 53  1  0  0  0  0
 47 66  1  0  0  0  0
 48 68  1  0  0  0  0
 49 52  1  0  0  0  0
 49 68  1  0  0  0  0
 50 72  1  0  0  0  0
 51 67  1  0  0  0  0
 52 65  1  0  0  0  0
 53 60  1  0  0  0  0
 53 66  1  0  0  0  0
 55 62  1  0  0  0  0
 56 63  1  0  0  0  0
 57 63  1  0  0  0  0
 58 63  1  0  0  0  0
 59 74  1  0  0  0  0
 60 82  1  0  0  0  0
 61 63  1  0  0  0  0
 61 73  1  0  0  0  0
 62 74  1  0  0  0  0
 64 65  1  0  0  0  0
M  CHG  1  74   1
M  ISO  4  37 100  60 101  71 100  82 101
M  END
> <Batch ID>
0119

> <Smiles>
CNC(C)C(=O)NC(C(=O)N1Cc2cc([101O:1][101CH2:1]C3CCCN3C(=O)c3sc([100NH:0][100C:0](=O)N4CCCC(n5nc(-c6ccc(Oc7ccc(F)cc7F)cc6)c(C(N)=O)c5N)C4)cc3C)ccc2CC1C(=O)NC1CCCc2ccccc21)C(C)(C)C

> <Shape>
0.164

> <Color>
0.173

> <Negative vol penalty>
0.000

$$$$

  -OEChem-04052301513D

 85 94  0     1  0  0  0  0  0999 V2000
  -30.2984  -35.4836   24.0404 C   0  0  0  0  0  0  0  0  0  0  0  0
  -30.3873  -34.3852   23.1912 C   0  0  0  0  0  0  0  0  0  0  0  0
  -24.7504   -9.1852   21.8461 C   0  0  0  0  0  0  0  0  0  0  0  0
  -23.2360  -11.0418   22.1568 C   0  0  0  0  0  0  0  0  0  0  0  0
  -29.3979  -35.4694   25.1047 C   0  0  0  0  0  0  0  0  0  0  0  0
  -29.5764  -33.2714   23.4067 C   0  0  0  0  0  0  0  0  0  0  0  0
  -27.1342  -29.6158   19.1431 C   0  0  0  0  0  0  0  0  0  0  0  0
  -26.4758  -19.6668   16.2810 C   0  0  0  0  0  0  0  0  0  0  0  0
  -27.0898  -20.8401   16.7189 C   0  0  0  0  0  0  0  0  0  0  0  0
  -23.9805   -8.4118   22.7148 C   0  0  0  0  0  0  0  0  0  0  0  0
  -22.4660  -10.2684   23.0255 C   0  0  0  0  0  0  0  0  0  0  0  0
  -27.5215  -28.3758   18.6371 C   0  0  0  0  0  0  0  0  0  0  0  0
  -21.0916   -6.6588   22.5934 C   0  0  0  0  0  0  0  0  0  0  0  0
  -20.7992   -5.3500   22.2099 C   0  0  0  0  0  0  0  0  0  0  0  0
  -26.0163  -27.2850   20.1745 C   0  0  0  0  0  0  0  0  0  0  0  0
  -28.3130  -19.5806   18.3786 C   0  0  0  0  0  0  0  0  0  0  0  0
  -21.9188   -4.5214   24.1840 C   0  0  0  0  0  0  0  0  0  0  0  0
  -24.3782  -10.5002   21.5671 C   0  0  0  0  0  0  0  0  0  0  0  0
  -25.0259  -11.4133   19.2748 C   0  0  0  0  0  0  0  0  0  0  0  0
  -28.5687  -34.3588   25.3275 C   0  0  0  0  0  0  0  0  0  0  0  0
  -26.1914  -29.6993   20.1778 C   0  0  0  0  0  0  0  0  0  0  0  0
  -28.6649  -33.2418   24.4757 C   0  0  0  0  0  0  0  0  0  0  0  0
  -25.6167  -28.5274   20.6901 C   0  0  0  0  0  0  0  0  0  0  0  0
  -26.7804  -18.4503   16.8919 C   0  0  0  0  0  0  0  0  0  0  0  0
  -28.0084  -20.7971   17.7677 C   0  0  0  0  0  0  0  0  0  0  0  0
  -27.6990  -18.4072   17.9406 C   0  0  0  0  0  0  0  0  0  0  0  0
  -22.8383   -8.9534   23.3045 C   0  0  0  0  0  0  0  0  0  0  0  0
  -26.9647  -27.2100   19.1547 C   0  0  0  0  0  0  0  0  0  0  0  0
  -21.7977   -6.8989   23.7722 C   0  0  0  0  0  0  0  0  0  0  0  0
  -21.2127   -4.2813   23.0052 C   0  0  0  0  0  0  0  0  0  0  0  0
  -22.2113   -5.8302   24.5675 C   0  0  0  0  0  0  0  0  0  0  0  0
  -25.1734  -11.2998   20.6702 C   0  0  0  0  0  0  0  0  0  0  0  0
  -26.0162  -12.2857   18.8947 C   0  0  0  0  0  0  0  0  0  0  0  0
  -28.8587  -24.1754   18.8494 C   0  0  0  0  0  0  0  0  0  0  0  0
  -28.4025  -25.3675   19.2499 C   0  0  0  0  0  0  0  0  0  1  0  0
  -24.0783  -10.7861   18.4005 C   0  0  0  0  0  0  0  0  0  0  0  0
  -26.2257  -30.7978   23.1604 C   0  0  0  0  0  0  0  0  0  0  0  0
  -23.0524  -30.1388   23.0259 C   0  0  0  0  0  0  0  0  0  0  0  0
  -20.5240  -28.3437   21.6005 C   0  0  0  0  0  0  0  0  0  0  0  0
  -28.9139  -16.9836   19.6269 C   0  0  0  0  0  0  0  0  0  0  0  0
  -27.6443  -34.3705   26.5191 C   0  0  0  0  0  0  0  0  0  0  0  0
  -25.7643  -31.0459   20.6944 C   0  0  0  0  0  0  0  0  0  0  0  0
  -24.5856  -28.5638   21.7873 C   0  0  0  0  0  0  0  0  0  0  0  0
  -29.9943  -23.4353   19.4811 C   0  0  0  0  0  0  0  0  0  0  0  0
  -26.5550  -33.3030   26.4555 C   0  0  0  0  0  0  0  0  0  0  0  0
  -29.9540  -14.1304   21.4856 C   0  0  0  0  0  0  0  0  0  0  0  0
  -27.1499  -31.9563   26.0563 C   0  0  0  0  0  0  0  0  0  0  0  0
  -28.7909  -13.1490   21.3244 C   0  0  0  0  0  0  0  0  0  0  0  0
  -29.5898  -21.9758   19.2990 C   0  0  0  0  0  0  0  0  0  0  0  0
  -29.4667  -15.5740   21.5973 C   0  0  0  0  0  0  0  0  0  0  0  0
  -27.4081  -15.0307   20.3578 C   0  0  0  0  0  0  0  0  0  0  0  0
  -27.7845  -32.0251   24.6620 C   0  0  1  0  0  0  0  0  0  0  0  0
  -28.2311  -23.3153   17.7825 C   0  0  1  0  0  0  0  0  0  0  0  0
  -25.1771  -30.9874   22.1012 C   0  0  1  0  0  0  0  0  0  0  0  0
  -27.8530  -13.5703   20.1761 C   0  0  2  0  0  0  0  0  0  0  0  0
  -26.1073  -17.2094   16.4020 C   0  0  0  0  0  0  0  0  0  0  0  0
  -28.8182  -23.6497   16.4122 C   0  0  0  0  0  0  0  0  0  0  0  0
  -18.0420  -27.9953   21.7255 C   0  0  0  0  0  0  0  0  0  0  0  0
  -23.4143  -28.4905   25.5679 C   0  0  0  0  0  0  0  0  0  0  0  0
  -21.1943  -27.4270   25.1110 C   0  0  0  0  0  0  0  0  0  0  0  0
  -21.3385  -29.8843   25.5151 C   0  0  0  0  0  0  0  0  0  0  0  0
  -20.1408  -29.2380   18.8054 C   0  0  0  0  0  0  0  0  0  0  0  0
  -22.1966  -28.9342   23.3349 C   0  0  1  0  0  0  0  0  0  0  0  0
  -19.1705  -28.7658   21.0580 C   0  0  2  0  0  0  0  0  0  0  0  0
  -22.0568  -28.6829   24.8629 C   0  0  0  0  0  0  0  0  0  0  0  0
  -26.1784  -12.0408   21.1444 N   0  0  0  0  0  0  0  0  0  0  0  0
  -26.6714  -12.6282   20.0408 N   0  0  0  0  0  0  0  0  0  0  0  0
  -28.6177  -21.9621   18.2021 N   0  0  3  0  0  0  0  0  0  0  0  0
  -24.2054  -29.9040   22.2635 N   0  0  0  0  0  0  0  0  0  0  0  0
  -28.5871  -15.9033   20.4736 N   0  0  0  0  0  0  0  0  0  0  0  0
  -26.3819  -12.7856   17.6952 N   0  0  0  0  0  0  0  0  0  0  0  0
  -23.1290   -9.9178   18.9565 N   0  0  0  0  0  0  0  0  0  0  0  0
  -28.0215  -17.1813   18.5738 N   0  0  0  0  0  0  0  0  0  0  0  0
  -26.7624  -31.9780   23.6385 N   0  0  0  0  0  0  0  0  0  0  0  0
  -20.9284  -29.1469   22.6458 N   0  0  0  0  0  0  0  0  0  0  0  0
  -19.1020  -28.5217   19.5895 N   0  3  0  0  0  0  0  0  0  0  0  0
  -24.0840  -10.9770   17.1607 O   0  0  0  0  0  0  0  0  0  0  0  0
  -26.5247  -29.6646   23.5186 O   0  0  0  0  0  0  0  0  0  0  0  0
  -22.7067  -31.2484   23.4394 O   0  0  0  0  0  0  0  0  0  0  0  0
  -21.1574  -27.3940   21.1451 O   0  0  0  0  0  0  0  0  0  0  0  0
  -29.9268  -17.6649   19.8058 O   0  0  0  0  0  0  0  0  0  0  0  0
  -22.0866   -8.1989   24.1520 O   0  0  0  0  0  0  0  0  0  0  0  0
  -27.3415  -25.9983   18.6631 O   0  0  0  0  0  0  0  0  0  1  0  0
  -20.9305   -3.0246   22.6375 F   0  0  0  0  0  0  0  0  0  0  0  0
  -22.8889   -6.0547   25.7016 F   0  0  0  0  0  0  0  0  0  0  0  0
  1  2  1  0  0  0  0
  1  5  2  0  0  0  0
  2  6  2  0  0  0  0
  3 10  2  0  0  0  0
  3 18  1  0  0  0  0
  4 11  1  0  0  0  0
  4 18  2  0  0  0  0
  5 20  1  0  0  0  0
  6 22  1  0  0  0  0
  7 12  2  0  0  0  0
  7 21  1  0  0  0  0
  8  9  2  0  0  0  0
  8 24  1  0  0  0  0
  9 25  1  0  0  0  0
 10 27  1  0  0  0  0
 11 27  2  0  0  0  0
 12 28  1  0  0  0  0
 13 14  2  0  0  0  0
 13 29  1  0  0  0  0
 14 30  1  0  0  0  0
 15 23  1  0  0  0  0
 15 28  2  0  0  0  0
 16 25  2  0  0  0  0
 16 26  1  0  0  0  0
 17 30  2  0  0  0  0
 17 31  1  0  0  0  0
 18 32  1  0  0  0  0
 19 32  1  0  0  0  0
 19 33  2  0  0  0  0
 19 36  1  0  0  0  0
 20 22  2  0  0  0  0
 20 41  1  0  0  0  0
 21 23  2  0  0  0  0
 21 42  1  0  0  0  0
 22 52  1  0  0  0  0
 23 43  1  0  0  0  0
 24 26  2  0  0  0  0
 24 56  1  0  0  0  0
 25 68  1  0  0  0  0
 26 73  1  0  0  0  0
 27 82  1  0  0  0  0
 28 83  1  0  0  0  0
 29 31  2  0  0  0  0
 29 82  1  0  0  0  0
 30 84  1  0  0  0  0
 31 85  1  0  0  0  0
 32 66  2  0  0  0  0
 33 67  1  0  0  0  0
 33 71  1  0  0  0  0
 34 35  2  0  0  0  0
 34 44  1  0  0  0  0
 34 53  1  0  0  0  0
 35 83  1  0  0  0  0
 36 72  1  0  0  0  0
 36 77  2  0  0  0  0
 37 54  1  0  0  0  0
 37 74  1  0  0  0  0
 37 78  2  0  0  0  0
 38 63  1  0  0  0  0
 38 69  1  0  0  0  0
 38 79  2  0  0  0  0
 39 64  1  0  0  0  0
 39 75  1  0  0  0  0
 39 80  2  0  0  0  0
 40 70  1  0  0  0  0
 40 73  1  0  0  0  0
 40 81  2  0  0  0  0
 41 45  1  0  0  0  0
 42 54  1  0  0  0  0
 43 69  1  0  0  0  0
 44 49  1  0  0  0  0
 45 47  1  0  0  0  0
 46 48  1  0  0  0  0
 46 50  1  0  0  0  0
 47 52  1  0  0  0  0
 48 55  1  0  0  0  0
 49 68  1  0  0  0  0
 50 70  1  0  0  0  0
 51 55  1  0  0  0  0
 51 70  1  0  0  0  0
 52 74  1  0  0  0  0
 53 57  1  0  0  0  0
 53 68  1  0  0  0  0
 54 69  1  0  0  0  0
 55 67  1  0  0  0  0
 58 64  1  0  0  0  0
 59 65  1  0  0  0  0
 60 65  1  0  0  0  0
 61 65  1  0  0  0  0
 62 76  1  0  0  0  0
 63 65  1  0  0  0  0
 63 75  1  0  0  0  0
 64 76  1  0  0  0  0
 66 67  1  0  0  0  0
M  CHG  1  76   1
M  ISO  4  35 101  40 100  73 100  83 101
M  END
> <Batch ID>
0119

> <Smiles>
CNC(C)C(=O)NC(C(=O)N1Cc2cc([101O:1][101CH:1]=C3CCN(c4ccc(C)c([100NH:0][100C:0](=O)N5CCCC(n6nc(-c7ccc(Oc8ccc(F)cc8F)cc7)c(C(N)=O)c6N)C5)c4)C3C)ccc2CC1C(=O)NC1CCCc2ccccc21)C(C)(C)C

> <Shape>
0.309

> <Color>
0.096

> <Negative vol penalty>
0.000

$$$$

  -OEChem-04052301513D

 84 92  0     1  0  0  0  0  0999 V2000
  -27.7973  -32.7231   27.5012 C   0  0  0  0  0  0  0  0  0  0  0  0
  -27.9550  -31.6525   26.6270 C   0  0  0  0  0  0  0  0  0  0  0  0
  -24.2959   -8.9743   21.4396 C   0  0  0  0  0  0  0  0  0  0  0  0
  -24.8335  -10.2622   23.4117 C   0  0  0  0  0  0  0  0  0  0  0  0
  -26.5250  -33.2352   27.7520 C   0  0  0  0  0  0  0  0  0  0  0  0
  -26.8402  -31.0926   26.0038 C   0  0  0  0  0  0  0  0  0  0  0  0
  -27.6005  -30.2294   21.0721 C   0  0  0  0  0  0  0  0  0  0  0  0
  -23.9856   -7.8759   22.2414 C   0  0  0  0  0  0  0  0  0  0  0  0
  -24.5232   -9.1638   24.2136 C   0  0  0  0  0  0  0  0  0  0  0  0
  -28.3480  -29.1032   20.7307 C   0  0  0  0  0  0  0  0  0  0  0  0
  -21.4028   -6.8474   24.1660 C   0  0  0  0  0  0  0  0  0  0  0  0
  -20.2342   -6.1430   23.8765 C   0  0  0  0  0  0  0  0  0  0  0  0
  -26.3108  -27.9048   20.2481 C   0  0  0  0  0  0  0  0  0  0  0  0
  -30.1491  -18.7862   19.9410 C   0  0  0  0  0  0  0  0  0  0  0  0
  -27.9663  -20.3652   20.6655 C   0  0  0  0  0  0  0  0  0  0  0  0
  -21.5338   -4.1413   23.5006 C   0  0  0  0  0  0  0  0  0  0  0  0
  -24.7200  -10.1674   22.0247 C   0  0  0  0  0  0  0  0  0  0  0  0
  -24.1657  -12.3192   20.7717 C   0  0  0  0  0  0  0  0  0  0  0  0
  -25.3951  -32.6876   27.1242 C   0  0  0  0  0  0  0  0  0  0  0  0
  -26.1997  -30.1983   21.0144 C   0  0  0  0  0  0  0  0  0  0  0  0
  -25.5515  -31.5970   26.2475 C   0  0  0  0  0  0  0  0  0  0  0  0
  -25.5479  -29.0328   20.5868 C   0  0  0  0  0  0  0  0  0  0  0  0
  -30.3418  -20.1204   20.2994 C   0  0  0  0  0  0  0  0  0  0  0  0
  -27.7736  -19.0311   20.3070 C   0  0  0  0  0  0  0  0  0  0  0  0
  -28.8649  -18.2416   19.9448 C   0  0  0  0  0  0  0  0  0  0  0  0
  -24.0992   -7.9707   23.6284 C   0  0  0  0  0  0  0  0  0  0  0  0
  -27.7031  -27.9397   20.3213 C   0  0  0  0  0  0  0  0  0  0  0  0
  -22.6370   -6.1987   24.1227 C   0  0  0  0  0  0  0  0  0  0  0  0
  -29.2505  -20.9099   20.6617 C   0  0  0  0  0  0  0  0  0  0  0  0
  -20.2997   -4.7900   23.5439 C   0  0  0  0  0  0  0  0  0  0  0  0
  -22.7025   -4.8457   23.7901 C   0  0  0  0  0  0  0  0  0  0  0  0
  -25.0413  -11.3021   21.1970 C   0  0  0  0  0  0  0  0  0  0  0  0
  -24.9508  -13.1534   20.0139 C   0  0  0  0  0  0  0  0  0  0  0  0
  -22.7678  -12.4943   21.0379 C   0  0  0  0  0  0  0  0  0  0  0  0
  -23.8592  -30.5387   23.1380 C   0  0  0  0  0  0  0  0  0  0  0  0
  -28.8754  -24.5158   20.5044 C   0  0  0  0  0  0  0  0  0  0  0  0
  -21.9738  -30.3919   20.5024 C   0  0  0  0  0  0  0  0  0  0  0  0
  -21.5879  -29.3686   17.2697 C   0  0  0  0  0  0  0  0  0  0  0  0
  -29.6781  -15.9787   19.1933 C   0  0  0  0  0  0  0  0  0  0  0  0
  -24.0350  -33.2444   27.4631 C   0  0  0  0  0  0  0  0  0  0  0  0
  -25.4088  -31.4300   21.3604 C   0  0  0  0  0  0  0  0  0  0  0  0
  -24.0471  -28.9542   20.4884 C   0  0  0  0  0  0  0  0  0  0  0  0
  -22.9462  -32.8363   26.4741 C   0  0  0  0  0  0  0  0  0  0  0  0
  -29.6560  -12.5457   18.2493 C   0  0  0  0  0  0  0  0  0  0  0  0
  -23.0264  -31.3420   26.1783 C   0  0  0  0  0  0  0  0  0  0  0  0
  -28.3814  -11.9998   18.8970 C   0  0  0  0  0  0  0  0  0  0  0  0
  -30.3418  -13.5848   19.1346 C   0  0  0  0  0  0  0  0  0  0  0  0
  -28.2053  -14.1412   20.2276 C   0  0  0  0  0  0  0  0  0  0  0  0
  -24.3693  -30.9786   25.5332 C   0  0  1  0  0  0  0  0  0  0  0  0
  -23.9684  -31.1231   21.7581 C   0  0  1  0  0  0  0  0  0  0  0  0
  -27.4444  -13.1388   19.3446 C   0  0  2  0  0  0  0  0  0  0  0  0
  -31.7234  -20.6866   20.2881 C   0  0  0  0  0  0  0  0  0  0  0  0
  -26.3872  -18.4736   20.3198 C   0  0  0  0  0  0  0  0  0  0  0  0
  -19.9234  -29.3593   15.3918 C   0  0  0  0  0  0  0  0  0  0  0  0
  -20.4308  -28.1515   21.8844 C   0  0  0  0  0  0  0  0  0  0  0  0
  -19.4423  -27.5563   19.6625 C   0  0  0  0  0  0  0  0  0  0  0  0
  -19.0034  -29.8002   20.6601 C   0  0  0  0  0  0  0  0  0  0  0  0
  -23.3783  -30.9478   15.5205 C   0  0  0  0  0  0  0  0  0  0  0  0
  -27.8238  -25.5670   20.2140 C   0  0  0  0  0  0  0  0  0  1  0  0
  -28.3578  -23.1126   20.7450 C   0  0  0  0  0  0  0  0  0  0  0  0
  -21.2977  -29.2836   19.7320 C   0  0  1  0  0  0  0  0  0  0  0  0
  -21.0871  -30.0969   16.0356 C   0  0  2  0  0  0  0  0  0  0  0  0
  -20.0718  -28.6985   20.4884 C   0  0  0  0  0  0  0  0  0  0  0  0
  -26.2871  -11.4726   20.7467 N   0  0  0  0  0  0  0  0  0  0  0  0
  -26.2001  -12.6064   20.0305 N   0  0  0  0  0  0  0  0  0  0  0  0
  -23.3176  -30.1828   20.8435 N   0  0  0  0  0  0  0  0  0  0  0  0
  -29.3946  -14.6347   19.5157 N   0  0  0  0  0  0  0  0  0  0  0  0
  -24.6875  -14.2941   19.3417 N   0  0  0  0  0  0  0  0  0  0  0  0
  -22.1154  -11.5441   21.8353 N   0  0  0  0  0  0  0  0  0  0  0  0
  -28.6896  -16.8845   19.5768 N   0  0  0  0  0  0  0  0  0  0  0  0
  -24.3738  -31.3469   24.1337 N   0  0  0  0  0  0  0  0  0  0  0  0
  -20.9824  -29.8334   18.4180 N   0  0  0  0  0  0  0  0  0  0  0  0
  -22.1790  -30.2218   15.0290 N   0  3  0  0  0  0  0  0  0  0  0  0
  -22.1129  -13.4557   20.5685 O   0  0  0  0  0  0  0  0  0  0  0  0
  -23.3447  -29.4367   23.2885 O   0  0  0  0  0  0  0  0  0  0  0  0
  -30.0750  -24.7853   20.5430 O   0  0  0  0  0  0  0  0  0  0  0  0
  -21.3353  -31.4088   20.7849 O   0  0  0  0  0  0  0  0  0  0  0  0
  -22.4292  -28.4740   17.2197 O   0  0  0  0  0  0  0  0  0  0  0  0
  -30.7084  -16.2992   18.5951 O   0  0  0  0  0  0  0  0  0  0  0  0
  -23.7962   -6.8992   24.4112 O   0  0  0  0  0  0  0  0  0  0  0  0
  -28.4303  -26.8388   19.9881 O   0  0  0  0  0  0  0  0  0  1  0  0
  -29.4231  -22.2267   21.0171 O   0  0  0  0  0  0  0  0  0  0  0  0
  -19.1773   -4.1133   23.2674 F   0  0  0  0  0  0  0  0  0  0  0  0
  -23.8851   -4.2169   23.7480 F   0  0  0  0  0  0  0  0  0  0  0  0
  1  2  1  0  0  0  0
  1  5  2  0  0  0  0
  2  6  2  0  0  0  0
  3  8  2  0  0  0  0
  3 17  1  0  0  0  0
  4  9  1  0  0  0  0
  4 17  2  0  0  0  0
  5 19  1  0  0  0  0
  6 21  1  0  0  0  0
  7 10  2  0  0  0  0
  7 20  1  0  0  0  0
  8 26  1  0  0  0  0
  9 26  2  0  0  0  0
 10 27  1  0  0  0  0
 11 12  2  0  0  0  0
 11 28  1  0  0  0  0
 12 30  1  0  0  0  0
 13 22  1  0  0  0  0
 13 27  2  0  0  0  0
 14 23  1  0  0  0  0
 14 25  2  0  0  0  0
 15 24  2  0  0  0  0
 15 29  1  0  0  0  0
 16 30  2  0  0  0  0
 16 31  1  0  0  0  0
 17 32  1  0  0  0  0
 18 32  1  0  0  0  0
 18 33  2  0  0  0  0
 18 34  1  0  0  0  0
 19 21  2  0  0  0  0
 19 40  1  0  0  0  0
 20 22  2  0  0  0  0
 20 41  1  0  0  0  0
 21 49  1  0  0  0  0
 22 42  1  0  0  0  0
 23 29  2  0  0  0  0
 23 52  1  0  0  0  0
 24 25  1  0  0  0  0
 24 53  1  0  0  0  0
 25 70  1  0  0  0  0
 26 80  1  0  0  0  0
 27 81  1  0  0  0  0
 28 31  2  0  0  0  0
 28 80  1  0  0  0  0
 29 82  1  0  0  0  0
 30 83  1  0  0  0  0
 31 84  1  0  0  0  0
 32 64  2  0  0  0  0
 33 65  1  0  0  0  0
 33 68  1  0  0  0  0
 34 69  1  0  0  0  0
 34 74  2  0  0  0  0
 35 50  1  0  0  0  0
 35 71  1  0  0  0  0
 35 75  2  0  0  0  0
 36 59  1  0  0  0  0
 36 60  1  0  0  0  0
 36 76  2  0  0  0  0
 37 61  1  0  0  0  0
 37 66  1  0  0  0  0
 37 77  2  0  0  0  0
 38 62  1  0  0  0  0
 38 72  1  0  0  0  0
 38 78  2  0  0  0  0
 39 67  1  0  0  0  0
 39 70  1  0  0  0  0
 39 79  2  0  0  0  0
 40 43  1  0  0  0  0
 41 50  1  0  0  0  0
 42 66  1  0  0  0  0
 43 45  1  0  0  0  0
 44 46  1  0  0  0  0
 44 47  1  0  0  0  0
 45 49  1  0  0  0  0
 46 51  1  0  0  0  0
 47 67  1  0  0  0  0
 48 51  1  0  0  0  0
 48 67  1  0  0  0  0
 49 71  1  0  0  0  0
 50 66  1  0  0  0  0
 51 65  1  0  0  0  0
 54 62  1  0  0  0  0
 55 63  1  0  0  0  0
 56 63  1  0  0  0  0
 57 63  1  0  0  0  0
 58 73  1  0  0  0  0
 59 81  1  0  0  0  0
 60 82  1  0  0  0  0
 61 63  1  0  0  0  0
 61 72  1  0  0  0  0
 62 73  1  0  0  0  0
 64 65  1  0  0  0  0
M  CHG  1  73   1
M  ISO  4  39 100  59 101  70 100  81 101
M  END
> <Batch ID>
0119

> <Smiles>
CNC(C)C(=O)NC(C(=O)N1Cc2cc([101O:1][101CH2:1]C(=O)COc3cc(C)c([100NH:0][100C:0](=O)N4CCCC(n5nc(-c6ccc(Oc7ccc(F)cc7F)cc6)c(C(N)=O)c5N)C4)cc3C)ccc2CC1C(=O)NC1CCCc2ccccc21)C(C)(C)C

> <Shape>
0.339

> <Color>
0.137

> <Negative vol penalty>
0.000

$$$$

  -OEChem-04052301513D

 84 92  0     1  0  0  0  0  0999 V2000
  -28.4212  -18.7313   15.9797 C   0  0  0  0  0  0  0  0  0  0  0  0
  -27.7970  -19.9579   16.1831 C   0  0  0  0  0  0  0  0  0  0  0  0
  -24.5223  -14.5994   20.7627 C   0  0  0  0  0  0  0  0  0  0  0  0
  -24.7306  -14.1445   23.1263 C   0  0  0  0  0  0  0  0  0  0  0  0
  -29.1344  -18.1328   17.0175 C   0  0  0  0  0  0  0  0  0  0  0  0
  -27.8849  -20.5862   17.4249 C   0  0  0  0  0  0  0  0  0  0  0  0
  -28.1835  -26.6096   18.4902 C   0  0  0  0  0  0  0  0  0  0  0  0
  -25.5176  -13.6599   20.4941 C   0  0  0  0  0  0  0  0  0  0  0  0
  -25.7260  -13.2049   22.8577 C   0  0  0  0  0  0  0  0  0  0  0  0
  -27.2179  -27.5465   18.8559 C   0  0  0  0  0  0  0  0  0  0  0  0
  -28.2573  -11.6397   19.2147 C   0  0  0  0  0  0  0  0  0  0  0  0
  -29.2520  -11.9894   18.3015 C   0  0  0  0  0  0  0  0  0  0  0  0
  -20.6770  -26.5964   22.0128 C   0  0  0  0  0  0  0  0  0  0  0  0
  -18.4333  -26.2316   22.8310 C   0  0  0  0  0  0  0  0  0  0  0  0
  -19.3609  -28.4623   22.8024 C   0  0  0  0  0  0  0  0  0  0  0  0
  -27.8539  -27.2901   21.1687 C   0  0  0  0  0  0  0  0  0  0  0  0
  -29.8884  -13.8488   19.7069 C   0  0  0  0  0  0  0  0  0  0  0  0
  -24.1288  -14.8418   22.0788 C   0  0  0  0  0  0  0  0  0  0  0  0
  -19.6199  -25.7313   22.2951 C   0  0  0  0  0  0  0  0  0  0  0  0
  -20.5475  -27.9619   22.2665 C   0  0  0  0  0  0  0  0  0  0  0  0
  -21.7142  -15.5837   22.4353 C   0  0  0  0  0  0  0  0  0  0  0  0
  -29.2391  -18.7586   18.2697 C   0  0  0  0  0  0  0  0  0  0  0  0
  -28.9854  -25.9968   19.4637 C   0  0  0  0  0  0  0  0  0  0  0  0
  -28.5990  -19.9948   18.4808 C   0  0  0  0  0  0  0  0  0  0  0  0
  -28.8306  -26.3476   20.8124 C   0  0  0  0  0  0  0  0  0  0  0  0
  -18.3037  -27.5971   23.0847 C   0  0  0  0  0  0  0  0  0  0  0  0
  -26.1195  -12.9626   21.5416 C   0  0  0  0  0  0  0  0  0  0  0  0
  -27.0510  -27.8847   20.1956 C   0  0  0  0  0  0  0  0  0  0  0  0
  -28.0780  -12.3945   20.3739 C   0  0  0  0  0  0  0  0  0  0  0  0
  -30.0675  -13.0940   18.5476 C   0  0  0  0  0  0  0  0  0  0  0  0
  -28.8936  -13.4990   20.6200 C   0  0  0  0  0  0  0  0  0  0  0  0
  -23.1011  -15.8126   22.3569 C   0  0  0  0  0  0  0  0  0  0  0  0
  -21.1785  -16.8158   22.7205 C   0  0  0  0  0  0  0  0  0  0  0  0
  -19.7556  -24.3072   22.0308 C   0  0  0  0  0  0  0  0  0  0  0  0
  -20.9233  -23.6455   21.8861 C   0  0  0  0  0  0  0  0  0  0  0  0
  -23.0538  -28.3390   22.0631 C   0  0  0  0  0  0  0  0  0  0  0  0
  -24.1040  -29.1244   21.7867 C   0  0  0  0  0  0  0  0  0  0  0  0
  -21.6716  -28.8817   21.9672 C   0  0  0  0  0  0  0  0  0  0  0  0
  -20.9763  -14.3662   22.2656 C   0  0  0  0  0  0  0  0  0  0  0  0
  -20.8959  -22.1914   21.6300 C   0  0  0  0  0  0  0  0  0  0  0  0
  -29.4210  -23.0082   20.4548 C   0  0  0  0  0  0  0  0  0  0  0  0
  -31.7647  -24.3569   22.2465 C   0  0  0  0  0  0  0  0  0  0  0  0
  -33.0107  -27.1513   23.7585 C   0  0  0  0  0  0  0  0  0  0  0  0
  -29.9812  -18.0505   19.3754 C   0  0  0  0  0  0  0  0  0  0  0  0
  -30.0407  -25.0080   19.0501 C   0  0  0  0  0  0  0  0  0  0  0  0
  -29.6800  -25.7336   21.8941 C   0  0  0  0  0  0  0  0  0  0  0  0
  -30.3404  -18.9600   20.5476 C   0  0  0  0  0  0  0  0  0  0  0  0
  -23.3780  -21.1354   24.1111 C   0  0  0  0  0  0  0  0  0  0  0  0
  -29.1383  -19.8063   20.9545 C   0  0  0  0  0  0  0  0  0  0  0  0
  -23.4425  -19.6345   23.8415 C   0  0  0  0  0  0  0  0  0  0  0  0
  -23.1328  -21.9359   22.8329 C   0  0  0  0  0  0  0  0  0  0  0  0
  -21.9922  -19.9912   21.8045 C   0  0  0  0  0  0  0  0  0  0  0  0
  -28.6922  -20.7193   19.8061 C   0  0  1  0  0  0  0  0  0  0  0  0
  -30.4515  -24.0660   20.1776 C   0  0  1  0  0  0  0  0  0  0  0  0
  -22.1913  -19.1633   23.0836 C   0  0  1  0  0  0  0  0  0  0  0  0
  -17.0349  -28.1321   23.6580 C   0  0  0  0  0  0  0  0  0  0  0  0
  -34.9232  -27.9340   25.1822 C   0  0  0  0  0  0  0  0  0  0  0  0
  -30.4840  -23.0435   24.6847 C   0  0  0  0  0  0  0  0  0  0  0  0
  -31.8184  -24.5904   26.1321 C   0  0  0  0  0  0  0  0  0  0  0  0
  -32.9832  -22.9595   24.6467 C   0  0  0  0  0  0  0  0  0  0  0  0
  -33.9196  -29.0631   21.6902 C   0  0  0  0  0  0  0  0  0  0  0  0
  -25.5203  -28.6502   21.8468 C   0  0  0  0  0  0  0  0  0  1  0  0
  -31.8387  -24.9689   23.6246 C   0  0  1  0  0  0  0  0  0  0  0  0
  -34.4023  -27.7578   23.7644 C   0  0  2  0  0  0  0  0  0  0  0  0
  -31.7636  -23.9009   24.7521 C   0  0  0  0  0  0  0  0  0  0  0  0
  -23.4260  -17.0897   22.5745 N   0  0  0  0  0  0  0  0  0  0  0  0
  -22.2357  -17.6744   22.7924 N   0  0  0  0  0  0  0  0  0  0  0  0
  -21.9655  -21.4289   22.0959 N   0  0  0  0  0  0  0  0  0  0  0  0
  -30.6938  -24.7673   21.4400 N   0  0  0  0  0  0  0  0  0  0  0  0
  -19.9108  -17.2377   22.9141 N   0  0  0  0  0  0  0  0  0  0  0  0
  -21.6834  -13.1912   21.9764 N   0  0  0  0  0  0  0  0  0  0  0  0
  -29.5734  -21.8623   19.6977 N   0  0  0  0  0  0  0  0  0  0  0  0
  -33.0528  -25.7775   23.6475 N   0  0  0  0  0  0  0  0  0  0  0  0
  -34.3889  -29.0915   23.0995 N   0  3  0  0  0  0  0  0  0  0  0  0
  -21.4389  -30.0372   21.6301 O   0  0  0  0  0  0  0  0  0  0  0  0
  -19.7255  -14.3247   22.3512 O   0  0  0  0  0  0  0  0  0  0  0  0
  -19.9285  -21.7406   21.0139 O   0  0  0  0  0  0  0  0  0  0  0  0
  -28.5529  -23.2157   21.2944 O   0  0  0  0  0  0  0  0  0  0  0  0
  -32.6294  -23.5501   21.8959 O   0  0  0  0  0  0  0  0  0  0  0  0
  -31.9887  -27.8281   23.8475 O   0  0  0  0  0  0  0  0  0  0  0  0
  -27.0906  -12.0456   21.2799 O   0  0  0  0  0  0  0  0  0  0  0  0
  -26.1089  -28.7984   20.5554 O   0  0  0  0  0  0  0  0  0  1  0  0
  -31.0237  -13.4288   17.6714 F   0  0  0  0  0  0  0  0  0  0  0  0
  -28.7270  -14.2273   21.7325 F   0  0  0  0  0  0  0  0  0  0  0  0
  1  2  1  0  0  0  0
  1  5  2  0  0  0  0
  2  6  2  0  0  0  0
  3  8  2  0  0  0  0
  3 18  1  0  0  0  0
  4  9  1  0  0  0  0
  4 18  2  0  0  0  0
  5 22  1  0  0  0  0
  6 24  1  0  0  0  0
  7 10  2  0  0  0  0
  7 23  1  0  0  0  0
  8 27  1  0  0  0  0
  9 27  2  0  0  0  0
 10 28  1  0  0  0  0
 11 12  2  0  0  0  0
 11 29  1  0  0  0  0
 12 30  1  0  0  0  0
 13 19  1  0  0  0  0
 13 20  2  0  0  0  0
 14 19  2  0  0  0  0
 14 26  1  0  0  0  0
 15 20  1  0  0  0  0
 15 26  2  0  0  0  0
 16 25  1  0  0  0  0
 16 28  2  0  0  0  0
 17 30  2  0  0  0  0
 17 31  1  0  0  0  0
 18 32  1  0  0  0  0
 19 34  1  0  0  0  0
 20 38  1  0  0  0  0
 21 32  1  0  0  0  0
 21 33  2  0  0  0  0
 21 39  1  0  0  0  0
 22 24  2  0  0  0  0
 22 44  1  0  0  0  0
 23 25  2  0  0  0  0
 23 45  1  0  0  0  0
 24 53  1  0  0  0  0
 25 46  1  0  0  0  0
 26 56  1  0  0  0  0
 27 81  1  0  0  0  0
 28 82  1  0  0  0  0
 29 31  2  0  0  0  0
 29 81  1  0  0  0  0
 30 83  1  0  0  0  0
 31 84  1  0  0  0  0
 32 66  2  0  0  0  0
 33 67  1  0  0  0  0
 33 70  1  0  0  0  0
 34 35  2  0  0  0  0
 35 40  1  0  0  0  0
 36 37  2  0  0  0  0
 36 38  1  0  0  0  0
 37 62  1  0  0  0  0
 38 75  2  0  0  0  0
 39 71  1  0  0  0  0
 39 76  2  0  0  0  0
 40 68  1  0  0  0  0
 40 77  2  0  0  0  0
 41 54  1  0  0  0  0
 41 72  1  0  0  0  0
 41 78  2  0  0  0  0
 42 63  1  0  0  0  0
 42 69  1  0  0  0  0
 42 79  2  0  0  0  0
 43 64  1  0  0  0  0
 43 73  1  0  0  0  0
 43 80  2  0  0  0  0
 44 47  1  0  0  0  0
 45 54  1  0  0  0  0
 46 69  1  0  0  0  0
 47 49  1  0  0  0  0
 48 50  1  0  0  0  0
 48 51  1  0  0  0  0
 49 53  1  0  0  0  0
 50 55  1  0  0  0  0
 51 68  1  0  0  0  0
 52 55  1  0  0  0  0
 52 68  1  0  0  0  0
 53 72  1  0  0  0  0
 54 69  1  0  0  0  0
 55 67  1  0  0  0  0
 57 64  1  0  0  0  0
 58 65  1  0  0  0  0
 59 65  1  0  0  0  0
 60 65  1  0  0  0  0
 61 74  1  0  0  0  0
 62 82  1  0  0  0  0
 63 65  1  0  0  0  0
 63 73  1  0  0  0  0
 64 74  1  0  0  0  0
 66 67  1  0  0  0  0
M  CHG  1  74   1
M  ISO  4  35 100  40 100  62 101  82 101
M  END
> <Batch ID>
0119

> <Smiles>
CNC(C)C(=O)NC(C(=O)N1Cc2cc([101O:1][101CH2:1]C=CC(=O)c3cc(C)cc(C=[100CH:0][100C:0](=O)N4CCCC(n5nc(-c6ccc(Oc7ccc(F)cc7F)cc6)c(C(N)=O)c5N)C4)c3)ccc2CC1C(=O)NC1CCCc2ccccc21)C(C)(C)C

> <Shape>
0.237

> <Color>
0.052

> <Negative vol penalty>
0.000

$$$$

  -OEChem-04052301513D

 85 94  0     1  0  0  0  0  0999 V2000
  -28.8392  -33.6077   27.3622 C   0  0  0  0  0  0  0  0  0  0  0  0
  -28.5976  -32.3674   26.7802 C   0  0  0  0  0  0  0  0  0  0  0  0
  -22.6562  -10.4353   21.2419 C   0  0  0  0  0  0  0  0  0  0  0  0
  -24.3183  -10.2196   22.9820 C   0  0  0  0  0  0  0  0  0  0  0  0
  -29.3411  -18.6120   22.2485 C   0  0  0  0  0  0  0  0  0  0  0  0
  -28.9407  -19.3829   19.9940 C   0  0  0  0  0  0  0  0  0  0  0  0
  -27.8561  -34.5958   27.3281 C   0  0  0  0  0  0  0  0  0  0  0  0
  -27.3723  -32.1142   26.1647 C   0  0  0  0  0  0  0  0  0  0  0  0
  -27.8874  -29.7943   21.6928 C   0  0  0  0  0  0  0  0  0  0  0  0
  -28.7836  -19.7883   22.7497 C   0  0  0  0  0  0  0  0  0  0  0  0
  -28.3832  -20.5592   20.4952 C   0  0  0  0  0  0  0  0  0  0  0  0
  -21.9297   -9.3866   21.8058 C   0  0  0  0  0  0  0  0  0  0  0  0
  -23.5918   -9.1709   23.5460 C   0  0  0  0  0  0  0  0  0  0  0  0
  -28.1524  -28.4257   21.7123 C   0  0  0  0  0  0  0  0  0  0  0  0
  -19.8073   -8.9386   24.3996 C   0  0  0  0  0  0  0  0  0  0  0  0
  -18.4278   -9.1006   24.5269 C   0  0  0  0  0  0  0  0  0  0  0  0
  -25.8259  -27.9750   21.2608 C   0  0  0  0  0  0  0  0  0  0  0  0
  -18.0711   -7.1677   23.1220 C   0  0  0  0  0  0  0  0  0  0  0  0
  -23.8506  -10.8518   21.8299 C   0  0  0  0  0  0  0  0  0  0  0  0
  -29.4197  -18.4093   20.8706 C   0  0  0  0  0  0  0  0  0  0  0  0
  -24.1682  -13.2588   21.0472 C   0  0  0  0  0  0  0  0  0  0  0  0
  -26.6217  -34.3578   26.7034 C   0  0  0  0  0  0  0  0  0  0  0  0
  -26.5855  -30.2641   21.4676 C   0  0  0  0  0  0  0  0  0  0  0  0
  -26.3713  -33.0996   26.1234 C   0  0  0  0  0  0  0  0  0  0  0  0
  -25.5476  -29.3502   21.2364 C   0  0  0  0  0  0  0  0  0  0  0  0
  -28.3047  -20.7618   21.8731 C   0  0  0  0  0  0  0  0  0  0  0  0
  -22.3975   -8.7544   22.9579 C   0  0  0  0  0  0  0  0  0  0  0  0
  -27.1210  -27.5157   21.4992 C   0  0  0  0  0  0  0  0  0  0  0  0
  -20.3188   -7.8912   23.6334 C   0  0  0  0  0  0  0  0  0  0  0  0
  -17.5597   -8.2152   23.8882 C   0  0  0  0  0  0  0  0  0  0  0  0
  -19.4507   -7.0057   22.9946 C   0  0  0  0  0  0  0  0  0  0  0  0
  -24.6018  -11.9346   21.2475 C   0  0  0  0  0  0  0  0  0  0  0  0
  -25.2427  -13.8880   20.4674 C   0  0  0  0  0  0  0  0  0  0  0  0
  -26.8976  -24.0894   22.5511 C   0  0  0  0  0  0  0  0  0  0  0  0
  -30.0010  -17.1828   20.3481 C   0  0  0  0  0  0  0  0  0  0  0  0
  -26.7235  -25.4124   22.4419 C   0  0  0  0  0  0  0  0  0  1  0  0
  -30.1461  -16.0299   21.0356 C   0  0  0  0  0  0  0  0  0  0  0  0
  -22.9069  -13.8659   21.3574 C   0  0  0  0  0  0  0  0  0  0  0  0
  -30.7502  -14.8599   20.3578 C   0  0  0  0  0  0  0  0  0  0  0  0
  -24.4953  -31.9717   23.1466 C   0  0  0  0  0  0  0  0  0  0  0  0
  -22.7789  -31.8517   20.3967 C   0  0  0  0  0  0  0  0  0  0  0  0
  -22.1247  -30.2454   17.4575 C   0  0  0  0  0  0  0  0  0  0  0  0
  -25.5723  -35.4407   26.7332 C   0  0  0  0  0  0  0  0  0  0  0  0
  -26.3212  -31.7442   21.4231 C   0  0  0  0  0  0  0  0  0  0  0  0
  -24.1363  -29.8037   20.9700 C   0  0  0  0  0  0  0  0  0  0  0  0
  -26.1869  -23.2398   23.5594 C   0  0  0  0  0  0  0  0  0  0  0  0
  -24.4403  -35.2195   25.7332 C   0  0  0  0  0  0  0  0  0  0  0  0
  -29.5227  -12.0199   18.5456 C   0  0  0  0  0  0  0  0  0  0  0  0
  -23.9466  -33.7776   25.7961 C   0  0  0  0  0  0  0  0  0  0  0  0
  -28.1111  -11.8305   19.1000 C   0  0  0  0  0  0  0  0  0  0  0  0
  -27.0583  -21.9937   23.6526 C   0  0  0  0  0  0  0  0  0  0  0  0
  -30.4810  -12.5252   19.6192 C   0  0  0  0  0  0  0  0  0  0  0  0
  -28.6123  -13.5981   20.8464 C   0  0  0  0  0  0  0  0  0  0  0  0
  -25.0639  -32.7952   25.4246 C   0  0  1  0  0  0  0  0  0  0  0  0
  -27.8450  -23.2465   21.7262 C   0  0  1  0  0  0  0  0  0  0  0  0
  -24.8626  -32.0991   21.6952 C   0  0  1  0  0  0  0  0  0  0  0  0
  -27.6097  -13.1148   19.7840 C   0  0  2  0  0  0  0  0  0  0  0  0
  -29.2779  -23.7792   21.7785 C   0  0  0  0  0  0  0  0  0  0  0  0
  -20.6423  -30.3626   15.4361 C   0  0  0  0  0  0  0  0  0  0  0  0
  -20.4504  -30.7684   22.0444 C   0  0  0  0  0  0  0  0  0  0  0  0
  -19.3756  -30.0257   19.9086 C   0  0  0  0  0  0  0  0  0  0  0  0
  -19.8069  -32.4499   20.3086 C   0  0  0  0  0  0  0  0  0  0  0  0
  -24.4370  -30.5523   15.6361 C   0  0  0  0  0  0  0  0  0  0  0  0
  -21.7508  -30.9095   19.8184 C   0  0  1  0  0  0  0  0  0  0  0  0
  -21.9807  -30.7623   16.0375 C   0  0  2  0  0  0  0  0  0  0  0  0
  -20.3720  -31.0295   20.5269 C   0  0  0  0  0  0  0  0  0  0  0  0
  -25.8541  -11.7332   20.8289 N   0  0  0  0  0  0  0  0  0  0  0  0
  -26.2165  -12.9392   20.3597 N   0  0  0  0  0  0  0  0  0  0  0  0
  -27.7522  -21.9275   22.3696 N   0  0  3  0  0  0  0  0  0  0  0  0
  -29.9582  -13.7234   20.2728 N   0  0  0  0  0  0  0  0  0  0  0  0
  -23.9271  -31.2608   20.9428 N   0  0  0  0  0  0  0  0  0  0  0  0
  -25.4400  -15.1547   20.0443 N   0  0  0  0  0  0  0  0  0  0  0  0
  -22.7415  -14.4560   22.6179 N   0  0  0  0  0  0  0  0  0  0  0  0
  -25.2520  -32.7626   23.9900 N   0  0  0  0  0  0  0  0  0  0  0  0
  -21.7114  -31.1783   18.3850 N   0  0  0  0  0  0  0  0  0  0  0  0
  -23.0657  -30.2153   15.1747 N   0  3  0  0  0  0  0  0  0  0  0  0
  -21.9493  -13.8702   20.5471 O   0  0  0  0  0  0  0  0  0  0  0  0
  -31.8905  -15.0214   19.9431 O   0  0  0  0  0  0  0  0  0  0  0  0
  -23.5912  -31.2131   23.4766 O   0  0  0  0  0  0  0  0  0  0  0  0
  -22.5740  -33.0675   20.3587 O   0  0  0  0  0  0  0  0  0  0  0  0
  -22.5567  -29.1246   17.7178 O   0  0  0  0  0  0  0  0  0  0  0  0
  -21.6887   -7.7313   23.5086 O   0  0  0  0  0  0  0  0  0  0  0  0
  -27.3767  -26.1793   21.5183 O   0  0  0  0  0  0  0  0  0  1  0  0
  -16.2350   -8.3699   24.0118 F   0  0  0  0  0  0  0  0  0  0  0  0
  -19.9362   -5.9969   22.2582 F   0  0  0  0  0  0  0  0  0  0  0  0
  1  2  1  0  0  0  0
  1  7  2  0  0  0  0
  2  8  2  0  0  0  0
  3 12  2  0  0  0  0
  3 19  1  0  0  0  0
  4 13  1  0  0  0  0
  4 19  2  0  0  0  0
  5 10  2  0  0  0  0
  5 20  1  0  0  0  0
  6 11  1  0  0  0  0
  6 20  2  0  0  0  0
  7 22  1  0  0  0  0
  8 24  1  0  0  0  0
  9 14  2  0  0  0  0
  9 23  1  0  0  0  0
 10 26  1  0  0  0  0
 11 26  2  0  0  0  0
 12 27  1  0  0  0  0
 13 27  2  0  0  0  0
 14 28  1  0  0  0  0
 15 16  2  0  0  0  0
 15 29  1  0  0  0  0
 16 30  1  0  0  0  0
 17 25  1  0  0  0  0
 17 28  2  0  0  0  0
 18 30  2  0  0  0  0
 18 31  1  0  0  0  0
 19 32  1  0  0  0  0
 20 35  1  0  0  0  0
 21 32  1  0  0  0  0
 21 33  2  0  0  0  0
 21 38  1  0  0  0  0
 22 24  2  0  0  0  0
 22 43  1  0  0  0  0
 23 25  2  0  0  0  0
 23 44  1  0  0  0  0
 24 54  1  0  0  0  0
 25 45  1  0  0  0  0
 26 69  1  0  0  0  0
 27 82  1  0  0  0  0
 28 83  1  0  0  0  0
 29 31  2  0  0  0  0
 29 82  1  0  0  0  0
 30 84  1  0  0  0  0
 31 85  1  0  0  0  0
 32 67  2  0  0  0  0
 33 68  1  0  0  0  0
 33 72  1  0  0  0  0
 34 36  2  0  0  0  0
 34 46  1  0  0  0  0
 34 55  1  0  0  0  0
 35 37  2  0  0  0  0
 36 83  1  0  0  0  0
 37 39  1  0  0  0  0
 38 73  1  0  0  0  0
 38 77  2  0  0  0  0
 39 70  1  0  0  0  0
 39 78  2  0  0  0  0
 40 56  1  0  0  0  0
 40 74  1  0  0  0  0
 40 79  2  0  0  0  0
 41 64  1  0  0  0  0
 41 71  1  0  0  0  0
 41 80  2  0  0  0  0
 42 65  1  0  0  0  0
 42 75  1  0  0  0  0
 42 81  2  0  0  0  0
 43 47  1  0  0  0  0
 44 56  1  0  0  0  0
 45 71  1  0  0  0  0
 46 51  1  0  0  0  0
 47 49  1  0  0  0  0
 48 50  1  0  0  0  0
 48 52  1  0  0  0  0
 49 54  1  0  0  0  0
 50 57  1  0  0  0  0
 51 69  1  0  0  0  0
 52 70  1  0  0  0  0
 53 57  1  0  0  0  0
 53 70  1  0  0  0  0
 54 74  1  0  0  0  0
 55 58  1  0  0  0  0
 55 69  1  0  0  0  0
 56 71  1  0  0  0  0
 57 68  1  0  0  0  0
 59 65  1  0  0  0  0
 60 66  1  0  0  0  0
 61 66  1  0  0  0  0
 62 66  1  0  0  0  0
 63 76  1  0  0  0  0
 64 66  1  0  0  0  0
 64 75  1  0  0  0  0
 65 76  1  0  0  0  0
 67 68  1  0  0  0  0
M  CHG  1  76   1
M  ISO  4  36 101  37 100  39 100  83 101
M  END
> <Batch ID>
0119

> <Smiles>
CNC(C)C(=O)NC(C(=O)N1Cc2cc([101O:1][101CH:1]=C3CCN(c4ccc(C=[100CH:0][100C:0](=O)N5CCCC(n6nc(-c7ccc(Oc8ccc(F)cc8F)cc7)c(C(N)=O)c6N)C5)cc4)C3C)ccc2CC1C(=O)NC1CCCc2ccccc21)C(C)(C)C

> <Shape>
0.284

> <Color>
0.159

> <Negative vol penalty>
0.000

$$$$

  -OEChem-04052301513D

 82 90  0     1  0  0  0  0  0999 V2000
  -29.2536  -37.1758   21.8410 C   0  0  0  0  0  0  0  0  0  0  0  0
  -29.2767  -36.1360   20.9171 C   0  0  0  0  0  0  0  0  0  0  0  0
  -24.2272   -9.4921   22.2365 C   0  0  0  0  0  0  0  0  0  0  0  0
  -24.4821   -8.8006   19.9356 C   0  0  0  0  0  0  0  0  0  0  0  0
  -28.9115  -36.9201   23.1682 C   0  0  0  0  0  0  0  0  0  0  0  0
  -28.9587  -34.8395   21.3201 C   0  0  0  0  0  0  0  0  0  0  0  0
  -25.9022  -28.8312   18.8965 C   0  0  0  0  0  0  0  0  0  0  0  0
  -23.1265   -8.6457   22.3689 C   0  0  0  0  0  0  0  0  0  0  0  0
  -23.3813   -7.9542   20.0680 C   0  0  0  0  0  0  0  0  0  0  0  0
  -26.1552  -27.4650   18.7807 C   0  0  0  0  0  0  0  0  0  0  0  0
  -22.5645   -5.3433   22.8286 C   0  0  0  0  0  0  0  0  0  0  0  0
  -22.4903   -4.5507   23.9740 C   0  0  0  0  0  0  0  0  0  0  0  0
  -29.2408  -21.0450   20.3460 C   0  0  0  0  0  0  0  0  0  0  0  0
  -25.5022  -27.1553   21.0822 C   0  0  0  0  0  0  0  0  0  0  0  0
  -20.3966   -5.6014   24.5653 C   0  0  0  0  0  0  0  0  0  0  0  0
  -24.9050   -9.5696   21.0198 C   0  0  0  0  0  0  0  0  0  0  0  0
  -30.2082  -20.0948   20.7835 C   0  0  0  0  0  0  0  0  0  0  0  0
  -27.3918  -10.1283   21.1264 C   0  0  0  0  0  0  0  0  0  0  0  0
  -28.5798  -35.6215   23.5856 C   0  0  0  0  0  0  0  0  0  0  0  0
  -25.4570  -29.3722   20.1112 C   0  0  0  0  0  0  0  0  0  0  0  0
  -28.6131  -34.5659   22.6545 C   0  0  0  0  0  0  0  0  0  0  0  0
  -25.2418  -28.5282   21.2101 C   0  0  0  0  0  0  0  0  0  0  0  0
  -22.7035   -7.8768   21.2847 C   0  0  0  0  0  0  0  0  0  0  0  0
  -25.9579  -26.6273   19.8745 C   0  0  0  0  0  0  0  0  0  0  0  0
  -21.5548   -6.2650   22.5516 C   0  0  0  0  0  0  0  0  0  0  0  0
  -21.4064   -4.6797   24.8423 C   0  0  0  0  0  0  0  0  0  0  0  0
  -20.4709   -6.3940   23.4199 C   0  0  0  0  0  0  0  0  0  0  0  0
  -26.0419  -10.4441   20.8822 C   0  0  0  0  0  0  0  0  0  0  0  0
  -29.8059  -22.2718   20.0756 C   0  0  0  0  0  0  0  0  0  0  0  0
  -31.4761  -20.6316   20.8305 C   0  0  0  0  0  0  0  0  0  0  0  0
  -28.0713  -11.2899   20.8517 C   0  0  0  0  0  0  0  0  0  0  0  0
  -29.9157  -18.7532   21.1325 C   0  0  0  0  0  0  0  0  0  0  0  0
  -29.1483  -23.5025   19.6052 C   0  0  0  0  0  0  0  0  0  0  0  0
  -28.6870  -18.1433   21.0909 C   0  0  0  0  0  0  0  0  0  0  0  0
  -27.8399  -23.6255   19.3329 C   0  0  0  0  0  0  0  0  0  0  0  0
  -27.9791   -8.8952   21.5625 C   0  0  0  0  0  0  0  0  0  0  0  0
  -28.5449  -16.7257   21.4793 C   0  0  0  0  0  0  0  0  0  0  0  0
  -26.6047  -31.5021   22.1727 C   0  0  0  0  0  0  0  0  0  0  0  0
  -23.7186  -31.0988   23.5975 C   0  0  0  0  0  0  0  0  0  0  0  0
  -20.9925  -29.1103   24.1088 C   0  0  0  0  0  0  0  0  0  0  0  0
  -28.2624  -35.3857   25.0411 C   0  0  0  0  0  0  0  0  0  0  0  0
  -25.1630  -30.8439   20.2120 C   0  0  0  0  0  0  0  0  0  0  0  0
  -24.7455  -29.0563   22.5304 C   0  0  0  0  0  0  0  0  0  0  0  0
  -27.5746  -34.0488   25.3057 C   0  0  0  0  0  0  0  0  0  0  0  0
  -26.5605  -15.5567   18.6285 C   0  0  0  0  0  0  0  0  0  0  0  0
  -28.2902  -32.9243   24.5640 C   0  0  0  0  0  0  0  0  0  0  0  0
  -26.3222  -14.0993   19.0144 C   0  0  0  0  0  0  0  0  0  0  0  0
  -26.5958  -16.4733   19.8504 C   0  0  0  0  0  0  0  0  0  0  0  0
  -27.3385  -14.5866   21.2749 C   0  0  0  0  0  0  0  0  0  0  0  0
  -28.2503  -33.1504   23.0479 C   0  0  1  0  0  0  0  0  0  0  0  0
  -25.2044  -31.3646   21.6453 C   0  0  1  0  0  0  0  0  0  0  0  0
  -27.3461  -13.6399   20.0646 C   0  0  1  0  0  0  0  0  0  0  0  0
  -32.8956  -19.8489   22.7433 C   0  0  0  0  0  0  0  0  0  0  0  0
  -18.8144  -29.0353   25.3527 C   0  0  0  0  0  0  0  0  0  0  0  0
  -25.2199  -30.5004   26.1855 C   0  0  0  0  0  0  0  0  0  0  0  0
  -23.1051  -29.5257   27.1052 C   0  0  0  0  0  0  0  0  0  0  0  0
  -23.1906  -31.9351   26.4646 C   0  0  0  0  0  0  0  0  0  0  0  0
  -19.4335  -28.9191   21.6005 C   0  0  0  0  0  0  0  0  0  0  0  0
  -32.7526  -19.9914   21.2266 C   0  0  0  0  0  0  0  0  0  0  0  0
  -27.2191  -24.8946   18.8435 C   0  0  0  0  0  0  0  0  0  1  0  0
  -23.1679  -30.1711   24.6535 C   0  0  1  0  0  0  0  0  0  0  0  0
  -19.5047  -29.4058   24.0493 C   0  0  2  0  0  0  0  0  0  0  0  0
  -23.6821  -30.5231   26.0780 C   0  0  0  0  0  0  0  0  0  0  0  0
  -25.8719  -11.7074   20.4832 N   0  0  0  0  0  0  0  0  0  0  0  0
  -27.1239  -12.1957   20.4747 N   0  0  0  0  0  0  0  0  0  0  0  0
  -27.5393  -15.9811   20.8654 N   0  0  0  0  0  0  0  0  0  0  0  0
  -24.4785  -30.5032   22.5809 N   0  0  0  0  0  0  0  0  0  0  0  0
  -29.3808  -11.6147   20.8984 N   0  0  0  0  0  0  0  0  0  0  0  0
  -27.1363   -7.8006   21.7989 N   0  0  0  0  0  0  0  0  0  0  0  0
  -26.9515  -32.7944   22.5178 N   0  0  0  0  0  0  0  0  0  0  0  0
  -21.7161  -30.2113   24.5154 N   0  0  0  0  0  0  0  0  0  0  0  0
  -18.8673  -28.6353   22.9443 N   0  3  0  0  0  0  0  0  0  0  0  0
  -29.2128   -8.7725   21.7532 O   0  0  0  0  0  0  0  0  0  0  0  0
  -29.3234  -16.2879   22.3284 O   0  0  0  0  0  0  0  0  0  0  0  0
  -27.3171  -30.5090   22.2614 O   0  0  0  0  0  0  0  0  0  0  0  0
  -23.4771  -32.3064   23.6680 O   0  0  0  0  0  0  0  0  0  0  0  0
  -21.4652  -28.0114   23.8266 O   0  0  0  0  0  0  0  0  0  0  0  0
  -21.6296   -7.0506   21.4136 O   0  0  0  0  0  0  0  0  0  0  0  0
  -26.2047  -25.2935   19.7645 O   0  0  0  0  0  0  0  0  0  1  0  0
  -21.3344   -3.9175   25.9414 F   0  0  0  0  0  0  0  0  0  0  0  0
  -19.4972   -7.2768   23.1585 F   0  0  0  0  0  0  0  0  0  0  0  0
  -31.4964  -22.2747   20.3489 S   0  0  0  0  0  0  0  0  0  0  0  0
  1  2  1  0  0  0  0
  1  5  2  0  0  0  0
  2  6  2  0  0  0  0
  3  8  2  0  0  0  0
  3 16  1  0  0  0  0
  4  9  1  0  0  0  0
  4 16  2  0  0  0  0
  5 19  1  0  0  0  0
  6 21  1  0  0  0  0
  7 10  2  0  0  0  0
  7 20  1  0  0  0  0
  8 23  1  0  0  0  0
  9 23  2  0  0  0  0
 10 24  1  0  0  0  0
 11 12  2  0  0  0  0
 11 25  1  0  0  0  0
 12 26  1  0  0  0  0
 13 17  1  0  0  0  0
 13 29  2  0  0  0  0
 14 22  1  0  0  0  0
 14 24  2  0  0  0  0
 15 26  2  0  0  0  0
 15 27  1  0  0  0  0
 16 28  1  0  0  0  0
 17 30  2  0  0  0  0
 17 32  1  0  0  0  0
 18 28  1  0  0  0  0
 18 31  2  0  0  0  0
 18 36  1  0  0  0  0
 19 21  2  0  0  0  0
 19 41  1  0  0  0  0
 20 22  2  0  0  0  0
 20 42  1  0  0  0  0
 21 50  1  0  0  0  0
 22 43  1  0  0  0  0
 23 78  1  0  0  0  0
 24 79  1  0  0  0  0
 25 27  2  0  0  0  0
 25 78  1  0  0  0  0
 26 80  1  0  0  0  0
 27 81  1  0  0  0  0
 28 64  2  0  0  0  0
 29 33  1  0  0  0  0
 29 82  1  0  0  0  0
 30 59  1  0  0  0  0
 30 82  1  0  0  0  0
 31 65  1  0  0  0  0
 31 68  1  0  0  0  0
 32 34  2  0  0  0  0
 33 35  2  0  0  0  0
 34 37  1  0  0  0  0
 35 60  1  0  0  0  0
 36 69  1  0  0  0  0
 36 73  2  0  0  0  0
 37 66  1  0  0  0  0
 37 74  2  0  0  0  0
 38 51  1  0  0  0  0
 38 70  1  0  0  0  0
 38 75  2  0  0  0  0
 39 61  1  0  0  0  0
 39 67  1  0  0  0  0
 39 76  2  0  0  0  0
 40 62  1  0  0  0  0
 40 71  1  0  0  0  0
 40 77  2  0  0  0  0
 41 44  1  0  0  0  0
 42 51  1  0  0  0  0
 43 67  1  0  0  0  0
 44 46  1  0  0  0  0
 45 47  1  0  0  0  0
 45 48  1  0  0  0  0
 46 50  1  0  0  0  0
 47 52  1  0  0  0  0
 48 66  1  0  0  0  0
 49 52  1  0  0  0  0
 49 66  1  0  0  0  0
 50 70  1  0  0  0  0
 51 67  1  0  0  0  0
 52 65  1  0  0  0  0
 53 59  1  0  0  0  0
 54 62  1  0  0  0  0
 55 63  1  0  0  0  0
 56 63  1  0  0  0  0
 57 63  1  0  0  0  0
 58 72  1  0  0  0  0
 60 79  1  0  0  0  0
 61 63  1  0  0  0  0
 61 71  1  0  0  0  0
 62 72  1  0  0  0  0
 64 65  1  0  0  0  0
M  CHG  1  72   1
M  ISO  4  34 100  37 100  60 101  79 101
M  END
> <Batch ID>
0119

> <Smiles>
CCc1sc(C=C[101CH2:1][101O:1]c2ccc3c(c2)CN(C(=O)C(NC(=O)C(C)NC)C(C)(C)C)C(C(=O)NC2CCCc4ccccc42)C3)cc1C=[100CH:0][100C:0](=O)N1CCCC(n2nc(-c3ccc(Oc4ccc(F)cc4F)cc3)c(C(N)=O)c2N)C1

> <Shape>
0.284

> <Color>
0.124

> <Negative vol penalty>
0.000

$$$$

  -OEChem-04052301513D

 91100  0     1  0  0  0  0  0999 V2000
  -20.5310   -3.1111   18.9042 C   0  0  0  0  0  0  0  0  0  0  0  0
  -21.7873   -3.5420   19.3155 C   0  0  0  0  0  0  0  0  0  0  0  0
  -23.1411  -31.9862   21.6494 C   0  0  0  0  0  0  0  0  0  0  0  0
  -22.9186  -29.6216   22.0928 C   0  0  0  0  0  0  0  0  0  0  0  0
  -19.5698   -4.0437   18.5200 C   0  0  0  0  0  0  0  0  0  0  0  0
  -22.0788   -4.9060   19.3542 C   0  0  0  0  0  0  0  0  0  0  0  0
  -26.4155  -11.4714   20.4991 C   0  0  0  0  0  0  0  0  0  0  0  0
  -21.7569  -32.0910   21.5133 C   0  0  0  0  0  0  0  0  0  0  0  0
  -21.5343  -29.7264   21.9567 C   0  0  0  0  0  0  0  0  0  0  0  0
  -26.4942  -12.8241   20.1707 C   0  0  0  0  0  0  0  0  0  0  0  0
  -18.9220  -30.7780   23.8249 C   0  0  0  0  0  0  0  0  0  0  0  0
  -18.1284  -30.1391   24.7776 C   0  0  0  0  0  0  0  0  0  0  0  0
  -24.2579  -13.1526   21.0134 C   0  0  0  0  0  0  0  0  0  0  0  0
  -27.8183  -22.1643   23.0671 C   0  0  0  0  0  0  0  0  0  0  0  0
  -29.0822  -22.9982   20.7240 C   0  0  0  0  0  0  0  0  0  0  0  0
  -17.1182  -28.8006   23.0383 C   0  0  0  0  0  0  0  0  0  0  0  0
  -23.7220  -30.7515   21.9391 C   0  0  0  0  0  0  0  0  0  0  0  0
  -25.9684  -31.3130   23.0095 C   0  0  0  0  0  0  0  0  0  0  0  0
  -19.8547   -5.4189   18.5424 C   0  0  0  0  0  0  0  0  0  0  0  0
  -25.2513  -10.9461   21.0780 C   0  0  0  0  0  0  0  0  0  0  0  0
  -21.1141   -5.8639   18.9931 C   0  0  0  0  0  0  0  0  0  0  0  0
  -24.1678  -11.7935   21.3505 C   0  0  0  0  0  0  0  0  0  0  0  0
  -28.3005  -21.2200   22.1608 C   0  0  0  0  0  0  0  0  0  0  0  0
  -27.9679  -23.5255   22.8019 C   0  0  0  0  0  0  0  0  0  0  0  0
  -28.9325  -21.6370   20.9893 C   0  0  0  0  0  0  0  0  0  0  0  0
  -28.5999  -23.9425   21.6304 C   0  0  0  0  0  0  0  0  0  0  0  0
  -20.9535  -30.9611   21.6670 C   0  0  0  0  0  0  0  0  0  0  0  0
  -25.4143  -13.6644   20.4252 C   0  0  0  0  0  0  0  0  0  0  0  0
  -18.8136  -30.4283   22.4789 C   0  0  0  0  0  0  0  0  0  0  0  0
  -17.2266  -29.1503   24.3843 C   0  0  0  0  0  0  0  0  0  0  0  0
  -17.9118  -29.4396   22.0856 C   0  0  0  0  0  0  0  0  0  0  0  0
  -25.1519  -30.6425   22.0793 C   0  0  0  0  0  0  0  0  0  0  0  0
  -27.2389  -30.8703   22.7331 C   0  0  0  0  0  0  0  0  0  0  0  0
  -26.6457  -17.0624   20.4590 C   0  0  0  0  0  0  0  0  0  0  0  0
  -27.2085  -17.6649   21.5370 C   0  0  0  0  0  0  0  0  0  0  0  0
  -24.6776  -19.5321   20.9761 C   0  0  0  0  0  0  0  0  0  0  0  0
  -25.6105  -32.2521   24.0322 C   0  0  0  0  0  0  0  0  0  0  0  0
  -23.1163   -8.7507   20.2261 C   0  0  0  0  0  0  0  0  0  0  0  0
  -21.9532   -9.2875   23.2063 C   0  0  0  0  0  0  0  0  0  0  0  0
  -21.3674  -12.1454   25.3292 C   0  0  0  0  0  0  0  0  0  0  0  0
  -29.3680  -25.8842   20.2210 C   0  0  0  0  0  0  0  0  0  0  0  0
  -18.7747   -6.3851   18.1235 C   0  0  0  0  0  0  0  0  0  0  0  0
  -25.1922   -9.4901   21.4509 C   0  0  0  0  0  0  0  0  0  0  0  0
  -22.9029  -11.2830   21.9892 C   0  0  0  0  0  0  0  0  0  0  0  0
  -25.7721  -17.8106   19.4660 C   0  0  0  0  0  0  0  0  0  0  0  0
  -24.4787  -18.3065   20.1077 C   0  0  0  0  0  0  0  0  0  0  0  0
  -25.6562  -19.4566   22.1255 C   0  0  0  0  0  0  0  0  0  0  0  0
  -19.3164   -7.7677   17.7751 C   0  0  0  0  0  0  0  0  0  0  0  0
  -29.9302  -29.2262   19.1292 C   0  0  0  0  0  0  0  0  0  0  0  0
  -20.2410   -8.2571   18.8797 C   0  0  0  0  0  0  0  0  0  0  0  0
  -28.8468  -30.0306   19.8512 C   0  0  0  0  0  0  0  0  0  0  0  0
  -29.4243  -27.8496   18.7015 C   0  0  0  0  0  0  0  0  0  0  0  0
  -27.7368  -27.8537   20.4964 C   0  0  0  0  0  0  0  0  0  0  0  0
  -21.4639   -7.3409   19.0142 C   0  0  1  0  0  0  0  0  0  0  0  0
  -23.7662   -8.9599   21.5646 C   0  0  1  0  0  0  0  0  0  0  0  0
  -28.2189  -29.2225   21.0038 C   0  0  2  0  0  0  0  0  0  0  0  0
  -29.4565  -20.6442   20.0042 C   0  0  0  0  0  0  0  0  0  0  0  0
  -27.9204  -16.9112   22.6337 C   0  0  0  0  0  0  0  0  0  0  0  0
  -28.5506  -25.1294   24.6389 C   0  0  0  0  0  0  0  0  0  0  0  0
  -21.2957  -12.3323   27.8306 C   0  0  0  0  0  0  0  0  0  0  0  0
  -18.9472   -8.8954   22.8599 C   0  0  0  0  0  0  0  0  0  0  0  0
  -18.5889  -10.5645   24.6913 C   0  0  0  0  0  0  0  0  0  0  0  0
  -19.8003   -8.4361   25.1654 C   0  0  0  0  0  0  0  0  0  0  0  0
  -23.4271  -14.2705   25.3454 C   0  0  0  0  0  0  0  0  0  0  0  0
  -27.4418  -24.5149   23.7905 C   0  0  0  0  0  0  0  0  0  0  0  0
  -28.1277  -19.7615   22.4673 C   0  0  0  0  0  0  0  0  0  0  0  0
  -26.7790  -15.5920   20.1469 C   0  0  0  0  0  0  0  0  0  1  0  0
  -20.9418  -10.2352   23.8046 C   0  0  1  0  0  0  0  0  0  0  0  0
  -22.1403  -12.5218   26.5803 C   0  0  2  0  0  0  0  0  0  0  0  0
  -19.5845   -9.5397   24.1071 C   0  0  0  0  0  0  0  0  0  0  0  0
  -25.8453  -29.8353   21.2721 N   0  0  0  0  0  0  0  0  0  0  0  0
  -27.1111  -29.9958   21.6943 N   0  0  0  0  0  0  0  0  0  0  0  0
  -22.8913   -9.8507   22.3296 N   0  0  0  0  0  0  0  0  0  0  0  0
  -28.8471  -27.1406   19.8457 N   0  0  0  0  0  0  0  0  0  0  0  0
  -28.4417  -31.1477   23.2796 N   0  0  0  0  0  0  0  0  0  0  0  0
  -24.2600  -32.5966   24.1799 N   0  0  0  0  0  0  0  0  0  0  0  0
  -28.7616  -25.3206   21.3432 N   0  0  0  0  0  0  0  0  0  0  0  0
  -22.2044   -7.7129   20.1996 N   0  0  0  0  0  0  0  0  0  0  0  0
  -21.5815  -10.8308   24.9727 N   0  0  0  0  0  0  0  0  0  0  0  0
  -27.0460  -19.1102   21.6466 N   0  3  1  0  0  0  0  0  0  0  0  0
  -22.5696  -13.9474   26.5147 N   0  3  0  0  0  0  0  0  0  0  0  0
  -23.9967  -20.5444   20.7978 O   0  0  0  0  0  0  0  0  0  0  0  0
  -26.4650  -32.7828   24.7816 O   0  0  0  0  0  0  0  0  0  0  0  0
  -23.4186   -9.4781   19.2874 O   0  0  0  0  0  0  0  0  0  0  0  0
  -21.9169   -8.0928   23.5114 O   0  0  0  0  0  0  0  0  0  0  0  0
  -20.6429  -12.9373   24.7303 O   0  0  0  0  0  0  0  0  0  0  0  0
  -30.3026  -25.3602   19.6096 O   0  0  0  0  0  0  0  0  0  0  0  0
  -19.6027  -31.0631   21.5344 O   0  0  0  0  0  0  0  0  0  0  0  0
  -25.4882  -14.9849   20.1051 O   0  0  0  0  0  0  0  0  0  1  0  0
  -16.4657  -28.5357   25.2994 F   0  0  0  0  0  0  0  0  0  0  0  0
  -17.8041  -29.0985   20.7942 F   0  0  0  0  0  0  0  0  0  0  0  0
  1  2  1  0  0  0  0
  1  5  2  0  0  0  0
  2  6  2  0  0  0  0
  3  8  2  0  0  0  0
  3 17  1  0  0  0  0
  4  9  1  0  0  0  0
  4 17  2  0  0  0  0
  5 19  1  0  0  0  0
  6 21  1  0  0  0  0
  7 10  2  0  0  0  0
  7 20  1  0  0  0  0
  8 27  1  0  0  0  0
  9 27  2  0  0  0  0
 10 28  1  0  0  0  0
 11 12  2  0  0  0  0
 11 29  1  0  0  0  0
 12 30  1  0  0  0  0
 13 22  1  0  0  0  0
 13 28  2  0  0  0  0
 14 23  2  0  0  0  0
 14 24  1  0  0  0  0
 15 25  2  0  0  0  0
 15 26  1  0  0  0  0
 16 30  2  0  0  0  0
 16 31  1  0  0  0  0
 17 32  1  0  0  0  0
 18 32  1  0  0  0  0
 18 33  2  0  0  0  0
 18 37  1  0  0  0  0
 19 21  2  0  0  0  0
 19 42  1  0  0  0  0
 20 22  2  0  0  0  0
 20 43  1  0  0  0  0
 21 54  1  0  0  0  0
 22 44  1  0  0  0  0
 23 25  1  0  0  0  0
 23 66  1  0  0  0  0
 24 26  2  0  0  0  0
 24 65  1  0  0  0  0
 25 57  1  0  0  0  0
 26 77  1  0  0  0  0
 27 88  1  0  0  0  0
 28 89  1  0  0  0  0
 29 31  2  0  0  0  0
 29 88  1  0  0  0  0
 30 90  1  0  0  0  0
 31 91  1  0  0  0  0
 32 71  2  0  0  0  0
 33 72  1  0  0  0  0
 33 75  1  0  0  0  0
 34 35  2  0  0  0  0
 34 45  1  0  0  0  0
 34 67  1  0  0  0  0
 35 58  1  0  0  0  0
 35 80  1  0  0  0  0
 36 46  1  0  0  0  0
 36 47  1  0  0  0  0
 36 82  2  0  0  0  0
 37 76  1  0  0  0  0
 37 83  2  0  0  0  0
 38 55  1  0  0  0  0
 38 78  1  0  0  0  0
 38 84  2  0  0  0  0
 39 68  1  0  0  0  0
 39 73  1  0  0  0  0
 39 85  2  0  0  0  0
 40 69  1  0  0  0  0
 40 79  1  0  0  0  0
 40 86  2  0  0  0  0
 41 74  1  0  0  0  0
 41 77  1  0  0  0  0
 41 87  2  0  0  0  0
 42 48  1  0  0  0  0
 43 55  1  0  0  0  0
 44 73  1  0  0  0  0
 45 46  1  0  0  0  0
 47 80  1  0  0  0  0
 48 50  1  0  0  0  0
 49 51  1  0  0  0  0
 49 52  1  0  0  0  0
 50 54  1  0  0  0  0
 51 56  1  0  0  0  0
 52 74  1  0  0  0  0
 53 56  1  0  0  0  0
 53 74  1  0  0  0  0
 54 78  1  0  0  0  0
 55 73  1  0  0  0  0
 56 72  1  0  0  0  0
 59 65  1  0  0  0  0
 60 69  1  0  0  0  0
 61 70  1  0  0  0  0
 62 70  1  0  0  0  0
 63 70  1  0  0  0  0
 64 81  1  0  0  0  0
 66 80  1  0  0  0  0
 67 89  1  0  0  0  0
 68 70  1  0  0  0  0
 68 79  1  0  0  0  0
 69 81  1  0  0  0  0
 71 72  1  0  0  0  0
M  CHG  2  80   1  81   1
M  ISO  4  41 100  67 101  77 100  89 101
M  END
> <Batch ID>
0119

> <Smiles>
CCc1cc(CN2CC(=O)CCC([101CH2:1][101O:1]c3ccc4c(c3)CN(C(=O)C(NC(=O)C(C)NC)C(C)(C)C)C(C(=O)NC3CCCc5ccccc53)C4)=C2C)c(C)cc1[100NH:0][100C:0](=O)N1CCCC(n2nc(-c3ccc(Oc4ccc(F)cc4F)cc3)c(C(N)=O)c2N)C1

> <Shape>
0.246

> <Color>
0.064

> <Negative vol penalty>
0.000

$$$$

  -OEChem-04052301513D

 85 93  0     1  0  0  0  0  0999 V2000
  -17.0646  -26.0566   21.8604 C   0  0  0  0  0  0  0  0  0  0  0  0
  -18.3582  -25.5533   21.9546 C   0  0  0  0  0  0  0  0  0  0  0  0
  -24.1707  -11.8629   24.1045 C   0  0  0  0  0  0  0  0  0  0  0  0
  -24.0266  -14.2641   23.8793 C   0  0  0  0  0  0  0  0  0  0  0  0
  -16.8611  -27.3938   21.5222 C   0  0  0  0  0  0  0  0  0  0  0  0
  -19.4490  -26.3866   21.7095 C   0  0  0  0  0  0  0  0  0  0  0  0
  -23.1251  -25.8374   25.1489 C   0  0  0  0  0  0  0  0  0  0  0  0
  -23.6725  -11.9548   25.4040 C   0  0  0  0  0  0  0  0  0  0  0  0
  -23.5282  -14.3560   25.1789 C   0  0  0  0  0  0  0  0  0  0  0  0
  -23.9556  -24.7249   25.0210 C   0  0  0  0  0  0  0  0  0  0  0  0
  -24.8451  -12.7620   28.4696 C   0  0  0  0  0  0  0  0  0  0  0  0
  -25.4810  -12.0149   29.4610 C   0  0  0  0  0  0  0  0  0  0  0  0
  -25.6389  -26.1079   23.9852 C   0  0  0  0  0  0  0  0  0  0  0  0
  -29.6333  -18.5068   19.7897 C   0  0  0  0  0  0  0  0  0  0  0  0
  -31.8594  -17.5725   19.6973 C   0  0  0  0  0  0  0  0  0  0  0  0
  -23.4152  -10.8421   29.9020 C   0  0  0  0  0  0  0  0  0  0  0  0
  -24.3479  -13.0176   23.3421 C   0  0  0  0  0  0  0  0  0  0  0  0
  -31.5593  -19.9547   19.9656 C   0  0  0  0  0  0  0  0  0  0  0  0
  -24.1214  -12.7678   20.8135 C   0  0  0  0  0  0  0  0  0  0  0  0
  -17.9502  -28.2464   21.2822 C   0  0  0  0  0  0  0  0  0  0  0  0
  -23.5416  -27.0936   24.6851 C   0  0  0  0  0  0  0  0  0  0  0  0
  -19.2597  -27.7362   21.3663 C   0  0  0  0  0  0  0  0  0  0  0  0
  -24.8128  -27.2353   24.1107 C   0  0  0  0  0  0  0  0  0  0  0  0
  -30.4753  -17.4013   19.6695 C   0  0  0  0  0  0  0  0  0  0  0  0
  -23.3512  -13.2014   25.9412 C   0  0  0  0  0  0  0  0  0  0  0  0
  -25.2115  -24.8594   24.4365 C   0  0  0  0  0  0  0  0  0  0  0  0
  -23.4943  -12.5493   28.1944 C   0  0  0  0  0  0  0  0  0  0  0  0
  -30.1753  -19.7835   19.9377 C   0  0  0  0  0  0  0  0  0  0  0  0
  -24.7661  -11.0549   30.1773 C   0  0  0  0  0  0  0  0  0  0  0  0
  -32.4014  -18.8492   19.8454 C   0  0  0  0  0  0  0  0  0  0  0  0
  -22.7794  -11.5894   28.9106 C   0  0  0  0  0  0  0  0  0  0  0  0
  -24.8631  -12.9233   21.9999 C   0  0  0  0  0  0  0  0  0  0  0  0
  -25.0679  -12.7322   19.8189 C   0  0  0  0  0  0  0  0  0  0  0  0
  -32.9231  -21.8490   19.2124 C   0  0  0  0  0  0  0  0  0  0  0  0
  -32.1442  -21.2801   20.1204 C   0  0  0  0  0  0  0  0  0  0  0  0
  -22.7035  -12.6647   20.6272 C   0  0  0  0  0  0  0  0  0  0  0  0
  -22.4930  -29.1327   22.4837 C   0  0  0  0  0  0  0  0  0  0  0  0
  -24.8187  -31.0381   23.7015 C   0  0  0  0  0  0  0  0  0  0  0  0
  -27.7763  -31.2835   25.3864 C   0  0  0  0  0  0  0  0  0  0  0  0
  -30.6185  -14.9022   19.3865 C   0  0  0  0  0  0  0  0  0  0  0  0
  -17.6792  -29.6726   20.8733 C   0  0  0  0  0  0  0  0  0  0  0  0
  -22.6447  -28.2891   24.8547 C   0  0  0  0  0  0  0  0  0  0  0  0
  -25.3152  -28.5660   23.6152 C   0  0  0  0  0  0  0  0  0  0  0  0
  -18.8981  -30.5834   20.9957 C   0  0  0  0  0  0  0  0  0  0  0  0
  -29.6284  -11.5005   19.0318 C   0  0  0  0  0  0  0  0  0  0  0  0
  -20.1280  -29.9135   20.3911 C   0  0  0  0  0  0  0  0  0  0  0  0
  -28.2241  -11.4665   19.6392 C   0  0  0  0  0  0  0  0  0  0  0  0
  -30.5519  -12.4513   19.7914 C   0  0  0  0  0  0  0  0  0  0  0  0
  -28.6297  -13.7806   20.5707 C   0  0  0  0  0  0  0  0  0  0  0  0
  -20.4692  -28.6150   21.1320 C   0  0  1  0  0  0  0  0  0  0  0  0
  -22.9650  -29.4192   23.8812 C   0  0  1  0  0  0  0  0  0  0  0  0
  -27.6451  -12.8858   19.8001 C   0  0  2  0  0  0  0  0  0  0  0  0
  -29.4479  -32.9709   26.1964 C   0  0  0  0  0  0  0  0  0  0  0  0
  -25.8790  -31.3494   20.8575 C   0  0  0  0  0  0  0  0  0  0  0  0
  -28.0196  -32.2158   21.8248 C   0  0  0  0  0  0  0  0  0  0  0  0
  -25.8879  -33.4528   22.2102 C   0  0  0  0  0  0  0  0  0  0  0  0
  -27.3624  -30.5088   28.2126 C   0  0  0  0  0  0  0  0  0  0  0  0
  -27.1695  -22.3326   22.7488 C   0  0  0  0  0  0  0  0  0  0  0  0
  -28.1465  -22.2726   21.5798 C   0  0  0  0  0  0  0  0  0  0  0  0
  -26.9265  -23.7652   23.2048 C   0  0  0  0  0  0  0  0  0  1  0  0
  -28.4230  -20.8384   21.1513 C   0  0  0  0  0  0  0  0  0  0  0  0
  -26.2823  -31.2605   23.4061 C   0  0  1  0  0  0  0  0  0  0  0  0
  -28.2055  -32.1659   26.5447 C   0  0  2  0  0  0  0  0  0  0  0  0
  -26.5073  -32.0440   22.0821 C   0  0  0  0  0  0  0  0  0  0  0  0
  -26.1794  -12.9824   21.7810 N   0  0  0  0  0  0  0  0  0  0  0  0
  -26.2722  -12.8632   20.4456 N   0  0  0  0  0  0  0  0  0  0  0  0
  -24.3989  -29.7038   23.7976 N   0  0  0  0  0  0  0  0  0  0  0  0
  -29.9398  -13.7773   19.9010 N   0  0  0  0  0  0  0  0  0  0  0  0
  -24.9793  -12.6019   18.4782 N   0  0  0  0  0  0  0  0  0  0  0  0
  -21.8754  -12.7201   21.7567 N   0  0  0  0  0  0  0  0  0  0  0  0
  -29.9246  -16.1045   19.5187 N   0  0  0  0  0  0  0  0  0  0  0  0
  -21.1333  -28.9072   22.3842 N   0  0  0  0  0  0  0  0  0  0  0  0
  -26.8432  -31.9087   24.5866 N   0  0  0  0  0  0  0  0  0  0  0  0
  -28.5050  -31.3353   27.7453 N   0  3  0  0  0  0  0  0  0  0  0  0
  -22.1872  -12.5110   19.4944 O   0  0  0  0  0  0  0  0  0  0  0  0
  -23.3023  -29.1188   21.5636 O   0  0  0  0  0  0  0  0  0  0  0  0
  -24.0766  -32.0124   23.8489 O   0  0  0  0  0  0  0  0  0  0  0  0
  -28.2268  -30.1542   25.2068 O   0  0  0  0  0  0  0  0  0  0  0  0
  -31.7212  -14.8020   18.8425 O   0  0  0  0  0  0  0  0  0  0  0  0
  -22.8647  -13.2914   27.2092 O   0  0  0  0  0  0  0  0  0  0  0  0
  -26.0238  -23.7750   24.3100 O   0  0  0  0  0  0  0  0  0  1  0  0
  -29.3250  -20.8524   20.0534 O   0  0  0  0  0  0  0  0  0  0  0  0
  -25.3772  -10.3364   31.1283 F   0  0  0  0  0  0  0  0  0  0  0  0
  -33.7343  -18.9959   19.8717 F   0  0  0  0  0  0  0  0  0  0  0  0
  -21.4817  -11.3797   28.6499 F   0  0  0  0  0  0  0  0  0  0  0  0
  1  2  1  0  0  0  0
  1  5  2  0  0  0  0
  2  6  2  0  0  0  0
  3  8  2  0  0  0  0
  3 17  1  0  0  0  0
  4  9  1  0  0  0  0
  4 17  2  0  0  0  0
  5 20  1  0  0  0  0
  6 22  1  0  0  0  0
  7 10  2  0  0  0  0
  7 21  1  0  0  0  0
  8 25  1  0  0  0  0
  9 25  2  0  0  0  0
 10 26  1  0  0  0  0
 11 12  2  0  0  0  0
 11 27  1  0  0  0  0
 12 29  1  0  0  0  0
 13 23  1  0  0  0  0
 13 26  2  0  0  0  0
 14 24  2  0  0  0  0
 14 28  1  0  0  0  0
 15 24  1  0  0  0  0
 15 30  2  0  0  0  0
 16 29  2  0  0  0  0
 16 31  1  0  0  0  0
 17 32  1  0  0  0  0
 18 28  2  0  0  0  0
 18 30  1  0  0  0  0
 18 35  1  0  0  0  0
 19 32  1  0  0  0  0
 19 33  2  0  0  0  0
 19 36  1  0  0  0  0
 20 22  2  0  0  0  0
 20 41  1  0  0  0  0
 21 23  2  0  0  0  0
 21 42  1  0  0  0  0
 22 50  1  0  0  0  0
 23 43  1  0  0  0  0
 24 71  1  0  0  0  0
 25 80  1  0  0  0  0
 26 81  1  0  0  0  0
 27 31  2  0  0  0  0
 27 80  1  0  0  0  0
 28 82  1  0  0  0  0
 29 83  1  0  0  0  0
 30 84  1  0  0  0  0
 31 85  1  0  0  0  0
 32 65  2  0  0  0  0
 33 66  1  0  0  0  0
 33 69  1  0  0  0  0
 34 35  2  0  0  0  0
 36 70  1  0  0  0  0
 36 75  2  0  0  0  0
 37 51  1  0  0  0  0
 37 72  1  0  0  0  0
 37 76  2  0  0  0  0
 38 62  1  0  0  0  0
 38 67  1  0  0  0  0
 38 77  2  0  0  0  0
 39 63  1  0  0  0  0
 39 73  1  0  0  0  0
 39 78  2  0  0  0  0
 40 68  1  0  0  0  0
 40 71  1  0  0  0  0
 40 79  2  0  0  0  0
 41 44  1  0  0  0  0
 42 51  1  0  0  0  0
 43 67  1  0  0  0  0
 44 46  1  0  0  0  0
 45 47  1  0  0  0  0
 45 48  1  0  0  0  0
 46 50  1  0  0  0  0
 47 52  1  0  0  0  0
 48 68  1  0  0  0  0
 49 52  1  0  0  0  0
 49 68  1  0  0  0  0
 50 72  1  0  0  0  0
 51 67  1  0  0  0  0
 52 66  1  0  0  0  0
 53 63  1  0  0  0  0
 54 64  1  0  0  0  0
 55 64  1  0  0  0  0
 56 64  1  0  0  0  0
 57 74  1  0  0  0  0
 58 59  1  0  0  0  0
 58 60  1  0  0  0  0
 59 61  1  0  0  0  0
 60 81  1  0  0  0  0
 61 82  1  0  0  0  0
 62 64  1  0  0  0  0
 62 73  1  0  0  0  0
 63 74  1  0  0  0  0
 65 66  1  0  0  0  0
M  CHG  1  74   1
M  ISO  4  40 100  60 101  71 100  81 101
M  END
> <Batch ID>
0119

> <Smiles>
C=Cc1c(F)cc([100NH:0][100C:0](=O)N2CCCC(n3nc(-c4ccc(Oc5ccc(F)cc5F)cc4)c(C(N)=O)c3N)C2)cc1OCCC[101CH2:1][101O:1]c1ccc2c(c1)CN(C(=O)C(NC(=O)C(C)NC)C(C)(C)C)C(C(=O)NC1CCCc3ccccc31)C2

> <Shape>
0.235

> <Color>
0.107

> <Negative vol penalty>
0.000

$$$$

  -OEChem-04052301513D

 84 92  0     1  0  0  0  0  0999 V2000
  -26.5033  -18.2858   21.0657 C   0  0  0  0  0  0  0  0  0  0  0  0
  -25.7440  -19.4493   20.9943 C   0  0  0  0  0  0  0  0  0  0  0  0
  -23.5995  -15.4689   19.9485 C   0  0  0  0  0  0  0  0  0  0  0  0
  -24.8274  -15.0659   21.9898 C   0  0  0  0  0  0  0  0  0  0  0  0
  -27.8301  -18.3456   21.4898 C   0  0  0  0  0  0  0  0  0  0  0  0
  -26.3108  -20.6733   21.3479 C   0  0  0  0  0  0  0  0  0  0  0  0
  -25.1452  -26.1341   18.8326 C   0  0  0  0  0  0  0  0  0  0  0  0
  -24.6012  -14.8283   19.2194 C   0  0  0  0  0  0  0  0  0  0  0  0
  -25.8292  -14.4252   21.2607 C   0  0  0  0  0  0  0  0  0  0  0  0
  -24.3185  -27.1878   19.2197 C   0  0  0  0  0  0  0  0  0  0  0  0
  -28.4564  -15.3111   19.3258 C   0  0  0  0  0  0  0  0  0  0  0  0
  -29.7808  -15.6310   19.6245 C   0  0  0  0  0  0  0  0  0  0  0  0
  -20.2346  -26.9816   22.1218 C   0  0  0  0  0  0  0  0  0  0  0  0
  -26.2022  -28.2741   20.2642 C   0  0  0  0  0  0  0  0  0  0  0  0
  -17.8495  -27.5800   23.4393 C   0  0  0  0  0  0  0  0  0  0  0  0
  -30.2096  -13.3229   20.1955 C   0  0  0  0  0  0  0  0  0  0  0  0
  -23.7126  -15.5878   21.3338 C   0  0  0  0  0  0  0  0  0  0  0  0
  -19.3392  -25.9608   22.4412 C   0  0  0  0  0  0  0  0  0  0  0  0
  -19.9374  -28.3015   22.4612 C   0  0  0  0  0  0  0  0  0  0  0  0
  -21.5345  -15.6620   22.6597 C   0  0  0  0  0  0  0  0  0  0  0  0
  -28.4164  -19.5722   21.8396 C   0  0  0  0  0  0  0  0  0  0  0  0
  -26.5067  -26.1372   19.1684 C   0  0  0  0  0  0  0  0  0  0  0  0
  -27.6464  -20.7494   21.7783 C   0  0  0  0  0  0  0  0  0  0  0  0
  -27.0446  -27.2205   19.8779 C   0  0  0  0  0  0  0  0  0  0  0  0
  -18.1467  -26.2600   23.0999 C   0  0  0  0  0  0  0  0  0  0  0  0
  -18.7449  -28.6007   23.1199 C   0  0  0  0  0  0  0  0  0  0  0  0
  -25.7160  -14.3064   19.8755 C   0  0  0  0  0  0  0  0  0  0  0  0
  -24.8463  -28.2567   19.9381 C   0  0  0  0  0  0  0  0  0  0  0  0
  -28.0086  -13.9971   19.4620 C   0  0  0  0  0  0  0  0  0  0  0  0
  -30.6574  -14.6369   20.0593 C   0  0  0  0  0  0  0  0  0  0  0  0
  -28.8851  -13.0030   19.8968 C   0  0  0  0  0  0  0  0  0  0  0  0
  -22.6784  -16.2501   22.0874 C   0  0  0  0  0  0  0  0  0  0  0  0
  -20.8767  -16.7062   23.2625 C   0  0  0  0  0  0  0  0  0  0  0  0
  -19.6773  -24.5919   22.0738 C   0  0  0  0  0  0  0  0  0  0  0  0
  -20.9066  -29.3524   22.1088 C   0  0  0  0  0  0  0  0  0  0  0  0
  -20.7537  -23.9088   22.5135 C   0  0  0  0  0  0  0  0  0  0  0  0
  -22.1709  -29.4189   22.5544 C   0  0  0  0  0  0  0  0  0  0  0  0
  -21.1050  -14.2941   22.6475 C   0  0  0  0  0  0  0  0  0  0  0  0
  -20.9542  -22.5192   22.0559 C   0  0  0  0  0  0  0  0  0  0  0  0
  -28.3914  -24.2632   20.9119 C   0  0  0  0  0  0  0  0  0  0  0  0
  -30.7270  -26.1942   19.7549 C   0  0  0  0  0  0  0  0  0  0  0  0
  -31.5990  -29.2249   18.4507 C   0  0  0  0  0  0  0  0  0  0  0  0
  -29.8401  -19.5806   22.3373 C   0  0  0  0  0  0  0  0  0  0  0  0
  -27.3907  -25.0058   18.7203 C   0  0  0  0  0  0  0  0  0  0  0  0
  -28.5039  -27.2815   20.2457 C   0  0  0  0  0  0  0  0  0  0  0  0
  -30.4776  -20.9676   22.3361 C   0  0  0  0  0  0  0  0  0  0  0  0
  -21.6423  -20.9524   25.2969 C   0  0  0  0  0  0  0  0  0  0  0  0
  -29.5269  -21.9927   22.9460 C   0  0  0  0  0  0  0  0  0  0  0  0
  -21.9285  -19.5143   24.8729 C   0  0  0  0  0  0  0  0  0  0  0  0
  -22.1233  -21.9619   24.2557 C   0  0  0  0  0  0  0  0  0  0  0  0
  -21.8735  -20.2693   22.4631 C   0  0  0  0  0  0  0  0  0  0  0  0
  -28.2331  -22.0993   22.1298 C   0  0  1  0  0  0  0  0  0  0  0  0
  -28.6558  -24.8667   19.5615 C   0  0  1  0  0  0  0  0  0  0  0  0
  -21.3555  -19.2348   23.4745 C   0  0  1  0  0  0  0  0  0  0  0  0
  -17.1642  -25.1915   23.4581 C   0  0  0  0  0  0  0  0  0  0  0  0
  -33.5885  -30.5215   17.6393 C   0  0  0  0  0  0  0  0  0  0  0  0
  -31.5941  -26.6660   22.6421 C   0  0  0  0  0  0  0  0  0  0  0  0
  -32.9095  -28.6437   21.8505 C   0  0  0  0  0  0  0  0  0  0  0  0
  -33.4765  -26.3592   21.0244 C   0  0  0  0  0  0  0  0  0  0  0  0
  -30.4657  -29.4844   15.7291 C   0  0  0  0  0  0  0  0  0  0  0  0
  -23.1252  -30.5192   22.1782 C   0  0  0  0  0  0  0  0  0  0  0  0
  -24.3864  -29.9706   21.5214 C   0  0  0  0  0  0  0  0  0  1  0  0
  -31.3667  -27.4856   20.2043 C   0  0  1  0  0  0  0  0  0  0  0  0
  -32.4459  -29.5976   17.2472 C   0  0  2  0  0  0  0  0  0  0  0  0
  -32.3087  -27.2869   21.4252 C   0  0  0  0  0  0  0  0  0  0  0  0
  -22.7463  -17.5658   22.3069 N   0  0  0  0  0  0  0  0  0  0  0  0
  -21.6368  -17.8132   23.0237 N   0  0  0  0  0  0  0  0  0  0  0  0
  -21.6094  -21.6397   22.9159 N   0  0  0  0  0  0  0  0  0  0  0  0
  -29.3261  -26.1483   19.7904 N   0  0  0  0  0  0  0  0  0  0  0  0
  -18.4189  -29.9294   23.4760 N   0  0  0  0  0  0  0  0  0  0  0  0
  -19.7280  -16.7763   23.9682 N   0  0  0  0  0  0  0  0  0  0  0  0
  -21.8994  -13.3503   21.9824 N   0  0  0  0  0  0  0  0  0  0  0  0
  -28.4535  -22.8830   20.9332 N   0  0  0  0  0  0  0  0  0  0  0  0
  -32.0230  -28.0469   19.0284 N   0  0  0  0  0  0  0  0  0  0  0  0
  -31.6135  -30.2884   16.2221 N   0  3  0  0  0  0  0  0  0  0  0  0
  -20.0396  -13.9227   23.1957 O   0  0  0  0  0  0  0  0  0  0  0  0
  -20.5329  -22.2228   20.9364 O   0  0  0  0  0  0  0  0  0  0  0  0
  -28.1504  -24.9957   21.8643 O   0  0  0  0  0  0  0  0  0  0  0  0
  -31.4435  -25.2630   19.3792 O   0  0  0  0  0  0  0  0  0  0  0  0
  -30.6581  -29.9122   18.8416 O   0  0  0  0  0  0  0  0  0  0  0  0
  -26.6936  -13.6809   19.1643 O   0  0  0  0  0  0  0  0  0  0  0  0
  -24.0414  -29.2862   20.3177 O   0  0  0  0  0  0  0  0  0  1  0  0
  -31.9296  -14.9440   20.3446 F   0  0  0  0  0  0  0  0  0  0  0  0
  -28.4610  -11.7386   20.0284 F   0  0  0  0  0  0  0  0  0  0  0  0
  1  2  1  0  0  0  0
  1  5  2  0  0  0  0
  2  6  2  0  0  0  0
  3  8  2  0  0  0  0
  3 17  1  0  0  0  0
  4  9  1  0  0  0  0
  4 17  2  0  0  0  0
  5 21  1  0  0  0  0
  6 23  1  0  0  0  0
  7 10  2  0  0  0  0
  7 22  1  0  0  0  0
  8 27  1  0  0  0  0
  9 27  2  0  0  0  0
 10 28  1  0  0  0  0
 11 12  2  0  0  0  0
 11 29  1  0  0  0  0
 12 30  1  0  0  0  0
 13 18  2  0  0  0  0
 13 19  1  0  0  0  0
 14 24  1  0  0  0  0
 14 28  2  0  0  0  0
 15 25  2  0  0  0  0
 15 26  1  0  0  0  0
 16 30  2  0  0  0  0
 16 31  1  0  0  0  0
 17 32  1  0  0  0  0
 18 25  1  0  0  0  0
 18 34  1  0  0  0  0
 19 26  2  0  0  0  0
 19 35  1  0  0  0  0
 20 32  1  0  0  0  0
 20 33  2  0  0  0  0
 20 38  1  0  0  0  0
 21 23  2  0  0  0  0
 21 43  1  0  0  0  0
 22 24  2  0  0  0  0
 22 44  1  0  0  0  0
 23 52  1  0  0  0  0
 24 45  1  0  0  0  0
 25 55  1  0  0  0  0
 26 70  1  0  0  0  0
 27 81  1  0  0  0  0
 28 82  1  0  0  0  0
 29 31  2  0  0  0  0
 29 81  1  0  0  0  0
 30 83  1  0  0  0  0
 31 84  1  0  0  0  0
 32 66  2  0  0  0  0
 33 67  1  0  0  0  0
 33 71  1  0  0  0  0
 34 36  2  0  0  0  0
 35 37  2  0  0  0  0
 36 39  1  0  0  0  0
 37 61  1  0  0  0  0
 38 72  1  0  0  0  0
 38 76  2  0  0  0  0
 39 68  1  0  0  0  0
 39 77  2  0  0  0  0
 40 53  1  0  0  0  0
 40 73  1  0  0  0  0
 40 78  2  0  0  0  0
 41 63  1  0  0  0  0
 41 69  1  0  0  0  0
 41 79  2  0  0  0  0
 42 64  1  0  0  0  0
 42 74  1  0  0  0  0
 42 80  2  0  0  0  0
 43 46  1  0  0  0  0
 44 53  1  0  0  0  0
 45 69  1  0  0  0  0
 46 48  1  0  0  0  0
 47 49  1  0  0  0  0
 47 50  1  0  0  0  0
 48 52  1  0  0  0  0
 49 54  1  0  0  0  0
 50 68  1  0  0  0  0
 51 54  1  0  0  0  0
 51 68  1  0  0  0  0
 52 73  1  0  0  0  0
 53 69  1  0  0  0  0
 54 67  1  0  0  0  0
 56 64  1  0  0  0  0
 57 65  1  0  0  0  0
 58 65  1  0  0  0  0
 59 65  1  0  0  0  0
 60 75  1  0  0  0  0
 61 62  1  0  0  0  0
 62 82  1  0  0  0  0
 63 65  1  0  0  0  0
 63 74  1  0  0  0  0
 64 75  1  0  0  0  0
 66 67  1  0  0  0  0
M  CHG  1  75   1
M  ISO  4  36 100  39 100  62 101  82 101
M  END
> <Batch ID>
0119

> <Smiles>
CNC(C)C(=O)NC(C(=O)N1Cc2cc([101O:1][101CH2:1]CC=Cc3cc(C=[100CH:0][100C:0](=O)N4CCCC(n5nc(-c6ccc(Oc7ccc(F)cc7F)cc6)c(C(N)=O)c5N)C4)c(C)cc3N)ccc2CC1C(=O)NC1CCCc2ccccc21)C(C)(C)C

> <Shape>
0.241

> <Color>
0.046

> <Negative vol penalty>
0.000

$$$$

  -OEChem-04052301513D

 86 94  0     1  0  0  0  0  0999 V2000
  -23.8385   -8.5170   20.4241 C   0  0  0  0  0  0  0  0  0  0  0  0
  -24.8989   -9.2539   19.9065 C   0  0  0  0  0  0  0  0  0  0  0  0
  -20.6332  -25.1921   23.8926 C   0  0  0  0  0  0  0  0  0  0  0  0
  -21.8063  -25.4344   21.7945 C   0  0  0  0  0  0  0  0  0  0  0  0
  -22.7663   -9.1712   21.0295 C   0  0  0  0  0  0  0  0  0  0  0  0
  -24.8872  -10.6456   19.9929 C   0  0  0  0  0  0  0  0  0  0  0  0
  -29.3108  -16.2297   20.7449 C   0  0  0  0  0  0  0  0  0  0  0  0
  -19.6334  -26.0490   23.4326 C   0  0  0  0  0  0  0  0  0  0  0  0
  -20.8065  -26.2913   21.3344 C   0  0  0  0  0  0  0  0  0  0  0  0
  -29.6154  -17.4509   20.1451 C   0  0  0  0  0  0  0  0  0  0  0  0
  -16.9536  -28.4580   22.9438 C   0  0  0  0  0  0  0  0  0  0  0  0
  -16.4999  -29.4521   23.8106 C   0  0  0  0  0  0  0  0  0  0  0  0
  -27.7479  -18.4688   21.2832 C   0  0  0  0  0  0  0  0  0  0  0  0
  -30.6051  -26.4420   20.7617 C   0  0  0  0  0  0  0  0  0  0  0  0
  -29.8987  -25.3171   18.7436 C   0  0  0  0  0  0  0  0  0  0  0  0
  -18.7304  -30.3739   23.9209 C   0  0  0  0  0  0  0  0  0  0  0  0
  -21.7197  -24.8848   23.0736 C   0  0  0  0  0  0  0  0  0  0  0  0
  -29.6724  -24.2166   20.8825 C   0  0  0  0  0  0  0  0  0  0  0  0
  -22.8015  -22.5997   23.4135 C   0  0  0  0  0  0  0  0  0  0  0  0
  -22.7461  -10.5711   21.1320 C   0  0  0  0  0  0  0  0  0  0  0  0
  -28.2140  -16.1162   21.6113 C   0  0  0  0  0  0  0  0  0  0  0  0
  -23.8131  -11.3192   20.5990 C   0  0  0  0  0  0  0  0  0  0  0  0
  -27.4330  -17.2457   21.8947 C   0  0  0  0  0  0  0  0  0  0  0  0
  -30.2188  -25.3334   21.5149 C   0  0  0  0  0  0  0  0  0  0  0  0
  -29.5123  -24.2085   19.4968 C   0  0  0  0  0  0  0  0  0  0  0  0
  -19.7200  -26.5986   22.1535 C   0  0  0  0  0  0  0  0  0  0  0  0
  -28.8322  -18.5700   20.4120 C   0  0  0  0  0  0  0  0  0  0  0  0
  -18.2957  -28.4218   22.5655 C   0  0  0  0  0  0  0  0  0  0  0  0
  -17.3883  -30.4101   24.2992 C   0  0  0  0  0  0  0  0  0  0  0  0
  -30.4450  -26.4339   19.3760 C   0  0  0  0  0  0  0  0  0  0  0  0
  -19.1841  -29.3798   23.0540 C   0  0  0  0  0  0  0  0  0  0  0  0
  -22.7532  -24.0001   23.5484 C   0  0  0  0  0  0  0  0  0  0  0  0
  -23.9754  -22.2360   24.0269 C   0  0  0  0  0  0  0  0  0  0  0  0
  -29.8090  -22.1966   18.4530 C   0  0  0  0  0  0  0  0  0  0  0  0
  -29.2683  -23.0576   21.6721 C   0  0  0  0  0  0  0  0  0  0  0  0
  -21.8688  -21.7074   22.7895 C   0  0  0  0  0  0  0  0  0  0  0  0
  -25.5103  -14.4448   21.6004 C   0  0  0  0  0  0  0  0  0  0  0  0
  -25.1756  -15.7053   24.5705 C   0  0  0  0  0  0  0  0  0  0  0  0
  -25.9590  -18.1991   26.7646 C   0  0  0  0  0  0  0  0  0  0  0  0
  -29.0927  -25.1555   25.0948 C   0  0  0  0  0  0  0  0  0  0  0  0
  -21.5432  -11.2361   21.7528 C   0  0  0  0  0  0  0  0  0  0  0  0
  -27.9148  -14.7981   22.2711 C   0  0  0  0  0  0  0  0  0  0  0  0
  -26.2569  -17.1814   22.8334 C   0  0  0  0  0  0  0  0  0  0  0  0
  -21.7841  -12.6934   22.1383 C   0  0  0  0  0  0  0  0  0  0  0  0
  -26.9685  -23.6093   27.4976 C   0  0  0  0  0  0  0  0  0  0  0  0
  -22.4753  -13.4391   21.0012 C   0  0  0  0  0  0  0  0  0  0  0  0
  -25.6517  -23.4078   26.7458 C   0  0  0  0  0  0  0  0  0  0  0  0
  -27.6535  -24.9139   27.0964 C   0  0  0  0  0  0  0  0  0  0  0  0
  -26.5469  -24.8809   24.8946 C   0  0  0  0  0  0  0  0  0  0  0  0
  -23.8486  -12.8290   20.6957 C   0  0  1  0  0  0  0  0  0  0  0  0
  -26.4667  -14.6776   22.7357 C   0  0  1  0  0  0  0  0  0  0  0  0
  -25.8469  -23.5515   25.2244 C   0  0  2  0  0  0  0  0  0  0  0  0
  -27.8277  -22.6493   21.6078 C   0  0  0  0  0  0  0  0  0  0  0  0
  -25.5034  -18.9776   29.1064 C   0  0  0  0  0  0  0  0  0  0  0  0
  -22.4249  -16.7001   23.7021 C   0  0  0  0  0  0  0  0  0  0  0  0
  -22.4325  -18.2349   25.6801 C   0  0  0  0  0  0  0  0  0  0  0  0
  -22.5121  -15.7649   26.0198 C   0  0  0  0  0  0  0  0  0  0  0  0
  -28.8137  -17.9843   27.5153 C   0  0  0  0  0  0  0  0  0  0  0  0
  -30.4019  -25.3721   22.9975 C   0  0  0  0  0  0  0  0  0  0  0  0
  -29.3372  -20.9524   17.7493 C   0  0  0  0  0  0  0  0  0  0  0  0
  -29.7439  -19.7212   18.5413 C   0  0  0  0  0  0  0  0  0  1  0  0
  -24.5564  -16.9609   25.1354 C   0  0  1  0  0  0  0  0  0  0  0  0
  -26.4210  -18.1605   28.2101 C   0  0  2  0  0  0  0  0  0  0  0  0
  -23.0024  -16.9163   25.1151 C   0  0  0  0  0  0  0  0  0  0  0  0
  -23.8120  -24.4926   24.1967 N   0  0  0  0  0  0  0  0  0  0  0  0
  -28.9632  -23.0956   18.8381 N   0  0  0  0  0  0  0  0  0  0  0  0
  -24.5368  -23.3955   24.4748 N   0  0  0  0  0  0  0  0  0  0  0  0
  -26.0009  -15.8687   23.4489 N   0  0  0  0  0  0  0  0  0  0  0  0
  -27.8100  -24.9870   25.6418 N   0  0  0  0  0  0  0  0  0  0  0  0
  -24.5718  -21.0407   24.2215 N   0  0  0  0  0  0  0  0  0  0  0  0
  -20.7142  -22.2479   22.2072 N   0  0  0  0  0  0  0  0  0  0  0  0
  -24.8198  -13.2507   21.6823 N   0  0  0  0  0  0  0  0  0  0  0  0
  -25.1319  -17.1375   26.4644 N   0  0  0  0  0  0  0  0  0  0  0  0
  -29.1529  -25.2084   23.7076 N   0  0  0  0  0  0  0  0  0  0  0  0
  -27.8020  -18.7083   28.3273 N   0  3  0  0  0  0  0  0  0  0  0  0
  -30.0218  -22.3986   22.3866 O   0  0  0  0  0  0  0  0  0  0  0  0
  -22.0457  -20.4658   22.7638 O   0  0  0  0  0  0  0  0  0  0  0  0
  -25.4056  -15.2869   20.7163 O   0  0  0  0  0  0  0  0  0  0  0  0
  -24.9414  -14.6205   25.1089 O   0  0  0  0  0  0  0  0  0  0  0  0
  -26.2949  -19.0845   25.9813 O   0  0  0  0  0  0  0  0  0  0  0  0
  -30.1097  -25.2464   25.7909 O   0  0  0  0  0  0  0  0  0  0  0  0
  -18.7445  -27.4347   21.7042 O   0  0  0  0  0  0  0  0  0  0  0  0
  -29.1269  -19.7630   19.8273 O   0  0  0  0  0  0  0  0  0  1  0  0
  -16.9522  -31.3656   25.1304 F   0  0  0  0  0  0  0  0  0  0  0  0
  -30.8148  -27.4991   18.6531 F   0  0  0  0  0  0  0  0  0  0  0  0
  -20.4744  -29.3508   22.6933 F   0  0  0  0  0  0  0  0  0  0  0  0
  1  2  1  0  0  0  0
  1  5  2  0  0  0  0
  2  6  2  0  0  0  0
  3  8  2  0  0  0  0
  3 17  1  0  0  0  0
  4  9  1  0  0  0  0
  4 17  2  0  0  0  0
  5 20  1  0  0  0  0
  6 22  1  0  0  0  0
  7 10  2  0  0  0  0
  7 21  1  0  0  0  0
  8 26  1  0  0  0  0
  9 26  2  0  0  0  0
 10 27  1  0  0  0  0
 11 12  2  0  0  0  0
 11 28  1  0  0  0  0
 12 29  1  0  0  0  0
 13 23  1  0  0  0  0
 13 27  2  0  0  0  0
 14 24  2  0  0  0  0
 14 30  1  0  0  0  0
 15 25  1  0  0  0  0
 15 30  2  0  0  0  0
 16 29  2  0  0  0  0
 16 31  1  0  0  0  0
 17 32  1  0  0  0  0
 18 24  1  0  0  0  0
 18 25  2  0  0  0  0
 18 35  1  0  0  0  0
 19 32  1  0  0  0  0
 19 33  2  0  0  0  0
 19 36  1  0  0  0  0
 20 22  2  0  0  0  0
 20 41  1  0  0  0  0
 21 23  2  0  0  0  0
 21 42  1  0  0  0  0
 22 50  1  0  0  0  0
 23 43  1  0  0  0  0
 24 59  1  0  0  0  0
 25 66  1  0  0  0  0
 26 82  1  0  0  0  0
 27 83  1  0  0  0  0
 28 31  2  0  0  0  0
 28 82  1  0  0  0  0
 29 84  1  0  0  0  0
 30 85  1  0  0  0  0
 31 86  1  0  0  0  0
 32 65  2  0  0  0  0
 33 67  1  0  0  0  0
 33 70  1  0  0  0  0
 34 60  1  0  0  0  0
 34 66  2  0  0  0  0
 35 53  1  0  0  0  0
 35 76  2  0  0  0  0
 36 71  1  0  0  0  0
 36 77  2  0  0  0  0
 37 51  1  0  0  0  0
 37 72  1  0  0  0  0
 37 78  2  0  0  0  0
 38 62  1  0  0  0  0
 38 68  1  0  0  0  0
 38 79  2  0  0  0  0
 39 63  1  0  0  0  0
 39 73  1  0  0  0  0
 39 80  2  0  0  0  0
 40 69  1  0  0  0  0
 40 74  1  0  0  0  0
 40 81  2  0  0  0  0
 41 44  1  0  0  0  0
 42 51  1  0  0  0  0
 43 68  1  0  0  0  0
 44 46  1  0  0  0  0
 45 47  1  0  0  0  0
 45 48  1  0  0  0  0
 46 50  1  0  0  0  0
 47 52  1  0  0  0  0
 48 69  1  0  0  0  0
 49 52  1  0  0  0  0
 49 69  1  0  0  0  0
 50 72  1  0  0  0  0
 51 68  1  0  0  0  0
 52 67  1  0  0  0  0
 54 63  1  0  0  0  0
 55 64  1  0  0  0  0
 56 64  1  0  0  0  0
 57 64  1  0  0  0  0
 58 75  1  0  0  0  0
 59 74  1  0  0  0  0
 60 61  1  0  0  0  0
 61 83  1  0  0  0  0
 62 64  1  0  0  0  0
 62 73  1  0  0  0  0
 63 75  1  0  0  0  0
 65 67  1  0  0  0  0
M  CHG  1  75   1
M  ISO  4  40 100  61 101  74 100  83 101
M  END
> <Batch ID>
0119

> <Smiles>
CNC(C)C(=O)NC(C(=O)N1Cc2cc([101O:1][101CH2:1]C=CNc3cc(F)cc(C[100NH:0][100C:0](=O)N4CCCC(n5nc(-c6ccc(Oc7ccc(F)cc7F)cc6)c(C(N)=O)c5N)C4)c3C(C)=O)ccc2CC1C(=O)NC1CCCc2ccccc21)C(C)(C)C

> <Shape>
0.212

> <Color>
0.072

> <Negative vol penalty>
0.000

$$$$

  -OEChem-04052301513D

 85 93  0     1  0  0  0  0  0999 V2000
  -29.3835  -35.3160   20.2892 C   0  0  0  0  0  0  0  0  0  0  0  0
  -29.4675  -33.9285   20.3444 C   0  0  0  0  0  0  0  0  0  0  0  0
  -24.6386   -9.3368   21.9086 C   0  0  0  0  0  0  0  0  0  0  0  0
  -23.4178  -10.2273   20.0235 C   0  0  0  0  0  0  0  0  0  0  0  0
  -28.4628  -35.9899   21.0905 C   0  0  0  0  0  0  0  0  0  0  0  0
  -28.6315  -33.2141   21.2018 C   0  0  0  0  0  0  0  0  0  0  0  0
  -26.5949  -29.1428   18.9833 C   0  0  0  0  0  0  0  0  0  0  0  0
  -23.5594   -8.5086   22.2164 C   0  0  0  0  0  0  0  0  0  0  0  0
  -22.3385   -9.3990   20.3313 C   0  0  0  0  0  0  0  0  0  0  0  0
  -27.4071  -28.0175   18.8493 C   0  0  0  0  0  0  0  0  0  0  0  0
  -22.2620   -5.5909   21.1043 C   0  0  0  0  0  0  0  0  0  0  0  0
  -22.5352   -4.2590   21.4155 C   0  0  0  0  0  0  0  0  0  0  0  0
  -28.6137  -19.0284   17.1069 C   0  0  0  0  0  0  0  0  0  0  0  0
  -26.3523  -27.0334   20.7827 C   0  0  0  0  0  0  0  0  0  0  0  0
  -29.3905  -17.7184   14.7696 C   0  0  0  0  0  0  0  0  0  0  0  0
  -21.5386   -4.5640   23.5952 C   0  0  0  0  0  0  0  0  0  0  0  0
  -24.5678  -10.1962   20.8122 C   0  0  0  0  0  0  0  0  0  0  0  0
  -28.8660  -19.7616   15.9474 C   0  0  0  0  0  0  0  0  0  0  0  0
  -26.7687  -10.7552   19.6498 C   0  0  0  0  0  0  0  0  0  0  0  0
  -27.6084  -35.2828   21.9510 C   0  0  0  0  0  0  0  0  0  0  0  0
  -25.6613  -29.2266   20.0263 C   0  0  0  0  0  0  0  0  0  0  0  0
  -27.6994  -33.8793   22.0164 C   0  0  0  0  0  0  0  0  0  0  0  0
  -25.5276  -28.1597   20.9262 C   0  0  0  0  0  0  0  0  0  0  0  0
  -29.2544  -19.1066   14.7788 C   0  0  0  0  0  0  0  0  0  0  0  0
  -29.1383  -16.9852   15.9291 C   0  0  0  0  0  0  0  0  0  0  0  0
  -28.7499  -17.6402   17.0978 C   0  0  0  0  0  0  0  0  0  0  0  0
  -22.4093   -8.5396   21.4277 C   0  0  0  0  0  0  0  0  0  0  0  0
  -27.2879  -26.9639   19.7508 C   0  0  0  0  0  0  0  0  0  0  0  0
  -21.6272   -6.4095   22.0385 C   0  0  0  0  0  0  0  0  0  0  0  0
  -22.1734   -3.7455   22.6610 C   0  0  0  0  0  0  0  0  0  0  0  0
  -21.2655   -5.8960   23.2839 C   0  0  0  0  0  0  0  0  0  0  0  0
  -25.6822  -11.0525   20.4941 C   0  0  0  0  0  0  0  0  0  0  0  0
  -27.5464  -11.8870   19.6796 C   0  0  0  0  0  0  0  0  0  0  0  0
  -28.7144  -21.2255   15.9890 C   0  0  0  0  0  0  0  0  0  0  0  0
  -29.3830  -22.0501   16.8105 C   0  0  0  0  0  0  0  0  0  0  0  0
  -27.0499   -9.5628   18.9050 C   0  0  0  0  0  0  0  0  0  0  0  0
  -25.2395  -31.1665   22.5087 C   0  0  0  0  0  0  0  0  0  0  0  0
  -28.7234  -24.0219   18.1859 C   0  0  0  0  0  0  0  0  0  0  0  0
  -22.5086  -29.4565   22.8838 C   0  0  0  0  0  0  0  0  0  0  0  0
  -20.8112  -26.5490   22.3256 C   0  0  0  0  0  0  0  0  0  0  0  0
  -28.0949  -17.4257   19.5208 C   0  0  0  0  0  0  0  0  0  0  0  0
  -26.6619  -36.0582   22.8328 C   0  0  0  0  0  0  0  0  0  0  0  0
  -24.7741  -30.4357   20.1412 C   0  0  0  0  0  0  0  0  0  0  0  0
  -24.5267  -28.1918   22.0512 C   0  0  0  0  0  0  0  0  0  0  0  0
  -25.5538  -35.2010   23.4390 C   0  0  0  0  0  0  0  0  0  0  0  0
  -27.3176  -15.9628   22.6725 C   0  0  0  0  0  0  0  0  0  0  0  0
  -26.1304  -33.9103   24.0121 C   0  0  0  0  0  0  0  0  0  0  0  0
  -26.9123  -14.5304   22.3173 C   0  0  0  0  0  0  0  0  0  0  0  0
  -26.8461  -16.9635   21.6189 C   0  0  0  0  0  0  0  0  0  0  0  0
  -26.8347  -15.2133   19.8852 C   0  0  0  0  0  0  0  0  0  0  0  0
  -26.7926  -33.0673   22.9155 C   0  0  1  0  0  0  0  0  0  0  0  0
  -24.2150  -30.6352   21.5465 C   0  0  1  0  0  0  0  0  0  0  0  0
  -27.3439  -14.1615   20.8844 C   0  0  2  0  0  0  0  0  0  0  0  0
  -29.5337  -19.8602   13.5181 C   0  0  0  0  0  0  0  0  0  0  0  0
  -29.2913  -15.4993   15.8903 C   0  0  0  0  0  0  0  0  0  0  0  0
  -18.6111  -25.4329   22.7855 C   0  0  0  0  0  0  0  0  0  0  0  0
  -23.3750  -28.9410   25.7637 C   0  0  0  0  0  0  0  0  0  0  0  0
  -21.6858  -27.0961   25.8681 C   0  0  0  0  0  0  0  0  0  0  0  0
  -20.9419  -29.4454   25.4806 C   0  0  0  0  0  0  0  0  0  0  0  0
  -20.1973  -26.3099   19.4402 C   0  0  0  0  0  0  0  0  0  0  0  0
  -29.1900  -23.5357   16.8210 C   0  0  0  0  0  0  0  0  0  0  0  0
  -28.5009  -25.5176   18.3041 C   0  0  0  0  0  0  0  0  0  1  0  0
  -22.1281  -28.1994   23.6280 C   0  0  1  0  0  0  0  0  0  0  0  0
  -19.4080  -26.2848   21.8099 C   0  0  2  0  0  0  0  0  0  0  0  0
  -22.0530  -28.4204   25.1651 C   0  0  0  0  0  0  0  0  0  0  0  0
  -25.7593  -12.2770   21.0219 N   0  0  0  0  0  0  0  0  0  0  0  0
  -26.9036  -12.7592   20.5080 N   0  0  0  0  0  0  0  0  0  0  0  0
  -23.6864  -29.3984   22.1254 N   0  0  0  0  0  0  0  0  0  0  0  0
  -27.2955  -16.5514   20.2874 N   0  0  0  0  0  0  0  0  0  0  0  0
  -28.7105  -12.2111   19.0779 N   0  0  0  0  0  0  0  0  0  0  0  0
  -26.1458   -8.4950   18.9871 N   0  0  0  0  0  0  0  0  0  0  0  0
  -28.4888  -16.9128   18.2853 N   0  0  0  0  0  0  0  0  0  0  0  0
  -25.7894  -32.3773   22.1333 N   0  0  0  0  0  0  0  0  0  0  0  0
  -20.8821  -27.7323   23.0298 N   0  0  0  0  0  0  0  0  0  0  0  0
  -19.4624  -25.5741   20.5011 N   0  3  0  0  0  0  0  0  0  0  0  0
  -28.0809   -9.4415   18.2009 O   0  0  0  0  0  0  0  0  0  0  0  0
  -25.5099  -30.5260   23.5179 O   0  0  0  0  0  0  0  0  0  0  0  0
  -28.5214  -23.2632   19.1332 O   0  0  0  0  0  0  0  0  0  0  0  0
  -21.7836  -30.4511   22.9665 O   0  0  0  0  0  0  0  0  0  0  0  0
  -21.7495  -25.7805   22.1269 O   0  0  0  0  0  0  0  0  0  0  0  0
  -28.4296  -18.5360   19.9416 O   0  0  0  0  0  0  0  0  0  0  0  0
  -21.3560   -7.7314   21.7276 O   0  0  0  0  0  0  0  0  0  0  0  0
  -28.0799  -25.8646   19.6227 O   0  0  0  0  0  0  0  0  0  1  0  0
  -22.4344   -2.4660   22.9592 F   0  0  0  0  0  0  0  0  0  0  0  0
  -20.6543   -6.6772   24.1851 F   0  0  0  0  0  0  0  0  0  0  0  0
  1  2  1  0  0  0  0
  1  5  2  0  0  0  0
  2  6  2  0  0  0  0
  3  8  2  0  0  0  0
  3 17  1  0  0  0  0
  4  9  1  0  0  0  0
  4 17  2  0  0  0  0
  5 20  1  0  0  0  0
  6 22  1  0  0  0  0
  7 10  2  0  0  0  0
  7 21  1  0  0  0  0
  8 27  1  0  0  0  0
  9 27  2  0  0  0  0
 10 28  1  0  0  0  0
 11 12  2  0  0  0  0
 11 29  1  0  0  0  0
 12 30  1  0  0  0  0
 13 18  1  0  0  0  0
 13 26  2  0  0  0  0
 14 23  1  0  0  0  0
 14 28  2  0  0  0  0
 15 24  1  0  0  0  0
 15 25  2  0  0  0  0
 16 30  2  0  0  0  0
 16 31  1  0  0  0  0
 17 32  1  0  0  0  0
 18 24  2  0  0  0  0
 18 34  1  0  0  0  0
 19 32  1  0  0  0  0
 19 33  2  0  0  0  0
 19 36  1  0  0  0  0
 20 22  2  0  0  0  0
 20 42  1  0  0  0  0
 21 23  2  0  0  0  0
 21 43  1  0  0  0  0
 22 51  1  0  0  0  0
 23 44  1  0  0  0  0
 24 54  1  0  0  0  0
 25 26  1  0  0  0  0
 25 55  1  0  0  0  0
 26 72  1  0  0  0  0
 27 82  1  0  0  0  0
 28 83  1  0  0  0  0
 29 31  2  0  0  0  0
 29 82  1  0  0  0  0
 30 84  1  0  0  0  0
 31 85  1  0  0  0  0
 32 66  2  0  0  0  0
 33 67  1  0  0  0  0
 33 70  1  0  0  0  0
 34 35  2  0  0  0  0
 35 61  1  0  0  0  0
 36 71  1  0  0  0  0
 36 76  2  0  0  0  0
 37 52  1  0  0  0  0
 37 73  1  0  0  0  0
 37 77  2  0  0  0  0
 38 61  1  0  0  0  0
 38 62  1  0  0  0  0
 38 78  2  0  0  0  0
 39 63  1  0  0  0  0
 39 68  1  0  0  0  0
 39 79  2  0  0  0  0
 40 64  1  0  0  0  0
 40 74  1  0  0  0  0
 40 80  2  0  0  0  0
 41 69  1  0  0  0  0
 41 72  1  0  0  0  0
 41 81  2  0  0  0  0
 42 45  1  0  0  0  0
 43 52  1  0  0  0  0
 44 68  1  0  0  0  0
 45 47  1  0  0  0  0
 46 48  1  0  0  0  0
 46 49  1  0  0  0  0
 47 51  1  0  0  0  0
 48 53  1  0  0  0  0
 49 69  1  0  0  0  0
 50 53  1  0  0  0  0
 50 69  1  0  0  0  0
 51 73  1  0  0  0  0
 52 68  1  0  0  0  0
 53 67  1  0  0  0  0
 56 64  1  0  0  0  0
 57 65  1  0  0  0  0
 58 65  1  0  0  0  0
 59 65  1  0  0  0  0
 60 75  1  0  0  0  0
 62 83  1  0  0  0  0
 63 65  1  0  0  0  0
 63 74  1  0  0  0  0
 64 75  1  0  0  0  0
 66 67  1  0  0  0  0
M  CHG  1  75   1
M  ISO  4  41 100  62 101  72 100  83 101
M  END
> <Batch ID>
0119

> <Smiles>
CNC(C)C(=O)NC(C(=O)N1Cc2cc([101O:1][101CH2:1]C(=O)CC=Cc3cc([100NH:0][100C:0](=O)N4CCCC(n5nc(-c6ccc(Oc7ccc(F)cc7F)cc6)c(C(N)=O)c5N)C4)c(C)cc3C)ccc2CC1C(=O)NC1CCCc2ccccc21)C(C)(C)C

> <Shape>
0.303

> <Color>
0.091

> <Negative vol penalty>
0.000

$$$$
